data_LUDLIH_clean_PM
_symmetry_space_group_name_H-M	'P1'
_cell_length_a	26.370000
_cell_length_b	26.370000
_cell_length_c	26.370000
_cell_angle_alpha	90.000000
_cell_angle_beta	90.000000
_cell_angle_gamma	90.000000
_symmetry_Int_Tables_number 1

loop_
_symmetry_equiv_pos_as_xyz
'x,y,z'

loop_
_atom_site_label
_atom_site_type_symbol
_atom_site_fract_x
_atom_site_fract_y
_atom_site_fract_z
O11	O1	0.816820	0.243680	0.552190
O21	O2	0.816820	0.743680	0.052190
O31	O3	0.316820	0.243680	0.052190
O41	O4	0.316820	0.743680	0.552190
O51	O5	0.183180	0.756320	0.552190
O61	O6	0.183180	0.256320	0.052190
O71	O7	0.683180	0.756320	0.052190
O81	O8	0.683180	0.256320	0.552190
O91	O9	0.183180	0.243680	0.447810
O101	O10	0.183180	0.743680	0.947810
O111	O11	0.683180	0.243680	0.947810
O121	O12	0.683180	0.743680	0.447810
O131	O13	0.816820	0.756320	0.447810
O141	O14	0.816820	0.256320	0.947810
O151	O15	0.316820	0.756320	0.947810
O161	O16	0.316820	0.256320	0.447810
O171	O17	0.552190	0.816820	0.243680
O181	O18	0.552190	0.316820	0.743680
O191	O19	0.052190	0.816820	0.743680
O201	O20	0.052190	0.316820	0.243680
O211	O21	0.552190	0.183180	0.756320
O221	O22	0.552190	0.683180	0.256320
O231	O23	0.052190	0.183180	0.256320
O241	O24	0.052190	0.683180	0.756320
O251	O25	0.447810	0.183180	0.243680
O261	O26	0.447810	0.683180	0.743680
O271	O27	0.947810	0.183180	0.743680
O281	O28	0.947810	0.683180	0.243680
O291	O29	0.447810	0.816820	0.756320
O301	O30	0.447810	0.316820	0.256320
O311	O31	0.947810	0.816820	0.256320
O321	O32	0.947810	0.316820	0.756320
O331	O33	0.243680	0.552190	0.816820
O341	O34	0.243680	0.052190	0.316820
O351	O35	0.743680	0.552190	0.316820
O361	O36	0.743680	0.052190	0.816820
O371	O37	0.756320	0.552190	0.183180
O381	O38	0.756320	0.052190	0.683180
O391	O39	0.256320	0.552190	0.683180
O401	O40	0.256320	0.052190	0.183180
O411	O41	0.243680	0.447810	0.183180
O421	O42	0.243680	0.947810	0.683180
O431	O43	0.743680	0.447810	0.683180
O441	O44	0.743680	0.947810	0.183180
O451	O45	0.756320	0.447810	0.816820
O461	O46	0.756320	0.947810	0.316820
O471	O47	0.256320	0.447810	0.316820
O481	O48	0.256320	0.947810	0.816820
O491	O49	0.243680	0.816820	0.447810
O501	O50	0.243680	0.316820	0.947810
O511	O51	0.743680	0.816820	0.947810
O521	O52	0.743680	0.316820	0.447810
O531	O53	0.756320	0.183180	0.447810
O541	O54	0.756320	0.683180	0.947810
O551	O55	0.256320	0.183180	0.947810
O561	O56	0.256320	0.683180	0.447810
O571	O57	0.243680	0.183180	0.552190
O581	O58	0.243680	0.683180	0.052190
O591	O59	0.743680	0.183180	0.052190
O601	O60	0.743680	0.683180	0.552190
O611	O61	0.756320	0.816820	0.552190
O621	O62	0.756320	0.316820	0.052190
O631	O63	0.256320	0.816820	0.052190
O641	O64	0.256320	0.316820	0.552190
O651	O65	0.816820	0.552190	0.756320
O661	O66	0.816820	0.052190	0.256320
O671	O67	0.316820	0.552190	0.256320
O681	O68	0.316820	0.052190	0.756320
O691	O69	0.183180	0.552190	0.243680
O701	O70	0.183180	0.052190	0.743680
O711	O71	0.683180	0.552190	0.743680
O721	O72	0.683180	0.052190	0.243680
O731	O73	0.183180	0.447810	0.756320
O741	O74	0.183180	0.947810	0.256320
O751	O75	0.683180	0.447810	0.256320
O761	O76	0.683180	0.947810	0.756320
O771	O77	0.816820	0.447810	0.243680
O781	O78	0.816820	0.947810	0.743680
O791	O79	0.316820	0.447810	0.743680
O801	O80	0.316820	0.947810	0.243680
O811	O81	0.552190	0.243680	0.183180
O821	O82	0.552190	0.743680	0.683180
O831	O83	0.052190	0.243680	0.683180
O841	O84	0.052190	0.743680	0.183180
O851	O85	0.552190	0.756320	0.816820
O861	O86	0.552190	0.256320	0.316820
O871	O87	0.052190	0.756320	0.316820
O881	O88	0.052190	0.256320	0.816820
O891	O89	0.447810	0.243680	0.816820
O901	O90	0.447810	0.743680	0.316820
O911	O91	0.947810	0.243680	0.316820
O921	O92	0.947810	0.743680	0.816820
O931	O93	0.447810	0.756320	0.183180
O941	O94	0.447810	0.256320	0.683180
O951	O95	0.947810	0.756320	0.683180
O961	O96	0.947810	0.256320	0.183180
O971	O97	0.183180	0.756320	0.447810
O981	O98	0.183180	0.256320	0.947810
O991	O99	0.683180	0.756320	0.947810
O1001	O100	0.683180	0.256320	0.447810
O1011	O101	0.816820	0.243680	0.447810
O1021	O102	0.816820	0.743680	0.947810
O1031	O103	0.316820	0.243680	0.947810
O1041	O104	0.316820	0.743680	0.447810
O1051	O105	0.816820	0.756320	0.552190
O1061	O106	0.816820	0.256320	0.052190
O1071	O107	0.316820	0.756320	0.052190
O1081	O108	0.316820	0.256320	0.552190
O1091	O109	0.183180	0.243680	0.552190
O1101	O110	0.183180	0.743680	0.052190
O1111	O111	0.683180	0.243680	0.052190
O1121	O112	0.683180	0.743680	0.552190
O1131	O113	0.447810	0.183180	0.756320
O1141	O114	0.447810	0.683180	0.256320
O1151	O115	0.947810	0.183180	0.256320
O1161	O116	0.947810	0.683180	0.756320
O1171	O117	0.447810	0.816820	0.243680
O1181	O118	0.447810	0.316820	0.743680
O1191	O119	0.947810	0.816820	0.743680
O1201	O120	0.947810	0.316820	0.243680
O1211	O121	0.552190	0.816820	0.756320
O1221	O122	0.552190	0.316820	0.256320
O1231	O123	0.052190	0.816820	0.256320
O1241	O124	0.052190	0.316820	0.756320
O1251	O125	0.552190	0.183180	0.243680
O1261	O126	0.552190	0.683180	0.743680
O1271	O127	0.052190	0.183180	0.743680
O1281	O128	0.052190	0.683180	0.243680
O1291	O129	0.756320	0.447810	0.183180
O1301	O130	0.756320	0.947810	0.683180
O1311	O131	0.256320	0.447810	0.683180
O1321	O132	0.256320	0.947810	0.183180
O1331	O133	0.243680	0.447810	0.816820
O1341	O134	0.243680	0.947810	0.316820
O1351	O135	0.743680	0.447810	0.316820
O1361	O136	0.743680	0.947810	0.816820
O1371	O137	0.756320	0.552190	0.816820
O1381	O138	0.756320	0.052190	0.316820
O1391	O139	0.256320	0.552190	0.316820
O1401	O140	0.256320	0.052190	0.816820
O1411	O141	0.243680	0.552190	0.183180
O1421	O142	0.243680	0.052190	0.683180
O1431	O143	0.743680	0.552190	0.683180
O1441	O144	0.743680	0.052190	0.183180
O1451	O145	0.756320	0.183180	0.552190
O1461	O146	0.756320	0.683180	0.052190
O1471	O147	0.256320	0.183180	0.052190
O1481	O148	0.256320	0.683180	0.552190
O1491	O149	0.243680	0.816820	0.552190
O1501	O150	0.243680	0.316820	0.052190
O1511	O151	0.743680	0.816820	0.052190
O1521	O152	0.743680	0.316820	0.552190
O1531	O153	0.756320	0.816820	0.447810
O1541	O154	0.756320	0.316820	0.947810
O1551	O155	0.256320	0.816820	0.947810
O1561	O156	0.256320	0.316820	0.447810
O1571	O157	0.243680	0.183180	0.447810
O1581	O158	0.243680	0.683180	0.947810
O1591	O159	0.743680	0.183180	0.947810
O1601	O160	0.743680	0.683180	0.447810
O1611	O161	0.183180	0.447810	0.243680
O1621	O162	0.183180	0.947810	0.743680
O1631	O163	0.683180	0.447810	0.743680
O1641	O164	0.683180	0.947810	0.243680
O1651	O165	0.816820	0.447810	0.756320
O1661	O166	0.816820	0.947810	0.256320
O1671	O167	0.316820	0.447810	0.256320
O1681	O168	0.316820	0.947810	0.756320
O1691	O169	0.816820	0.552190	0.243680
O1701	O170	0.816820	0.052190	0.743680
O1711	O171	0.316820	0.552190	0.743680
O1721	O172	0.316820	0.052190	0.243680
O1731	O173	0.183180	0.552190	0.756320
O1741	O174	0.183180	0.052190	0.256320
O1751	O175	0.683180	0.552190	0.256320
O1761	O176	0.683180	0.052190	0.756320
O1771	O177	0.447810	0.756320	0.816820
O1781	O178	0.447810	0.256320	0.316820
O1791	O179	0.947810	0.756320	0.316820
O1801	O180	0.947810	0.256320	0.816820
O1811	O181	0.447810	0.243680	0.183180
O1821	O182	0.447810	0.743680	0.683180
O1831	O183	0.947810	0.243680	0.683180
O1841	O184	0.947810	0.743680	0.183180
O1851	O185	0.552190	0.756320	0.183180
O1861	O186	0.552190	0.256320	0.683180
O1871	O187	0.052190	0.756320	0.683180
O1881	O188	0.052190	0.256320	0.183180
O1891	O189	0.552190	0.243680	0.816820
O1901	O190	0.552190	0.743680	0.316820
O1911	O191	0.052190	0.243680	0.316820
O1921	O192	0.052190	0.743680	0.816820
Cu11	Cu1	0.785050	0.285050	0.500000
Cu21	Cu2	0.785050	0.785050	0.000000
Cu31	Cu3	0.214950	0.714950	0.500000
Cu41	Cu4	0.214950	0.214950	0.000000
Cu51	Cu5	0.214950	0.285050	0.500000
Cu61	Cu6	0.214950	0.785050	0.000000
Cu71	Cu7	0.785050	0.714950	0.500000
Cu81	Cu8	0.785050	0.214950	0.000000
Cu91	Cu9	0.500000	0.785050	0.285050
Cu101	Cu10	0.000000	0.785050	0.785050
Cu111	Cu11	0.500000	0.214950	0.714950
Cu121	Cu12	0.000000	0.214950	0.214950
Cu131	Cu13	0.500000	0.214950	0.285050
Cu141	Cu14	0.000000	0.214950	0.785050
Cu151	Cu15	0.500000	0.785050	0.714950
Cu161	Cu16	0.000000	0.785050	0.214950
Cu171	Cu17	0.285050	0.500000	0.785050
Cu181	Cu18	0.285050	0.000000	0.285050
Cu191	Cu19	0.714950	0.500000	0.214950
Cu201	Cu20	0.714950	0.000000	0.714950
Cu211	Cu21	0.285050	0.500000	0.214950
Cu221	Cu22	0.285050	0.000000	0.714950
Cu231	Cu23	0.714950	0.500000	0.785050
Cu241	Cu24	0.714950	0.000000	0.285050
Cu251	Cu25	0.285050	0.785050	0.500000
Cu261	Cu26	0.285050	0.285050	0.000000
Cu271	Cu27	0.714950	0.214950	0.500000
Cu281	Cu28	0.714950	0.714950	0.000000
Cu291	Cu29	0.285050	0.214950	0.500000
Cu301	Cu30	0.285050	0.714950	0.000000
Cu311	Cu31	0.714950	0.785050	0.500000
Cu321	Cu32	0.714950	0.285050	0.000000
Cu331	Cu33	0.785050	0.500000	0.714950
Cu341	Cu34	0.785050	0.000000	0.214950
Cu351	Cu35	0.214950	0.500000	0.285050
Cu361	Cu36	0.214950	0.000000	0.785050
Cu371	Cu37	0.214950	0.500000	0.714950
Cu381	Cu38	0.214950	0.000000	0.214950
Cu391	Cu39	0.785050	0.500000	0.285050
Cu401	Cu40	0.785050	0.000000	0.785050
Cu411	Cu41	0.500000	0.285050	0.214950
Cu421	Cu42	0.000000	0.285050	0.714950
Cu431	Cu43	0.500000	0.714950	0.785050
Cu441	Cu44	0.000000	0.714950	0.285050
Cu451	Cu45	0.500000	0.285050	0.785050
Cu461	Cu46	0.000000	0.285050	0.285050
Cu471	Cu47	0.500000	0.714950	0.214950
Cu481	Cu48	0.000000	0.714950	0.714950
C11	C1	0.796600	0.203400	0.570000
C21	C2	0.822700	0.177300	0.613400
C31	C3	0.796600	0.703400	0.070000
C41	C4	0.822700	0.677300	0.113400
C51	C5	0.296600	0.203400	0.070000
C61	C6	0.322700	0.177300	0.113400
C71	C7	0.296600	0.703400	0.570000
C81	C8	0.322700	0.677300	0.613400
C91	C9	0.203400	0.796600	0.570000
C101	C10	0.177300	0.822700	0.613400
C111	C11	0.203400	0.296600	0.070000
C121	C12	0.177300	0.322700	0.113400
C131	C13	0.703400	0.796600	0.070000
C141	C14	0.677300	0.822700	0.113400
C151	C15	0.703400	0.296600	0.570000
C161	C16	0.677300	0.322700	0.613400
C171	C17	0.203400	0.203400	0.430000
C181	C18	0.177300	0.177300	0.386600
C191	C19	0.203400	0.703400	0.930000
C201	C20	0.177300	0.677300	0.886600
C211	C21	0.703400	0.203400	0.930000
C221	C22	0.677300	0.177300	0.886600
C231	C23	0.703400	0.703400	0.430000
C241	C24	0.677300	0.677300	0.386600
C251	C25	0.796600	0.796600	0.430000
C261	C26	0.822700	0.822700	0.386600
C271	C27	0.796600	0.296600	0.930000
C281	C28	0.822700	0.322700	0.886600
C291	C29	0.296600	0.796600	0.930000
C301	C30	0.322700	0.822700	0.886600
C311	C31	0.296600	0.296600	0.430000
C321	C32	0.322700	0.322700	0.386600
C331	C33	0.570000	0.796600	0.203400
C341	C34	0.613400	0.822700	0.177300
C351	C35	0.570000	0.296600	0.703400
C361	C36	0.613400	0.322700	0.677300
C371	C37	0.070000	0.796600	0.703400
C381	C38	0.113400	0.822700	0.677300
C391	C39	0.070000	0.296600	0.203400
C401	C40	0.113400	0.322700	0.177300
C411	C41	0.570000	0.203400	0.796600
C421	C42	0.613400	0.177300	0.822700
C431	C43	0.570000	0.703400	0.296600
C441	C44	0.613400	0.677300	0.322700
C451	C45	0.070000	0.203400	0.296600
C461	C46	0.113400	0.177300	0.322700
C471	C47	0.070000	0.703400	0.796600
C481	C48	0.113400	0.677300	0.822700
C491	C49	0.430000	0.203400	0.203400
C501	C50	0.386600	0.177300	0.177300
C511	C51	0.430000	0.703400	0.703400
C521	C52	0.386600	0.677300	0.677300
C531	C53	0.930000	0.203400	0.703400
C541	C54	0.886600	0.177300	0.677300
C551	C55	0.930000	0.703400	0.203400
C561	C56	0.886600	0.677300	0.177300
C571	C57	0.430000	0.796600	0.796600
C581	C58	0.386600	0.822700	0.822700
C591	C59	0.430000	0.296600	0.296600
C601	C60	0.386600	0.322700	0.322700
C611	C61	0.930000	0.796600	0.296600
C621	C62	0.886600	0.822700	0.322700
C631	C63	0.930000	0.296600	0.796600
C641	C64	0.886600	0.322700	0.822700
C651	C65	0.203400	0.570000	0.796600
C661	C66	0.177300	0.613400	0.822700
C671	C67	0.203400	0.070000	0.296600
C681	C68	0.177300	0.113400	0.322700
C691	C69	0.703400	0.570000	0.296600
C701	C70	0.677300	0.613400	0.322700
C711	C71	0.703400	0.070000	0.796600
C721	C72	0.677300	0.113400	0.822700
C731	C73	0.796600	0.570000	0.203400
C741	C74	0.822700	0.613400	0.177300
C751	C75	0.796600	0.070000	0.703400
C761	C76	0.822700	0.113400	0.677300
C771	C77	0.296600	0.570000	0.703400
C781	C78	0.322700	0.613400	0.677300
C791	C79	0.296600	0.070000	0.203400
C801	C80	0.322700	0.113400	0.177300
C811	C81	0.203400	0.430000	0.203400
C821	C82	0.177300	0.386600	0.177300
C831	C83	0.203400	0.930000	0.703400
C841	C84	0.177300	0.886600	0.677300
C851	C85	0.703400	0.430000	0.703400
C861	C86	0.677300	0.386600	0.677300
C871	C87	0.703400	0.930000	0.203400
C881	C88	0.677300	0.886600	0.177300
C891	C89	0.796600	0.430000	0.796600
C901	C90	0.822700	0.386600	0.822700
C911	C91	0.796600	0.930000	0.296600
C921	C92	0.822700	0.886600	0.322700
C931	C93	0.296600	0.430000	0.296600
C941	C94	0.322700	0.386600	0.322700
C951	C95	0.296600	0.930000	0.796600
C961	C96	0.322700	0.886600	0.822700
C971	C97	0.203400	0.796600	0.430000
C981	C98	0.177300	0.822700	0.386600
C991	C99	0.203400	0.296600	0.930000
C1001	C100	0.177300	0.322700	0.886600
C1011	C101	0.703400	0.796600	0.930000
C1021	C102	0.677300	0.822700	0.886600
C1031	C103	0.703400	0.296600	0.430000
C1041	C104	0.677300	0.322700	0.386600
C1051	C105	0.796600	0.203400	0.430000
C1061	C106	0.822700	0.177300	0.386600
C1071	C107	0.796600	0.703400	0.930000
C1081	C108	0.822700	0.677300	0.886600
C1091	C109	0.296600	0.203400	0.930000
C1101	C110	0.322700	0.177300	0.886600
C1111	C111	0.296600	0.703400	0.430000
C1121	C112	0.322700	0.677300	0.386600
C1131	C113	0.203400	0.203400	0.570000
C1141	C114	0.177300	0.177300	0.613400
C1151	C115	0.203400	0.703400	0.070000
C1161	C116	0.177300	0.677300	0.113400
C1171	C117	0.703400	0.203400	0.070000
C1181	C118	0.677300	0.177300	0.113400
C1191	C119	0.703400	0.703400	0.570000
C1201	C120	0.677300	0.677300	0.613400
C1211	C121	0.796600	0.796600	0.570000
C1221	C122	0.822700	0.822700	0.613400
C1231	C123	0.796600	0.296600	0.070000
C1241	C124	0.822700	0.322700	0.113400
C1251	C125	0.296600	0.796600	0.070000
C1261	C126	0.322700	0.822700	0.113400
C1271	C127	0.296600	0.296600	0.570000
C1281	C128	0.322700	0.322700	0.613400
C1291	C129	0.796600	0.570000	0.796600
C1301	C130	0.822700	0.613400	0.822700
C1311	C131	0.796600	0.070000	0.296600
C1321	C132	0.822700	0.113400	0.322700
C1331	C133	0.296600	0.570000	0.296600
C1341	C134	0.322700	0.613400	0.322700
C1351	C135	0.296600	0.070000	0.796600
C1361	C136	0.322700	0.113400	0.822700
C1371	C137	0.203400	0.570000	0.203400
C1381	C138	0.177300	0.613400	0.177300
C1391	C139	0.203400	0.070000	0.703400
C1401	C140	0.177300	0.113400	0.677300
C1411	C141	0.703400	0.570000	0.703400
C1421	C142	0.677300	0.613400	0.677300
C1431	C143	0.703400	0.070000	0.203400
C1441	C144	0.677300	0.113400	0.177300
C1451	C145	0.203400	0.430000	0.796600
C1461	C146	0.177300	0.386600	0.822700
C1471	C147	0.203400	0.930000	0.296600
C1481	C148	0.177300	0.886600	0.322700
C1491	C149	0.703400	0.430000	0.296600
C1501	C150	0.677300	0.386600	0.322700
C1511	C151	0.703400	0.930000	0.796600
C1521	C152	0.677300	0.886600	0.822700
C1531	C153	0.796600	0.430000	0.203400
C1541	C154	0.822700	0.386600	0.177300
C1551	C155	0.796600	0.930000	0.703400
C1561	C156	0.822700	0.886600	0.677300
C1571	C157	0.296600	0.430000	0.703400
C1581	C158	0.322700	0.386600	0.677300
C1591	C159	0.296600	0.930000	0.203400
C1601	C160	0.322700	0.886600	0.177300
C1611	C161	0.570000	0.203400	0.203400
C1621	C162	0.613400	0.177300	0.177300
C1631	C163	0.570000	0.703400	0.703400
C1641	C164	0.613400	0.677300	0.677300
C1651	C165	0.070000	0.203400	0.703400
C1661	C166	0.113400	0.177300	0.677300
C1671	C167	0.070000	0.703400	0.203400
C1681	C168	0.113400	0.677300	0.177300
C1691	C169	0.570000	0.796600	0.796600
C1701	C170	0.613400	0.822700	0.822700
C1711	C171	0.570000	0.296600	0.296600
C1721	C172	0.613400	0.322700	0.322700
C1731	C173	0.070000	0.796600	0.296600
C1741	C174	0.113400	0.822700	0.322700
C1751	C175	0.070000	0.296600	0.796600
C1761	C176	0.113400	0.322700	0.822700
C1771	C177	0.430000	0.203400	0.796600
C1781	C178	0.386600	0.177300	0.822700
C1791	C179	0.430000	0.703400	0.296600
C1801	C180	0.386600	0.677300	0.322700
C1811	C181	0.930000	0.203400	0.296600
C1821	C182	0.886600	0.177300	0.322700
C1831	C183	0.930000	0.703400	0.796600
C1841	C184	0.886600	0.677300	0.822700
C1851	C185	0.430000	0.796600	0.203400
C1861	C186	0.386600	0.822700	0.177300
C1871	C187	0.430000	0.296600	0.703400
C1881	C188	0.386600	0.322700	0.677300
C1891	C189	0.930000	0.796600	0.703400
C1901	C190	0.886600	0.822700	0.677300
C1911	C191	0.930000	0.296600	0.203400
C1921	C192	0.886600	0.322700	0.177300
C1931	C193	0.801300	0.134600	0.634600
H11	H1	0.770200	0.120700	0.620700
C1941	C194	0.301300	0.134600	0.134600
H21	H2	0.270200	0.120700	0.120700
C1951	C195	0.301300	0.634600	0.634600
H31	H3	0.270200	0.620700	0.620700
C1961	C196	0.198700	0.865400	0.634600
H41	H4	0.229800	0.879300	0.620700
C1971	C197	0.698700	0.865400	0.134600
H51	H5	0.729800	0.879300	0.120700
C1981	C198	0.198700	0.134600	0.365400
H61	H6	0.229800	0.120700	0.379300
C1991	C199	0.198700	0.634600	0.865400
H71	H7	0.229800	0.620700	0.879300
C2001	C200	0.698700	0.134600	0.865400
H81	H8	0.729800	0.120700	0.879300
C2011	C201	0.801300	0.865400	0.365400
H91	H9	0.770200	0.879300	0.379300
C2021	C202	0.301300	0.865400	0.865400
H101	H10	0.270200	0.879300	0.879300
C2031	C203	0.634600	0.801300	0.134600
H111	H11	0.620700	0.770200	0.120700
C2041	C204	0.634600	0.301300	0.634600
H121	H12	0.620700	0.270200	0.620700
C2051	C205	0.634600	0.198700	0.865400
H131	H13	0.620700	0.229800	0.879300
C2061	C206	0.634600	0.698700	0.365400
H141	H14	0.620700	0.729800	0.379300
C2071	C207	0.365400	0.198700	0.134600
H151	H15	0.379300	0.229800	0.120700
C2081	C208	0.365400	0.698700	0.634600
H161	H16	0.379300	0.729800	0.620700
C2091	C209	0.865400	0.198700	0.634600
H171	H17	0.879300	0.229800	0.620700
C2101	C210	0.365400	0.801300	0.865400
H181	H18	0.379300	0.770200	0.879300
C2111	C211	0.365400	0.301300	0.365400
H191	H19	0.379300	0.270200	0.379300
C2121	C212	0.865400	0.301300	0.865400
H201	H20	0.879300	0.270200	0.879300
C2131	C213	0.134600	0.634600	0.801300
H211	H21	0.120700	0.620700	0.770200
C2141	C214	0.134600	0.134600	0.301300
H221	H22	0.120700	0.120700	0.270200
C2151	C215	0.634600	0.634600	0.301300
H231	H23	0.620700	0.620700	0.270200
C2161	C216	0.865400	0.634600	0.198700
H241	H24	0.879300	0.620700	0.229800
C2171	C217	0.865400	0.134600	0.698700
H251	H25	0.879300	0.120700	0.729800
C2181	C218	0.134600	0.365400	0.198700
H261	H26	0.120700	0.379300	0.229800
C2191	C219	0.134600	0.865400	0.698700
H271	H27	0.120700	0.879300	0.729800
C2201	C220	0.634600	0.865400	0.198700
H281	H28	0.620700	0.879300	0.229800
C2211	C221	0.865400	0.365400	0.801300
H291	H29	0.879300	0.379300	0.770200
C2221	C222	0.865400	0.865400	0.301300
H301	H30	0.879300	0.879300	0.270200
C2231	C223	0.134600	0.801300	0.365400
H311	H31	0.120700	0.770200	0.379300
C2241	C224	0.134600	0.301300	0.865400
H321	H32	0.120700	0.270200	0.879300
C2251	C225	0.634600	0.801300	0.865400
H331	H33	0.620700	0.770200	0.879300
C2261	C226	0.865400	0.198700	0.365400
H341	H34	0.879300	0.229800	0.379300
C2271	C227	0.865400	0.698700	0.865400
H351	H35	0.879300	0.729800	0.879300
C2281	C228	0.134600	0.198700	0.634600
H361	H36	0.120700	0.229800	0.620700
C2291	C229	0.134600	0.698700	0.134600
H371	H37	0.120700	0.729800	0.120700
C2301	C230	0.634600	0.698700	0.634600
H381	H38	0.620700	0.729800	0.620700
C2311	C231	0.865400	0.801300	0.634600
H391	H39	0.879300	0.770200	0.620700
C2321	C232	0.865400	0.301300	0.134600
H401	H40	0.879300	0.270200	0.120700
C2331	C233	0.801300	0.634600	0.865400
H411	H41	0.770200	0.620700	0.879300
C2341	C234	0.301300	0.634600	0.365400
H421	H42	0.270200	0.620700	0.379300
C2351	C235	0.198700	0.634600	0.134600
H431	H43	0.229800	0.620700	0.120700
C2361	C236	0.698700	0.634600	0.634600
H441	H44	0.729800	0.620700	0.620700
C2371	C237	0.198700	0.365400	0.865400
H451	H45	0.229800	0.379300	0.879300
C2381	C238	0.698700	0.365400	0.365400
H461	H46	0.729800	0.379300	0.379300
C2391	C239	0.698700	0.865400	0.865400
H471	H47	0.729800	0.879300	0.879300
C2401	C240	0.801300	0.365400	0.134600
H481	H48	0.770200	0.379300	0.120700
C2411	C241	0.801300	0.865400	0.634600
H491	H49	0.770200	0.879300	0.620700
C2421	C242	0.301300	0.365400	0.634600
H501	H50	0.270200	0.379300	0.620700
C2431	C243	0.634600	0.134600	0.198700
H511	H51	0.620700	0.120700	0.229800
C2441	C244	0.634600	0.634600	0.698700
H521	H52	0.620700	0.620700	0.729800
C2451	C245	0.634600	0.865400	0.801300
H531	H53	0.620700	0.879300	0.770200
C2461	C246	0.634600	0.365400	0.301300
H541	H54	0.620700	0.379300	0.270200
C2471	C247	0.365400	0.134600	0.801300
H551	H55	0.379300	0.120700	0.770200
C2481	C248	0.365400	0.634600	0.301300
H561	H56	0.379300	0.620700	0.270200
C2491	C249	0.865400	0.634600	0.801300
H571	H57	0.879300	0.620700	0.770200
C2501	C250	0.365400	0.865400	0.198700
H581	H58	0.379300	0.879300	0.229800
C2511	C251	0.365400	0.365400	0.698700
H591	H59	0.379300	0.379300	0.729800
C2521	C252	0.865400	0.865400	0.698700
H601	H60	0.879300	0.879300	0.729800
C2531	C253	0.198700	0.865400	0.365400
H611	H61	0.229800	0.879300	0.379300
C2541	C254	0.801300	0.134600	0.365400
H621	H62	0.770200	0.120700	0.379300
C2551	C255	0.301300	0.134600	0.865400
H631	H63	0.270200	0.120700	0.879300
C2561	C256	0.301300	0.865400	0.134600
H641	H64	0.270200	0.879300	0.120700
C2571	C257	0.198700	0.134600	0.634600
H651	H65	0.229800	0.120700	0.620700
C2581	C258	0.698700	0.134600	0.134600
H661	H66	0.729800	0.120700	0.120700
C2591	C259	0.365400	0.198700	0.865400
H671	H67	0.379300	0.229800	0.879300
C2601	C260	0.365400	0.698700	0.365400
H681	H68	0.379300	0.729800	0.379300
C2611	C261	0.365400	0.801300	0.134600
H691	H69	0.379300	0.770200	0.120700
C2621	C262	0.365400	0.301300	0.634600
H701	H70	0.379300	0.270200	0.620700
C2631	C263	0.634600	0.301300	0.365400
H711	H71	0.620700	0.270200	0.379300
C2641	C264	0.634600	0.198700	0.134600
H721	H72	0.620700	0.229800	0.120700
C2651	C265	0.865400	0.365400	0.198700
H731	H73	0.879300	0.379300	0.229800
C2661	C266	0.134600	0.365400	0.801300
H741	H74	0.120700	0.379300	0.770200
C2671	C267	0.134600	0.865400	0.301300
H751	H75	0.120700	0.879300	0.270200
C2681	C268	0.865400	0.134600	0.301300
H761	H76	0.879300	0.120700	0.270200
C2691	C269	0.134600	0.634600	0.198700
H771	H77	0.120700	0.620700	0.229800
C2701	C270	0.134600	0.134600	0.698700
H781	H78	0.120700	0.120700	0.729800
C2711	C271	0.865400	0.698700	0.134600
H791	H79	0.879300	0.729800	0.120700
C2721	C272	0.134600	0.801300	0.634600
H801	H80	0.120700	0.770200	0.620700
C2731	C273	0.134600	0.301300	0.134600
H811	H81	0.120700	0.270200	0.120700
C2741	C274	0.865400	0.801300	0.365400
H821	H82	0.879300	0.770200	0.379300
C2751	C275	0.134600	0.198700	0.365400
H831	H83	0.120700	0.229800	0.379300
C2761	C276	0.134600	0.698700	0.865400
H841	H84	0.120700	0.729800	0.879300
C2771	C277	0.198700	0.365400	0.134600
H851	H85	0.229800	0.379300	0.120700
C2781	C278	0.698700	0.365400	0.634600
H861	H86	0.729800	0.379300	0.620700
C2791	C279	0.801300	0.365400	0.865400
H871	H87	0.770200	0.379300	0.879300
C2801	C280	0.301300	0.365400	0.365400
H881	H88	0.270200	0.379300	0.379300
C2811	C281	0.801300	0.634600	0.134600
H891	H89	0.770200	0.620700	0.120700
C2821	C282	0.698700	0.634600	0.365400
H901	H90	0.729800	0.620700	0.379300
C2831	C283	0.365400	0.865400	0.801300
H911	H91	0.379300	0.879300	0.770200
C2841	C284	0.365400	0.365400	0.301300
H921	H92	0.379300	0.379300	0.270200
C2851	C285	0.365400	0.134600	0.198700
H931	H93	0.379300	0.120700	0.229800
C2861	C286	0.365400	0.634600	0.698700
H941	H94	0.379300	0.620700	0.729800
C2871	C287	0.634600	0.365400	0.698700
H951	H95	0.620700	0.379300	0.729800
C2881	C288	0.634600	0.134600	0.801300
H961	H96	0.620700	0.120700	0.770200
