data_LUDVUB_clean_PM
_symmetry_space_group_name_H-M	'P1'
_cell_length_a	35.252000
_cell_length_b	39.509000
_cell_length_c	8.153000
_cell_angle_alpha	90.000000
_cell_angle_beta	90.000000
_cell_angle_gamma	90.000000
_symmetry_Int_Tables_number 1

loop_
_symmetry_equiv_pos_as_xyz
'x,y,z'

loop_
_atom_site_label
_atom_site_type_symbol
_atom_site_fract_x
_atom_site_fract_y
_atom_site_fract_z
Zn11	Zn1	0.997800	0.318630	0.378080
I11	I1	0.997950	0.322470	0.066450
I21	I2	0.934840	0.309270	0.517270
I31	I3	0.293340	0.211460	0.623000
N11	N1	0.138200	0.223700	0.773300
N21	N2	0.139200	0.195500	0.514500
N31	N3	0.184700	0.181600	0.719200
C11	C1	0.168100	0.205100	0.814300
C21	C2	0.125200	0.217600	0.622700
C31	C3	0.169900	0.177900	0.573400
N41	N4	0.217600	0.226700	0.281800
C41	C4	0.184100	0.240000	0.238600
H11	H1	0.171700	0.255000	0.312400
C51	C5	0.166800	0.232600	0.090400
H21	H2	0.142700	0.242100	0.065700
C61	C6	0.184600	0.211500	0.977000
C71	C7	0.219100	0.197000	0.027300
H31	H3	0.231500	0.181300	0.956700
C81	C8	0.235400	0.204700	0.175400
H41	H4	0.259100	0.195000	0.204700
N51	N5	0.036100	0.282600	0.455600
C91	C9	0.045800	0.280500	0.613100
H51	H5	0.031900	0.293600	0.690200
C101	C10	0.074500	0.260500	0.669700
H61	H6	0.081300	0.260900	0.782300
C111	C11	0.093200	0.239900	0.562800
C121	C12	0.082100	0.240000	0.399700
H71	H7	0.093600	0.224900	0.323600
C131	C13	0.054600	0.262100	0.349100
H81	H8	0.048200	0.263100	0.236000
N61	N6	0.226000	0.108590	0.256300
C141	C14	0.191600	0.119500	0.220900
H91	H9	0.179900	0.111100	0.124300
C151	C15	0.171300	0.142500	0.314800
H101	H10	0.147200	0.150600	0.280800
C161	C16	0.187700	0.153100	0.459400
C171	C17	0.223900	0.141800	0.500300
H111	H11	0.236000	0.149100	0.598100
C181	C18	0.241800	0.119300	0.393200
H121	H12	0.266500	0.111400	0.420300
Zn21	Zn2	0.997800	0.818630	0.878080
I41	I4	0.997950	0.822470	0.566450
I51	I5	0.934840	0.809270	0.017270
I61	I6	0.293340	0.711460	0.123000
N71	N7	0.138200	0.723700	0.273300
N81	N8	0.139200	0.695500	0.014500
N91	N9	0.184700	0.681600	0.219200
C191	C19	0.168100	0.705100	0.314300
C201	C20	0.125200	0.717600	0.122700
C211	C21	0.169900	0.677900	0.073400
N101	N10	0.217600	0.726700	0.781800
C221	C22	0.184100	0.740000	0.738600
H131	H13	0.171700	0.755000	0.812400
C231	C23	0.166800	0.732600	0.590400
H141	H14	0.142700	0.742100	0.565700
C241	C24	0.184600	0.711500	0.477000
C251	C25	0.219100	0.697000	0.527300
H151	H15	0.231500	0.681300	0.456700
C261	C26	0.235400	0.704700	0.675400
H161	H16	0.259100	0.695000	0.704700
N111	N11	0.036100	0.782600	0.955600
C271	C27	0.045800	0.780500	0.113100
H171	H17	0.031900	0.793600	0.190200
C281	C28	0.074500	0.760500	0.169700
H181	H18	0.081300	0.760900	0.282300
C291	C29	0.093200	0.739900	0.062800
C301	C30	0.082100	0.740000	0.899700
H191	H19	0.093600	0.724900	0.823600
C311	C31	0.054600	0.762100	0.849100
H201	H20	0.048200	0.763100	0.736000
N121	N12	0.226000	0.608590	0.756300
C321	C32	0.191600	0.619500	0.720900
H211	H21	0.179900	0.611100	0.624300
C331	C33	0.171300	0.642500	0.814800
H221	H22	0.147200	0.650600	0.780800
C341	C34	0.187700	0.653100	0.959400
C351	C35	0.223900	0.641800	0.000300
H231	H23	0.236000	0.649100	0.098100
C361	C36	0.241800	0.619300	0.893200
H241	H24	0.266500	0.611400	0.920300
Zn31	Zn3	0.497800	0.318630	0.878080
I71	I7	0.497950	0.322470	0.566450
I81	I8	0.434840	0.309270	0.017270
I91	I9	0.793340	0.211460	0.123000
N131	N13	0.638200	0.223700	0.273300
N141	N14	0.639200	0.195500	0.014500
N151	N15	0.684700	0.181600	0.219200
C371	C37	0.668100	0.205100	0.314300
C381	C38	0.625200	0.217600	0.122700
C391	C39	0.669900	0.177900	0.073400
N161	N16	0.717600	0.226700	0.781800
C401	C40	0.684100	0.240000	0.738600
H251	H25	0.671700	0.255000	0.812400
C411	C41	0.666800	0.232600	0.590400
H261	H26	0.642700	0.242100	0.565700
C421	C42	0.684600	0.211500	0.477000
C431	C43	0.719100	0.197000	0.527300
H271	H27	0.731500	0.181300	0.456700
C441	C44	0.735400	0.204700	0.675400
H281	H28	0.759100	0.195000	0.704700
N171	N17	0.536100	0.282600	0.955600
C451	C45	0.545800	0.280500	0.113100
H291	H29	0.531900	0.293600	0.190200
C461	C46	0.574500	0.260500	0.169700
H301	H30	0.581300	0.260900	0.282300
C471	C47	0.593200	0.239900	0.062800
C481	C48	0.582100	0.240000	0.899700
H311	H31	0.593600	0.224900	0.823600
C491	C49	0.554600	0.262100	0.849100
H321	H32	0.548200	0.263100	0.736000
N181	N18	0.726000	0.108590	0.756300
C501	C50	0.691600	0.119500	0.720900
H331	H33	0.679900	0.111100	0.624300
C511	C51	0.671300	0.142500	0.814800
H341	H34	0.647200	0.150600	0.780800
C521	C52	0.687700	0.153100	0.959400
C531	C53	0.723900	0.141800	0.000300
H351	H35	0.736000	0.149100	0.098100
C541	C54	0.741800	0.119300	0.893200
H361	H36	0.766500	0.111400	0.920300
Zn41	Zn4	0.497800	0.818630	0.378080
I101	I10	0.497950	0.822470	0.066450
I111	I11	0.434840	0.809270	0.517270
I121	I12	0.793340	0.711460	0.623000
N191	N19	0.638200	0.723700	0.773300
N201	N20	0.639200	0.695500	0.514500
N211	N21	0.684700	0.681600	0.719200
C551	C55	0.668100	0.705100	0.814300
C561	C56	0.625200	0.717600	0.622700
C571	C57	0.669900	0.677900	0.573400
N221	N22	0.717600	0.726700	0.281800
C581	C58	0.684100	0.740000	0.238600
H371	H37	0.671700	0.755000	0.312400
C591	C59	0.666800	0.732600	0.090400
H381	H38	0.642700	0.742100	0.065700
C601	C60	0.684600	0.711500	0.977000
C611	C61	0.719100	0.697000	0.027300
H391	H39	0.731500	0.681300	0.956700
C621	C62	0.735400	0.704700	0.175400
H401	H40	0.759100	0.695000	0.204700
N231	N23	0.536100	0.782600	0.455600
C631	C63	0.545800	0.780500	0.613100
H411	H41	0.531900	0.793600	0.690200
C641	C64	0.574500	0.760500	0.669700
H421	H42	0.581300	0.760900	0.782300
C651	C65	0.593200	0.739900	0.562800
C661	C66	0.582100	0.740000	0.399700
H431	H43	0.593600	0.724900	0.323600
C671	C67	0.554600	0.762100	0.349100
H441	H44	0.548200	0.763100	0.236000
N241	N24	0.726000	0.608590	0.256300
C681	C68	0.691600	0.619500	0.220900
H451	H45	0.679900	0.611100	0.124300
C691	C69	0.671300	0.642500	0.314800
H461	H46	0.647200	0.650600	0.280800
C701	C70	0.687700	0.653100	0.459400
C711	C71	0.723900	0.641800	0.500300
H471	H47	0.736000	0.649100	0.598100
C721	C72	0.741800	0.619300	0.393200
H481	H48	0.766500	0.611400	0.420300
Zn51	Zn5	0.002200	0.681370	0.378080
I131	I13	0.002050	0.677530	0.066450
I141	I14	0.065160	0.690730	0.517270
I151	I15	0.706660	0.788540	0.623000
N251	N25	0.861800	0.776300	0.773300
N261	N26	0.860800	0.804500	0.514500
N271	N27	0.815300	0.818400	0.719200
C731	C73	0.831900	0.794900	0.814300
C741	C74	0.874800	0.782400	0.622700
C751	C75	0.830100	0.822100	0.573400
N281	N28	0.782400	0.773300	0.281800
C761	C76	0.815900	0.760000	0.238600
H491	H49	0.828300	0.745000	0.312400
C771	C77	0.833200	0.767400	0.090400
H501	H50	0.857300	0.757900	0.065700
C781	C78	0.815400	0.788500	0.977000
C791	C79	0.780900	0.803000	0.027300
H511	H51	0.768500	0.818700	0.956700
C801	C80	0.764600	0.795300	0.175400
H521	H52	0.740900	0.805000	0.204700
N291	N29	0.963900	0.717400	0.455600
C811	C81	0.954200	0.719500	0.613100
H531	H53	0.968100	0.706400	0.690200
C821	C82	0.925500	0.739500	0.669700
H541	H54	0.918700	0.739100	0.782300
C831	C83	0.906800	0.760100	0.562800
C841	C84	0.917900	0.760000	0.399700
H551	H55	0.906400	0.775100	0.323600
C851	C85	0.945400	0.737900	0.349100
H561	H56	0.951800	0.736900	0.236000
N301	N30	0.774000	0.891410	0.256300
C861	C86	0.808400	0.880500	0.220900
H571	H57	0.820100	0.888900	0.124300
C871	C87	0.828700	0.857500	0.314800
H581	H58	0.852800	0.849400	0.280800
C881	C88	0.812300	0.846900	0.459400
C891	C89	0.776100	0.858200	0.500300
H591	H59	0.764000	0.850900	0.598100
C901	C90	0.758200	0.880700	0.393200
H601	H60	0.733500	0.888600	0.420300
Zn61	Zn6	0.002200	0.181370	0.878080
I161	I16	0.002050	0.177530	0.566450
I171	I17	0.065160	0.190730	0.017270
I181	I18	0.706660	0.288540	0.123000
N311	N31	0.861800	0.276300	0.273300
N321	N32	0.860800	0.304500	0.014500
N331	N33	0.815300	0.318400	0.219200
C911	C91	0.831900	0.294900	0.314300
C921	C92	0.874800	0.282400	0.122700
C931	C93	0.830100	0.322100	0.073400
N341	N34	0.782400	0.273300	0.781800
C941	C94	0.815900	0.260000	0.738600
H611	H61	0.828300	0.245000	0.812400
C951	C95	0.833200	0.267400	0.590400
H621	H62	0.857300	0.257900	0.565700
C961	C96	0.815400	0.288500	0.477000
C971	C97	0.780900	0.303000	0.527300
H631	H63	0.768500	0.318700	0.456700
C981	C98	0.764600	0.295300	0.675400
H641	H64	0.740900	0.305000	0.704700
N351	N35	0.963900	0.217400	0.955600
C991	C99	0.954200	0.219500	0.113100
H651	H65	0.968100	0.206400	0.190200
C1001	C100	0.925500	0.239500	0.169700
H661	H66	0.918700	0.239100	0.282300
C1011	C101	0.906800	0.260100	0.062800
C1021	C102	0.917900	0.260000	0.899700
H671	H67	0.906400	0.275100	0.823600
C1031	C103	0.945400	0.237900	0.849100
H681	H68	0.951800	0.236900	0.736000
N361	N36	0.774000	0.391410	0.756300
C1041	C104	0.808400	0.380500	0.720900
H691	H69	0.820100	0.388900	0.624300
C1051	C105	0.828700	0.357500	0.814800
H701	H70	0.852800	0.349400	0.780800
C1061	C106	0.812300	0.346900	0.959400
C1071	C107	0.776100	0.358200	0.000300
H711	H71	0.764000	0.350900	0.098100
C1081	C108	0.758200	0.380700	0.893200
H721	H72	0.733500	0.388600	0.920300
Zn71	Zn7	0.502200	0.681370	0.878080
I191	I19	0.502050	0.677530	0.566450
I201	I20	0.565160	0.690730	0.017270
I211	I21	0.206660	0.788540	0.123000
N371	N37	0.361800	0.776300	0.273300
N381	N38	0.360800	0.804500	0.014500
N391	N39	0.315300	0.818400	0.219200
C1091	C109	0.331900	0.794900	0.314300
C1101	C110	0.374800	0.782400	0.122700
C1111	C111	0.330100	0.822100	0.073400
N401	N40	0.282400	0.773300	0.781800
C1121	C112	0.315900	0.760000	0.738600
H731	H73	0.328300	0.745000	0.812400
C1131	C113	0.333200	0.767400	0.590400
H741	H74	0.357300	0.757900	0.565700
C1141	C114	0.315400	0.788500	0.477000
C1151	C115	0.280900	0.803000	0.527300
H751	H75	0.268500	0.818700	0.456700
C1161	C116	0.264600	0.795300	0.675400
H761	H76	0.240900	0.805000	0.704700
N411	N41	0.463900	0.717400	0.955600
C1171	C117	0.454200	0.719500	0.113100
H771	H77	0.468100	0.706400	0.190200
C1181	C118	0.425500	0.739500	0.169700
H781	H78	0.418700	0.739100	0.282300
C1191	C119	0.406800	0.760100	0.062800
C1201	C120	0.417900	0.760000	0.899700
H791	H79	0.406400	0.775100	0.823600
C1211	C121	0.445400	0.737900	0.849100
H801	H80	0.451800	0.736900	0.736000
N421	N42	0.274000	0.891410	0.756300
C1221	C122	0.308400	0.880500	0.720900
H811	H81	0.320100	0.888900	0.624300
C1231	C123	0.328700	0.857500	0.814800
H821	H82	0.352800	0.849400	0.780800
C1241	C124	0.312300	0.846900	0.959400
C1251	C125	0.276100	0.858200	0.000300
H831	H83	0.264000	0.850900	0.098100
C1261	C126	0.258200	0.880700	0.893200
H841	H84	0.233500	0.888600	0.920300
Zn81	Zn8	0.502200	0.181370	0.378080
I221	I22	0.502050	0.177530	0.066450
I231	I23	0.565160	0.190730	0.517270
I241	I24	0.206660	0.288540	0.623000
N431	N43	0.361800	0.276300	0.773300
N441	N44	0.360800	0.304500	0.514500
N451	N45	0.315300	0.318400	0.719200
C1271	C127	0.331900	0.294900	0.814300
C1281	C128	0.374800	0.282400	0.622700
C1291	C129	0.330100	0.322100	0.573400
N461	N46	0.282400	0.273300	0.281800
C1301	C130	0.315900	0.260000	0.238600
H851	H85	0.328300	0.245000	0.312400
C1311	C131	0.333200	0.267400	0.090400
H861	H86	0.357300	0.257900	0.065700
C1321	C132	0.315400	0.288500	0.977000
C1331	C133	0.280900	0.303000	0.027300
H871	H87	0.268500	0.318700	0.956700
C1341	C134	0.264600	0.295300	0.175400
H881	H88	0.240900	0.305000	0.204700
N471	N47	0.463900	0.217400	0.455600
C1351	C135	0.454200	0.219500	0.613100
H891	H89	0.468100	0.206400	0.690200
C1361	C136	0.425500	0.239500	0.669700
H901	H90	0.418700	0.239100	0.782300
C1371	C137	0.406800	0.260100	0.562800
C1381	C138	0.417900	0.260000	0.399700
H911	H91	0.406400	0.275100	0.323600
C1391	C139	0.445400	0.237900	0.349100
H921	H92	0.451800	0.236900	0.236000
N481	N48	0.274000	0.391410	0.256300
C1401	C140	0.308400	0.380500	0.220900
H931	H93	0.320100	0.388900	0.124300
C1411	C141	0.328700	0.357500	0.314800
H941	H94	0.352800	0.349400	0.280800
C1421	C142	0.312300	0.346900	0.459400
C1431	C143	0.276100	0.358200	0.500300
H951	H95	0.264000	0.350900	0.598100
C1441	C144	0.258200	0.380700	0.393200
H961	H96	0.233500	0.388600	0.420300
Zn91	Zn9	0.247800	0.931370	0.628080
I251	I25	0.247950	0.927530	0.316450
I261	I26	0.184840	0.940730	0.767270
I271	I27	0.543340	0.038540	0.873000
N491	N49	0.388200	0.026300	0.023300
N501	N50	0.389200	0.054500	0.764500
N511	N51	0.434700	0.068400	0.969200
C1451	C145	0.418100	0.044900	0.064300
C1461	C146	0.375200	0.032400	0.872700
C1471	C147	0.419900	0.072100	0.823400
N521	N52	0.467600	0.023300	0.531800
C1481	C148	0.434100	0.010000	0.488600
H971	H97	0.421700	0.995000	0.562400
C1491	C149	0.416800	0.017400	0.340400
H981	H98	0.392700	0.007900	0.315700
C1501	C150	0.434600	0.038500	0.227000
C1511	C151	0.469100	0.053000	0.277300
H991	H99	0.481500	0.068700	0.206700
C1521	C152	0.485400	0.045300	0.425400
H1001	H100	0.509100	0.055000	0.454700
N531	N53	0.286100	0.967400	0.705600
C1531	C153	0.295800	0.969500	0.863100
H1011	H101	0.281900	0.956400	0.940200
C1541	C154	0.324500	0.989500	0.919700
H1021	H102	0.331300	0.989100	0.032300
C1551	C155	0.343200	0.010100	0.812800
C1561	C156	0.332100	0.010000	0.649700
H1031	H103	0.343600	0.025100	0.573600
C1571	C157	0.304600	0.987900	0.599100
H1041	H104	0.298200	0.986900	0.486000
N541	N54	0.476000	0.141410	0.506300
C1581	C158	0.441600	0.130500	0.470900
H1051	H105	0.429900	0.138900	0.374300
C1591	C159	0.421300	0.107500	0.564800
H1061	H106	0.397200	0.099400	0.530800
C1601	C160	0.437700	0.096900	0.709400
C1611	C161	0.473900	0.108200	0.750300
H1071	H107	0.486000	0.100900	0.848100
C1621	C162	0.491800	0.130700	0.643200
H1081	H108	0.516500	0.138600	0.670300
Zn101	Zn10	0.247800	0.431370	0.128080
I281	I28	0.247950	0.427530	0.816450
I291	I29	0.184840	0.440730	0.267270
I301	I30	0.543340	0.538540	0.373000
N551	N55	0.388200	0.526300	0.523300
N561	N56	0.389200	0.554500	0.264500
N571	N57	0.434700	0.568400	0.469200
C1631	C163	0.418100	0.544900	0.564300
C1641	C164	0.375200	0.532400	0.372700
C1651	C165	0.419900	0.572100	0.323400
N581	N58	0.467600	0.523300	0.031800
C1661	C166	0.434100	0.510000	0.988600
H1091	H109	0.421700	0.495000	0.062400
C1671	C167	0.416800	0.517400	0.840400
H1101	H110	0.392700	0.507900	0.815700
C1681	C168	0.434600	0.538500	0.727000
C1691	C169	0.469100	0.553000	0.777300
H1111	H111	0.481500	0.568700	0.706700
C1701	C170	0.485400	0.545300	0.925400
H1121	H112	0.509100	0.555000	0.954700
N591	N59	0.286100	0.467400	0.205600
C1711	C171	0.295800	0.469500	0.363100
H1131	H113	0.281900	0.456400	0.440200
C1721	C172	0.324500	0.489500	0.419700
H1141	H114	0.331300	0.489100	0.532300
C1731	C173	0.343200	0.510100	0.312800
C1741	C174	0.332100	0.510000	0.149700
H1151	H115	0.343600	0.525100	0.073600
C1751	C175	0.304600	0.487900	0.099100
H1161	H116	0.298200	0.486900	0.986000
N601	N60	0.476000	0.641410	0.006300
C1761	C176	0.441600	0.630500	0.970900
H1171	H117	0.429900	0.638900	0.874300
C1771	C177	0.421300	0.607500	0.064800
H1181	H118	0.397200	0.599400	0.030800
C1781	C178	0.437700	0.596900	0.209400
C1791	C179	0.473900	0.608200	0.250300
H1191	H119	0.486000	0.600900	0.348100
C1801	C180	0.491800	0.630700	0.143200
H1201	H120	0.516500	0.638600	0.170300
Zn111	Zn11	0.747800	0.931370	0.128080
I311	I31	0.747950	0.927530	0.816450
I321	I32	0.684840	0.940730	0.267270
I331	I33	0.043340	0.038540	0.373000
N611	N61	0.888200	0.026300	0.523300
N621	N62	0.889200	0.054500	0.264500
N631	N63	0.934700	0.068400	0.469200
C1811	C181	0.918100	0.044900	0.564300
C1821	C182	0.875200	0.032400	0.372700
C1831	C183	0.919900	0.072100	0.323400
N641	N64	0.967600	0.023300	0.031800
C1841	C184	0.934100	0.010000	0.988600
H1211	H121	0.921700	0.995000	0.062400
C1851	C185	0.916800	0.017400	0.840400
H1221	H122	0.892700	0.007900	0.815700
C1861	C186	0.934600	0.038500	0.727000
C1871	C187	0.969100	0.053000	0.777300
H1231	H123	0.981500	0.068700	0.706700
C1881	C188	0.985400	0.045300	0.925400
H1241	H124	0.009100	0.055000	0.954700
N651	N65	0.786100	0.967400	0.205600
C1891	C189	0.795800	0.969500	0.363100
H1251	H125	0.781900	0.956400	0.440200
C1901	C190	0.824500	0.989500	0.419700
H1261	H126	0.831300	0.989100	0.532300
C1911	C191	0.843200	0.010100	0.312800
C1921	C192	0.832100	0.010000	0.149700
H1271	H127	0.843600	0.025100	0.073600
C1931	C193	0.804600	0.987900	0.099100
H1281	H128	0.798200	0.986900	0.986000
N661	N66	0.976000	0.141410	0.006300
C1941	C194	0.941600	0.130500	0.970900
H1291	H129	0.929900	0.138900	0.874300
C1951	C195	0.921300	0.107500	0.064800
H1301	H130	0.897200	0.099400	0.030800
C1961	C196	0.937700	0.096900	0.209400
C1971	C197	0.973900	0.108200	0.250300
H1311	H131	0.986000	0.100900	0.348100
C1981	C198	0.991800	0.130700	0.143200
H1321	H132	0.016500	0.138600	0.170300
Zn121	Zn12	0.747800	0.431370	0.628080
I341	I34	0.747950	0.427530	0.316450
I351	I35	0.684840	0.440730	0.767270
I361	I36	0.043340	0.538540	0.873000
N671	N67	0.888200	0.526300	0.023300
N681	N68	0.889200	0.554500	0.764500
N691	N69	0.934700	0.568400	0.969200
C1991	C199	0.918100	0.544900	0.064300
C2001	C200	0.875200	0.532400	0.872700
C2011	C201	0.919900	0.572100	0.823400
N701	N70	0.967600	0.523300	0.531800
C2021	C202	0.934100	0.510000	0.488600
H1331	H133	0.921700	0.495000	0.562400
C2031	C203	0.916800	0.517400	0.340400
H1341	H134	0.892700	0.507900	0.315700
C2041	C204	0.934600	0.538500	0.227000
C2051	C205	0.969100	0.553000	0.277300
H1351	H135	0.981500	0.568700	0.206700
C2061	C206	0.985400	0.545300	0.425400
H1361	H136	0.009100	0.555000	0.454700
N711	N71	0.786100	0.467400	0.705600
C2071	C207	0.795800	0.469500	0.863100
H1371	H137	0.781900	0.456400	0.940200
C2081	C208	0.824500	0.489500	0.919700
H1381	H138	0.831300	0.489100	0.032300
C2091	C209	0.843200	0.510100	0.812800
C2101	C210	0.832100	0.510000	0.649700
H1391	H139	0.843600	0.525100	0.573600
C2111	C211	0.804600	0.487900	0.599100
H1401	H140	0.798200	0.486900	0.486000
N721	N72	0.976000	0.641410	0.506300
C2121	C212	0.941600	0.630500	0.470900
H1411	H141	0.929900	0.638900	0.374300
C2131	C213	0.921300	0.607500	0.564800
H1421	H142	0.897200	0.599400	0.530800
C2141	C214	0.937700	0.596900	0.709400
C2151	C215	0.973900	0.608200	0.750300
H1431	H143	0.986000	0.600900	0.848100
C2161	C216	0.991800	0.630700	0.643200
H1441	H144	0.016500	0.638600	0.670300
Zn131	Zn13	0.252200	0.568630	0.628080
I371	I37	0.252050	0.572470	0.316450
I381	I38	0.315160	0.559270	0.767270
I391	I39	0.956660	0.461460	0.873000
N731	N73	0.111800	0.473700	0.023300
N741	N74	0.110800	0.445500	0.764500
N751	N75	0.065300	0.431600	0.969200
C2171	C217	0.081900	0.455100	0.064300
C2181	C218	0.124800	0.467600	0.872700
C2191	C219	0.080100	0.427900	0.823400
N761	N76	0.032400	0.476700	0.531800
C2201	C220	0.065900	0.490000	0.488600
H1451	H145	0.078300	0.505000	0.562400
C2211	C221	0.083200	0.482600	0.340400
H1461	H146	0.107300	0.492100	0.315700
C2221	C222	0.065400	0.461500	0.227000
C2231	C223	0.030900	0.447000	0.277300
H1471	H147	0.018500	0.431300	0.206700
C2241	C224	0.014600	0.454700	0.425400
H1481	H148	0.990900	0.445000	0.454700
N771	N77	0.213900	0.532600	0.705600
C2251	C225	0.204200	0.530500	0.863100
H1491	H149	0.218100	0.543600	0.940200
C2261	C226	0.175500	0.510500	0.919700
H1501	H150	0.168700	0.510900	0.032300
C2271	C227	0.156800	0.489900	0.812800
C2281	C228	0.167900	0.490000	0.649700
H1511	H151	0.156400	0.474900	0.573600
C2291	C229	0.195400	0.512100	0.599100
H1521	H152	0.201800	0.513100	0.486000
N781	N78	0.024000	0.358590	0.506300
C2301	C230	0.058400	0.369500	0.470900
H1531	H153	0.070100	0.361100	0.374300
C2311	C231	0.078700	0.392500	0.564800
H1541	H154	0.102800	0.400600	0.530800
C2321	C232	0.062300	0.403100	0.709400
C2331	C233	0.026100	0.391800	0.750300
H1551	H155	0.014000	0.399100	0.848100
C2341	C234	0.008200	0.369300	0.643200
H1561	H156	0.983500	0.361400	0.670300
Zn141	Zn14	0.252200	0.068630	0.128080
I401	I40	0.252050	0.072470	0.816450
I411	I41	0.315160	0.059270	0.267270
I421	I42	0.956660	0.961460	0.373000
N791	N79	0.111800	0.973700	0.523300
N801	N80	0.110800	0.945500	0.264500
N811	N81	0.065300	0.931600	0.469200
C2351	C235	0.081900	0.955100	0.564300
C2361	C236	0.124800	0.967600	0.372700
C2371	C237	0.080100	0.927900	0.323400
N821	N82	0.032400	0.976700	0.031800
C2381	C238	0.065900	0.990000	0.988600
H1571	H157	0.078300	0.005000	0.062400
C2391	C239	0.083200	0.982600	0.840400
H1581	H158	0.107300	0.992100	0.815700
C2401	C240	0.065400	0.961500	0.727000
C2411	C241	0.030900	0.947000	0.777300
H1591	H159	0.018500	0.931300	0.706700
C2421	C242	0.014600	0.954700	0.925400
H1601	H160	0.990900	0.945000	0.954700
N831	N83	0.213900	0.032600	0.205600
C2431	C243	0.204200	0.030500	0.363100
H1611	H161	0.218100	0.043600	0.440200
C2441	C244	0.175500	0.010500	0.419700
H1621	H162	0.168700	0.010900	0.532300
C2451	C245	0.156800	0.989900	0.312800
C2461	C246	0.167900	0.990000	0.149700
H1631	H163	0.156400	0.974900	0.073600
C2471	C247	0.195400	0.012100	0.099100
H1641	H164	0.201800	0.013100	0.986000
N841	N84	0.024000	0.858590	0.006300
C2481	C248	0.058400	0.869500	0.970900
H1651	H165	0.070100	0.861100	0.874300
C2491	C249	0.078700	0.892500	0.064800
H1661	H166	0.102800	0.900600	0.030800
C2501	C250	0.062300	0.903100	0.209400
C2511	C251	0.026100	0.891800	0.250300
H1671	H167	0.014000	0.899100	0.348100
C2521	C252	0.008200	0.869300	0.143200
H1681	H168	0.983500	0.861400	0.170300
Zn151	Zn15	0.752200	0.568630	0.128080
I431	I43	0.752050	0.572470	0.816450
I441	I44	0.815160	0.559270	0.267270
I451	I45	0.456660	0.461460	0.373000
N851	N85	0.611800	0.473700	0.523300
N861	N86	0.610800	0.445500	0.264500
N871	N87	0.565300	0.431600	0.469200
C2531	C253	0.581900	0.455100	0.564300
C2541	C254	0.624800	0.467600	0.372700
C2551	C255	0.580100	0.427900	0.323400
N881	N88	0.532400	0.476700	0.031800
C2561	C256	0.565900	0.490000	0.988600
H1691	H169	0.578300	0.505000	0.062400
C2571	C257	0.583200	0.482600	0.840400
H1701	H170	0.607300	0.492100	0.815700
C2581	C258	0.565400	0.461500	0.727000
C2591	C259	0.530900	0.447000	0.777300
H1711	H171	0.518500	0.431300	0.706700
C2601	C260	0.514600	0.454700	0.925400
H1721	H172	0.490900	0.445000	0.954700
N891	N89	0.713900	0.532600	0.205600
C2611	C261	0.704200	0.530500	0.363100
H1731	H173	0.718100	0.543600	0.440200
C2621	C262	0.675500	0.510500	0.419700
H1741	H174	0.668700	0.510900	0.532300
C2631	C263	0.656800	0.489900	0.312800
C2641	C264	0.667900	0.490000	0.149700
H1751	H175	0.656400	0.474900	0.073600
C2651	C265	0.695400	0.512100	0.099100
H1761	H176	0.701800	0.513100	0.986000
N901	N90	0.524000	0.358590	0.006300
C2661	C266	0.558400	0.369500	0.970900
H1771	H177	0.570100	0.361100	0.874300
C2671	C267	0.578700	0.392500	0.064800
H1781	H178	0.602800	0.400600	0.030800
C2681	C268	0.562300	0.403100	0.209400
C2691	C269	0.526100	0.391800	0.250300
H1791	H179	0.514000	0.399100	0.348100
C2701	C270	0.508200	0.369300	0.143200
H1801	H180	0.483500	0.361400	0.170300
Zn161	Zn16	0.752200	0.068630	0.628080
I461	I46	0.752050	0.072470	0.316450
I471	I47	0.815160	0.059270	0.767270
I481	I48	0.456660	0.961460	0.873000
N911	N91	0.611800	0.973700	0.023300
N921	N92	0.610800	0.945500	0.764500
N931	N93	0.565300	0.931600	0.969200
C2711	C271	0.581900	0.955100	0.064300
C2721	C272	0.624800	0.967600	0.872700
C2731	C273	0.580100	0.927900	0.823400
N941	N94	0.532400	0.976700	0.531800
C2741	C274	0.565900	0.990000	0.488600
H1811	H181	0.578300	0.005000	0.562400
C2751	C275	0.583200	0.982600	0.340400
H1821	H182	0.607300	0.992100	0.315700
C2761	C276	0.565400	0.961500	0.227000
C2771	C277	0.530900	0.947000	0.277300
H1831	H183	0.518500	0.931300	0.206700
C2781	C278	0.514600	0.954700	0.425400
H1841	H184	0.490900	0.945000	0.454700
N951	N95	0.713900	0.032600	0.705600
C2791	C279	0.704200	0.030500	0.863100
H1851	H185	0.718100	0.043600	0.940200
C2801	C280	0.675500	0.010500	0.919700
H1861	H186	0.668700	0.010900	0.032300
C2811	C281	0.656800	0.989900	0.812800
C2821	C282	0.667900	0.990000	0.649700
H1871	H187	0.656400	0.974900	0.573600
C2831	C283	0.695400	0.012100	0.599100
H1881	H188	0.701800	0.013100	0.486000
N961	N96	0.524000	0.858590	0.506300
C2841	C284	0.558400	0.869500	0.470900
H1891	H189	0.570100	0.861100	0.374300
C2851	C285	0.578700	0.892500	0.564800
H1901	H190	0.602800	0.900600	0.530800
C2861	C286	0.562300	0.903100	0.709400
C2871	C287	0.526100	0.891800	0.750300
H1911	H191	0.514000	0.899100	0.848100
C2881	C288	0.508200	0.869300	0.643200
H1921	H192	0.483500	0.861400	0.670300
Zn171	Zn17	0.250000	0.250000	0.463200
Zn181	Zn18	0.250000	0.750000	0.963200
Zn191	Zn19	0.750000	0.750000	0.463200
Zn201	Zn20	0.750000	0.250000	0.963200
Zn211	Zn21	0.500000	0.000000	0.713200
Zn221	Zn22	0.500000	0.500000	0.213200
Zn231	Zn23	0.000000	0.500000	0.713200
Zn241	Zn24	0.000000	0.000000	0.213200
