data_LUFNEG_clean_PM
_symmetry_space_group_name_H-M	'P1'
_cell_length_a	14.918000
_cell_length_b	15.596000
_cell_length_c	16.442000
_cell_angle_alpha	90.000000
_cell_angle_beta	105.606000
_cell_angle_gamma	90.000000
_symmetry_Int_Tables_number 1

loop_
_symmetry_equiv_pos_as_xyz
'x,y,z'

loop_
_atom_site_label
_atom_site_type_symbol
_atom_site_fract_x
_atom_site_fract_y
_atom_site_fract_z
Mn11	Mn1	0.253910	0.931600	0.962910
Mn21	Mn2	0.275880	0.645940	0.045990
Mn31	Mn3	0.246090	0.431600	0.537090
Mn41	Mn4	0.224120	0.145940	0.454010
Mn51	Mn5	0.746090	0.068400	0.037090
Mn61	Mn6	0.724120	0.354060	0.954010
Mn71	Mn7	0.753910	0.568400	0.462910
Mn81	Mn8	0.775880	0.854060	0.545990
H11	H1	0.276500	0.965500	0.235100
H21	H2	0.315600	0.905200	0.591900
H31	H3	0.264900	0.611600	0.774400
H41	H4	0.238400	0.682000	0.429700
H51	H5	0.277100	0.595800	0.304000
H61	H6	0.271500	0.555200	0.389500
H71	H7	0.272700	0.868400	0.780000
H81	H8	0.251800	0.836000	0.439300
H91	H9	0.239300	0.981000	0.700300
H101	H10	0.226700	0.015700	0.608600
H111	H11	0.287500	0.708300	0.239800
H121	H12	0.406800	0.472300	0.349300
H131	H13	0.277100	0.740900	0.566800
H141	H14	0.105600	0.900300	0.499200
H151	H15	0.954400	0.865000	0.468400
H161	H16	0.094500	0.968400	0.730100
H171	H17	0.596400	0.688400	0.479100
H181	H18	0.942400	0.929100	0.694600
H191	H19	0.562700	0.455700	0.390400
H201	H20	0.439400	0.706900	0.446200
H211	H21	0.223500	0.465500	0.264900
H221	H22	0.184400	0.405200	0.908100
H231	H23	0.235100	0.111600	0.725600
H241	H24	0.261600	0.182000	0.070300
H251	H25	0.222900	0.095800	0.196000
H261	H26	0.228500	0.055200	0.110500
H271	H27	0.227300	0.368400	0.720000
H281	H28	0.248200	0.336000	0.060700
H291	H29	0.260700	0.481000	0.799700
H301	H30	0.273300	0.515700	0.891400
H311	H31	0.212500	0.208300	0.260200
H321	H32	0.093200	0.972300	0.150700
H331	H33	0.222900	0.240900	0.933200
H341	H34	0.394400	0.400300	0.000800
H351	H35	0.545600	0.365000	0.031600
H361	H36	0.405500	0.468400	0.769900
H371	H37	0.903600	0.188400	0.020900
H381	H38	0.557600	0.429100	0.805400
H391	H39	0.937300	0.955700	0.109600
H401	H40	0.060600	0.206900	0.053800
H411	H41	0.723500	0.034500	0.764900
H421	H42	0.684400	0.094800	0.408100
H431	H43	0.735100	0.388400	0.225600
H441	H44	0.761600	0.318000	0.570300
H451	H45	0.722900	0.404200	0.696000
H461	H46	0.728500	0.444800	0.610500
H471	H47	0.727300	0.131600	0.220000
H481	H48	0.748200	0.164000	0.560700
H491	H49	0.760700	0.019000	0.299700
H501	H50	0.773300	0.984300	0.391400
H511	H51	0.712500	0.291700	0.760200
H521	H52	0.593200	0.527700	0.650700
H531	H53	0.722900	0.259100	0.433200
H541	H54	0.894400	0.099700	0.500800
H551	H55	0.045600	0.135000	0.531600
H561	H56	0.905500	0.031600	0.269900
H571	H57	0.403600	0.311600	0.520900
H581	H58	0.057600	0.070900	0.305400
H591	H59	0.437300	0.544300	0.609600
H601	H60	0.560600	0.293100	0.553800
H611	H61	0.776500	0.534500	0.735100
H621	H62	0.815600	0.594800	0.091900
H631	H63	0.764900	0.888400	0.274400
H641	H64	0.738400	0.818000	0.929700
H651	H65	0.777100	0.904200	0.804000
H661	H66	0.771500	0.944800	0.889500
H671	H67	0.772700	0.631600	0.280000
H681	H68	0.751800	0.664000	0.939300
H691	H69	0.739300	0.519000	0.200300
H701	H70	0.726700	0.484300	0.108600
H711	H71	0.787500	0.791700	0.739800
H721	H72	0.906800	0.027700	0.849300
H731	H73	0.777100	0.759100	0.066800
H741	H74	0.605600	0.599700	0.999200
H751	H75	0.454400	0.635000	0.968400
H761	H76	0.594500	0.531600	0.230100
H771	H77	0.096400	0.811600	0.979100
H781	H78	0.442400	0.570900	0.194600
H791	H79	0.062700	0.044300	0.890400
H801	H80	0.939400	0.793100	0.946200
C11	C1	0.280700	0.836500	0.223300
C21	C2	0.261400	0.914100	0.344600
C31	C3	0.288900	0.834200	0.133300
C41	C4	0.250600	0.996900	0.387500
C51	C5	0.269700	0.664400	0.663100
C61	C6	0.273400	0.914000	0.262700
C71	C7	0.262300	0.581200	0.614700
C81	C8	0.267700	0.663600	0.747400
C91	C9	0.298200	0.602000	0.364900
C101	C10	0.269900	0.739600	0.791000
C111	C11	0.278900	0.819800	0.666200
C121	C12	0.273600	0.817400	0.750900
C131	C13	0.259300	0.836000	0.385000
C141	C14	0.219800	0.965400	0.641100
C151	C15	0.279900	0.759700	0.265900
C161	C16	0.268100	0.758200	0.346900
C171	C17	0.444000	0.517300	0.376400
C181	C18	0.263800	0.739800	0.881200
C191	C19	0.403000	0.593300	0.392000
C201	C20	0.275400	0.741000	0.622900
C211	C21	0.118700	0.940500	0.618600
C221	C22	0.073400	0.907500	0.539900
C231	C23	0.982300	0.885700	0.522300
C241	C24	0.067100	0.947400	0.676200
C251	C25	0.558100	0.643600	0.453300
C261	C26	0.975300	0.923500	0.654300
C271	C27	0.537900	0.508100	0.400500
C281	C28	0.463100	0.655400	0.432500
C291	C29	0.219300	0.336500	0.276700
C301	C30	0.238600	0.414100	0.155400
C311	C31	0.211100	0.334200	0.366700
C321	C32	0.249400	0.496900	0.112500
C331	C33	0.230300	0.164400	0.836900
C341	C34	0.226600	0.414000	0.237300
C351	C35	0.237700	0.081200	0.885300
C361	C36	0.232300	0.163600	0.752600
C371	C37	0.201800	0.102000	0.135100
C381	C38	0.230100	0.239600	0.709000
C391	C39	0.221100	0.319800	0.833800
C401	C40	0.226400	0.317400	0.749100
C411	C41	0.240700	0.336000	0.115000
C421	C42	0.280200	0.465400	0.858900
C431	C43	0.220100	0.259700	0.234100
C441	C44	0.231900	0.258200	0.153100
C451	C45	0.056000	0.017300	0.123600
C461	C46	0.236200	0.239800	0.618800
C471	C47	0.097000	0.093300	0.108000
C481	C48	0.224600	0.241000	0.877100
C491	C49	0.381300	0.440500	0.881400
C501	C50	0.426600	0.407500	0.960100
C511	C51	0.517700	0.385700	0.977700
C521	C52	0.432900	0.447400	0.823800
C531	C53	0.941900	0.143600	0.046700
C541	C54	0.524700	0.423500	0.845700
C551	C55	0.962100	0.008100	0.099500
C561	C56	0.036900	0.155400	0.067500
C571	C57	0.719300	0.163500	0.776700
C581	C58	0.738600	0.085900	0.655400
C591	C59	0.711100	0.165800	0.866700
C601	C60	0.749400	0.003100	0.612500
C611	C61	0.730300	0.335600	0.336900
C621	C62	0.726600	0.086000	0.737300
C631	C63	0.737700	0.418800	0.385300
C641	C64	0.732300	0.336400	0.252600
C651	C65	0.701800	0.398000	0.635100
C661	C66	0.730100	0.260400	0.209000
C671	C67	0.721100	0.180200	0.333800
C681	C68	0.726400	0.182600	0.249100
C691	C69	0.740700	0.164000	0.615000
C701	C70	0.780200	0.034600	0.358900
C711	C71	0.720100	0.240300	0.734100
C721	C72	0.731900	0.241800	0.653100
C731	C73	0.556000	0.482700	0.623600
C741	C74	0.736200	0.260200	0.118800
C751	C75	0.597000	0.406700	0.608000
C761	C76	0.724600	0.259000	0.377100
C771	C77	0.881300	0.059500	0.381400
C781	C78	0.926600	0.092500	0.460100
C791	C79	0.017700	0.114300	0.477700
C801	C80	0.932900	0.052600	0.323800
C811	C81	0.441900	0.356400	0.546700
C821	C82	0.024700	0.076500	0.345700
C831	C83	0.462100	0.491900	0.599500
C841	C84	0.536900	0.344600	0.567500
C851	C85	0.780700	0.663500	0.723300
C861	C86	0.761400	0.585900	0.844600
C871	C87	0.788900	0.665800	0.633300
C881	C88	0.750600	0.503100	0.887500
C891	C89	0.769700	0.835600	0.163100
C901	C90	0.773400	0.586000	0.762700
C911	C91	0.762300	0.918800	0.114700
C921	C92	0.767700	0.836400	0.247400
C931	C93	0.798200	0.898000	0.864900
C941	C94	0.769900	0.760400	0.291000
C951	C95	0.778900	0.680200	0.166200
C961	C96	0.773600	0.682600	0.250900
C971	C97	0.759300	0.664000	0.885000
C981	C98	0.719800	0.534600	0.141100
C991	C99	0.779900	0.740300	0.765900
C1001	C100	0.768100	0.741800	0.846900
C1011	C101	0.944000	0.982700	0.876400
C1021	C102	0.763800	0.760200	0.381200
C1031	C103	0.903000	0.906700	0.892000
C1041	C104	0.775400	0.759000	0.122900
C1051	C105	0.618700	0.559500	0.118600
C1061	C106	0.573400	0.592500	0.039900
C1071	C107	0.482300	0.614300	0.022300
C1081	C108	0.567100	0.552600	0.176200
C1091	C109	0.058100	0.856400	0.953300
C1101	C110	0.475300	0.576500	0.154300
C1111	C111	0.037900	0.991900	0.900500
C1121	C112	0.963100	0.844600	0.932500
N11	N1	0.928800	0.891600	0.576400
N21	N2	0.282300	0.897000	0.625500
N31	N3	0.262800	0.682000	0.388100
N41	N4	0.597600	0.570400	0.438000
N51	N5	0.571200	0.391600	0.923600
N61	N6	0.217700	0.397000	0.874500
N71	N7	0.237200	0.182000	0.111900
N81	N8	0.902400	0.070400	0.062000
N91	N9	0.071200	0.108400	0.423600
N101	N10	0.717700	0.103000	0.374500
N111	N11	0.737200	0.318000	0.611900
N121	N12	0.402400	0.429600	0.562000
N131	N13	0.428800	0.608400	0.076400
N141	N14	0.782300	0.603000	0.125500
N151	N15	0.762800	0.818000	0.888100
N161	N16	0.097600	0.929600	0.938000
O11	O1	0.237100	0.065100	0.345700
O21	O2	0.262100	0.511000	0.653600
O31	O3	0.255900	0.582500	0.536700
O41	O4	0.274700	0.669500	0.918800
O51	O5	0.254600	0.996400	0.464900
O61	O6	0.277600	0.904800	0.093200
O71	O7	0.306800	0.764600	0.105200
O81	O8	0.245000	0.807800	0.910200
O91	O9	0.262900	0.565100	0.154300
O101	O10	0.237900	0.011000	0.846400
O111	O11	0.244100	0.082500	0.963300
O121	O12	0.225300	0.169500	0.581200
O131	O13	0.245400	0.496400	0.035100
O141	O14	0.222400	0.404800	0.406800
O151	O15	0.193200	0.264600	0.394800
O161	O16	0.255000	0.307800	0.589800
O171	O17	0.762900	0.934900	0.654300
O181	O18	0.737900	0.489000	0.346400
O191	O19	0.744100	0.417500	0.463300
O201	O20	0.725300	0.330500	0.081200
O211	O21	0.745400	0.003600	0.535100
O221	O22	0.722400	0.095200	0.906800
O231	O23	0.693200	0.235400	0.894800
O241	O24	0.755000	0.192200	0.089800
O251	O25	0.737100	0.434900	0.845700
O261	O26	0.762100	0.989000	0.153600
O271	O27	0.755900	0.917500	0.036700
O281	O28	0.774700	0.830500	0.418800
O291	O29	0.754600	0.503600	0.964900
O301	O30	0.777600	0.595200	0.593200
O311	O31	0.806800	0.735400	0.605200
O321	O32	0.745000	0.692200	0.410200
