data_LUFQUZ01_clean_PM
_symmetry_space_group_name_H-M	'P1'
_cell_length_a	7.028000
_cell_length_b	7.010000
_cell_length_c	6.725000
_cell_angle_alpha	90.000000
_cell_angle_beta	90.000000
_cell_angle_gamma	90.000000
_symmetry_Int_Tables_number 1

loop_
_symmetry_equiv_pos_as_xyz
'x,y,z'

loop_
_atom_site_label
_atom_site_type_symbol
_atom_site_fract_x
_atom_site_fract_y
_atom_site_fract_z
Ni11	Ni1	0.500000	0.500000	0.000000
Fe11	Fe1	0.000000	0.000000	0.000000
N11	N1	0.804900	0.196900	0.000000
C11	C1	0.686500	0.310400	0.000000
N21	N2	0.195100	0.803100	0.000000
C21	C2	0.313500	0.689600	0.000000
N31	N3	0.195100	0.196900	0.000000
C31	C3	0.313500	0.310400	0.000000
N41	N4	0.804900	0.803100	0.000000
C41	C4	0.686500	0.689600	0.000000
N51	N5	0.000000	0.000000	0.706900
N61	N6	0.000000	0.000000	0.293100
C51	C5	0.000000	0.163600	0.602200
H11	H1	0.000000	0.281800	0.671100
C61	C6	0.000000	0.836400	0.602200
H21	H2	0.000000	0.718200	0.671100
C71	C7	0.000000	0.163600	0.397800
H31	H3	0.000000	0.281800	0.328900
C81	C8	0.000000	0.836400	0.397800
H41	H4	0.000000	0.718200	0.328900
