data_LUJBAV_clean_PM
_symmetry_space_group_name_H-M	'P1'
_cell_length_a	10.932900
_cell_length_b	28.934000
_cell_length_c	15.032800
_cell_angle_alpha	90.000000
_cell_angle_beta	90.370000
_cell_angle_gamma	90.000000
_symmetry_Int_Tables_number 1

loop_
_symmetry_equiv_pos_as_xyz
'x,y,z'

loop_
_atom_site_label
_atom_site_type_symbol
_atom_site_fract_x
_atom_site_fract_y
_atom_site_fract_z
Co11	Co1	0.661990	0.009260	0.872510
Co21	Co2	0.997310	0.896110	0.968280
Co31	Co3	0.919080	0.020740	0.731770
N11	N1	0.993200	0.838140	0.057230
N21	N2	0.004200	0.651690	0.360930
O11	O1	0.645700	0.959940	0.770740
O21	O2	0.797200	0.975810	0.678730
O31	O3	0.555610	0.870760	0.761730
O41	O4	0.046000	0.967650	0.739220
O51	O5	0.036120	0.950070	0.881640
O61	O6	0.178130	0.903170	0.005630
O71	O7	0.334540	0.952330	0.005220
O81	O8	0.659310	0.953660	0.963270
O91	O9	0.817770	0.908100	0.934390
O101	O10	0.959250	0.938390	0.077180
O111	O11	0.941700	0.938860	0.222710
O121	O12	0.445460	0.839920	0.161230
O131	O13	0.359100	0.929670	0.199700
O141	O14	0.190200	0.923610	0.280670
O151	O15	0.853600	0.009260	0.867720
H11	H1	0.882400	0.981000	0.870500
H21	H2	0.888200	0.030200	0.888100
C11	C1	0.714300	0.950580	0.708100
C21	C2	0.695800	0.905780	0.656200
C31	C3	0.767500	0.898640	0.583100
H31	H3	0.824800	0.921100	0.568200
C41	C4	0.061800	0.838240	0.130200
H41	H4	0.110500	0.864000	0.141200
C51	C5	0.836500	0.850660	0.456100
H51	H5	0.897200	0.871900	0.442000
C61	C6	0.758300	0.858650	0.529400
C71	C7	0.731400	0.779500	0.425200
H61	H6	0.721700	0.753600	0.389100
C81	C8	0.656600	0.785770	0.496300
H71	H7	0.596800	0.763900	0.509100
C91	C9	0.669400	0.825410	0.550800
C101	C10	0.599600	0.831800	0.627800
H81	H8	0.542500	0.809500	0.643600
C111	C11	0.613800	0.869880	0.679900
C121	C12	0.440000	0.889030	0.768200
C131	C13	0.403500	0.898550	0.853500
H91	H9	0.457200	0.893400	0.900700
C141	C14	0.287300	0.915840	0.870100
C151	C15	0.208900	0.925280	0.798500
C161	C16	0.249400	0.915420	0.713000
H101	H10	0.197700	0.921500	0.665000
C171	C17	0.363800	0.896940	0.696800
H111	H11	0.388500	0.890100	0.639200
C181	C18	0.261900	0.925170	0.967400
C191	C19	0.089500	0.949010	0.807700
C201	C20	0.732500	0.922230	0.982900
C211	C21	0.708700	0.899260	0.071600
C221	C22	0.595300	0.878380	0.080100
H121	H12	0.542200	0.877300	0.031600
C231	C23	0.560700	0.859240	0.159600
C241	C24	0.638400	0.859620	0.231900
H131	H13	0.616300	0.845400	0.284900
C251	C25	0.749400	0.881440	0.223900
H141	H14	0.801300	0.882600	0.273100
C261	C26	0.786800	0.901810	0.144800
C271	C27	0.904400	0.928450	0.147400
C281	C28	0.398400	0.829510	0.244000
C291	C29	0.326700	0.862670	0.289000
C301	C30	0.283500	0.850140	0.370800
H151	H15	0.235400	0.871200	0.401700
C311	C31	0.308300	0.806750	0.410900
C321	C32	0.265100	0.794950	0.496700
H161	H16	0.220800	0.816300	0.529600
C331	C33	0.288800	0.752180	0.530800
H171	H17	0.260200	0.744500	0.587000
C341	C34	0.355100	0.719940	0.482600
H181	H18	0.370400	0.691000	0.507200
C351	C35	0.398000	0.729820	0.400200
H191	H19	0.441700	0.707700	0.368500
C361	C36	0.375700	0.774220	0.362500
C371	C37	0.419900	0.787040	0.277800
H201	H20	0.464600	0.765800	0.244800
C381	C38	0.925300	0.800770	0.044100
H211	H21	0.874700	0.800000	0.994200
C391	C39	0.925100	0.763500	0.099200
H221	H22	0.877600	0.737800	0.085200
C401	C40	0.996000	0.763780	0.176300
C411	C41	0.065600	0.802700	0.190800
H231	H23	0.114800	0.804900	0.241300
C421	C42	0.291400	0.909530	0.252200
C431	C43	0.999700	0.723720	0.238000
C441	C44	0.905200	0.692280	0.242700
H241	H24	0.837800	0.695000	0.205000
C451	C45	0.911200	0.657210	0.302800
H251	H25	0.847600	0.635900	0.303800
C461	C46	0.095000	0.681200	0.354900
H261	H26	0.161700	0.677600	0.392900
C471	C47	0.096200	0.717170	0.295000
H271	H27	0.162800	0.737100	0.293300
C481	C48	0.821900	0.811570	0.406400
H281	H28	0.873900	0.806300	0.358700
Co41	Co4	0.338010	0.509260	0.627490
Co51	Co5	0.002690	0.396110	0.531720
Co61	Co6	0.080920	0.520740	0.768230
N31	N3	0.006800	0.338140	0.442770
N41	N4	0.995800	0.151690	0.139070
O161	O16	0.354300	0.459940	0.729260
O171	O17	0.202800	0.475810	0.821270
O181	O18	0.444390	0.370760	0.738270
O191	O19	0.954000	0.467650	0.760780
O201	O20	0.963880	0.450070	0.618360
O211	O21	0.821870	0.403170	0.494370
O221	O22	0.665460	0.452330	0.494780
O231	O23	0.340690	0.453660	0.536730
O241	O24	0.182230	0.408100	0.565610
O251	O25	0.040750	0.438390	0.422820
O261	O26	0.058300	0.438860	0.277290
O271	O27	0.554540	0.339920	0.338770
O281	O28	0.640900	0.429670	0.300300
O291	O29	0.809800	0.423610	0.219330
O301	O30	0.146400	0.509260	0.632280
H291	H29	0.117600	0.481000	0.629500
H301	H30	0.111800	0.530200	0.611900
C491	C49	0.285700	0.450580	0.791900
C501	C50	0.304200	0.405780	0.843800
C511	C51	0.232500	0.398640	0.916900
H311	H31	0.175200	0.421100	0.931800
C521	C52	0.938200	0.338240	0.369800
H321	H32	0.889500	0.364000	0.358800
C531	C53	0.163500	0.350660	0.043900
H331	H33	0.102800	0.371900	0.058000
C541	C54	0.241700	0.358650	0.970600
C551	C55	0.268600	0.279500	0.074800
H341	H34	0.278300	0.253600	0.110900
C561	C56	0.343400	0.285770	0.003700
H351	H35	0.403200	0.263900	0.990900
C571	C57	0.330600	0.325410	0.949200
C581	C58	0.400400	0.331800	0.872200
H361	H36	0.457500	0.309500	0.856400
C591	C59	0.386200	0.369880	0.820100
C601	C60	0.560000	0.389030	0.731800
C611	C61	0.596500	0.398550	0.646500
H371	H37	0.542800	0.393400	0.599300
C621	C62	0.712700	0.415840	0.629900
C631	C63	0.791100	0.425280	0.701500
C641	C64	0.750600	0.415420	0.787000
H381	H38	0.802300	0.421500	0.835000
C651	C65	0.636200	0.396940	0.803200
H391	H39	0.611500	0.390100	0.860800
C661	C66	0.738100	0.425170	0.532600
C671	C67	0.910500	0.449010	0.692300
C681	C68	0.267500	0.422230	0.517100
C691	C69	0.291300	0.399260	0.428400
C701	C70	0.404700	0.378380	0.419900
H401	H40	0.457800	0.377300	0.468400
C711	C71	0.439300	0.359240	0.340400
C721	C72	0.361600	0.359620	0.268100
H411	H41	0.383700	0.345400	0.215100
C731	C73	0.250600	0.381440	0.276100
H421	H42	0.198700	0.382600	0.226900
C741	C74	0.213200	0.401810	0.355200
C751	C75	0.095600	0.428450	0.352600
C761	C76	0.601600	0.329510	0.256000
C771	C77	0.673300	0.362670	0.211000
C781	C78	0.716500	0.350140	0.129200
H431	H43	0.764600	0.371200	0.098300
C791	C79	0.691700	0.306750	0.089100
C801	C80	0.734900	0.294950	0.003300
H441	H44	0.779200	0.316300	0.970400
C811	C81	0.711200	0.252180	0.969200
H451	H45	0.739800	0.244500	0.913000
C821	C82	0.644900	0.219940	0.017400
H461	H46	0.629600	0.191000	0.992800
C831	C83	0.602000	0.229820	0.099800
H471	H47	0.558300	0.207700	0.131500
C841	C84	0.624300	0.274220	0.137500
C851	C85	0.580100	0.287040	0.222200
H481	H48	0.535400	0.265800	0.255200
C861	C86	0.074700	0.300770	0.455900
H491	H49	0.125300	0.300000	0.505800
C871	C87	0.074900	0.263500	0.400800
H501	H50	0.122400	0.237800	0.414800
C881	C88	0.004000	0.263780	0.323700
C891	C89	0.934400	0.302700	0.309200
H511	H51	0.885200	0.304900	0.258700
C901	C90	0.708600	0.409530	0.247800
C911	C91	0.000300	0.223720	0.262000
C921	C92	0.094800	0.192280	0.257300
H521	H52	0.162200	0.195000	0.295000
C931	C93	0.088800	0.157210	0.197200
H531	H53	0.152400	0.135900	0.196200
C941	C94	0.905000	0.181200	0.145100
H541	H54	0.838300	0.177600	0.107100
C951	C95	0.903800	0.217170	0.205000
H551	H55	0.837200	0.237100	0.206700
C961	C96	0.178100	0.311570	0.093600
H561	H56	0.126100	0.306300	0.141300
Co71	Co7	0.338010	0.990740	0.127490
Co81	Co8	0.002690	0.103890	0.031720
Co91	Co9	0.080920	0.979260	0.268230
N51	N5	0.006800	0.161860	0.942770
N61	N6	0.995800	0.348310	0.639070
O311	O31	0.354300	0.040060	0.229260
O321	O32	0.202800	0.024190	0.321270
O331	O33	0.444390	0.129240	0.238270
O341	O34	0.954000	0.032350	0.260780
O351	O35	0.963880	0.049930	0.118360
O361	O36	0.821870	0.096830	0.994370
O371	O37	0.665460	0.047670	0.994780
O381	O38	0.340690	0.046340	0.036730
O391	O39	0.182230	0.091900	0.065610
O401	O40	0.040750	0.061610	0.922820
O411	O41	0.058300	0.061140	0.777290
O421	O42	0.554540	0.160080	0.838770
O431	O43	0.640900	0.070330	0.800300
O441	O44	0.809800	0.076390	0.719330
O451	O45	0.146400	0.990740	0.132280
H571	H57	0.117600	0.019000	0.129500
H581	H58	0.111800	0.969800	0.111900
C971	C97	0.285700	0.049420	0.291900
C981	C98	0.304200	0.094220	0.343800
C991	C99	0.232500	0.101360	0.416900
H591	H59	0.175200	0.078900	0.431800
C1001	C100	0.938200	0.161760	0.869800
H601	H60	0.889500	0.136000	0.858800
C1011	C101	0.163500	0.149340	0.543900
H611	H61	0.102800	0.128100	0.558000
C1021	C102	0.241700	0.141350	0.470600
C1031	C103	0.268600	0.220500	0.574800
H621	H62	0.278300	0.246400	0.610900
C1041	C104	0.343400	0.214230	0.503700
H631	H63	0.403200	0.236100	0.490900
C1051	C105	0.330600	0.174590	0.449200
C1061	C106	0.400400	0.168200	0.372200
H641	H64	0.457500	0.190500	0.356400
C1071	C107	0.386200	0.130120	0.320100
C1081	C108	0.560000	0.110970	0.231800
C1091	C109	0.596500	0.101450	0.146500
H651	H65	0.542800	0.106600	0.099300
C1101	C110	0.712700	0.084160	0.129900
C1111	C111	0.791100	0.074720	0.201500
C1121	C112	0.750600	0.084580	0.287000
H661	H66	0.802300	0.078500	0.335000
C1131	C113	0.636200	0.103060	0.303200
H671	H67	0.611500	0.109900	0.360800
C1141	C114	0.738100	0.074830	0.032600
C1151	C115	0.910500	0.050990	0.192300
C1161	C116	0.267500	0.077770	0.017100
C1171	C117	0.291300	0.100740	0.928400
C1181	C118	0.404700	0.121620	0.919900
H681	H68	0.457800	0.122700	0.968400
C1191	C119	0.439300	0.140760	0.840400
C1201	C120	0.361600	0.140380	0.768100
H691	H69	0.383700	0.154600	0.715100
C1211	C121	0.250600	0.118560	0.776100
H701	H70	0.198700	0.117400	0.726900
C1221	C122	0.213200	0.098190	0.855200
C1231	C123	0.095600	0.071550	0.852600
C1241	C124	0.601600	0.170490	0.756000
C1251	C125	0.673300	0.137330	0.711000
C1261	C126	0.716500	0.149860	0.629200
H711	H71	0.764600	0.128800	0.598300
C1271	C127	0.691700	0.193250	0.589100
C1281	C128	0.734900	0.205050	0.503300
H721	H72	0.779200	0.183700	0.470400
C1291	C129	0.711200	0.247820	0.469200
H731	H73	0.739800	0.255500	0.413000
C1301	C130	0.644900	0.280060	0.517400
H741	H74	0.629600	0.309000	0.492800
C1311	C131	0.602000	0.270180	0.599800
H751	H75	0.558300	0.292300	0.631500
C1321	C132	0.624300	0.225780	0.637500
C1331	C133	0.580100	0.212960	0.722200
H761	H76	0.535400	0.234200	0.755200
C1341	C134	0.074700	0.199230	0.955900
H771	H77	0.125300	0.200000	0.005800
C1351	C135	0.074900	0.236500	0.900800
H781	H78	0.122400	0.262200	0.914800
C1361	C136	0.004000	0.236220	0.823700
C1371	C137	0.934400	0.197300	0.809200
H791	H79	0.885200	0.195100	0.758700
C1381	C138	0.708600	0.090470	0.747800
C1391	C139	0.000300	0.276280	0.762000
C1401	C140	0.094800	0.307720	0.757300
H801	H80	0.162200	0.305000	0.795000
C1411	C141	0.088800	0.342790	0.697200
H811	H81	0.152400	0.364100	0.696200
C1421	C142	0.905000	0.318800	0.645100
H821	H82	0.838300	0.322400	0.607100
C1431	C143	0.903800	0.282830	0.705000
H831	H83	0.837200	0.262900	0.706700
C1441	C144	0.178100	0.188430	0.593600
H841	H84	0.126100	0.193700	0.641300
Co101	Co10	0.661990	0.490740	0.372510
Co111	Co11	0.997310	0.603890	0.468280
Co121	Co12	0.919080	0.479260	0.231770
N71	N7	0.993200	0.661860	0.557230
N81	N8	0.004200	0.848310	0.860930
O461	O46	0.645700	0.540060	0.270740
O471	O47	0.797200	0.524190	0.178730
O481	O48	0.555610	0.629240	0.261730
O491	O49	0.046000	0.532350	0.239220
O501	O50	0.036120	0.549930	0.381640
O511	O51	0.178130	0.596830	0.505630
O521	O52	0.334540	0.547670	0.505220
O531	O53	0.659310	0.546340	0.463270
O541	O54	0.817770	0.591900	0.434390
O551	O55	0.959250	0.561610	0.577180
O561	O56	0.941700	0.561140	0.722710
O571	O57	0.445460	0.660080	0.661230
O581	O58	0.359100	0.570330	0.699700
O591	O59	0.190200	0.576390	0.780670
O601	O60	0.853600	0.490740	0.367720
H851	H85	0.882400	0.519000	0.370500
H861	H86	0.888200	0.469800	0.388100
C1451	C145	0.714300	0.549420	0.208100
C1461	C146	0.695800	0.594220	0.156200
C1471	C147	0.767500	0.601360	0.083100
H871	H87	0.824800	0.578900	0.068200
C1481	C148	0.061800	0.661760	0.630200
H881	H88	0.110500	0.636000	0.641200
C1491	C149	0.836500	0.649340	0.956100
H891	H89	0.897200	0.628100	0.942000
C1501	C150	0.758300	0.641350	0.029400
C1511	C151	0.731400	0.720500	0.925200
H901	H90	0.721700	0.746400	0.889100
C1521	C152	0.656600	0.714230	0.996300
H911	H91	0.596800	0.736100	0.009100
C1531	C153	0.669400	0.674590	0.050800
C1541	C154	0.599600	0.668200	0.127800
H921	H92	0.542500	0.690500	0.143600
C1551	C155	0.613800	0.630120	0.179900
C1561	C156	0.440000	0.610970	0.268200
C1571	C157	0.403500	0.601450	0.353500
H931	H93	0.457200	0.606600	0.400700
C1581	C158	0.287300	0.584160	0.370100
C1591	C159	0.208900	0.574720	0.298500
C1601	C160	0.249400	0.584580	0.213000
H941	H94	0.197700	0.578500	0.165000
C1611	C161	0.363800	0.603060	0.196800
H951	H95	0.388500	0.609900	0.139200
C1621	C162	0.261900	0.574830	0.467400
C1631	C163	0.089500	0.550990	0.307700
C1641	C164	0.732500	0.577770	0.482900
C1651	C165	0.708700	0.600740	0.571600
C1661	C166	0.595300	0.621620	0.580100
H961	H96	0.542200	0.622700	0.531600
C1671	C167	0.560700	0.640760	0.659600
C1681	C168	0.638400	0.640380	0.731900
H971	H97	0.616300	0.654600	0.784900
C1691	C169	0.749400	0.618560	0.723900
H981	H98	0.801300	0.617400	0.773100
C1701	C170	0.786800	0.598190	0.644800
C1711	C171	0.904400	0.571550	0.647400
C1721	C172	0.398400	0.670490	0.744000
C1731	C173	0.326700	0.637330	0.789000
C1741	C174	0.283500	0.649860	0.870800
H991	H99	0.235400	0.628800	0.901700
C1751	C175	0.308300	0.693250	0.910900
C1761	C176	0.265100	0.705050	0.996700
H1001	H100	0.220800	0.683700	0.029600
C1771	C177	0.288800	0.747820	0.030800
H1011	H101	0.260200	0.755500	0.087000
C1781	C178	0.355100	0.780060	0.982600
H1021	H102	0.370400	0.809000	0.007200
C1791	C179	0.398000	0.770180	0.900200
H1031	H103	0.441700	0.792300	0.868500
C1801	C180	0.375700	0.725780	0.862500
C1811	C181	0.419900	0.712960	0.777800
H1041	H104	0.464600	0.734200	0.744800
C1821	C182	0.925300	0.699230	0.544100
H1051	H105	0.874700	0.700000	0.494200
C1831	C183	0.925100	0.736500	0.599200
H1061	H106	0.877600	0.762200	0.585200
C1841	C184	0.996000	0.736220	0.676300
C1851	C185	0.065600	0.697300	0.690800
H1071	H107	0.114800	0.695100	0.741300
C1861	C186	0.291400	0.590470	0.752200
C1871	C187	0.999700	0.776280	0.738000
C1881	C188	0.905200	0.807720	0.742700
H1081	H108	0.837800	0.805000	0.705000
C1891	C189	0.911200	0.842790	0.802800
H1091	H109	0.847600	0.864100	0.803800
C1901	C190	0.095000	0.818800	0.854900
H1101	H110	0.161700	0.822400	0.892900
C1911	C191	0.096200	0.782830	0.795000
H1111	H111	0.162800	0.762900	0.793300
C1921	C192	0.821900	0.688430	0.906400
H1121	H112	0.873900	0.693700	0.858700
