data_LUJPUC_clean_PM
_symmetry_space_group_name_H-M	'P1'
_cell_length_a	9.540000
_cell_length_b	19.812000
_cell_length_c	11.151000
_cell_angle_alpha	90.000000
_cell_angle_beta	113.684000
_cell_angle_gamma	90.000000
_symmetry_Int_Tables_number 1

loop_
_symmetry_equiv_pos_as_xyz
'x,y,z'

loop_
_atom_site_label
_atom_site_type_symbol
_atom_site_fract_x
_atom_site_fract_y
_atom_site_fract_z
O11	O1	0.654900	0.927400	0.006000
O21	O2	0.740700	0.890900	0.209500
O31	O3	0.049700	0.749500	0.331100
O41	O4	0.061400	0.846900	0.236900
C11	C1	0.634400	0.792000	0.927300
H11	H1	0.555800	0.820900	0.877600
C21	C2	0.743700	0.816100	0.048000
C31	C3	0.863200	0.771300	0.121000
C41	C4	0.713800	0.883400	0.091600
C51	C5	0.002000	0.792200	0.236800
O51	O5	0.154900	0.427400	0.006000
O61	O6	0.240700	0.390900	0.209500
O71	O7	0.549700	0.249500	0.331100
O81	O8	0.561400	0.346900	0.236900
C61	C6	0.134400	0.292000	0.927300
H21	H2	0.055800	0.320900	0.877600
C71	C7	0.243700	0.316100	0.048000
C81	C8	0.363200	0.271300	0.121000
C91	C9	0.213800	0.383400	0.091600
C101	C10	0.502000	0.292200	0.236800
O91	O9	0.345100	0.927400	0.994000
O101	O10	0.259300	0.890900	0.790500
O111	O11	0.950300	0.749500	0.668900
O121	O12	0.938600	0.846900	0.763100
C111	C11	0.365600	0.792000	0.072700
H31	H3	0.444200	0.820900	0.122400
C121	C12	0.256300	0.816100	0.952000
C131	C13	0.136800	0.771300	0.879000
C141	C14	0.286200	0.883400	0.908400
C151	C15	0.998000	0.792200	0.763200
O131	O13	0.845100	0.427400	0.994000
O141	O14	0.759300	0.390900	0.790500
O151	O15	0.450300	0.249500	0.668900
O161	O16	0.438600	0.346900	0.763100
C161	C16	0.865600	0.292000	0.072700
H41	H4	0.944200	0.320900	0.122400
C171	C17	0.756300	0.316100	0.952000
C181	C18	0.636800	0.271300	0.879000
C191	C19	0.786200	0.383400	0.908400
C201	C20	0.498000	0.292200	0.763200
O171	O17	0.345100	0.072600	0.994000
O181	O18	0.259300	0.109100	0.790500
O191	O19	0.950300	0.250500	0.668900
O201	O20	0.938600	0.153100	0.763100
C211	C21	0.365600	0.208000	0.072700
H51	H5	0.444200	0.179100	0.122400
C221	C22	0.256300	0.183900	0.952000
C231	C23	0.136800	0.228700	0.879000
C241	C24	0.286200	0.116600	0.908400
C251	C25	0.998000	0.207800	0.763200
O211	O21	0.845100	0.572600	0.994000
O221	O22	0.759300	0.609100	0.790500
O231	O23	0.450300	0.750500	0.668900
O241	O24	0.438600	0.653100	0.763100
C261	C26	0.865600	0.708000	0.072700
H61	H6	0.944200	0.679100	0.122400
C271	C27	0.756300	0.683900	0.952000
C281	C28	0.636800	0.728700	0.879000
C291	C29	0.786200	0.616600	0.908400
C301	C30	0.498000	0.707800	0.763200
O251	O25	0.654900	0.072600	0.006000
O261	O26	0.740700	0.109100	0.209500
O271	O27	0.049700	0.250500	0.331100
O281	O28	0.061400	0.153100	0.236900
C311	C31	0.634400	0.208000	0.927300
H71	H7	0.555800	0.179100	0.877600
C321	C32	0.743700	0.183900	0.048000
C331	C33	0.863200	0.228700	0.121000
C341	C34	0.713800	0.116600	0.091600
C351	C35	0.002000	0.207800	0.236800
O291	O29	0.154900	0.572600	0.006000
O301	O30	0.240700	0.609100	0.209500
O311	O31	0.549700	0.750500	0.331100
O321	O32	0.561400	0.653100	0.236900
C361	C36	0.134400	0.708000	0.927300
H81	H8	0.055800	0.679100	0.877600
C371	C37	0.243700	0.683900	0.048000
C381	C38	0.363200	0.728700	0.121000
C391	C39	0.213800	0.616600	0.091600
C401	C40	0.502000	0.707800	0.236800
Ni11	Ni1	0.000000	0.500000	0.000000
Ni21	Ni2	0.500000	0.000000	0.000000
Ni31	Ni3	0.250000	0.750000	0.500000
Ni41	Ni4	0.750000	0.750000	0.500000
Ni51	Ni5	0.750000	0.250000	0.500000
Ni61	Ni6	0.250000	0.250000	0.500000
