data_LULJAE_clean_PM
_symmetry_space_group_name_H-M	'P1'
_cell_length_a	7.036800
_cell_length_b	8.216000
_cell_length_c	10.489700
_cell_angle_alpha	108.859000
_cell_angle_beta	109.598000
_cell_angle_gamma	90.000000
_symmetry_Int_Tables_number 1

loop_
_symmetry_equiv_pos_as_xyz
'x,y,z'

loop_
_atom_site_label
_atom_site_type_symbol
_atom_site_fract_x
_atom_site_fract_y
_atom_site_fract_z
Co11	Co1	0.000000	0.000000	0.500000
Co21	Co2	0.500000	0.500000	0.500000
H11	H1	0.056300	0.013000	0.806600
H21	H2	0.826000	0.869000	0.926000
H31	H3	0.249700	0.487000	0.193400
H41	H4	0.900000	0.631000	0.074000
H51	H5	0.943700	0.987000	0.193400
H61	H6	0.174000	0.131000	0.074000
H71	H7	0.750300	0.513000	0.806600
H81	H8	0.100000	0.369000	0.926000
C11	C1	0.815670	0.820040	0.664340
C21	C2	0.952570	0.939780	0.806740
C31	C3	0.934780	0.942830	0.929760
C41	C4	0.151330	0.679960	0.335660
C51	C5	0.145830	0.560220	0.193260
C61	C6	0.005020	0.557170	0.070240
C71	C7	0.184330	0.179960	0.335660
C81	C8	0.047430	0.060220	0.193260
C91	C9	0.065220	0.057170	0.070240
C101	C10	0.848670	0.320040	0.664340
C111	C11	0.854170	0.439780	0.806740
C121	C12	0.994980	0.442830	0.929760
O11	O1	0.841280	0.827250	0.552220
O21	O2	0.682300	0.716600	0.662180
O31	O3	0.289060	0.672750	0.447780
O41	O4	0.020120	0.783400	0.337820
O51	O5	0.158720	0.172750	0.447780
O61	O6	0.317700	0.283400	0.337820
O71	O7	0.710940	0.327250	0.552220
O81	O8	0.979880	0.216600	0.662180
