data_LULWUL_clean_PM
_symmetry_space_group_name_H-M	'P1'
_cell_length_a	9.966000
_cell_length_b	9.966000
_cell_length_c	20.472000
_cell_angle_alpha	90.000000
_cell_angle_beta	90.000000
_cell_angle_gamma	90.000000
_symmetry_Int_Tables_number 1

loop_
_symmetry_equiv_pos_as_xyz
'x,y,z'

loop_
_atom_site_label
_atom_site_type_symbol
_atom_site_fract_x
_atom_site_fract_y
_atom_site_fract_z
Na11	Na1	0.942900	0.852900	0.020780
Na21	Na2	0.276800	0.799600	0.029660
Na31	Na3	0.057100	0.147100	0.520780
Na41	Na4	0.723200	0.200400	0.529660
Na51	Na5	0.147100	0.942900	0.770780
Na61	Na6	0.200400	0.276800	0.779660
Na71	Na7	0.852900	0.057100	0.270780
Na81	Na8	0.799600	0.723200	0.279660
Co11	Co1	0.098630	0.784540	0.895620
Co21	Co2	0.901370	0.215460	0.395620
Co31	Co3	0.215460	0.098630	0.645620
Co41	Co4	0.784540	0.901370	0.145620
H11	H1	0.616100	0.781400	0.904300
H21	H2	0.398700	0.759000	0.737800
H31	H3	0.597200	0.767600	0.676200
H41	H4	0.802000	0.789600	0.728500
H51	H5	0.101500	0.323500	0.902000
H61	H6	0.115900	0.480200	0.083900
H71	H7	0.134500	0.264200	0.127200
H81	H8	0.142700	0.076400	0.057500
H91	H9	0.383900	0.218600	0.404300
H101	H10	0.601300	0.241000	0.237800
H111	H11	0.402800	0.232400	0.176200
H121	H12	0.198000	0.210400	0.228500
H131	H13	0.898500	0.676500	0.402000
H141	H14	0.884100	0.519800	0.583900
H151	H15	0.865500	0.735800	0.627200
H161	H16	0.857300	0.923600	0.557500
H171	H17	0.218600	0.616100	0.654300
H181	H18	0.241000	0.398700	0.487800
H191	H19	0.232400	0.597200	0.426200
H201	H20	0.210400	0.802000	0.478500
H211	H21	0.676500	0.101500	0.652000
H221	H22	0.519800	0.115900	0.833900
H231	H23	0.735800	0.134500	0.877200
H241	H24	0.923600	0.142700	0.807500
H251	H25	0.781400	0.383900	0.154300
H261	H26	0.759000	0.601300	0.987800
H271	H27	0.767600	0.402800	0.926200
H281	H28	0.789600	0.198000	0.978500
H291	H29	0.323500	0.898500	0.152000
H301	H30	0.480200	0.884100	0.333900
H311	H31	0.264200	0.865500	0.377200
H321	H32	0.076400	0.857300	0.307500
C11	C1	0.729000	0.788300	0.821100
C21	C2	0.612100	0.780400	0.857900
C31	C3	0.490600	0.771000	0.826500
C41	C4	0.483200	0.766200	0.759000
C51	C5	0.600900	0.772000	0.722500
C61	C6	0.721900	0.784100	0.753600
C71	C7	0.862100	0.800800	0.855400
C81	C8	0.364200	0.770600	0.867100
C91	C9	0.123700	0.182500	0.972900
C101	C10	0.109900	0.311000	0.947800
C111	C11	0.108300	0.421900	0.989300
C121	C12	0.117500	0.404600	0.055600
C131	C13	0.129200	0.276300	0.081200
C141	C14	0.133400	0.164000	0.039800
C151	C15	0.124800	0.064700	0.927600
C161	C16	0.095600	0.561100	0.962300
C171	C17	0.271000	0.211700	0.321100
C181	C18	0.387900	0.219600	0.357900
C191	C19	0.509400	0.229000	0.326500
C201	C20	0.516800	0.233800	0.259000
C211	C21	0.399100	0.228000	0.222500
C221	C22	0.278100	0.215900	0.253600
C231	C23	0.137900	0.199200	0.355400
C241	C24	0.635800	0.229400	0.367100
C251	C25	0.876300	0.817500	0.472900
C261	C26	0.890100	0.689000	0.447800
C271	C27	0.891700	0.578100	0.489300
C281	C28	0.882500	0.595400	0.555600
C291	C29	0.870800	0.723700	0.581200
C301	C30	0.866600	0.836000	0.539800
C311	C31	0.875200	0.935300	0.427600
C321	C32	0.904400	0.438900	0.462300
C331	C33	0.211700	0.729000	0.571100
C341	C34	0.219600	0.612100	0.607900
C351	C35	0.229000	0.490600	0.576500
C361	C36	0.233800	0.483200	0.509000
C371	C37	0.228000	0.600900	0.472500
C381	C38	0.215900	0.721900	0.503600
C391	C39	0.199200	0.862100	0.605400
C401	C40	0.229400	0.364200	0.617100
C411	C41	0.817500	0.123700	0.722900
C421	C42	0.689000	0.109900	0.697800
C431	C43	0.578100	0.108300	0.739300
C441	C44	0.595400	0.117500	0.805600
C451	C45	0.723700	0.129200	0.831200
C461	C46	0.836000	0.133400	0.789800
C471	C47	0.935300	0.124800	0.677600
C481	C48	0.438900	0.095600	0.712300
C491	C49	0.788300	0.271000	0.071100
C501	C50	0.780400	0.387900	0.107900
C511	C51	0.771000	0.509400	0.076500
C521	C52	0.766200	0.516800	0.009000
C531	C53	0.772000	0.399100	0.972500
C541	C54	0.784100	0.278100	0.003600
C551	C55	0.800800	0.137900	0.105400
C561	C56	0.770600	0.635800	0.117100
C571	C57	0.182500	0.876300	0.222900
C581	C58	0.311000	0.890100	0.197800
C591	C59	0.421900	0.891700	0.239300
C601	C60	0.404600	0.882500	0.305600
C611	C61	0.276300	0.870800	0.331200
C621	C62	0.164000	0.866600	0.289800
C631	C63	0.064700	0.875200	0.177600
C641	C64	0.561100	0.904400	0.212300
O11	O1	0.870800	0.797800	0.916070
O21	O2	0.967300	0.810900	0.819400
O31	O3	0.367200	0.757900	0.926700
O41	O4	0.254300	0.787300	0.834500
O51	O5	0.134500	0.083500	0.866620
O61	O6	0.115700	0.947900	0.953830
O71	O7	0.088700	0.574900	0.900300
O81	O8	0.098400	0.661600	0.998900
O91	O9	0.129200	0.202200	0.416070
O101	O10	0.032700	0.189100	0.319400
O111	O11	0.632800	0.242100	0.426700
O121	O12	0.745700	0.212700	0.334500
O131	O13	0.865500	0.916500	0.366620
O141	O14	0.884300	0.052100	0.453830
O151	O15	0.911300	0.425100	0.400300
O161	O16	0.901600	0.338400	0.498900
O171	O17	0.202200	0.870800	0.666070
O181	O18	0.189100	0.967300	0.569400
O191	O19	0.242100	0.367200	0.676700
O201	O20	0.212700	0.254300	0.584500
O211	O21	0.916500	0.134500	0.616620
O221	O22	0.052100	0.115700	0.703830
O231	O23	0.425100	0.088700	0.650300
O241	O24	0.338400	0.098400	0.748900
O251	O25	0.797800	0.129200	0.166070
O261	O26	0.810900	0.032700	0.069400
O271	O27	0.757900	0.632800	0.176700
O281	O28	0.787300	0.745700	0.084500
O291	O29	0.083500	0.865500	0.116620
O301	O30	0.947900	0.884300	0.203830
O311	O31	0.574900	0.911300	0.150300
O321	O32	0.661600	0.901600	0.248900
