data_LULXAS_clean_PM
_symmetry_space_group_name_H-M	'P1'
_cell_length_a	10.029200
_cell_length_b	10.029200
_cell_length_c	20.808000
_cell_angle_alpha	90.000000
_cell_angle_beta	90.000000
_cell_angle_gamma	90.000000
_symmetry_Int_Tables_number 1

loop_
_symmetry_equiv_pos_as_xyz
'x,y,z'

loop_
_atom_site_label
_atom_site_type_symbol
_atom_site_fract_x
_atom_site_fract_y
_atom_site_fract_z
Na11	Na1	0.957100	0.845600	0.021980
Na21	Na2	0.289000	0.829100	0.025000
Na31	Na3	0.042900	0.154400	0.521980
Na41	Na4	0.711000	0.170900	0.525000
Na51	Na5	0.154400	0.957100	0.771980
Na61	Na6	0.170900	0.289000	0.775000
Na71	Na7	0.845600	0.042900	0.271980
Na81	Na8	0.829100	0.711000	0.275000
Co11	Co1	0.118430	0.790010	0.894400
Co21	Co2	0.881570	0.209990	0.394400
Co31	Co3	0.209990	0.118430	0.644400
Co41	Co4	0.790010	0.881570	0.144400
H11	H1	0.627300	0.792200	0.905800
H21	H2	0.418300	0.802900	0.739100
H31	H3	0.619400	0.817900	0.680900
H41	H4	0.821500	0.820800	0.736000
H51	H5	0.141200	0.329100	0.904600
H61	H6	0.132300	0.477800	0.084600
H71	H7	0.135600	0.259900	0.126000
H81	H8	0.134100	0.077900	0.056600
H91	H9	0.372700	0.207800	0.405800
H101	H10	0.581700	0.197100	0.239100
H111	H11	0.380600	0.182100	0.180900
H121	H12	0.178500	0.179200	0.236000
H131	H13	0.858800	0.670900	0.404600
H141	H14	0.867700	0.522200	0.584600
H151	H15	0.864400	0.740100	0.626000
H161	H16	0.865900	0.922100	0.556600
H171	H17	0.207800	0.627300	0.655800
H181	H18	0.197100	0.418300	0.489100
H191	H19	0.182100	0.619400	0.430900
H201	H20	0.179200	0.821500	0.486000
H211	H21	0.670900	0.141200	0.654600
H221	H22	0.522200	0.132300	0.834600
H231	H23	0.740100	0.135600	0.876000
H241	H24	0.922100	0.134100	0.806600
H251	H25	0.792200	0.372700	0.155800
H261	H26	0.802900	0.581700	0.989100
H271	H27	0.817900	0.380600	0.930900
H281	H28	0.820800	0.178500	0.986000
H291	H29	0.329100	0.858800	0.154600
H301	H30	0.477800	0.867700	0.334600
H311	H31	0.259900	0.864400	0.376000
H321	H32	0.077900	0.865900	0.306600
C11	C1	0.744200	0.808700	0.825900
C21	C2	0.625200	0.799000	0.860300
C31	C3	0.504100	0.799300	0.828400
C41	C4	0.501200	0.804900	0.761200
C51	C5	0.620700	0.813400	0.726500
C61	C6	0.740400	0.815100	0.759400
C71	C7	0.876000	0.808200	0.859600
C81	C8	0.377100	0.792600	0.865500
C91	C9	0.138100	0.184900	0.973200
C101	C10	0.138300	0.314700	0.949700
C111	C11	0.134200	0.423900	0.990900
C121	C12	0.133600	0.403700	0.056200
C131	C13	0.135000	0.273800	0.080800
C141	C14	0.135500	0.165800	0.039600
C151	C15	0.134400	0.067200	0.927700
C161	C16	0.125900	0.566400	0.966700
C171	C17	0.255800	0.191300	0.325900
C181	C18	0.374800	0.201000	0.360300
C191	C19	0.495900	0.200700	0.328400
C201	C20	0.498800	0.195100	0.261200
C211	C21	0.379300	0.186600	0.226500
C221	C22	0.259600	0.184900	0.259400
C231	C23	0.124000	0.191800	0.359600
C241	C24	0.622900	0.207400	0.365500
C251	C25	0.861900	0.815100	0.473200
C261	C26	0.861700	0.685300	0.449700
C271	C27	0.865800	0.576100	0.490900
C281	C28	0.866400	0.596300	0.556200
C291	C29	0.865000	0.726200	0.580800
C301	C30	0.864500	0.834200	0.539600
C311	C31	0.865600	0.932800	0.427700
C321	C32	0.874100	0.433600	0.466700
C331	C33	0.191300	0.744200	0.575900
C341	C34	0.201000	0.625200	0.610300
C351	C35	0.200700	0.504100	0.578400
C361	C36	0.195100	0.501200	0.511200
C371	C37	0.186600	0.620700	0.476500
C381	C38	0.184900	0.740400	0.509400
C391	C39	0.191800	0.876000	0.609600
C401	C40	0.207400	0.377100	0.615500
C411	C41	0.815100	0.138100	0.723200
C421	C42	0.685300	0.138300	0.699700
C431	C43	0.576100	0.134200	0.740900
C441	C44	0.596300	0.133600	0.806200
C451	C45	0.726200	0.135000	0.830800
C461	C46	0.834200	0.135500	0.789600
C471	C47	0.932800	0.134400	0.677700
C481	C48	0.433600	0.125900	0.716700
C491	C49	0.808700	0.255800	0.075900
C501	C50	0.799000	0.374800	0.110300
C511	C51	0.799300	0.495900	0.078400
C521	C52	0.804900	0.498800	0.011200
C531	C53	0.813400	0.379300	0.976500
C541	C54	0.815100	0.259600	0.009400
C551	C55	0.808200	0.124000	0.109600
C561	C56	0.792600	0.622900	0.115500
C571	C57	0.184900	0.861900	0.223200
C581	C58	0.314700	0.861700	0.199700
C591	C59	0.423900	0.865800	0.240900
C601	C60	0.403700	0.866400	0.306200
C611	C61	0.273800	0.865000	0.330800
C621	C62	0.165800	0.864500	0.289600
C631	C63	0.067200	0.865600	0.177700
C641	C64	0.566400	0.874100	0.216700
O11	O1	0.882500	0.795100	0.919000
O21	O2	0.981100	0.819600	0.825320
O31	O3	0.376300	0.783100	0.923900
O41	O4	0.267600	0.801500	0.831900
O51	O5	0.136200	0.087800	0.868700
O61	O6	0.127800	0.951200	0.954050
O71	O7	0.116500	0.583000	0.906100
O81	O8	0.126400	0.660900	0.004900
O91	O9	0.117500	0.204900	0.419000
O101	O10	0.018900	0.180400	0.325320
O111	O11	0.623700	0.216900	0.423900
O121	O12	0.732400	0.198500	0.331900
O131	O13	0.863800	0.912200	0.368700
O141	O14	0.872200	0.048800	0.454050
O151	O15	0.883500	0.417000	0.406100
O161	O16	0.873600	0.339100	0.504900
O171	O17	0.204900	0.882500	0.669000
O181	O18	0.180400	0.981100	0.575320
O191	O19	0.216900	0.376300	0.673900
O201	O20	0.198500	0.267600	0.581900
O211	O21	0.912200	0.136200	0.618700
O221	O22	0.048800	0.127800	0.704050
O231	O23	0.417000	0.116500	0.656100
O241	O24	0.339100	0.126400	0.754900
O251	O25	0.795100	0.117500	0.169000
O261	O26	0.819600	0.018900	0.075320
O271	O27	0.783100	0.623700	0.173900
O281	O28	0.801500	0.732400	0.081900
O291	O29	0.087800	0.863800	0.118700
O301	O30	0.951200	0.872200	0.204050
O311	O31	0.583000	0.883500	0.156100
O321	O32	0.660900	0.873600	0.254900
