data_LUMYEZ_clean_PM
_symmetry_space_group_name_H-M	'P1'
_cell_length_a	24.258000
_cell_length_b	9.487700
_cell_length_c	16.473000
_cell_angle_alpha	90.000000
_cell_angle_beta	118.790000
_cell_angle_gamma	90.000000
_symmetry_Int_Tables_number 1

loop_
_symmetry_equiv_pos_as_xyz
'x,y,z'

loop_
_atom_site_label
_atom_site_type_symbol
_atom_site_fract_x
_atom_site_fract_y
_atom_site_fract_z
Cu11	Cu1	0.042720	0.176620	0.038820
Cu21	Cu2	0.042550	0.384830	0.377850
N11	N1	0.137030	0.018600	0.530000
N21	N2	0.079270	0.006600	0.521600
N31	N3	0.046330	0.119800	0.482900
N41	N4	0.081490	0.210000	0.464000
N51	N5	0.082640	0.318300	0.298800
N61	N6	0.048160	0.301500	0.206900
N71	N7	0.082060	0.236600	0.176400
N81	N8	0.139920	0.210900	0.247600
N91	N9	0.044000	0.434500	0.928800
C11	C1	0.250900	0.302800	0.423000
H11	H1	0.251400	0.339000	0.370900
C21	C2	0.193700	0.256600	0.414700
C31	C3	0.192800	0.203100	0.493800
C41	C4	0.136700	0.145000	0.493400
C51	C5	0.137900	0.260800	0.321600
C61	C6	0.043600	0.331900	0.963700
Cu31	Cu3	0.542720	0.676620	0.038820
Cu41	Cu4	0.542550	0.884830	0.377850
N101	N10	0.637030	0.518600	0.530000
N111	N11	0.579270	0.506600	0.521600
N121	N12	0.546330	0.619800	0.482900
N131	N13	0.581490	0.710000	0.464000
N141	N14	0.582640	0.818300	0.298800
N151	N15	0.548160	0.801500	0.206900
N161	N16	0.582060	0.736600	0.176400
N171	N17	0.639920	0.710900	0.247600
N181	N18	0.544000	0.934500	0.928800
C71	C7	0.750900	0.802800	0.423000
H21	H2	0.751400	0.839000	0.370900
C81	C8	0.693700	0.756600	0.414700
C91	C9	0.692800	0.703100	0.493800
C101	C10	0.636700	0.645000	0.493400
C111	C11	0.637900	0.760800	0.321600
C121	C12	0.543600	0.831900	0.963700
Cu51	Cu5	0.957280	0.176620	0.461180
Cu61	Cu6	0.957450	0.384830	0.122150
N191	N19	0.862970	0.018600	0.970000
N201	N20	0.920730	0.006600	0.978400
N211	N21	0.953670	0.119800	0.017100
N221	N22	0.918510	0.210000	0.036000
N231	N23	0.917360	0.318300	0.201200
N241	N24	0.951840	0.301500	0.293100
N251	N25	0.917940	0.236600	0.323600
N261	N26	0.860080	0.210900	0.252400
N271	N27	0.956000	0.434500	0.571200
C131	C13	0.749100	0.302800	0.077000
H31	H3	0.748600	0.339000	0.129100
C141	C14	0.806300	0.256600	0.085300
C151	C15	0.807200	0.203100	0.006200
C161	C16	0.863300	0.145000	0.006600
C171	C17	0.862100	0.260800	0.178400
C181	C18	0.956400	0.331900	0.536300
Cu71	Cu7	0.457280	0.676620	0.461180
Cu81	Cu8	0.457450	0.884830	0.122150
N281	N28	0.362970	0.518600	0.970000
N291	N29	0.420730	0.506600	0.978400
N301	N30	0.453670	0.619800	0.017100
N311	N31	0.418510	0.710000	0.036000
N321	N32	0.417360	0.818300	0.201200
N331	N33	0.451840	0.801500	0.293100
N341	N34	0.417940	0.736600	0.323600
N351	N35	0.360080	0.710900	0.252400
N361	N36	0.456000	0.934500	0.571200
C191	C19	0.249100	0.802800	0.077000
H41	H4	0.248600	0.839000	0.129100
C201	C20	0.306300	0.756600	0.085300
C211	C21	0.307200	0.703100	0.006200
C221	C22	0.363300	0.645000	0.006600
C231	C23	0.362100	0.760800	0.178400
C241	C24	0.456400	0.831900	0.536300
Cu91	Cu9	0.957280	0.823380	0.961180
Cu101	Cu10	0.957450	0.615170	0.622150
N371	N37	0.862970	0.981400	0.470000
N381	N38	0.920730	0.993400	0.478400
N391	N39	0.953670	0.880200	0.517100
N401	N40	0.918510	0.790000	0.536000
N411	N41	0.917360	0.681700	0.701200
N421	N42	0.951840	0.698500	0.793100
N431	N43	0.917940	0.763400	0.823600
N441	N44	0.860080	0.789100	0.752400
N451	N45	0.956000	0.565500	0.071200
C251	C25	0.749100	0.697200	0.577000
H51	H5	0.748600	0.661000	0.629100
C261	C26	0.806300	0.743400	0.585300
C271	C27	0.807200	0.796900	0.506200
C281	C28	0.863300	0.855000	0.506600
C291	C29	0.862100	0.739200	0.678400
C301	C30	0.956400	0.668100	0.036300
Cu111	Cu11	0.457280	0.323380	0.961180
Cu121	Cu12	0.457450	0.115170	0.622150
N461	N46	0.362970	0.481400	0.470000
N471	N47	0.420730	0.493400	0.478400
N481	N48	0.453670	0.380200	0.517100
N491	N49	0.418510	0.290000	0.536000
N501	N50	0.417360	0.181700	0.701200
N511	N51	0.451840	0.198500	0.793100
N521	N52	0.417940	0.263400	0.823600
N531	N53	0.360080	0.289100	0.752400
N541	N54	0.456000	0.065500	0.071200
C311	C31	0.249100	0.197200	0.577000
H61	H6	0.248600	0.161000	0.629100
C321	C32	0.306300	0.243400	0.585300
C331	C33	0.307200	0.296900	0.506200
C341	C34	0.363300	0.355000	0.506600
C351	C35	0.362100	0.239200	0.678400
C361	C36	0.456400	0.168100	0.036300
Cu131	Cu13	0.042720	0.823380	0.538820
Cu141	Cu14	0.042550	0.615170	0.877850
N551	N55	0.137030	0.981400	0.030000
N561	N56	0.079270	0.993400	0.021600
N571	N57	0.046330	0.880200	0.982900
N581	N58	0.081490	0.790000	0.964000
N591	N59	0.082640	0.681700	0.798800
N601	N60	0.048160	0.698500	0.706900
N611	N61	0.082060	0.763400	0.676400
N621	N62	0.139920	0.789100	0.747600
N631	N63	0.044000	0.565500	0.428800
C371	C37	0.250900	0.697200	0.923000
H71	H7	0.251400	0.661000	0.870900
C381	C38	0.193700	0.743400	0.914700
C391	C39	0.192800	0.796900	0.993800
C401	C40	0.136700	0.855000	0.993400
C411	C41	0.137900	0.739200	0.821600
C421	C42	0.043600	0.668100	0.463700
Cu151	Cu15	0.542720	0.323380	0.538820
Cu161	Cu16	0.542550	0.115170	0.877850
N641	N64	0.637030	0.481400	0.030000
N651	N65	0.579270	0.493400	0.021600
N661	N66	0.546330	0.380200	0.982900
N671	N67	0.581490	0.290000	0.964000
N681	N68	0.582640	0.181700	0.798800
N691	N69	0.548160	0.198500	0.706900
N701	N70	0.582060	0.263400	0.676400
N711	N71	0.639920	0.289100	0.747600
N721	N72	0.544000	0.065500	0.428800
C431	C43	0.750900	0.197200	0.923000
H81	H8	0.751400	0.161000	0.870900
C441	C44	0.693700	0.243400	0.914700
C451	C45	0.692800	0.296900	0.993800
C461	C46	0.636700	0.355000	0.993400
C471	C47	0.637900	0.239200	0.821600
C481	C48	0.543600	0.168100	0.463700
