data_LUPYAX_clean_PM
_symmetry_space_group_name_H-M	'P1'
_cell_length_a	12.341600
_cell_length_b	20.724600
_cell_length_c	23.230600
_cell_angle_alpha	113.603000
_cell_angle_beta	105.405000
_cell_angle_gamma	90.000000
_symmetry_Int_Tables_number 1

loop_
_symmetry_equiv_pos_as_xyz
'x,y,z'

loop_
_atom_site_label
_atom_site_type_symbol
_atom_site_fract_x
_atom_site_fract_y
_atom_site_fract_z
Zn11	Zn1	0.259220	0.806510	0.770260
Zn21	Zn2	0.008850	0.859990	0.745340
Zn31	Zn3	0.653310	0.184750	0.675460
Zn41	Zn4	0.488960	0.693490	0.229740
Zn51	Zn5	0.263510	0.640010	0.254660
Zn61	Zn6	0.977850	0.315250	0.324540
Zn71	Zn7	0.740780	0.193490	0.229740
Zn81	Zn8	0.991150	0.140010	0.254660
Zn91	Zn9	0.346690	0.815250	0.324540
Zn101	Zn10	0.511040	0.306510	0.770260
Zn111	Zn11	0.736490	0.359990	0.745340
Zn121	Zn12	0.022150	0.684750	0.675460
H11	H1	0.409200	0.957500	0.775800
H21	H2	0.254700	0.130100	0.710000
H31	H3	0.041800	0.676900	0.506200
H41	H4	0.311500	0.809900	0.485200
H51	H5	0.939100	0.977300	0.076400
H61	H6	0.076500	0.776200	0.792400
H71	H7	0.633400	0.542500	0.224200
H81	H8	0.544700	0.369900	0.290000
H91	H9	0.535600	0.823100	0.493800
H101	H10	0.826300	0.690100	0.514800
H111	H11	0.862700	0.522700	0.923600
H121	H12	0.284100	0.723800	0.207600
H131	H13	0.590800	0.042500	0.224200
H141	H14	0.745300	0.869900	0.290000
H151	H15	0.958200	0.323100	0.493800
H161	H16	0.688500	0.190100	0.514800
H171	H17	0.060900	0.022700	0.923600
H181	H18	0.923500	0.223800	0.207600
H191	H19	0.366600	0.457500	0.775800
H201	H20	0.455300	0.630100	0.710000
H211	H21	0.464400	0.176900	0.506200
H221	H22	0.173700	0.309900	0.485200
H231	H23	0.137300	0.477300	0.076400
H241	H24	0.715900	0.276200	0.792400
C11	C1	0.193300	0.944800	0.760000
C21	C2	0.263400	0.996800	0.749200
C31	C3	0.377600	0.992300	0.762400
C41	C4	0.446300	0.041700	0.755400
C51	C5	0.402030	0.093200	0.735460
C61	C6	0.286900	0.095200	0.723000
C71	C7	0.220200	0.049500	0.728800
C81	C8	0.474450	0.148200	0.728900
C91	C9	0.209100	0.724500	0.370000
C101	C10	0.190100	0.731600	0.434400
C111	C11	0.111900	0.690700	0.442000
C121	C12	0.102100	0.702300	0.503600
C131	C13	0.174300	0.747700	0.558200
C141	C14	0.260000	0.784600	0.549600
C151	C15	0.260000	0.778900	0.488400
C161	C16	0.164400	0.749800	0.620000
C171	C17	0.989300	0.888100	0.870400
C181	C18	0.992180	0.945500	0.937560
C191	C19	0.965200	0.987100	0.046000
C201	C20	0.958800	0.932100	0.985600
C211	C21	0.433300	0.555200	0.240000
C221	C22	0.514200	0.503200	0.250800
C231	C23	0.615200	0.507700	0.237600
C241	C24	0.690900	0.458300	0.244600
C251	C25	0.666570	0.406800	0.264540
C261	C26	0.563900	0.404800	0.277000
C271	C27	0.491400	0.450500	0.271200
C281	C28	0.745550	0.351800	0.271100
C291	C29	0.839100	0.775500	0.630000
C301	C30	0.755700	0.768400	0.565600
C311	C31	0.669900	0.809300	0.558000
C321	C32	0.598500	0.797700	0.496400
C331	C33	0.616100	0.752300	0.441800
C341	C34	0.710400	0.715400	0.450400
C351	C35	0.771600	0.721100	0.511600
C361	C36	0.544400	0.750200	0.380000
C371	C37	0.118900	0.611900	0.129600
C381	C38	0.054620	0.554500	0.062440
C391	C39	0.919200	0.512900	0.954000
C401	C40	0.973200	0.567900	0.014400
C411	C41	0.806700	0.055200	0.240000
C421	C42	0.736600	0.003200	0.250800
C431	C43	0.622400	0.007700	0.237600
C441	C44	0.553700	0.958300	0.244600
C451	C45	0.597970	0.906800	0.264540
C461	C46	0.713100	0.904800	0.277000
C471	C47	0.779800	0.950500	0.271200
C481	C48	0.525550	0.851800	0.271100
C491	C49	0.790900	0.275500	0.630000
C501	C50	0.809900	0.268400	0.565600
C511	C51	0.888100	0.309300	0.558000
C521	C52	0.897900	0.297700	0.496400
C531	C53	0.825700	0.252300	0.441800
C541	C54	0.740000	0.215400	0.450400
C551	C55	0.740000	0.221100	0.511600
C561	C56	0.835600	0.250200	0.380000
C571	C57	0.010700	0.111900	0.129600
C581	C58	0.007820	0.054500	0.062440
C591	C59	0.034800	0.012900	0.954000
C601	C60	0.041200	0.067900	0.014400
C611	C61	0.566700	0.444800	0.760000
C621	C62	0.485800	0.496800	0.749200
C631	C63	0.384800	0.492300	0.762400
C641	C64	0.309100	0.541700	0.755400
C651	C65	0.333430	0.593200	0.735460
C661	C66	0.436100	0.595200	0.723000
C671	C67	0.508600	0.549500	0.728800
C681	C68	0.254450	0.648200	0.728900
C691	C69	0.160900	0.224500	0.370000
C701	C70	0.244300	0.231600	0.434400
C711	C71	0.330100	0.190700	0.442000
C721	C72	0.401500	0.202300	0.503600
C731	C73	0.383900	0.247700	0.558200
C741	C74	0.289600	0.284600	0.549600
C751	C75	0.228400	0.278900	0.488400
C761	C76	0.455600	0.249800	0.620000
C771	C77	0.881100	0.388100	0.870400
C781	C78	0.945380	0.445500	0.937560
C791	C79	0.080800	0.487100	0.046000
C801	C80	0.026800	0.432100	0.985600
Cl11	Cl1	0.588100	0.031100	0.770000
Cl21	Cl2	0.081200	0.067000	0.722600
Cl31	Cl3	0.983850	0.646300	0.368900
Cl41	Cl4	0.320700	0.877100	0.620600
Cl51	Cl5	0.900730	0.848220	0.971260
Cl61	Cl6	0.818100	0.468900	0.230000
Cl71	Cl7	0.358600	0.433000	0.277400
Cl81	Cl8	0.614950	0.853700	0.631100
Cl91	Cl9	0.700100	0.622900	0.379400
Cl101	Cl10	0.929470	0.651780	0.028740
Cl111	Cl11	0.411900	0.968900	0.230000
Cl121	Cl12	0.918800	0.933000	0.277400
Cl131	Cl13	0.016150	0.353700	0.631100
Cl141	Cl14	0.679300	0.122900	0.379400
Cl151	Cl15	0.099270	0.151780	0.028740
Cl161	Cl16	0.181900	0.531100	0.770000
Cl171	Cl17	0.641400	0.567000	0.722600
Cl181	Cl18	0.385050	0.146300	0.368900
Cl191	Cl19	0.299900	0.377100	0.620600
Cl201	Cl20	0.070530	0.348220	0.971260
O11	O1	0.243270	0.916600	0.796140
O21	O2	0.088930	0.929200	0.728460
O31	O3	0.453390	0.208400	0.756380
O41	O4	0.549010	0.129300	0.701020
O51	O5	0.199320	0.660300	0.327440
O61	O6	0.228320	0.778800	0.362840
O71	O7	0.232720	0.791300	0.674040
O81	O8	0.082900	0.706700	0.614600
O91	O9	0.006810	0.828400	0.863620
O101	O10	0.972690	0.912700	0.828180
O111	O11	0.085770	0.780100	0.752740
O121	O12	0.447130	0.583400	0.203860
O131	O13	0.360470	0.570800	0.271540
O141	O14	0.697010	0.291600	0.243620
O151	O15	0.847990	0.370700	0.298980
O161	O16	0.871880	0.839700	0.672560
O171	O17	0.865480	0.721200	0.637160
O181	O18	0.558680	0.708700	0.325960
O191	O19	0.468300	0.793300	0.385400
O201	O20	0.143190	0.671600	0.136380
O211	O21	0.144510	0.587300	0.171820
O221	O22	0.333030	0.719900	0.247260
O231	O23	0.756730	0.083400	0.203860
O241	O24	0.911070	0.070800	0.271540
O251	O25	0.546610	0.791600	0.243620
O261	O26	0.450990	0.870700	0.298980
O271	O27	0.800680	0.339700	0.672560
O281	O28	0.771680	0.221200	0.637160
O291	O29	0.767280	0.208700	0.325960
O301	O30	0.917100	0.293300	0.385400
O311	O31	0.993190	0.171600	0.136380
O321	O32	0.027310	0.087300	0.171820
O331	O33	0.914230	0.219900	0.247260
O341	O34	0.552870	0.416600	0.796140
O351	O35	0.639530	0.429200	0.728460
O361	O36	0.302990	0.708400	0.756380
O371	O37	0.152010	0.629300	0.701020
O381	O38	0.128120	0.160300	0.327440
O391	O39	0.134520	0.278800	0.362840
O401	O40	0.441320	0.291300	0.674040
O411	O41	0.531700	0.206700	0.614600
O421	O42	0.856810	0.328400	0.863620
O431	O43	0.855490	0.412700	0.828180
O441	O44	0.666970	0.280100	0.752740
