data_LURLOB_clean_PM
_symmetry_space_group_name_H-M	'P1'
_cell_length_a	16.427600
_cell_length_b	13.610800
_cell_length_c	6.863000
_cell_angle_alpha	90.000000
_cell_angle_beta	90.000000
_cell_angle_gamma	90.000000
_symmetry_Int_Tables_number 1

loop_
_symmetry_equiv_pos_as_xyz
'x,y,z'

loop_
_atom_site_label
_atom_site_type_symbol
_atom_site_fract_x
_atom_site_fract_y
_atom_site_fract_z
O11	O1	0.164790	0.839930	0.128790
C11	C1	0.037330	0.971020	0.822400
H11	H1	0.063420	0.934040	0.682970
O21	O2	0.664790	0.339930	0.628790
C21	C2	0.537330	0.471020	0.322400
H21	H2	0.563420	0.434040	0.182970
O31	O3	0.335210	0.839930	0.871210
C31	C3	0.462670	0.971020	0.177600
H31	H3	0.436580	0.934040	0.317030
O41	O4	0.835210	0.339930	0.371210
C41	C4	0.962670	0.471020	0.677600
H41	H4	0.936580	0.434040	0.817030
O51	O5	0.664790	0.160070	0.871210
C51	C5	0.537330	0.028980	0.177600
H51	H5	0.563420	0.065960	0.317030
O61	O6	0.164790	0.660070	0.371210
C61	C6	0.037330	0.528980	0.677600
H61	H6	0.063420	0.565960	0.817030
O71	O7	0.835210	0.160070	0.128790
C71	C7	0.962670	0.028980	0.822400
H71	H7	0.936580	0.065960	0.682970
O81	O8	0.335210	0.660070	0.628790
C81	C8	0.462670	0.528980	0.322400
H81	H8	0.436580	0.565960	0.182970
O91	O9	0.835210	0.160070	0.871210
C91	C9	0.962670	0.028980	0.177600
H91	H9	0.936580	0.065960	0.317030
O101	O10	0.335210	0.660070	0.371210
C101	C10	0.462670	0.528980	0.677600
H101	H10	0.436580	0.565960	0.817030
O111	O11	0.664790	0.160070	0.128790
C111	C11	0.537330	0.028980	0.822400
H111	H11	0.563420	0.065960	0.682970
O121	O12	0.164790	0.660070	0.628790
C121	C12	0.037330	0.528980	0.322400
H121	H12	0.063420	0.565960	0.182970
O131	O13	0.335210	0.839930	0.128790
C131	C13	0.462670	0.971020	0.822400
H131	H13	0.436580	0.934040	0.682970
O141	O14	0.835210	0.339930	0.628790
C141	C14	0.962670	0.471020	0.322400
H141	H14	0.936580	0.434040	0.182970
O151	O15	0.164790	0.839930	0.871210
C151	C15	0.037330	0.971020	0.177600
H151	H15	0.063420	0.934040	0.317030
O161	O16	0.664790	0.339930	0.371210
C161	C16	0.537330	0.471020	0.677600
H161	H16	0.563420	0.434040	0.817030
C171	C17	0.068310	0.947030	0.000000
C181	C18	0.127600	0.869790	0.000000
C191	C19	0.568310	0.447030	0.500000
C201	C20	0.627600	0.369790	0.500000
C211	C21	0.431690	0.947030	0.000000
C221	C22	0.372400	0.869790	0.000000
C231	C23	0.931690	0.447030	0.500000
C241	C24	0.872400	0.369790	0.500000
C251	C25	0.568310	0.052970	0.000000
C261	C26	0.627600	0.130210	0.000000
C271	C27	0.068310	0.552970	0.500000
C281	C28	0.127600	0.630210	0.500000
C291	C29	0.931690	0.052970	0.000000
C301	C30	0.872400	0.130210	0.000000
C311	C31	0.431690	0.552970	0.500000
C321	C32	0.372400	0.630210	0.500000
Cr11	Cr1	0.250000	0.750000	0.250000
Cr21	Cr2	0.250000	0.750000	0.750000
Cr31	Cr3	0.750000	0.250000	0.750000
Cr41	Cr4	0.750000	0.250000	0.250000
O171	O17	0.250000	0.724570	0.000000
O181	O18	0.750000	0.224570	0.500000
O191	O19	0.750000	0.275430	0.000000
O201	O20	0.250000	0.775430	0.500000
