data_LUSHOX_clean_PM
_symmetry_space_group_name_H-M	'P1'
_cell_length_a	10.197800
_cell_length_b	13.502000
_cell_length_c	17.707000
_cell_angle_alpha	90.000000
_cell_angle_beta	90.000000
_cell_angle_gamma	90.000000
_symmetry_Int_Tables_number 1

loop_
_symmetry_equiv_pos_as_xyz
'x,y,z'

loop_
_atom_site_label
_atom_site_type_symbol
_atom_site_fract_x
_atom_site_fract_y
_atom_site_fract_z
Mn11	Mn1	0.925470	0.153270	0.483400
Mn21	Mn2	0.081190	0.389190	0.467630
Mn31	Mn3	0.425470	0.846730	0.016600
Mn41	Mn4	0.581190	0.610810	0.032370
Mn51	Mn5	0.074530	0.846730	0.516600
Mn61	Mn6	0.918810	0.610810	0.532370
Mn71	Mn7	0.574530	0.153270	0.983400
Mn81	Mn8	0.418810	0.389190	0.967630
H11	H1	0.807800	0.487900	0.285500
H21	H2	0.698600	0.506300	0.173100
H31	H3	0.624700	0.212400	0.167800
H41	H4	0.723800	0.197700	0.286400
H51	H5	0.795800	0.696100	0.240500
H61	H6	0.882400	0.770100	0.348200
H71	H7	0.771000	0.036400	0.269700
H81	H8	0.683700	0.961600	0.163100
H91	H9	0.307800	0.512100	0.214500
H101	H10	0.198600	0.493700	0.326900
H111	H11	0.124700	0.787600	0.332200
H121	H12	0.223800	0.802300	0.213600
H131	H13	0.295800	0.303900	0.259500
H141	H14	0.382400	0.229900	0.151800
H151	H15	0.271000	0.963600	0.230300
H161	H16	0.183700	0.038400	0.336900
H171	H17	0.192200	0.512100	0.714500
H181	H18	0.301400	0.493700	0.826900
H191	H19	0.375300	0.787600	0.832200
H201	H20	0.276200	0.802300	0.713600
H211	H21	0.204200	0.303900	0.759500
H221	H22	0.117600	0.229900	0.651800
H231	H23	0.229000	0.963600	0.730300
H241	H24	0.316300	0.038400	0.836900
H251	H25	0.692200	0.487900	0.785500
H261	H26	0.801400	0.506300	0.673100
H271	H27	0.875300	0.212400	0.667800
H281	H28	0.776200	0.197700	0.786400
H291	H29	0.704200	0.696100	0.740500
H301	H30	0.617600	0.770100	0.848200
H311	H31	0.729000	0.036400	0.769700
H321	H32	0.816300	0.961600	0.663100
C11	C1	0.851100	0.328300	0.369300
C21	C2	0.777900	0.339800	0.295900
C31	C3	0.770000	0.433200	0.262100
C41	C4	0.706600	0.443800	0.194700
C51	C5	0.653200	0.360400	0.157600
C61	C6	0.660100	0.267700	0.191500
C71	C7	0.721500	0.258800	0.262300
C81	C8	0.676400	0.770700	0.121900
C91	C9	0.731900	0.820500	0.190800
C101	C10	0.790800	0.764500	0.246200
C111	C11	0.843500	0.809000	0.311100
C121	C12	0.837300	0.912400	0.319800
C131	C13	0.776700	0.968100	0.264200
C141	C14	0.724100	0.923100	0.200000
C151	C15	0.897400	0.961000	0.389300
C161	C16	0.588600	0.372400	0.082900
C171	C17	0.351100	0.671700	0.130700
C181	C18	0.277900	0.660200	0.204100
C191	C19	0.270000	0.566800	0.237900
C201	C20	0.206600	0.556200	0.305300
C211	C21	0.153200	0.639600	0.342400
C221	C22	0.160100	0.732300	0.308500
C231	C23	0.221500	0.741200	0.237700
C241	C24	0.176400	0.229300	0.378100
C251	C25	0.231900	0.179500	0.309200
C261	C26	0.290800	0.235500	0.253800
C271	C27	0.343500	0.191000	0.188900
C281	C28	0.337300	0.087600	0.180200
C291	C29	0.276700	0.031900	0.235800
C301	C30	0.224100	0.076900	0.300000
C311	C31	0.397400	0.039000	0.110700
C321	C32	0.088600	0.627600	0.417100
C331	C33	0.148900	0.671700	0.630700
C341	C34	0.222100	0.660200	0.704100
C351	C35	0.230000	0.566800	0.737900
C361	C36	0.293400	0.556200	0.805300
C371	C37	0.346800	0.639600	0.842400
C381	C38	0.339900	0.732300	0.808500
C391	C39	0.278500	0.741200	0.737700
C401	C40	0.323600	0.229300	0.878100
C411	C41	0.268100	0.179500	0.809200
C421	C42	0.209200	0.235500	0.753800
C431	C43	0.156500	0.191000	0.688900
C441	C44	0.162700	0.087600	0.680200
C451	C45	0.223300	0.031900	0.735800
C461	C46	0.275900	0.076900	0.800000
C471	C47	0.102600	0.039000	0.610700
C481	C48	0.411400	0.627600	0.917100
C491	C49	0.648900	0.328300	0.869300
C501	C50	0.722100	0.339800	0.795900
C511	C51	0.730000	0.433200	0.762100
C521	C52	0.793400	0.443800	0.694700
C531	C53	0.846800	0.360400	0.657600
C541	C54	0.839900	0.267700	0.691500
C551	C55	0.778500	0.258800	0.762300
C561	C56	0.823600	0.770700	0.621900
C571	C57	0.768100	0.820500	0.690800
C581	C58	0.709200	0.764500	0.746200
C591	C59	0.656500	0.809000	0.811100
C601	C60	0.662700	0.912400	0.819800
C611	C61	0.723300	0.968100	0.764200
C621	C62	0.775900	0.923100	0.700000
C631	C63	0.602600	0.961000	0.889300
C641	C64	0.911400	0.372400	0.582900
O11	O1	0.820800	0.256500	0.410900
O21	O2	0.938600	0.391600	0.382300
O31	O3	0.603000	0.819500	0.078100
O41	O4	0.707300	0.681200	0.110600
O51	O5	0.523500	0.300500	0.053700
O61	O6	0.852800	0.044600	0.406400
O71	O7	0.983800	0.914400	0.423900
O81	O8	0.595500	0.453300	0.049200
O91	O9	0.320800	0.743500	0.089100
O101	O10	0.438600	0.608400	0.117700
O111	O11	0.103000	0.180500	0.421900
O121	O12	0.207300	0.318800	0.389400
O131	O13	0.023500	0.699500	0.446300
O141	O14	0.352800	0.955400	0.093600
O151	O15	0.483800	0.085600	0.076100
O161	O16	0.095500	0.546700	0.450800
O171	O17	0.179200	0.743500	0.589100
O181	O18	0.061400	0.608400	0.617700
O191	O19	0.397000	0.180500	0.921900
O201	O20	0.292700	0.318800	0.889400
O211	O21	0.476500	0.699500	0.946300
O221	O22	0.147200	0.955400	0.593600
O231	O23	0.016200	0.085600	0.576100
O241	O24	0.404500	0.546700	0.950800
O251	O25	0.679200	0.256500	0.910900
O261	O26	0.561400	0.391600	0.882300
O271	O27	0.897000	0.819500	0.578100
O281	O28	0.792700	0.681200	0.610600
O291	O29	0.976500	0.300500	0.553700
O301	O30	0.647200	0.044600	0.906400
O311	O31	0.516200	0.914400	0.923900
O321	O32	0.904500	0.453300	0.549200
