data_LUSJOZ_clean_PM
_symmetry_space_group_name_H-M	'P1'
_cell_length_a	12.728700
_cell_length_b	12.728700
_cell_length_c	13.805000
_cell_angle_alpha	67.793000
_cell_angle_beta	65.543600
_cell_angle_gamma	98.110500
_symmetry_Int_Tables_number 1

loop_
_symmetry_equiv_pos_as_xyz
'x,y,z'

loop_
_atom_site_label
_atom_site_type_symbol
_atom_site_fract_x
_atom_site_fract_y
_atom_site_fract_z
Mn11	Mn1	0.000000	0.500000	0.500000
Mn21	Mn2	0.500000	0.500000	0.000000
Mn31	Mn3	0.186620	0.436620	0.250000
Mn41	Mn4	0.813380	0.563380	0.750000
H11	H1	0.737700	0.113200	0.722700
H21	H2	0.635500	0.908700	0.823400
H31	H3	0.848200	0.889100	0.527500
H41	H4	0.943800	0.095700	0.423100
H51	H5	0.753800	0.679400	0.520800
H61	H6	0.604300	0.679500	0.469200
H71	H7	0.529000	0.325500	0.581700
H81	H8	0.682900	0.335400	0.624900
H91	H9	0.335900	0.460400	0.777300
H101	H10	0.232100	0.458900	0.676600
H111	H11	0.916600	0.375700	0.972500
H121	H12	0.018800	0.366900	0.076900
H131	H13	0.700200	0.274600	0.979200
H141	H14	0.648700	0.073500	0.030800
H151	H15	0.407200	0.110700	0.918300
H161	H16	0.460300	0.307800	0.875100
H171	H17	0.262300	0.886800	0.277300
H181	H18	0.364500	0.091300	0.176600
H191	H19	0.151800	0.110900	0.472500
H201	H20	0.056200	0.904300	0.576900
H211	H21	0.246200	0.320600	0.479200
H221	H22	0.395700	0.320500	0.530800
H231	H23	0.471000	0.674500	0.418300
H241	H24	0.317100	0.664600	0.375100
H251	H25	0.664100	0.539600	0.222700
H261	H26	0.767900	0.541100	0.323400
H271	H27	0.083400	0.624300	0.027500
H281	H28	0.981200	0.633100	0.923100
H291	H29	0.299800	0.725400	0.020800
H301	H30	0.351300	0.926500	0.969200
H311	H31	0.592800	0.889300	0.081700
H321	H32	0.539700	0.692200	0.124900
C11	C1	0.929000	0.259400	0.496400
C21	C2	0.856100	0.127000	0.561900
C31	C3	0.760700	0.068400	0.682700
C41	C4	0.700000	0.945600	0.743200
C51	C5	0.732500	0.874800	0.687900
C61	C6	0.825000	0.933700	0.567500
C71	C7	0.884000	0.057900	0.505100
C81	C8	0.674300	0.739900	0.757000
C91	C9	0.707300	0.607100	0.533400
C101	C10	0.618000	0.607600	0.501400
C111	C11	0.547900	0.502000	0.516900
C121	C12	0.574200	0.399600	0.567000
C131	C13	0.664900	0.405000	0.595100
C141	C14	0.255800	0.425400	0.003600
C151	C15	0.188900	0.418000	0.938100
C161	C16	0.251100	0.443400	0.817300
C171	C17	0.188800	0.443200	0.756800
C181	C18	0.062700	0.420400	0.812100
C191	C19	0.001200	0.392500	0.932500
C201	C20	0.063000	0.389100	0.994900
C211	C21	0.996900	0.431300	0.743000
C221	C22	0.640500	0.240700	0.966600
C231	C23	0.609000	0.119400	0.998600
C241	C24	0.518900	0.064800	0.983100
C251	C25	0.466600	0.141200	0.933000
C261	C26	0.500100	0.260000	0.904900
C271	C27	0.071000	0.740600	0.503600
C281	C28	0.143900	0.873000	0.438100
C291	C29	0.239300	0.931600	0.317300
C301	C30	0.300000	0.054400	0.256800
C311	C31	0.267500	0.125200	0.312100
C321	C32	0.175000	0.066300	0.432500
C331	C33	0.116000	0.942100	0.494900
C341	C34	0.325700	0.260100	0.243000
C351	C35	0.292700	0.392900	0.466600
C361	C36	0.382000	0.392400	0.498600
C371	C37	0.452100	0.498000	0.483100
C381	C38	0.425800	0.600400	0.433000
C391	C39	0.335100	0.595000	0.404900
C401	C40	0.744200	0.574600	0.996400
C411	C41	0.811100	0.582000	0.061900
C421	C42	0.748900	0.556600	0.182700
C431	C43	0.811200	0.556800	0.243200
C441	C44	0.937300	0.579600	0.187900
C451	C45	0.998800	0.607500	0.067500
C461	C46	0.937000	0.610900	0.005100
C471	C47	0.003100	0.568700	0.257000
C481	C48	0.359500	0.759300	0.033400
C491	C49	0.391000	0.880600	0.001400
C501	C50	0.481100	0.935200	0.016900
C511	C51	0.533400	0.858800	0.067000
C521	C52	0.499900	0.740000	0.095100
N11	N1	0.729000	0.508000	0.580800
N21	N2	0.588800	0.309800	0.919200
N31	N3	0.271000	0.492000	0.419200
N41	N4	0.411200	0.690200	0.080800
O11	O1	0.907500	0.315800	0.557300
O21	O2	0.008400	0.306200	0.385600
O31	O3	0.582800	0.691500	0.862700
O41	O4	0.721000	0.682900	0.703500
O51	O5	0.813500	0.509300	0.612400
O61	O6	0.373100	0.464800	0.942700
O71	O7	0.191800	0.394000	0.114400
O81	O8	0.054200	0.445500	0.637300
O91	O9	0.886400	0.424500	0.796500
O101	O10	0.621700	0.425900	0.887600
O111	O11	0.092500	0.684200	0.442700
O121	O12	0.991600	0.693800	0.614400
O131	O13	0.417200	0.308500	0.137300
O141	O14	0.279000	0.317100	0.296500
O151	O15	0.186500	0.490700	0.387600
O161	O16	0.626900	0.535200	0.057300
O171	O17	0.808200	0.606000	0.885600
O181	O18	0.945800	0.554500	0.362700
O191	O19	0.113600	0.575500	0.203500
O201	O20	0.378300	0.574100	0.112400
