data_LUSJIT_clean_PM
_symmetry_space_group_name_H-M	'P1'
_cell_length_a	12.740500
_cell_length_b	12.740500
_cell_length_c	13.759500
_cell_angle_alpha	66.388800
_cell_angle_beta	65.367900
_cell_angle_gamma	96.737100
_symmetry_Int_Tables_number 1

loop_
_symmetry_equiv_pos_as_xyz
'x,y,z'

loop_
_atom_site_label
_atom_site_type_symbol
_atom_site_fract_x
_atom_site_fract_y
_atom_site_fract_z
Mn11	Mn1	0.311450	0.061450	0.750000
Mn21	Mn2	0.688550	0.938550	0.250000
Mn31	Mn3	0.500000	0.000000	0.500000
Mn41	Mn4	0.000000	0.000000	0.000000
H11	H1	0.553500	0.396900	0.581200
H21	H2	0.651700	0.602900	0.479800
H31	H3	0.855600	0.595300	0.172500
H41	H4	0.752700	0.390500	0.271800
H51	H5	0.201700	0.768700	0.978400
H61	H6	0.147900	0.567500	0.028600
H71	H7	0.904900	0.613400	0.922300
H81	H8	0.960600	0.812200	0.874800
H91	H9	0.478100	0.134700	0.918800
H101	H10	0.582700	0.131500	0.020200
H111	H11	0.267800	0.028100	0.327500
H121	H12	0.162300	0.024500	0.228200
H131	H13	0.247100	0.180100	0.521600
H141	H14	0.096100	0.176500	0.471400
H151	H15	0.035700	0.827200	0.577700
H161	H16	0.187000	0.835400	0.625200
H171	H17	0.446500	0.603100	0.418800
H181	H18	0.348300	0.397100	0.520200
H191	H19	0.144400	0.404700	0.827500
H201	H20	0.247300	0.609500	0.728200
H211	H21	0.798300	0.231300	0.021600
H221	H22	0.852100	0.432500	0.971400
H231	H23	0.095100	0.386600	0.077700
H241	H24	0.039400	0.187800	0.125200
H251	H25	0.521900	0.865300	0.081200
H261	H26	0.417300	0.868500	0.979800
H271	H27	0.732200	0.971900	0.672500
H281	H28	0.837700	0.975500	0.771800
H291	H29	0.752900	0.819900	0.478400
H301	H30	0.903900	0.823500	0.528600
H311	H31	0.964300	0.172800	0.422300
H321	H32	0.813000	0.164600	0.374800
C11	C1	0.568600	0.239800	0.501400
C21	C2	0.641400	0.372000	0.437000
C31	C3	0.613400	0.436900	0.498100
C41	C4	0.672900	0.560100	0.437600
C51	C5	0.765000	0.622100	0.313500
C61	C6	0.793400	0.556000	0.254800
C71	C7	0.824300	0.758800	0.245700
C81	C8	0.732400	0.432900	0.314500
C91	C9	0.141300	0.736900	0.966600
C101	C10	0.108100	0.615800	0.997300
C111	C11	0.018200	0.564300	0.983100
C121	C12	0.965600	0.642400	0.935200
C131	C13	0.999600	0.762400	0.905600
C141	C14	0.241200	0.070000	0.998600
C151	C15	0.309000	0.078400	0.063000
C161	C16	0.435000	0.111500	0.001900
C171	C17	0.497700	0.110500	0.062400
C181	C18	0.435600	0.078500	0.186500
C191	C19	0.310800	0.048200	0.245200
C201	C20	0.504500	0.070000	0.254300
C211	C21	0.247400	0.046900	0.185500
C221	C22	0.203500	0.107900	0.533400
C231	C23	0.113100	0.105400	0.502700
C241	C24	0.047400	0.001300	0.516900
C251	C25	0.077600	0.900800	0.564800
C261	C26	0.168000	0.905200	0.594400
C271	C27	0.431400	0.760200	0.498600
C281	C28	0.358600	0.628000	0.563000
C291	C29	0.386600	0.563100	0.501900
C301	C30	0.327100	0.439900	0.562400
C311	C31	0.235000	0.377900	0.686500
C321	C32	0.206600	0.444000	0.745200
C331	C33	0.175700	0.241200	0.754300
C341	C34	0.267600	0.567100	0.685500
C351	C35	0.858700	0.263100	0.033400
C361	C36	0.891900	0.384200	0.002700
C371	C37	0.981800	0.435700	0.016900
C381	C38	0.034400	0.357600	0.064800
C391	C39	0.000400	0.237600	0.094400
C401	C40	0.758800	0.930000	0.001400
C411	C41	0.691000	0.921600	0.937000
C421	C42	0.565000	0.888500	0.998100
C431	C43	0.502300	0.889500	0.937600
C441	C44	0.564400	0.921500	0.813500
C451	C45	0.689200	0.951800	0.754800
C461	C46	0.495500	0.930000	0.745700
C471	C47	0.752600	0.953100	0.814500
C481	C48	0.796500	0.892100	0.466600
C491	C49	0.886900	0.894600	0.497300
C501	C50	0.952600	0.998700	0.483100
C511	C51	0.922400	0.099200	0.435200
C521	C52	0.832000	0.094800	0.405600
N11	N1	0.086500	0.807700	0.920000
N21	N2	0.227700	0.006500	0.580000
N31	N3	0.913500	0.192300	0.080000
N41	N4	0.772300	0.993500	0.420000
O11	O1	0.488400	0.190100	0.614900
O21	O2	0.590700	0.186300	0.439000
O31	O3	0.120500	0.925600	0.886700
O41	O4	0.777800	0.813800	0.301400
O51	O5	0.915600	0.808000	0.139000
O61	O6	0.305000	0.103300	0.885100
O71	O7	0.125300	0.029700	0.061000
O81	O8	0.312300	0.007200	0.613300
O91	O9	0.615200	0.079200	0.198600
O101	O10	0.447000	0.054600	0.361000
O111	O11	0.511600	0.809900	0.385100
O121	O12	0.409300	0.813700	0.561000
O131	O13	0.879500	0.074400	0.113300
O141	O14	0.222200	0.186200	0.698600
O151	O15	0.084400	0.192000	0.861000
O161	O16	0.695000	0.896700	0.114900
O171	O17	0.874700	0.970300	0.939000
O181	O18	0.687700	0.992800	0.386700
O191	O19	0.384800	0.920800	0.801400
O201	O20	0.553000	0.945400	0.639000
