data_LUSZIJ_clean_PM
_symmetry_space_group_name_H-M	'P1'
_cell_length_a	7.306000
_cell_length_b	10.205000
_cell_length_c	18.111000
_cell_angle_alpha	90.000000
_cell_angle_beta	90.000000
_cell_angle_gamma	94.248000
_symmetry_Int_Tables_number 1

loop_
_symmetry_equiv_pos_as_xyz
'x,y,z'

loop_
_atom_site_label
_atom_site_type_symbol
_atom_site_fract_x
_atom_site_fract_y
_atom_site_fract_z
Cu11	Cu1	0.864550	0.215900	0.905280
Cu21	Cu2	0.039510	0.929790	0.931580
Cu31	Cu3	0.635450	0.284100	0.405280
Cu41	Cu4	0.460490	0.570210	0.431580
Cu51	Cu5	0.135450	0.784100	0.094720
Cu61	Cu6	0.960490	0.070210	0.068420
Cu71	Cu7	0.364550	0.715900	0.594720
Cu81	Cu8	0.539510	0.429790	0.568420
H11	H1	0.778900	0.164300	0.692100
H21	H2	0.935900	0.797500	0.707000
H31	H3	0.772900	0.936600	0.510900
H41	H4	0.721100	0.335700	0.192100
H51	H5	0.564100	0.702500	0.207000
H61	H6	0.727100	0.563400	0.010900
H71	H7	0.221100	0.835700	0.307900
H81	H8	0.064100	0.202500	0.293000
H91	H9	0.227100	0.063400	0.489100
H101	H10	0.278900	0.664300	0.807900
H111	H11	0.435900	0.297500	0.793000
H121	H12	0.272900	0.436600	0.989100
C11	C1	0.858600	0.848400	0.604200
C21	C2	0.766100	0.069000	0.595000
C31	C3	0.799600	0.084700	0.669700
C41	C4	0.863500	0.984300	0.711900
C51	C5	0.898500	0.008800	0.792400
C61	C6	0.893200	0.865400	0.679100
C71	C7	0.795200	0.949000	0.561000
C81	C8	0.694200	0.180000	0.552900
C91	C9	0.641400	0.651600	0.104200
C101	C10	0.733900	0.431000	0.095000
C111	C11	0.700400	0.415300	0.169700
C121	C12	0.636500	0.515700	0.211900
C131	C13	0.601500	0.491200	0.292400
C141	C14	0.606800	0.634600	0.179100
C151	C15	0.704800	0.551000	0.061000
C161	C16	0.805800	0.320000	0.052900
C171	C17	0.141400	0.151600	0.395800
C181	C18	0.233900	0.931000	0.405000
C191	C19	0.200400	0.915300	0.330300
C201	C20	0.136500	0.015700	0.288100
C211	C21	0.101500	0.991200	0.207600
C221	C22	0.106800	0.134600	0.320900
C231	C23	0.204800	0.051000	0.439000
C241	C24	0.305800	0.820000	0.447100
C251	C25	0.358600	0.348400	0.895800
C261	C26	0.266100	0.569000	0.905000
C271	C27	0.299600	0.584700	0.830300
C281	C28	0.363500	0.484300	0.788100
C291	C29	0.398500	0.508800	0.707600
C301	C30	0.393200	0.365400	0.820900
C311	C31	0.295200	0.449000	0.939000
C321	C32	0.194200	0.680000	0.947100
S11	S1	0.876210	0.690430	0.565060
S21	S2	0.623790	0.809570	0.065060
S31	S3	0.123790	0.309570	0.434940
S41	S4	0.376210	0.190430	0.934940
O11	O1	0.944000	0.914400	0.832110
O21	O2	0.869400	0.058300	0.965580
O31	O3	0.656000	0.161800	0.486000
O41	O4	0.877300	0.124400	0.813590
O51	O5	0.858300	0.700400	0.486900
O61	O6	0.678800	0.282900	0.589200
O71	O7	0.725700	0.611100	0.598400
O81	O8	0.048900	0.647300	0.591300
O91	O9	0.556000	0.585600	0.332110
O101	O10	0.630600	0.441700	0.465580
O111	O11	0.844000	0.338200	0.986000
O121	O12	0.622700	0.375600	0.313590
O131	O13	0.641700	0.799600	0.986900
O141	O14	0.821200	0.217100	0.089200
O151	O15	0.774300	0.888900	0.098400
O161	O16	0.451100	0.852700	0.091300
O171	O17	0.056000	0.085600	0.167890
O181	O18	0.130600	0.941700	0.034420
O191	O19	0.344000	0.838200	0.514000
O201	O20	0.122700	0.875600	0.186410
O211	O21	0.141700	0.299600	0.513100
O221	O22	0.321200	0.717100	0.410800
O231	O23	0.274300	0.388900	0.401600
O241	O24	0.951100	0.352700	0.408700
O251	O25	0.444000	0.414400	0.667890
O261	O26	0.369400	0.558300	0.534420
O271	O27	0.156000	0.661800	0.014000
O281	O28	0.377300	0.624400	0.686410
O291	O29	0.358300	0.200400	0.013100
O301	O30	0.178800	0.782900	0.910800
O311	O31	0.225700	0.111100	0.901600
O321	O32	0.548900	0.147300	0.908700
