data_LUTBUY_clean_PM
_symmetry_space_group_name_H-M	'P1'
_cell_length_a	7.302000
_cell_length_b	10.267000
_cell_length_c	18.150000
_cell_angle_alpha	90.000000
_cell_angle_beta	90.000000
_cell_angle_gamma	94.010000
_symmetry_Int_Tables_number 1

loop_
_symmetry_equiv_pos_as_xyz
'x,y,z'

loop_
_atom_site_label
_atom_site_type_symbol
_atom_site_fract_x
_atom_site_fract_y
_atom_site_fract_z
Cu11	Cu1	0.864100	0.215000	0.905260
Cu21	Cu2	0.037500	0.929200	0.931660
Cu31	Cu3	0.635900	0.285000	0.405260
Cu41	Cu4	0.462500	0.570800	0.431660
Cu51	Cu5	0.135900	0.785000	0.094740
Cu61	Cu6	0.962500	0.070800	0.068340
Cu71	Cu7	0.364100	0.715000	0.594740
Cu81	Cu8	0.537500	0.429200	0.568340
H11	H1	0.780800	0.168000	0.690400
H21	H2	0.940200	0.802700	0.706600
H31	H3	0.777000	0.946300	0.510700
H41	H4	0.719200	0.332000	0.190400
H51	H5	0.559800	0.697300	0.206600
H61	H6	0.723000	0.553700	0.010700
H71	H7	0.219200	0.832000	0.309600
H81	H8	0.059800	0.197300	0.293400
H91	H9	0.223000	0.053700	0.489300
H101	H10	0.280800	0.668000	0.809600
H111	H11	0.440200	0.302700	0.793400
H121	H12	0.277000	0.446300	0.989300
C11	C1	0.855000	0.851400	0.603600
C21	C2	0.765000	0.067000	0.594500
C31	C3	0.799000	0.088000	0.669000
C41	C4	0.861000	0.985100	0.711500
C51	C5	0.896000	0.004600	0.793000
C61	C6	0.893000	0.869200	0.679200
C71	C7	0.795000	0.956000	0.561200
C81	C8	0.695000	0.185000	0.553300
C91	C9	0.645000	0.648600	0.103600
C101	C10	0.735000	0.433000	0.094500
C111	C11	0.701000	0.412000	0.169000
C121	C12	0.639000	0.514900	0.211500
C131	C13	0.604000	0.495400	0.293000
C141	C14	0.607000	0.630800	0.179200
C151	C15	0.705000	0.544000	0.061200
C161	C16	0.805000	0.315000	0.053300
C171	C17	0.145000	0.148600	0.396400
C181	C18	0.235000	0.933000	0.405500
C191	C19	0.201000	0.912000	0.331000
C201	C20	0.139000	0.014900	0.288500
C211	C21	0.104000	0.995400	0.207000
C221	C22	0.107000	0.130800	0.320800
C231	C23	0.205000	0.044000	0.438800
C241	C24	0.305000	0.815000	0.446700
C251	C25	0.355000	0.351400	0.896400
C261	C26	0.265000	0.567000	0.905500
C271	C27	0.299000	0.588000	0.831000
C281	C28	0.361000	0.485100	0.788500
C291	C29	0.396000	0.504600	0.707000
C301	C30	0.393000	0.369200	0.820800
C311	C31	0.295000	0.456000	0.938800
C321	C32	0.195000	0.685000	0.946700
S11	S1	0.873300	0.690700	0.565000
S21	S2	0.626700	0.809300	0.065000
S31	S3	0.126700	0.309300	0.435000
S41	S4	0.373300	0.190700	0.935000
O11	O1	0.941000	0.915600	0.831800
O21	O2	0.870300	0.055400	0.965700
O31	O3	0.655200	0.160200	0.485500
O41	O4	0.878400	0.125800	0.813400
O51	O5	0.852000	0.701200	0.487200
O61	O6	0.673000	0.277500	0.589600
O71	O7	0.725700	0.609400	0.599000
O81	O8	0.046700	0.644000	0.590000
O91	O9	0.559000	0.584400	0.331800
O101	O10	0.629700	0.444600	0.465700
O111	O11	0.844800	0.339800	0.985500
O121	O12	0.621600	0.374200	0.313400
O131	O13	0.648000	0.798800	0.987200
O141	O14	0.827000	0.222500	0.089600
O151	O15	0.774300	0.890600	0.099000
O161	O16	0.453300	0.856000	0.090000
O171	O17	0.059000	0.084400	0.168200
O181	O18	0.129700	0.944600	0.034300
O191	O19	0.344800	0.839800	0.514500
O201	O20	0.121600	0.874200	0.186600
O211	O21	0.148000	0.298800	0.512800
O221	O22	0.327000	0.722500	0.410400
O231	O23	0.274300	0.390600	0.401000
O241	O24	0.953300	0.356000	0.410000
O251	O25	0.441000	0.415600	0.668200
O261	O26	0.370300	0.555400	0.534300
O271	O27	0.155200	0.660200	0.014500
O281	O28	0.378400	0.625800	0.686600
O291	O29	0.352000	0.201200	0.012800
O301	O30	0.173000	0.777500	0.910400
O311	O31	0.225700	0.109400	0.901000
O321	O32	0.546700	0.144000	0.910000
