data_LUTSEA_clean_PM
_symmetry_space_group_name_H-M	'P1'
_cell_length_a	11.288300
_cell_length_b	11.288300
_cell_length_c	12.841900
_cell_angle_alpha	90.000000
_cell_angle_beta	90.000000
_cell_angle_gamma	90.000000
_symmetry_Int_Tables_number 1

loop_
_symmetry_equiv_pos_as_xyz
'x,y,z'

loop_
_atom_site_label
_atom_site_type_symbol
_atom_site_fract_x
_atom_site_fract_y
_atom_site_fract_z
N11	N1	0.220480	0.102930	0.392920
C11	C1	0.145790	0.064400	0.342770
N21	N2	0.720480	0.602930	0.892920
C21	C2	0.645790	0.564400	0.842770
N31	N3	0.779520	0.897070	0.392920
C31	C3	0.854210	0.935600	0.342770
N41	N4	0.279520	0.397070	0.892920
C41	C4	0.354210	0.435600	0.842770
N51	N5	0.897070	0.220480	0.392920
C51	C5	0.935600	0.145790	0.342770
N61	N6	0.397070	0.720480	0.892920
C61	C6	0.435600	0.645790	0.842770
N71	N7	0.102930	0.779520	0.392920
C71	C7	0.064400	0.854210	0.342770
N81	N8	0.602930	0.279520	0.892920
C81	C8	0.564400	0.354210	0.842770
N91	N9	0.779520	0.102930	0.107080
C91	C9	0.854210	0.064400	0.157230
N101	N10	0.279520	0.602930	0.607080
C101	C10	0.354210	0.564400	0.657230
N111	N11	0.220480	0.897070	0.107080
C111	C11	0.145790	0.935600	0.157230
N121	N12	0.720480	0.397070	0.607080
C121	C12	0.645790	0.435600	0.657230
N131	N13	0.102930	0.220480	0.107080
C131	C13	0.064400	0.145790	0.157230
N141	N14	0.602930	0.720480	0.607080
C141	C14	0.564400	0.645790	0.657230
N151	N15	0.897070	0.779520	0.107080
C151	C15	0.935600	0.854210	0.157230
N161	N16	0.397070	0.279520	0.607080
C161	C16	0.435600	0.354210	0.657230
N171	N17	0.779520	0.897070	0.607080
C171	C17	0.854210	0.935600	0.657230
N181	N18	0.279520	0.397070	0.107080
C181	C18	0.354210	0.435600	0.157230
N191	N19	0.220480	0.102930	0.607080
C191	C19	0.145790	0.064400	0.657230
N201	N20	0.720480	0.602930	0.107080
C201	C20	0.645790	0.564400	0.157230
N211	N21	0.102930	0.779520	0.607080
C211	C21	0.064400	0.854210	0.657230
N221	N22	0.602930	0.279520	0.107080
C221	C22	0.564400	0.354210	0.157230
N231	N23	0.897070	0.220480	0.607080
C231	C23	0.935600	0.145790	0.657230
N241	N24	0.397070	0.720480	0.107080
C241	C24	0.435600	0.645790	0.157230
N251	N25	0.220480	0.897070	0.892920
C251	C25	0.145790	0.935600	0.842770
N261	N26	0.720480	0.397070	0.392920
C261	C26	0.645790	0.435600	0.342770
N271	N27	0.779520	0.102930	0.892920
C271	C27	0.854210	0.064400	0.842770
N281	N28	0.279520	0.602930	0.392920
C281	C28	0.354210	0.564400	0.342770
N291	N29	0.897070	0.779520	0.892920
C291	C29	0.935600	0.854210	0.842770
N301	N30	0.397070	0.279520	0.392920
C301	C30	0.435600	0.354210	0.342770
N311	N31	0.102930	0.220480	0.892920
C311	C31	0.064400	0.145790	0.842770
N321	N32	0.602930	0.720480	0.392920
C321	C32	0.564400	0.645790	0.342770
Mo11	Mo1	0.000000	0.000000	0.250000
Mo21	Mo2	0.500000	0.500000	0.750000
Mo31	Mo3	0.000000	0.000000	0.750000
Mo41	Mo4	0.500000	0.500000	0.250000
Cu11	Cu1	0.312730	0.187270	0.500000
Cu21	Cu2	0.687270	0.812730	0.500000
Cu31	Cu3	0.812730	0.312730	0.500000
Cu41	Cu4	0.187270	0.687270	0.500000
Cu51	Cu5	0.687270	0.187270	0.000000
Cu61	Cu6	0.312730	0.812730	0.000000
Cu71	Cu7	0.187270	0.312730	0.000000
Cu81	Cu8	0.812730	0.687270	0.000000
