data_LUVTAY_clean_PM
_symmetry_space_group_name_H-M	'P1'
_cell_length_a	15.174300
_cell_length_b	24.885900
_cell_length_c	24.885900
_cell_angle_alpha	90.000000
_cell_angle_beta	90.000000
_cell_angle_gamma	90.000000
_symmetry_Int_Tables_number 1

loop_
_symmetry_equiv_pos_as_xyz
'x,y,z'

loop_
_atom_site_label
_atom_site_type_symbol
_atom_site_fract_x
_atom_site_fract_y
_atom_site_fract_z
Zn11	Zn1	0.030230	0.879220	0.022420
Zn21	Zn2	0.246830	0.850970	0.000710
Zn31	Zn3	0.967020	0.482350	0.372650
Zn41	Zn4	0.030230	0.120780	0.977580
Zn51	Zn5	0.246830	0.149030	0.999290
Zn61	Zn6	0.967020	0.517650	0.627350
Zn71	Zn7	0.969770	0.022420	0.120780
Zn81	Zn8	0.753170	0.000710	0.149030
Zn91	Zn9	0.032980	0.372650	0.517650
Zn101	Zn10	0.969770	0.977580	0.879220
Zn111	Zn11	0.753170	0.999290	0.850970
Zn121	Zn12	0.032980	0.627350	0.482350
Zn131	Zn13	0.469770	0.620780	0.522420
Zn141	Zn14	0.253170	0.649030	0.500710
Zn151	Zn15	0.532980	0.017650	0.872650
Zn161	Zn16	0.469770	0.379220	0.477580
Zn171	Zn17	0.253170	0.350970	0.499290
Zn181	Zn18	0.532980	0.982350	0.127350
Zn191	Zn19	0.530230	0.477580	0.620780
Zn201	Zn20	0.746830	0.499290	0.649030
Zn211	Zn21	0.467020	0.127350	0.017650
Zn221	Zn22	0.530230	0.522420	0.379220
Zn231	Zn23	0.746830	0.500710	0.350970
Zn241	Zn24	0.467020	0.872650	0.982350
H11	H1	0.210600	0.731600	0.884300
H21	H2	0.178300	0.672600	0.814800
H31	H3	0.920900	0.714200	0.826300
H41	H4	0.955600	0.772600	0.895500
H51	H5	0.901000	0.628400	0.793800
H61	H6	0.876100	0.565100	0.725700
H71	H7	0.107500	0.592500	0.663200
H81	H8	0.141700	0.655300	0.729300
H91	H9	0.023100	0.620000	0.287000
H101	H10	0.062600	0.691100	0.231000
H111	H11	0.811600	0.700300	0.179000
H121	H12	0.773400	0.628400	0.234600
H131	H13	0.089700	0.720100	0.144300
H141	H14	0.121100	0.784800	0.081000
H151	H15	0.891700	0.853300	0.103000
H161	H16	0.855100	0.790300	0.168300
H171	H17	0.213400	0.966100	0.040700
H181	H18	0.289000	0.905300	0.094400
H191	H19	0.250200	0.953200	0.130200
H201	H20	0.202500	0.895800	0.129900
H211	H21	0.279100	0.948300	0.931600
H221	H22	0.251600	0.867900	0.878400
H231	H23	0.352100	0.869500	0.859100
H241	H24	0.286200	0.916900	0.842500
H251	H25	0.210600	0.268400	0.115700
H261	H26	0.178300	0.327400	0.185200
H271	H27	0.920900	0.285800	0.173700
H281	H28	0.955600	0.227400	0.104500
H291	H29	0.901000	0.371600	0.206200
H301	H30	0.876100	0.434900	0.274300
H311	H31	0.107500	0.407500	0.336800
H321	H32	0.141700	0.344700	0.270700
H331	H33	0.023100	0.380000	0.713000
H341	H34	0.062600	0.308900	0.769000
H351	H35	0.811600	0.299700	0.821000
H361	H36	0.773400	0.371600	0.765400
H371	H37	0.089700	0.279900	0.855700
H381	H38	0.121100	0.215200	0.919000
H391	H39	0.891700	0.146700	0.897000
H401	H40	0.855100	0.209700	0.831700
H411	H41	0.213400	0.033900	0.959300
H421	H42	0.289000	0.094700	0.905600
H431	H43	0.250200	0.046800	0.869800
H441	H44	0.202500	0.104200	0.870100
H451	H45	0.279100	0.051700	0.068400
H461	H46	0.251600	0.132100	0.121600
H471	H47	0.352100	0.130500	0.140900
H481	H48	0.286200	0.083100	0.157500
H491	H49	0.789400	0.884300	0.268400
H501	H50	0.821700	0.814800	0.327400
H511	H51	0.079100	0.826300	0.285800
H521	H52	0.044400	0.895500	0.227400
H531	H53	0.099000	0.793800	0.371600
H541	H54	0.123900	0.725700	0.434900
H551	H55	0.892500	0.663200	0.407500
H561	H56	0.858300	0.729300	0.344700
H571	H57	0.976900	0.287000	0.380000
H581	H58	0.937400	0.231000	0.308900
H591	H59	0.188400	0.179000	0.299700
H601	H60	0.226600	0.234600	0.371600
H611	H61	0.910300	0.144300	0.279900
H621	H62	0.878900	0.081000	0.215200
H631	H63	0.108300	0.103000	0.146700
H641	H64	0.144900	0.168300	0.209700
H651	H65	0.786600	0.040700	0.033900
H661	H66	0.711000	0.094400	0.094700
H671	H67	0.749800	0.130200	0.046800
H681	H68	0.797500	0.129900	0.104200
H691	H69	0.720900	0.931600	0.051700
H701	H70	0.748400	0.878400	0.132100
H711	H71	0.647900	0.859100	0.130500
H721	H72	0.713800	0.842500	0.083100
H731	H73	0.789400	0.115700	0.731600
H741	H74	0.821700	0.185200	0.672600
H751	H75	0.079100	0.173700	0.714200
H761	H76	0.044400	0.104500	0.772600
H771	H77	0.099000	0.206200	0.628400
H781	H78	0.123900	0.274300	0.565100
H791	H79	0.892500	0.336800	0.592500
H801	H80	0.858300	0.270700	0.655300
H811	H81	0.976900	0.713000	0.620000
H821	H82	0.937400	0.769000	0.691100
H831	H83	0.188400	0.821000	0.700300
H841	H84	0.226600	0.765400	0.628400
H851	H85	0.910300	0.855700	0.720100
H861	H86	0.878900	0.919000	0.784800
H871	H87	0.108300	0.897000	0.853300
H881	H88	0.144900	0.831700	0.790300
H891	H89	0.786600	0.959300	0.966100
H901	H90	0.711000	0.905600	0.905300
H911	H91	0.749800	0.869800	0.953200
H921	H92	0.797500	0.870100	0.895800
H931	H93	0.720900	0.068400	0.948300
H941	H94	0.748400	0.121600	0.867900
H951	H95	0.647900	0.140900	0.869500
H961	H96	0.713800	0.157500	0.916900
H971	H97	0.289400	0.768400	0.384300
H981	H98	0.321700	0.827400	0.314800
H991	H99	0.579100	0.785800	0.326300
H1001	H100	0.544400	0.727400	0.395500
H1011	H101	0.599000	0.871600	0.293800
H1021	H102	0.623900	0.934900	0.225700
H1031	H103	0.392500	0.907500	0.163200
H1041	H104	0.358300	0.844700	0.229300
H1051	H105	0.476900	0.880000	0.787000
H1061	H106	0.437400	0.808900	0.731000
H1071	H107	0.688400	0.799700	0.679000
H1081	H108	0.726600	0.871600	0.734600
H1091	H109	0.410300	0.779900	0.644300
H1101	H110	0.378900	0.715200	0.581000
H1111	H111	0.608300	0.646700	0.603000
H1121	H112	0.644900	0.709700	0.668300
H1131	H113	0.286600	0.533900	0.540700
H1141	H114	0.211000	0.594700	0.594400
H1151	H115	0.249800	0.546800	0.630200
H1161	H116	0.297500	0.604200	0.629900
H1171	H117	0.220900	0.551700	0.431600
H1181	H118	0.248400	0.632100	0.378400
H1191	H119	0.147900	0.630500	0.359100
H1201	H120	0.213800	0.583100	0.342500
H1211	H121	0.289400	0.231600	0.615700
H1221	H122	0.321700	0.172600	0.685200
H1231	H123	0.579100	0.214200	0.673700
H1241	H124	0.544400	0.272600	0.604500
H1251	H125	0.599000	0.128400	0.706200
H1261	H126	0.623900	0.065100	0.774300
H1271	H127	0.392500	0.092500	0.836800
H1281	H128	0.358300	0.155300	0.770700
H1291	H129	0.476900	0.120000	0.213000
H1301	H130	0.437400	0.191100	0.269000
H1311	H131	0.688400	0.200300	0.321000
H1321	H132	0.726600	0.128400	0.265400
H1331	H133	0.410300	0.220100	0.355700
H1341	H134	0.378900	0.284800	0.419000
H1351	H135	0.608300	0.353300	0.397000
H1361	H136	0.644900	0.290300	0.331700
H1371	H137	0.286600	0.466100	0.459300
H1381	H138	0.211000	0.405300	0.405600
H1391	H139	0.249800	0.453200	0.369800
H1401	H140	0.297500	0.395800	0.370100
H1411	H141	0.220900	0.448300	0.568400
H1421	H142	0.248400	0.367900	0.621600
H1431	H143	0.147900	0.369500	0.640900
H1441	H144	0.213800	0.416900	0.657500
H1451	H145	0.710600	0.615700	0.768400
H1461	H146	0.678300	0.685200	0.827400
H1471	H147	0.420900	0.673700	0.785800
H1481	H148	0.455600	0.604500	0.727400
H1491	H149	0.401000	0.706200	0.871600
H1501	H150	0.376100	0.774300	0.934900
H1511	H151	0.607500	0.836800	0.907500
H1521	H152	0.641700	0.770700	0.844700
H1531	H153	0.523100	0.213000	0.880000
H1541	H154	0.562600	0.269000	0.808900
H1551	H155	0.311600	0.321000	0.799700
H1561	H156	0.273400	0.265400	0.871600
H1571	H157	0.589700	0.355700	0.779900
H1581	H158	0.621100	0.419000	0.715200
H1591	H159	0.391700	0.397000	0.646700
H1601	H160	0.355100	0.331700	0.709700
H1611	H161	0.713400	0.459300	0.533900
H1621	H162	0.789000	0.405600	0.594700
H1631	H163	0.750200	0.369800	0.546800
H1641	H164	0.702500	0.370100	0.604200
H1651	H165	0.779100	0.568400	0.551700
H1661	H166	0.751600	0.621600	0.632100
H1671	H167	0.852100	0.640900	0.630500
H1681	H168	0.786200	0.657500	0.583100
H1691	H169	0.710600	0.384300	0.231600
H1701	H170	0.678300	0.314800	0.172600
H1711	H171	0.420900	0.326300	0.214200
H1721	H172	0.455600	0.395500	0.272600
H1731	H173	0.401000	0.293800	0.128400
H1741	H174	0.376100	0.225700	0.065100
H1751	H175	0.607500	0.163200	0.092500
H1761	H176	0.641700	0.229300	0.155300
H1771	H177	0.523100	0.787000	0.120000
H1781	H178	0.562600	0.731000	0.191100
H1791	H179	0.311600	0.679000	0.200300
H1801	H180	0.273400	0.734600	0.128400
H1811	H181	0.589700	0.644300	0.220100
H1821	H182	0.621100	0.581000	0.284800
H1831	H183	0.391700	0.603000	0.353300
H1841	H184	0.355100	0.668300	0.290300
H1851	H185	0.713400	0.540700	0.466100
H1861	H186	0.789000	0.594400	0.405300
H1871	H187	0.750200	0.630200	0.453200
H1881	H188	0.702500	0.629900	0.395800
H1891	H189	0.779100	0.431600	0.448300
H1901	H190	0.751600	0.378400	0.367900
H1911	H191	0.852100	0.359100	0.369500
H1921	H192	0.786200	0.342500	0.416900
C11	C1	0.086500	0.757800	0.897200
C21	C2	0.151300	0.727900	0.872600
C31	C3	0.132300	0.692700	0.831200
C41	C4	0.046100	0.686600	0.813600
C51	C5	0.980200	0.717300	0.838000
C61	C6	0.001100	0.752000	0.879100
C71	C7	0.025900	0.647600	0.770200
C81	C8	0.945500	0.621100	0.768000
C91	C9	0.930800	0.583500	0.726700
C101	C10	0.065500	0.599500	0.690700
C111	C11	0.086600	0.637100	0.730000
C121	C12	0.108900	0.795700	0.942100
C131	C13	0.896200	0.616100	0.264900
C141	C14	0.979900	0.635800	0.264400
C151	C15	0.003300	0.678700	0.231500
C161	C16	0.941700	0.703100	0.200000
C171	C17	0.855100	0.683900	0.200900
C181	C18	0.832600	0.640900	0.233600
C191	C19	0.967800	0.746400	0.161900
C201	C20	0.047000	0.746800	0.136200
C211	C21	0.065500	0.785800	0.098500
C221	C22	0.932700	0.825600	0.111300
C231	C23	0.909900	0.787800	0.150000
C241	C24	0.873300	0.568700	0.299100
C251	C25	0.179400	0.939400	0.062400
C261	C26	0.096400	0.966800	0.083600
C271	C27	0.235000	0.922000	0.108100
C281	C28	0.411900	0.953300	0.910700
C291	C29	0.327100	0.922400	0.922400
C301	C30	0.302000	0.891300	0.870900
C311	C31	0.086500	0.242200	0.102800
C321	C32	0.151300	0.272100	0.127400
C331	C33	0.132300	0.307300	0.168800
C341	C34	0.046100	0.313400	0.186400
C351	C35	0.980200	0.282700	0.162000
C361	C36	0.001100	0.248000	0.120900
C371	C37	0.025900	0.352400	0.229800
C381	C38	0.945500	0.378900	0.232000
C391	C39	0.930800	0.416500	0.273300
C401	C40	0.065500	0.400500	0.309300
C411	C41	0.086600	0.362900	0.270000
C421	C42	0.108900	0.204300	0.057900
C431	C43	0.896200	0.383900	0.735100
C441	C44	0.979900	0.364200	0.735600
C451	C45	0.003300	0.321300	0.768500
C461	C46	0.941700	0.296900	0.800000
C471	C47	0.855100	0.316100	0.799100
C481	C48	0.832600	0.359100	0.766400
C491	C49	0.967800	0.253600	0.838100
C501	C50	0.047000	0.253200	0.863800
C511	C51	0.065500	0.214200	0.901500
C521	C52	0.932700	0.174400	0.888700
C531	C53	0.909900	0.212200	0.850000
C541	C54	0.873300	0.431300	0.700900
C551	C55	0.179400	0.060600	0.937600
C561	C56	0.096400	0.033200	0.916400
C571	C57	0.235000	0.078000	0.891900
C581	C58	0.411900	0.046700	0.089300
C591	C59	0.327100	0.077600	0.077600
C601	C60	0.302000	0.108700	0.129100
C611	C61	0.913500	0.897200	0.242200
C621	C62	0.848700	0.872600	0.272100
C631	C63	0.867700	0.831200	0.307300
C641	C64	0.953900	0.813600	0.313400
C651	C65	0.019800	0.838000	0.282700
C661	C66	0.998900	0.879100	0.248000
C671	C67	0.974100	0.770200	0.352400
C681	C68	0.054500	0.768000	0.378900
C691	C69	0.069200	0.726700	0.416500
C701	C70	0.934500	0.690700	0.400500
C711	C71	0.913400	0.730000	0.362900
C721	C72	0.891100	0.942100	0.204300
C731	C73	0.103800	0.264900	0.383900
C741	C74	0.020100	0.264400	0.364200
C751	C75	0.996700	0.231500	0.321300
C761	C76	0.058300	0.200000	0.296900
C771	C77	0.144900	0.200900	0.316100
C781	C78	0.167400	0.233600	0.359100
C791	C79	0.032200	0.161900	0.253600
C801	C80	0.953000	0.136200	0.253200
C811	C81	0.934500	0.098500	0.214200
C821	C82	0.067300	0.111300	0.174400
C831	C83	0.090100	0.150000	0.212200
C841	C84	0.126700	0.299100	0.431300
C851	C85	0.820600	0.062400	0.060600
C861	C86	0.903600	0.083600	0.033200
C871	C87	0.765000	0.108100	0.078000
C881	C88	0.588100	0.910700	0.046700
C891	C89	0.672900	0.922400	0.077600
C901	C90	0.698000	0.870900	0.108700
C911	C91	0.913500	0.102800	0.757800
C921	C92	0.848700	0.127400	0.727900
C931	C93	0.867700	0.168800	0.692700
C941	C94	0.953900	0.186400	0.686600
C951	C95	0.019800	0.162000	0.717300
C961	C96	0.998900	0.120900	0.752000
C971	C97	0.974100	0.229800	0.647600
C981	C98	0.054500	0.232000	0.621100
C991	C99	0.069200	0.273300	0.583500
C1001	C100	0.934500	0.309300	0.599500
C1011	C101	0.913400	0.270000	0.637100
C1021	C102	0.891100	0.057900	0.795700
C1031	C103	0.103800	0.735100	0.616100
C1041	C104	0.020100	0.735600	0.635800
C1051	C105	0.996700	0.768500	0.678700
C1061	C106	0.058300	0.800000	0.703100
C1071	C107	0.144900	0.799100	0.683900
C1081	C108	0.167400	0.766400	0.640900
C1091	C109	0.032200	0.838100	0.746400
C1101	C110	0.953000	0.863800	0.746800
C1111	C111	0.934500	0.901500	0.785800
C1121	C112	0.067300	0.888700	0.825600
C1131	C113	0.090100	0.850000	0.787800
C1141	C114	0.126700	0.700900	0.568700
C1151	C115	0.820600	0.937600	0.939400
C1161	C116	0.903600	0.916400	0.966800
C1171	C117	0.765000	0.891900	0.922000
C1181	C118	0.588100	0.089300	0.953300
C1191	C119	0.672900	0.077600	0.922400
C1201	C120	0.698000	0.129100	0.891300
C1211	C121	0.413500	0.742200	0.397200
C1221	C122	0.348700	0.772100	0.372600
C1231	C123	0.367700	0.807300	0.331200
C1241	C124	0.453900	0.813400	0.313600
C1251	C125	0.519800	0.782700	0.338000
C1261	C126	0.498900	0.748000	0.379100
C1271	C127	0.474100	0.852400	0.270200
C1281	C128	0.554500	0.878900	0.268000
C1291	C129	0.569200	0.916500	0.226700
C1301	C130	0.434500	0.900500	0.190700
C1311	C131	0.413400	0.862900	0.230000
C1321	C132	0.391100	0.704300	0.442100
C1331	C133	0.603800	0.883900	0.764900
C1341	C134	0.520100	0.864200	0.764400
C1351	C135	0.496700	0.821300	0.731500
C1361	C136	0.558300	0.796900	0.700000
C1371	C137	0.644900	0.816100	0.700900
C1381	C138	0.667400	0.859100	0.733600
C1391	C139	0.532200	0.753600	0.661900
C1401	C140	0.453000	0.753200	0.636200
C1411	C141	0.434500	0.714200	0.598500
C1421	C142	0.567300	0.674400	0.611300
C1431	C143	0.590100	0.712200	0.650000
C1441	C144	0.626700	0.931300	0.799100
C1451	C145	0.320600	0.560600	0.562400
C1461	C146	0.403600	0.533200	0.583600
C1471	C147	0.265000	0.578000	0.608100
C1481	C148	0.088100	0.546700	0.410700
C1491	C149	0.172900	0.577600	0.422400
C1501	C150	0.198000	0.608700	0.370900
C1511	C151	0.413500	0.257800	0.602800
C1521	C152	0.348700	0.227900	0.627400
C1531	C153	0.367700	0.192700	0.668800
C1541	C154	0.453900	0.186600	0.686400
C1551	C155	0.519800	0.217300	0.662000
C1561	C156	0.498900	0.252000	0.620900
C1571	C157	0.474100	0.147600	0.729800
C1581	C158	0.554500	0.121100	0.732000
C1591	C159	0.569200	0.083500	0.773300
C1601	C160	0.434500	0.099500	0.809300
C1611	C161	0.413400	0.137100	0.770000
C1621	C162	0.391100	0.295700	0.557900
C1631	C163	0.603800	0.116100	0.235100
C1641	C164	0.520100	0.135800	0.235600
C1651	C165	0.496700	0.178700	0.268500
C1661	C166	0.558300	0.203100	0.300000
C1671	C167	0.644900	0.183900	0.299100
C1681	C168	0.667400	0.140900	0.266400
C1691	C169	0.532200	0.246400	0.338100
C1701	C170	0.453000	0.246800	0.363800
C1711	C171	0.434500	0.285800	0.401500
C1721	C172	0.567300	0.325600	0.388700
C1731	C173	0.590100	0.287800	0.350000
C1741	C174	0.626700	0.068700	0.200900
C1751	C175	0.320600	0.439400	0.437600
C1761	C176	0.403600	0.466800	0.416400
C1771	C177	0.265000	0.422000	0.391900
C1781	C178	0.088100	0.453300	0.589300
C1791	C179	0.172900	0.422400	0.577600
C1801	C180	0.198000	0.391300	0.629100
C1811	C181	0.586500	0.602800	0.742200
C1821	C182	0.651300	0.627400	0.772100
C1831	C183	0.632300	0.668800	0.807300
C1841	C184	0.546100	0.686400	0.813400
C1851	C185	0.480200	0.662000	0.782700
C1861	C186	0.501100	0.620900	0.748000
C1871	C187	0.525900	0.729800	0.852400
C1881	C188	0.445500	0.732000	0.878900
C1891	C189	0.430800	0.773300	0.916500
C1901	C190	0.565500	0.809300	0.900500
C1911	C191	0.586600	0.770000	0.862900
C1921	C192	0.608900	0.557900	0.704300
C1931	C193	0.396200	0.235100	0.883900
C1941	C194	0.479900	0.235600	0.864200
C1951	C195	0.503300	0.268500	0.821300
C1961	C196	0.441700	0.300000	0.796900
C1971	C197	0.355100	0.299100	0.816100
C1981	C198	0.332600	0.266400	0.859100
C1991	C199	0.467800	0.338100	0.753600
C2001	C200	0.547000	0.363800	0.753200
C2011	C201	0.565500	0.401500	0.714200
C2021	C202	0.432700	0.388700	0.674400
C2031	C203	0.409900	0.350000	0.712200
C2041	C204	0.373300	0.200900	0.931300
C2051	C205	0.679400	0.437600	0.560600
C2061	C206	0.596400	0.416400	0.533200
C2071	C207	0.735000	0.391900	0.578000
C2081	C208	0.911900	0.589300	0.546700
C2091	C209	0.827100	0.577600	0.577600
C2101	C210	0.802000	0.629100	0.608700
C2111	C211	0.586500	0.397200	0.257800
C2121	C212	0.651300	0.372600	0.227900
C2131	C213	0.632300	0.331200	0.192700
C2141	C214	0.546100	0.313600	0.186600
C2151	C215	0.480200	0.338000	0.217300
C2161	C216	0.501100	0.379100	0.252000
C2171	C217	0.525900	0.270200	0.147600
C2181	C218	0.445500	0.268000	0.121100
C2191	C219	0.430800	0.226700	0.083500
C2201	C220	0.565500	0.190700	0.099500
C2211	C221	0.586600	0.230000	0.137100
C2221	C222	0.608900	0.442100	0.295700
C2231	C223	0.396200	0.764900	0.116100
C2241	C224	0.479900	0.764400	0.135800
C2251	C225	0.503300	0.731500	0.178700
C2261	C226	0.441700	0.700000	0.203100
C2271	C227	0.355100	0.700900	0.183900
C2281	C228	0.332600	0.733600	0.140900
C2291	C229	0.467800	0.661900	0.246400
C2301	C230	0.547000	0.636200	0.246800
C2311	C231	0.565500	0.598500	0.285800
C2321	C232	0.432700	0.611300	0.325600
C2331	C233	0.409900	0.650000	0.287800
C2341	C234	0.373300	0.799100	0.068700
C2351	C235	0.679400	0.562400	0.439400
C2361	C236	0.596400	0.583600	0.466800
C2371	C237	0.735000	0.608100	0.422000
C2381	C238	0.911900	0.410700	0.453300
C2391	C239	0.827100	0.422400	0.422400
C2401	C240	0.802000	0.370900	0.391300
N11	N1	0.989800	0.572800	0.689500
N21	N2	0.009300	0.824800	0.085400
N31	N3	0.989800	0.427200	0.310500
N41	N4	0.009300	0.175200	0.914600
N51	N5	0.010200	0.689500	0.427200
N61	N6	0.990700	0.085400	0.175200
N71	N7	0.010200	0.310500	0.572800
N81	N8	0.990700	0.914600	0.824800
N91	N9	0.510200	0.927200	0.189500
N101	N10	0.490700	0.675200	0.585400
N111	N11	0.510200	0.072800	0.810500
N121	N12	0.490700	0.324800	0.414600
N131	N13	0.489800	0.810500	0.927200
N141	N14	0.509300	0.414600	0.675200
N151	N15	0.489800	0.189500	0.072800
N161	N16	0.509300	0.585400	0.324800
O11	O1	0.046400	0.817850	0.966280
O21	O2	0.190500	0.801030	0.951100
O31	O3	0.792500	0.555600	0.301400
O41	O4	0.934400	0.545500	0.321600
O51	O5	0.156500	0.896090	0.029010
O61	O6	0.022900	0.948860	0.070090
O71	O7	0.103800	0.007400	0.113300
O81	O8	0.407500	0.991700	0.877400
O91	O9	0.482100	0.938330	0.932090
O101	O10	0.341400	0.887420	0.965880
O111	O11	0.046400	0.182150	0.033720
O121	O12	0.190500	0.198970	0.048900
O131	O13	0.792500	0.444400	0.698600
O141	O14	0.934400	0.454500	0.678400
O151	O15	0.156500	0.103910	0.970990
O161	O16	0.022900	0.051140	0.929910
O171	O17	0.103800	0.992600	0.886700
O181	O18	0.407500	0.008300	0.122600
O191	O19	0.482100	0.061670	0.067910
O201	O20	0.341400	0.112580	0.034120
O211	O21	0.953600	0.966280	0.182150
O221	O22	0.809500	0.951100	0.198970
O231	O23	0.207500	0.301400	0.444400
O241	O24	0.065600	0.321600	0.454500
O251	O25	0.843500	0.029010	0.103910
O261	O26	0.977100	0.070090	0.051140
O271	O27	0.896200	0.113300	0.992600
O281	O28	0.592500	0.877400	0.008300
O291	O29	0.517900	0.932090	0.061670
O301	O30	0.658600	0.965880	0.112580
O311	O31	0.953600	0.033720	0.817850
O321	O32	0.809500	0.048900	0.801030
O331	O33	0.207500	0.698600	0.555600
O341	O34	0.065600	0.678400	0.545500
O351	O35	0.843500	0.970990	0.896090
O361	O36	0.977100	0.929910	0.948860
O371	O37	0.896200	0.886700	0.007400
O381	O38	0.592500	0.122600	0.991700
O391	O39	0.517900	0.067910	0.938330
O401	O40	0.658600	0.034120	0.887420
O411	O41	0.453600	0.682150	0.466280
O421	O42	0.309500	0.698970	0.451100
O431	O43	0.707500	0.944400	0.801400
O441	O44	0.565600	0.954500	0.821600
O451	O45	0.343500	0.603910	0.529010
O461	O46	0.477100	0.551140	0.570090
O471	O47	0.396200	0.492600	0.613300
O481	O48	0.092500	0.508300	0.377400
O491	O49	0.017900	0.561670	0.432090
O501	O50	0.158600	0.612580	0.465880
O511	O51	0.453600	0.317850	0.533720
O521	O52	0.309500	0.301030	0.548900
O531	O53	0.707500	0.055600	0.198600
O541	O54	0.565600	0.045500	0.178400
O551	O55	0.343500	0.396090	0.470990
O561	O56	0.477100	0.448860	0.429910
O571	O57	0.396200	0.507400	0.386700
O581	O58	0.092500	0.491700	0.622600
O591	O59	0.017900	0.438330	0.567910
O601	O60	0.158600	0.387420	0.534120
O611	O61	0.546400	0.533720	0.682150
O621	O62	0.690500	0.548900	0.698970
O631	O63	0.292500	0.198600	0.944400
O641	O64	0.434400	0.178400	0.954500
O651	O65	0.656500	0.470990	0.603910
O661	O66	0.522900	0.429910	0.551140
O671	O67	0.603800	0.386700	0.492600
O681	O68	0.907500	0.622600	0.508300
O691	O69	0.982100	0.567910	0.561670
O701	O70	0.841400	0.534120	0.612580
O711	O71	0.546400	0.466280	0.317850
O721	O72	0.690500	0.451100	0.301030
O731	O73	0.292500	0.801400	0.055600
O741	O74	0.434400	0.821600	0.045500
O751	O75	0.656500	0.529010	0.396090
O761	O76	0.522900	0.570090	0.448860
O771	O77	0.603800	0.613300	0.507400
O781	O78	0.907500	0.377400	0.491700
O791	O79	0.982100	0.432090	0.438330
O801	O80	0.841400	0.465880	0.387420
