data_LUWMEX_clean_PM
_symmetry_space_group_name_H-M	'P1'
_cell_length_a	24.795000
_cell_length_b	13.651000
_cell_length_c	14.936000
_cell_angle_alpha	90.000000
_cell_angle_beta	97.077000
_cell_angle_gamma	90.000000
_symmetry_Int_Tables_number 1

loop_
_symmetry_equiv_pos_as_xyz
'x,y,z'

loop_
_atom_site_label
_atom_site_type_symbol
_atom_site_fract_x
_atom_site_fract_y
_atom_site_fract_z
La11	La1	0.830910	0.210180	0.530280
C11	C1	0.070000	0.721700	0.541600
C21	C2	0.019700	0.688800	0.581400
C31	C3	0.986300	0.754700	0.617400
H11	H1	0.996200	0.820200	0.623300
C41	C4	0.937200	0.723000	0.645100
H21	H2	0.914100	0.768400	0.666900
C51	C5	0.922700	0.625200	0.640500
C61	C6	0.957600	0.560700	0.607100
H31	H3	0.948300	0.494700	0.603200
C71	C7	0.006300	0.590600	0.578700
H41	H4	0.029700	0.544800	0.558100
C81	C8	0.868400	0.594600	0.665400
C91	C9	0.845800	0.640500	0.735600
H51	H5	0.866500	0.685900	0.771400
C101	C10	0.793100	0.620400	0.753700
C111	C11	0.762800	0.552000	0.701300
H61	H6	0.727200	0.539400	0.711600
C121	C12	0.784800	0.501800	0.633400
C131	C13	0.837700	0.521600	0.616400
H71	H7	0.852800	0.486400	0.572300
C141	C14	0.749900	0.428500	0.576600
C151	C15	0.771600	0.671800	0.831500
O11	O1	0.082650	0.811500	0.547000
O21	O2	0.097420	0.661300	0.503800
O31	O3	0.772970	0.357900	0.541600
O41	O4	0.700080	0.439500	0.566000
O51	O5	0.723690	0.650000	0.847800
O61	O6	0.802410	0.731500	0.875400
O71	O7	0.881500	0.062500	0.607900
H81	H8	0.855600	0.021000	0.563800
H91	H9	0.907200	0.101400	0.619600
La21	La2	0.330910	0.710180	0.530280
C161	C16	0.570000	0.221700	0.541600
C171	C17	0.519700	0.188800	0.581400
C181	C18	0.486300	0.254700	0.617400
H101	H10	0.496200	0.320200	0.623300
C191	C19	0.437200	0.223000	0.645100
H111	H11	0.414100	0.268400	0.666900
C201	C20	0.422700	0.125200	0.640500
C211	C21	0.457600	0.060700	0.607100
H121	H12	0.448300	0.994700	0.603200
C221	C22	0.506300	0.090600	0.578700
H131	H13	0.529700	0.044800	0.558100
C231	C23	0.368400	0.094600	0.665400
C241	C24	0.345800	0.140500	0.735600
H141	H14	0.366500	0.185900	0.771400
C251	C25	0.293100	0.120400	0.753700
C261	C26	0.262800	0.052000	0.701300
H151	H15	0.227200	0.039400	0.711600
C271	C27	0.284800	0.001800	0.633400
C281	C28	0.337700	0.021600	0.616400
H161	H16	0.352800	0.986400	0.572300
C291	C29	0.249900	0.928500	0.576600
C301	C30	0.271600	0.171800	0.831500
O81	O8	0.582650	0.311500	0.547000
O91	O9	0.597420	0.161300	0.503800
O101	O10	0.272970	0.857900	0.541600
O111	O11	0.200080	0.939500	0.566000
O121	O12	0.223690	0.150000	0.847800
O131	O13	0.302410	0.231500	0.875400
O141	O14	0.381500	0.562500	0.607900
H171	H17	0.355600	0.521000	0.563800
H181	H18	0.407200	0.601400	0.619600
La31	La3	0.169090	0.210180	0.969720
C311	C31	0.930000	0.721700	0.958400
C321	C32	0.980300	0.688800	0.918600
C331	C33	0.013700	0.754700	0.882600
H191	H19	0.003800	0.820200	0.876700
C341	C34	0.062800	0.723000	0.854900
H201	H20	0.085900	0.768400	0.833100
C351	C35	0.077300	0.625200	0.859500
C361	C36	0.042400	0.560700	0.892900
H211	H21	0.051700	0.494700	0.896800
C371	C37	0.993700	0.590600	0.921300
H221	H22	0.970300	0.544800	0.941900
C381	C38	0.131600	0.594600	0.834600
C391	C39	0.154200	0.640500	0.764400
H231	H23	0.133500	0.685900	0.728600
C401	C40	0.206900	0.620400	0.746300
C411	C41	0.237200	0.552000	0.798700
H241	H24	0.272800	0.539400	0.788400
C421	C42	0.215200	0.501800	0.866600
C431	C43	0.162300	0.521600	0.883600
H251	H25	0.147200	0.486400	0.927700
C441	C44	0.250100	0.428500	0.923400
C451	C45	0.228400	0.671800	0.668500
O151	O15	0.917350	0.811500	0.953000
O161	O16	0.902580	0.661300	0.996200
O171	O17	0.227030	0.357900	0.958400
O181	O18	0.299920	0.439500	0.934000
O191	O19	0.276310	0.650000	0.652200
O201	O20	0.197590	0.731500	0.624600
O211	O21	0.118500	0.062500	0.892100
H261	H26	0.144400	0.021000	0.936200
H271	H27	0.092800	0.101400	0.880400
La41	La4	0.669090	0.710180	0.969720
C461	C46	0.430000	0.221700	0.958400
C471	C47	0.480300	0.188800	0.918600
C481	C48	0.513700	0.254700	0.882600
H281	H28	0.503800	0.320200	0.876700
C491	C49	0.562800	0.223000	0.854900
H291	H29	0.585900	0.268400	0.833100
C501	C50	0.577300	0.125200	0.859500
C511	C51	0.542400	0.060700	0.892900
H301	H30	0.551700	0.994700	0.896800
C521	C52	0.493700	0.090600	0.921300
H311	H31	0.470300	0.044800	0.941900
C531	C53	0.631600	0.094600	0.834600
C541	C54	0.654200	0.140500	0.764400
H321	H32	0.633500	0.185900	0.728600
C551	C55	0.706900	0.120400	0.746300
C561	C56	0.737200	0.052000	0.798700
H331	H33	0.772800	0.039400	0.788400
C571	C57	0.715200	0.001800	0.866600
C581	C58	0.662300	0.021600	0.883600
H341	H34	0.647200	0.986400	0.927700
C591	C59	0.750100	0.928500	0.923400
C601	C60	0.728400	0.171800	0.668500
O221	O22	0.417350	0.311500	0.953000
O231	O23	0.402580	0.161300	0.996200
O241	O24	0.727030	0.857900	0.958400
O251	O25	0.799920	0.939500	0.934000
O261	O26	0.776310	0.150000	0.652200
O271	O27	0.697590	0.231500	0.624600
O281	O28	0.618500	0.562500	0.892100
H351	H35	0.644400	0.521000	0.936200
H361	H36	0.592800	0.601400	0.880400
La51	La5	0.169090	0.789820	0.469720
C611	C61	0.930000	0.278300	0.458400
C621	C62	0.980300	0.311200	0.418600
C631	C63	0.013700	0.245300	0.382600
H371	H37	0.003800	0.179800	0.376700
C641	C64	0.062800	0.277000	0.354900
H381	H38	0.085900	0.231600	0.333100
C651	C65	0.077300	0.374800	0.359500
C661	C66	0.042400	0.439300	0.392900
H391	H39	0.051700	0.505300	0.396800
C671	C67	0.993700	0.409400	0.421300
H401	H40	0.970300	0.455200	0.441900
C681	C68	0.131600	0.405400	0.334600
C691	C69	0.154200	0.359500	0.264400
H411	H41	0.133500	0.314100	0.228600
C701	C70	0.206900	0.379600	0.246300
C711	C71	0.237200	0.448000	0.298700
H421	H42	0.272800	0.460600	0.288400
C721	C72	0.215200	0.498200	0.366600
C731	C73	0.162300	0.478400	0.383600
H431	H43	0.147200	0.513600	0.427700
C741	C74	0.250100	0.571500	0.423400
C751	C75	0.228400	0.328200	0.168500
O291	O29	0.917350	0.188500	0.453000
O301	O30	0.902580	0.338700	0.496200
O311	O31	0.227030	0.642100	0.458400
O321	O32	0.299920	0.560500	0.434000
O331	O33	0.276310	0.350000	0.152200
O341	O34	0.197590	0.268500	0.124600
O351	O35	0.118500	0.937500	0.392100
H441	H44	0.144400	0.979000	0.436200
H451	H45	0.092800	0.898600	0.380400
La61	La6	0.669090	0.289820	0.469720
C761	C76	0.430000	0.778300	0.458400
C771	C77	0.480300	0.811200	0.418600
C781	C78	0.513700	0.745300	0.382600
H461	H46	0.503800	0.679800	0.376700
C791	C79	0.562800	0.777000	0.354900
H471	H47	0.585900	0.731600	0.333100
C801	C80	0.577300	0.874800	0.359500
C811	C81	0.542400	0.939300	0.392900
H481	H48	0.551700	0.005300	0.396800
C821	C82	0.493700	0.909400	0.421300
H491	H49	0.470300	0.955200	0.441900
C831	C83	0.631600	0.905400	0.334600
C841	C84	0.654200	0.859500	0.264400
H501	H50	0.633500	0.814100	0.228600
C851	C85	0.706900	0.879600	0.246300
C861	C86	0.737200	0.948000	0.298700
H511	H51	0.772800	0.960600	0.288400
C871	C87	0.715200	0.998200	0.366600
C881	C88	0.662300	0.978400	0.383600
H521	H52	0.647200	0.013600	0.427700
C891	C89	0.750100	0.071500	0.423400
C901	C90	0.728400	0.828200	0.168500
O361	O36	0.417350	0.688500	0.453000
O371	O37	0.402580	0.838700	0.496200
O381	O38	0.727030	0.142100	0.458400
O391	O39	0.799920	0.060500	0.434000
O401	O40	0.776310	0.850000	0.152200
O411	O41	0.697590	0.768500	0.124600
O421	O42	0.618500	0.437500	0.392100
H531	H53	0.644400	0.479000	0.436200
H541	H54	0.592800	0.398600	0.380400
La71	La7	0.830910	0.789820	0.030280
C911	C91	0.070000	0.278300	0.041600
C921	C92	0.019700	0.311200	0.081400
C931	C93	0.986300	0.245300	0.117400
H551	H55	0.996200	0.179800	0.123300
C941	C94	0.937200	0.277000	0.145100
H561	H56	0.914100	0.231600	0.166900
C951	C95	0.922700	0.374800	0.140500
C961	C96	0.957600	0.439300	0.107100
H571	H57	0.948300	0.505300	0.103200
C971	C97	0.006300	0.409400	0.078700
H581	H58	0.029700	0.455200	0.058100
C981	C98	0.868400	0.405400	0.165400
C991	C99	0.845800	0.359500	0.235600
H591	H59	0.866500	0.314100	0.271400
C1001	C100	0.793100	0.379600	0.253700
C1011	C101	0.762800	0.448000	0.201300
H601	H60	0.727200	0.460600	0.211600
C1021	C102	0.784800	0.498200	0.133400
C1031	C103	0.837700	0.478400	0.116400
H611	H61	0.852800	0.513600	0.072300
C1041	C104	0.749900	0.571500	0.076600
C1051	C105	0.771600	0.328200	0.331500
O431	O43	0.082650	0.188500	0.047000
O441	O44	0.097420	0.338700	0.003800
O451	O45	0.772970	0.642100	0.041600
O461	O46	0.700080	0.560500	0.066000
O471	O47	0.723690	0.350000	0.347800
O481	O48	0.802410	0.268500	0.375400
O491	O49	0.881500	0.937500	0.107900
H621	H62	0.855600	0.979000	0.063800
H631	H63	0.907200	0.898600	0.119600
La81	La8	0.330910	0.289820	0.030280
C1061	C106	0.570000	0.778300	0.041600
C1071	C107	0.519700	0.811200	0.081400
C1081	C108	0.486300	0.745300	0.117400
H641	H64	0.496200	0.679800	0.123300
C1091	C109	0.437200	0.777000	0.145100
H651	H65	0.414100	0.731600	0.166900
C1101	C110	0.422700	0.874800	0.140500
C1111	C111	0.457600	0.939300	0.107100
H661	H66	0.448300	0.005300	0.103200
C1121	C112	0.506300	0.909400	0.078700
H671	H67	0.529700	0.955200	0.058100
C1131	C113	0.368400	0.905400	0.165400
C1141	C114	0.345800	0.859500	0.235600
H681	H68	0.366500	0.814100	0.271400
C1151	C115	0.293100	0.879600	0.253700
C1161	C116	0.262800	0.948000	0.201300
H691	H69	0.227200	0.960600	0.211600
C1171	C117	0.284800	0.998200	0.133400
C1181	C118	0.337700	0.978400	0.116400
H701	H70	0.352800	0.013600	0.072300
C1191	C119	0.249900	0.071500	0.076600
C1201	C120	0.271600	0.828200	0.331500
O501	O50	0.582650	0.688500	0.047000
O511	O51	0.597420	0.838700	0.003800
O521	O52	0.272970	0.142100	0.041600
O531	O53	0.200080	0.060500	0.066000
O541	O54	0.223690	0.850000	0.347800
O551	O55	0.302410	0.768500	0.375400
O561	O56	0.381500	0.437500	0.107900
H711	H71	0.355600	0.479000	0.063800
H721	H72	0.407200	0.398600	0.119600
