data_LUWMOH_clean_PM
_symmetry_space_group_name_H-M	'P1'
_cell_length_a	24.585000
_cell_length_b	13.172600
_cell_length_c	14.829000
_cell_angle_alpha	90.000000
_cell_angle_beta	96.419000
_cell_angle_gamma	90.000000
_symmetry_Int_Tables_number 1

loop_
_symmetry_equiv_pos_as_xyz
'x,y,z'

loop_
_atom_site_label
_atom_site_type_symbol
_atom_site_fract_x
_atom_site_fract_y
_atom_site_fract_z
Sm11	Sm1	0.328280	0.792400	0.030050
C11	C1	0.573770	0.271300	0.041400
C21	C2	0.523190	0.304200	0.081200
C31	C3	0.488980	0.235300	0.116400
H11	H1	0.498900	0.167300	0.120800
C41	C4	0.439990	0.266500	0.145100
H21	H2	0.417400	0.219100	0.168800
C51	C5	0.424090	0.367500	0.139120
C61	C6	0.459470	0.436900	0.107000
H31	H3	0.450200	0.505400	0.104100
C71	C7	0.508670	0.405100	0.078900
H41	H4	0.532200	0.452800	0.058200
C81	C8	0.369360	0.399400	0.162870
C91	C9	0.347070	0.352700	0.234980
H51	H5	0.367700	0.305000	0.270200
C101	C10	0.294530	0.376300	0.255010
C111	C11	0.263140	0.445300	0.201270
H61	H6	0.227300	0.458400	0.212000
C121	C12	0.285410	0.495020	0.131250
C131	C13	0.338580	0.473400	0.113470
H71	H7	0.353700	0.508700	0.068100
C141	C14	0.251200	0.569900	0.074610
C151	C15	0.273100	0.325900	0.334920
O11	O1	0.587290	0.178320	0.044500
O21	O2	0.601480	0.335260	0.004810
O31	O3	0.274130	0.644830	0.040060
O41	O4	0.200820	0.557260	0.061790
O51	O5	0.225900	0.349450	0.352570
O61	O6	0.304060	0.263520	0.377930
Sm21	Sm2	0.828270	0.292400	0.030050
C161	C16	0.073770	0.771300	0.041400
C171	C17	0.023190	0.804200	0.081200
C181	C18	0.988980	0.735300	0.116400
H81	H8	0.998900	0.667300	0.120800
C191	C19	0.939990	0.766500	0.145100
H91	H9	0.917400	0.719100	0.168800
C201	C20	0.924090	0.867500	0.139120
C211	C21	0.959470	0.936900	0.107000
H101	H10	0.950200	0.005400	0.104100
C221	C22	0.008670	0.905100	0.078900
H111	H11	0.032200	0.952800	0.058200
C231	C23	0.869360	0.899400	0.162870
C241	C24	0.847070	0.852700	0.234980
H121	H12	0.867700	0.805000	0.270200
C251	C25	0.794530	0.876300	0.255010
C261	C26	0.763140	0.945300	0.201270
H131	H13	0.727300	0.958400	0.212000
C271	C27	0.785410	0.995020	0.131250
C281	C28	0.838580	0.973400	0.113470
H141	H14	0.853700	0.008700	0.068100
C291	C29	0.751200	0.069900	0.074610
C301	C30	0.773100	0.825900	0.334920
O71	O7	0.087290	0.678320	0.044500
O81	O8	0.101480	0.835260	0.004810
O91	O9	0.774130	0.144830	0.040060
O101	O10	0.700820	0.057260	0.061790
O111	O11	0.725900	0.849450	0.352570
O121	O12	0.804060	0.763520	0.377930
Sm31	Sm3	0.671720	0.792400	0.469950
C311	C31	0.426230	0.271300	0.458600
C321	C32	0.476810	0.304200	0.418800
C331	C33	0.511020	0.235300	0.383600
H151	H15	0.501100	0.167300	0.379200
C341	C34	0.560010	0.266500	0.354900
H161	H16	0.582600	0.219100	0.331200
C351	C35	0.575910	0.367500	0.360880
C361	C36	0.540530	0.436900	0.393000
H171	H17	0.549800	0.505400	0.395900
C371	C37	0.491330	0.405100	0.421100
H181	H18	0.467800	0.452800	0.441800
C381	C38	0.630640	0.399400	0.337130
C391	C39	0.652930	0.352700	0.265020
H191	H19	0.632300	0.305000	0.229800
C401	C40	0.705470	0.376300	0.244990
C411	C41	0.736860	0.445300	0.298730
H201	H20	0.772700	0.458400	0.288000
C421	C42	0.714590	0.495020	0.368750
C431	C43	0.661420	0.473400	0.386530
H211	H21	0.646300	0.508700	0.431900
C441	C44	0.748800	0.569900	0.425390
C451	C45	0.726900	0.325900	0.165080
O131	O13	0.412710	0.178320	0.455500
O141	O14	0.398520	0.335260	0.495190
O151	O15	0.725870	0.644830	0.459940
O161	O16	0.799180	0.557260	0.438210
O171	O17	0.774100	0.349450	0.147430
O181	O18	0.695940	0.263520	0.122070
Sm41	Sm4	0.171720	0.292400	0.469950
C461	C46	0.926230	0.771300	0.458600
C471	C47	0.976810	0.804200	0.418800
C481	C48	0.011020	0.735300	0.383600
H221	H22	0.001100	0.667300	0.379200
C491	C49	0.060010	0.766500	0.354900
H231	H23	0.082600	0.719100	0.331200
C501	C50	0.075910	0.867500	0.360880
C511	C51	0.040530	0.936900	0.393000
H241	H24	0.049800	0.005400	0.395900
C521	C52	0.991330	0.905100	0.421100
H251	H25	0.967800	0.952800	0.441800
C531	C53	0.130640	0.899400	0.337130
C541	C54	0.152930	0.852700	0.265020
H261	H26	0.132300	0.805000	0.229800
C551	C55	0.205470	0.876300	0.244990
C561	C56	0.236860	0.945300	0.298730
H271	H27	0.272700	0.958400	0.288000
C571	C57	0.214590	0.995020	0.368750
C581	C58	0.161420	0.973400	0.386530
H281	H28	0.146300	0.008700	0.431900
C591	C59	0.248800	0.069900	0.425390
C601	C60	0.226900	0.825900	0.165080
O191	O19	0.912710	0.678320	0.455500
O201	O20	0.898520	0.835260	0.495190
O211	O21	0.225870	0.144830	0.459940
O221	O22	0.299180	0.057260	0.438210
O231	O23	0.274100	0.849450	0.147430
O241	O24	0.195940	0.763520	0.122070
Sm51	Sm5	0.671720	0.207600	0.969940
C611	C61	0.426230	0.728700	0.958600
C621	C62	0.476810	0.695800	0.918800
C631	C63	0.511020	0.764700	0.883600
H291	H29	0.501100	0.832700	0.879200
C641	C64	0.560010	0.733500	0.854900
H301	H30	0.582600	0.780900	0.831200
C651	C65	0.575910	0.632500	0.860880
C661	C66	0.540530	0.563100	0.893000
H311	H31	0.549800	0.494600	0.895900
C671	C67	0.491330	0.594900	0.921100
H321	H32	0.467800	0.547200	0.941800
C681	C68	0.630640	0.600600	0.837130
C691	C69	0.652930	0.647300	0.765020
H331	H33	0.632300	0.695000	0.729800
C701	C70	0.705470	0.623700	0.744990
C711	C71	0.736860	0.554700	0.798730
H341	H34	0.772700	0.541600	0.788000
C721	C72	0.714590	0.504980	0.868750
C731	C73	0.661420	0.526600	0.886530
H351	H35	0.646300	0.491300	0.931900
C741	C74	0.748800	0.430100	0.925390
C751	C75	0.726900	0.674100	0.665080
O251	O25	0.412710	0.821680	0.955500
O261	O26	0.398520	0.664740	0.995190
O271	O27	0.725870	0.355170	0.959940
O281	O28	0.799180	0.442740	0.938210
O291	O29	0.774100	0.650550	0.647430
O301	O30	0.695940	0.736480	0.622070
Sm61	Sm6	0.171720	0.707600	0.969950
C761	C76	0.926230	0.228700	0.958600
C771	C77	0.976810	0.195800	0.918800
C781	C78	0.011020	0.264700	0.883600
H361	H36	0.001100	0.332700	0.879200
C791	C79	0.060010	0.233500	0.854900
H371	H37	0.082600	0.280900	0.831200
C801	C80	0.075910	0.132500	0.860880
C811	C81	0.040530	0.063100	0.893000
H381	H38	0.049800	0.994600	0.895900
C821	C82	0.991330	0.094900	0.921100
H391	H39	0.967800	0.047200	0.941800
C831	C83	0.130640	0.100600	0.837130
C841	C84	0.152930	0.147300	0.765020
H401	H40	0.132300	0.195000	0.729800
C851	C85	0.205470	0.123700	0.744990
C861	C86	0.236860	0.054700	0.798730
H411	H41	0.272700	0.041600	0.788000
C871	C87	0.214590	0.004980	0.868750
C881	C88	0.161420	0.026600	0.886530
H421	H42	0.146300	0.991300	0.931900
C891	C89	0.248800	0.930100	0.925390
C901	C90	0.226900	0.174100	0.665080
O311	O31	0.912710	0.321680	0.955500
O321	O32	0.898520	0.164740	0.995190
O331	O33	0.225870	0.855170	0.959940
O341	O34	0.299180	0.942740	0.938210
O351	O35	0.274100	0.150550	0.647430
O361	O36	0.195940	0.236480	0.622070
Sm71	Sm7	0.328280	0.207600	0.530050
C911	C91	0.573770	0.728700	0.541400
C921	C92	0.523190	0.695800	0.581200
C931	C93	0.488980	0.764700	0.616400
H431	H43	0.498900	0.832700	0.620800
C941	C94	0.439990	0.733500	0.645100
H441	H44	0.417400	0.780900	0.668800
C951	C95	0.424090	0.632500	0.639120
C961	C96	0.459470	0.563100	0.607000
H451	H45	0.450200	0.494600	0.604100
C971	C97	0.508670	0.594900	0.578900
H461	H46	0.532200	0.547200	0.558200
C981	C98	0.369360	0.600600	0.662870
C991	C99	0.347070	0.647300	0.734980
H471	H47	0.367700	0.695000	0.770200
C1001	C100	0.294530	0.623700	0.755010
C1011	C101	0.263140	0.554700	0.701270
H481	H48	0.227300	0.541600	0.712000
C1021	C102	0.285410	0.504980	0.631250
C1031	C103	0.338580	0.526600	0.613470
H491	H49	0.353700	0.491300	0.568100
C1041	C104	0.251200	0.430100	0.574610
C1051	C105	0.273100	0.674100	0.834920
O371	O37	0.587290	0.821680	0.544500
O381	O38	0.601480	0.664740	0.504810
O391	O39	0.274130	0.355170	0.540060
O401	O40	0.200820	0.442740	0.561790
O411	O41	0.225900	0.650550	0.852570
O421	O42	0.304060	0.736480	0.877930
Sm81	Sm8	0.828270	0.707600	0.530050
C1061	C106	0.073770	0.228700	0.541400
C1071	C107	0.023190	0.195800	0.581200
C1081	C108	0.988980	0.264700	0.616400
H501	H50	0.998900	0.332700	0.620800
C1091	C109	0.939990	0.233500	0.645100
H511	H51	0.917400	0.280900	0.668800
C1101	C110	0.924090	0.132500	0.639120
C1111	C111	0.959470	0.063100	0.607000
H521	H52	0.950200	0.994600	0.604100
C1121	C112	0.008670	0.094900	0.578900
H531	H53	0.032200	0.047200	0.558200
C1131	C113	0.869360	0.100600	0.662870
C1141	C114	0.847070	0.147300	0.734980
H541	H54	0.867700	0.195000	0.770200
C1151	C115	0.794530	0.123700	0.755010
C1161	C116	0.763140	0.054700	0.701270
H551	H55	0.727300	0.041600	0.712000
C1171	C117	0.785410	0.004980	0.631250
C1181	C118	0.838580	0.026600	0.613470
H561	H56	0.853700	0.991300	0.568100
C1191	C119	0.751200	0.930100	0.574610
C1201	C120	0.773100	0.174100	0.834920
O431	O43	0.087290	0.321680	0.544500
O441	O44	0.101480	0.164740	0.504810
O451	O45	0.774130	0.855170	0.540060
O461	O46	0.700820	0.942740	0.561790
O471	O47	0.725900	0.150550	0.852570
O481	O48	0.804060	0.236480	0.877930
