data_LUXDUE_clean_PM
_symmetry_space_group_name_H-M	'P1'
_cell_length_a	25.976000
_cell_length_b	25.976000
_cell_length_c	25.976000
_cell_angle_alpha	90.000000
_cell_angle_beta	90.000000
_cell_angle_gamma	90.000000
_symmetry_Int_Tables_number 1

loop_
_symmetry_equiv_pos_as_xyz
'x,y,z'

loop_
_atom_site_label
_atom_site_type_symbol
_atom_site_fract_x
_atom_site_fract_y
_atom_site_fract_z
O11	O1	0.348800	0.611600	0.799000
N11	N1	0.368900	0.543000	0.871700
C11	C1	0.348400	0.526600	0.826000
C21	C2	0.334400	0.567500	0.790200
O21	O2	0.307700	0.555200	0.752600
O31	O3	0.348800	0.111600	0.299000
N21	N2	0.368900	0.043000	0.371700
C31	C3	0.348400	0.026600	0.326000
C41	C4	0.334400	0.067500	0.290200
O41	O4	0.307700	0.055200	0.252600
O51	O5	0.848800	0.611600	0.299000
N31	N3	0.868900	0.543000	0.371700
C51	C5	0.848400	0.526600	0.326000
C61	C6	0.834400	0.567500	0.290200
O61	O6	0.807700	0.555200	0.252600
O71	O7	0.848800	0.111600	0.799000
N41	N4	0.868900	0.043000	0.871700
C71	C7	0.848400	0.026600	0.826000
C81	C8	0.834400	0.067500	0.790200
O81	O8	0.807700	0.055200	0.752600
O91	O9	0.651200	0.388400	0.799000
N51	N5	0.631100	0.457000	0.871700
C91	C9	0.651600	0.473400	0.826000
C101	C10	0.665600	0.432500	0.790200
O101	O10	0.692300	0.444800	0.752600
O111	O11	0.651200	0.888400	0.299000
N61	N6	0.631100	0.957000	0.371700
C111	C11	0.651600	0.973400	0.326000
C121	C12	0.665600	0.932500	0.290200
O121	O12	0.692300	0.944800	0.252600
O131	O13	0.151200	0.388400	0.299000
N71	N7	0.131100	0.457000	0.371700
C131	C13	0.151600	0.473400	0.326000
C141	C14	0.165600	0.432500	0.290200
O141	O14	0.192300	0.444800	0.252600
O151	O15	0.151200	0.888400	0.799000
N81	N8	0.131100	0.957000	0.871700
C151	C15	0.151600	0.973400	0.826000
C161	C16	0.165600	0.932500	0.790200
O161	O16	0.192300	0.944800	0.752600
O171	O17	0.651200	0.611600	0.201000
N91	N9	0.631100	0.543000	0.128300
C171	C17	0.651600	0.526600	0.174000
C181	C18	0.665600	0.567500	0.209800
O181	O18	0.692300	0.555200	0.247400
O191	O19	0.651200	0.111600	0.701000
N101	N10	0.631100	0.043000	0.628300
C191	C19	0.651600	0.026600	0.674000
C201	C20	0.665600	0.067500	0.709800
O201	O20	0.692300	0.055200	0.747400
O211	O21	0.151200	0.611600	0.701000
N111	N11	0.131100	0.543000	0.628300
C211	C21	0.151600	0.526600	0.674000
C221	C22	0.165600	0.567500	0.709800
O221	O22	0.192300	0.555200	0.747400
O231	O23	0.151200	0.111600	0.201000
N121	N12	0.131100	0.043000	0.128300
C231	C23	0.151600	0.026600	0.174000
C241	C24	0.165600	0.067500	0.209800
O241	O24	0.192300	0.055200	0.247400
O251	O25	0.348800	0.388400	0.201000
N131	N13	0.368900	0.457000	0.128300
C251	C25	0.348400	0.473400	0.174000
C261	C26	0.334400	0.432500	0.209800
O261	O26	0.307700	0.444800	0.247400
O271	O27	0.348800	0.888400	0.701000
N141	N14	0.368900	0.957000	0.628300
C271	C27	0.348400	0.973400	0.674000
C281	C28	0.334400	0.932500	0.709800
O281	O28	0.307700	0.944800	0.747400
O291	O29	0.848800	0.388400	0.701000
N151	N15	0.868900	0.457000	0.628300
C291	C29	0.848400	0.473400	0.674000
C301	C30	0.834400	0.432500	0.709800
O301	O30	0.807700	0.444800	0.747400
O311	O31	0.848800	0.888400	0.201000
N161	N16	0.868900	0.957000	0.128300
C311	C31	0.848400	0.973400	0.174000
C321	C32	0.834400	0.932500	0.209800
O321	O32	0.807700	0.944800	0.247400
O331	O33	0.799000	0.348800	0.611600
N171	N17	0.871700	0.368900	0.543000
C331	C33	0.826000	0.348400	0.526600
C341	C34	0.790200	0.334400	0.567500
O341	O34	0.752600	0.307700	0.555200
O351	O35	0.799000	0.848800	0.111600
N181	N18	0.871700	0.868900	0.043000
C351	C35	0.826000	0.848400	0.026600
C361	C36	0.790200	0.834400	0.067500
O361	O36	0.752600	0.807700	0.055200
O371	O37	0.299000	0.348800	0.111600
N191	N19	0.371700	0.368900	0.043000
C371	C37	0.326000	0.348400	0.026600
C381	C38	0.290200	0.334400	0.067500
O381	O38	0.252600	0.307700	0.055200
O391	O39	0.299000	0.848800	0.611600
N201	N20	0.371700	0.868900	0.543000
C391	C39	0.326000	0.848400	0.526600
C401	C40	0.290200	0.834400	0.567500
O401	O40	0.252600	0.807700	0.555200
O411	O41	0.799000	0.651200	0.388400
N211	N21	0.871700	0.631100	0.457000
C411	C41	0.826000	0.651600	0.473400
C421	C42	0.790200	0.665600	0.432500
O421	O42	0.752600	0.692300	0.444800
O431	O43	0.799000	0.151200	0.888400
N221	N22	0.871700	0.131100	0.957000
C431	C43	0.826000	0.151600	0.973400
C441	C44	0.790200	0.165600	0.932500
O441	O44	0.752600	0.192300	0.944800
O451	O45	0.299000	0.651200	0.888400
N231	N23	0.371700	0.631100	0.957000
C451	C45	0.326000	0.651600	0.973400
C461	C46	0.290200	0.665600	0.932500
O461	O46	0.252600	0.692300	0.944800
O471	O47	0.299000	0.151200	0.388400
N241	N24	0.371700	0.131100	0.457000
C471	C47	0.326000	0.151600	0.473400
C481	C48	0.290200	0.165600	0.432500
O481	O48	0.252600	0.192300	0.444800
O491	O49	0.201000	0.651200	0.611600
N251	N25	0.128300	0.631100	0.543000
C491	C49	0.174000	0.651600	0.526600
C501	C50	0.209800	0.665600	0.567500
O501	O50	0.247400	0.692300	0.555200
O511	O51	0.201000	0.151200	0.111600
N261	N26	0.128300	0.131100	0.043000
C511	C51	0.174000	0.151600	0.026600
C521	C52	0.209800	0.165600	0.067500
O521	O52	0.247400	0.192300	0.055200
O531	O53	0.701000	0.651200	0.111600
N271	N27	0.628300	0.631100	0.043000
C531	C53	0.674000	0.651600	0.026600
C541	C54	0.709800	0.665600	0.067500
O541	O54	0.747400	0.692300	0.055200
O551	O55	0.701000	0.151200	0.611600
N281	N28	0.628300	0.131100	0.543000
C551	C55	0.674000	0.151600	0.526600
C561	C56	0.709800	0.165600	0.567500
O561	O56	0.747400	0.192300	0.555200
O571	O57	0.201000	0.348800	0.388400
N291	N29	0.128300	0.368900	0.457000
C571	C57	0.174000	0.348400	0.473400
C581	C58	0.209800	0.334400	0.432500
O581	O58	0.247400	0.307700	0.444800
O591	O59	0.201000	0.848800	0.888400
N301	N30	0.128300	0.868900	0.957000
C591	C59	0.174000	0.848400	0.973400
C601	C60	0.209800	0.834400	0.932500
O601	O60	0.247400	0.807700	0.944800
O611	O61	0.701000	0.348800	0.888400
N311	N31	0.628300	0.368900	0.957000
C611	C61	0.674000	0.348400	0.973400
C621	C62	0.709800	0.334400	0.932500
O621	O62	0.747400	0.307700	0.944800
O631	O63	0.701000	0.848800	0.388400
N321	N32	0.628300	0.868900	0.457000
C631	C63	0.674000	0.848400	0.473400
C641	C64	0.709800	0.834400	0.432500
O641	O64	0.747400	0.807700	0.444800
O651	O65	0.611600	0.799000	0.348800
N331	N33	0.543000	0.871700	0.368900
C651	C65	0.526600	0.826000	0.348400
C661	C66	0.567500	0.790200	0.334400
O661	O66	0.555200	0.752600	0.307700
O671	O67	0.611600	0.299000	0.848800
N341	N34	0.543000	0.371700	0.868900
C671	C67	0.526600	0.326000	0.848400
C681	C68	0.567500	0.290200	0.834400
O681	O68	0.555200	0.252600	0.807700
O691	O69	0.111600	0.799000	0.848800
N351	N35	0.043000	0.871700	0.868900
C691	C69	0.026600	0.826000	0.848400
C701	C70	0.067500	0.790200	0.834400
O701	O70	0.055200	0.752600	0.807700
O711	O71	0.111600	0.299000	0.348800
N361	N36	0.043000	0.371700	0.368900
C711	C71	0.026600	0.326000	0.348400
C721	C72	0.067500	0.290200	0.334400
O721	O72	0.055200	0.252600	0.307700
O731	O73	0.388400	0.799000	0.651200
N371	N37	0.457000	0.871700	0.631100
C731	C73	0.473400	0.826000	0.651600
C741	C74	0.432500	0.790200	0.665600
O741	O74	0.444800	0.752600	0.692300
O751	O75	0.388400	0.299000	0.151200
N381	N38	0.457000	0.371700	0.131100
C751	C75	0.473400	0.326000	0.151600
C761	C76	0.432500	0.290200	0.165600
O761	O76	0.444800	0.252600	0.192300
O771	O77	0.888400	0.799000	0.151200
N391	N39	0.957000	0.871700	0.131100
C771	C77	0.973400	0.826000	0.151600
C781	C78	0.932500	0.790200	0.165600
O781	O78	0.944800	0.752600	0.192300
O791	O79	0.888400	0.299000	0.651200
N401	N40	0.957000	0.371700	0.631100
C791	C79	0.973400	0.326000	0.651600
C801	C80	0.932500	0.290200	0.665600
O801	O80	0.944800	0.252600	0.692300
O811	O81	0.611600	0.201000	0.651200
N411	N41	0.543000	0.128300	0.631100
C811	C81	0.526600	0.174000	0.651600
C821	C82	0.567500	0.209800	0.665600
O821	O82	0.555200	0.247400	0.692300
O831	O83	0.611600	0.701000	0.151200
N421	N42	0.543000	0.628300	0.131100
C831	C83	0.526600	0.674000	0.151600
C841	C84	0.567500	0.709800	0.165600
O841	O84	0.555200	0.747400	0.192300
O851	O85	0.111600	0.201000	0.151200
N431	N43	0.043000	0.128300	0.131100
C851	C85	0.026600	0.174000	0.151600
C861	C86	0.067500	0.209800	0.165600
O861	O86	0.055200	0.247400	0.192300
O871	O87	0.111600	0.701000	0.651200
N441	N44	0.043000	0.628300	0.631100
C871	C87	0.026600	0.674000	0.651600
C881	C88	0.067500	0.709800	0.665600
O881	O88	0.055200	0.747400	0.692300
O891	O89	0.388400	0.201000	0.348800
N451	N45	0.457000	0.128300	0.368900
C891	C89	0.473400	0.174000	0.348400
C901	C90	0.432500	0.209800	0.334400
O901	O90	0.444800	0.247400	0.307700
O911	O91	0.388400	0.701000	0.848800
N461	N46	0.457000	0.628300	0.868900
C911	C91	0.473400	0.674000	0.848400
C921	C92	0.432500	0.709800	0.834400
O921	O92	0.444800	0.747400	0.807700
O931	O93	0.888400	0.201000	0.848800
N471	N47	0.957000	0.128300	0.868900
C931	C93	0.973400	0.174000	0.848400
C941	C94	0.932500	0.209800	0.834400
O941	O94	0.944800	0.247400	0.807700
O951	O95	0.888400	0.701000	0.348800
N481	N48	0.957000	0.628300	0.368900
C951	C95	0.973400	0.674000	0.348400
C961	C96	0.932500	0.709800	0.334400
O961	O96	0.944800	0.747400	0.307700
O971	O97	0.651200	0.388400	0.201000
N491	N49	0.631100	0.457000	0.128300
C971	C97	0.651600	0.473400	0.174000
C981	C98	0.665600	0.432500	0.209800
O981	O98	0.692300	0.444800	0.247400
O991	O99	0.651200	0.888400	0.701000
N501	N50	0.631100	0.957000	0.628300
C991	C99	0.651600	0.973400	0.674000
C1001	C100	0.665600	0.932500	0.709800
O1001	O100	0.692300	0.944800	0.747400
O1011	O101	0.151200	0.388400	0.701000
N511	N51	0.131100	0.457000	0.628300
C1011	C101	0.151600	0.473400	0.674000
C1021	C102	0.165600	0.432500	0.709800
O1021	O102	0.192300	0.444800	0.747400
O1031	O103	0.151200	0.888400	0.201000
N521	N52	0.131100	0.957000	0.128300
C1031	C103	0.151600	0.973400	0.174000
C1041	C104	0.165600	0.932500	0.209800
O1041	O104	0.192300	0.944800	0.247400
O1051	O105	0.348800	0.611600	0.201000
N531	N53	0.368900	0.543000	0.128300
C1051	C105	0.348400	0.526600	0.174000
C1061	C106	0.334400	0.567500	0.209800
O1061	O106	0.307700	0.555200	0.247400
O1071	O107	0.348800	0.111600	0.701000
N541	N54	0.368900	0.043000	0.628300
C1071	C107	0.348400	0.026600	0.674000
C1081	C108	0.334400	0.067500	0.709800
O1081	O108	0.307700	0.055200	0.747400
O1091	O109	0.848800	0.611600	0.701000
N551	N55	0.868900	0.543000	0.628300
C1091	C109	0.848400	0.526600	0.674000
C1101	C110	0.834400	0.567500	0.709800
O1101	O110	0.807700	0.555200	0.747400
O1111	O111	0.848800	0.111600	0.201000
N561	N56	0.868900	0.043000	0.128300
C1111	C111	0.848400	0.026600	0.174000
C1121	C112	0.834400	0.067500	0.209800
O1121	O112	0.807700	0.055200	0.247400
O1131	O113	0.348800	0.388400	0.799000
N571	N57	0.368900	0.457000	0.871700
C1131	C113	0.348400	0.473400	0.826000
C1141	C114	0.334400	0.432500	0.790200
O1141	O114	0.307700	0.444800	0.752600
O1151	O115	0.348800	0.888400	0.299000
N581	N58	0.368900	0.957000	0.371700
C1151	C115	0.348400	0.973400	0.326000
C1161	C116	0.334400	0.932500	0.290200
O1161	O116	0.307700	0.944800	0.252600
O1171	O117	0.848800	0.388400	0.299000
N591	N59	0.868900	0.457000	0.371700
C1171	C117	0.848400	0.473400	0.326000
C1181	C118	0.834400	0.432500	0.290200
O1181	O118	0.807700	0.444800	0.252600
O1191	O119	0.848800	0.888400	0.799000
N601	N60	0.868900	0.957000	0.871700
C1191	C119	0.848400	0.973400	0.826000
C1201	C120	0.834400	0.932500	0.790200
O1201	O120	0.807700	0.944800	0.752600
O1211	O121	0.651200	0.611600	0.799000
N611	N61	0.631100	0.543000	0.871700
C1211	C121	0.651600	0.526600	0.826000
C1221	C122	0.665600	0.567500	0.790200
O1221	O122	0.692300	0.555200	0.752600
O1231	O123	0.651200	0.111600	0.299000
N621	N62	0.631100	0.043000	0.371700
C1231	C123	0.651600	0.026600	0.326000
C1241	C124	0.665600	0.067500	0.290200
O1241	O124	0.692300	0.055200	0.252600
O1251	O125	0.151200	0.611600	0.299000
N631	N63	0.131100	0.543000	0.371700
C1251	C125	0.151600	0.526600	0.326000
C1261	C126	0.165600	0.567500	0.290200
O1261	O126	0.192300	0.555200	0.252600
O1271	O127	0.151200	0.111600	0.799000
N641	N64	0.131100	0.043000	0.871700
C1271	C127	0.151600	0.026600	0.826000
C1281	C128	0.165600	0.067500	0.790200
O1281	O128	0.192300	0.055200	0.752600
O1291	O129	0.201000	0.651200	0.388400
N651	N65	0.128300	0.631100	0.457000
C1291	C129	0.174000	0.651600	0.473400
C1301	C130	0.209800	0.665600	0.432500
O1301	O130	0.247400	0.692300	0.444800
O1311	O131	0.201000	0.151200	0.888400
N661	N66	0.128300	0.131100	0.957000
C1311	C131	0.174000	0.151600	0.973400
C1321	C132	0.209800	0.165600	0.932500
O1321	O132	0.247400	0.192300	0.944800
O1331	O133	0.701000	0.651200	0.888400
N671	N67	0.628300	0.631100	0.957000
C1331	C133	0.674000	0.651600	0.973400
C1341	C134	0.709800	0.665600	0.932500
O1341	O134	0.747400	0.692300	0.944800
O1351	O135	0.701000	0.151200	0.388400
N681	N68	0.628300	0.131100	0.457000
C1351	C135	0.674000	0.151600	0.473400
C1361	C136	0.709800	0.165600	0.432500
O1361	O136	0.747400	0.192300	0.444800
O1371	O137	0.201000	0.348800	0.611600
N691	N69	0.128300	0.368900	0.543000
C1371	C137	0.174000	0.348400	0.526600
C1381	C138	0.209800	0.334400	0.567500
O1381	O138	0.247400	0.307700	0.555200
O1391	O139	0.201000	0.848800	0.111600
N701	N70	0.128300	0.868900	0.043000
C1391	C139	0.174000	0.848400	0.026600
C1401	C140	0.209800	0.834400	0.067500
O1401	O140	0.247400	0.807700	0.055200
O1411	O141	0.701000	0.348800	0.111600
N711	N71	0.628300	0.368900	0.043000
C1411	C141	0.674000	0.348400	0.026600
C1421	C142	0.709800	0.334400	0.067500
O1421	O142	0.747400	0.307700	0.055200
O1431	O143	0.701000	0.848800	0.611600
N721	N72	0.628300	0.868900	0.543000
C1431	C143	0.674000	0.848400	0.526600
C1441	C144	0.709800	0.834400	0.567500
O1441	O144	0.747400	0.807700	0.555200
O1451	O145	0.799000	0.348800	0.388400
N731	N73	0.871700	0.368900	0.457000
C1451	C145	0.826000	0.348400	0.473400
C1461	C146	0.790200	0.334400	0.432500
O1461	O146	0.752600	0.307700	0.444800
O1471	O147	0.799000	0.848800	0.888400
N741	N74	0.871700	0.868900	0.957000
C1471	C147	0.826000	0.848400	0.973400
C1481	C148	0.790200	0.834400	0.932500
O1481	O148	0.752600	0.807700	0.944800
O1491	O149	0.299000	0.348800	0.888400
N751	N75	0.371700	0.368900	0.957000
C1491	C149	0.326000	0.348400	0.973400
C1501	C150	0.290200	0.334400	0.932500
O1501	O150	0.252600	0.307700	0.944800
O1511	O151	0.299000	0.848800	0.388400
N761	N76	0.371700	0.868900	0.457000
C1511	C151	0.326000	0.848400	0.473400
C1521	C152	0.290200	0.834400	0.432500
O1521	O152	0.252600	0.807700	0.444800
O1531	O153	0.799000	0.651200	0.611600
N771	N77	0.871700	0.631100	0.543000
C1531	C153	0.826000	0.651600	0.526600
C1541	C154	0.790200	0.665600	0.567500
O1541	O154	0.752600	0.692300	0.555200
O1551	O155	0.799000	0.151200	0.111600
N781	N78	0.871700	0.131100	0.043000
C1551	C155	0.826000	0.151600	0.026600
C1561	C156	0.790200	0.165600	0.067500
O1561	O156	0.752600	0.192300	0.055200
O1571	O157	0.299000	0.651200	0.111600
N791	N79	0.371700	0.631100	0.043000
C1571	C157	0.326000	0.651600	0.026600
C1581	C158	0.290200	0.665600	0.067500
O1581	O158	0.252600	0.692300	0.055200
O1591	O159	0.299000	0.151200	0.611600
N801	N80	0.371700	0.131100	0.543000
C1591	C159	0.326000	0.151600	0.526600
C1601	C160	0.290200	0.165600	0.567500
O1601	O160	0.252600	0.192300	0.555200
O1611	O161	0.388400	0.201000	0.651200
N811	N81	0.457000	0.128300	0.631100
C1611	C161	0.473400	0.174000	0.651600
C1621	C162	0.432500	0.209800	0.665600
O1621	O162	0.444800	0.247400	0.692300
O1631	O163	0.388400	0.701000	0.151200
N821	N82	0.457000	0.628300	0.131100
C1631	C163	0.473400	0.674000	0.151600
C1641	C164	0.432500	0.709800	0.165600
O1641	O164	0.444800	0.747400	0.192300
O1651	O165	0.888400	0.201000	0.151200
N831	N83	0.957000	0.128300	0.131100
C1651	C165	0.973400	0.174000	0.151600
C1661	C166	0.932500	0.209800	0.165600
O1661	O166	0.944800	0.247400	0.192300
O1671	O167	0.888400	0.701000	0.651200
N841	N84	0.957000	0.628300	0.631100
C1671	C167	0.973400	0.674000	0.651600
C1681	C168	0.932500	0.709800	0.665600
O1681	O168	0.944800	0.747400	0.692300
O1691	O169	0.611600	0.201000	0.348800
N851	N85	0.543000	0.128300	0.368900
C1691	C169	0.526600	0.174000	0.348400
C1701	C170	0.567500	0.209800	0.334400
O1701	O170	0.555200	0.247400	0.307700
O1711	O171	0.611600	0.701000	0.848800
N861	N86	0.543000	0.628300	0.868900
C1711	C171	0.526600	0.674000	0.848400
C1721	C172	0.567500	0.709800	0.834400
O1721	O172	0.555200	0.747400	0.807700
O1731	O173	0.111600	0.201000	0.848800
N871	N87	0.043000	0.128300	0.868900
C1731	C173	0.026600	0.174000	0.848400
C1741	C174	0.067500	0.209800	0.834400
O1741	O174	0.055200	0.247400	0.807700
O1751	O175	0.111600	0.701000	0.348800
N881	N88	0.043000	0.628300	0.368900
C1751	C175	0.026600	0.674000	0.348400
C1761	C176	0.067500	0.709800	0.334400
O1761	O176	0.055200	0.747400	0.307700
O1771	O177	0.388400	0.799000	0.348800
N891	N89	0.457000	0.871700	0.368900
C1771	C177	0.473400	0.826000	0.348400
C1781	C178	0.432500	0.790200	0.334400
O1781	O178	0.444800	0.752600	0.307700
O1791	O179	0.388400	0.299000	0.848800
N901	N90	0.457000	0.371700	0.868900
C1791	C179	0.473400	0.326000	0.848400
C1801	C180	0.432500	0.290200	0.834400
O1801	O180	0.444800	0.252600	0.807700
O1811	O181	0.888400	0.799000	0.848800
N911	N91	0.957000	0.871700	0.868900
C1811	C181	0.973400	0.826000	0.848400
C1821	C182	0.932500	0.790200	0.834400
O1821	O182	0.944800	0.752600	0.807700
O1831	O183	0.888400	0.299000	0.348800
N921	N92	0.957000	0.371700	0.368900
C1831	C183	0.973400	0.326000	0.348400
C1841	C184	0.932500	0.290200	0.334400
O1841	O184	0.944800	0.252600	0.307700
O1851	O185	0.611600	0.799000	0.651200
N931	N93	0.543000	0.871700	0.631100
C1851	C185	0.526600	0.826000	0.651600
C1861	C186	0.567500	0.790200	0.665600
O1861	O186	0.555200	0.752600	0.692300
O1871	O187	0.611600	0.299000	0.151200
N941	N94	0.543000	0.371700	0.131100
C1871	C187	0.526600	0.326000	0.151600
C1881	C188	0.567500	0.290200	0.165600
O1881	O188	0.555200	0.252600	0.192300
O1891	O189	0.111600	0.799000	0.151200
N951	N95	0.043000	0.871700	0.131100
C1891	C189	0.026600	0.826000	0.151600
C1901	C190	0.067500	0.790200	0.165600
O1901	O190	0.055200	0.752600	0.192300
O1911	O191	0.111600	0.299000	0.651200
N961	N96	0.043000	0.371700	0.631100
C1911	C191	0.026600	0.326000	0.651600
C1921	C192	0.067500	0.290200	0.665600
O1921	O192	0.055200	0.252600	0.692300
Zn11	Zn1	0.378850	0.621150	0.878850
Zn21	Zn2	0.621150	0.378850	0.878850
Zn31	Zn3	0.621150	0.621150	0.121150
Zn41	Zn4	0.378850	0.378850	0.121150
Zn51	Zn5	0.878850	0.378850	0.621150
Zn61	Zn6	0.878850	0.878850	0.121150
Zn71	Zn7	0.878850	0.621150	0.378850
Zn81	Zn8	0.878850	0.121150	0.878850
Zn91	Zn9	0.121150	0.621150	0.621150
Zn101	Zn10	0.121150	0.121150	0.121150
Zn111	Zn11	0.121150	0.378850	0.378850
Zn121	Zn12	0.121150	0.878850	0.878850
Zn131	Zn13	0.621150	0.878850	0.378850
Zn141	Zn14	0.378850	0.878850	0.621150
Zn151	Zn15	0.621150	0.121150	0.621150
Zn161	Zn16	0.378850	0.121150	0.378850
Zn171	Zn17	0.621150	0.378850	0.121150
Zn181	Zn18	0.378850	0.621150	0.121150
Zn191	Zn19	0.378850	0.378850	0.878850
Zn201	Zn20	0.621150	0.621150	0.878850
Zn211	Zn21	0.121150	0.621150	0.378850
Zn221	Zn22	0.121150	0.121150	0.878850
Zn231	Zn23	0.121150	0.378850	0.621150
Zn241	Zn24	0.121150	0.878850	0.121150
Zn251	Zn25	0.878850	0.378850	0.378850
Zn261	Zn26	0.878850	0.878850	0.878850
Zn271	Zn27	0.878850	0.621150	0.621150
Zn281	Zn28	0.878850	0.121150	0.121150
Zn291	Zn29	0.378850	0.121150	0.621150
Zn301	Zn30	0.621150	0.121150	0.378850
Zn311	Zn31	0.378850	0.878850	0.378850
Zn321	Zn32	0.621150	0.878850	0.621150
Zn331	Zn33	0.250000	0.500000	0.750000
Zn341	Zn34	0.250000	0.000000	0.250000
Zn351	Zn35	0.750000	0.500000	0.750000
Zn361	Zn36	0.750000	0.000000	0.250000
Zn371	Zn37	0.750000	0.500000	0.250000
Zn381	Zn38	0.750000	0.000000	0.750000
Zn391	Zn39	0.250000	0.500000	0.250000
Zn401	Zn40	0.250000	0.000000	0.750000
Zn411	Zn41	0.750000	0.250000	0.500000
Zn421	Zn42	0.750000	0.750000	0.000000
Zn431	Zn43	0.750000	0.750000	0.500000
Zn441	Zn44	0.750000	0.250000	0.000000
Zn451	Zn45	0.250000	0.750000	0.500000
Zn461	Zn46	0.250000	0.250000	0.000000
Zn471	Zn47	0.250000	0.250000	0.500000
Zn481	Zn48	0.250000	0.750000	0.000000
Zn491	Zn49	0.500000	0.750000	0.250000
Zn501	Zn50	0.000000	0.750000	0.750000
Zn511	Zn51	0.500000	0.750000	0.750000
Zn521	Zn52	0.000000	0.750000	0.250000
Zn531	Zn53	0.500000	0.250000	0.750000
Zn541	Zn54	0.000000	0.250000	0.250000
Zn551	Zn55	0.500000	0.250000	0.250000
Zn561	Zn56	0.000000	0.250000	0.750000
C1931	C193	0.379000	0.500000	0.897700
H11	H1	0.392200	0.500000	0.931900
C1941	C194	0.379000	0.000000	0.397700
H21	H2	0.392200	0.000000	0.431900
C1951	C195	0.879000	0.500000	0.397700
H31	H3	0.892200	0.500000	0.431900
C1961	C196	0.879000	0.000000	0.897700
H41	H4	0.892200	0.000000	0.931900
C1971	C197	0.621000	0.500000	0.897700
H51	H5	0.607800	0.500000	0.931900
C1981	C198	0.621000	0.000000	0.397700
H61	H6	0.607800	0.000000	0.431900
C1991	C199	0.121000	0.500000	0.397700
H71	H7	0.107800	0.500000	0.431900
C2001	C200	0.121000	0.000000	0.897700
H81	H8	0.107800	0.000000	0.931900
C2011	C201	0.621000	0.500000	0.102300
H91	H9	0.607800	0.500000	0.068100
C2021	C202	0.621000	0.000000	0.602300
H101	H10	0.607800	0.000000	0.568100
C2031	C203	0.121000	0.500000	0.602300
H111	H11	0.107800	0.500000	0.568100
C2041	C204	0.121000	0.000000	0.102300
H121	H12	0.107800	0.000000	0.068100
C2051	C205	0.379000	0.500000	0.102300
H131	H13	0.392200	0.500000	0.068100
C2061	C206	0.379000	0.000000	0.602300
H141	H14	0.392200	0.000000	0.568100
C2071	C207	0.879000	0.500000	0.602300
H151	H15	0.892200	0.500000	0.568100
C2081	C208	0.879000	0.000000	0.102300
H161	H16	0.892200	0.000000	0.068100
C2091	C209	0.897700	0.379000	0.500000
H171	H17	0.931900	0.392200	0.500000
C2101	C210	0.897700	0.879000	0.000000
H181	H18	0.931900	0.892200	0.000000
C2111	C211	0.397700	0.379000	0.000000
H191	H19	0.431900	0.392200	0.000000
C2121	C212	0.397700	0.879000	0.500000
H201	H20	0.431900	0.892200	0.500000
C2131	C213	0.897700	0.621000	0.500000
H211	H21	0.931900	0.607800	0.500000
C2141	C214	0.897700	0.121000	0.000000
H221	H22	0.931900	0.107800	0.000000
C2151	C215	0.397700	0.621000	0.000000
H231	H23	0.431900	0.607800	0.000000
C2161	C216	0.397700	0.121000	0.500000
H241	H24	0.431900	0.107800	0.500000
C2171	C217	0.102300	0.621000	0.500000
H251	H25	0.068100	0.607800	0.500000
C2181	C218	0.102300	0.121000	0.000000
H261	H26	0.068100	0.107800	0.000000
C2191	C219	0.602300	0.621000	0.000000
H271	H27	0.568100	0.607800	0.000000
C2201	C220	0.602300	0.121000	0.500000
H281	H28	0.568100	0.107800	0.500000
C2211	C221	0.102300	0.379000	0.500000
H291	H29	0.068100	0.392200	0.500000
C2221	C222	0.102300	0.879000	0.000000
H301	H30	0.068100	0.892200	0.000000
C2231	C223	0.602300	0.379000	0.000000
H311	H31	0.568100	0.392200	0.000000
C2241	C224	0.602300	0.879000	0.500000
H321	H32	0.568100	0.892200	0.500000
C2251	C225	0.500000	0.897700	0.379000
H331	H33	0.500000	0.931900	0.392200
C2261	C226	0.500000	0.397700	0.879000
H341	H34	0.500000	0.431900	0.892200
C2271	C227	0.000000	0.897700	0.879000
H351	H35	0.000000	0.931900	0.892200
C2281	C228	0.000000	0.397700	0.379000
H361	H36	0.000000	0.431900	0.392200
C2291	C229	0.500000	0.897700	0.621000
H371	H37	0.500000	0.931900	0.607800
C2301	C230	0.500000	0.397700	0.121000
H381	H38	0.500000	0.431900	0.107800
C2311	C231	0.000000	0.897700	0.121000
H391	H39	0.000000	0.931900	0.107800
C2321	C232	0.000000	0.397700	0.621000
H401	H40	0.000000	0.431900	0.607800
C2331	C233	0.500000	0.102300	0.621000
H411	H41	0.500000	0.068100	0.607800
C2341	C234	0.500000	0.602300	0.121000
H421	H42	0.500000	0.568100	0.107800
C2351	C235	0.000000	0.102300	0.121000
H431	H43	0.000000	0.068100	0.107800
C2361	C236	0.000000	0.602300	0.621000
H441	H44	0.000000	0.568100	0.607800
C2371	C237	0.500000	0.102300	0.379000
H451	H45	0.500000	0.068100	0.392200
C2381	C238	0.500000	0.602300	0.879000
H461	H46	0.500000	0.568100	0.892200
C2391	C239	0.000000	0.102300	0.879000
H471	H47	0.000000	0.068100	0.892200
C2401	C240	0.000000	0.602300	0.379000
H481	H48	0.000000	0.568100	0.392200
