data_LUXFUG_clean_PM
_symmetry_space_group_name_H-M	'P1'
_cell_length_a	25.928000
_cell_length_b	25.928000
_cell_length_c	25.928000
_cell_angle_alpha	90.000000
_cell_angle_beta	90.000000
_cell_angle_gamma	90.000000
_symmetry_Int_Tables_number 1

loop_
_symmetry_equiv_pos_as_xyz
'x,y,z'

loop_
_atom_site_label
_atom_site_type_symbol
_atom_site_fract_x
_atom_site_fract_y
_atom_site_fract_z
C11	C1	0.027200	0.151500	0.329200
C21	C2	0.066400	0.164900	0.291300
O11	O1	0.111150	0.148890	0.299570
O21	O2	0.055640	0.193200	0.253100
N11	N1	0.043600	0.131500	0.375040
C31	C3	0.027200	0.651500	0.829200
C41	C4	0.066400	0.664900	0.791300
O31	O3	0.111150	0.648890	0.799570
O41	O4	0.055640	0.693200	0.753100
N21	N2	0.043600	0.631500	0.875040
C51	C5	0.527200	0.151500	0.829200
C61	C6	0.566400	0.164900	0.791300
O51	O5	0.611150	0.148890	0.799570
O61	O6	0.555640	0.193200	0.753100
N31	N3	0.543600	0.131500	0.875040
C71	C7	0.527200	0.651500	0.329200
C81	C8	0.566400	0.664900	0.291300
O71	O7	0.611150	0.648890	0.299570
O81	O8	0.555640	0.693200	0.253100
N41	N4	0.543600	0.631500	0.375040
C91	C9	0.972800	0.848500	0.329200
C101	C10	0.933600	0.835100	0.291300
O91	O9	0.888850	0.851110	0.299570
O101	O10	0.944360	0.806800	0.253100
N51	N5	0.956400	0.868500	0.375040
C111	C11	0.972800	0.348500	0.829200
C121	C12	0.933600	0.335100	0.791300
O111	O11	0.888850	0.351110	0.799570
O121	O12	0.944360	0.306800	0.753100
N61	N6	0.956400	0.368500	0.875040
C131	C13	0.472800	0.848500	0.829200
C141	C14	0.433600	0.835100	0.791300
O131	O13	0.388850	0.851110	0.799570
O141	O14	0.444360	0.806800	0.753100
N71	N7	0.456400	0.868500	0.875040
C151	C15	0.472800	0.348500	0.329200
C161	C16	0.433600	0.335100	0.291300
O151	O15	0.388850	0.351110	0.299570
O161	O16	0.444360	0.306800	0.253100
N81	N8	0.456400	0.368500	0.375040
C171	C17	0.972800	0.151500	0.670800
C181	C18	0.933600	0.164900	0.708700
O171	O17	0.888850	0.148890	0.700430
O181	O18	0.944360	0.193200	0.746900
N91	N9	0.956400	0.131500	0.624960
C191	C19	0.972800	0.651500	0.170800
C201	C20	0.933600	0.664900	0.208700
O191	O19	0.888850	0.648890	0.200430
O201	O20	0.944360	0.693200	0.246900
N101	N10	0.956400	0.631500	0.124960
C211	C21	0.472800	0.151500	0.170800
C221	C22	0.433600	0.164900	0.208700
O211	O21	0.388850	0.148890	0.200430
O221	O22	0.444360	0.193200	0.246900
N111	N11	0.456400	0.131500	0.124960
C231	C23	0.472800	0.651500	0.670800
C241	C24	0.433600	0.664900	0.708700
O231	O23	0.388850	0.648890	0.700430
O241	O24	0.444360	0.693200	0.746900
N121	N12	0.456400	0.631500	0.624960
C251	C25	0.027200	0.848500	0.670800
C261	C26	0.066400	0.835100	0.708700
O251	O25	0.111150	0.851110	0.700430
O261	O26	0.055640	0.806800	0.746900
N131	N13	0.043600	0.868500	0.624960
C271	C27	0.027200	0.348500	0.170800
C281	C28	0.066400	0.335100	0.208700
O271	O27	0.111150	0.351110	0.200430
O281	O28	0.055640	0.306800	0.246900
N141	N14	0.043600	0.368500	0.124960
C291	C29	0.527200	0.848500	0.170800
C301	C30	0.566400	0.835100	0.208700
O291	O29	0.611150	0.851110	0.200430
O301	O30	0.555640	0.806800	0.246900
N151	N15	0.543600	0.868500	0.124960
C311	C31	0.527200	0.348500	0.670800
C321	C32	0.566400	0.335100	0.708700
O311	O31	0.611150	0.351110	0.700430
O321	O32	0.555640	0.306800	0.746900
N161	N16	0.543600	0.368500	0.624960
C331	C33	0.329200	0.027200	0.151500
C341	C34	0.291300	0.066400	0.164900
O331	O33	0.299570	0.111150	0.148890
O341	O34	0.253100	0.055640	0.193200
N171	N17	0.375040	0.043600	0.131500
C351	C35	0.329200	0.527200	0.651500
C361	C36	0.291300	0.566400	0.664900
O351	O35	0.299570	0.611150	0.648890
O361	O36	0.253100	0.555640	0.693200
N181	N18	0.375040	0.543600	0.631500
C371	C37	0.829200	0.027200	0.651500
C381	C38	0.791300	0.066400	0.664900
O371	O37	0.799570	0.111150	0.648890
O381	O38	0.753100	0.055640	0.693200
N191	N19	0.875040	0.043600	0.631500
C391	C39	0.829200	0.527200	0.151500
C401	C40	0.791300	0.566400	0.164900
O391	O39	0.799570	0.611150	0.148890
O401	O40	0.753100	0.555640	0.193200
N201	N20	0.875040	0.543600	0.131500
C411	C41	0.329200	0.972800	0.848500
C421	C42	0.291300	0.933600	0.835100
O411	O41	0.299570	0.888850	0.851110
O421	O42	0.253100	0.944360	0.806800
N211	N21	0.375040	0.956400	0.868500
C431	C43	0.329200	0.472800	0.348500
C441	C44	0.291300	0.433600	0.335100
O431	O43	0.299570	0.388850	0.351110
O441	O44	0.253100	0.444360	0.306800
N221	N22	0.375040	0.456400	0.368500
C451	C45	0.829200	0.972800	0.348500
C461	C46	0.791300	0.933600	0.335100
O451	O45	0.799570	0.888850	0.351110
O461	O46	0.753100	0.944360	0.306800
N231	N23	0.875040	0.956400	0.368500
C471	C47	0.829200	0.472800	0.848500
C481	C48	0.791300	0.433600	0.835100
O471	O47	0.799570	0.388850	0.851110
O481	O48	0.753100	0.444360	0.806800
N241	N24	0.875040	0.456400	0.868500
C491	C49	0.670800	0.972800	0.151500
C501	C50	0.708700	0.933600	0.164900
O491	O49	0.700430	0.888850	0.148890
O501	O50	0.746900	0.944360	0.193200
N251	N25	0.624960	0.956400	0.131500
C511	C51	0.670800	0.472800	0.651500
C521	C52	0.708700	0.433600	0.664900
O511	O51	0.700430	0.388850	0.648890
O521	O52	0.746900	0.444360	0.693200
N261	N26	0.624960	0.456400	0.631500
C531	C53	0.170800	0.972800	0.651500
C541	C54	0.208700	0.933600	0.664900
O531	O53	0.200430	0.888850	0.648890
O541	O54	0.246900	0.944360	0.693200
N271	N27	0.124960	0.956400	0.631500
C551	C55	0.170800	0.472800	0.151500
C561	C56	0.208700	0.433600	0.164900
O551	O55	0.200430	0.388850	0.148890
O561	O56	0.246900	0.444360	0.193200
N281	N28	0.124960	0.456400	0.131500
C571	C57	0.670800	0.027200	0.848500
C581	C58	0.708700	0.066400	0.835100
O571	O57	0.700430	0.111150	0.851110
O581	O58	0.746900	0.055640	0.806800
N291	N29	0.624960	0.043600	0.868500
C591	C59	0.670800	0.527200	0.348500
C601	C60	0.708700	0.566400	0.335100
O591	O59	0.700430	0.611150	0.351110
O601	O60	0.746900	0.555640	0.306800
N301	N30	0.624960	0.543600	0.368500
C611	C61	0.170800	0.027200	0.348500
C621	C62	0.208700	0.066400	0.335100
O611	O61	0.200430	0.111150	0.351110
O621	O62	0.246900	0.055640	0.306800
N311	N31	0.124960	0.043600	0.368500
C631	C63	0.170800	0.527200	0.848500
C641	C64	0.208700	0.566400	0.835100
O631	O63	0.200430	0.611150	0.851110
O641	O64	0.246900	0.555640	0.806800
N321	N32	0.124960	0.543600	0.868500
C651	C65	0.151500	0.329200	0.027200
C661	C66	0.164900	0.291300	0.066400
O651	O65	0.148890	0.299570	0.111150
O661	O66	0.193200	0.253100	0.055640
N331	N33	0.131500	0.375040	0.043600
C671	C67	0.151500	0.829200	0.527200
C681	C68	0.164900	0.791300	0.566400
O671	O67	0.148890	0.799570	0.611150
O681	O68	0.193200	0.753100	0.555640
N341	N34	0.131500	0.875040	0.543600
C691	C69	0.651500	0.329200	0.527200
C701	C70	0.664900	0.291300	0.566400
O691	O69	0.648890	0.299570	0.611150
O701	O70	0.693200	0.253100	0.555640
N351	N35	0.631500	0.375040	0.543600
C711	C71	0.651500	0.829200	0.027200
C721	C72	0.664900	0.791300	0.066400
O711	O71	0.648890	0.799570	0.111150
O721	O72	0.693200	0.753100	0.055640
N361	N36	0.631500	0.875040	0.043600
C731	C73	0.848500	0.329200	0.972800
C741	C74	0.835100	0.291300	0.933600
O731	O73	0.851110	0.299570	0.888850
O741	O74	0.806800	0.253100	0.944360
N371	N37	0.868500	0.375040	0.956400
C751	C75	0.848500	0.829200	0.472800
C761	C76	0.835100	0.791300	0.433600
O751	O75	0.851110	0.799570	0.388850
O761	O76	0.806800	0.753100	0.444360
N381	N38	0.868500	0.875040	0.456400
C771	C77	0.348500	0.329200	0.472800
C781	C78	0.335100	0.291300	0.433600
O771	O77	0.351110	0.299570	0.388850
O781	O78	0.306800	0.253100	0.444360
N391	N39	0.368500	0.375040	0.456400
C791	C79	0.348500	0.829200	0.972800
C801	C80	0.335100	0.791300	0.933600
O791	O79	0.351110	0.799570	0.888850
O801	O80	0.306800	0.753100	0.944360
N401	N40	0.368500	0.875040	0.956400
C811	C81	0.151500	0.670800	0.972800
C821	C82	0.164900	0.708700	0.933600
O811	O81	0.148890	0.700430	0.888850
O821	O82	0.193200	0.746900	0.944360
N411	N41	0.131500	0.624960	0.956400
C831	C83	0.151500	0.170800	0.472800
C841	C84	0.164900	0.208700	0.433600
O831	O83	0.148890	0.200430	0.388850
O841	O84	0.193200	0.246900	0.444360
N421	N42	0.131500	0.124960	0.456400
C851	C85	0.651500	0.670800	0.472800
C861	C86	0.664900	0.708700	0.433600
O851	O85	0.648890	0.700430	0.388850
O861	O86	0.693200	0.746900	0.444360
N431	N43	0.631500	0.624960	0.456400
C871	C87	0.651500	0.170800	0.972800
C881	C88	0.664900	0.208700	0.933600
O871	O87	0.648890	0.200430	0.888850
O881	O88	0.693200	0.246900	0.944360
N441	N44	0.631500	0.124960	0.956400
C891	C89	0.848500	0.670800	0.027200
C901	C90	0.835100	0.708700	0.066400
O891	O89	0.851110	0.700430	0.111150
O901	O90	0.806800	0.746900	0.055640
N451	N45	0.868500	0.624960	0.043600
C911	C91	0.848500	0.170800	0.527200
C921	C92	0.835100	0.208700	0.566400
O911	O91	0.851110	0.200430	0.611150
O921	O92	0.806800	0.246900	0.555640
N461	N46	0.868500	0.124960	0.543600
C931	C93	0.348500	0.670800	0.527200
C941	C94	0.335100	0.708700	0.566400
O931	O93	0.351110	0.700430	0.611150
O941	O94	0.306800	0.746900	0.555640
N471	N47	0.368500	0.624960	0.543600
C951	C95	0.348500	0.170800	0.027200
C961	C96	0.335100	0.208700	0.066400
O951	O95	0.351110	0.200430	0.111150
O961	O96	0.306800	0.246900	0.055640
N481	N48	0.368500	0.124960	0.043600
C971	C97	0.972800	0.848500	0.670800
C981	C98	0.933600	0.835100	0.708700
O971	O97	0.888850	0.851110	0.700430
O981	O98	0.944360	0.806800	0.746900
N491	N49	0.956400	0.868500	0.624960
C991	C99	0.972800	0.348500	0.170800
C1001	C100	0.933600	0.335100	0.208700
O991	O99	0.888850	0.351110	0.200430
O1001	O100	0.944360	0.306800	0.246900
N501	N50	0.956400	0.368500	0.124960
C1011	C101	0.472800	0.848500	0.170800
C1021	C102	0.433600	0.835100	0.208700
O1011	O101	0.388850	0.851110	0.200430
O1021	O102	0.444360	0.806800	0.246900
N511	N51	0.456400	0.868500	0.124960
C1031	C103	0.472800	0.348500	0.670800
C1041	C104	0.433600	0.335100	0.708700
O1031	O103	0.388850	0.351110	0.700430
O1041	O104	0.444360	0.306800	0.746900
N521	N52	0.456400	0.368500	0.624960
C1051	C105	0.027200	0.151500	0.670800
C1061	C106	0.066400	0.164900	0.708700
O1051	O105	0.111150	0.148890	0.700430
O1061	O106	0.055640	0.193200	0.746900
N531	N53	0.043600	0.131500	0.624960
C1071	C107	0.027200	0.651500	0.170800
C1081	C108	0.066400	0.664900	0.208700
O1071	O107	0.111150	0.648890	0.200430
O1081	O108	0.055640	0.693200	0.246900
N541	N54	0.043600	0.631500	0.124960
C1091	C109	0.527200	0.151500	0.170800
C1101	C110	0.566400	0.164900	0.208700
O1091	O109	0.611150	0.148890	0.200430
O1101	O110	0.555640	0.193200	0.246900
N551	N55	0.543600	0.131500	0.124960
C1111	C111	0.527200	0.651500	0.670800
C1121	C112	0.566400	0.664900	0.708700
O1111	O111	0.611150	0.648890	0.700430
O1121	O112	0.555640	0.693200	0.746900
N561	N56	0.543600	0.631500	0.624960
C1131	C113	0.027200	0.848500	0.329200
C1141	C114	0.066400	0.835100	0.291300
O1131	O113	0.111150	0.851110	0.299570
O1141	O114	0.055640	0.806800	0.253100
N571	N57	0.043600	0.868500	0.375040
C1151	C115	0.027200	0.348500	0.829200
C1161	C116	0.066400	0.335100	0.791300
O1151	O115	0.111150	0.351110	0.799570
O1161	O116	0.055640	0.306800	0.753100
N581	N58	0.043600	0.368500	0.875040
C1171	C117	0.527200	0.848500	0.829200
C1181	C118	0.566400	0.835100	0.791300
O1171	O117	0.611150	0.851110	0.799570
O1181	O118	0.555640	0.806800	0.753100
N591	N59	0.543600	0.868500	0.875040
C1191	C119	0.527200	0.348500	0.329200
C1201	C120	0.566400	0.335100	0.291300
O1191	O119	0.611150	0.351110	0.299570
O1201	O120	0.555640	0.306800	0.253100
N601	N60	0.543600	0.368500	0.375040
C1211	C121	0.972800	0.151500	0.329200
C1221	C122	0.933600	0.164900	0.291300
O1211	O121	0.888850	0.148890	0.299570
O1221	O122	0.944360	0.193200	0.253100
N611	N61	0.956400	0.131500	0.375040
C1231	C123	0.972800	0.651500	0.829200
C1241	C124	0.933600	0.664900	0.791300
O1231	O123	0.888850	0.648890	0.799570
O1241	O124	0.944360	0.693200	0.753100
N621	N62	0.956400	0.631500	0.875040
C1251	C125	0.472800	0.151500	0.829200
C1261	C126	0.433600	0.164900	0.791300
O1251	O125	0.388850	0.148890	0.799570
O1261	O126	0.444360	0.193200	0.753100
N631	N63	0.456400	0.131500	0.875040
C1271	C127	0.472800	0.651500	0.329200
C1281	C128	0.433600	0.664900	0.291300
O1271	O127	0.388850	0.648890	0.299570
O1281	O128	0.444360	0.693200	0.253100
N641	N64	0.456400	0.631500	0.375040
C1291	C129	0.670800	0.972800	0.848500
C1301	C130	0.708700	0.933600	0.835100
O1291	O129	0.700430	0.888850	0.851110
O1301	O130	0.746900	0.944360	0.806800
N651	N65	0.624960	0.956400	0.868500
C1311	C131	0.670800	0.472800	0.348500
C1321	C132	0.708700	0.433600	0.335100
O1311	O131	0.700430	0.388850	0.351110
O1321	O132	0.746900	0.444360	0.306800
N661	N66	0.624960	0.456400	0.368500
C1331	C133	0.170800	0.972800	0.348500
C1341	C134	0.208700	0.933600	0.335100
O1331	O133	0.200430	0.888850	0.351110
O1341	O134	0.246900	0.944360	0.306800
N671	N67	0.124960	0.956400	0.368500
C1351	C135	0.170800	0.472800	0.848500
C1361	C136	0.208700	0.433600	0.835100
O1351	O135	0.200430	0.388850	0.851110
O1361	O136	0.246900	0.444360	0.806800
N681	N68	0.124960	0.456400	0.868500
C1371	C137	0.670800	0.027200	0.151500
C1381	C138	0.708700	0.066400	0.164900
O1371	O137	0.700430	0.111150	0.148890
O1381	O138	0.746900	0.055640	0.193200
N691	N69	0.624960	0.043600	0.131500
C1391	C139	0.670800	0.527200	0.651500
C1401	C140	0.708700	0.566400	0.664900
O1391	O139	0.700430	0.611150	0.648890
O1401	O140	0.746900	0.555640	0.693200
N701	N70	0.624960	0.543600	0.631500
C1411	C141	0.170800	0.027200	0.651500
C1421	C142	0.208700	0.066400	0.664900
O1411	O141	0.200430	0.111150	0.648890
O1421	O142	0.246900	0.055640	0.693200
N711	N71	0.124960	0.043600	0.631500
C1431	C143	0.170800	0.527200	0.151500
C1441	C144	0.208700	0.566400	0.164900
O1431	O143	0.200430	0.611150	0.148890
O1441	O144	0.246900	0.555640	0.193200
N721	N72	0.124960	0.543600	0.131500
C1451	C145	0.329200	0.027200	0.848500
C1461	C146	0.291300	0.066400	0.835100
O1451	O145	0.299570	0.111150	0.851110
O1461	O146	0.253100	0.055640	0.806800
N731	N73	0.375040	0.043600	0.868500
C1471	C147	0.329200	0.527200	0.348500
C1481	C148	0.291300	0.566400	0.335100
O1471	O147	0.299570	0.611150	0.351110
O1481	O148	0.253100	0.555640	0.306800
N741	N74	0.375040	0.543600	0.368500
C1491	C149	0.829200	0.027200	0.348500
C1501	C150	0.791300	0.066400	0.335100
O1491	O149	0.799570	0.111150	0.351110
O1501	O150	0.753100	0.055640	0.306800
N751	N75	0.875040	0.043600	0.368500
C1511	C151	0.829200	0.527200	0.848500
C1521	C152	0.791300	0.566400	0.835100
O1511	O151	0.799570	0.611150	0.851110
O1521	O152	0.753100	0.555640	0.806800
N761	N76	0.875040	0.543600	0.868500
C1531	C153	0.329200	0.972800	0.151500
C1541	C154	0.291300	0.933600	0.164900
O1531	O153	0.299570	0.888850	0.148890
O1541	O154	0.253100	0.944360	0.193200
N771	N77	0.375040	0.956400	0.131500
C1551	C155	0.329200	0.472800	0.651500
C1561	C156	0.291300	0.433600	0.664900
O1551	O155	0.299570	0.388850	0.648890
O1561	O156	0.253100	0.444360	0.693200
N781	N78	0.375040	0.456400	0.631500
C1571	C157	0.829200	0.972800	0.651500
C1581	C158	0.791300	0.933600	0.664900
O1571	O157	0.799570	0.888850	0.648890
O1581	O158	0.753100	0.944360	0.693200
N791	N79	0.875040	0.956400	0.631500
C1591	C159	0.829200	0.472800	0.151500
C1601	C160	0.791300	0.433600	0.164900
O1591	O159	0.799570	0.388850	0.148890
O1601	O160	0.753100	0.444360	0.193200
N801	N80	0.875040	0.456400	0.131500
C1611	C161	0.848500	0.670800	0.972800
C1621	C162	0.835100	0.708700	0.933600
O1611	O161	0.851110	0.700430	0.888850
O1621	O162	0.806800	0.746900	0.944360
N811	N81	0.868500	0.624960	0.956400
C1631	C163	0.848500	0.170800	0.472800
C1641	C164	0.835100	0.208700	0.433600
O1631	O163	0.851110	0.200430	0.388850
O1641	O164	0.806800	0.246900	0.444360
N821	N82	0.868500	0.124960	0.456400
C1651	C165	0.348500	0.670800	0.472800
C1661	C166	0.335100	0.708700	0.433600
O1651	O165	0.351110	0.700430	0.388850
O1661	O166	0.306800	0.746900	0.444360
N831	N83	0.368500	0.624960	0.456400
C1671	C167	0.348500	0.170800	0.972800
C1681	C168	0.335100	0.208700	0.933600
O1671	O167	0.351110	0.200430	0.888850
O1681	O168	0.306800	0.246900	0.944360
N841	N84	0.368500	0.124960	0.956400
C1691	C169	0.151500	0.670800	0.027200
C1701	C170	0.164900	0.708700	0.066400
O1691	O169	0.148890	0.700430	0.111150
O1701	O170	0.193200	0.746900	0.055640
N851	N85	0.131500	0.624960	0.043600
C1711	C171	0.151500	0.170800	0.527200
C1721	C172	0.164900	0.208700	0.566400
O1711	O171	0.148890	0.200430	0.611150
O1721	O172	0.193200	0.246900	0.555640
N861	N86	0.131500	0.124960	0.543600
C1731	C173	0.651500	0.670800	0.527200
C1741	C174	0.664900	0.708700	0.566400
O1731	O173	0.648890	0.700430	0.611150
O1741	O174	0.693200	0.746900	0.555640
N871	N87	0.631500	0.624960	0.543600
C1751	C175	0.651500	0.170800	0.027200
C1761	C176	0.664900	0.208700	0.066400
O1751	O175	0.648890	0.200430	0.111150
O1761	O176	0.693200	0.246900	0.055640
N881	N88	0.631500	0.124960	0.043600
C1771	C177	0.848500	0.329200	0.027200
C1781	C178	0.835100	0.291300	0.066400
O1771	O177	0.851110	0.299570	0.111150
O1781	O178	0.806800	0.253100	0.055640
N891	N89	0.868500	0.375040	0.043600
C1791	C179	0.848500	0.829200	0.527200
C1801	C180	0.835100	0.791300	0.566400
O1791	O179	0.851110	0.799570	0.611150
O1801	O180	0.806800	0.753100	0.555640
N901	N90	0.868500	0.875040	0.543600
C1811	C181	0.348500	0.329200	0.527200
C1821	C182	0.335100	0.291300	0.566400
O1811	O181	0.351110	0.299570	0.611150
O1821	O182	0.306800	0.253100	0.555640
N911	N91	0.368500	0.375040	0.543600
C1831	C183	0.348500	0.829200	0.027200
C1841	C184	0.335100	0.791300	0.066400
O1831	O183	0.351110	0.799570	0.111150
O1841	O184	0.306800	0.753100	0.055640
N921	N92	0.368500	0.875040	0.043600
C1851	C185	0.151500	0.329200	0.972800
C1861	C186	0.164900	0.291300	0.933600
O1851	O185	0.148890	0.299570	0.888850
O1861	O186	0.193200	0.253100	0.944360
N931	N93	0.131500	0.375040	0.956400
C1871	C187	0.151500	0.829200	0.472800
C1881	C188	0.164900	0.791300	0.433600
O1871	O187	0.148890	0.799570	0.388850
O1881	O188	0.193200	0.753100	0.444360
N941	N94	0.131500	0.875040	0.456400
C1891	C189	0.651500	0.329200	0.472800
C1901	C190	0.664900	0.291300	0.433600
O1891	O189	0.648890	0.299570	0.388850
O1901	O190	0.693200	0.253100	0.444360
N951	N95	0.631500	0.375040	0.456400
C1911	C191	0.651500	0.829200	0.972800
C1921	C192	0.664900	0.791300	0.933600
O1911	O191	0.648890	0.799570	0.888850
O1921	O192	0.693200	0.753100	0.944360
N961	N96	0.631500	0.875040	0.956400
Co11	Co1	0.122870	0.122870	0.377130
Co21	Co2	0.877130	0.877130	0.377130
Co31	Co3	0.377130	0.377130	0.377130
Co41	Co4	0.877130	0.122870	0.622870
Co51	Co5	0.377130	0.122870	0.122870
Co61	Co6	0.122870	0.877130	0.622870
Co71	Co7	0.122870	0.377130	0.122870
Co81	Co8	0.377130	0.622870	0.622870
Co91	Co9	0.377130	0.877130	0.877130
Co101	Co10	0.622870	0.877130	0.122870
Co111	Co11	0.622870	0.377130	0.622870
Co121	Co12	0.622870	0.122870	0.877130
Co131	Co13	0.622870	0.622870	0.377130
Co141	Co14	0.877130	0.377130	0.877130
Co151	Co15	0.122870	0.622870	0.877130
Co161	Co16	0.877130	0.622870	0.122870
Co171	Co17	0.877130	0.877130	0.622870
Co181	Co18	0.877130	0.377130	0.122870
Co191	Co19	0.377130	0.877130	0.122870
Co201	Co20	0.122870	0.122870	0.622870
Co211	Co21	0.122870	0.877130	0.377130
Co221	Co22	0.877130	0.122870	0.377130
Co231	Co23	0.377130	0.622870	0.377130
Co241	Co24	0.622870	0.877130	0.877130
Co251	Co25	0.622870	0.377130	0.377130
Co261	Co26	0.122870	0.377130	0.877130
Co271	Co27	0.622870	0.122870	0.122870
Co281	Co28	0.622870	0.622870	0.622870
Co291	Co29	0.377130	0.122870	0.877130
Co301	Co30	0.377130	0.377130	0.622870
Co311	Co31	0.877130	0.622870	0.877130
Co321	Co32	0.122870	0.622870	0.122870
Co331	Co33	0.000000	0.250000	0.250000
Co341	Co34	0.500000	0.250000	0.750000
Co351	Co35	0.000000	0.750000	0.250000
Co361	Co36	0.500000	0.750000	0.750000
Co371	Co37	0.500000	0.250000	0.250000
Co381	Co38	0.000000	0.250000	0.750000
Co391	Co39	0.000000	0.750000	0.750000
Co401	Co40	0.500000	0.750000	0.250000
Co411	Co41	0.250000	0.000000	0.250000
Co421	Co42	0.250000	0.500000	0.750000
Co431	Co43	0.250000	0.000000	0.750000
Co441	Co44	0.250000	0.500000	0.250000
Co451	Co45	0.750000	0.000000	0.250000
Co461	Co46	0.750000	0.500000	0.750000
Co471	Co47	0.750000	0.000000	0.750000
Co481	Co48	0.750000	0.500000	0.250000
Co491	Co49	0.250000	0.250000	0.000000
Co501	Co50	0.250000	0.750000	0.500000
Co511	Co51	0.750000	0.250000	0.000000
Co521	Co52	0.750000	0.750000	0.500000
Co531	Co53	0.250000	0.250000	0.500000
Co541	Co54	0.250000	0.750000	0.000000
Co551	Co55	0.750000	0.750000	0.000000
Co561	Co56	0.750000	0.250000	0.500000
C1931	C193	0.000000	0.121500	0.400900
H11	H1	0.000000	0.108300	0.435100
C1941	C194	0.000000	0.621500	0.900900
H21	H2	0.000000	0.608300	0.935100
C1951	C195	0.500000	0.121500	0.900900
H31	H3	0.500000	0.108300	0.935100
C1961	C196	0.500000	0.621500	0.400900
H41	H4	0.500000	0.608300	0.435100
C1971	C197	0.000000	0.878500	0.400900
H51	H5	0.000000	0.891700	0.435100
C1981	C198	0.000000	0.378500	0.900900
H61	H6	0.000000	0.391700	0.935100
C1991	C199	0.500000	0.878500	0.900900
H71	H7	0.500000	0.891700	0.935100
C2001	C200	0.500000	0.378500	0.400900
H81	H8	0.500000	0.391700	0.435100
C2011	C201	0.000000	0.121500	0.599100
H91	H9	0.000000	0.108300	0.564900
C2021	C202	0.000000	0.621500	0.099100
H101	H10	0.000000	0.608300	0.064900
C2031	C203	0.500000	0.121500	0.099100
H111	H11	0.500000	0.108300	0.064900
C2041	C204	0.500000	0.621500	0.599100
H121	H12	0.500000	0.608300	0.564900
C2051	C205	0.000000	0.878500	0.599100
H131	H13	0.000000	0.891700	0.564900
C2061	C206	0.000000	0.378500	0.099100
H141	H14	0.000000	0.391700	0.064900
C2071	C207	0.500000	0.878500	0.099100
H151	H15	0.500000	0.891700	0.064900
C2081	C208	0.500000	0.378500	0.599100
H161	H16	0.500000	0.391700	0.564900
C2091	C209	0.400900	0.000000	0.121500
H171	H17	0.435100	0.000000	0.108300
C2101	C210	0.400900	0.500000	0.621500
H181	H18	0.435100	0.500000	0.608300
C2111	C211	0.900900	0.000000	0.621500
H191	H19	0.935100	0.000000	0.608300
C2121	C212	0.900900	0.500000	0.121500
H201	H20	0.935100	0.500000	0.108300
C2131	C213	0.400900	0.000000	0.878500
H211	H21	0.435100	0.000000	0.891700
C2141	C214	0.400900	0.500000	0.378500
H221	H22	0.435100	0.500000	0.391700
C2151	C215	0.900900	0.000000	0.378500
H231	H23	0.935100	0.000000	0.391700
C2161	C216	0.900900	0.500000	0.878500
H241	H24	0.935100	0.500000	0.891700
C2171	C217	0.599100	0.000000	0.121500
H251	H25	0.564900	0.000000	0.108300
C2181	C218	0.599100	0.500000	0.621500
H261	H26	0.564900	0.500000	0.608300
C2191	C219	0.099100	0.000000	0.621500
H271	H27	0.064900	0.000000	0.608300
C2201	C220	0.099100	0.500000	0.121500
H281	H28	0.064900	0.500000	0.108300
C2211	C221	0.599100	0.000000	0.878500
H291	H29	0.564900	0.000000	0.891700
C2221	C222	0.599100	0.500000	0.378500
H301	H30	0.564900	0.500000	0.391700
C2231	C223	0.099100	0.000000	0.378500
H311	H31	0.064900	0.000000	0.391700
C2241	C224	0.099100	0.500000	0.878500
H321	H32	0.064900	0.500000	0.891700
C2251	C225	0.121500	0.400900	0.000000
H331	H33	0.108300	0.435100	0.000000
C2261	C226	0.121500	0.900900	0.500000
H341	H34	0.108300	0.935100	0.500000
C2271	C227	0.621500	0.400900	0.500000
H351	H35	0.608300	0.435100	0.500000
C2281	C228	0.621500	0.900900	0.000000
H361	H36	0.608300	0.935100	0.000000
C2291	C229	0.878500	0.400900	0.000000
H371	H37	0.891700	0.435100	0.000000
C2301	C230	0.878500	0.900900	0.500000
H381	H38	0.891700	0.935100	0.500000
C2311	C231	0.378500	0.400900	0.500000
H391	H39	0.391700	0.435100	0.500000
C2321	C232	0.378500	0.900900	0.000000
H401	H40	0.391700	0.935100	0.000000
C2331	C233	0.121500	0.599100	0.000000
H411	H41	0.108300	0.564900	0.000000
C2341	C234	0.121500	0.099100	0.500000
H421	H42	0.108300	0.064900	0.500000
C2351	C235	0.621500	0.599100	0.500000
H431	H43	0.608300	0.564900	0.500000
C2361	C236	0.621500	0.099100	0.000000
H441	H44	0.608300	0.064900	0.000000
C2371	C237	0.878500	0.599100	0.000000
H451	H45	0.891700	0.564900	0.000000
C2381	C238	0.878500	0.099100	0.500000
H461	H46	0.891700	0.064900	0.500000
C2391	C239	0.378500	0.599100	0.500000
H471	H47	0.391700	0.564900	0.500000
C2401	C240	0.378500	0.099100	0.000000
H481	H48	0.391700	0.064900	0.000000
