data_LUXFOA_clean_PM
_symmetry_space_group_name_H-M	'P1'
_cell_length_a	26.291000
_cell_length_b	26.291000
_cell_length_c	26.291000
_cell_angle_alpha	90.000000
_cell_angle_beta	90.000000
_cell_angle_gamma	90.000000
_symmetry_Int_Tables_number 1

loop_
_symmetry_equiv_pos_as_xyz
'x,y,z'

loop_
_atom_site_label
_atom_site_type_symbol
_atom_site_fract_x
_atom_site_fract_y
_atom_site_fract_z
O11	O1	0.152000	0.298500	0.110700
O21	O2	0.191500	0.249800	0.055100
N11	N1	0.128700	0.369100	0.043100
C11	C1	0.150400	0.324800	0.026100
C21	C2	0.165800	0.288300	0.065600
O31	O3	0.152000	0.798500	0.610700
O41	O4	0.191500	0.749800	0.555100
N21	N2	0.128700	0.869100	0.543100
C31	C3	0.150400	0.824800	0.526100
C41	C4	0.165800	0.788300	0.565600
O51	O5	0.652000	0.298500	0.610700
O61	O6	0.691500	0.249800	0.555100
N31	N3	0.628700	0.369100	0.543100
C51	C5	0.650400	0.324800	0.526100
C61	C6	0.665800	0.288300	0.565600
O71	O7	0.652000	0.798500	0.110700
O81	O8	0.691500	0.749800	0.055100
N41	N4	0.628700	0.869100	0.043100
C71	C7	0.650400	0.824800	0.026100
C81	C8	0.665800	0.788300	0.065600
O91	O9	0.848000	0.701500	0.110700
O101	O10	0.808500	0.750200	0.055100
N51	N5	0.871300	0.630900	0.043100
C91	C9	0.849600	0.675200	0.026100
C101	C10	0.834200	0.711700	0.065600
O111	O11	0.848000	0.201500	0.610700
O121	O12	0.808500	0.250200	0.555100
N61	N6	0.871300	0.130900	0.543100
C111	C11	0.849600	0.175200	0.526100
C121	C12	0.834200	0.211700	0.565600
O131	O13	0.348000	0.701500	0.610700
O141	O14	0.308500	0.750200	0.555100
N71	N7	0.371300	0.630900	0.543100
C131	C13	0.349600	0.675200	0.526100
C141	C14	0.334200	0.711700	0.565600
O151	O15	0.348000	0.201500	0.110700
O161	O16	0.308500	0.250200	0.055100
N81	N8	0.371300	0.130900	0.043100
C151	C15	0.349600	0.175200	0.026100
C161	C16	0.334200	0.211700	0.065600
O171	O17	0.848000	0.298500	0.889300
O181	O18	0.808500	0.249800	0.944900
N91	N9	0.871300	0.369100	0.956900
C171	C17	0.849600	0.324800	0.973900
C181	C18	0.834200	0.288300	0.934400
O191	O19	0.848000	0.798500	0.389300
O201	O20	0.808500	0.749800	0.444900
N101	N10	0.871300	0.869100	0.456900
C191	C19	0.849600	0.824800	0.473900
C201	C20	0.834200	0.788300	0.434400
O211	O21	0.348000	0.298500	0.389300
O221	O22	0.308500	0.249800	0.444900
N111	N11	0.371300	0.369100	0.456900
C211	C21	0.349600	0.324800	0.473900
C221	C22	0.334200	0.288300	0.434400
O231	O23	0.348000	0.798500	0.889300
O241	O24	0.308500	0.749800	0.944900
N121	N12	0.371300	0.869100	0.956900
C231	C23	0.349600	0.824800	0.973900
C241	C24	0.334200	0.788300	0.934400
O251	O25	0.152000	0.701500	0.889300
O261	O26	0.191500	0.750200	0.944900
N131	N13	0.128700	0.630900	0.956900
C251	C25	0.150400	0.675200	0.973900
C261	C26	0.165800	0.711700	0.934400
O271	O27	0.152000	0.201500	0.389300
O281	O28	0.191500	0.250200	0.444900
N141	N14	0.128700	0.130900	0.456900
C271	C27	0.150400	0.175200	0.473900
C281	C28	0.165800	0.211700	0.434400
O291	O29	0.652000	0.701500	0.389300
O301	O30	0.691500	0.750200	0.444900
N151	N15	0.628700	0.630900	0.456900
C291	C29	0.650400	0.675200	0.473900
C301	C30	0.665800	0.711700	0.434400
O311	O31	0.652000	0.201500	0.889300
O321	O32	0.691500	0.250200	0.944900
N161	N16	0.628700	0.130900	0.956900
C311	C31	0.650400	0.175200	0.973900
C321	C32	0.665800	0.211700	0.934400
O331	O33	0.110700	0.152000	0.298500
O341	O34	0.055100	0.191500	0.249800
N171	N17	0.043100	0.128700	0.369100
C331	C33	0.026100	0.150400	0.324800
C341	C34	0.065600	0.165800	0.288300
O351	O35	0.110700	0.652000	0.798500
O361	O36	0.055100	0.691500	0.749800
N181	N18	0.043100	0.628700	0.869100
C351	C35	0.026100	0.650400	0.824800
C361	C36	0.065600	0.665800	0.788300
O371	O37	0.610700	0.152000	0.798500
O381	O38	0.555100	0.191500	0.749800
N191	N19	0.543100	0.128700	0.869100
C371	C37	0.526100	0.150400	0.824800
C381	C38	0.565600	0.165800	0.788300
O391	O39	0.610700	0.652000	0.298500
O401	O40	0.555100	0.691500	0.249800
N201	N20	0.543100	0.628700	0.369100
C391	C39	0.526100	0.650400	0.324800
C401	C40	0.565600	0.665800	0.288300
O411	O41	0.110700	0.848000	0.701500
O421	O42	0.055100	0.808500	0.750200
N211	N21	0.043100	0.871300	0.630900
C411	C41	0.026100	0.849600	0.675200
C421	C42	0.065600	0.834200	0.711700
O431	O43	0.110700	0.348000	0.201500
O441	O44	0.055100	0.308500	0.250200
N221	N22	0.043100	0.371300	0.130900
C431	C43	0.026100	0.349600	0.175200
C441	C44	0.065600	0.334200	0.211700
O451	O45	0.610700	0.848000	0.201500
O461	O46	0.555100	0.808500	0.250200
N231	N23	0.543100	0.871300	0.130900
C451	C45	0.526100	0.849600	0.175200
C461	C46	0.565600	0.834200	0.211700
O471	O47	0.610700	0.348000	0.701500
O481	O48	0.555100	0.308500	0.750200
N241	N24	0.543100	0.371300	0.630900
C471	C47	0.526100	0.349600	0.675200
C481	C48	0.565600	0.334200	0.711700
O491	O49	0.889300	0.848000	0.298500
O501	O50	0.944900	0.808500	0.249800
N251	N25	0.956900	0.871300	0.369100
C491	C49	0.973900	0.849600	0.324800
C501	C50	0.934400	0.834200	0.288300
O511	O51	0.889300	0.348000	0.798500
O521	O52	0.944900	0.308500	0.749800
N261	N26	0.956900	0.371300	0.869100
C511	C51	0.973900	0.349600	0.824800
C521	C52	0.934400	0.334200	0.788300
O531	O53	0.389300	0.848000	0.798500
O541	O54	0.444900	0.808500	0.749800
N271	N27	0.456900	0.871300	0.869100
C531	C53	0.473900	0.849600	0.824800
C541	C54	0.434400	0.834200	0.788300
O551	O55	0.389300	0.348000	0.298500
O561	O56	0.444900	0.308500	0.249800
N281	N28	0.456900	0.371300	0.369100
C551	C55	0.473900	0.349600	0.324800
C561	C56	0.434400	0.334200	0.288300
O571	O57	0.889300	0.152000	0.701500
O581	O58	0.944900	0.191500	0.750200
N291	N29	0.956900	0.128700	0.630900
C571	C57	0.973900	0.150400	0.675200
C581	C58	0.934400	0.165800	0.711700
O591	O59	0.889300	0.652000	0.201500
O601	O60	0.944900	0.691500	0.250200
N301	N30	0.956900	0.628700	0.130900
C591	C59	0.973900	0.650400	0.175200
C601	C60	0.934400	0.665800	0.211700
O611	O61	0.389300	0.152000	0.201500
O621	O62	0.444900	0.191500	0.250200
N311	N31	0.456900	0.128700	0.130900
C611	C61	0.473900	0.150400	0.175200
C621	C62	0.434400	0.165800	0.211700
O631	O63	0.389300	0.652000	0.701500
O641	O64	0.444900	0.691500	0.750200
N321	N32	0.456900	0.628700	0.630900
C631	C63	0.473900	0.650400	0.675200
C641	C64	0.434400	0.665800	0.711700
O651	O65	0.298500	0.110700	0.152000
O661	O66	0.249800	0.055100	0.191500
N331	N33	0.369100	0.043100	0.128700
C651	C65	0.324800	0.026100	0.150400
C661	C66	0.288300	0.065600	0.165800
O671	O67	0.298500	0.610700	0.652000
O681	O68	0.249800	0.555100	0.691500
N341	N34	0.369100	0.543100	0.628700
C671	C67	0.324800	0.526100	0.650400
C681	C68	0.288300	0.565600	0.665800
O691	O69	0.798500	0.110700	0.652000
O701	O70	0.749800	0.055100	0.691500
N351	N35	0.869100	0.043100	0.628700
C691	C69	0.824800	0.026100	0.650400
C701	C70	0.788300	0.065600	0.665800
O711	O71	0.798500	0.610700	0.152000
O721	O72	0.749800	0.555100	0.191500
N361	N36	0.869100	0.543100	0.128700
C711	C71	0.824800	0.526100	0.150400
C721	C72	0.788300	0.565600	0.165800
O731	O73	0.701500	0.110700	0.848000
O741	O74	0.750200	0.055100	0.808500
N371	N37	0.630900	0.043100	0.871300
C731	C73	0.675200	0.026100	0.849600
C741	C74	0.711700	0.065600	0.834200
O751	O75	0.701500	0.610700	0.348000
O761	O76	0.750200	0.555100	0.308500
N381	N38	0.630900	0.543100	0.371300
C751	C75	0.675200	0.526100	0.349600
C761	C76	0.711700	0.565600	0.334200
O771	O77	0.201500	0.110700	0.348000
O781	O78	0.250200	0.055100	0.308500
N391	N39	0.130900	0.043100	0.371300
C771	C77	0.175200	0.026100	0.349600
C781	C78	0.211700	0.065600	0.334200
O791	O79	0.201500	0.610700	0.848000
O801	O80	0.250200	0.555100	0.808500
N401	N40	0.130900	0.543100	0.871300
C791	C79	0.175200	0.526100	0.849600
C801	C80	0.211700	0.565600	0.834200
O811	O81	0.298500	0.889300	0.848000
O821	O82	0.249800	0.944900	0.808500
N411	N41	0.369100	0.956900	0.871300
C811	C81	0.324800	0.973900	0.849600
C821	C82	0.288300	0.934400	0.834200
O831	O83	0.298500	0.389300	0.348000
O841	O84	0.249800	0.444900	0.308500
N421	N42	0.369100	0.456900	0.371300
C831	C83	0.324800	0.473900	0.349600
C841	C84	0.288300	0.434400	0.334200
O851	O85	0.798500	0.889300	0.348000
O861	O86	0.749800	0.944900	0.308500
N431	N43	0.869100	0.956900	0.371300
C851	C85	0.824800	0.973900	0.349600
C861	C86	0.788300	0.934400	0.334200
O871	O87	0.798500	0.389300	0.848000
O881	O88	0.749800	0.444900	0.808500
N441	N44	0.869100	0.456900	0.871300
C871	C87	0.824800	0.473900	0.849600
C881	C88	0.788300	0.434400	0.834200
O891	O89	0.701500	0.889300	0.152000
O901	O90	0.750200	0.944900	0.191500
N451	N45	0.630900	0.956900	0.128700
C891	C89	0.675200	0.973900	0.150400
C901	C90	0.711700	0.934400	0.165800
O911	O91	0.701500	0.389300	0.652000
O921	O92	0.750200	0.444900	0.691500
N461	N46	0.630900	0.456900	0.628700
C911	C91	0.675200	0.473900	0.650400
C921	C92	0.711700	0.434400	0.665800
O931	O93	0.201500	0.889300	0.652000
O941	O94	0.250200	0.944900	0.691500
N471	N47	0.130900	0.956900	0.628700
C931	C93	0.175200	0.973900	0.650400
C941	C94	0.211700	0.934400	0.665800
O951	O95	0.201500	0.389300	0.152000
O961	O96	0.250200	0.444900	0.191500
N481	N48	0.130900	0.456900	0.128700
C951	C95	0.175200	0.473900	0.150400
C961	C96	0.211700	0.434400	0.165800
O971	O97	0.848000	0.701500	0.889300
O981	O98	0.808500	0.750200	0.944900
N491	N49	0.871300	0.630900	0.956900
C971	C97	0.849600	0.675200	0.973900
C981	C98	0.834200	0.711700	0.934400
O991	O99	0.848000	0.201500	0.389300
O1001	O100	0.808500	0.250200	0.444900
N501	N50	0.871300	0.130900	0.456900
C991	C99	0.849600	0.175200	0.473900
C1001	C100	0.834200	0.211700	0.434400
O1011	O101	0.348000	0.701500	0.389300
O1021	O102	0.308500	0.750200	0.444900
N511	N51	0.371300	0.630900	0.456900
C1011	C101	0.349600	0.675200	0.473900
C1021	C102	0.334200	0.711700	0.434400
O1031	O103	0.348000	0.201500	0.889300
O1041	O104	0.308500	0.250200	0.944900
N521	N52	0.371300	0.130900	0.956900
C1031	C103	0.349600	0.175200	0.973900
C1041	C104	0.334200	0.211700	0.934400
O1051	O105	0.152000	0.298500	0.889300
O1061	O106	0.191500	0.249800	0.944900
N531	N53	0.128700	0.369100	0.956900
C1051	C105	0.150400	0.324800	0.973900
C1061	C106	0.165800	0.288300	0.934400
O1071	O107	0.152000	0.798500	0.389300
O1081	O108	0.191500	0.749800	0.444900
N541	N54	0.128700	0.869100	0.456900
C1071	C107	0.150400	0.824800	0.473900
C1081	C108	0.165800	0.788300	0.434400
O1091	O109	0.652000	0.298500	0.389300
O1101	O110	0.691500	0.249800	0.444900
N551	N55	0.628700	0.369100	0.456900
C1091	C109	0.650400	0.324800	0.473900
C1101	C110	0.665800	0.288300	0.434400
O1111	O111	0.652000	0.798500	0.889300
O1121	O112	0.691500	0.749800	0.944900
N561	N56	0.628700	0.869100	0.956900
C1111	C111	0.650400	0.824800	0.973900
C1121	C112	0.665800	0.788300	0.934400
O1131	O113	0.152000	0.701500	0.110700
O1141	O114	0.191500	0.750200	0.055100
N571	N57	0.128700	0.630900	0.043100
C1131	C113	0.150400	0.675200	0.026100
C1141	C114	0.165800	0.711700	0.065600
O1151	O115	0.152000	0.201500	0.610700
O1161	O116	0.191500	0.250200	0.555100
N581	N58	0.128700	0.130900	0.543100
C1151	C115	0.150400	0.175200	0.526100
C1161	C116	0.165800	0.211700	0.565600
O1171	O117	0.652000	0.701500	0.610700
O1181	O118	0.691500	0.750200	0.555100
N591	N59	0.628700	0.630900	0.543100
C1171	C117	0.650400	0.675200	0.526100
C1181	C118	0.665800	0.711700	0.565600
O1191	O119	0.652000	0.201500	0.110700
O1201	O120	0.691500	0.250200	0.055100
N601	N60	0.628700	0.130900	0.043100
C1191	C119	0.650400	0.175200	0.026100
C1201	C120	0.665800	0.211700	0.065600
O1211	O121	0.848000	0.298500	0.110700
O1221	O122	0.808500	0.249800	0.055100
N611	N61	0.871300	0.369100	0.043100
C1211	C121	0.849600	0.324800	0.026100
C1221	C122	0.834200	0.288300	0.065600
O1231	O123	0.848000	0.798500	0.610700
O1241	O124	0.808500	0.749800	0.555100
N621	N62	0.871300	0.869100	0.543100
C1231	C123	0.849600	0.824800	0.526100
C1241	C124	0.834200	0.788300	0.565600
O1251	O125	0.348000	0.298500	0.610700
O1261	O126	0.308500	0.249800	0.555100
N631	N63	0.371300	0.369100	0.543100
C1251	C125	0.349600	0.324800	0.526100
C1261	C126	0.334200	0.288300	0.565600
O1271	O127	0.348000	0.798500	0.110700
O1281	O128	0.308500	0.749800	0.055100
N641	N64	0.371300	0.869100	0.043100
C1271	C127	0.349600	0.824800	0.026100
C1281	C128	0.334200	0.788300	0.065600
O1291	O129	0.889300	0.848000	0.701500
O1301	O130	0.944900	0.808500	0.750200
N651	N65	0.956900	0.871300	0.630900
C1291	C129	0.973900	0.849600	0.675200
C1301	C130	0.934400	0.834200	0.711700
O1311	O131	0.889300	0.348000	0.201500
O1321	O132	0.944900	0.308500	0.250200
N661	N66	0.956900	0.371300	0.130900
C1311	C131	0.973900	0.349600	0.175200
C1321	C132	0.934400	0.334200	0.211700
O1331	O133	0.389300	0.848000	0.201500
O1341	O134	0.444900	0.808500	0.250200
N671	N67	0.456900	0.871300	0.130900
C1331	C133	0.473900	0.849600	0.175200
C1341	C134	0.434400	0.834200	0.211700
O1351	O135	0.389300	0.348000	0.701500
O1361	O136	0.444900	0.308500	0.750200
N681	N68	0.456900	0.371300	0.630900
C1351	C135	0.473900	0.349600	0.675200
C1361	C136	0.434400	0.334200	0.711700
O1371	O137	0.889300	0.152000	0.298500
O1381	O138	0.944900	0.191500	0.249800
N691	N69	0.956900	0.128700	0.369100
C1371	C137	0.973900	0.150400	0.324800
C1381	C138	0.934400	0.165800	0.288300
O1391	O139	0.889300	0.652000	0.798500
O1401	O140	0.944900	0.691500	0.749800
N701	N70	0.956900	0.628700	0.869100
C1391	C139	0.973900	0.650400	0.824800
C1401	C140	0.934400	0.665800	0.788300
O1411	O141	0.389300	0.152000	0.798500
O1421	O142	0.444900	0.191500	0.749800
N711	N71	0.456900	0.128700	0.869100
C1411	C141	0.473900	0.150400	0.824800
C1421	C142	0.434400	0.165800	0.788300
O1431	O143	0.389300	0.652000	0.298500
O1441	O144	0.444900	0.691500	0.249800
N721	N72	0.456900	0.628700	0.369100
C1431	C143	0.473900	0.650400	0.324800
C1441	C144	0.434400	0.665800	0.288300
O1451	O145	0.110700	0.152000	0.701500
O1461	O146	0.055100	0.191500	0.750200
N731	N73	0.043100	0.128700	0.630900
C1451	C145	0.026100	0.150400	0.675200
C1461	C146	0.065600	0.165800	0.711700
O1471	O147	0.110700	0.652000	0.201500
O1481	O148	0.055100	0.691500	0.250200
N741	N74	0.043100	0.628700	0.130900
C1471	C147	0.026100	0.650400	0.175200
C1481	C148	0.065600	0.665800	0.211700
O1491	O149	0.610700	0.152000	0.201500
O1501	O150	0.555100	0.191500	0.250200
N751	N75	0.543100	0.128700	0.130900
C1491	C149	0.526100	0.150400	0.175200
C1501	C150	0.565600	0.165800	0.211700
O1511	O151	0.610700	0.652000	0.701500
O1521	O152	0.555100	0.691500	0.750200
N761	N76	0.543100	0.628700	0.630900
C1511	C151	0.526100	0.650400	0.675200
C1521	C152	0.565600	0.665800	0.711700
O1531	O153	0.110700	0.848000	0.298500
O1541	O154	0.055100	0.808500	0.249800
N771	N77	0.043100	0.871300	0.369100
C1531	C153	0.026100	0.849600	0.324800
C1541	C154	0.065600	0.834200	0.288300
O1551	O155	0.110700	0.348000	0.798500
O1561	O156	0.055100	0.308500	0.749800
N781	N78	0.043100	0.371300	0.869100
C1551	C155	0.026100	0.349600	0.824800
C1561	C156	0.065600	0.334200	0.788300
O1571	O157	0.610700	0.848000	0.798500
O1581	O158	0.555100	0.808500	0.749800
N791	N79	0.543100	0.871300	0.869100
C1571	C157	0.526100	0.849600	0.824800
C1581	C158	0.565600	0.834200	0.788300
O1591	O159	0.610700	0.348000	0.298500
O1601	O160	0.555100	0.308500	0.249800
N801	N80	0.543100	0.371300	0.369100
C1591	C159	0.526100	0.349600	0.324800
C1601	C160	0.565600	0.334200	0.288300
O1611	O161	0.701500	0.889300	0.848000
O1621	O162	0.750200	0.944900	0.808500
N811	N81	0.630900	0.956900	0.871300
C1611	C161	0.675200	0.973900	0.849600
C1621	C162	0.711700	0.934400	0.834200
O1631	O163	0.701500	0.389300	0.348000
O1641	O164	0.750200	0.444900	0.308500
N821	N82	0.630900	0.456900	0.371300
C1631	C163	0.675200	0.473900	0.349600
C1641	C164	0.711700	0.434400	0.334200
O1651	O165	0.201500	0.889300	0.348000
O1661	O166	0.250200	0.944900	0.308500
N831	N83	0.130900	0.956900	0.371300
C1651	C165	0.175200	0.973900	0.349600
C1661	C166	0.211700	0.934400	0.334200
O1671	O167	0.201500	0.389300	0.848000
O1681	O168	0.250200	0.444900	0.808500
N841	N84	0.130900	0.456900	0.871300
C1671	C167	0.175200	0.473900	0.849600
C1681	C168	0.211700	0.434400	0.834200
O1691	O169	0.298500	0.889300	0.152000
O1701	O170	0.249800	0.944900	0.191500
N851	N85	0.369100	0.956900	0.128700
C1691	C169	0.324800	0.973900	0.150400
C1701	C170	0.288300	0.934400	0.165800
O1711	O171	0.298500	0.389300	0.652000
O1721	O172	0.249800	0.444900	0.691500
N861	N86	0.369100	0.456900	0.628700
C1711	C171	0.324800	0.473900	0.650400
C1721	C172	0.288300	0.434400	0.665800
O1731	O173	0.798500	0.889300	0.652000
O1741	O174	0.749800	0.944900	0.691500
N871	N87	0.869100	0.956900	0.628700
C1731	C173	0.824800	0.973900	0.650400
C1741	C174	0.788300	0.934400	0.665800
O1751	O175	0.798500	0.389300	0.152000
O1761	O176	0.749800	0.444900	0.191500
N881	N88	0.869100	0.456900	0.128700
C1751	C175	0.824800	0.473900	0.150400
C1761	C176	0.788300	0.434400	0.165800
O1771	O177	0.701500	0.110700	0.152000
O1781	O178	0.750200	0.055100	0.191500
N891	N89	0.630900	0.043100	0.128700
C1771	C177	0.675200	0.026100	0.150400
C1781	C178	0.711700	0.065600	0.165800
O1791	O179	0.701500	0.610700	0.652000
O1801	O180	0.750200	0.555100	0.691500
N901	N90	0.630900	0.543100	0.628700
C1791	C179	0.675200	0.526100	0.650400
C1801	C180	0.711700	0.565600	0.665800
O1811	O181	0.201500	0.110700	0.652000
O1821	O182	0.250200	0.055100	0.691500
N911	N91	0.130900	0.043100	0.628700
C1811	C181	0.175200	0.026100	0.650400
C1821	C182	0.211700	0.065600	0.665800
O1831	O183	0.201500	0.610700	0.152000
O1841	O184	0.250200	0.555100	0.191500
N921	N92	0.130900	0.543100	0.128700
C1831	C183	0.175200	0.526100	0.150400
C1841	C184	0.211700	0.565600	0.165800
O1851	O185	0.298500	0.110700	0.848000
O1861	O186	0.249800	0.055100	0.808500
N931	N93	0.369100	0.043100	0.871300
C1851	C185	0.324800	0.026100	0.849600
C1861	C186	0.288300	0.065600	0.834200
O1871	O187	0.298500	0.610700	0.348000
O1881	O188	0.249800	0.555100	0.308500
N941	N94	0.369100	0.543100	0.371300
C1871	C187	0.324800	0.526100	0.349600
C1881	C188	0.288300	0.565600	0.334200
O1891	O189	0.798500	0.110700	0.348000
O1901	O190	0.749800	0.055100	0.308500
N951	N95	0.869100	0.043100	0.371300
C1891	C189	0.824800	0.026100	0.349600
C1901	C190	0.788300	0.065600	0.334200
O1911	O191	0.798500	0.610700	0.848000
O1921	O192	0.749800	0.555100	0.808500
N961	N96	0.869100	0.543100	0.871300
C1911	C191	0.824800	0.526100	0.849600
C1921	C192	0.788300	0.565600	0.834200
Mn11	Mn1	0.124150	0.375850	0.124150
Mn21	Mn2	0.875850	0.624150	0.124150
Mn31	Mn3	0.375850	0.124150	0.124150
Mn41	Mn4	0.875850	0.375850	0.875850
Mn51	Mn5	0.375850	0.375850	0.375850
Mn61	Mn6	0.124150	0.624150	0.875850
Mn71	Mn7	0.124150	0.124150	0.375850
Mn81	Mn8	0.124150	0.875850	0.624150
Mn91	Mn9	0.875850	0.875850	0.375850
Mn101	Mn10	0.875850	0.124150	0.624150
Mn111	Mn11	0.375850	0.624150	0.624150
Mn121	Mn12	0.624150	0.124150	0.875850
Mn131	Mn13	0.624150	0.624150	0.375850
Mn141	Mn14	0.375850	0.875850	0.875850
Mn151	Mn15	0.624150	0.875850	0.124150
Mn161	Mn16	0.624150	0.375850	0.624150
Mn171	Mn17	0.875850	0.624150	0.875850
Mn181	Mn18	0.875850	0.124150	0.375850
Mn191	Mn19	0.375850	0.124150	0.875850
Mn201	Mn20	0.124150	0.375850	0.875850
Mn211	Mn21	0.124150	0.624150	0.124150
Mn221	Mn22	0.875850	0.375850	0.124150
Mn231	Mn23	0.375850	0.375850	0.624150
Mn241	Mn24	0.875850	0.875850	0.624150
Mn251	Mn25	0.375850	0.875850	0.124150
Mn261	Mn26	0.375850	0.624150	0.375850
Mn271	Mn27	0.124150	0.124150	0.624150
Mn281	Mn28	0.124150	0.875850	0.375850
Mn291	Mn29	0.624150	0.875850	0.875850
Mn301	Mn30	0.624150	0.375850	0.375850
Mn311	Mn31	0.624150	0.124150	0.124150
Mn321	Mn32	0.624150	0.624150	0.624150
Mn331	Mn33	0.250000	0.250000	0.000000
Mn341	Mn34	0.250000	0.750000	0.500000
Mn351	Mn35	0.750000	0.750000	0.000000
Mn361	Mn36	0.750000	0.250000	0.500000
Mn371	Mn37	0.750000	0.250000	0.000000
Mn381	Mn38	0.750000	0.750000	0.500000
Mn391	Mn39	0.250000	0.250000	0.500000
Mn401	Mn40	0.250000	0.750000	0.000000
Mn411	Mn41	0.000000	0.250000	0.250000
Mn421	Mn42	0.500000	0.250000	0.750000
Mn431	Mn43	0.000000	0.750000	0.750000
Mn441	Mn44	0.500000	0.750000	0.250000
Mn451	Mn45	0.000000	0.750000	0.250000
Mn461	Mn46	0.500000	0.750000	0.750000
Mn471	Mn47	0.500000	0.250000	0.250000
Mn481	Mn48	0.000000	0.250000	0.750000
Mn491	Mn49	0.250000	0.000000	0.250000
Mn501	Mn50	0.250000	0.500000	0.750000
Mn511	Mn51	0.750000	0.000000	0.750000
Mn521	Mn52	0.750000	0.500000	0.250000
Mn531	Mn53	0.250000	0.000000	0.750000
Mn541	Mn54	0.250000	0.500000	0.250000
Mn551	Mn55	0.750000	0.000000	0.250000
Mn561	Mn56	0.750000	0.500000	0.750000
C1931	C193	0.118600	0.393400	0.000000
H11	H1	0.104700	0.426800	0.000000
C1941	C194	0.118600	0.893400	0.500000
H21	H2	0.104700	0.926800	0.500000
C1951	C195	0.618600	0.393400	0.500000
H31	H3	0.604700	0.426800	0.500000
C1961	C196	0.618600	0.893400	0.000000
H41	H4	0.604700	0.926800	0.000000
C1971	C197	0.881400	0.606600	0.000000
H51	H5	0.895300	0.573200	0.000000
C1981	C198	0.881400	0.106600	0.500000
H61	H6	0.895300	0.073200	0.500000
C1991	C199	0.381400	0.606600	0.500000
H71	H7	0.395300	0.573200	0.500000
C2001	C200	0.381400	0.106600	0.000000
H81	H8	0.395300	0.073200	0.000000
C2011	C201	0.881400	0.393400	0.000000
H91	H9	0.895300	0.426800	0.000000
C2021	C202	0.881400	0.893400	0.500000
H101	H10	0.895300	0.926800	0.500000
C2031	C203	0.381400	0.393400	0.500000
H111	H11	0.395300	0.426800	0.500000
C2041	C204	0.381400	0.893400	0.000000
H121	H12	0.395300	0.926800	0.000000
C2051	C205	0.118600	0.606600	0.000000
H131	H13	0.104700	0.573200	0.000000
C2061	C206	0.118600	0.106600	0.500000
H141	H14	0.104700	0.073200	0.500000
C2071	C207	0.618600	0.606600	0.500000
H151	H15	0.604700	0.573200	0.500000
C2081	C208	0.618600	0.106600	0.000000
H161	H16	0.604700	0.073200	0.000000
C2091	C209	0.000000	0.118600	0.393400
H171	H17	0.000000	0.104700	0.426800
C2101	C210	0.000000	0.618600	0.893400
H181	H18	0.000000	0.604700	0.926800
C2111	C211	0.500000	0.118600	0.893400
H191	H19	0.500000	0.104700	0.926800
C2121	C212	0.500000	0.618600	0.393400
H201	H20	0.500000	0.604700	0.426800
C2131	C213	0.000000	0.881400	0.606600
H211	H21	0.000000	0.895300	0.573200
C2141	C214	0.000000	0.381400	0.106600
H221	H22	0.000000	0.395300	0.073200
C2151	C215	0.500000	0.881400	0.106600
H231	H23	0.500000	0.895300	0.073200
C2161	C216	0.500000	0.381400	0.606600
H241	H24	0.500000	0.395300	0.573200
C2171	C217	0.000000	0.881400	0.393400
H251	H25	0.000000	0.895300	0.426800
C2181	C218	0.000000	0.381400	0.893400
H261	H26	0.000000	0.395300	0.926800
C2191	C219	0.500000	0.881400	0.893400
H271	H27	0.500000	0.895300	0.926800
C2201	C220	0.500000	0.381400	0.393400
H281	H28	0.500000	0.395300	0.426800
C2211	C221	0.000000	0.118600	0.606600
H291	H29	0.000000	0.104700	0.573200
C2221	C222	0.000000	0.618600	0.106600
H301	H30	0.000000	0.604700	0.073200
C2231	C223	0.500000	0.118600	0.106600
H311	H31	0.500000	0.104700	0.073200
C2241	C224	0.500000	0.618600	0.606600
H321	H32	0.500000	0.604700	0.573200
C2251	C225	0.393400	0.000000	0.118600
H331	H33	0.426800	0.000000	0.104700
C2261	C226	0.393400	0.500000	0.618600
H341	H34	0.426800	0.500000	0.604700
C2271	C227	0.893400	0.000000	0.618600
H351	H35	0.926800	0.000000	0.604700
C2281	C228	0.893400	0.500000	0.118600
H361	H36	0.926800	0.500000	0.104700
C2291	C229	0.606600	0.000000	0.881400
H371	H37	0.573200	0.000000	0.895300
C2301	C230	0.606600	0.500000	0.381400
H381	H38	0.573200	0.500000	0.395300
C2311	C231	0.106600	0.000000	0.381400
H391	H39	0.073200	0.000000	0.395300
C2321	C232	0.106600	0.500000	0.881400
H401	H40	0.073200	0.500000	0.895300
C2331	C233	0.393400	0.000000	0.881400
H411	H41	0.426800	0.000000	0.895300
C2341	C234	0.393400	0.500000	0.381400
H421	H42	0.426800	0.500000	0.395300
C2351	C235	0.893400	0.000000	0.381400
H431	H43	0.926800	0.000000	0.395300
C2361	C236	0.893400	0.500000	0.881400
H441	H44	0.926800	0.500000	0.895300
C2371	C237	0.606600	0.000000	0.118600
H451	H45	0.573200	0.000000	0.104700
C2381	C238	0.606600	0.500000	0.618600
H461	H46	0.573200	0.500000	0.604700
C2391	C239	0.106600	0.000000	0.618600
H471	H47	0.073200	0.000000	0.604700
C2401	C240	0.106600	0.500000	0.118600
H481	H48	0.073200	0.500000	0.104700
