data_LUZBOY_clean_PM
_symmetry_space_group_name_H-M	'P1'
_cell_length_a	14.431700
_cell_length_b	17.561500
_cell_length_c	7.486400
_cell_angle_alpha	90.000000
_cell_angle_beta	90.000000
_cell_angle_gamma	90.000000
_symmetry_Int_Tables_number 1

loop_
_symmetry_equiv_pos_as_xyz
'x,y,z'

loop_
_atom_site_label
_atom_site_type_symbol
_atom_site_fract_x
_atom_site_fract_y
_atom_site_fract_z
N11	N1	0.144340	0.770770	0.286000
C11	C1	0.103390	0.775300	0.168400
N21	N2	0.644340	0.270770	0.286000
C21	C2	0.603390	0.275300	0.168400
N31	N3	0.855660	0.229230	0.286000
C31	C3	0.896610	0.224700	0.168400
N41	N4	0.355660	0.729230	0.286000
C41	C4	0.396610	0.724700	0.168400
N51	N5	0.855660	0.770770	0.714000
C51	C5	0.896610	0.775300	0.831600
N61	N6	0.355660	0.270770	0.714000
C61	C6	0.396610	0.275300	0.831600
N71	N7	0.144340	0.229230	0.714000
C71	C7	0.103390	0.224700	0.831600
N81	N8	0.644340	0.729230	0.714000
C81	C8	0.603390	0.724700	0.831600
N91	N9	0.855660	0.229230	0.714000
C91	C9	0.896610	0.224700	0.831600
N101	N10	0.355660	0.729230	0.714000
C101	C10	0.396610	0.724700	0.831600
N111	N11	0.144340	0.770770	0.714000
C111	C11	0.103390	0.775300	0.831600
N121	N12	0.644340	0.270770	0.714000
C121	C12	0.603390	0.275300	0.831600
N131	N13	0.144340	0.229230	0.286000
C131	C13	0.103390	0.224700	0.168400
N141	N14	0.644340	0.729230	0.286000
C141	C14	0.603390	0.724700	0.168400
N151	N15	0.855660	0.770770	0.286000
C151	C15	0.896610	0.775300	0.168400
N161	N16	0.355660	0.270770	0.286000
C161	C16	0.396610	0.275300	0.168400
Mn11	Mn1	0.250000	0.750000	0.500000
Mn21	Mn2	0.750000	0.250000	0.500000
Mn31	Mn3	0.750000	0.750000	0.500000
Mn41	Mn4	0.250000	0.250000	0.500000
C171	C17	0.051270	0.774480	0.000000
C181	C18	0.551270	0.274480	0.000000
C191	C19	0.948730	0.225520	0.000000
C201	C20	0.448730	0.725520	0.000000
C211	C21	0.948730	0.774480	0.000000
C221	C22	0.448730	0.274480	0.000000
C231	C23	0.051270	0.225520	0.000000
C241	C24	0.551270	0.725520	0.000000
N171	N17	0.284660	0.872510	0.500000
C251	C25	0.318450	0.928600	0.500000
N181	N18	0.784660	0.372510	0.500000
C261	C26	0.818450	0.428600	0.500000
N191	N19	0.715340	0.127490	0.500000
C271	C27	0.681550	0.071400	0.500000
N201	N20	0.215340	0.627490	0.500000
C281	C28	0.181550	0.571400	0.500000
N211	N21	0.715340	0.872510	0.500000
C291	C29	0.681550	0.928600	0.500000
N221	N22	0.215340	0.372510	0.500000
C301	C30	0.181550	0.428600	0.500000
N231	N23	0.284660	0.127490	0.500000
C311	C31	0.318450	0.071400	0.500000
N241	N24	0.784660	0.627490	0.500000
C321	C32	0.818450	0.571400	0.500000
C331	C33	0.362800	0.000000	0.500000
C341	C34	0.862800	0.500000	0.500000
C351	C35	0.637200	0.000000	0.500000
C361	C36	0.137200	0.500000	0.500000
