data_MABKEG_clean_PM
_symmetry_space_group_name_H-M	'P1'
_cell_length_a	9.059000
_cell_length_b	11.784000
_cell_length_c	13.389600
_cell_angle_alpha	116.107000
_cell_angle_beta	90.937500
_cell_angle_gamma	90.000000
_symmetry_Int_Tables_number 1

loop_
_symmetry_equiv_pos_as_xyz
'x,y,z'

loop_
_atom_site_label
_atom_site_type_symbol
_atom_site_fract_x
_atom_site_fract_y
_atom_site_fract_z
Cu11	Cu1	0.580310	0.021080	0.588000
Cu21	Cu2	0.919690	0.433080	0.412000
Cu31	Cu3	0.419690	0.978920	0.412000
Cu41	Cu4	0.080310	0.566920	0.588000
H11	H1	0.579200	0.603200	0.420800
H21	H2	0.425500	0.625300	0.483000
H31	H3	0.311300	0.580300	0.301000
H41	H4	0.468600	0.524400	0.250800
H51	H5	0.442100	0.383900	0.343600
H61	H6	0.339800	0.350000	0.235000
H71	H7	0.757600	0.842900	0.650400
H81	H8	0.929800	0.837700	0.775800
H91	H9	0.895100	0.215400	0.943800
H101	H10	0.719800	0.208800	0.815600
H111	H11	0.121200	0.972300	0.924600
H121	H12	0.073800	0.112600	0.009000
H131	H13	0.920800	0.182400	0.579200
H141	H14	0.074500	0.142300	0.517000
H151	H15	0.188700	0.279300	0.699000
H161	H16	0.031400	0.273600	0.749200
H171	H17	0.057900	0.040300	0.656400
H181	H18	0.160200	0.115000	0.765000
H191	H19	0.742400	0.192500	0.349600
H201	H20	0.570200	0.061900	0.224200
H211	H21	0.604900	0.271600	0.056200
H221	H22	0.780200	0.393200	0.184400
H231	H23	0.378800	0.047700	0.075400
H241	H24	0.426200	0.103600	0.991000
H251	H25	0.420800	0.396800	0.579200
H261	H26	0.574500	0.374700	0.517000
H271	H27	0.688700	0.419700	0.699000
H281	H28	0.531400	0.475600	0.749200
H291	H29	0.557900	0.616100	0.656400
H301	H30	0.660200	0.650000	0.765000
H311	H31	0.242400	0.157100	0.349600
H321	H32	0.070200	0.162300	0.224200
H331	H33	0.104900	0.784600	0.056200
H341	H34	0.280200	0.791200	0.184400
H351	H35	0.878800	0.027700	0.075400
H361	H36	0.926200	0.887400	0.991000
H371	H37	0.079200	0.817600	0.420800
H381	H38	0.925500	0.857700	0.483000
H391	H39	0.811300	0.720700	0.301000
H401	H40	0.968600	0.726400	0.250800
H411	H41	0.942100	0.959700	0.343600
H421	H42	0.839800	0.885000	0.235000
H431	H43	0.257600	0.807500	0.650400
H441	H44	0.429800	0.938100	0.775800
H451	H45	0.395100	0.728400	0.943800
H461	H46	0.219800	0.606800	0.815600
H471	H47	0.621200	0.952300	0.924600
H481	H48	0.573800	0.896400	0.009000
C11	C1	0.479600	0.766100	0.441800
C21	C2	0.476200	0.631200	0.420400
C31	C3	0.401600	0.540400	0.313200
C41	C4	0.359700	0.414200	0.312400
C51	C5	0.224700	0.432200	0.380800
C61	C6	0.786600	0.920300	0.711400
C71	C7	0.887500	0.915800	0.786200
C81	C8	0.927700	0.027600	0.878000
C91	C9	0.866800	0.136500	0.884800
C101	C10	0.765200	0.132200	0.806600
C111	C11	0.036300	0.025800	0.962600
C121	C12	0.020400	0.324300	0.558200
C131	C13	0.023800	0.210800	0.579600
C141	C14	0.098400	0.227200	0.686800
C151	C15	0.140300	0.101800	0.687600
C161	C16	0.275300	0.051400	0.619200
C171	C17	0.713400	0.208900	0.288600
C181	C18	0.612500	0.129600	0.213800
C191	C19	0.572300	0.149600	0.122000
C201	C20	0.633200	0.251700	0.115200
C211	C21	0.734800	0.325600	0.193400
C221	C22	0.463700	0.063200	0.037400
C231	C23	0.520400	0.233900	0.558200
C241	C24	0.523800	0.368800	0.579600
C251	C25	0.598400	0.459600	0.686800
C261	C26	0.640300	0.585800	0.687600
C271	C27	0.775300	0.567800	0.619200
C281	C28	0.213400	0.079700	0.288600
C291	C29	0.112500	0.084200	0.213800
C301	C30	0.072300	0.972400	0.122000
C311	C31	0.133200	0.863500	0.115200
C321	C32	0.234800	0.867800	0.193400
C331	C33	0.963700	0.974200	0.037400
C341	C34	0.979600	0.675700	0.441800
C351	C35	0.976200	0.789200	0.420400
C361	C36	0.901600	0.772800	0.313200
C371	C37	0.859700	0.898200	0.312400
C381	C38	0.724700	0.948600	0.380800
C391	C39	0.286600	0.791100	0.711400
C401	C40	0.387500	0.870400	0.786200
C411	C41	0.427700	0.850400	0.878000
C421	C42	0.366800	0.748300	0.884800
C431	C43	0.265200	0.674400	0.806600
C441	C44	0.536300	0.936800	0.962600
N11	N1	0.726800	0.025500	0.718400
N21	N2	0.773200	0.307100	0.281600
N31	N3	0.273200	0.974500	0.281600
N41	N4	0.226800	0.692900	0.718400
O11	O1	0.549000	0.838600	0.528600
O21	O2	0.412600	0.799860	0.378120
O31	O3	0.105500	0.387600	0.330600
O41	O4	0.240200	0.492820	0.482840
O51	O5	0.951000	0.310000	0.471400
O61	O6	0.087400	0.421740	0.621880
O71	O7	0.394500	0.057000	0.669400
O81	O8	0.259800	0.009980	0.517160
O91	O9	0.451000	0.161400	0.471400
O101	O10	0.587400	0.200140	0.621880
O111	O11	0.894500	0.612400	0.669400
O121	O12	0.759800	0.507180	0.517160
O131	O13	0.049000	0.690000	0.528600
O141	O14	0.912600	0.578260	0.378120
O151	O15	0.605500	0.943000	0.330600
O161	O16	0.740200	0.990020	0.482840
