data_MACHIJ_clean_PM
_symmetry_space_group_name_H-M	'P1'
_cell_length_a	26.055000
_cell_length_b	26.055000
_cell_length_c	35.842000
_cell_angle_alpha	90.000000
_cell_angle_beta	90.000000
_cell_angle_gamma	120.000000
_symmetry_Int_Tables_number 1

loop_
_symmetry_equiv_pos_as_xyz
'x,y,z'

loop_
_atom_site_label
_atom_site_type_symbol
_atom_site_fract_x
_atom_site_fract_y
_atom_site_fract_z
Zn11	Zn1	0.860850	0.315150	0.944880
Zn21	Zn2	0.744850	0.333100	0.964860
Zn31	Zn3	0.454300	0.139150	0.944880
Zn41	Zn4	0.588250	0.255150	0.964860
Zn51	Zn5	0.684850	0.545700	0.944880
Zn61	Zn6	0.666900	0.411750	0.964860
Zn71	Zn7	0.139150	0.684850	0.444880
Zn81	Zn8	0.255150	0.666900	0.464860
Zn91	Zn9	0.545700	0.860850	0.444880
Zn101	Zn10	0.411750	0.744850	0.464860
Zn111	Zn11	0.315150	0.454300	0.444880
Zn121	Zn12	0.333100	0.588250	0.464860
Zn131	Zn13	0.545700	0.684850	0.555120
Zn141	Zn14	0.411750	0.666900	0.535140
Zn151	Zn15	0.315150	0.860850	0.555120
Zn161	Zn16	0.333100	0.744850	0.535140
Zn171	Zn17	0.139150	0.454300	0.555120
Zn181	Zn18	0.255150	0.588250	0.535140
Zn191	Zn19	0.454300	0.315150	0.055120
Zn201	Zn20	0.588250	0.333100	0.035140
Zn211	Zn21	0.684850	0.139150	0.055120
Zn221	Zn22	0.666900	0.255150	0.035140
Zn231	Zn23	0.860850	0.545700	0.055120
Zn241	Zn24	0.744850	0.411750	0.035140
Zn251	Zn25	0.139150	0.684850	0.055120
Zn261	Zn26	0.255150	0.666900	0.035140
Zn271	Zn27	0.545700	0.860850	0.055120
Zn281	Zn28	0.411750	0.744850	0.035140
Zn291	Zn29	0.315150	0.454300	0.055120
Zn301	Zn30	0.333100	0.588250	0.035140
Zn311	Zn31	0.860850	0.315150	0.555120
Zn321	Zn32	0.744850	0.333100	0.535140
Zn331	Zn33	0.454300	0.139150	0.555120
Zn341	Zn34	0.588250	0.255150	0.535140
Zn351	Zn35	0.684850	0.545700	0.555120
Zn361	Zn36	0.666900	0.411750	0.535140
Zn371	Zn37	0.454300	0.315150	0.444880
Zn381	Zn38	0.588250	0.333100	0.464860
Zn391	Zn39	0.684850	0.139150	0.444880
Zn401	Zn40	0.666900	0.255150	0.464860
Zn411	Zn41	0.860850	0.545700	0.444880
Zn421	Zn42	0.744850	0.411750	0.464860
Zn431	Zn43	0.545700	0.684850	0.944880
Zn441	Zn44	0.411750	0.666900	0.964860
Zn451	Zn45	0.315150	0.860850	0.944880
Zn461	Zn46	0.333100	0.744850	0.964860
Zn471	Zn47	0.139150	0.454300	0.944880
Zn481	Zn48	0.255150	0.588250	0.964860
Zn491	Zn49	0.000000	0.339900	0.937300
Zn501	Zn50	0.339900	0.000000	0.937300
Zn511	Zn51	0.660100	0.660100	0.937300
Zn521	Zn52	0.000000	0.660100	0.437300
Zn531	Zn53	0.660100	0.000000	0.437300
Zn541	Zn54	0.339900	0.339900	0.437300
Zn551	Zn55	0.660100	0.660100	0.562700
Zn561	Zn56	0.339900	0.000000	0.562700
Zn571	Zn57	0.000000	0.339900	0.562700
Zn581	Zn58	0.339900	0.339900	0.062700
Zn591	Zn59	0.660100	0.000000	0.062700
Zn601	Zn60	0.000000	0.660100	0.062700
H11	H1	0.774600	0.125400	0.957000
H21	H2	0.943500	0.161400	0.945600
H31	H3	0.911800	0.059400	0.948400
H41	H4	0.838700	0.310200	0.830800
H51	H5	0.741500	0.414200	0.789600
H61	H6	0.746200	0.394400	0.853300
H71	H7	0.829200	0.296400	0.022300
H81	H8	0.865900	0.365200	0.022100
H91	H9	0.814600	0.368900	0.059800
H101	H10	0.779200	0.299500	0.061100
H111	H11	0.955700	0.428700	0.984300
H121	H12	0.955700	0.445900	0.942500
H131	H13	0.350800	0.225400	0.957000
H141	H14	0.217900	0.056500	0.945600
H151	H15	0.147600	0.088200	0.948400
H161	H16	0.471500	0.161300	0.830800
H171	H17	0.672700	0.258500	0.789600
H181	H18	0.648200	0.253800	0.853300
H191	H19	0.467200	0.170800	0.022300
H201	H20	0.499300	0.134100	0.022100
H211	H21	0.554300	0.185400	0.059800
H221	H22	0.520300	0.220800	0.061100
H231	H23	0.473000	0.044300	0.984300
H241	H24	0.490200	0.044300	0.942500
H251	H25	0.874600	0.649200	0.957000
H261	H26	0.838600	0.782100	0.945600
H271	H27	0.940600	0.852400	0.948400
H281	H28	0.689800	0.528500	0.830800
H291	H29	0.585800	0.327300	0.789600
H301	H30	0.605600	0.351800	0.853300
H311	H31	0.703600	0.532800	0.022300
H321	H32	0.634800	0.500700	0.022100
H331	H33	0.631100	0.445700	0.059800
H341	H34	0.700500	0.479700	0.061100
H351	H35	0.571300	0.527000	0.984300
H361	H36	0.554100	0.509800	0.942500
H371	H37	0.225400	0.874600	0.457000
H381	H38	0.056500	0.838600	0.445600
H391	H39	0.088200	0.940600	0.448400
H401	H40	0.161300	0.689800	0.330800
H411	H41	0.258500	0.585800	0.289600
H421	H42	0.253800	0.605600	0.353300
H431	H43	0.170800	0.703600	0.522300
H441	H44	0.134100	0.634800	0.522100
H451	H45	0.185400	0.631100	0.559800
H461	H46	0.220800	0.700500	0.561100
H471	H47	0.044300	0.571300	0.484300
H481	H48	0.044300	0.554100	0.442500
H491	H49	0.649200	0.774600	0.457000
H501	H50	0.782100	0.943500	0.445600
H511	H51	0.852400	0.911800	0.448400
H521	H52	0.528500	0.838700	0.330800
H531	H53	0.327300	0.741500	0.289600
H541	H54	0.351800	0.746200	0.353300
H551	H55	0.532800	0.829200	0.522300
H561	H56	0.500700	0.865900	0.522100
H571	H57	0.445700	0.814600	0.559800
H581	H58	0.479700	0.779200	0.561100
H591	H59	0.527000	0.955700	0.484300
H601	H60	0.509800	0.955700	0.442500
H611	H61	0.125400	0.350800	0.457000
H621	H62	0.161400	0.217900	0.445600
H631	H63	0.059400	0.147600	0.448400
H641	H64	0.310200	0.471500	0.330800
H651	H65	0.414200	0.672700	0.289600
H661	H66	0.394400	0.648200	0.353300
H671	H67	0.296400	0.467200	0.522300
H681	H68	0.365200	0.499300	0.522100
H691	H69	0.368900	0.554300	0.559800
H701	H70	0.299500	0.520300	0.561100
H711	H71	0.428700	0.473000	0.484300
H721	H72	0.445900	0.490200	0.442500
H731	H73	0.649200	0.874600	0.543000
H741	H74	0.782100	0.838600	0.554400
H751	H75	0.852400	0.940600	0.551600
H761	H76	0.528500	0.689800	0.669200
H771	H77	0.327300	0.585800	0.710400
H781	H78	0.351800	0.605600	0.646700
H791	H79	0.532800	0.703600	0.477700
H801	H80	0.500700	0.634800	0.477900
H811	H81	0.445700	0.631100	0.440200
H821	H82	0.479700	0.700500	0.438900
H831	H83	0.527000	0.571300	0.515700
H841	H84	0.509800	0.554100	0.557500
H851	H85	0.125400	0.774600	0.543000
H861	H86	0.161400	0.943500	0.554400
H871	H87	0.059400	0.911800	0.551600
H881	H88	0.310200	0.838700	0.669200
H891	H89	0.414200	0.741500	0.710400
H901	H90	0.394400	0.746200	0.646700
H911	H91	0.296400	0.829200	0.477700
H921	H92	0.365200	0.865900	0.477900
H931	H93	0.368900	0.814600	0.440200
H941	H94	0.299500	0.779200	0.438900
H951	H95	0.428700	0.955700	0.515700
H961	H96	0.445900	0.955700	0.557500
H971	H97	0.225400	0.350800	0.543000
H981	H98	0.056500	0.217900	0.554400
H991	H99	0.088200	0.147600	0.551600
H1001	H100	0.161300	0.471500	0.669200
H1011	H101	0.258500	0.672700	0.710400
H1021	H102	0.253800	0.648200	0.646700
H1031	H103	0.170800	0.467200	0.477700
H1041	H104	0.134100	0.499300	0.477900
H1051	H105	0.185400	0.554300	0.440200
H1061	H106	0.220800	0.520300	0.438900
H1071	H107	0.044300	0.473000	0.515700
H1081	H108	0.044300	0.490200	0.557500
H1091	H109	0.350800	0.125400	0.043000
H1101	H110	0.217900	0.161400	0.054400
H1111	H111	0.147600	0.059400	0.051600
H1121	H112	0.471500	0.310200	0.169200
H1131	H113	0.672700	0.414200	0.210400
H1141	H114	0.648200	0.394400	0.146700
H1151	H115	0.467200	0.296400	0.977700
H1161	H116	0.499300	0.365200	0.977900
H1171	H117	0.554300	0.368900	0.940200
H1181	H118	0.520300	0.299500	0.938900
H1191	H119	0.473000	0.428700	0.015700
H1201	H120	0.490200	0.445900	0.057500
H1211	H121	0.874600	0.225400	0.043000
H1221	H122	0.838600	0.056500	0.054400
H1231	H123	0.940600	0.088200	0.051600
H1241	H124	0.689800	0.161300	0.169200
H1251	H125	0.585800	0.258500	0.210400
H1261	H126	0.605600	0.253800	0.146700
H1271	H127	0.703600	0.170800	0.977700
H1281	H128	0.634800	0.134100	0.977900
H1291	H129	0.631100	0.185400	0.940200
H1301	H130	0.700500	0.220800	0.938900
H1311	H131	0.571300	0.044300	0.015700
H1321	H132	0.554100	0.044300	0.057500
H1331	H133	0.774600	0.649200	0.043000
H1341	H134	0.943500	0.782100	0.054400
H1351	H135	0.911800	0.852400	0.051600
H1361	H136	0.838700	0.528500	0.169200
H1371	H137	0.741500	0.327300	0.210400
H1381	H138	0.746200	0.351800	0.146700
H1391	H139	0.829200	0.532800	0.977700
H1401	H140	0.865900	0.500700	0.977900
H1411	H141	0.814600	0.445700	0.940200
H1421	H142	0.779200	0.479700	0.938900
H1431	H143	0.955700	0.527000	0.015700
H1441	H144	0.955700	0.509800	0.057500
H1451	H145	0.225400	0.874600	0.043000
H1461	H146	0.056500	0.838600	0.054400
H1471	H147	0.088200	0.940600	0.051600
H1481	H148	0.161300	0.689800	0.169200
H1491	H149	0.258500	0.585800	0.210400
H1501	H150	0.253800	0.605600	0.146700
H1511	H151	0.170800	0.703600	0.977700
H1521	H152	0.134100	0.634800	0.977900
H1531	H153	0.185400	0.631100	0.940200
H1541	H154	0.220800	0.700500	0.938900
H1551	H155	0.044300	0.571300	0.015700
H1561	H156	0.044300	0.554100	0.057500
H1571	H157	0.649200	0.774600	0.043000
H1581	H158	0.782100	0.943500	0.054400
H1591	H159	0.852400	0.911800	0.051600
H1601	H160	0.528500	0.838700	0.169200
H1611	H161	0.327300	0.741500	0.210400
H1621	H162	0.351800	0.746200	0.146700
H1631	H163	0.532800	0.829200	0.977700
H1641	H164	0.500700	0.865900	0.977900
H1651	H165	0.445700	0.814600	0.940200
H1661	H166	0.479700	0.779200	0.938900
H1671	H167	0.527000	0.955700	0.015700
H1681	H168	0.509800	0.955700	0.057500
H1691	H169	0.125400	0.350800	0.043000
H1701	H170	0.161400	0.217900	0.054400
H1711	H171	0.059400	0.147600	0.051600
H1721	H172	0.310200	0.471500	0.169200
H1731	H173	0.414200	0.672700	0.210400
H1741	H174	0.394400	0.648200	0.146700
H1751	H175	0.296400	0.467200	0.977700
H1761	H176	0.365200	0.499300	0.977900
H1771	H177	0.368900	0.554300	0.940200
H1781	H178	0.299500	0.520300	0.938900
H1791	H179	0.428700	0.473000	0.015700
H1801	H180	0.445900	0.490200	0.057500
H1811	H181	0.774600	0.125400	0.543000
H1821	H182	0.943500	0.161400	0.554400
H1831	H183	0.911800	0.059400	0.551600
H1841	H184	0.838700	0.310200	0.669200
H1851	H185	0.741500	0.414200	0.710400
H1861	H186	0.746200	0.394400	0.646700
H1871	H187	0.829200	0.296400	0.477700
H1881	H188	0.865900	0.365200	0.477900
H1891	H189	0.814600	0.368900	0.440200
H1901	H190	0.779200	0.299500	0.438900
H1911	H191	0.955700	0.428700	0.515700
H1921	H192	0.955700	0.445900	0.557500
H1931	H193	0.350800	0.225400	0.543000
H1941	H194	0.217900	0.056500	0.554400
H1951	H195	0.147600	0.088200	0.551600
H1961	H196	0.471500	0.161300	0.669200
H1971	H197	0.672700	0.258500	0.710400
H1981	H198	0.648200	0.253800	0.646700
H1991	H199	0.467200	0.170800	0.477700
H2001	H200	0.499300	0.134100	0.477900
H2011	H201	0.554300	0.185400	0.440200
H2021	H202	0.520300	0.220800	0.438900
H2031	H203	0.473000	0.044300	0.515700
H2041	H204	0.490200	0.044300	0.557500
H2051	H205	0.874600	0.649200	0.543000
H2061	H206	0.838600	0.782100	0.554400
H2071	H207	0.940600	0.852400	0.551600
H2081	H208	0.689800	0.528500	0.669200
H2091	H209	0.585800	0.327300	0.710400
H2101	H210	0.605600	0.351800	0.646700
H2111	H211	0.703600	0.532800	0.477700
H2121	H212	0.634800	0.500700	0.477900
H2131	H213	0.631100	0.445700	0.440200
H2141	H214	0.700500	0.479700	0.438900
H2151	H215	0.571300	0.527000	0.515700
H2161	H216	0.554100	0.509800	0.557500
H2171	H217	0.350800	0.125400	0.457000
H2181	H218	0.217900	0.161400	0.445600
H2191	H219	0.147600	0.059400	0.448400
H2201	H220	0.471500	0.310200	0.330800
H2211	H221	0.672700	0.414200	0.289600
H2221	H222	0.648200	0.394400	0.353300
H2231	H223	0.467200	0.296400	0.522300
H2241	H224	0.499300	0.365200	0.522100
H2251	H225	0.554300	0.368900	0.559800
H2261	H226	0.520300	0.299500	0.561100
H2271	H227	0.473000	0.428700	0.484300
H2281	H228	0.490200	0.445900	0.442500
H2291	H229	0.874600	0.225400	0.457000
H2301	H230	0.838600	0.056500	0.445600
H2311	H231	0.940600	0.088200	0.448400
H2321	H232	0.689800	0.161300	0.330800
H2331	H233	0.585800	0.258500	0.289600
H2341	H234	0.605600	0.253800	0.353300
H2351	H235	0.703600	0.170800	0.522300
H2361	H236	0.634800	0.134100	0.522100
H2371	H237	0.631100	0.185400	0.559800
H2381	H238	0.700500	0.220800	0.561100
H2391	H239	0.571300	0.044300	0.484300
H2401	H240	0.554100	0.044300	0.442500
H2411	H241	0.774600	0.649200	0.457000
H2421	H242	0.943500	0.782100	0.445600
H2431	H243	0.911800	0.852400	0.448400
H2441	H244	0.838700	0.528500	0.330800
H2451	H245	0.741500	0.327300	0.289600
H2461	H246	0.746200	0.351800	0.353300
H2471	H247	0.829200	0.532800	0.522300
H2481	H248	0.865900	0.500700	0.522100
H2491	H249	0.814600	0.445700	0.559800
H2501	H250	0.779200	0.479700	0.561100
H2511	H251	0.955700	0.527000	0.484300
H2521	H252	0.955700	0.509800	0.442500
H2531	H253	0.649200	0.874600	0.957000
H2541	H254	0.782100	0.838600	0.945600
H2551	H255	0.852400	0.940600	0.948400
H2561	H256	0.528500	0.689800	0.830800
H2571	H257	0.327300	0.585800	0.789600
H2581	H258	0.351800	0.605600	0.853300
H2591	H259	0.532800	0.703600	0.022300
H2601	H260	0.500700	0.634800	0.022100
H2611	H261	0.445700	0.631100	0.059800
H2621	H262	0.479700	0.700500	0.061100
H2631	H263	0.527000	0.571300	0.984300
H2641	H264	0.509800	0.554100	0.942500
H2651	H265	0.125400	0.774600	0.957000
H2661	H266	0.161400	0.943500	0.945600
H2671	H267	0.059400	0.911800	0.948400
H2681	H268	0.310200	0.838700	0.830800
H2691	H269	0.414200	0.741500	0.789600
H2701	H270	0.394400	0.746200	0.853300
H2711	H271	0.296400	0.829200	0.022300
H2721	H272	0.365200	0.865900	0.022100
H2731	H273	0.368900	0.814600	0.059800
H2741	H274	0.299500	0.779200	0.061100
H2751	H275	0.428700	0.955700	0.984300
H2761	H276	0.445900	0.955700	0.942500
H2771	H277	0.225400	0.350800	0.957000
H2781	H278	0.056500	0.217900	0.945600
H2791	H279	0.088200	0.147600	0.948400
H2801	H280	0.161300	0.471500	0.830800
H2811	H281	0.258500	0.672700	0.789600
H2821	H282	0.253800	0.648200	0.853300
H2831	H283	0.170800	0.467200	0.022300
H2841	H284	0.134100	0.499300	0.022100
H2851	H285	0.185400	0.554300	0.059800
H2861	H286	0.220800	0.520300	0.061100
H2871	H287	0.044300	0.473000	0.984300
H2881	H288	0.044300	0.490200	0.942500
C11	C1	0.884200	0.218500	0.948650
C21	C2	0.862400	0.153400	0.951450
C31	C3	0.802000	0.112600	0.955230
C41	C4	0.903400	0.133800	0.948400
C51	C5	0.783700	0.052500	0.956200
C61	C6	0.884700	0.072700	0.949700
C71	C7	0.824700	0.033600	0.953000
C81	C8	0.796600	0.340700	0.885700
C91	C9	0.792000	0.352000	0.845900
C101	C10	0.819000	0.329600	0.822600
C111	C11	0.812300	0.340300	0.784800
C121	C12	0.785200	0.370300	0.770900
C131	C13	0.759600	0.393100	0.797400
C141	C14	0.763200	0.381700	0.835400
C151	C15	0.826600	0.331800	0.017660
C161	C16	0.791500	0.333500	0.044950
C171	C17	0.969300	0.426300	0.959500
C181	C18	0.334300	0.115800	0.948650
C191	C19	0.291000	0.137600	0.951450
C201	C20	0.310600	0.198000	0.955230
C211	C21	0.230400	0.096600	0.948400
C221	C22	0.268800	0.216300	0.956200
C231	C23	0.188000	0.115300	0.949700
C241	C24	0.208900	0.175300	0.953000
C251	C25	0.544100	0.203400	0.885700
C261	C26	0.560000	0.208000	0.845900
C271	C27	0.510600	0.181000	0.822600
C281	C28	0.528000	0.187700	0.784800
C291	C29	0.585100	0.214800	0.770900
C301	C30	0.633500	0.240400	0.797400
C311	C31	0.618500	0.236800	0.835400
C321	C32	0.505200	0.173400	0.017660
C331	C33	0.542000	0.208500	0.044950
C341	C34	0.457000	0.030700	0.959500
C351	C35	0.781500	0.665700	0.948650
C361	C36	0.846600	0.709000	0.951450
C371	C37	0.887400	0.689400	0.955230
C381	C38	0.866200	0.769600	0.948400
C391	C39	0.947500	0.731200	0.956200
C401	C40	0.927300	0.812000	0.949700
C411	C41	0.966400	0.791100	0.953000
C421	C42	0.659300	0.455900	0.885700
C431	C43	0.648000	0.440000	0.845900
C441	C44	0.670400	0.489400	0.822600
C451	C45	0.659700	0.472000	0.784800
C461	C46	0.629700	0.414900	0.770900
C471	C47	0.606900	0.366500	0.797400
C481	C48	0.618300	0.381500	0.835400
C491	C49	0.668200	0.494800	0.017660
C501	C50	0.666500	0.458000	0.044950
C511	C51	0.573700	0.543000	0.959500
C521	C52	0.115800	0.781500	0.448650
C531	C53	0.137600	0.846600	0.451450
C541	C54	0.198000	0.887400	0.455230
C551	C55	0.096600	0.866200	0.448400
C561	C56	0.216300	0.947500	0.456200
C571	C57	0.115300	0.927300	0.449700
C581	C58	0.175300	0.966400	0.453000
C591	C59	0.203400	0.659300	0.385700
C601	C60	0.208000	0.648000	0.345900
C611	C61	0.181000	0.670400	0.322600
C621	C62	0.187700	0.659700	0.284800
C631	C63	0.214800	0.629700	0.270900
C641	C64	0.240400	0.606900	0.297400
C651	C65	0.236800	0.618300	0.335400
C661	C66	0.173400	0.668200	0.517660
C671	C67	0.208500	0.666500	0.544950
C681	C68	0.030700	0.573700	0.459500
C691	C69	0.665700	0.884200	0.448650
C701	C70	0.709000	0.862400	0.451450
C711	C71	0.689400	0.802000	0.455230
C721	C72	0.769600	0.903400	0.448400
C731	C73	0.731200	0.783700	0.456200
C741	C74	0.812000	0.884700	0.449700
C751	C75	0.791100	0.824700	0.453000
C761	C76	0.455900	0.796600	0.385700
C771	C77	0.440000	0.792000	0.345900
C781	C78	0.489400	0.819000	0.322600
C791	C79	0.472000	0.812300	0.284800
C801	C80	0.414900	0.785200	0.270900
C811	C81	0.366500	0.759600	0.297400
C821	C82	0.381500	0.763200	0.335400
C831	C83	0.494800	0.826600	0.517660
C841	C84	0.458000	0.791500	0.544950
C851	C85	0.543000	0.969300	0.459500
C861	C86	0.218500	0.334300	0.448650
C871	C87	0.153400	0.291000	0.451450
C881	C88	0.112600	0.310600	0.455230
C891	C89	0.133800	0.230400	0.448400
C901	C90	0.052500	0.268800	0.456200
C911	C91	0.072700	0.188000	0.449700
C921	C92	0.033600	0.208900	0.453000
C931	C93	0.340700	0.544100	0.385700
C941	C94	0.352000	0.560000	0.345900
C951	C95	0.329600	0.510600	0.322600
C961	C96	0.340300	0.528000	0.284800
C971	C97	0.370300	0.585100	0.270900
C981	C98	0.393100	0.633500	0.297400
C991	C99	0.381700	0.618500	0.335400
C1001	C100	0.331800	0.505200	0.517660
C1011	C101	0.333500	0.542000	0.544950
C1021	C102	0.426300	0.457000	0.459500
C1031	C103	0.665700	0.781500	0.551350
C1041	C104	0.709000	0.846600	0.548550
C1051	C105	0.689400	0.887400	0.544770
C1061	C106	0.769600	0.866200	0.551600
C1071	C107	0.731200	0.947500	0.543800
C1081	C108	0.812000	0.927300	0.550300
C1091	C109	0.791100	0.966400	0.547000
C1101	C110	0.455900	0.659300	0.614300
C1111	C111	0.440000	0.648000	0.654100
C1121	C112	0.489400	0.670400	0.677400
C1131	C113	0.472000	0.659700	0.715200
C1141	C114	0.414900	0.629700	0.729100
C1151	C115	0.366500	0.606900	0.702600
C1161	C116	0.381500	0.618300	0.664600
C1171	C117	0.494800	0.668200	0.482340
C1181	C118	0.458000	0.666500	0.455050
C1191	C119	0.543000	0.573700	0.540500
C1201	C120	0.218500	0.884200	0.551350
C1211	C121	0.153400	0.862400	0.548550
C1221	C122	0.112600	0.802000	0.544770
C1231	C123	0.133800	0.903400	0.551600
C1241	C124	0.052500	0.783700	0.543800
C1251	C125	0.072700	0.884700	0.550300
C1261	C126	0.033600	0.824700	0.547000
C1271	C127	0.340700	0.796600	0.614300
C1281	C128	0.352000	0.792000	0.654100
C1291	C129	0.329600	0.819000	0.677400
C1301	C130	0.340300	0.812300	0.715200
C1311	C131	0.370300	0.785200	0.729100
C1321	C132	0.393100	0.759600	0.702600
C1331	C133	0.381700	0.763200	0.664600
C1341	C134	0.331800	0.826600	0.482340
C1351	C135	0.333500	0.791500	0.455050
C1361	C136	0.426300	0.969300	0.540500
C1371	C137	0.115800	0.334300	0.551350
C1381	C138	0.137600	0.291000	0.548550
C1391	C139	0.198000	0.310600	0.544770
C1401	C140	0.096600	0.230400	0.551600
C1411	C141	0.216300	0.268800	0.543800
C1421	C142	0.115300	0.188000	0.550300
C1431	C143	0.175300	0.208900	0.547000
C1441	C144	0.203400	0.544100	0.614300
C1451	C145	0.208000	0.560000	0.654100
C1461	C146	0.181000	0.510600	0.677400
C1471	C147	0.187700	0.528000	0.715200
C1481	C148	0.214800	0.585100	0.729100
C1491	C149	0.240400	0.633500	0.702600
C1501	C150	0.236800	0.618500	0.664600
C1511	C151	0.173400	0.505200	0.482340
C1521	C152	0.208500	0.542000	0.455050
C1531	C153	0.030700	0.457000	0.540500
C1541	C154	0.334300	0.218500	0.051350
C1551	C155	0.291000	0.153400	0.048550
C1561	C156	0.310600	0.112600	0.044770
C1571	C157	0.230400	0.133800	0.051600
C1581	C158	0.268800	0.052500	0.043800
C1591	C159	0.188000	0.072700	0.050300
C1601	C160	0.208900	0.033600	0.047000
C1611	C161	0.544100	0.340700	0.114300
C1621	C162	0.560000	0.352000	0.154100
C1631	C163	0.510600	0.329600	0.177400
C1641	C164	0.528000	0.340300	0.215200
C1651	C165	0.585100	0.370300	0.229100
C1661	C166	0.633500	0.393100	0.202600
C1671	C167	0.618500	0.381700	0.164600
C1681	C168	0.505200	0.331800	0.982340
C1691	C169	0.542000	0.333500	0.955050
C1701	C170	0.457000	0.426300	0.040500
C1711	C171	0.781500	0.115800	0.051350
C1721	C172	0.846600	0.137600	0.048550
C1731	C173	0.887400	0.198000	0.044770
C1741	C174	0.866200	0.096600	0.051600
C1751	C175	0.947500	0.216300	0.043800
C1761	C176	0.927300	0.115300	0.050300
C1771	C177	0.966400	0.175300	0.047000
C1781	C178	0.659300	0.203400	0.114300
C1791	C179	0.648000	0.208000	0.154100
C1801	C180	0.670400	0.181000	0.177400
C1811	C181	0.659700	0.187700	0.215200
C1821	C182	0.629700	0.214800	0.229100
C1831	C183	0.606900	0.240400	0.202600
C1841	C184	0.618300	0.236800	0.164600
C1851	C185	0.668200	0.173400	0.982340
C1861	C186	0.666500	0.208500	0.955050
C1871	C187	0.573700	0.030700	0.040500
C1881	C188	0.884200	0.665700	0.051350
C1891	C189	0.862400	0.709000	0.048550
C1901	C190	0.802000	0.689400	0.044770
C1911	C191	0.903400	0.769600	0.051600
C1921	C192	0.783700	0.731200	0.043800
C1931	C193	0.884700	0.812000	0.050300
C1941	C194	0.824700	0.791100	0.047000
C1951	C195	0.796600	0.455900	0.114300
C1961	C196	0.792000	0.440000	0.154100
C1971	C197	0.819000	0.489400	0.177400
C1981	C198	0.812300	0.472000	0.215200
C1991	C199	0.785200	0.414900	0.229100
C2001	C200	0.759600	0.366500	0.202600
C2011	C201	0.763200	0.381500	0.164600
C2021	C202	0.826600	0.494800	0.982340
C2031	C203	0.791500	0.458000	0.955050
C2041	C204	0.969300	0.543000	0.040500
C2051	C205	0.115800	0.781500	0.051350
C2061	C206	0.137600	0.846600	0.048550
C2071	C207	0.198000	0.887400	0.044770
C2081	C208	0.096600	0.866200	0.051600
C2091	C209	0.216300	0.947500	0.043800
C2101	C210	0.115300	0.927300	0.050300
C2111	C211	0.175300	0.966400	0.047000
C2121	C212	0.203400	0.659300	0.114300
C2131	C213	0.208000	0.648000	0.154100
C2141	C214	0.181000	0.670400	0.177400
C2151	C215	0.187700	0.659700	0.215200
C2161	C216	0.214800	0.629700	0.229100
C2171	C217	0.240400	0.606900	0.202600
C2181	C218	0.236800	0.618300	0.164600
C2191	C219	0.173400	0.668200	0.982340
C2201	C220	0.208500	0.666500	0.955050
C2211	C221	0.030700	0.573700	0.040500
C2221	C222	0.665700	0.884200	0.051350
C2231	C223	0.709000	0.862400	0.048550
C2241	C224	0.689400	0.802000	0.044770
C2251	C225	0.769600	0.903400	0.051600
C2261	C226	0.731200	0.783700	0.043800
C2271	C227	0.812000	0.884700	0.050300
C2281	C228	0.791100	0.824700	0.047000
C2291	C229	0.455900	0.796600	0.114300
C2301	C230	0.440000	0.792000	0.154100
C2311	C231	0.489400	0.819000	0.177400
C2321	C232	0.472000	0.812300	0.215200
C2331	C233	0.414900	0.785200	0.229100
C2341	C234	0.366500	0.759600	0.202600
C2351	C235	0.381500	0.763200	0.164600
C2361	C236	0.494800	0.826600	0.982340
C2371	C237	0.458000	0.791500	0.955050
C2381	C238	0.543000	0.969300	0.040500
C2391	C239	0.218500	0.334300	0.051350
C2401	C240	0.153400	0.291000	0.048550
C2411	C241	0.112600	0.310600	0.044770
C2421	C242	0.133800	0.230400	0.051600
C2431	C243	0.052500	0.268800	0.043800
C2441	C244	0.072700	0.188000	0.050300
C2451	C245	0.033600	0.208900	0.047000
C2461	C246	0.340700	0.544100	0.114300
C2471	C247	0.352000	0.560000	0.154100
C2481	C248	0.329600	0.510600	0.177400
C2491	C249	0.340300	0.528000	0.215200
C2501	C250	0.370300	0.585100	0.229100
C2511	C251	0.393100	0.633500	0.202600
C2521	C252	0.381700	0.618500	0.164600
C2531	C253	0.331800	0.505200	0.982340
C2541	C254	0.333500	0.542000	0.955050
C2551	C255	0.426300	0.457000	0.040500
C2561	C256	0.884200	0.218500	0.551350
C2571	C257	0.862400	0.153400	0.548550
C2581	C258	0.802000	0.112600	0.544770
C2591	C259	0.903400	0.133800	0.551600
C2601	C260	0.783700	0.052500	0.543800
C2611	C261	0.884700	0.072700	0.550300
C2621	C262	0.824700	0.033600	0.547000
C2631	C263	0.796600	0.340700	0.614300
C2641	C264	0.792000	0.352000	0.654100
C2651	C265	0.819000	0.329600	0.677400
C2661	C266	0.812300	0.340300	0.715200
C2671	C267	0.785200	0.370300	0.729100
C2681	C268	0.759600	0.393100	0.702600
C2691	C269	0.763200	0.381700	0.664600
C2701	C270	0.826600	0.331800	0.482340
C2711	C271	0.791500	0.333500	0.455050
C2721	C272	0.969300	0.426300	0.540500
C2731	C273	0.334300	0.115800	0.551350
C2741	C274	0.291000	0.137600	0.548550
C2751	C275	0.310600	0.198000	0.544770
C2761	C276	0.230400	0.096600	0.551600
C2771	C277	0.268800	0.216300	0.543800
C2781	C278	0.188000	0.115300	0.550300
C2791	C279	0.208900	0.175300	0.547000
C2801	C280	0.544100	0.203400	0.614300
C2811	C281	0.560000	0.208000	0.654100
C2821	C282	0.510600	0.181000	0.677400
C2831	C283	0.528000	0.187700	0.715200
C2841	C284	0.585100	0.214800	0.729100
C2851	C285	0.633500	0.240400	0.702600
C2861	C286	0.618500	0.236800	0.664600
C2871	C287	0.505200	0.173400	0.482340
C2881	C288	0.542000	0.208500	0.455050
C2891	C289	0.457000	0.030700	0.540500
C2901	C290	0.781500	0.665700	0.551350
C2911	C291	0.846600	0.709000	0.548550
C2921	C292	0.887400	0.689400	0.544770
C2931	C293	0.866200	0.769600	0.551600
C2941	C294	0.947500	0.731200	0.543800
C2951	C295	0.927300	0.812000	0.550300
C2961	C296	0.966400	0.791100	0.547000
C2971	C297	0.659300	0.455900	0.614300
C2981	C298	0.648000	0.440000	0.654100
C2991	C299	0.670400	0.489400	0.677400
C3001	C300	0.659700	0.472000	0.715200
C3011	C301	0.629700	0.414900	0.729100
C3021	C302	0.606900	0.366500	0.702600
C3031	C303	0.618300	0.381500	0.664600
C3041	C304	0.668200	0.494800	0.482340
C3051	C305	0.666500	0.458000	0.455050
C3061	C306	0.573700	0.543000	0.540500
C3071	C307	0.334300	0.218500	0.448650
C3081	C308	0.291000	0.153400	0.451450
C3091	C309	0.310600	0.112600	0.455230
C3101	C310	0.230400	0.133800	0.448400
C3111	C311	0.268800	0.052500	0.456200
C3121	C312	0.188000	0.072700	0.449700
C3131	C313	0.208900	0.033600	0.453000
C3141	C314	0.544100	0.340700	0.385700
C3151	C315	0.560000	0.352000	0.345900
C3161	C316	0.510600	0.329600	0.322600
C3171	C317	0.528000	0.340300	0.284800
C3181	C318	0.585100	0.370300	0.270900
C3191	C319	0.633500	0.393100	0.297400
C3201	C320	0.618500	0.381700	0.335400
C3211	C321	0.505200	0.331800	0.517660
C3221	C322	0.542000	0.333500	0.544950
C3231	C323	0.457000	0.426300	0.459500
C3241	C324	0.781500	0.115800	0.448650
C3251	C325	0.846600	0.137600	0.451450
C3261	C326	0.887400	0.198000	0.455230
C3271	C327	0.866200	0.096600	0.448400
C3281	C328	0.947500	0.216300	0.456200
C3291	C329	0.927300	0.115300	0.449700
C3301	C330	0.966400	0.175300	0.453000
C3311	C331	0.659300	0.203400	0.385700
C3321	C332	0.648000	0.208000	0.345900
C3331	C333	0.670400	0.181000	0.322600
C3341	C334	0.659700	0.187700	0.284800
C3351	C335	0.629700	0.214800	0.270900
C3361	C336	0.606900	0.240400	0.297400
C3371	C337	0.618300	0.236800	0.335400
C3381	C338	0.668200	0.173400	0.517660
C3391	C339	0.666500	0.208500	0.544950
C3401	C340	0.573700	0.030700	0.459500
C3411	C341	0.884200	0.665700	0.448650
C3421	C342	0.862400	0.709000	0.451450
C3431	C343	0.802000	0.689400	0.455230
C3441	C344	0.903400	0.769600	0.448400
C3451	C345	0.783700	0.731200	0.456200
C3461	C346	0.884700	0.812000	0.449700
C3471	C347	0.824700	0.791100	0.453000
C3481	C348	0.796600	0.455900	0.385700
C3491	C349	0.792000	0.440000	0.345900
C3501	C350	0.819000	0.489400	0.322600
C3511	C351	0.812300	0.472000	0.284800
C3521	C352	0.785200	0.414900	0.270900
C3531	C353	0.759600	0.366500	0.297400
C3541	C354	0.763200	0.381500	0.335400
C3551	C355	0.826600	0.494800	0.517660
C3561	C356	0.791500	0.458000	0.544950
C3571	C357	0.969300	0.543000	0.459500
C3581	C358	0.665700	0.781500	0.948650
C3591	C359	0.709000	0.846600	0.951450
C3601	C360	0.689400	0.887400	0.955230
C3611	C361	0.769600	0.866200	0.948400
C3621	C362	0.731200	0.947500	0.956200
C3631	C363	0.812000	0.927300	0.949700
C3641	C364	0.791100	0.966400	0.953000
C3651	C365	0.455900	0.659300	0.885700
C3661	C366	0.440000	0.648000	0.845900
C3671	C367	0.489400	0.670400	0.822600
C3681	C368	0.472000	0.659700	0.784800
C3691	C369	0.414900	0.629700	0.770900
C3701	C370	0.366500	0.606900	0.797400
C3711	C371	0.381500	0.618300	0.835400
C3721	C372	0.494800	0.668200	0.017660
C3731	C373	0.458000	0.666500	0.044950
C3741	C374	0.543000	0.573700	0.959500
C3751	C375	0.218500	0.884200	0.948650
C3761	C376	0.153400	0.862400	0.951450
C3771	C377	0.112600	0.802000	0.955230
C3781	C378	0.133800	0.903400	0.948400
C3791	C379	0.052500	0.783700	0.956200
C3801	C380	0.072700	0.884700	0.949700
C3811	C381	0.033600	0.824700	0.953000
C3821	C382	0.340700	0.796600	0.885700
C3831	C383	0.352000	0.792000	0.845900
C3841	C384	0.329600	0.819000	0.822600
C3851	C385	0.340300	0.812300	0.784800
C3861	C386	0.370300	0.785200	0.770900
C3871	C387	0.393100	0.759600	0.797400
C3881	C388	0.381700	0.763200	0.835400
C3891	C389	0.331800	0.826600	0.017660
C3901	C390	0.333500	0.791500	0.044950
C3911	C391	0.426300	0.969300	0.959500
C3921	C392	0.115800	0.334300	0.948650
C3931	C393	0.137600	0.291000	0.951450
C3941	C394	0.198000	0.310600	0.955230
C3951	C395	0.096600	0.230400	0.948400
C3961	C396	0.216300	0.268800	0.956200
C3971	C397	0.115300	0.188000	0.949700
C3981	C398	0.175300	0.208900	0.953000
C3991	C399	0.203400	0.544100	0.885700
C4001	C400	0.208000	0.560000	0.845900
C4011	C401	0.181000	0.510600	0.822600
C4021	C402	0.187700	0.528000	0.784800
C4031	C403	0.214800	0.585100	0.770900
C4041	C404	0.240400	0.633500	0.797400
C4051	C405	0.236800	0.618500	0.835400
C4061	C406	0.173400	0.505200	0.017660
C4071	C407	0.208500	0.542000	0.044950
C4081	C408	0.030700	0.457000	0.959500
C4091	C409	0.722300	0.000000	0.958300
C4101	C410	0.277700	0.277700	0.958300
C4111	C411	0.000000	0.722300	0.958300
C4121	C412	0.277700	0.000000	0.458300
C4131	C413	0.722300	0.722300	0.458300
C4141	C414	0.000000	0.277700	0.458300
C4151	C415	0.722300	0.000000	0.541700
C4161	C416	0.000000	0.722300	0.541700
C4171	C417	0.277700	0.277700	0.541700
C4181	C418	0.277700	0.000000	0.041700
C4191	C419	0.000000	0.277700	0.041700
C4201	C420	0.722300	0.722300	0.041700
C4211	C421	0.836400	0.323800	0.750000
C4221	C422	0.487400	0.163600	0.750000
C4231	C423	0.676200	0.512600	0.750000
C4241	C424	0.163600	0.676200	0.250000
C4251	C425	0.512600	0.836400	0.250000
C4261	C426	0.323800	0.487400	0.250000
C4271	C427	0.512600	0.676200	0.750000
C4281	C428	0.323800	0.836400	0.750000
C4291	C429	0.163600	0.487400	0.750000
C4301	C430	0.487400	0.323800	0.250000
C4311	C431	0.676200	0.163600	0.250000
C4321	C432	0.836400	0.512600	0.250000
O11	O1	0.938900	0.253000	0.946880
O21	O2	0.845060	0.233670	0.948590
O31	O3	0.768500	0.353400	0.909400
O41	O4	0.831300	0.320500	0.895910
O51	O5	0.816140	0.331960	0.980320
O61	O6	0.738730	0.333630	0.031120
O71	O7	0.943220	0.367460	0.949520
O81	O8	0.314100	0.061100	0.946880
O91	O9	0.388610	0.154940	0.948590
O101	O10	0.584900	0.231500	0.909400
O111	O11	0.489200	0.168700	0.895910
O121	O12	0.515820	0.183860	0.980320
O131	O13	0.594900	0.261270	0.031120
O141	O14	0.424240	0.056780	0.949520
O151	O15	0.747000	0.685900	0.946880
O161	O16	0.766330	0.611390	0.948590
O171	O17	0.646600	0.415100	0.909400
O181	O18	0.679500	0.510800	0.895910
O191	O19	0.668040	0.484180	0.980320
O201	O20	0.666370	0.405100	0.031120
O211	O21	0.632540	0.575760	0.949520
O221	O22	0.061100	0.747000	0.446880
O231	O23	0.154940	0.766330	0.448590
O241	O24	0.231500	0.646600	0.409400
O251	O25	0.168700	0.679500	0.395910
O261	O26	0.183860	0.668040	0.480320
O271	O27	0.261270	0.666370	0.531120
O281	O28	0.056780	0.632540	0.449520
O291	O29	0.685900	0.938900	0.446880
O301	O30	0.611390	0.845060	0.448590
O311	O31	0.415100	0.768500	0.409400
O321	O32	0.510800	0.831300	0.395910
O331	O33	0.484180	0.816140	0.480320
O341	O34	0.405100	0.738730	0.531120
O351	O35	0.575760	0.943220	0.449520
O361	O36	0.253000	0.314100	0.446880
O371	O37	0.233670	0.388610	0.448590
O381	O38	0.353400	0.584900	0.409400
O391	O39	0.320500	0.489200	0.395910
O401	O40	0.331960	0.515820	0.480320
O411	O41	0.333630	0.594900	0.531120
O421	O42	0.367460	0.424240	0.449520
O431	O43	0.685900	0.747000	0.553120
O441	O44	0.611390	0.766330	0.551410
O451	O45	0.415100	0.646600	0.590600
O461	O46	0.510800	0.679500	0.604090
O471	O47	0.484180	0.668040	0.519680
O481	O48	0.405100	0.666370	0.468880
O491	O49	0.575760	0.632540	0.550480
O501	O50	0.253000	0.938900	0.553120
O511	O51	0.233670	0.845060	0.551410
O521	O52	0.353400	0.768500	0.590600
O531	O53	0.320500	0.831300	0.604090
O541	O54	0.331960	0.816140	0.519680
O551	O55	0.333630	0.738730	0.468880
O561	O56	0.367460	0.943220	0.550480
O571	O57	0.061100	0.314100	0.553120
O581	O58	0.154940	0.388610	0.551410
O591	O59	0.231500	0.584900	0.590600
O601	O60	0.168700	0.489200	0.604090
O611	O61	0.183860	0.515820	0.519680
O621	O62	0.261270	0.594900	0.468880
O631	O63	0.056780	0.424240	0.550480
O641	O64	0.314100	0.253000	0.053120
O651	O65	0.388610	0.233670	0.051410
O661	O66	0.584900	0.353400	0.090600
O671	O67	0.489200	0.320500	0.104090
O681	O68	0.515820	0.331960	0.019680
O691	O69	0.594900	0.333630	0.968880
O701	O70	0.424240	0.367460	0.050480
O711	O71	0.747000	0.061100	0.053120
O721	O72	0.766330	0.154940	0.051410
O731	O73	0.646600	0.231500	0.090600
O741	O74	0.679500	0.168700	0.104090
O751	O75	0.668040	0.183860	0.019680
O761	O76	0.666370	0.261270	0.968880
O771	O77	0.632540	0.056780	0.050480
O781	O78	0.938900	0.685900	0.053120
O791	O79	0.845060	0.611390	0.051410
O801	O80	0.768500	0.415100	0.090600
O811	O81	0.831300	0.510800	0.104090
O821	O82	0.816140	0.484180	0.019680
O831	O83	0.738730	0.405100	0.968880
O841	O84	0.943220	0.575760	0.050480
O851	O85	0.061100	0.747000	0.053120
O861	O86	0.154940	0.766330	0.051410
O871	O87	0.231500	0.646600	0.090600
O881	O88	0.168700	0.679500	0.104090
O891	O89	0.183860	0.668040	0.019680
O901	O90	0.261270	0.666370	0.968880
O911	O91	0.056780	0.632540	0.050480
O921	O92	0.685900	0.938900	0.053120
O931	O93	0.611390	0.845060	0.051410
O941	O94	0.415100	0.768500	0.090600
O951	O95	0.510800	0.831300	0.104090
O961	O96	0.484180	0.816140	0.019680
O971	O97	0.405100	0.738730	0.968880
O981	O98	0.575760	0.943220	0.050480
O991	O99	0.253000	0.314100	0.053120
O1001	O100	0.233670	0.388610	0.051410
O1011	O101	0.353400	0.584900	0.090600
O1021	O102	0.320500	0.489200	0.104090
O1031	O103	0.331960	0.515820	0.019680
O1041	O104	0.333630	0.594900	0.968880
O1051	O105	0.367460	0.424240	0.050480
O1061	O106	0.938900	0.253000	0.553120
O1071	O107	0.845060	0.233670	0.551410
O1081	O108	0.768500	0.353400	0.590600
O1091	O109	0.831300	0.320500	0.604090
O1101	O110	0.816140	0.331960	0.519680
O1111	O111	0.738730	0.333630	0.468880
O1121	O112	0.943220	0.367460	0.550480
O1131	O113	0.314100	0.061100	0.553120
O1141	O114	0.388610	0.154940	0.551410
O1151	O115	0.584900	0.231500	0.590600
O1161	O116	0.489200	0.168700	0.604090
O1171	O117	0.515820	0.183860	0.519680
O1181	O118	0.594900	0.261270	0.468880
O1191	O119	0.424240	0.056780	0.550480
O1201	O120	0.747000	0.685900	0.553120
O1211	O121	0.766330	0.611390	0.551410
O1221	O122	0.646600	0.415100	0.590600
O1231	O123	0.679500	0.510800	0.604090
O1241	O124	0.668040	0.484180	0.519680
O1251	O125	0.666370	0.405100	0.468880
O1261	O126	0.632540	0.575760	0.550480
O1271	O127	0.314100	0.253000	0.446880
O1281	O128	0.388610	0.233670	0.448590
O1291	O129	0.584900	0.353400	0.409400
O1301	O130	0.489200	0.320500	0.395910
O1311	O131	0.515820	0.331960	0.480320
O1321	O132	0.594900	0.333630	0.531120
O1331	O133	0.424240	0.367460	0.449520
O1341	O134	0.747000	0.061100	0.446880
O1351	O135	0.766330	0.154940	0.448590
O1361	O136	0.646600	0.231500	0.409400
O1371	O137	0.679500	0.168700	0.395910
O1381	O138	0.668040	0.183860	0.480320
O1391	O139	0.666370	0.261270	0.531120
O1401	O140	0.632540	0.056780	0.449520
O1411	O141	0.938900	0.685900	0.446880
O1421	O142	0.845060	0.611390	0.448590
O1431	O143	0.768500	0.415100	0.409400
O1441	O144	0.831300	0.510800	0.395910
O1451	O145	0.816140	0.484180	0.480320
O1461	O146	0.738730	0.405100	0.531120
O1471	O147	0.943220	0.575760	0.449520
O1481	O148	0.685900	0.747000	0.946880
O1491	O149	0.611390	0.766330	0.948590
O1501	O150	0.415100	0.646600	0.909400
O1511	O151	0.510800	0.679500	0.895910
O1521	O152	0.484180	0.668040	0.980320
O1531	O153	0.405100	0.666370	0.031120
O1541	O154	0.575760	0.632540	0.949520
O1551	O155	0.253000	0.938900	0.946880
O1561	O156	0.233670	0.845060	0.948590
O1571	O157	0.353400	0.768500	0.909400
O1581	O158	0.320500	0.831300	0.895910
O1591	O159	0.331960	0.816140	0.980320
O1601	O160	0.333630	0.738730	0.031120
O1611	O161	0.367460	0.943220	0.949520
O1621	O162	0.061100	0.314100	0.946880
O1631	O163	0.154940	0.388610	0.948590
O1641	O164	0.231500	0.584900	0.909400
O1651	O165	0.168700	0.489200	0.895910
O1661	O166	0.183860	0.515820	0.980320
O1671	O167	0.261270	0.594900	0.031120
O1681	O168	0.056780	0.424240	0.949520
O1691	O169	0.676600	0.000000	0.961800
O1701	O170	0.323400	0.323400	0.961800
O1711	O171	0.000000	0.676600	0.961800
O1721	O172	0.323400	0.000000	0.461800
O1731	O173	0.676600	0.676600	0.461800
O1741	O174	0.000000	0.323400	0.461800
O1751	O175	0.676600	0.000000	0.538200
O1761	O176	0.000000	0.676600	0.538200
O1771	O177	0.323400	0.323400	0.538200
O1781	O178	0.323400	0.000000	0.038200
O1791	O179	0.000000	0.323400	0.038200
O1801	O180	0.676600	0.676600	0.038200
O1811	O181	0.860700	0.291700	0.750000
O1821	O182	0.431000	0.139300	0.750000
O1831	O183	0.708300	0.569000	0.750000
O1841	O184	0.139300	0.708300	0.250000
O1851	O185	0.569000	0.860700	0.250000
O1861	O186	0.291700	0.431000	0.250000
O1871	O187	0.569000	0.708300	0.750000
O1881	O188	0.291700	0.860700	0.750000
O1891	O189	0.139300	0.431000	0.750000
O1901	O190	0.431000	0.291700	0.250000
O1911	O191	0.708300	0.139300	0.250000
O1921	O192	0.860700	0.569000	0.250000
