data_MAFMAK01_clean_PM
_symmetry_space_group_name_H-M	'P1'
_cell_length_a	9.174300
_cell_length_b	10.848800
_cell_length_c	11.345800
_cell_angle_alpha	113.479000
_cell_angle_beta	98.726000
_cell_angle_gamma	98.016000
_symmetry_Int_Tables_number 1

loop_
_symmetry_equiv_pos_as_xyz
'x,y,z'

loop_
_atom_site_label
_atom_site_type_symbol
_atom_site_fract_x
_atom_site_fract_y
_atom_site_fract_z
Zn11	Zn1	0.819650	0.386710	0.386010
O11	O1	0.750100	0.218100	0.405700
O21	O2	0.715400	0.406100	0.236200
O31	O3	0.550400	0.522700	0.333800
O41	O4	0.544800	0.302800	0.429800
N11	N1	0.971400	0.628900	0.645100
C11	C1	0.444500	0.563500	0.111000
H11	H1	0.407400	0.606000	0.185600
C21	C2	0.621100	0.216700	0.432600
N21	N2	0.725700	0.590700	0.607000
C31	C3	0.607800	0.470800	0.238600
C41	C4	0.607200	0.422300	0.001700
H21	H2	0.679200	0.370100	0.003100
N31	N3	0.842500	0.551300	0.558700
C51	C5	0.557700	0.104700	0.467300
C61	C6	0.553000	0.485500	0.114400
C71	C7	0.632100	0.996300	0.454100
H31	H3	0.720600	0.994000	0.423500
C81	C8	0.933300	0.719700	0.750400
H41	H4	0.000200	0.787300	0.826100
C91	C9	0.427800	0.107100	0.512800
H51	H5	0.379100	0.178900	0.521700
C101	C10	0.782300	0.696000	0.727200
H61	H6	0.726100	0.743900	0.784400
Zn21	Zn2	0.180350	0.613290	0.613990
O51	O5	0.249900	0.781900	0.594300
O61	O6	0.284600	0.593900	0.763800
O71	O7	0.449600	0.477300	0.666200
O81	O8	0.455200	0.697200	0.570200
N41	N4	0.028600	0.371100	0.354900
C111	C11	0.555500	0.436500	0.889000
H71	H7	0.592600	0.394000	0.814400
C121	C12	0.378900	0.783300	0.567400
N51	N5	0.274300	0.409300	0.393000
C131	C13	0.392200	0.529200	0.761400
C141	C14	0.392800	0.577700	0.998300
H81	H8	0.320800	0.629900	0.996900
N61	N6	0.157500	0.448700	0.441300
C151	C15	0.442300	0.895300	0.532700
C161	C16	0.447000	0.514500	0.885600
C171	C17	0.367900	0.003700	0.545900
H91	H9	0.279400	0.006000	0.576500
C181	C18	0.066700	0.280300	0.249600
H101	H10	0.999800	0.212700	0.173900
C191	C19	0.572200	0.892900	0.487200
H111	H11	0.620900	0.821100	0.478300
C201	C20	0.217700	0.304000	0.272800
H121	H12	0.273900	0.256100	0.215600
Zn31	Zn3	0.500000	0.500000	0.500000
