data_MAFZOK_clean_PM
_symmetry_space_group_name_H-M	'P1'
_cell_length_a	7.419000
_cell_length_b	9.969000
_cell_length_c	11.148000
_cell_angle_alpha	65.152000
_cell_angle_beta	76.109000
_cell_angle_gamma	69.965000
_symmetry_Int_Tables_number 1

loop_
_symmetry_equiv_pos_as_xyz
'x,y,z'

loop_
_atom_site_label
_atom_site_type_symbol
_atom_site_fract_x
_atom_site_fract_y
_atom_site_fract_z
Zn11	Zn1	0.556660	0.353070	0.294930
Zn21	Zn2	0.925900	0.281990	0.047920
Zn31	Zn3	0.443340	0.646930	0.705070
Zn41	Zn4	0.074100	0.718010	0.952080
Zn51	Zn5	0.500000	0.500000	0.000000
P11	P1	0.147600	0.388600	0.191210
P21	P2	0.852400	0.611400	0.808790
H11	H1	0.254700	0.103800	0.406700
H21	H2	0.846500	0.503600	0.368200
H31	H3	0.876400	0.151100	0.720200
H41	H4	0.765000	0.507000	0.113000
H51	H5	0.745300	0.896200	0.593300
H61	H6	0.153500	0.496400	0.631800
H71	H7	0.123600	0.848900	0.279800
H81	H8	0.235000	0.493000	0.887000
C11	C1	0.150300	0.163400	0.444100
C21	C2	0.059900	0.314000	0.365400
C31	C3	0.904400	0.402800	0.420300
C41	C4	0.083400	0.102700	0.578900
C51	C5	0.834400	0.341400	0.553800
C61	C6	0.666500	0.434000	0.617600
C71	C7	0.924200	0.192000	0.631300
C81	C8	0.182700	0.943800	0.667200
C91	C9	0.849700	0.836600	0.555900
C101	C10	0.940100	0.686000	0.634600
C111	C11	0.095600	0.597200	0.579700
C121	C12	0.916600	0.897300	0.421100
C131	C13	0.165600	0.658600	0.446200
C141	C14	0.333500	0.566000	0.382400
C151	C15	0.075800	0.808000	0.368700
C161	C16	0.817300	0.056200	0.332800
O11	O1	0.707100	0.439100	0.122200
O21	O2	0.360200	0.383100	0.182100
O31	O3	0.611100	0.579400	0.558200
O41	O4	0.584800	0.368200	0.728300
O51	O5	0.307500	0.858700	0.609600
O61	O6	0.134600	0.905700	0.789400
O71	O7	0.140800	0.280400	0.129400
O81	O8	0.022800	0.550900	0.132400
O91	O9	0.292900	0.560900	0.877800
O101	O10	0.639800	0.616900	0.817900
O111	O11	0.388900	0.420600	0.441800
O121	O12	0.415200	0.631800	0.271700
O131	O13	0.692500	0.141300	0.390400
O141	O14	0.865400	0.094300	0.210600
O151	O15	0.859200	0.719600	0.870600
O161	O16	0.977200	0.449100	0.867600
