data_MAGNEQ_clean_PM
_symmetry_space_group_name_H-M	'P1'
_cell_length_a	10.033800
_cell_length_b	8.282700
_cell_length_c	11.158300
_cell_angle_alpha	90.000000
_cell_angle_beta	90.000000
_cell_angle_gamma	90.000000
_symmetry_Int_Tables_number 1

loop_
_symmetry_equiv_pos_as_xyz
'x,y,z'

loop_
_atom_site_label
_atom_site_type_symbol
_atom_site_fract_x
_atom_site_fract_y
_atom_site_fract_z
Cu11	Cu1	0.204370	0.001180	0.268440
O11	O1	0.014900	0.098300	0.185700
O21	O2	0.871900	0.301500	0.168400
O31	O3	0.182800	0.107900	0.428700
O41	O4	0.242800	0.115100	0.619600
C11	C1	0.969500	0.232100	0.217200
H11	H1	0.011500	0.285200	0.282600
C21	C2	0.230500	0.041600	0.521400
H21	H2	0.258100	0.932000	0.516700
Cu21	Cu2	0.295630	0.998820	0.768440
O51	O5	0.485100	0.901700	0.685700
O61	O6	0.628100	0.698500	0.668400
O71	O7	0.317200	0.892100	0.928700
O81	O8	0.257200	0.884900	0.119600
C31	C3	0.530500	0.767900	0.717200
H31	H3	0.488500	0.714800	0.782600
C41	C4	0.269500	0.958400	0.021400
H41	H4	0.241900	0.068000	0.016700
Cu31	Cu3	0.795630	0.501180	0.231560
O91	O9	0.985100	0.598300	0.314300
O101	O10	0.128100	0.801500	0.331600
O111	O11	0.817200	0.607900	0.071300
O121	O12	0.757200	0.615100	0.880400
C51	C5	0.030500	0.732100	0.282800
H51	H5	0.988500	0.785200	0.217400
C61	C6	0.769500	0.541600	0.978600
H61	H6	0.741900	0.432000	0.983300
Cu41	Cu4	0.704370	0.498820	0.731560
O131	O13	0.514900	0.401700	0.814300
O141	O14	0.371900	0.198500	0.831600
O151	O15	0.682800	0.392100	0.571300
O161	O16	0.742800	0.384900	0.380400
C71	C7	0.469500	0.267900	0.782800
H71	H7	0.511500	0.214800	0.717400
C81	C8	0.730500	0.458400	0.478600
H81	H8	0.758100	0.568000	0.483300
