data_MAGNEQ01_clean_PM
_symmetry_space_group_name_H-M	'P1'
_cell_length_a	10.072900
_cell_length_b	8.278900
_cell_length_c	11.153500
_cell_angle_alpha	90.000000
_cell_angle_beta	90.000000
_cell_angle_gamma	90.000000
_symmetry_Int_Tables_number 1

loop_
_symmetry_equiv_pos_as_xyz
'x,y,z'

loop_
_atom_site_label
_atom_site_type_symbol
_atom_site_fract_x
_atom_site_fract_y
_atom_site_fract_z
Cu11	Cu1	0.204350	0.000500	0.267150
O11	O1	0.014400	0.098600	0.185800
O21	O2	0.871400	0.300300	0.170300
O31	O3	0.183200	0.106100	0.427620
O41	O4	0.243800	0.114000	0.617800
C11	C1	0.969200	0.231400	0.217400
H11	H1	0.012000	0.284900	0.282100
C21	C2	0.231300	0.040900	0.519800
H21	H2	0.259300	0.931500	0.515100
Cu21	Cu2	0.295650	0.999500	0.767150
O51	O5	0.485600	0.901400	0.685800
O61	O6	0.628600	0.699700	0.670300
O71	O7	0.316800	0.893900	0.927620
O81	O8	0.256200	0.886000	0.117800
C31	C3	0.530800	0.768600	0.717400
H31	H3	0.488000	0.715100	0.782100
C41	C4	0.268700	0.959100	0.019800
H41	H4	0.240700	0.068500	0.015100
Cu31	Cu3	0.795650	0.500500	0.232850
O91	O9	0.985600	0.598600	0.314200
O101	O10	0.128600	0.800300	0.329700
O111	O11	0.816800	0.606100	0.072380
O121	O12	0.756200	0.614000	0.882200
C51	C5	0.030800	0.731400	0.282600
H51	H5	0.988000	0.784900	0.217900
C61	C6	0.768700	0.540900	0.980200
H61	H6	0.740700	0.431500	0.984900
Cu41	Cu4	0.704350	0.499500	0.732850
O131	O13	0.514400	0.401400	0.814200
O141	O14	0.371400	0.199700	0.829700
O151	O15	0.683200	0.393900	0.572380
O161	O16	0.743800	0.386000	0.382200
C71	C7	0.469200	0.268600	0.782600
H71	H7	0.512000	0.215100	0.717900
C81	C8	0.731300	0.459100	0.480200
H81	H8	0.759300	0.568500	0.484900
