data_MAGVOG09_clean_PM
_symmetry_space_group_name_H-M	'P1'
_cell_length_a	20.862000
_cell_length_b	19.682000
_cell_length_c	6.089000
_cell_angle_alpha	90.000000
_cell_angle_beta	114.271000
_cell_angle_gamma	90.000000
_symmetry_Int_Tables_number 1

loop_
_symmetry_equiv_pos_as_xyz
'x,y,z'

loop_
_atom_site_label
_atom_site_type_symbol
_atom_site_fract_x
_atom_site_fract_y
_atom_site_fract_z
N11	N1	0.611600	0.047000	0.141000
H11	H1	0.626300	0.061500	0.294000
H21	H2	0.643200	0.017600	0.129600
N21	N2	0.650900	0.202100	0.854000
H31	H3	0.616700	0.229800	0.855000
H41	H4	0.639900	0.187500	0.702400
N31	N3	0.854300	0.197400	0.635000
H51	H5	0.888500	0.226300	0.641400
H61	H6	0.865500	0.179800	0.782300
N41	N4	0.910400	0.057800	0.379000
H71	H7	0.904800	0.078600	0.240700
H81	H8	0.872800	0.030900	0.348900
C11	C1	0.598200	0.103200	0.973000
H91	H9	0.562100	0.132200	0.984900
H101	H10	0.580700	0.085600	0.810300
C21	C2	0.663600	0.144400	0.025000
H111	H11	0.680900	0.162000	0.187700
H121	H12	0.699700	0.115200	0.014500
C31	C3	0.844700	0.144000	0.459000
H131	H13	0.834700	0.162700	0.300700
H141	H14	0.807300	0.113200	0.448100
C41	C4	0.915300	0.109300	0.564000
H151	H15	0.953000	0.141400	0.587600
H161	H16	0.923500	0.087900	0.716300
N51	N5	0.111600	0.547000	0.141000
H171	H17	0.126300	0.561500	0.294000
H181	H18	0.143200	0.517600	0.129600
N61	N6	0.150900	0.702100	0.854000
H191	H19	0.116700	0.729800	0.855000
H201	H20	0.139900	0.687500	0.702400
N71	N7	0.354300	0.697400	0.635000
H211	H21	0.388500	0.726300	0.641400
H221	H22	0.365500	0.679800	0.782300
N81	N8	0.410400	0.557800	0.379000
H231	H23	0.404800	0.578600	0.240700
H241	H24	0.372800	0.530900	0.348900
C51	C5	0.098200	0.603200	0.973000
H251	H25	0.062100	0.632200	0.984900
H261	H26	0.080700	0.585600	0.810300
C61	C6	0.163600	0.644400	0.025000
H271	H27	0.180900	0.662000	0.187700
H281	H28	0.199700	0.615200	0.014500
C71	C7	0.344700	0.644000	0.459000
H291	H29	0.334700	0.662700	0.300700
H301	H30	0.307300	0.613200	0.448100
C81	C8	0.415300	0.609300	0.564000
H311	H31	0.453000	0.641400	0.587600
H321	H32	0.423500	0.587900	0.716300
N91	N9	0.388400	0.047000	0.359000
H331	H33	0.373700	0.061500	0.206000
H341	H34	0.356800	0.017600	0.370400
N101	N10	0.349100	0.202100	0.646000
H351	H35	0.383300	0.229800	0.645000
H361	H36	0.360100	0.187500	0.797600
N111	N11	0.145700	0.197400	0.865000
H371	H37	0.111500	0.226300	0.858600
H381	H38	0.134500	0.179800	0.717700
N121	N12	0.089600	0.057800	0.121000
H391	H39	0.095200	0.078600	0.259300
H401	H40	0.127200	0.030900	0.151100
C91	C9	0.401800	0.103200	0.527000
H411	H41	0.437900	0.132200	0.515100
H421	H42	0.419300	0.085600	0.689700
C101	C10	0.336400	0.144400	0.475000
H431	H43	0.319100	0.162000	0.312300
H441	H44	0.300300	0.115200	0.485500
C111	C11	0.155300	0.144000	0.041000
H451	H45	0.165300	0.162700	0.199300
H461	H46	0.192700	0.113200	0.051900
C121	C12	0.084700	0.109300	0.936000
H471	H47	0.047000	0.141400	0.912400
H481	H48	0.076500	0.087900	0.783700
N131	N13	0.888400	0.547000	0.359000
H491	H49	0.873700	0.561500	0.206000
H501	H50	0.856800	0.517600	0.370400
N141	N14	0.849100	0.702100	0.646000
H511	H51	0.883300	0.729800	0.645000
H521	H52	0.860100	0.687500	0.797600
N151	N15	0.645700	0.697400	0.865000
H531	H53	0.611500	0.726300	0.858600
H541	H54	0.634500	0.679800	0.717700
N161	N16	0.589600	0.557800	0.121000
H551	H55	0.595200	0.578600	0.259300
H561	H56	0.627200	0.530900	0.151100
C131	C13	0.901800	0.603200	0.527000
H571	H57	0.937900	0.632200	0.515100
H581	H58	0.919300	0.585600	0.689700
C141	C14	0.836400	0.644400	0.475000
H591	H59	0.819100	0.662000	0.312300
H601	H60	0.800300	0.615200	0.485500
C151	C15	0.655300	0.644000	0.041000
H611	H61	0.665300	0.662700	0.199300
H621	H62	0.692700	0.613200	0.051900
C161	C16	0.584700	0.609300	0.936000
H631	H63	0.547000	0.641400	0.912400
H641	H64	0.576500	0.587900	0.783700
N171	N17	0.388400	0.953000	0.859000
H651	H65	0.373700	0.938500	0.706000
H661	H66	0.356800	0.982400	0.870400
N181	N18	0.349100	0.797900	0.146000
H671	H67	0.383300	0.770200	0.145000
H681	H68	0.360100	0.812500	0.297600
N191	N19	0.145700	0.802600	0.365000
H691	H69	0.111500	0.773700	0.358600
H701	H70	0.134500	0.820200	0.217700
N201	N20	0.089600	0.942200	0.621000
H711	H71	0.095200	0.921400	0.759300
H721	H72	0.127200	0.969100	0.651100
C171	C17	0.401800	0.896800	0.027000
H731	H73	0.437900	0.867800	0.015100
H741	H74	0.419300	0.914400	0.189700
C181	C18	0.336400	0.855600	0.975000
H751	H75	0.319100	0.838000	0.812300
H761	H76	0.300300	0.884800	0.985500
C191	C19	0.155300	0.856000	0.541000
H771	H77	0.165300	0.837300	0.699300
H781	H78	0.192700	0.886800	0.551900
C201	C20	0.084700	0.890700	0.436000
H791	H79	0.047000	0.858600	0.412400
H801	H80	0.076500	0.912100	0.283700
N211	N21	0.888400	0.453000	0.859000
H811	H81	0.873700	0.438500	0.706000
H821	H82	0.856800	0.482400	0.870400
N221	N22	0.849100	0.297900	0.146000
H831	H83	0.883300	0.270200	0.145000
H841	H84	0.860100	0.312500	0.297600
N231	N23	0.645700	0.302600	0.365000
H851	H85	0.611500	0.273700	0.358600
H861	H86	0.634500	0.320200	0.217700
N241	N24	0.589600	0.442200	0.621000
H871	H87	0.595200	0.421400	0.759300
H881	H88	0.627200	0.469100	0.651100
C211	C21	0.901800	0.396800	0.027000
H891	H89	0.937900	0.367800	0.015100
H901	H90	0.919300	0.414400	0.189700
C221	C22	0.836400	0.355600	0.975000
H911	H91	0.819100	0.338000	0.812300
H921	H92	0.800300	0.384800	0.985500
C231	C23	0.655300	0.356000	0.541000
H931	H93	0.665300	0.337300	0.699300
H941	H94	0.692700	0.386800	0.551900
C241	C24	0.584700	0.390700	0.436000
H951	H95	0.547000	0.358600	0.412400
H961	H96	0.576500	0.412100	0.283700
N251	N25	0.611600	0.953000	0.641000
H971	H97	0.626300	0.938500	0.794000
H981	H98	0.643200	0.982400	0.629600
N261	N26	0.650900	0.797900	0.354000
H991	H99	0.616700	0.770200	0.355000
H1001	H100	0.639900	0.812500	0.202400
N271	N27	0.854300	0.802600	0.135000
H1011	H101	0.888500	0.773700	0.141400
H1021	H102	0.865500	0.820200	0.282300
N281	N28	0.910400	0.942200	0.879000
H1031	H103	0.904800	0.921400	0.740700
H1041	H104	0.872800	0.969100	0.848900
C251	C25	0.598200	0.896800	0.473000
H1051	H105	0.562100	0.867800	0.484900
H1061	H106	0.580700	0.914400	0.310300
C261	C26	0.663600	0.855600	0.525000
H1071	H107	0.680900	0.838000	0.687700
H1081	H108	0.699700	0.884800	0.514500
C271	C27	0.844700	0.856000	0.959000
H1091	H109	0.834700	0.837300	0.800700
H1101	H110	0.807300	0.886800	0.948100
C281	C28	0.915300	0.890700	0.064000
H1111	H111	0.953000	0.858600	0.087600
H1121	H112	0.923500	0.912100	0.216300
N291	N29	0.111600	0.453000	0.641000
H1131	H113	0.126300	0.438500	0.794000
H1141	H114	0.143200	0.482400	0.629600
N301	N30	0.150900	0.297900	0.354000
H1151	H115	0.116700	0.270200	0.355000
H1161	H116	0.139900	0.312500	0.202400
N311	N31	0.354300	0.302600	0.135000
H1171	H117	0.388500	0.273700	0.141400
H1181	H118	0.365500	0.320200	0.282300
N321	N32	0.410400	0.442200	0.879000
H1191	H119	0.404800	0.421400	0.740700
H1201	H120	0.372800	0.469100	0.848900
C291	C29	0.098200	0.396800	0.473000
H1211	H121	0.062100	0.367800	0.484900
H1221	H122	0.080700	0.414400	0.310300
C301	C30	0.163600	0.355600	0.525000
H1231	H123	0.180900	0.338000	0.687700
H1241	H124	0.199700	0.384800	0.514500
C311	C31	0.344700	0.356000	0.959000
H1251	H125	0.334700	0.337300	0.800700
H1261	H126	0.307300	0.386800	0.948100
C321	C32	0.415300	0.390700	0.064000
H1271	H127	0.453000	0.358600	0.087600
H1281	H128	0.423500	0.412100	0.216300
Ag11	Ag1	0.500000	0.000000	0.000000
Ag21	Ag2	0.000000	0.500000	0.000000
Ag31	Ag3	0.500000	0.000000	0.500000
Ag41	Ag4	0.000000	0.500000	0.500000
Ag51	Ag5	0.750000	0.250000	0.000000
Ag61	Ag6	0.250000	0.250000	0.500000
Ag71	Ag7	0.250000	0.750000	0.000000
Ag81	Ag8	0.750000	0.750000	0.500000
Ag91	Ag9	0.750000	0.250000	0.500000
Ag101	Ag10	0.250000	0.250000	0.000000
Ag111	Ag11	0.250000	0.750000	0.500000
Ag121	Ag12	0.750000	0.750000	0.000000
Ag131	Ag13	0.000000	0.000000	0.500000
Ag141	Ag14	0.500000	0.500000	0.500000
Ag151	Ag15	0.000000	0.000000	0.000000
Ag161	Ag16	0.500000	0.500000	0.000000
