data_MAGVOG28_clean_PM
_symmetry_space_group_name_H-M	'P1'
_cell_length_a	10.299700
_cell_length_b	10.610700
_cell_length_c	6.243000
_cell_angle_alpha	90.000000
_cell_angle_beta	114.713000
_cell_angle_gamma	90.000000
_symmetry_Int_Tables_number 1

loop_
_symmetry_equiv_pos_as_xyz
'x,y,z'

loop_
_atom_site_label
_atom_site_type_symbol
_atom_site_fract_x
_atom_site_fract_y
_atom_site_fract_z
C11	C1	0.317400	0.210900	0.545500
H11	H1	0.399300	0.265500	0.571200
H21	H2	0.331900	0.173700	0.697500
N11	N1	0.311200	0.109500	0.380300
H31	H3	0.295900	0.144200	0.238400
H41	H4	0.235800	0.058300	0.358300
C21	C2	0.817400	0.710900	0.545500
H51	H5	0.899300	0.765500	0.571200
H61	H6	0.831900	0.673700	0.697500
N21	N2	0.811200	0.609500	0.380300
H71	H7	0.795900	0.644200	0.238400
H81	H8	0.735800	0.558300	0.358300
C31	C3	0.682600	0.210900	0.954500
H91	H9	0.600700	0.265500	0.928800
H101	H10	0.668100	0.173700	0.802500
N31	N3	0.688800	0.109500	0.119700
H111	H11	0.704100	0.144200	0.261600
H121	H12	0.764200	0.058300	0.141700
C41	C4	0.182600	0.710900	0.954500
H131	H13	0.100700	0.765500	0.928800
H141	H14	0.168100	0.673700	0.802500
N41	N4	0.188800	0.609500	0.119700
H151	H15	0.204100	0.644200	0.261600
H161	H16	0.264200	0.558300	0.141700
C51	C5	0.682600	0.789100	0.454500
H171	H17	0.600700	0.734500	0.428800
H181	H18	0.668100	0.826300	0.302500
N51	N5	0.688800	0.890500	0.619700
H191	H19	0.704100	0.855800	0.761600
H201	H20	0.764200	0.941700	0.641700
C61	C6	0.182600	0.289100	0.454500
H211	H21	0.100700	0.234500	0.428800
H221	H22	0.168100	0.326300	0.302500
N61	N6	0.188800	0.390500	0.619700
H231	H23	0.204100	0.355800	0.761600
H241	H24	0.264200	0.441700	0.641700
C71	C7	0.317400	0.789100	0.045500
H251	H25	0.399300	0.734500	0.071200
H261	H26	0.331900	0.826300	0.197500
N71	N7	0.311200	0.890500	0.880300
H271	H27	0.295900	0.855800	0.738400
H281	H28	0.235800	0.941700	0.858300
C81	C8	0.817400	0.289100	0.045500
H291	H29	0.899300	0.234500	0.071200
H301	H30	0.831900	0.326300	0.197500
N81	N8	0.811200	0.390500	0.880300
H311	H31	0.795900	0.355800	0.738400
H321	H32	0.735800	0.441700	0.858300
Ag11	Ag1	0.500000	0.000000	0.500000
Ag21	Ag2	0.000000	0.500000	0.500000
Ag31	Ag3	0.500000	0.000000	0.000000
Ag41	Ag4	0.000000	0.500000	0.000000
