data_MAGVOG10_clean_PM
_symmetry_space_group_name_H-M	'P1'
_cell_length_a	20.855000
_cell_length_b	19.600000
_cell_length_c	6.040900
_cell_angle_alpha	90.000000
_cell_angle_beta	114.215000
_cell_angle_gamma	90.000000
_symmetry_Int_Tables_number 1

loop_
_symmetry_equiv_pos_as_xyz
'x,y,z'

loop_
_atom_site_label
_atom_site_type_symbol
_atom_site_fract_x
_atom_site_fract_y
_atom_site_fract_z
N11	N1	0.606000	0.051900	0.122000
H11	H1	0.620900	0.065400	0.277000
H21	H2	0.637900	0.022800	0.110000
N21	N2	0.659000	0.208500	0.874000
H31	H3	0.626400	0.237900	0.878300
H41	H4	0.646700	0.195000	0.719100
N31	N3	0.852200	0.200000	0.621000
H51	H5	0.884700	0.228800	0.612400
H61	H6	0.866500	0.185300	0.775400
N41	N4	0.903000	0.050400	0.390000
H71	H7	0.888600	0.064700	0.235500
H81	H8	0.870300	0.021800	0.398500
C11	C1	0.597400	0.110500	0.964000
H91	H9	0.562100	0.140800	0.975500
H101	H10	0.581000	0.095200	0.797200
C21	C2	0.665600	0.148900	0.033000
H111	H11	0.681500	0.164400	0.199500
H121	H12	0.700900	0.118100	0.024700
C31	C3	0.840700	0.142900	0.455000
H131	H13	0.827000	0.158300	0.289700
H141	H14	0.805100	0.112000	0.461700
C41	C4	0.912100	0.109800	0.554000
H151	H15	0.947500	0.140900	0.547400
H161	H16	0.925700	0.095000	0.720000
N51	N5	0.106000	0.551900	0.122000
H171	H17	0.120900	0.565400	0.277000
H181	H18	0.137900	0.522800	0.110000
N61	N6	0.159000	0.708500	0.874000
H191	H19	0.126400	0.737900	0.878300
H201	H20	0.146700	0.695000	0.719100
N71	N7	0.352200	0.700000	0.621000
H211	H21	0.384700	0.728800	0.612400
H221	H22	0.366500	0.685300	0.775400
N81	N8	0.403000	0.550400	0.390000
H231	H23	0.388600	0.564700	0.235500
H241	H24	0.370300	0.521800	0.398500
C51	C5	0.097400	0.610500	0.964000
H251	H25	0.062100	0.640800	0.975500
H261	H26	0.081000	0.595200	0.797200
C61	C6	0.165600	0.648900	0.033000
H271	H27	0.181500	0.664400	0.199500
H281	H28	0.200900	0.618100	0.024700
C71	C7	0.340700	0.642900	0.455000
H291	H29	0.327000	0.658300	0.289700
H301	H30	0.305100	0.612000	0.461700
C81	C8	0.412100	0.609800	0.554000
H311	H31	0.447500	0.640900	0.547400
H321	H32	0.425700	0.595000	0.720000
N91	N9	0.394000	0.051900	0.378000
H331	H33	0.379100	0.065400	0.223000
H341	H34	0.362100	0.022800	0.390000
N101	N10	0.341000	0.208500	0.626000
H351	H35	0.373600	0.237900	0.621700
H361	H36	0.353300	0.195000	0.780900
N111	N11	0.147800	0.200000	0.879000
H371	H37	0.115300	0.228800	0.887600
H381	H38	0.133500	0.185300	0.724600
N121	N12	0.097000	0.050400	0.110000
H391	H39	0.111400	0.064700	0.264500
H401	H40	0.129700	0.021800	0.101500
C91	C9	0.402600	0.110500	0.536000
H411	H41	0.437900	0.140800	0.524500
H421	H42	0.419000	0.095200	0.702800
C101	C10	0.334400	0.148900	0.467000
H431	H43	0.318500	0.164400	0.300500
H441	H44	0.299100	0.118100	0.475300
C111	C11	0.159300	0.142900	0.045000
H451	H45	0.173000	0.158300	0.210300
H461	H46	0.194900	0.112000	0.038300
C121	C12	0.087900	0.109800	0.946000
H471	H47	0.052500	0.140900	0.952600
H481	H48	0.074300	0.095000	0.780000
N131	N13	0.894000	0.551900	0.378000
H491	H49	0.879100	0.565400	0.223000
H501	H50	0.862100	0.522800	0.390000
N141	N14	0.841000	0.708500	0.626000
H511	H51	0.873600	0.737900	0.621700
H521	H52	0.853300	0.695000	0.780900
N151	N15	0.647800	0.700000	0.879000
H531	H53	0.615300	0.728800	0.887600
H541	H54	0.633500	0.685300	0.724600
N161	N16	0.597000	0.550400	0.110000
H551	H55	0.611400	0.564700	0.264500
H561	H56	0.629700	0.521800	0.101500
C131	C13	0.902600	0.610500	0.536000
H571	H57	0.937900	0.640800	0.524500
H581	H58	0.919000	0.595200	0.702800
C141	C14	0.834400	0.648900	0.467000
H591	H59	0.818500	0.664400	0.300500
H601	H60	0.799100	0.618100	0.475300
C151	C15	0.659300	0.642900	0.045000
H611	H61	0.673000	0.658300	0.210300
H621	H62	0.694900	0.612000	0.038300
C161	C16	0.587900	0.609800	0.946000
H631	H63	0.552500	0.640900	0.952600
H641	H64	0.574300	0.595000	0.780000
N171	N17	0.394000	0.948100	0.878000
H651	H65	0.379100	0.934600	0.723000
H661	H66	0.362100	0.977200	0.890000
N181	N18	0.341000	0.791500	0.126000
H671	H67	0.373600	0.762100	0.121700
H681	H68	0.353300	0.805000	0.280900
N191	N19	0.147800	0.800000	0.379000
H691	H69	0.115300	0.771200	0.387600
H701	H70	0.133500	0.814700	0.224600
N201	N20	0.097000	0.949600	0.610000
H711	H71	0.111400	0.935300	0.764500
H721	H72	0.129700	0.978200	0.601500
C171	C17	0.402600	0.889500	0.036000
H731	H73	0.437900	0.859200	0.024500
H741	H74	0.419000	0.904800	0.202800
C181	C18	0.334400	0.851100	0.967000
H751	H75	0.318500	0.835600	0.800500
H761	H76	0.299100	0.881900	0.975300
C191	C19	0.159300	0.857100	0.545000
H771	H77	0.173000	0.841700	0.710300
H781	H78	0.194900	0.888000	0.538300
C201	C20	0.087900	0.890200	0.446000
H791	H79	0.052500	0.859100	0.452600
H801	H80	0.074300	0.905000	0.280000
N211	N21	0.894000	0.448100	0.878000
H811	H81	0.879100	0.434600	0.723000
H821	H82	0.862100	0.477200	0.890000
N221	N22	0.841000	0.291500	0.126000
H831	H83	0.873600	0.262100	0.121700
H841	H84	0.853300	0.305000	0.280900
N231	N23	0.647800	0.300000	0.379000
H851	H85	0.615300	0.271200	0.387600
H861	H86	0.633500	0.314700	0.224600
N241	N24	0.597000	0.449600	0.610000
H871	H87	0.611400	0.435300	0.764500
H881	H88	0.629700	0.478200	0.601500
C211	C21	0.902600	0.389500	0.036000
H891	H89	0.937900	0.359200	0.024500
H901	H90	0.919000	0.404800	0.202800
C221	C22	0.834400	0.351100	0.967000
H911	H91	0.818500	0.335600	0.800500
H921	H92	0.799100	0.381900	0.975300
C231	C23	0.659300	0.357100	0.545000
H931	H93	0.673000	0.341700	0.710300
H941	H94	0.694900	0.388000	0.538300
C241	C24	0.587900	0.390200	0.446000
H951	H95	0.552500	0.359100	0.452600
H961	H96	0.574300	0.405000	0.280000
N251	N25	0.606000	0.948100	0.622000
H971	H97	0.620900	0.934600	0.777000
H981	H98	0.637900	0.977200	0.610000
N261	N26	0.659000	0.791500	0.374000
H991	H99	0.626400	0.762100	0.378300
H1001	H100	0.646700	0.805000	0.219100
N271	N27	0.852200	0.800000	0.121000
H1011	H101	0.884700	0.771200	0.112400
H1021	H102	0.866500	0.814700	0.275400
N281	N28	0.903000	0.949600	0.890000
H1031	H103	0.888600	0.935300	0.735500
H1041	H104	0.870300	0.978200	0.898500
C251	C25	0.597400	0.889500	0.464000
H1051	H105	0.562100	0.859200	0.475500
H1061	H106	0.581000	0.904800	0.297200
C261	C26	0.665600	0.851100	0.533000
H1071	H107	0.681500	0.835600	0.699500
H1081	H108	0.700900	0.881900	0.524700
C271	C27	0.840700	0.857100	0.955000
H1091	H109	0.827000	0.841700	0.789700
H1101	H110	0.805100	0.888000	0.961700
C281	C28	0.912100	0.890200	0.054000
H1111	H111	0.947500	0.859100	0.047400
H1121	H112	0.925700	0.905000	0.220000
N291	N29	0.106000	0.448100	0.622000
H1131	H113	0.120900	0.434600	0.777000
H1141	H114	0.137900	0.477200	0.610000
N301	N30	0.159000	0.291500	0.374000
H1151	H115	0.126400	0.262100	0.378300
H1161	H116	0.146700	0.305000	0.219100
N311	N31	0.352200	0.300000	0.121000
H1171	H117	0.384700	0.271200	0.112400
H1181	H118	0.366500	0.314700	0.275400
N321	N32	0.403000	0.449600	0.890000
H1191	H119	0.388600	0.435300	0.735500
H1201	H120	0.370300	0.478200	0.898500
C291	C29	0.097400	0.389500	0.464000
H1211	H121	0.062100	0.359200	0.475500
H1221	H122	0.081000	0.404800	0.297200
C301	C30	0.165600	0.351100	0.533000
H1231	H123	0.181500	0.335600	0.699500
H1241	H124	0.200900	0.381900	0.524700
C311	C31	0.340700	0.357100	0.955000
H1251	H125	0.327000	0.341700	0.789700
H1261	H126	0.305100	0.388000	0.961700
C321	C32	0.412100	0.390200	0.054000
H1271	H127	0.447500	0.359100	0.047400
H1281	H128	0.425700	0.405000	0.220000
Ag11	Ag1	0.500000	0.000000	0.000000
Ag21	Ag2	0.000000	0.500000	0.000000
Ag31	Ag3	0.500000	0.000000	0.500000
Ag41	Ag4	0.000000	0.500000	0.500000
Ag51	Ag5	0.750000	0.250000	0.000000
Ag61	Ag6	0.250000	0.250000	0.500000
Ag71	Ag7	0.250000	0.750000	0.000000
Ag81	Ag8	0.750000	0.750000	0.500000
Ag91	Ag9	0.750000	0.250000	0.500000
Ag101	Ag10	0.250000	0.250000	0.000000
Ag111	Ag11	0.250000	0.750000	0.500000
Ag121	Ag12	0.750000	0.750000	0.000000
Ag131	Ag13	0.000000	0.000000	0.500000
Ag141	Ag14	0.500000	0.500000	0.500000
Ag151	Ag15	0.000000	0.000000	0.000000
Ag161	Ag16	0.500000	0.500000	0.000000
