data_MAGVOG18_clean_PM
_symmetry_space_group_name_H-M	'P1'
_cell_length_a	10.461800
_cell_length_b	10.494700
_cell_length_c	6.313000
_cell_angle_alpha	90.000000
_cell_angle_beta	115.318000
_cell_angle_gamma	90.000000
_symmetry_Int_Tables_number 1

loop_
_symmetry_equiv_pos_as_xyz
'x,y,z'

loop_
_atom_site_label
_atom_site_type_symbol
_atom_site_fract_x
_atom_site_fract_y
_atom_site_fract_z
C11	C1	0.315400	0.210000	0.546200
H11	H1	0.396800	0.264600	0.581700
H21	H2	0.325800	0.170000	0.691200
N11	N1	0.314000	0.110900	0.381700
H31	H3	0.300700	0.148200	0.245400
H41	H4	0.240000	0.058900	0.353000
C21	C2	0.815400	0.710000	0.546200
H51	H5	0.896800	0.764600	0.581700
H61	H6	0.825800	0.670000	0.691200
N21	N2	0.814000	0.610900	0.381700
H71	H7	0.800700	0.648200	0.245400
H81	H8	0.740000	0.558900	0.353000
C31	C3	0.684600	0.210000	0.953800
H91	H9	0.603200	0.264600	0.918300
H101	H10	0.674200	0.170000	0.808800
N31	N3	0.686000	0.110900	0.118300
H111	H11	0.699300	0.148200	0.254600
H121	H12	0.760000	0.058900	0.147000
C41	C4	0.184600	0.710000	0.953800
H131	H13	0.103200	0.764600	0.918300
H141	H14	0.174200	0.670000	0.808800
N41	N4	0.186000	0.610900	0.118300
H151	H15	0.199300	0.648200	0.254600
H161	H16	0.260000	0.558900	0.147000
C51	C5	0.684600	0.790000	0.453800
H171	H17	0.603200	0.735400	0.418300
H181	H18	0.674200	0.830000	0.308800
N51	N5	0.686000	0.889100	0.618300
H191	H19	0.699300	0.851800	0.754600
H201	H20	0.760000	0.941100	0.647000
C61	C6	0.184600	0.290000	0.453800
H211	H21	0.103200	0.235400	0.418300
H221	H22	0.174200	0.330000	0.308800
N61	N6	0.186000	0.389100	0.618300
H231	H23	0.199300	0.351800	0.754600
H241	H24	0.260000	0.441100	0.647000
C71	C7	0.315400	0.790000	0.046200
H251	H25	0.396800	0.735400	0.081700
H261	H26	0.325800	0.830000	0.191200
N71	N7	0.314000	0.889100	0.881700
H271	H27	0.300700	0.851800	0.745400
H281	H28	0.240000	0.941100	0.853000
C81	C8	0.815400	0.290000	0.046200
H291	H29	0.896800	0.235400	0.081700
H301	H30	0.825800	0.330000	0.191200
N81	N8	0.814000	0.389100	0.881700
H311	H31	0.800700	0.351800	0.745400
H321	H32	0.740000	0.441100	0.853000
Ag11	Ag1	0.500000	0.000000	0.500000
Ag21	Ag2	0.000000	0.500000	0.500000
Ag31	Ag3	0.500000	0.000000	0.000000
Ag41	Ag4	0.000000	0.500000	0.000000
