data_MAGVOG24_clean_PM
_symmetry_space_group_name_H-M	'P1'
_cell_length_a	10.231900
_cell_length_b	10.653100
_cell_length_c	6.221000
_cell_angle_alpha	90.000000
_cell_angle_beta	114.485000
_cell_angle_gamma	90.000000
_symmetry_Int_Tables_number 1

loop_
_symmetry_equiv_pos_as_xyz
'x,y,z'

loop_
_atom_site_label
_atom_site_type_symbol
_atom_site_fract_x
_atom_site_fract_y
_atom_site_fract_z
C11	C1	0.318000	0.211300	0.545300
H11	H1	0.400700	0.266400	0.568200
H21	H2	0.333700	0.174900	0.700600
N11	N1	0.310800	0.109200	0.380400
H31	H3	0.295000	0.143300	0.235800
H41	H4	0.234200	0.058000	0.360200
C21	C2	0.818000	0.711300	0.545300
H51	H5	0.900700	0.766400	0.568200
H61	H6	0.833700	0.674900	0.700600
N21	N2	0.810800	0.609200	0.380400
H71	H7	0.795000	0.643300	0.235800
H81	H8	0.734200	0.558000	0.360200
C31	C3	0.682000	0.211300	0.954700
H91	H9	0.599300	0.266400	0.931800
H101	H10	0.666300	0.174900	0.799400
N31	N3	0.689200	0.109200	0.119600
H111	H11	0.705000	0.143300	0.264200
H121	H12	0.765800	0.058000	0.139800
C41	C4	0.182000	0.711300	0.954700
H131	H13	0.099300	0.766400	0.931800
H141	H14	0.166300	0.674900	0.799400
N41	N4	0.189200	0.609200	0.119600
H151	H15	0.205000	0.643300	0.264200
H161	H16	0.265800	0.558000	0.139800
C51	C5	0.682000	0.788700	0.454700
H171	H17	0.599300	0.733600	0.431800
H181	H18	0.666300	0.825100	0.299400
N51	N5	0.689200	0.890800	0.619600
H191	H19	0.705000	0.856700	0.764200
H201	H20	0.765800	0.942000	0.639800
C61	C6	0.182000	0.288700	0.454700
H211	H21	0.099300	0.233600	0.431800
H221	H22	0.166300	0.325100	0.299400
N61	N6	0.189200	0.390800	0.619600
H231	H23	0.205000	0.356700	0.764200
H241	H24	0.265800	0.442000	0.639800
C71	C7	0.318000	0.788700	0.045300
H251	H25	0.400700	0.733600	0.068200
H261	H26	0.333700	0.825100	0.200600
N71	N7	0.310800	0.890800	0.880400
H271	H27	0.295000	0.856700	0.735800
H281	H28	0.234200	0.942000	0.860200
C81	C8	0.818000	0.288700	0.045300
H291	H29	0.900700	0.233600	0.068200
H301	H30	0.833700	0.325100	0.200600
N81	N8	0.810800	0.390800	0.880400
H311	H31	0.795000	0.356700	0.735800
H321	H32	0.734200	0.442000	0.860200
Ag11	Ag1	0.500000	0.000000	0.500000
Ag21	Ag2	0.000000	0.500000	0.500000
Ag31	Ag3	0.500000	0.000000	0.000000
Ag41	Ag4	0.000000	0.500000	0.000000
