data_MAGVOG32_clean_PM
_symmetry_space_group_name_H-M	'P1'
_cell_length_a	10.372500
_cell_length_b	10.557500
_cell_length_c	6.270600
_cell_angle_alpha	90.000000
_cell_angle_beta	114.948000
_cell_angle_gamma	90.000000
_symmetry_Int_Tables_number 1

loop_
_symmetry_equiv_pos_as_xyz
'x,y,z'

loop_
_atom_site_label
_atom_site_type_symbol
_atom_site_fract_x
_atom_site_fract_y
_atom_site_fract_z
C11	C1	0.316700	0.210600	0.545700
H11	H1	0.397700	0.265000	0.574200
H21	H2	0.329900	0.172700	0.694500
N11	N1	0.311900	0.109900	0.380800
H31	H3	0.297000	0.145200	0.241700
H41	H4	0.237800	0.058700	0.357300
C21	C2	0.816700	0.710600	0.545700
H51	H5	0.897700	0.765000	0.574200
H61	H6	0.829900	0.672700	0.694500
N21	N2	0.811900	0.609900	0.380800
H71	H7	0.797000	0.645200	0.241700
H81	H8	0.737800	0.558700	0.357300
C31	C3	0.683300	0.210600	0.954300
H91	H9	0.602300	0.265000	0.925800
H101	H10	0.670100	0.172700	0.805500
N31	N3	0.688100	0.109900	0.119200
H111	H11	0.703000	0.145200	0.258300
H121	H12	0.762200	0.058700	0.142700
C41	C4	0.183300	0.710600	0.954300
H131	H13	0.102300	0.765000	0.925800
H141	H14	0.170100	0.672700	0.805500
N41	N4	0.188100	0.609900	0.119200
H151	H15	0.203000	0.645200	0.258300
H161	H16	0.262200	0.558700	0.142700
C51	C5	0.683300	0.789400	0.454300
H171	H17	0.602300	0.735000	0.425800
H181	H18	0.670100	0.827300	0.305500
N51	N5	0.688100	0.890100	0.619200
H191	H19	0.703000	0.854800	0.758300
H201	H20	0.762200	0.941300	0.642700
C61	C6	0.183300	0.289400	0.454300
H211	H21	0.102300	0.235000	0.425800
H221	H22	0.170100	0.327300	0.305500
N61	N6	0.188100	0.390100	0.619200
H231	H23	0.203000	0.354800	0.758300
H241	H24	0.262200	0.441300	0.642700
C71	C7	0.316700	0.789400	0.045700
H251	H25	0.397700	0.735000	0.074200
H261	H26	0.329900	0.827300	0.194500
N71	N7	0.311900	0.890100	0.880800
H271	H27	0.297000	0.854800	0.741700
H281	H28	0.237800	0.941300	0.857300
C81	C8	0.816700	0.289400	0.045700
H291	H29	0.897700	0.235000	0.074200
H301	H30	0.829900	0.327300	0.194500
N81	N8	0.811900	0.390100	0.880800
H311	H31	0.797000	0.354800	0.741700
H321	H32	0.737800	0.441300	0.857300
Ag11	Ag1	0.500000	0.000000	0.500000
Ag21	Ag2	0.000000	0.500000	0.500000
Ag31	Ag3	0.500000	0.000000	0.000000
Ag41	Ag4	0.000000	0.500000	0.000000
