data_MAGVOG05_clean_PM
_symmetry_space_group_name_H-M	'P1'
_cell_length_a	10.596000
_cell_length_b	10.295000
_cell_length_c	6.141000
_cell_angle_alpha	90.000000
_cell_angle_beta	114.670000
_cell_angle_gamma	90.000000
_symmetry_Int_Tables_number 1

loop_
_symmetry_equiv_pos_as_xyz
'x,y,z'

loop_
_atom_site_label
_atom_site_type_symbol
_atom_site_fract_x
_atom_site_fract_y
_atom_site_fract_z
C11	C1	0.318000	0.212900	0.545000
H11	H1	0.393100	0.270400	0.559400
H21	H2	0.337700	0.176200	0.701700
N11	N1	0.303300	0.108800	0.373000
H31	H3	0.283800	0.143000	0.227500
H41	H4	0.233400	0.055300	0.360500
C21	C2	0.818000	0.712900	0.545000
H51	H5	0.893100	0.770400	0.559400
H61	H6	0.837700	0.676200	0.701700
N21	N2	0.803300	0.608800	0.373000
H71	H7	0.783800	0.643000	0.227500
H81	H8	0.733400	0.555300	0.360500
C31	C3	0.682000	0.212900	0.955000
H91	H9	0.606900	0.270400	0.940600
H101	H10	0.662300	0.176200	0.798300
N31	N3	0.696700	0.108800	0.127000
H111	H11	0.716200	0.143000	0.272500
H121	H12	0.766600	0.055300	0.139500
C41	C4	0.182000	0.712900	0.955000
H131	H13	0.106900	0.770400	0.940600
H141	H14	0.162300	0.676200	0.798300
N41	N4	0.196700	0.608800	0.127000
H151	H15	0.216200	0.643000	0.272500
H161	H16	0.266600	0.555300	0.139500
C51	C5	0.682000	0.787100	0.455000
H171	H17	0.606900	0.729600	0.440600
H181	H18	0.662300	0.823800	0.298300
N51	N5	0.696700	0.891200	0.627000
H191	H19	0.716200	0.857000	0.772500
H201	H20	0.766600	0.944700	0.639500
C61	C6	0.182000	0.287100	0.455000
H211	H21	0.106900	0.229600	0.440600
H221	H22	0.162300	0.323800	0.298300
N61	N6	0.196700	0.391200	0.627000
H231	H23	0.216200	0.357000	0.772500
H241	H24	0.266600	0.444700	0.639500
C71	C7	0.318000	0.787100	0.045000
H251	H25	0.393100	0.729600	0.059400
H261	H26	0.337700	0.823800	0.201700
N71	N7	0.303300	0.891200	0.873000
H271	H27	0.283800	0.857000	0.727500
H281	H28	0.233400	0.944700	0.860500
C81	C8	0.818000	0.287100	0.045000
H291	H29	0.893100	0.229600	0.059400
H301	H30	0.837700	0.323800	0.201700
N81	N8	0.803300	0.391200	0.873000
H311	H31	0.783800	0.357000	0.727500
H321	H32	0.733400	0.444700	0.860500
Ag11	Ag1	0.500000	0.000000	0.500000
Ag21	Ag2	0.000000	0.500000	0.500000
Ag31	Ag3	0.500000	0.000000	0.000000
Ag41	Ag4	0.000000	0.500000	0.000000
