data_MAGVOG20_clean_PM
_symmetry_space_group_name_H-M	'P1'
_cell_length_a	10.486900
_cell_length_b	10.479800
_cell_length_c	6.327900
_cell_angle_alpha	90.000000
_cell_angle_beta	115.431000
_cell_angle_gamma	90.000000
_symmetry_Int_Tables_number 1

loop_
_symmetry_equiv_pos_as_xyz
'x,y,z'

loop_
_atom_site_label
_atom_site_type_symbol
_atom_site_fract_x
_atom_site_fract_y
_atom_site_fract_z
C11	C1	0.315400	0.209500	0.546400
H11	H1	0.397000	0.263900	0.583700
H21	H2	0.325000	0.168800	0.690200
N11	N1	0.314300	0.111200	0.382100
H31	H3	0.301200	0.148900	0.246500
H41	H4	0.240400	0.059000	0.352300
C21	C2	0.815400	0.709500	0.546400
H51	H5	0.897000	0.763900	0.583700
H61	H6	0.825000	0.668800	0.690200
N21	N2	0.814300	0.611200	0.382100
H71	H7	0.801200	0.648900	0.246500
H81	H8	0.740400	0.559000	0.352300
C31	C3	0.684600	0.209500	0.953600
H91	H9	0.603000	0.263900	0.916300
H101	H10	0.675000	0.168800	0.809800
N31	N3	0.685700	0.111200	0.117900
H111	H11	0.698800	0.148900	0.253500
H121	H12	0.759600	0.059000	0.147700
C41	C4	0.184600	0.709500	0.953600
H131	H13	0.103000	0.763900	0.916300
H141	H14	0.175000	0.668800	0.809800
N41	N4	0.185700	0.611200	0.117900
H151	H15	0.198800	0.648900	0.253500
H161	H16	0.259600	0.559000	0.147700
C51	C5	0.684600	0.790500	0.453600
H171	H17	0.603000	0.736100	0.416300
H181	H18	0.675000	0.831200	0.309800
N51	N5	0.685700	0.888800	0.617900
H191	H19	0.698800	0.851100	0.753500
H201	H20	0.759600	0.941000	0.647700
C61	C6	0.184600	0.290500	0.453600
H211	H21	0.103000	0.236100	0.416300
H221	H22	0.175000	0.331200	0.309800
N61	N6	0.185700	0.388800	0.617900
H231	H23	0.198800	0.351100	0.753500
H241	H24	0.259600	0.441000	0.647700
C71	C7	0.315400	0.790500	0.046400
H251	H25	0.397000	0.736100	0.083700
H261	H26	0.325000	0.831200	0.190200
N71	N7	0.314300	0.888800	0.882100
H271	H27	0.301200	0.851100	0.746500
H281	H28	0.240400	0.941000	0.852300
C81	C8	0.815400	0.290500	0.046400
H291	H29	0.897000	0.236100	0.083700
H301	H30	0.825000	0.331200	0.190200
N81	N8	0.814300	0.388800	0.882100
H311	H31	0.801200	0.351100	0.746500
H321	H32	0.740400	0.441000	0.852300
Ag11	Ag1	0.500000	0.000000	0.500000
Ag21	Ag2	0.000000	0.500000	0.500000
Ag31	Ag3	0.500000	0.000000	0.000000
Ag41	Ag4	0.000000	0.500000	0.000000
