data_MAGVOG11_clean_PM
_symmetry_space_group_name_H-M	'P1'
_cell_length_a	20.796000
_cell_length_b	19.485000
_cell_length_c	5.972000
_cell_angle_alpha	90.000000
_cell_angle_beta	114.096000
_cell_angle_gamma	90.000000
_symmetry_Int_Tables_number 1

loop_
_symmetry_equiv_pos_as_xyz
'x,y,z'

loop_
_atom_site_label
_atom_site_type_symbol
_atom_site_fract_x
_atom_site_fract_y
_atom_site_fract_z
N11	N1	0.612000	0.040200	0.151000
H11	H1	0.628100	0.051300	0.310700
H21	H2	0.641900	0.010800	0.126200
N21	N2	0.652000	0.201100	0.880000
H31	H3	0.618700	0.229900	0.887500
H41	H4	0.637800	0.186200	0.724500
N31	N3	0.841000	0.196100	0.610000
H51	H5	0.876700	0.224800	0.628000
H61	H6	0.850100	0.176600	0.756500
N41	N4	0.906800	0.055000	0.381000
H71	H7	0.897200	0.071900	0.230800
H81	H8	0.871500	0.026400	0.369200
C11	C1	0.597400	0.100300	0.993000
H91	H9	0.561900	0.128300	0.015700
H101	H10	0.578900	0.085900	0.823000
C21	C2	0.663200	0.142500	0.051000
H111	H11	0.679300	0.159900	0.217500
H121	H12	0.699900	0.113200	0.043400
C31	C3	0.836400	0.143000	0.433000
H131	H13	0.826900	0.162400	0.272700
H141	H14	0.800500	0.109400	0.417700
C41	C4	0.909400	0.112400	0.548000
H151	H15	0.944800	0.145800	0.555900
H161	H16	0.919600	0.095800	0.712100
N51	N5	0.112000	0.540200	0.151000
H171	H17	0.128100	0.551300	0.310700
H181	H18	0.141900	0.510800	0.126200
N61	N6	0.152000	0.701100	0.880000
H191	H19	0.118700	0.729900	0.887500
H201	H20	0.137800	0.686200	0.724500
N71	N7	0.341000	0.696100	0.610000
H211	H21	0.376700	0.724800	0.628000
H221	H22	0.350100	0.676600	0.756500
N81	N8	0.406800	0.555000	0.381000
H231	H23	0.397200	0.571900	0.230800
H241	H24	0.371500	0.526400	0.369200
C51	C5	0.097400	0.600300	0.993000
H251	H25	0.061900	0.628300	0.015700
H261	H26	0.078900	0.585900	0.823000
C61	C6	0.163200	0.642500	0.051000
H271	H27	0.179300	0.659900	0.217500
H281	H28	0.199900	0.613200	0.043400
C71	C7	0.336400	0.643000	0.433000
H291	H29	0.326900	0.662400	0.272700
H301	H30	0.300500	0.609400	0.417700
C81	C8	0.409400	0.612400	0.548000
H311	H31	0.444800	0.645800	0.555900
H321	H32	0.419600	0.595800	0.712100
N91	N9	0.388000	0.040200	0.349000
H331	H33	0.371900	0.051300	0.189300
H341	H34	0.358100	0.010800	0.373800
N101	N10	0.348000	0.201100	0.620000
H351	H35	0.381300	0.229900	0.612500
H361	H36	0.362200	0.186200	0.775500
N111	N11	0.159000	0.196100	0.890000
H371	H37	0.123300	0.224800	0.872000
H381	H38	0.149900	0.176600	0.743500
N121	N12	0.093200	0.055000	0.119000
H391	H39	0.102800	0.071900	0.269200
H401	H40	0.128500	0.026400	0.130800
C91	C9	0.402600	0.100300	0.507000
H411	H41	0.438100	0.128300	0.484300
H421	H42	0.421100	0.085900	0.677000
C101	C10	0.336800	0.142500	0.449000
H431	H43	0.320700	0.159900	0.282500
H441	H44	0.300100	0.113200	0.456600
C111	C11	0.163600	0.143000	0.067000
H451	H45	0.173100	0.162400	0.227300
H461	H46	0.199500	0.109400	0.082300
C121	C12	0.090600	0.112400	0.952000
H471	H47	0.055200	0.145800	0.944100
H481	H48	0.080400	0.095800	0.787900
N131	N13	0.888000	0.540200	0.349000
H491	H49	0.871900	0.551300	0.189300
H501	H50	0.858100	0.510800	0.373800
N141	N14	0.848000	0.701100	0.620000
H511	H51	0.881300	0.729900	0.612500
H521	H52	0.862200	0.686200	0.775500
N151	N15	0.659000	0.696100	0.890000
H531	H53	0.623300	0.724800	0.872000
H541	H54	0.649900	0.676600	0.743500
N161	N16	0.593200	0.555000	0.119000
H551	H55	0.602800	0.571900	0.269200
H561	H56	0.628500	0.526400	0.130800
C131	C13	0.902600	0.600300	0.507000
H571	H57	0.938100	0.628300	0.484300
H581	H58	0.921100	0.585900	0.677000
C141	C14	0.836800	0.642500	0.449000
H591	H59	0.820700	0.659900	0.282500
H601	H60	0.800100	0.613200	0.456600
C151	C15	0.663600	0.643000	0.067000
H611	H61	0.673100	0.662400	0.227300
H621	H62	0.699500	0.609400	0.082300
C161	C16	0.590600	0.612400	0.952000
H631	H63	0.555200	0.645800	0.944100
H641	H64	0.580400	0.595800	0.787900
N171	N17	0.388000	0.959800	0.849000
H651	H65	0.371900	0.948700	0.689300
H661	H66	0.358100	0.989200	0.873800
N181	N18	0.348000	0.798900	0.120000
H671	H67	0.381300	0.770100	0.112500
H681	H68	0.362200	0.813800	0.275500
N191	N19	0.159000	0.803900	0.390000
H691	H69	0.123300	0.775200	0.372000
H701	H70	0.149900	0.823400	0.243500
N201	N20	0.093200	0.945000	0.619000
H711	H71	0.102800	0.928100	0.769200
H721	H72	0.128500	0.973600	0.630800
C171	C17	0.402600	0.899700	0.007000
H731	H73	0.438100	0.871700	0.984300
H741	H74	0.421100	0.914100	0.177000
C181	C18	0.336800	0.857500	0.949000
H751	H75	0.320700	0.840100	0.782500
H761	H76	0.300100	0.886800	0.956600
C191	C19	0.163600	0.857000	0.567000
H771	H77	0.173100	0.837600	0.727300
H781	H78	0.199500	0.890600	0.582300
C201	C20	0.090600	0.887600	0.452000
H791	H79	0.055200	0.854200	0.444100
H801	H80	0.080400	0.904200	0.287900
N211	N21	0.888000	0.459800	0.849000
H811	H81	0.871900	0.448700	0.689300
H821	H82	0.858100	0.489200	0.873800
N221	N22	0.848000	0.298900	0.120000
H831	H83	0.881300	0.270100	0.112500
H841	H84	0.862200	0.313800	0.275500
N231	N23	0.659000	0.303900	0.390000
H851	H85	0.623300	0.275200	0.372000
H861	H86	0.649900	0.323400	0.243500
N241	N24	0.593200	0.445000	0.619000
H871	H87	0.602800	0.428100	0.769200
H881	H88	0.628500	0.473600	0.630800
C211	C21	0.902600	0.399700	0.007000
H891	H89	0.938100	0.371700	0.984300
H901	H90	0.921100	0.414100	0.177000
C221	C22	0.836800	0.357500	0.949000
H911	H91	0.820700	0.340100	0.782500
H921	H92	0.800100	0.386800	0.956600
C231	C23	0.663600	0.357000	0.567000
H931	H93	0.673100	0.337600	0.727300
H941	H94	0.699500	0.390600	0.582300
C241	C24	0.590600	0.387600	0.452000
H951	H95	0.555200	0.354200	0.444100
H961	H96	0.580400	0.404200	0.287900
N251	N25	0.612000	0.959800	0.651000
H971	H97	0.628100	0.948700	0.810700
H981	H98	0.641900	0.989200	0.626200
N261	N26	0.652000	0.798900	0.380000
H991	H99	0.618700	0.770100	0.387500
H1001	H100	0.637800	0.813800	0.224500
N271	N27	0.841000	0.803900	0.110000
H1011	H101	0.876700	0.775200	0.128000
H1021	H102	0.850100	0.823400	0.256500
N281	N28	0.906800	0.945000	0.881000
H1031	H103	0.897200	0.928100	0.730800
H1041	H104	0.871500	0.973600	0.869200
C251	C25	0.597400	0.899700	0.493000
H1051	H105	0.561900	0.871700	0.515700
H1061	H106	0.578900	0.914100	0.323000
C261	C26	0.663200	0.857500	0.551000
H1071	H107	0.679300	0.840100	0.717500
H1081	H108	0.699900	0.886800	0.543400
C271	C27	0.836400	0.857000	0.933000
H1091	H109	0.826900	0.837600	0.772700
H1101	H110	0.800500	0.890600	0.917700
C281	C28	0.909400	0.887600	0.048000
H1111	H111	0.944800	0.854200	0.055900
H1121	H112	0.919600	0.904200	0.212100
N291	N29	0.112000	0.459800	0.651000
H1131	H113	0.128100	0.448700	0.810700
H1141	H114	0.141900	0.489200	0.626200
N301	N30	0.152000	0.298900	0.380000
H1151	H115	0.118700	0.270100	0.387500
H1161	H116	0.137800	0.313800	0.224500
N311	N31	0.341000	0.303900	0.110000
H1171	H117	0.376700	0.275200	0.128000
H1181	H118	0.350100	0.323400	0.256500
N321	N32	0.406800	0.445000	0.881000
H1191	H119	0.397200	0.428100	0.730800
H1201	H120	0.371500	0.473600	0.869200
C291	C29	0.097400	0.399700	0.493000
H1211	H121	0.061900	0.371700	0.515700
H1221	H122	0.078900	0.414100	0.323000
C301	C30	0.163200	0.357500	0.551000
H1231	H123	0.179300	0.340100	0.717500
H1241	H124	0.199900	0.386800	0.543400
C311	C31	0.336400	0.357000	0.933000
H1251	H125	0.326900	0.337600	0.772700
H1261	H126	0.300500	0.390600	0.917700
C321	C32	0.409400	0.387600	0.048000
H1271	H127	0.444800	0.354200	0.055900
H1281	H128	0.419600	0.404200	0.212100
Ag11	Ag1	0.500000	0.000000	0.000000
Ag21	Ag2	0.000000	0.500000	0.000000
Ag31	Ag3	0.500000	0.000000	0.500000
Ag41	Ag4	0.000000	0.500000	0.500000
Ag51	Ag5	0.750000	0.250000	0.000000
Ag61	Ag6	0.250000	0.250000	0.500000
Ag71	Ag7	0.250000	0.750000	0.000000
Ag81	Ag8	0.750000	0.750000	0.500000
Ag91	Ag9	0.750000	0.250000	0.500000
Ag101	Ag10	0.250000	0.250000	0.000000
Ag111	Ag11	0.250000	0.750000	0.500000
Ag121	Ag12	0.750000	0.750000	0.000000
Ag131	Ag13	0.000000	0.000000	0.500000
Ag141	Ag14	0.500000	0.500000	0.500000
Ag151	Ag15	0.000000	0.000000	0.000000
Ag161	Ag16	0.500000	0.500000	0.000000
