data_MAGVOG_clean_PM
_symmetry_space_group_name_H-M	'P1'
_cell_length_a	10.418000
_cell_length_b	10.521000
_cell_length_c	6.287000
_cell_angle_alpha	90.000000
_cell_angle_beta	115.160000
_cell_angle_gamma	90.000000
_symmetry_Int_Tables_number 1

loop_
_symmetry_equiv_pos_as_xyz
'x,y,z'

loop_
_atom_site_label
_atom_site_type_symbol
_atom_site_fract_x
_atom_site_fract_y
_atom_site_fract_z
N11	N1	0.312700	0.109800	0.381600
H11	H1	0.307600	0.169200	0.264300
H21	H2	0.226500	0.054300	0.334700
C11	C1	0.316500	0.210600	0.546400
H31	H3	0.397100	0.265400	0.575900
H41	H4	0.329400	0.172500	0.694700
N21	N2	0.812700	0.609800	0.381600
H51	H5	0.807600	0.669200	0.264300
H61	H6	0.726500	0.554300	0.334700
C21	C2	0.816500	0.710600	0.546400
H71	H7	0.897100	0.765400	0.575900
H81	H8	0.829400	0.672500	0.694700
N31	N3	0.687300	0.109800	0.118400
H91	H9	0.692400	0.169200	0.235700
H101	H10	0.773500	0.054300	0.165300
C31	C3	0.683500	0.210600	0.953600
H111	H11	0.602900	0.265400	0.924100
H121	H12	0.670600	0.172500	0.805300
N41	N4	0.187300	0.609800	0.118400
H131	H13	0.192400	0.669200	0.235700
H141	H14	0.273500	0.554300	0.165300
C41	C4	0.183500	0.710600	0.953600
H151	H15	0.102900	0.765400	0.924100
H161	H16	0.170600	0.672500	0.805300
N51	N5	0.687300	0.890200	0.618400
H171	H17	0.692400	0.830800	0.735700
H181	H18	0.773500	0.945700	0.665300
C51	C5	0.683500	0.789400	0.453600
H191	H19	0.602900	0.734600	0.424100
H201	H20	0.670600	0.827500	0.305300
N61	N6	0.187300	0.390200	0.618400
H211	H21	0.192400	0.330800	0.735700
H221	H22	0.273500	0.445700	0.665300
C61	C6	0.183500	0.289400	0.453600
H231	H23	0.102900	0.234600	0.424100
H241	H24	0.170600	0.327500	0.305300
N71	N7	0.312700	0.890200	0.881600
H251	H25	0.307600	0.830800	0.764300
H261	H26	0.226500	0.945700	0.834700
C71	C7	0.316500	0.789400	0.046400
H271	H27	0.397100	0.734600	0.075900
H281	H28	0.329400	0.827500	0.194700
N81	N8	0.812700	0.390200	0.881600
H291	H29	0.807600	0.330800	0.764300
H301	H30	0.726500	0.445700	0.834700
C81	C8	0.816500	0.289400	0.046400
H311	H31	0.897100	0.234600	0.075900
H321	H32	0.829400	0.327500	0.194700
Ag11	Ag1	0.500000	0.000000	0.500000
Ag21	Ag2	0.000000	0.500000	0.500000
Ag31	Ag3	0.500000	0.000000	0.000000
Ag41	Ag4	0.000000	0.500000	0.000000
