data_MAGVOG15_clean_PM
_symmetry_space_group_name_H-M	'P1'
_cell_length_a	20.117000
_cell_length_b	19.565000
_cell_length_c	5.961000
_cell_angle_alpha	90.000000
_cell_angle_beta	114.040000
_cell_angle_gamma	90.000000
_symmetry_Int_Tables_number 1

loop_
_symmetry_equiv_pos_as_xyz
'x,y,z'

loop_
_atom_site_label
_atom_site_type_symbol
_atom_site_fract_x
_atom_site_fract_y
_atom_site_fract_z
N11	N1	0.581600	0.052400	0.117000
H11	H1	0.585900	0.072400	0.258000
H21	H2	0.620900	0.025700	0.149200
N21	N2	0.644900	0.203600	0.864000
H31	H3	0.611300	0.234200	0.861900
H41	H4	0.632700	0.188400	0.709400
N31	N3	0.836800	0.193200	0.605000
H51	H5	0.875600	0.219500	0.624800
H61	H6	0.844700	0.173800	0.750200
N41	N4	0.896200	0.046900	0.374000
H71	H7	0.881700	0.060100	0.216100
H81	H8	0.863100	0.017500	0.383600
C11	C1	0.578900	0.104600	0.940000
H91	H9	0.538200	0.134900	0.912500
H101	H10	0.571300	0.083100	0.784800
C21	C2	0.648300	0.145700	0.029000
H111	H11	0.658200	0.163400	0.191500
H121	H12	0.688300	0.115900	0.042300
C31	C3	0.829400	0.139900	0.425000
H131	H13	0.819100	0.159100	0.264200
H141	H14	0.791600	0.107500	0.412600
C41	C4	0.903800	0.107400	0.535000
H151	H15	0.940700	0.138600	0.530400
H161	H16	0.916200	0.093500	0.703300
N51	N5	0.081600	0.552400	0.117000
H171	H17	0.085900	0.572400	0.258000
H181	H18	0.120900	0.525700	0.149200
N61	N6	0.144900	0.703600	0.864000
H191	H19	0.111300	0.734200	0.861900
H201	H20	0.132700	0.688400	0.709400
N71	N7	0.336800	0.693200	0.605000
H211	H21	0.375600	0.719500	0.624800
H221	H22	0.344700	0.673800	0.750200
N81	N8	0.396200	0.546900	0.374000
H231	H23	0.381700	0.560100	0.216100
H241	H24	0.363100	0.517500	0.383600
C51	C5	0.078900	0.604600	0.940000
H251	H25	0.038200	0.634900	0.912500
H261	H26	0.071300	0.583100	0.784800
C61	C6	0.148300	0.645700	0.029000
H271	H27	0.158200	0.663400	0.191500
H281	H28	0.188300	0.615900	0.042300
C71	C7	0.329400	0.639900	0.425000
H291	H29	0.319100	0.659100	0.264200
H301	H30	0.291600	0.607500	0.412600
C81	C8	0.403800	0.607400	0.535000
H311	H31	0.440700	0.638600	0.530400
H321	H32	0.416200	0.593500	0.703300
N91	N9	0.418400	0.052400	0.383000
H331	H33	0.414100	0.072400	0.242000
H341	H34	0.379100	0.025700	0.350800
N101	N10	0.355100	0.203600	0.636000
H351	H35	0.388700	0.234200	0.638100
H361	H36	0.367300	0.188400	0.790600
N111	N11	0.163200	0.193200	0.895000
H371	H37	0.124400	0.219500	0.875200
H381	H38	0.155300	0.173800	0.749800
N121	N12	0.103800	0.046900	0.126000
H391	H39	0.118300	0.060100	0.283900
H401	H40	0.136900	0.017500	0.116400
C91	C9	0.421100	0.104600	0.560000
H411	H41	0.461800	0.134900	0.587500
H421	H42	0.428700	0.083100	0.715200
C101	C10	0.351700	0.145700	0.471000
H431	H43	0.341800	0.163400	0.308500
H441	H44	0.311700	0.115900	0.457700
C111	C11	0.170600	0.139900	0.075000
H451	H45	0.180900	0.159100	0.235800
H461	H46	0.208400	0.107500	0.087400
C121	C12	0.096200	0.107400	0.965000
H471	H47	0.059300	0.138600	0.969600
H481	H48	0.083800	0.093500	0.796700
N131	N13	0.918400	0.552400	0.383000
H491	H49	0.914100	0.572400	0.242000
H501	H50	0.879100	0.525700	0.350800
N141	N14	0.855100	0.703600	0.636000
H511	H51	0.888700	0.734200	0.638100
H521	H52	0.867300	0.688400	0.790600
N151	N15	0.663200	0.693200	0.895000
H531	H53	0.624400	0.719500	0.875200
H541	H54	0.655300	0.673800	0.749800
N161	N16	0.603800	0.546900	0.126000
H551	H55	0.618300	0.560100	0.283900
H561	H56	0.636900	0.517500	0.116400
C131	C13	0.921100	0.604600	0.560000
H571	H57	0.961800	0.634900	0.587500
H581	H58	0.928700	0.583100	0.715200
C141	C14	0.851700	0.645700	0.471000
H591	H59	0.841800	0.663400	0.308500
H601	H60	0.811700	0.615900	0.457700
C151	C15	0.670600	0.639900	0.075000
H611	H61	0.680900	0.659100	0.235800
H621	H62	0.708400	0.607500	0.087400
C161	C16	0.596200	0.607400	0.965000
H631	H63	0.559300	0.638600	0.969600
H641	H64	0.583800	0.593500	0.796700
N171	N17	0.418400	0.947600	0.883000
H651	H65	0.414100	0.927600	0.742000
H661	H66	0.379100	0.974300	0.850800
N181	N18	0.355100	0.796400	0.136000
H671	H67	0.388700	0.765800	0.138100
H681	H68	0.367300	0.811600	0.290600
N191	N19	0.163200	0.806800	0.395000
H691	H69	0.124400	0.780500	0.375200
H701	H70	0.155300	0.826200	0.249800
N201	N20	0.103800	0.953100	0.626000
H711	H71	0.118300	0.939900	0.783900
H721	H72	0.136900	0.982500	0.616400
C171	C17	0.421100	0.895400	0.060000
H731	H73	0.461800	0.865100	0.087500
H741	H74	0.428700	0.916900	0.215200
C181	C18	0.351700	0.854300	0.971000
H751	H75	0.341800	0.836600	0.808500
H761	H76	0.311700	0.884100	0.957700
C191	C19	0.170600	0.860100	0.575000
H771	H77	0.180900	0.840900	0.735800
H781	H78	0.208400	0.892500	0.587400
C201	C20	0.096200	0.892600	0.465000
H791	H79	0.059300	0.861400	0.469600
H801	H80	0.083800	0.906500	0.296700
N211	N21	0.918400	0.447600	0.883000
H811	H81	0.914100	0.427600	0.742000
H821	H82	0.879100	0.474300	0.850800
N221	N22	0.855100	0.296400	0.136000
H831	H83	0.888700	0.265800	0.138100
H841	H84	0.867300	0.311600	0.290600
N231	N23	0.663200	0.306800	0.395000
H851	H85	0.624400	0.280500	0.375200
H861	H86	0.655300	0.326200	0.249800
N241	N24	0.603800	0.453100	0.626000
H871	H87	0.618300	0.439900	0.783900
H881	H88	0.636900	0.482500	0.616400
C211	C21	0.921100	0.395400	0.060000
H891	H89	0.961800	0.365100	0.087500
H901	H90	0.928700	0.416900	0.215200
C221	C22	0.851700	0.354300	0.971000
H911	H91	0.841800	0.336600	0.808500
H921	H92	0.811700	0.384100	0.957700
C231	C23	0.670600	0.360100	0.575000
H931	H93	0.680900	0.340900	0.735800
H941	H94	0.708400	0.392500	0.587400
C241	C24	0.596200	0.392600	0.465000
H951	H95	0.559300	0.361400	0.469600
H961	H96	0.583800	0.406500	0.296700
N251	N25	0.581600	0.947600	0.617000
H971	H97	0.585900	0.927600	0.758000
H981	H98	0.620900	0.974300	0.649200
N261	N26	0.644900	0.796400	0.364000
H991	H99	0.611300	0.765800	0.361900
H1001	H100	0.632700	0.811600	0.209400
N271	N27	0.836800	0.806800	0.105000
H1011	H101	0.875600	0.780500	0.124800
H1021	H102	0.844700	0.826200	0.250200
N281	N28	0.896200	0.953100	0.874000
H1031	H103	0.881700	0.939900	0.716100
H1041	H104	0.863100	0.982500	0.883600
C251	C25	0.578900	0.895400	0.440000
H1051	H105	0.538200	0.865100	0.412500
H1061	H106	0.571300	0.916900	0.284800
C261	C26	0.648300	0.854300	0.529000
H1071	H107	0.658200	0.836600	0.691500
H1081	H108	0.688300	0.884100	0.542300
C271	C27	0.829400	0.860100	0.925000
H1091	H109	0.819100	0.840900	0.764200
H1101	H110	0.791600	0.892500	0.912600
C281	C28	0.903800	0.892600	0.035000
H1111	H111	0.940700	0.861400	0.030400
H1121	H112	0.916200	0.906500	0.203300
N291	N29	0.081600	0.447600	0.617000
H1131	H113	0.085900	0.427600	0.758000
H1141	H114	0.120900	0.474300	0.649200
N301	N30	0.144900	0.296400	0.364000
H1151	H115	0.111300	0.265800	0.361900
H1161	H116	0.132700	0.311600	0.209400
N311	N31	0.336800	0.306800	0.105000
H1171	H117	0.375600	0.280500	0.124800
H1181	H118	0.344700	0.326200	0.250200
N321	N32	0.396200	0.453100	0.874000
H1191	H119	0.381700	0.439900	0.716100
H1201	H120	0.363100	0.482500	0.883600
C291	C29	0.078900	0.395400	0.440000
H1211	H121	0.038200	0.365100	0.412500
H1221	H122	0.071300	0.416900	0.284800
C301	C30	0.148300	0.354300	0.529000
H1231	H123	0.158200	0.336600	0.691500
H1241	H124	0.188300	0.384100	0.542300
C311	C31	0.329400	0.360100	0.925000
H1251	H125	0.319100	0.340900	0.764200
H1261	H126	0.291600	0.392500	0.912600
C321	C32	0.403800	0.392600	0.035000
H1271	H127	0.440700	0.361400	0.030400
H1281	H128	0.416200	0.406500	0.203300
Ag11	Ag1	0.500000	0.000000	0.000000
Ag21	Ag2	0.000000	0.500000	0.000000
Ag31	Ag3	0.500000	0.000000	0.500000
Ag41	Ag4	0.000000	0.500000	0.500000
Ag51	Ag5	0.750000	0.250000	0.000000
Ag61	Ag6	0.250000	0.250000	0.500000
Ag71	Ag7	0.250000	0.750000	0.000000
Ag81	Ag8	0.750000	0.750000	0.500000
Ag91	Ag9	0.750000	0.250000	0.500000
Ag101	Ag10	0.250000	0.250000	0.000000
Ag111	Ag11	0.250000	0.750000	0.500000
Ag121	Ag12	0.750000	0.750000	0.000000
Ag131	Ag13	0.000000	0.000000	0.500000
Ag141	Ag14	0.500000	0.500000	0.500000
Ag151	Ag15	0.000000	0.000000	0.000000
Ag161	Ag16	0.500000	0.500000	0.000000
