data_MAGVOG34_clean_PM
_symmetry_space_group_name_H-M	'P1'
_cell_length_a	10.425500
_cell_length_b	10.530100
_cell_length_c	6.294300
_cell_angle_alpha	90.000000
_cell_angle_beta	115.135000
_cell_angle_gamma	90.000000
_symmetry_Int_Tables_number 1

loop_
_symmetry_equiv_pos_as_xyz
'x,y,z'

loop_
_atom_site_label
_atom_site_type_symbol
_atom_site_fract_x
_atom_site_fract_y
_atom_site_fract_z
C11	C1	0.316600	0.210400	0.546100
H11	H1	0.397400	0.265100	0.576700
H21	H2	0.329100	0.171700	0.693500
N11	N1	0.312500	0.110400	0.381100
H31	H3	0.298100	0.146400	0.243100
H41	H4	0.238600	0.058800	0.355800
C21	C2	0.816600	0.710400	0.546100
H51	H5	0.897400	0.765100	0.576700
H61	H6	0.829100	0.671700	0.693500
N21	N2	0.812500	0.610400	0.381100
H71	H7	0.798100	0.646400	0.243100
H81	H8	0.738600	0.558800	0.355800
C31	C3	0.683400	0.210400	0.953900
H91	H9	0.602600	0.265100	0.923300
H101	H10	0.670900	0.171700	0.806500
N31	N3	0.687500	0.110400	0.118900
H111	H11	0.701900	0.146400	0.256900
H121	H12	0.761400	0.058800	0.144200
C41	C4	0.183400	0.710400	0.953900
H131	H13	0.102600	0.765100	0.923300
H141	H14	0.170900	0.671700	0.806500
N41	N4	0.187500	0.610400	0.118900
H151	H15	0.201900	0.646400	0.256900
H161	H16	0.261400	0.558800	0.144200
C51	C5	0.683400	0.789600	0.453900
H171	H17	0.602600	0.734900	0.423300
H181	H18	0.670900	0.828300	0.306500
N51	N5	0.687500	0.889600	0.618900
H191	H19	0.701900	0.853600	0.756900
H201	H20	0.761400	0.941200	0.644200
C61	C6	0.183400	0.289600	0.453900
H211	H21	0.102600	0.234900	0.423300
H221	H22	0.170900	0.328300	0.306500
N61	N6	0.187500	0.389600	0.618900
H231	H23	0.201900	0.353600	0.756900
H241	H24	0.261400	0.441200	0.644200
C71	C7	0.316600	0.789600	0.046100
H251	H25	0.397400	0.734900	0.076700
H261	H26	0.329100	0.828300	0.193500
N71	N7	0.312500	0.889600	0.881100
H271	H27	0.298100	0.853600	0.743100
H281	H28	0.238600	0.941200	0.855800
C81	C8	0.816600	0.289600	0.046100
H291	H29	0.897400	0.234900	0.076700
H301	H30	0.829100	0.328300	0.193500
N81	N8	0.812500	0.389600	0.881100
H311	H31	0.798100	0.353600	0.743100
H321	H32	0.738600	0.441200	0.855800
Ag11	Ag1	0.500000	0.000000	0.500000
Ag21	Ag2	0.000000	0.500000	0.500000
Ag31	Ag3	0.500000	0.000000	0.000000
Ag41	Ag4	0.000000	0.500000	0.000000
