data_MAHCOQ_clean_PM
_symmetry_space_group_name_H-M	'P1'
_cell_length_a	33.783700
_cell_length_b	33.783700
_cell_length_c	33.783700
_cell_angle_alpha	90.000000
_cell_angle_beta	90.000000
_cell_angle_gamma	90.000000
_symmetry_Int_Tables_number 1

loop_
_symmetry_equiv_pos_as_xyz
'x,y,z'

loop_
_atom_site_label
_atom_site_type_symbol
_atom_site_fract_x
_atom_site_fract_y
_atom_site_fract_z
C11	C1	0.324500	0.601800	0.810700
H11	H1	0.338000	0.624200	0.819300
C21	C2	0.361000	0.494000	0.855100
C31	C3	0.273700	0.572900	0.770700
H21	H2	0.251900	0.574700	0.753900
O11	O1	0.366200	0.566300	0.852300
C41	C4	0.287900	0.536500	0.783000
H31	H3	0.277900	0.513900	0.770900
N11	N1	0.330000	0.495400	0.824300
C51	C5	0.375500	0.530800	0.868600
C61	C6	0.334900	0.568000	0.823100
C71	C7	0.314900	0.532000	0.811000
C81	C8	0.292700	0.606200	0.784100
C91	C9	0.403500	0.532400	0.897000
H41	H4	0.413800	0.556600	0.905200
C101	C10	0.416600	0.497000	0.913900
C111	C11	0.372500	0.460700	0.870800
H51	H5	0.361900	0.436600	0.862500
C121	C12	0.446300	0.495400	0.946100
O21	O2	0.459300	0.531600	0.956800
C131	C13	0.284900	0.646500	0.770300
O31	O3	0.301900	0.676000	0.785100
O41	O4	0.458000	0.463800	0.960100
C141	C14	0.286900	0.384900	0.788000
C151	C15	0.270900	0.404400	0.818600
H61	H6	0.250600	0.392600	0.832900
C161	C16	0.312000	0.458100	0.812100
C171	C17	0.284000	0.442300	0.829600
H71	H7	0.271500	0.455600	0.850200
C181	C18	0.400600	0.462400	0.900000
H81	H8	0.409400	0.438800	0.911000
C191	C19	0.329800	0.442800	0.781800
H91	H9	0.350700	0.455700	0.769300
O51	O5	0.289000	0.330300	0.745500
C201	C20	0.275800	0.345300	0.778600
O61	O6	0.252900	0.327300	0.799600
Zn11	Zn1	0.230480	0.273580	0.801820
C211	C21	0.315500	0.404200	0.768500
H101	H10	0.326400	0.392800	0.746000
O71	O7	0.249600	0.650800	0.753500
C221	C22	0.824500	0.101800	0.310700
H111	H11	0.838000	0.124200	0.319300
C231	C23	0.861000	0.994000	0.355100
C241	C24	0.773700	0.072900	0.270700
H121	H12	0.751900	0.074700	0.253900
O81	O8	0.866200	0.066300	0.352300
C251	C25	0.787900	0.036500	0.283000
H131	H13	0.777900	0.013900	0.270900
N21	N2	0.830000	0.995400	0.324300
C261	C26	0.875500	0.030800	0.368600
C271	C27	0.834900	0.068000	0.323100
C281	C28	0.814900	0.032000	0.311000
C291	C29	0.792700	0.106200	0.284100
C301	C30	0.903500	0.032400	0.397000
H141	H14	0.913800	0.056600	0.405200
C311	C31	0.916600	0.997000	0.413900
C321	C32	0.872500	0.960700	0.370800
H151	H15	0.861900	0.936600	0.362500
C331	C33	0.946300	0.995400	0.446100
O91	O9	0.959300	0.031600	0.456800
C341	C34	0.784900	0.146500	0.270300
O101	O10	0.801900	0.176000	0.285100
O111	O11	0.958000	0.963800	0.460100
C351	C35	0.786900	0.884900	0.288000
C361	C36	0.770900	0.904400	0.318600
H161	H16	0.750600	0.892600	0.332900
C371	C37	0.812000	0.958100	0.312100
C381	C38	0.784000	0.942300	0.329600
H171	H17	0.771500	0.955600	0.350200
C391	C39	0.900600	0.962400	0.400000
H181	H18	0.909400	0.938800	0.411000
C401	C40	0.829800	0.942800	0.281800
H191	H19	0.850700	0.955700	0.269300
O121	O12	0.789000	0.830300	0.245500
C411	C41	0.775800	0.845300	0.278600
O131	O13	0.752900	0.827300	0.299600
Zn21	Zn2	0.730480	0.773580	0.301820
C421	C42	0.815500	0.904200	0.268500
H201	H20	0.826400	0.892800	0.246000
O141	O14	0.749600	0.150800	0.253500
C431	C43	0.675500	0.398200	0.810700
H211	H21	0.662000	0.375800	0.819300
C441	C44	0.639000	0.506000	0.855100
C451	C45	0.726300	0.427100	0.770700
H221	H22	0.748100	0.425300	0.753900
O151	O15	0.633800	0.433700	0.852300
C461	C46	0.712100	0.463500	0.783000
H231	H23	0.722100	0.486100	0.770900
N31	N3	0.670000	0.504600	0.824300
C471	C47	0.624500	0.469200	0.868600
C481	C48	0.665100	0.432000	0.823100
C491	C49	0.685100	0.468000	0.811000
C501	C50	0.707300	0.393800	0.784100
C511	C51	0.596500	0.467600	0.897000
H241	H24	0.586200	0.443400	0.905200
C521	C52	0.583400	0.503000	0.913900
C531	C53	0.627500	0.539300	0.870800
H251	H25	0.638100	0.563400	0.862500
C541	C54	0.553700	0.504600	0.946100
O161	O16	0.540700	0.468400	0.956800
C551	C55	0.715100	0.353500	0.770300
O171	O17	0.698100	0.324000	0.785100
O181	O18	0.542000	0.536200	0.960100
C561	C56	0.713100	0.615100	0.788000
C571	C57	0.729100	0.595600	0.818600
H261	H26	0.749400	0.607400	0.832900
C581	C58	0.688000	0.541900	0.812100
C591	C59	0.716000	0.557700	0.829600
H271	H27	0.728500	0.544400	0.850200
C601	C60	0.599400	0.537600	0.900000
H281	H28	0.590600	0.561200	0.911000
C611	C61	0.670200	0.557200	0.781800
H291	H29	0.649300	0.544300	0.769300
O191	O19	0.711000	0.669700	0.745500
C621	C62	0.724200	0.654700	0.778600
O201	O20	0.747100	0.672700	0.799600
Zn31	Zn3	0.769520	0.726420	0.801820
C631	C63	0.684500	0.595800	0.768500
H301	H30	0.673600	0.607200	0.746000
O211	O21	0.750400	0.349200	0.753500
C641	C64	0.175500	0.898200	0.310700
H311	H31	0.162000	0.875800	0.319300
C651	C65	0.139000	0.006000	0.355100
C661	C66	0.226300	0.927100	0.270700
H321	H32	0.248100	0.925300	0.253900
O221	O22	0.133800	0.933700	0.352300
C671	C67	0.212100	0.963500	0.283000
H331	H33	0.222100	0.986100	0.270900
N41	N4	0.170000	0.004600	0.324300
C681	C68	0.124500	0.969200	0.368600
C691	C69	0.165100	0.932000	0.323100
C701	C70	0.185100	0.968000	0.311000
C711	C71	0.207300	0.893800	0.284100
C721	C72	0.096500	0.967600	0.397000
H341	H34	0.086200	0.943400	0.405200
C731	C73	0.083400	0.003000	0.413900
C741	C74	0.127500	0.039300	0.370800
H351	H35	0.138100	0.063400	0.362500
C751	C75	0.053700	0.004600	0.446100
O231	O23	0.040700	0.968400	0.456800
C761	C76	0.215100	0.853500	0.270300
O241	O24	0.198100	0.824000	0.285100
O251	O25	0.042000	0.036200	0.460100
C771	C77	0.213100	0.115100	0.288000
C781	C78	0.229100	0.095600	0.318600
H361	H36	0.249400	0.107400	0.332900
C791	C79	0.188000	0.041900	0.312100
C801	C80	0.216000	0.057700	0.329600
H371	H37	0.228500	0.044400	0.350200
C811	C81	0.099400	0.037600	0.400000
H381	H38	0.090600	0.061200	0.411000
C821	C82	0.170200	0.057200	0.281800
H391	H39	0.149300	0.044300	0.269300
O261	O26	0.211000	0.169700	0.245500
C831	C83	0.224200	0.154700	0.278600
O271	O27	0.247100	0.172700	0.299600
Zn41	Zn4	0.269520	0.226420	0.301820
C841	C84	0.184500	0.095800	0.268500
H401	H40	0.173600	0.107200	0.246000
O281	O28	0.250400	0.849200	0.253500
C851	C85	0.675500	0.601800	0.189300
H411	H41	0.662000	0.624200	0.180700
C861	C86	0.639000	0.494000	0.144900
C871	C87	0.726300	0.572900	0.229300
H421	H42	0.748100	0.574700	0.246100
O291	O29	0.633800	0.566300	0.147700
C881	C88	0.712100	0.536500	0.217000
H431	H43	0.722100	0.513900	0.229100
N51	N5	0.670000	0.495400	0.175700
C891	C89	0.624500	0.530800	0.131400
C901	C90	0.665100	0.568000	0.176900
C911	C91	0.685100	0.532000	0.189000
C921	C92	0.707300	0.606200	0.215900
C931	C93	0.596500	0.532400	0.103000
H441	H44	0.586200	0.556600	0.094800
C941	C94	0.583400	0.497000	0.086100
C951	C95	0.627500	0.460700	0.129200
H451	H45	0.638100	0.436600	0.137500
C961	C96	0.553700	0.495400	0.053900
O301	O30	0.540700	0.531600	0.043200
C971	C97	0.715100	0.646500	0.229700
O311	O31	0.698100	0.676000	0.214900
O321	O32	0.542000	0.463800	0.039900
C981	C98	0.713100	0.384900	0.212000
C991	C99	0.729100	0.404400	0.181400
H461	H46	0.749400	0.392600	0.167100
C1001	C100	0.688000	0.458100	0.187900
C1011	C101	0.716000	0.442300	0.170400
H471	H47	0.728500	0.455600	0.149800
C1021	C102	0.599400	0.462400	0.100000
H481	H48	0.590600	0.438800	0.089000
C1031	C103	0.670200	0.442800	0.218200
H491	H49	0.649300	0.455700	0.230700
O331	O33	0.711000	0.330300	0.254500
C1041	C104	0.724200	0.345300	0.221400
O341	O34	0.747100	0.327300	0.200400
Zn51	Zn5	0.769520	0.273580	0.198180
C1051	C105	0.684500	0.404200	0.231500
H501	H50	0.673600	0.392800	0.254000
O351	O35	0.750400	0.650800	0.246500
C1061	C106	0.175500	0.101800	0.689300
H511	H51	0.162000	0.124200	0.680700
C1071	C107	0.139000	0.994000	0.644900
C1081	C108	0.226300	0.072900	0.729300
H521	H52	0.248100	0.074700	0.746100
O361	O36	0.133800	0.066300	0.647700
C1091	C109	0.212100	0.036500	0.717000
H531	H53	0.222100	0.013900	0.729100
N61	N6	0.170000	0.995400	0.675700
C1101	C110	0.124500	0.030800	0.631400
C1111	C111	0.165100	0.068000	0.676900
C1121	C112	0.185100	0.032000	0.689000
C1131	C113	0.207300	0.106200	0.715900
C1141	C114	0.096500	0.032400	0.603000
H541	H54	0.086200	0.056600	0.594800
C1151	C115	0.083400	0.997000	0.586100
C1161	C116	0.127500	0.960700	0.629200
H551	H55	0.138100	0.936600	0.637500
C1171	C117	0.053700	0.995400	0.553900
O371	O37	0.040700	0.031600	0.543200
C1181	C118	0.215100	0.146500	0.729700
O381	O38	0.198100	0.176000	0.714900
O391	O39	0.042000	0.963800	0.539900
C1191	C119	0.213100	0.884900	0.712000
C1201	C120	0.229100	0.904400	0.681400
H561	H56	0.249400	0.892600	0.667100
C1211	C121	0.188000	0.958100	0.687900
C1221	C122	0.216000	0.942300	0.670400
H571	H57	0.228500	0.955600	0.649800
C1231	C123	0.099400	0.962400	0.600000
H581	H58	0.090600	0.938800	0.589000
C1241	C124	0.170200	0.942800	0.718200
H591	H59	0.149300	0.955700	0.730700
O401	O40	0.211000	0.830300	0.754500
C1251	C125	0.224200	0.845300	0.721400
O411	O41	0.247100	0.827300	0.700400
Zn61	Zn6	0.269520	0.773580	0.698180
C1261	C126	0.184500	0.904200	0.731500
H601	H60	0.173600	0.892800	0.754000
O421	O42	0.250400	0.150800	0.746500
C1271	C127	0.324500	0.398200	0.189300
H611	H61	0.338000	0.375800	0.180700
C1281	C128	0.361000	0.506000	0.144900
C1291	C129	0.273700	0.427100	0.229300
H621	H62	0.251900	0.425300	0.246100
O431	O43	0.366200	0.433700	0.147700
C1301	C130	0.287900	0.463500	0.217000
H631	H63	0.277900	0.486100	0.229100
N71	N7	0.330000	0.504600	0.175700
C1311	C131	0.375500	0.469200	0.131400
C1321	C132	0.334900	0.432000	0.176900
C1331	C133	0.314900	0.468000	0.189000
C1341	C134	0.292700	0.393800	0.215900
C1351	C135	0.403500	0.467600	0.103000
H641	H64	0.413800	0.443400	0.094800
C1361	C136	0.416600	0.503000	0.086100
C1371	C137	0.372500	0.539300	0.129200
H651	H65	0.361900	0.563400	0.137500
C1381	C138	0.446300	0.504600	0.053900
O441	O44	0.459300	0.468400	0.043200
C1391	C139	0.284900	0.353500	0.229700
O451	O45	0.301900	0.324000	0.214900
O461	O46	0.458000	0.536200	0.039900
C1401	C140	0.286900	0.615100	0.212000
C1411	C141	0.270900	0.595600	0.181400
H661	H66	0.250600	0.607400	0.167100
C1421	C142	0.312000	0.541900	0.187900
C1431	C143	0.284000	0.557700	0.170400
H671	H67	0.271500	0.544400	0.149800
C1441	C144	0.400600	0.537600	0.100000
H681	H68	0.409400	0.561200	0.089000
C1451	C145	0.329800	0.557200	0.218200
H691	H69	0.350700	0.544300	0.230700
O471	O47	0.289000	0.669700	0.254500
C1461	C146	0.275800	0.654700	0.221400
O481	O48	0.252900	0.672700	0.200400
Zn71	Zn7	0.230480	0.726420	0.198180
C1471	C147	0.315500	0.595800	0.231500
H701	H70	0.326400	0.607200	0.254000
O491	O49	0.249600	0.349200	0.246500
C1481	C148	0.824500	0.898200	0.689300
H711	H71	0.838000	0.875800	0.680700
C1491	C149	0.861000	0.006000	0.644900
C1501	C150	0.773700	0.927100	0.729300
H721	H72	0.751900	0.925300	0.746100
O501	O50	0.866200	0.933700	0.647700
C1511	C151	0.787900	0.963500	0.717000
H731	H73	0.777900	0.986100	0.729100
N81	N8	0.830000	0.004600	0.675700
C1521	C152	0.875500	0.969200	0.631400
C1531	C153	0.834900	0.932000	0.676900
C1541	C154	0.814900	0.968000	0.689000
C1551	C155	0.792700	0.893800	0.715900
C1561	C156	0.903500	0.967600	0.603000
H741	H74	0.913800	0.943400	0.594800
C1571	C157	0.916600	0.003000	0.586100
C1581	C158	0.872500	0.039300	0.629200
H751	H75	0.861900	0.063400	0.637500
C1591	C159	0.946300	0.004600	0.553900
O511	O51	0.959300	0.968400	0.543200
C1601	C160	0.784900	0.853500	0.729700
O521	O52	0.801900	0.824000	0.714900
O531	O53	0.958000	0.036200	0.539900
C1611	C161	0.786900	0.115100	0.712000
C1621	C162	0.770900	0.095600	0.681400
H761	H76	0.750600	0.107400	0.667100
C1631	C163	0.812000	0.041900	0.687900
C1641	C164	0.784000	0.057700	0.670400
H771	H77	0.771500	0.044400	0.649800
C1651	C165	0.900600	0.037600	0.600000
H781	H78	0.909400	0.061200	0.589000
C1661	C166	0.829800	0.057200	0.718200
H791	H79	0.850700	0.044300	0.730700
O541	O54	0.789000	0.169700	0.754500
C1671	C167	0.775800	0.154700	0.721400
O551	O55	0.752900	0.172700	0.700400
Zn81	Zn8	0.730480	0.226420	0.698180
C1681	C168	0.815500	0.095800	0.731500
H801	H80	0.826400	0.107200	0.754000
O561	O56	0.749600	0.849200	0.746500
C1691	C169	0.810700	0.324500	0.601800
H811	H81	0.819300	0.338000	0.624200
C1701	C170	0.855100	0.361000	0.494000
C1711	C171	0.770700	0.273700	0.572900
H821	H82	0.753900	0.251900	0.574700
O571	O57	0.852300	0.366200	0.566300
C1721	C172	0.783000	0.287900	0.536500
H831	H83	0.770900	0.277900	0.513900
N91	N9	0.824300	0.330000	0.495400
C1731	C173	0.868600	0.375500	0.530800
C1741	C174	0.823100	0.334900	0.568000
C1751	C175	0.811000	0.314900	0.532000
C1761	C176	0.784100	0.292700	0.606200
C1771	C177	0.897000	0.403500	0.532400
H841	H84	0.905200	0.413800	0.556600
C1781	C178	0.913900	0.416600	0.497000
C1791	C179	0.870800	0.372500	0.460700
H851	H85	0.862500	0.361900	0.436600
C1801	C180	0.946100	0.446300	0.495400
O581	O58	0.956800	0.459300	0.531600
C1811	C181	0.770300	0.284900	0.646500
O591	O59	0.785100	0.301900	0.676000
O601	O60	0.960100	0.458000	0.463800
C1821	C182	0.788000	0.286900	0.384900
C1831	C183	0.818600	0.270900	0.404400
H861	H86	0.832900	0.250600	0.392600
C1841	C184	0.812100	0.312000	0.458100
C1851	C185	0.829600	0.284000	0.442300
H871	H87	0.850200	0.271500	0.455600
C1861	C186	0.900000	0.400600	0.462400
H881	H88	0.911000	0.409400	0.438800
C1871	C187	0.781800	0.329800	0.442800
H891	H89	0.769300	0.350700	0.455700
O611	O61	0.745500	0.289000	0.330300
C1881	C188	0.778600	0.275800	0.345300
O621	O62	0.799600	0.252900	0.327300
Zn91	Zn9	0.801820	0.230480	0.273580
C1891	C189	0.768500	0.315500	0.404200
H901	H90	0.746000	0.326400	0.392800
O631	O63	0.753500	0.249600	0.650800
C1901	C190	0.310700	0.824500	0.101800
H911	H91	0.319300	0.838000	0.124200
C1911	C191	0.355100	0.861000	0.994000
C1921	C192	0.270700	0.773700	0.072900
H921	H92	0.253900	0.751900	0.074700
O641	O64	0.352300	0.866200	0.066300
C1931	C193	0.283000	0.787900	0.036500
H931	H93	0.270900	0.777900	0.013900
N101	N10	0.324300	0.830000	0.995400
C1941	C194	0.368600	0.875500	0.030800
C1951	C195	0.323100	0.834900	0.068000
C1961	C196	0.311000	0.814900	0.032000
C1971	C197	0.284100	0.792700	0.106200
C1981	C198	0.397000	0.903500	0.032400
H941	H94	0.405200	0.913800	0.056600
C1991	C199	0.413900	0.916600	0.997000
C2001	C200	0.370800	0.872500	0.960700
H951	H95	0.362500	0.861900	0.936600
C2011	C201	0.446100	0.946300	0.995400
O651	O65	0.456800	0.959300	0.031600
C2021	C202	0.270300	0.784900	0.146500
O661	O66	0.285100	0.801900	0.176000
O671	O67	0.460100	0.958000	0.963800
C2031	C203	0.288000	0.786900	0.884900
C2041	C204	0.318600	0.770900	0.904400
H961	H96	0.332900	0.750600	0.892600
C2051	C205	0.312100	0.812000	0.958100
C2061	C206	0.329600	0.784000	0.942300
H971	H97	0.350200	0.771500	0.955600
C2071	C207	0.400000	0.900600	0.962400
H981	H98	0.411000	0.909400	0.938800
C2081	C208	0.281800	0.829800	0.942800
H991	H99	0.269300	0.850700	0.955700
O681	O68	0.245500	0.789000	0.830300
C2091	C209	0.278600	0.775800	0.845300
O691	O69	0.299600	0.752900	0.827300
Zn101	Zn10	0.301820	0.730480	0.773580
C2101	C210	0.268500	0.815500	0.904200
H1001	H100	0.246000	0.826400	0.892800
O701	O70	0.253500	0.749600	0.150800
C2111	C211	0.810700	0.675500	0.398200
H1011	H101	0.819300	0.662000	0.375800
C2121	C212	0.855100	0.639000	0.506000
C2131	C213	0.770700	0.726300	0.427100
H1021	H102	0.753900	0.748100	0.425300
O711	O71	0.852300	0.633800	0.433700
C2141	C214	0.783000	0.712100	0.463500
H1031	H103	0.770900	0.722100	0.486100
N111	N11	0.824300	0.670000	0.504600
C2151	C215	0.868600	0.624500	0.469200
C2161	C216	0.823100	0.665100	0.432000
C2171	C217	0.811000	0.685100	0.468000
C2181	C218	0.784100	0.707300	0.393800
C2191	C219	0.897000	0.596500	0.467600
H1041	H104	0.905200	0.586200	0.443400
C2201	C220	0.913900	0.583400	0.503000
C2211	C221	0.870800	0.627500	0.539300
H1051	H105	0.862500	0.638100	0.563400
C2221	C222	0.946100	0.553700	0.504600
O721	O72	0.956800	0.540700	0.468400
C2231	C223	0.770300	0.715100	0.353500
O731	O73	0.785100	0.698100	0.324000
O741	O74	0.960100	0.542000	0.536200
C2241	C224	0.788000	0.713100	0.615100
C2251	C225	0.818600	0.729100	0.595600
H1061	H106	0.832900	0.749400	0.607400
C2261	C226	0.812100	0.688000	0.541900
C2271	C227	0.829600	0.716000	0.557700
H1071	H107	0.850200	0.728500	0.544400
C2281	C228	0.900000	0.599400	0.537600
H1081	H108	0.911000	0.590600	0.561200
C2291	C229	0.781800	0.670200	0.557200
H1091	H109	0.769300	0.649300	0.544300
O751	O75	0.745500	0.711000	0.669700
C2301	C230	0.778600	0.724200	0.654700
O761	O76	0.799600	0.747100	0.672700
Zn111	Zn11	0.801820	0.769520	0.726420
C2311	C231	0.768500	0.684500	0.595800
H1101	H110	0.746000	0.673600	0.607200
O771	O77	0.753500	0.750400	0.349200
C2321	C232	0.310700	0.175500	0.898200
H1111	H111	0.319300	0.162000	0.875800
C2331	C233	0.355100	0.139000	0.006000
C2341	C234	0.270700	0.226300	0.927100
H1121	H112	0.253900	0.248100	0.925300
O781	O78	0.352300	0.133800	0.933700
C2351	C235	0.283000	0.212100	0.963500
H1131	H113	0.270900	0.222100	0.986100
N121	N12	0.324300	0.170000	0.004600
C2361	C236	0.368600	0.124500	0.969200
C2371	C237	0.323100	0.165100	0.932000
C2381	C238	0.311000	0.185100	0.968000
C2391	C239	0.284100	0.207300	0.893800
C2401	C240	0.397000	0.096500	0.967600
H1141	H114	0.405200	0.086200	0.943400
C2411	C241	0.413900	0.083400	0.003000
C2421	C242	0.370800	0.127500	0.039300
H1151	H115	0.362500	0.138100	0.063400
C2431	C243	0.446100	0.053700	0.004600
O791	O79	0.456800	0.040700	0.968400
C2441	C244	0.270300	0.215100	0.853500
O801	O80	0.285100	0.198100	0.824000
O811	O81	0.460100	0.042000	0.036200
C2451	C245	0.288000	0.213100	0.115100
C2461	C246	0.318600	0.229100	0.095600
H1161	H116	0.332900	0.249400	0.107400
C2471	C247	0.312100	0.188000	0.041900
C2481	C248	0.329600	0.216000	0.057700
H1171	H117	0.350200	0.228500	0.044400
C2491	C249	0.400000	0.099400	0.037600
H1181	H118	0.411000	0.090600	0.061200
C2501	C250	0.281800	0.170200	0.057200
H1191	H119	0.269300	0.149300	0.044300
O821	O82	0.245500	0.211000	0.169700
C2511	C251	0.278600	0.224200	0.154700
O831	O83	0.299600	0.247100	0.172700
Zn121	Zn12	0.301820	0.269520	0.226420
C2521	C252	0.268500	0.184500	0.095800
H1201	H120	0.246000	0.173600	0.107200
O841	O84	0.253500	0.250400	0.849200
C2531	C253	0.189300	0.675500	0.601800
H1211	H121	0.180700	0.662000	0.624200
C2541	C254	0.144900	0.639000	0.494000
C2551	C255	0.229300	0.726300	0.572900
H1221	H122	0.246100	0.748100	0.574700
O851	O85	0.147700	0.633800	0.566300
C2561	C256	0.217000	0.712100	0.536500
H1231	H123	0.229100	0.722100	0.513900
N131	N13	0.175700	0.670000	0.495400
C2571	C257	0.131400	0.624500	0.530800
C2581	C258	0.176900	0.665100	0.568000
C2591	C259	0.189000	0.685100	0.532000
C2601	C260	0.215900	0.707300	0.606200
C2611	C261	0.103000	0.596500	0.532400
H1241	H124	0.094800	0.586200	0.556600
C2621	C262	0.086100	0.583400	0.497000
C2631	C263	0.129200	0.627500	0.460700
H1251	H125	0.137500	0.638100	0.436600
C2641	C264	0.053900	0.553700	0.495400
O861	O86	0.043200	0.540700	0.531600
C2651	C265	0.229700	0.715100	0.646500
O871	O87	0.214900	0.698100	0.676000
O881	O88	0.039900	0.542000	0.463800
C2661	C266	0.212000	0.713100	0.384900
C2671	C267	0.181400	0.729100	0.404400
H1261	H126	0.167100	0.749400	0.392600
C2681	C268	0.187900	0.688000	0.458100
C2691	C269	0.170400	0.716000	0.442300
H1271	H127	0.149800	0.728500	0.455600
C2701	C270	0.100000	0.599400	0.462400
H1281	H128	0.089000	0.590600	0.438800
C2711	C271	0.218200	0.670200	0.442800
H1291	H129	0.230700	0.649300	0.455700
O891	O89	0.254500	0.711000	0.330300
C2721	C272	0.221400	0.724200	0.345300
O901	O90	0.200400	0.747100	0.327300
Zn131	Zn13	0.198180	0.769520	0.273580
C2731	C273	0.231500	0.684500	0.404200
H1301	H130	0.254000	0.673600	0.392800
O911	O91	0.246500	0.750400	0.650800
C2741	C274	0.689300	0.175500	0.101800
H1311	H131	0.680700	0.162000	0.124200
C2751	C275	0.644900	0.139000	0.994000
C2761	C276	0.729300	0.226300	0.072900
H1321	H132	0.746100	0.248100	0.074700
O921	O92	0.647700	0.133800	0.066300
C2771	C277	0.717000	0.212100	0.036500
H1331	H133	0.729100	0.222100	0.013900
N141	N14	0.675700	0.170000	0.995400
C2781	C278	0.631400	0.124500	0.030800
C2791	C279	0.676900	0.165100	0.068000
C2801	C280	0.689000	0.185100	0.032000
C2811	C281	0.715900	0.207300	0.106200
C2821	C282	0.603000	0.096500	0.032400
H1341	H134	0.594800	0.086200	0.056600
C2831	C283	0.586100	0.083400	0.997000
C2841	C284	0.629200	0.127500	0.960700
H1351	H135	0.637500	0.138100	0.936600
C2851	C285	0.553900	0.053700	0.995400
O931	O93	0.543200	0.040700	0.031600
C2861	C286	0.729700	0.215100	0.146500
O941	O94	0.714900	0.198100	0.176000
O951	O95	0.539900	0.042000	0.963800
C2871	C287	0.712000	0.213100	0.884900
C2881	C288	0.681400	0.229100	0.904400
H1361	H136	0.667100	0.249400	0.892600
C2891	C289	0.687900	0.188000	0.958100
C2901	C290	0.670400	0.216000	0.942300
H1371	H137	0.649800	0.228500	0.955600
C2911	C291	0.600000	0.099400	0.962400
H1381	H138	0.589000	0.090600	0.938800
C2921	C292	0.718200	0.170200	0.942800
H1391	H139	0.730700	0.149300	0.955700
O961	O96	0.754500	0.211000	0.830300
C2931	C293	0.721400	0.224200	0.845300
O971	O97	0.700400	0.247100	0.827300
Zn141	Zn14	0.698180	0.269520	0.773580
C2941	C294	0.731500	0.184500	0.904200
H1401	H140	0.754000	0.173600	0.892800
O981	O98	0.746500	0.250400	0.150800
C2951	C295	0.189300	0.324500	0.398200
H1411	H141	0.180700	0.338000	0.375800
C2961	C296	0.144900	0.361000	0.506000
C2971	C297	0.229300	0.273700	0.427100
H1421	H142	0.246100	0.251900	0.425300
O991	O99	0.147700	0.366200	0.433700
C2981	C298	0.217000	0.287900	0.463500
H1431	H143	0.229100	0.277900	0.486100
N151	N15	0.175700	0.330000	0.504600
C2991	C299	0.131400	0.375500	0.469200
C3001	C300	0.176900	0.334900	0.432000
C3011	C301	0.189000	0.314900	0.468000
C3021	C302	0.215900	0.292700	0.393800
C3031	C303	0.103000	0.403500	0.467600
H1441	H144	0.094800	0.413800	0.443400
C3041	C304	0.086100	0.416600	0.503000
C3051	C305	0.129200	0.372500	0.539300
H1451	H145	0.137500	0.361900	0.563400
C3061	C306	0.053900	0.446300	0.504600
O1001	O100	0.043200	0.459300	0.468400
C3071	C307	0.229700	0.284900	0.353500
O1011	O101	0.214900	0.301900	0.324000
O1021	O102	0.039900	0.458000	0.536200
C3081	C308	0.212000	0.286900	0.615100
C3091	C309	0.181400	0.270900	0.595600
H1461	H146	0.167100	0.250600	0.607400
C3101	C310	0.187900	0.312000	0.541900
C3111	C311	0.170400	0.284000	0.557700
H1471	H147	0.149800	0.271500	0.544400
C3121	C312	0.100000	0.400600	0.537600
H1481	H148	0.089000	0.409400	0.561200
C3131	C313	0.218200	0.329800	0.557200
H1491	H149	0.230700	0.350700	0.544300
O1031	O103	0.254500	0.289000	0.669700
C3141	C314	0.221400	0.275800	0.654700
O1041	O104	0.200400	0.252900	0.672700
Zn151	Zn15	0.198180	0.230480	0.726420
C3151	C315	0.231500	0.315500	0.595800
H1501	H150	0.254000	0.326400	0.607200
O1051	O105	0.246500	0.249600	0.349200
C3161	C316	0.689300	0.824500	0.898200
H1511	H151	0.680700	0.838000	0.875800
C3171	C317	0.644900	0.861000	0.006000
C3181	C318	0.729300	0.773700	0.927100
H1521	H152	0.746100	0.751900	0.925300
O1061	O106	0.647700	0.866200	0.933700
C3191	C319	0.717000	0.787900	0.963500
H1531	H153	0.729100	0.777900	0.986100
N161	N16	0.675700	0.830000	0.004600
C3201	C320	0.631400	0.875500	0.969200
C3211	C321	0.676900	0.834900	0.932000
C3221	C322	0.689000	0.814900	0.968000
C3231	C323	0.715900	0.792700	0.893800
C3241	C324	0.603000	0.903500	0.967600
H1541	H154	0.594800	0.913800	0.943400
C3251	C325	0.586100	0.916600	0.003000
C3261	C326	0.629200	0.872500	0.039300
H1551	H155	0.637500	0.861900	0.063400
C3271	C327	0.553900	0.946300	0.004600
O1071	O107	0.543200	0.959300	0.968400
C3281	C328	0.729700	0.784900	0.853500
O1081	O108	0.714900	0.801900	0.824000
O1091	O109	0.539900	0.958000	0.036200
C3291	C329	0.712000	0.786900	0.115100
C3301	C330	0.681400	0.770900	0.095600
H1561	H156	0.667100	0.750600	0.107400
C3311	C331	0.687900	0.812000	0.041900
C3321	C332	0.670400	0.784000	0.057700
H1571	H157	0.649800	0.771500	0.044400
C3331	C333	0.600000	0.900600	0.037600
H1581	H158	0.589000	0.909400	0.061200
C3341	C334	0.718200	0.829800	0.057200
H1591	H159	0.730700	0.850700	0.044300
O1101	O110	0.754500	0.789000	0.169700
C3351	C335	0.721400	0.775800	0.154700
O1111	O111	0.700400	0.752900	0.172700
Zn161	Zn16	0.698180	0.730480	0.226420
C3361	C336	0.731500	0.815500	0.095800
H1601	H160	0.754000	0.826400	0.107200
O1121	O112	0.746500	0.749600	0.849200
C3371	C337	0.601800	0.810700	0.324500
H1611	H161	0.624200	0.819300	0.338000
C3381	C338	0.494000	0.855100	0.361000
C3391	C339	0.572900	0.770700	0.273700
H1621	H162	0.574700	0.753900	0.251900
O1131	O113	0.566300	0.852300	0.366200
C3401	C340	0.536500	0.783000	0.287900
H1631	H163	0.513900	0.770900	0.277900
N171	N17	0.495400	0.824300	0.330000
C3411	C341	0.530800	0.868600	0.375500
C3421	C342	0.568000	0.823100	0.334900
C3431	C343	0.532000	0.811000	0.314900
C3441	C344	0.606200	0.784100	0.292700
C3451	C345	0.532400	0.897000	0.403500
H1641	H164	0.556600	0.905200	0.413800
C3461	C346	0.497000	0.913900	0.416600
C3471	C347	0.460700	0.870800	0.372500
H1651	H165	0.436600	0.862500	0.361900
C3481	C348	0.495400	0.946100	0.446300
O1141	O114	0.531600	0.956800	0.459300
C3491	C349	0.646500	0.770300	0.284900
O1151	O115	0.676000	0.785100	0.301900
O1161	O116	0.463800	0.960100	0.458000
C3501	C350	0.384900	0.788000	0.286900
C3511	C351	0.404400	0.818600	0.270900
H1661	H166	0.392600	0.832900	0.250600
C3521	C352	0.458100	0.812100	0.312000
C3531	C353	0.442300	0.829600	0.284000
H1671	H167	0.455600	0.850200	0.271500
C3541	C354	0.462400	0.900000	0.400600
H1681	H168	0.438800	0.911000	0.409400
C3551	C355	0.442800	0.781800	0.329800
H1691	H169	0.455700	0.769300	0.350700
O1171	O117	0.330300	0.745500	0.289000
C3561	C356	0.345300	0.778600	0.275800
O1181	O118	0.327300	0.799600	0.252900
Zn171	Zn17	0.273580	0.801820	0.230480
C3571	C357	0.404200	0.768500	0.315500
H1701	H170	0.392800	0.746000	0.326400
O1191	O119	0.650800	0.753500	0.249600
C3581	C358	0.101800	0.310700	0.824500
H1711	H171	0.124200	0.319300	0.838000
C3591	C359	0.994000	0.355100	0.861000
C3601	C360	0.072900	0.270700	0.773700
H1721	H172	0.074700	0.253900	0.751900
O1201	O120	0.066300	0.352300	0.866200
C3611	C361	0.036500	0.283000	0.787900
H1731	H173	0.013900	0.270900	0.777900
N181	N18	0.995400	0.324300	0.830000
C3621	C362	0.030800	0.368600	0.875500
C3631	C363	0.068000	0.323100	0.834900
C3641	C364	0.032000	0.311000	0.814900
C3651	C365	0.106200	0.284100	0.792700
C3661	C366	0.032400	0.397000	0.903500
H1741	H174	0.056600	0.405200	0.913800
C3671	C367	0.997000	0.413900	0.916600
C3681	C368	0.960700	0.370800	0.872500
H1751	H175	0.936600	0.362500	0.861900
C3691	C369	0.995400	0.446100	0.946300
O1211	O121	0.031600	0.456800	0.959300
C3701	C370	0.146500	0.270300	0.784900
O1221	O122	0.176000	0.285100	0.801900
O1231	O123	0.963800	0.460100	0.958000
C3711	C371	0.884900	0.288000	0.786900
C3721	C372	0.904400	0.318600	0.770900
H1761	H176	0.892600	0.332900	0.750600
C3731	C373	0.958100	0.312100	0.812000
C3741	C374	0.942300	0.329600	0.784000
H1771	H177	0.955600	0.350200	0.771500
C3751	C375	0.962400	0.400000	0.900600
H1781	H178	0.938800	0.411000	0.909400
C3761	C376	0.942800	0.281800	0.829800
H1791	H179	0.955700	0.269300	0.850700
O1241	O124	0.830300	0.245500	0.789000
C3771	C377	0.845300	0.278600	0.775800
O1251	O125	0.827300	0.299600	0.752900
Zn181	Zn18	0.773580	0.301820	0.730480
C3781	C378	0.904200	0.268500	0.815500
H1801	H180	0.892800	0.246000	0.826400
O1261	O126	0.150800	0.253500	0.749600
C3791	C379	0.398200	0.810700	0.675500
H1811	H181	0.375800	0.819300	0.662000
C3801	C380	0.506000	0.855100	0.639000
C3811	C381	0.427100	0.770700	0.726300
H1821	H182	0.425300	0.753900	0.748100
O1271	O127	0.433700	0.852300	0.633800
C3821	C382	0.463500	0.783000	0.712100
H1831	H183	0.486100	0.770900	0.722100
N191	N19	0.504600	0.824300	0.670000
C3831	C383	0.469200	0.868600	0.624500
C3841	C384	0.432000	0.823100	0.665100
C3851	C385	0.468000	0.811000	0.685100
C3861	C386	0.393800	0.784100	0.707300
C3871	C387	0.467600	0.897000	0.596500
H1841	H184	0.443400	0.905200	0.586200
C3881	C388	0.503000	0.913900	0.583400
C3891	C389	0.539300	0.870800	0.627500
H1851	H185	0.563400	0.862500	0.638100
C3901	C390	0.504600	0.946100	0.553700
O1281	O128	0.468400	0.956800	0.540700
C3911	C391	0.353500	0.770300	0.715100
O1291	O129	0.324000	0.785100	0.698100
O1301	O130	0.536200	0.960100	0.542000
C3921	C392	0.615100	0.788000	0.713100
C3931	C393	0.595600	0.818600	0.729100
H1861	H186	0.607400	0.832900	0.749400
C3941	C394	0.541900	0.812100	0.688000
C3951	C395	0.557700	0.829600	0.716000
H1871	H187	0.544400	0.850200	0.728500
C3961	C396	0.537600	0.900000	0.599400
H1881	H188	0.561200	0.911000	0.590600
C3971	C397	0.557200	0.781800	0.670200
H1891	H189	0.544300	0.769300	0.649300
O1311	O131	0.669700	0.745500	0.711000
C3981	C398	0.654700	0.778600	0.724200
O1321	O132	0.672700	0.799600	0.747100
Zn191	Zn19	0.726420	0.801820	0.769520
C3991	C399	0.595800	0.768500	0.684500
H1901	H190	0.607200	0.746000	0.673600
O1331	O133	0.349200	0.753500	0.750400
C4001	C400	0.898200	0.310700	0.175500
H1911	H191	0.875800	0.319300	0.162000
C4011	C401	0.006000	0.355100	0.139000
C4021	C402	0.927100	0.270700	0.226300
H1921	H192	0.925300	0.253900	0.248100
O1341	O134	0.933700	0.352300	0.133800
C4031	C403	0.963500	0.283000	0.212100
H1931	H193	0.986100	0.270900	0.222100
N201	N20	0.004600	0.324300	0.170000
C4041	C404	0.969200	0.368600	0.124500
C4051	C405	0.932000	0.323100	0.165100
C4061	C406	0.968000	0.311000	0.185100
C4071	C407	0.893800	0.284100	0.207300
C4081	C408	0.967600	0.397000	0.096500
H1941	H194	0.943400	0.405200	0.086200
C4091	C409	0.003000	0.413900	0.083400
C4101	C410	0.039300	0.370800	0.127500
H1951	H195	0.063400	0.362500	0.138100
C4111	C411	0.004600	0.446100	0.053700
O1351	O135	0.968400	0.456800	0.040700
C4121	C412	0.853500	0.270300	0.215100
O1361	O136	0.824000	0.285100	0.198100
O1371	O137	0.036200	0.460100	0.042000
C4131	C413	0.115100	0.288000	0.213100
C4141	C414	0.095600	0.318600	0.229100
H1961	H196	0.107400	0.332900	0.249400
C4151	C415	0.041900	0.312100	0.188000
C4161	C416	0.057700	0.329600	0.216000
H1971	H197	0.044400	0.350200	0.228500
C4171	C417	0.037600	0.400000	0.099400
H1981	H198	0.061200	0.411000	0.090600
C4181	C418	0.057200	0.281800	0.170200
H1991	H199	0.044300	0.269300	0.149300
O1381	O138	0.169700	0.245500	0.211000
C4191	C419	0.154700	0.278600	0.224200
O1391	O139	0.172700	0.299600	0.247100
Zn201	Zn20	0.226420	0.301820	0.269520
C4201	C420	0.095800	0.268500	0.184500
H2001	H200	0.107200	0.246000	0.173600
O1401	O140	0.849200	0.253500	0.250400
C4211	C421	0.601800	0.189300	0.675500
H2011	H201	0.624200	0.180700	0.662000
C4221	C422	0.494000	0.144900	0.639000
C4231	C423	0.572900	0.229300	0.726300
H2021	H202	0.574700	0.246100	0.748100
O1411	O141	0.566300	0.147700	0.633800
C4241	C424	0.536500	0.217000	0.712100
H2031	H203	0.513900	0.229100	0.722100
N211	N21	0.495400	0.175700	0.670000
C4251	C425	0.530800	0.131400	0.624500
C4261	C426	0.568000	0.176900	0.665100
C4271	C427	0.532000	0.189000	0.685100
C4281	C428	0.606200	0.215900	0.707300
C4291	C429	0.532400	0.103000	0.596500
H2041	H204	0.556600	0.094800	0.586200
C4301	C430	0.497000	0.086100	0.583400
C4311	C431	0.460700	0.129200	0.627500
H2051	H205	0.436600	0.137500	0.638100
C4321	C432	0.495400	0.053900	0.553700
O1421	O142	0.531600	0.043200	0.540700
C4331	C433	0.646500	0.229700	0.715100
O1431	O143	0.676000	0.214900	0.698100
O1441	O144	0.463800	0.039900	0.542000
C4341	C434	0.384900	0.212000	0.713100
C4351	C435	0.404400	0.181400	0.729100
H2061	H206	0.392600	0.167100	0.749400
C4361	C436	0.458100	0.187900	0.688000
C4371	C437	0.442300	0.170400	0.716000
H2071	H207	0.455600	0.149800	0.728500
C4381	C438	0.462400	0.100000	0.599400
H2081	H208	0.438800	0.089000	0.590600
C4391	C439	0.442800	0.218200	0.670200
H2091	H209	0.455700	0.230700	0.649300
O1451	O145	0.330300	0.254500	0.711000
C4401	C440	0.345300	0.221400	0.724200
O1461	O146	0.327300	0.200400	0.747100
Zn211	Zn21	0.273580	0.198180	0.769520
C4411	C441	0.404200	0.231500	0.684500
H2101	H210	0.392800	0.254000	0.673600
O1471	O147	0.650800	0.246500	0.750400
C4421	C442	0.101800	0.689300	0.175500
H2111	H211	0.124200	0.680700	0.162000
C4431	C443	0.994000	0.644900	0.139000
C4441	C444	0.072900	0.729300	0.226300
H2121	H212	0.074700	0.746100	0.248100
O1481	O148	0.066300	0.647700	0.133800
C4451	C445	0.036500	0.717000	0.212100
H2131	H213	0.013900	0.729100	0.222100
N221	N22	0.995400	0.675700	0.170000
C4461	C446	0.030800	0.631400	0.124500
C4471	C447	0.068000	0.676900	0.165100
C4481	C448	0.032000	0.689000	0.185100
C4491	C449	0.106200	0.715900	0.207300
C4501	C450	0.032400	0.603000	0.096500
H2141	H214	0.056600	0.594800	0.086200
C4511	C451	0.997000	0.586100	0.083400
C4521	C452	0.960700	0.629200	0.127500
H2151	H215	0.936600	0.637500	0.138100
C4531	C453	0.995400	0.553900	0.053700
O1491	O149	0.031600	0.543200	0.040700
C4541	C454	0.146500	0.729700	0.215100
O1501	O150	0.176000	0.714900	0.198100
O1511	O151	0.963800	0.539900	0.042000
C4551	C455	0.884900	0.712000	0.213100
C4561	C456	0.904400	0.681400	0.229100
H2161	H216	0.892600	0.667100	0.249400
C4571	C457	0.958100	0.687900	0.188000
C4581	C458	0.942300	0.670400	0.216000
H2171	H217	0.955600	0.649800	0.228500
C4591	C459	0.962400	0.600000	0.099400
H2181	H218	0.938800	0.589000	0.090600
C4601	C460	0.942800	0.718200	0.170200
H2191	H219	0.955700	0.730700	0.149300
O1521	O152	0.830300	0.754500	0.211000
C4611	C461	0.845300	0.721400	0.224200
O1531	O153	0.827300	0.700400	0.247100
Zn221	Zn22	0.773580	0.698180	0.269520
C4621	C462	0.904200	0.731500	0.184500
H2201	H220	0.892800	0.754000	0.173600
O1541	O154	0.150800	0.746500	0.250400
C4631	C463	0.398200	0.189300	0.324500
H2211	H221	0.375800	0.180700	0.338000
C4641	C464	0.506000	0.144900	0.361000
C4651	C465	0.427100	0.229300	0.273700
H2221	H222	0.425300	0.246100	0.251900
O1551	O155	0.433700	0.147700	0.366200
C4661	C466	0.463500	0.217000	0.287900
H2231	H223	0.486100	0.229100	0.277900
N231	N23	0.504600	0.175700	0.330000
C4671	C467	0.469200	0.131400	0.375500
C4681	C468	0.432000	0.176900	0.334900
C4691	C469	0.468000	0.189000	0.314900
C4701	C470	0.393800	0.215900	0.292700
C4711	C471	0.467600	0.103000	0.403500
H2241	H224	0.443400	0.094800	0.413800
C4721	C472	0.503000	0.086100	0.416600
C4731	C473	0.539300	0.129200	0.372500
H2251	H225	0.563400	0.137500	0.361900
C4741	C474	0.504600	0.053900	0.446300
O1561	O156	0.468400	0.043200	0.459300
C4751	C475	0.353500	0.229700	0.284900
O1571	O157	0.324000	0.214900	0.301900
O1581	O158	0.536200	0.039900	0.458000
C4761	C476	0.615100	0.212000	0.286900
C4771	C477	0.595600	0.181400	0.270900
H2261	H226	0.607400	0.167100	0.250600
C4781	C478	0.541900	0.187900	0.312000
C4791	C479	0.557700	0.170400	0.284000
H2271	H227	0.544400	0.149800	0.271500
C4801	C480	0.537600	0.100000	0.400600
H2281	H228	0.561200	0.089000	0.409400
C4811	C481	0.557200	0.218200	0.329800
H2291	H229	0.544300	0.230700	0.350700
O1591	O159	0.669700	0.254500	0.289000
C4821	C482	0.654700	0.221400	0.275800
O1601	O160	0.672700	0.200400	0.252900
Zn231	Zn23	0.726420	0.198180	0.230480
C4831	C483	0.595800	0.231500	0.315500
H2301	H230	0.607200	0.254000	0.326400
O1611	O161	0.349200	0.246500	0.249600
C4841	C484	0.898200	0.689300	0.824500
H2311	H231	0.875800	0.680700	0.838000
C4851	C485	0.006000	0.644900	0.861000
C4861	C486	0.927100	0.729300	0.773700
H2321	H232	0.925300	0.746100	0.751900
O1621	O162	0.933700	0.647700	0.866200
C4871	C487	0.963500	0.717000	0.787900
H2331	H233	0.986100	0.729100	0.777900
N241	N24	0.004600	0.675700	0.830000
C4881	C488	0.969200	0.631400	0.875500
C4891	C489	0.932000	0.676900	0.834900
C4901	C490	0.968000	0.689000	0.814900
C4911	C491	0.893800	0.715900	0.792700
C4921	C492	0.967600	0.603000	0.903500
H2341	H234	0.943400	0.594800	0.913800
C4931	C493	0.003000	0.586100	0.916600
C4941	C494	0.039300	0.629200	0.872500
H2351	H235	0.063400	0.637500	0.861900
C4951	C495	0.004600	0.553900	0.946300
O1631	O163	0.968400	0.543200	0.959300
C4961	C496	0.853500	0.729700	0.784900
O1641	O164	0.824000	0.714900	0.801900
O1651	O165	0.036200	0.539900	0.958000
C4971	C497	0.115100	0.712000	0.786900
C4981	C498	0.095600	0.681400	0.770900
H2361	H236	0.107400	0.667100	0.750600
C4991	C499	0.041900	0.687900	0.812000
C5001	C500	0.057700	0.670400	0.784000
H2371	H237	0.044400	0.649800	0.771500
C5011	C501	0.037600	0.600000	0.900600
H2381	H238	0.061200	0.589000	0.909400
C5021	C502	0.057200	0.718200	0.829800
H2391	H239	0.044300	0.730700	0.850700
O1661	O166	0.169700	0.754500	0.789000
C5031	C503	0.154700	0.721400	0.775800
O1671	O167	0.172700	0.700400	0.752900
Zn241	Zn24	0.226420	0.698180	0.730480
C5041	C504	0.095800	0.731500	0.815500
H2401	H240	0.107200	0.754000	0.826400
O1681	O168	0.849200	0.746500	0.749600
Co11	Co1	0.500000	0.456440	0.000000
Co21	Co2	0.000000	0.956440	0.500000
Co31	Co3	0.500000	0.543560	0.000000
Co41	Co4	0.000000	0.043560	0.500000
Co51	Co5	0.000000	0.500000	0.456440
Co61	Co6	0.500000	0.000000	0.956440
Co71	Co7	0.000000	0.500000	0.543560
Co81	Co8	0.500000	0.000000	0.043560
Co91	Co9	0.456440	0.000000	0.500000
Co101	Co10	0.956440	0.500000	0.000000
Co111	Co11	0.543560	0.000000	0.500000
Co121	Co12	0.043560	0.500000	0.000000
Zn251	Zn25	0.278610	0.278610	0.721390
O1691	O169	0.245700	0.245700	0.754300
Zn261	Zn26	0.778610	0.778610	0.221390
O1701	O170	0.745700	0.745700	0.254300
Zn271	Zn27	0.721390	0.721390	0.721390
O1711	O171	0.754300	0.754300	0.754300
Zn281	Zn28	0.221390	0.221390	0.221390
O1721	O172	0.254300	0.254300	0.254300
Zn291	Zn29	0.721390	0.278610	0.278610
O1731	O173	0.754300	0.245700	0.245700
Zn301	Zn30	0.221390	0.778610	0.778610
O1741	O174	0.254300	0.745700	0.745700
Zn311	Zn31	0.278610	0.721390	0.278610
O1751	O175	0.245700	0.754300	0.245700
Zn321	Zn32	0.778610	0.221390	0.778610
O1761	O176	0.745700	0.254300	0.745700
