data_MAHCEG_clean_PM
_symmetry_space_group_name_H-M	'P1'
_cell_length_a	33.755300
_cell_length_b	33.755300
_cell_length_c	33.755300
_cell_angle_alpha	90.000000
_cell_angle_beta	90.000000
_cell_angle_gamma	90.000000
_symmetry_Int_Tables_number 1

loop_
_symmetry_equiv_pos_as_xyz
'x,y,z'

loop_
_atom_site_label
_atom_site_type_symbol
_atom_site_fract_x
_atom_site_fract_y
_atom_site_fract_z
Zn11	Zn1	0.225960	0.268540	0.301690
C11	C1	0.155140	0.223600	0.276000
C21	C2	0.114360	0.210700	0.287100
C31	C3	0.096200	0.226300	0.319600
H11	H1	0.109500	0.245600	0.334000
C41	C4	0.058600	0.214800	0.332200
H21	H2	0.046500	0.226500	0.354000
C51	C5	0.040300	0.184900	0.310800
C61	C6	0.057400	0.170000	0.278000
H31	H3	0.043700	0.151400	0.263000
C71	C7	0.095400	0.181900	0.265900
H41	H4	0.107400	0.170400	0.244000
C81	C8	0.004710	0.139400	0.355000
C91	C9	0.039100	0.125700	0.371600
H51	H5	0.063400	0.135400	0.362700
C101	C10	0.038200	0.098000	0.401000
H61	H6	0.062000	0.089200	0.411800
C111	C11	0.003100	0.082700	0.415300
C121	C12	0.968150	0.096700	0.398700
H71	H7	0.944000	0.087300	0.407900
C131	C13	0.968900	0.124000	0.369100
C141	C14	0.932360	0.164800	0.325900
C151	C15	0.967570	0.183300	0.312400
C161	C16	0.964000	0.213100	0.284500
H81	H8	0.986700	0.224700	0.274100
C171	C17	0.926830	0.226000	0.271800
H91	H9	0.924800	0.246900	0.254100
C181	C18	0.893020	0.207600	0.285700
C191	C19	0.895760	0.177800	0.313500
H101	H10	0.872900	0.166500	0.323800
C201	C20	0.002000	0.052130	0.446870
C211	C21	0.852380	0.219600	0.272800
N11	N1	0.003640	0.168500	0.325100
O11	O1	0.172440	0.246220	0.299420
O21	O2	0.168900	0.210350	0.244170
O31	O3	0.933110	0.134700	0.353000
O41	O4	0.968580	0.040040	0.458020
O51	O5	0.034840	0.041250	0.460110
O61	O6	0.824790	0.197590	0.283480
O71	O7	0.849690	0.249930	0.250600
Zn21	Zn2	0.725960	0.768540	0.801690
C221	C22	0.655140	0.723600	0.776000
C231	C23	0.614360	0.710700	0.787100
C241	C24	0.596200	0.726300	0.819600
H111	H11	0.609500	0.745600	0.834000
C251	C25	0.558600	0.714800	0.832200
H121	H12	0.546500	0.726500	0.854000
C261	C26	0.540300	0.684900	0.810800
C271	C27	0.557400	0.670000	0.778000
H131	H13	0.543700	0.651400	0.763000
C281	C28	0.595400	0.681900	0.765900
H141	H14	0.607400	0.670400	0.744000
C291	C29	0.504710	0.639400	0.855000
C301	C30	0.539100	0.625700	0.871600
H151	H15	0.563400	0.635400	0.862700
C311	C31	0.538200	0.598000	0.901000
H161	H16	0.562000	0.589200	0.911800
C321	C32	0.503100	0.582700	0.915300
C331	C33	0.468150	0.596700	0.898700
H171	H17	0.444000	0.587300	0.907900
C341	C34	0.468900	0.624000	0.869100
C351	C35	0.432360	0.664800	0.825900
C361	C36	0.467570	0.683300	0.812400
C371	C37	0.464000	0.713100	0.784500
H181	H18	0.486700	0.724700	0.774100
C381	C38	0.426830	0.726000	0.771800
H191	H19	0.424800	0.746900	0.754100
C391	C39	0.393020	0.707600	0.785700
C401	C40	0.395760	0.677800	0.813500
H201	H20	0.372900	0.666500	0.823800
C411	C41	0.502000	0.552130	0.946870
C421	C42	0.352380	0.719600	0.772800
N21	N2	0.503640	0.668500	0.825100
O81	O8	0.672440	0.746220	0.799420
O91	O9	0.668900	0.710350	0.744170
O101	O10	0.433110	0.634700	0.853000
O111	O11	0.468580	0.540040	0.958020
O121	O12	0.534840	0.541250	0.960110
O131	O13	0.324790	0.697590	0.783480
O141	O14	0.349690	0.749930	0.750600
Zn31	Zn3	0.774040	0.731460	0.301690
C431	C43	0.844860	0.776400	0.276000
C441	C44	0.885640	0.789300	0.287100
C451	C45	0.903800	0.773700	0.319600
H211	H21	0.890500	0.754400	0.334000
C461	C46	0.941400	0.785200	0.332200
H221	H22	0.953500	0.773500	0.354000
C471	C47	0.959700	0.815100	0.310800
C481	C48	0.942600	0.830000	0.278000
H231	H23	0.956300	0.848600	0.263000
C491	C49	0.904600	0.818100	0.265900
H241	H24	0.892600	0.829600	0.244000
C501	C50	0.995290	0.860600	0.355000
C511	C51	0.960900	0.874300	0.371600
H251	H25	0.936600	0.864600	0.362700
C521	C52	0.961800	0.902000	0.401000
H261	H26	0.938000	0.910800	0.411800
C531	C53	0.996900	0.917300	0.415300
C541	C54	0.031850	0.903300	0.398700
H271	H27	0.056000	0.912700	0.407900
C551	C55	0.031100	0.876000	0.369100
C561	C56	0.067640	0.835200	0.325900
C571	C57	0.032430	0.816700	0.312400
C581	C58	0.036000	0.786900	0.284500
H281	H28	0.013300	0.775300	0.274100
C591	C59	0.073170	0.774000	0.271800
H291	H29	0.075200	0.753100	0.254100
C601	C60	0.106980	0.792400	0.285700
C611	C61	0.104240	0.822200	0.313500
H301	H30	0.127100	0.833500	0.323800
C621	C62	0.998000	0.947870	0.446870
C631	C63	0.147620	0.780400	0.272800
N31	N3	0.996360	0.831500	0.325100
O151	O15	0.827560	0.753780	0.299420
O161	O16	0.831100	0.789650	0.244170
O171	O17	0.066890	0.865300	0.353000
O181	O18	0.031420	0.959960	0.458020
O191	O19	0.965160	0.958750	0.460110
O201	O20	0.175210	0.802410	0.283480
O211	O21	0.150310	0.750070	0.250600
Zn41	Zn4	0.274040	0.231460	0.801690
C641	C64	0.344860	0.276400	0.776000
C651	C65	0.385640	0.289300	0.787100
C661	C66	0.403800	0.273700	0.819600
H311	H31	0.390500	0.254400	0.834000
C671	C67	0.441400	0.285200	0.832200
H321	H32	0.453500	0.273500	0.854000
C681	C68	0.459700	0.315100	0.810800
C691	C69	0.442600	0.330000	0.778000
H331	H33	0.456300	0.348600	0.763000
C701	C70	0.404600	0.318100	0.765900
H341	H34	0.392600	0.329600	0.744000
C711	C71	0.495290	0.360600	0.855000
C721	C72	0.460900	0.374300	0.871600
H351	H35	0.436600	0.364600	0.862700
C731	C73	0.461800	0.402000	0.901000
H361	H36	0.438000	0.410800	0.911800
C741	C74	0.496900	0.417300	0.915300
C751	C75	0.531850	0.403300	0.898700
H371	H37	0.556000	0.412700	0.907900
C761	C76	0.531100	0.376000	0.869100
C771	C77	0.567640	0.335200	0.825900
C781	C78	0.532430	0.316700	0.812400
C791	C79	0.536000	0.286900	0.784500
H381	H38	0.513300	0.275300	0.774100
C801	C80	0.573170	0.274000	0.771800
H391	H39	0.575200	0.253100	0.754100
C811	C81	0.606980	0.292400	0.785700
C821	C82	0.604240	0.322200	0.813500
H401	H40	0.627100	0.333500	0.823800
C831	C83	0.498000	0.447870	0.946870
C841	C84	0.647620	0.280400	0.772800
N41	N4	0.496360	0.331500	0.825100
O221	O22	0.327560	0.253780	0.799420
O231	O23	0.331100	0.289650	0.744170
O241	O24	0.566890	0.365300	0.853000
O251	O25	0.531420	0.459960	0.958020
O261	O26	0.465160	0.458750	0.960110
O271	O27	0.675210	0.302410	0.783480
O281	O28	0.650310	0.250070	0.750600
Zn51	Zn5	0.774040	0.268540	0.698310
C851	C85	0.844860	0.223600	0.724000
C861	C86	0.885640	0.210700	0.712900
C871	C87	0.903800	0.226300	0.680400
H411	H41	0.890500	0.245600	0.666000
C881	C88	0.941400	0.214800	0.667800
H421	H42	0.953500	0.226500	0.646000
C891	C89	0.959700	0.184900	0.689200
C901	C90	0.942600	0.170000	0.722000
H431	H43	0.956300	0.151400	0.737000
C911	C91	0.904600	0.181900	0.734100
H441	H44	0.892600	0.170400	0.756000
C921	C92	0.995290	0.139400	0.645000
C931	C93	0.960900	0.125700	0.628400
H451	H45	0.936600	0.135400	0.637300
C941	C94	0.961800	0.098000	0.599000
H461	H46	0.938000	0.089200	0.588200
C951	C95	0.996900	0.082700	0.584700
C961	C96	0.031850	0.096700	0.601300
H471	H47	0.056000	0.087300	0.592100
C971	C97	0.031100	0.124000	0.630900
C981	C98	0.067640	0.164800	0.674100
C991	C99	0.032430	0.183300	0.687600
C1001	C100	0.036000	0.213100	0.715500
H481	H48	0.013300	0.224700	0.725900
C1011	C101	0.073170	0.226000	0.728200
H491	H49	0.075200	0.246900	0.745900
C1021	C102	0.106980	0.207600	0.714300
C1031	C103	0.104240	0.177800	0.686500
H501	H50	0.127100	0.166500	0.676200
C1041	C104	0.998000	0.052130	0.553130
C1051	C105	0.147620	0.219600	0.727200
N51	N5	0.996360	0.168500	0.674900
O291	O29	0.827560	0.246220	0.700580
O301	O30	0.831100	0.210350	0.755830
O311	O31	0.066890	0.134700	0.647000
O321	O32	0.031420	0.040040	0.541980
O331	O33	0.965160	0.041250	0.539890
O341	O34	0.175210	0.197590	0.716520
O351	O35	0.150310	0.249930	0.749400
Zn61	Zn6	0.274040	0.768540	0.198310
C1061	C106	0.344860	0.723600	0.224000
C1071	C107	0.385640	0.710700	0.212900
C1081	C108	0.403800	0.726300	0.180400
H511	H51	0.390500	0.745600	0.166000
C1091	C109	0.441400	0.714800	0.167800
H521	H52	0.453500	0.726500	0.146000
C1101	C110	0.459700	0.684900	0.189200
C1111	C111	0.442600	0.670000	0.222000
H531	H53	0.456300	0.651400	0.237000
C1121	C112	0.404600	0.681900	0.234100
H541	H54	0.392600	0.670400	0.256000
C1131	C113	0.495290	0.639400	0.145000
C1141	C114	0.460900	0.625700	0.128400
H551	H55	0.436600	0.635400	0.137300
C1151	C115	0.461800	0.598000	0.099000
H561	H56	0.438000	0.589200	0.088200
C1161	C116	0.496900	0.582700	0.084700
C1171	C117	0.531850	0.596700	0.101300
H571	H57	0.556000	0.587300	0.092100
C1181	C118	0.531100	0.624000	0.130900
C1191	C119	0.567640	0.664800	0.174100
C1201	C120	0.532430	0.683300	0.187600
C1211	C121	0.536000	0.713100	0.215500
H581	H58	0.513300	0.724700	0.225900
C1221	C122	0.573170	0.726000	0.228200
H591	H59	0.575200	0.746900	0.245900
C1231	C123	0.606980	0.707600	0.214300
C1241	C124	0.604240	0.677800	0.186500
H601	H60	0.627100	0.666500	0.176200
C1251	C125	0.498000	0.552130	0.053130
C1261	C126	0.647620	0.719600	0.227200
N61	N6	0.496360	0.668500	0.174900
O361	O36	0.327560	0.746220	0.200580
O371	O37	0.331100	0.710350	0.255830
O381	O38	0.566890	0.634700	0.147000
O391	O39	0.531420	0.540040	0.041980
O401	O40	0.465160	0.541250	0.039890
O411	O41	0.675210	0.697590	0.216520
O421	O42	0.650310	0.749930	0.249400
Zn71	Zn7	0.225960	0.731460	0.698310
C1271	C127	0.155140	0.776400	0.724000
C1281	C128	0.114360	0.789300	0.712900
C1291	C129	0.096200	0.773700	0.680400
H611	H61	0.109500	0.754400	0.666000
C1301	C130	0.058600	0.785200	0.667800
H621	H62	0.046500	0.773500	0.646000
C1311	C131	0.040300	0.815100	0.689200
C1321	C132	0.057400	0.830000	0.722000
H631	H63	0.043700	0.848600	0.737000
C1331	C133	0.095400	0.818100	0.734100
H641	H64	0.107400	0.829600	0.756000
C1341	C134	0.004710	0.860600	0.645000
C1351	C135	0.039100	0.874300	0.628400
H651	H65	0.063400	0.864600	0.637300
C1361	C136	0.038200	0.902000	0.599000
H661	H66	0.062000	0.910800	0.588200
C1371	C137	0.003100	0.917300	0.584700
C1381	C138	0.968150	0.903300	0.601300
H671	H67	0.944000	0.912700	0.592100
C1391	C139	0.968900	0.876000	0.630900
C1401	C140	0.932360	0.835200	0.674100
C1411	C141	0.967570	0.816700	0.687600
C1421	C142	0.964000	0.786900	0.715500
H681	H68	0.986700	0.775300	0.725900
C1431	C143	0.926830	0.774000	0.728200
H691	H69	0.924800	0.753100	0.745900
C1441	C144	0.893020	0.792400	0.714300
C1451	C145	0.895760	0.822200	0.686500
H701	H70	0.872900	0.833500	0.676200
C1461	C146	0.002000	0.947870	0.553130
C1471	C147	0.852380	0.780400	0.727200
N71	N7	0.003640	0.831500	0.674900
O431	O43	0.172440	0.753780	0.700580
O441	O44	0.168900	0.789650	0.755830
O451	O45	0.933110	0.865300	0.647000
O461	O46	0.968580	0.959960	0.541980
O471	O47	0.034840	0.958750	0.539890
O481	O48	0.824790	0.802410	0.716520
O491	O49	0.849690	0.750070	0.749400
Zn81	Zn8	0.725960	0.231460	0.198310
C1481	C148	0.655140	0.276400	0.224000
C1491	C149	0.614360	0.289300	0.212900
C1501	C150	0.596200	0.273700	0.180400
H711	H71	0.609500	0.254400	0.166000
C1511	C151	0.558600	0.285200	0.167800
H721	H72	0.546500	0.273500	0.146000
C1521	C152	0.540300	0.315100	0.189200
C1531	C153	0.557400	0.330000	0.222000
H731	H73	0.543700	0.348600	0.237000
C1541	C154	0.595400	0.318100	0.234100
H741	H74	0.607400	0.329600	0.256000
C1551	C155	0.504710	0.360600	0.145000
C1561	C156	0.539100	0.374300	0.128400
H751	H75	0.563400	0.364600	0.137300
C1571	C157	0.538200	0.402000	0.099000
H761	H76	0.562000	0.410800	0.088200
C1581	C158	0.503100	0.417300	0.084700
C1591	C159	0.468150	0.403300	0.101300
H771	H77	0.444000	0.412700	0.092100
C1601	C160	0.468900	0.376000	0.130900
C1611	C161	0.432360	0.335200	0.174100
C1621	C162	0.467570	0.316700	0.187600
C1631	C163	0.464000	0.286900	0.215500
H781	H78	0.486700	0.275300	0.225900
C1641	C164	0.426830	0.274000	0.228200
H791	H79	0.424800	0.253100	0.245900
C1651	C165	0.393020	0.292400	0.214300
C1661	C166	0.395760	0.322200	0.186500
H801	H80	0.372900	0.333500	0.176200
C1671	C167	0.502000	0.447870	0.053130
C1681	C168	0.352380	0.280400	0.227200
N81	N8	0.503640	0.331500	0.174900
O501	O50	0.672440	0.253780	0.200580
O511	O51	0.668900	0.289650	0.255830
O521	O52	0.433110	0.365300	0.147000
O531	O53	0.468580	0.459960	0.041980
O541	O54	0.534840	0.458750	0.039890
O551	O55	0.324790	0.302410	0.216520
O561	O56	0.349690	0.250070	0.249400
Zn91	Zn9	0.301690	0.225960	0.268540
C1691	C169	0.276000	0.155140	0.223600
C1701	C170	0.287100	0.114360	0.210700
C1711	C171	0.319600	0.096200	0.226300
H811	H81	0.334000	0.109500	0.245600
C1721	C172	0.332200	0.058600	0.214800
H821	H82	0.354000	0.046500	0.226500
C1731	C173	0.310800	0.040300	0.184900
C1741	C174	0.278000	0.057400	0.170000
H831	H83	0.263000	0.043700	0.151400
C1751	C175	0.265900	0.095400	0.181900
H841	H84	0.244000	0.107400	0.170400
C1761	C176	0.355000	0.004710	0.139400
C1771	C177	0.371600	0.039100	0.125700
H851	H85	0.362700	0.063400	0.135400
C1781	C178	0.401000	0.038200	0.098000
H861	H86	0.411800	0.062000	0.089200
C1791	C179	0.415300	0.003100	0.082700
C1801	C180	0.398700	0.968150	0.096700
H871	H87	0.407900	0.944000	0.087300
C1811	C181	0.369100	0.968900	0.124000
C1821	C182	0.325900	0.932360	0.164800
C1831	C183	0.312400	0.967570	0.183300
C1841	C184	0.284500	0.964000	0.213100
H881	H88	0.274100	0.986700	0.224700
C1851	C185	0.271800	0.926830	0.226000
H891	H89	0.254100	0.924800	0.246900
C1861	C186	0.285700	0.893020	0.207600
C1871	C187	0.313500	0.895760	0.177800
H901	H90	0.323800	0.872900	0.166500
C1881	C188	0.446870	0.002000	0.052130
C1891	C189	0.272800	0.852380	0.219600
N91	N9	0.325100	0.003640	0.168500
O571	O57	0.299420	0.172440	0.246220
O581	O58	0.244170	0.168900	0.210350
O591	O59	0.353000	0.933110	0.134700
O601	O60	0.458020	0.968580	0.040040
O611	O61	0.460110	0.034840	0.041250
O621	O62	0.283480	0.824790	0.197590
O631	O63	0.250600	0.849690	0.249930
Zn101	Zn10	0.801690	0.725960	0.768540
C1901	C190	0.776000	0.655140	0.723600
C1911	C191	0.787100	0.614360	0.710700
C1921	C192	0.819600	0.596200	0.726300
H911	H91	0.834000	0.609500	0.745600
C1931	C193	0.832200	0.558600	0.714800
H921	H92	0.854000	0.546500	0.726500
C1941	C194	0.810800	0.540300	0.684900
C1951	C195	0.778000	0.557400	0.670000
H931	H93	0.763000	0.543700	0.651400
C1961	C196	0.765900	0.595400	0.681900
H941	H94	0.744000	0.607400	0.670400
C1971	C197	0.855000	0.504710	0.639400
C1981	C198	0.871600	0.539100	0.625700
H951	H95	0.862700	0.563400	0.635400
C1991	C199	0.901000	0.538200	0.598000
H961	H96	0.911800	0.562000	0.589200
C2001	C200	0.915300	0.503100	0.582700
C2011	C201	0.898700	0.468150	0.596700
H971	H97	0.907900	0.444000	0.587300
C2021	C202	0.869100	0.468900	0.624000
C2031	C203	0.825900	0.432360	0.664800
C2041	C204	0.812400	0.467570	0.683300
C2051	C205	0.784500	0.464000	0.713100
H981	H98	0.774100	0.486700	0.724700
C2061	C206	0.771800	0.426830	0.726000
H991	H99	0.754100	0.424800	0.746900
C2071	C207	0.785700	0.393020	0.707600
C2081	C208	0.813500	0.395760	0.677800
H1001	H100	0.823800	0.372900	0.666500
C2091	C209	0.946870	0.502000	0.552130
C2101	C210	0.772800	0.352380	0.719600
N101	N10	0.825100	0.503640	0.668500
O641	O64	0.799420	0.672440	0.746220
O651	O65	0.744170	0.668900	0.710350
O661	O66	0.853000	0.433110	0.634700
O671	O67	0.958020	0.468580	0.540040
O681	O68	0.960110	0.534840	0.541250
O691	O69	0.783480	0.324790	0.697590
O701	O70	0.750600	0.349690	0.749930
Zn111	Zn11	0.301690	0.774040	0.731460
C2111	C211	0.276000	0.844860	0.776400
C2121	C212	0.287100	0.885640	0.789300
C2131	C213	0.319600	0.903800	0.773700
H1011	H101	0.334000	0.890500	0.754400
C2141	C214	0.332200	0.941400	0.785200
H1021	H102	0.354000	0.953500	0.773500
C2151	C215	0.310800	0.959700	0.815100
C2161	C216	0.278000	0.942600	0.830000
H1031	H103	0.263000	0.956300	0.848600
C2171	C217	0.265900	0.904600	0.818100
H1041	H104	0.244000	0.892600	0.829600
C2181	C218	0.355000	0.995290	0.860600
C2191	C219	0.371600	0.960900	0.874300
H1051	H105	0.362700	0.936600	0.864600
C2201	C220	0.401000	0.961800	0.902000
H1061	H106	0.411800	0.938000	0.910800
C2211	C221	0.415300	0.996900	0.917300
C2221	C222	0.398700	0.031850	0.903300
H1071	H107	0.407900	0.056000	0.912700
C2231	C223	0.369100	0.031100	0.876000
C2241	C224	0.325900	0.067640	0.835200
C2251	C225	0.312400	0.032430	0.816700
C2261	C226	0.284500	0.036000	0.786900
H1081	H108	0.274100	0.013300	0.775300
C2271	C227	0.271800	0.073170	0.774000
H1091	H109	0.254100	0.075200	0.753100
C2281	C228	0.285700	0.106980	0.792400
C2291	C229	0.313500	0.104240	0.822200
H1101	H110	0.323800	0.127100	0.833500
C2301	C230	0.446870	0.998000	0.947870
C2311	C231	0.272800	0.147620	0.780400
N111	N11	0.325100	0.996360	0.831500
O711	O71	0.299420	0.827560	0.753780
O721	O72	0.244170	0.831100	0.789650
O731	O73	0.353000	0.066890	0.865300
O741	O74	0.458020	0.031420	0.959960
O751	O75	0.460110	0.965160	0.958750
O761	O76	0.283480	0.175210	0.802410
O771	O77	0.250600	0.150310	0.750070
Zn121	Zn12	0.801690	0.274040	0.231460
C2321	C232	0.776000	0.344860	0.276400
C2331	C233	0.787100	0.385640	0.289300
C2341	C234	0.819600	0.403800	0.273700
H1111	H111	0.834000	0.390500	0.254400
C2351	C235	0.832200	0.441400	0.285200
H1121	H112	0.854000	0.453500	0.273500
C2361	C236	0.810800	0.459700	0.315100
C2371	C237	0.778000	0.442600	0.330000
H1131	H113	0.763000	0.456300	0.348600
C2381	C238	0.765900	0.404600	0.318100
H1141	H114	0.744000	0.392600	0.329600
C2391	C239	0.855000	0.495290	0.360600
C2401	C240	0.871600	0.460900	0.374300
H1151	H115	0.862700	0.436600	0.364600
C2411	C241	0.901000	0.461800	0.402000
H1161	H116	0.911800	0.438000	0.410800
C2421	C242	0.915300	0.496900	0.417300
C2431	C243	0.898700	0.531850	0.403300
H1171	H117	0.907900	0.556000	0.412700
C2441	C244	0.869100	0.531100	0.376000
C2451	C245	0.825900	0.567640	0.335200
C2461	C246	0.812400	0.532430	0.316700
C2471	C247	0.784500	0.536000	0.286900
H1181	H118	0.774100	0.513300	0.275300
C2481	C248	0.771800	0.573170	0.274000
H1191	H119	0.754100	0.575200	0.253100
C2491	C249	0.785700	0.606980	0.292400
C2501	C250	0.813500	0.604240	0.322200
H1201	H120	0.823800	0.627100	0.333500
C2511	C251	0.946870	0.498000	0.447870
C2521	C252	0.772800	0.647620	0.280400
N121	N12	0.825100	0.496360	0.331500
O781	O78	0.799420	0.327560	0.253780
O791	O79	0.744170	0.331100	0.289650
O801	O80	0.853000	0.566890	0.365300
O811	O81	0.958020	0.531420	0.459960
O821	O82	0.960110	0.465160	0.458750
O831	O83	0.783480	0.675210	0.302410
O841	O84	0.750600	0.650310	0.250070
Zn131	Zn13	0.698310	0.774040	0.268540
C2531	C253	0.724000	0.844860	0.223600
C2541	C254	0.712900	0.885640	0.210700
C2551	C255	0.680400	0.903800	0.226300
H1211	H121	0.666000	0.890500	0.245600
C2561	C256	0.667800	0.941400	0.214800
H1221	H122	0.646000	0.953500	0.226500
C2571	C257	0.689200	0.959700	0.184900
C2581	C258	0.722000	0.942600	0.170000
H1231	H123	0.737000	0.956300	0.151400
C2591	C259	0.734100	0.904600	0.181900
H1241	H124	0.756000	0.892600	0.170400
C2601	C260	0.645000	0.995290	0.139400
C2611	C261	0.628400	0.960900	0.125700
H1251	H125	0.637300	0.936600	0.135400
C2621	C262	0.599000	0.961800	0.098000
H1261	H126	0.588200	0.938000	0.089200
C2631	C263	0.584700	0.996900	0.082700
C2641	C264	0.601300	0.031850	0.096700
H1271	H127	0.592100	0.056000	0.087300
C2651	C265	0.630900	0.031100	0.124000
C2661	C266	0.674100	0.067640	0.164800
C2671	C267	0.687600	0.032430	0.183300
C2681	C268	0.715500	0.036000	0.213100
H1281	H128	0.725900	0.013300	0.224700
C2691	C269	0.728200	0.073170	0.226000
H1291	H129	0.745900	0.075200	0.246900
C2701	C270	0.714300	0.106980	0.207600
C2711	C271	0.686500	0.104240	0.177800
H1301	H130	0.676200	0.127100	0.166500
C2721	C272	0.553130	0.998000	0.052130
C2731	C273	0.727200	0.147620	0.219600
N131	N13	0.674900	0.996360	0.168500
O851	O85	0.700580	0.827560	0.246220
O861	O86	0.755830	0.831100	0.210350
O871	O87	0.647000	0.066890	0.134700
O881	O88	0.541980	0.031420	0.040040
O891	O89	0.539890	0.965160	0.041250
O901	O90	0.716520	0.175210	0.197590
O911	O91	0.749400	0.150310	0.249930
Zn141	Zn14	0.198310	0.274040	0.768540
C2741	C274	0.224000	0.344860	0.723600
C2751	C275	0.212900	0.385640	0.710700
C2761	C276	0.180400	0.403800	0.726300
H1311	H131	0.166000	0.390500	0.745600
C2771	C277	0.167800	0.441400	0.714800
H1321	H132	0.146000	0.453500	0.726500
C2781	C278	0.189200	0.459700	0.684900
C2791	C279	0.222000	0.442600	0.670000
H1331	H133	0.237000	0.456300	0.651400
C2801	C280	0.234100	0.404600	0.681900
H1341	H134	0.256000	0.392600	0.670400
C2811	C281	0.145000	0.495290	0.639400
C2821	C282	0.128400	0.460900	0.625700
H1351	H135	0.137300	0.436600	0.635400
C2831	C283	0.099000	0.461800	0.598000
H1361	H136	0.088200	0.438000	0.589200
C2841	C284	0.084700	0.496900	0.582700
C2851	C285	0.101300	0.531850	0.596700
H1371	H137	0.092100	0.556000	0.587300
C2861	C286	0.130900	0.531100	0.624000
C2871	C287	0.174100	0.567640	0.664800
C2881	C288	0.187600	0.532430	0.683300
C2891	C289	0.215500	0.536000	0.713100
H1381	H138	0.225900	0.513300	0.724700
C2901	C290	0.228200	0.573170	0.726000
H1391	H139	0.245900	0.575200	0.746900
C2911	C291	0.214300	0.606980	0.707600
C2921	C292	0.186500	0.604240	0.677800
H1401	H140	0.176200	0.627100	0.666500
C2931	C293	0.053130	0.498000	0.552130
C2941	C294	0.227200	0.647620	0.719600
N141	N14	0.174900	0.496360	0.668500
O921	O92	0.200580	0.327560	0.746220
O931	O93	0.255830	0.331100	0.710350
O941	O94	0.147000	0.566890	0.634700
O951	O95	0.041980	0.531420	0.540040
O961	O96	0.039890	0.465160	0.541250
O971	O97	0.216520	0.675210	0.697590
O981	O98	0.249400	0.650310	0.749930
Zn151	Zn15	0.698310	0.225960	0.731460
C2951	C295	0.724000	0.155140	0.776400
C2961	C296	0.712900	0.114360	0.789300
C2971	C297	0.680400	0.096200	0.773700
H1411	H141	0.666000	0.109500	0.754400
C2981	C298	0.667800	0.058600	0.785200
H1421	H142	0.646000	0.046500	0.773500
C2991	C299	0.689200	0.040300	0.815100
C3001	C300	0.722000	0.057400	0.830000
H1431	H143	0.737000	0.043700	0.848600
C3011	C301	0.734100	0.095400	0.818100
H1441	H144	0.756000	0.107400	0.829600
C3021	C302	0.645000	0.004710	0.860600
C3031	C303	0.628400	0.039100	0.874300
H1451	H145	0.637300	0.063400	0.864600
C3041	C304	0.599000	0.038200	0.902000
H1461	H146	0.588200	0.062000	0.910800
C3051	C305	0.584700	0.003100	0.917300
C3061	C306	0.601300	0.968150	0.903300
H1471	H147	0.592100	0.944000	0.912700
C3071	C307	0.630900	0.968900	0.876000
C3081	C308	0.674100	0.932360	0.835200
C3091	C309	0.687600	0.967570	0.816700
C3101	C310	0.715500	0.964000	0.786900
H1481	H148	0.725900	0.986700	0.775300
C3111	C311	0.728200	0.926830	0.774000
H1491	H149	0.745900	0.924800	0.753100
C3121	C312	0.714300	0.893020	0.792400
C3131	C313	0.686500	0.895760	0.822200
H1501	H150	0.676200	0.872900	0.833500
C3141	C314	0.553130	0.002000	0.947870
C3151	C315	0.727200	0.852380	0.780400
N151	N15	0.674900	0.003640	0.831500
O991	O99	0.700580	0.172440	0.753780
O1001	O100	0.755830	0.168900	0.789650
O1011	O101	0.647000	0.933110	0.865300
O1021	O102	0.541980	0.968580	0.959960
O1031	O103	0.539890	0.034840	0.958750
O1041	O104	0.716520	0.824790	0.802410
O1051	O105	0.749400	0.849690	0.750070
Zn161	Zn16	0.198310	0.725960	0.231460
C3161	C316	0.224000	0.655140	0.276400
C3171	C317	0.212900	0.614360	0.289300
C3181	C318	0.180400	0.596200	0.273700
H1511	H151	0.166000	0.609500	0.254400
C3191	C319	0.167800	0.558600	0.285200
H1521	H152	0.146000	0.546500	0.273500
C3201	C320	0.189200	0.540300	0.315100
C3211	C321	0.222000	0.557400	0.330000
H1531	H153	0.237000	0.543700	0.348600
C3221	C322	0.234100	0.595400	0.318100
H1541	H154	0.256000	0.607400	0.329600
C3231	C323	0.145000	0.504710	0.360600
C3241	C324	0.128400	0.539100	0.374300
H1551	H155	0.137300	0.563400	0.364600
C3251	C325	0.099000	0.538200	0.402000
H1561	H156	0.088200	0.562000	0.410800
C3261	C326	0.084700	0.503100	0.417300
C3271	C327	0.101300	0.468150	0.403300
H1571	H157	0.092100	0.444000	0.412700
C3281	C328	0.130900	0.468900	0.376000
C3291	C329	0.174100	0.432360	0.335200
C3301	C330	0.187600	0.467570	0.316700
C3311	C331	0.215500	0.464000	0.286900
H1581	H158	0.225900	0.486700	0.275300
C3321	C332	0.228200	0.426830	0.274000
H1591	H159	0.245900	0.424800	0.253100
C3331	C333	0.214300	0.393020	0.292400
C3341	C334	0.186500	0.395760	0.322200
H1601	H160	0.176200	0.372900	0.333500
C3351	C335	0.053130	0.502000	0.447870
C3361	C336	0.227200	0.352380	0.280400
N161	N16	0.174900	0.503640	0.331500
O1061	O106	0.200580	0.672440	0.253780
O1071	O107	0.255830	0.668900	0.289650
O1081	O108	0.147000	0.433110	0.365300
O1091	O109	0.041980	0.468580	0.459960
O1101	O110	0.039890	0.534840	0.458750
O1111	O111	0.216520	0.324790	0.302410
O1121	O112	0.249400	0.349690	0.250070
Zn171	Zn17	0.268540	0.301690	0.225960
C3371	C337	0.223600	0.276000	0.155140
C3381	C338	0.210700	0.287100	0.114360
C3391	C339	0.226300	0.319600	0.096200
H1611	H161	0.245600	0.334000	0.109500
C3401	C340	0.214800	0.332200	0.058600
H1621	H162	0.226500	0.354000	0.046500
C3411	C341	0.184900	0.310800	0.040300
C3421	C342	0.170000	0.278000	0.057400
H1631	H163	0.151400	0.263000	0.043700
C3431	C343	0.181900	0.265900	0.095400
H1641	H164	0.170400	0.244000	0.107400
C3441	C344	0.139400	0.355000	0.004710
C3451	C345	0.125700	0.371600	0.039100
H1651	H165	0.135400	0.362700	0.063400
C3461	C346	0.098000	0.401000	0.038200
H1661	H166	0.089200	0.411800	0.062000
C3471	C347	0.082700	0.415300	0.003100
C3481	C348	0.096700	0.398700	0.968150
H1671	H167	0.087300	0.407900	0.944000
C3491	C349	0.124000	0.369100	0.968900
C3501	C350	0.164800	0.325900	0.932360
C3511	C351	0.183300	0.312400	0.967570
C3521	C352	0.213100	0.284500	0.964000
H1681	H168	0.224700	0.274100	0.986700
C3531	C353	0.226000	0.271800	0.926830
H1691	H169	0.246900	0.254100	0.924800
C3541	C354	0.207600	0.285700	0.893020
C3551	C355	0.177800	0.313500	0.895760
H1701	H170	0.166500	0.323800	0.872900
C3561	C356	0.052130	0.446870	0.002000
C3571	C357	0.219600	0.272800	0.852380
N171	N17	0.168500	0.325100	0.003640
O1131	O113	0.246220	0.299420	0.172440
O1141	O114	0.210350	0.244170	0.168900
O1151	O115	0.134700	0.353000	0.933110
O1161	O116	0.040040	0.458020	0.968580
O1171	O117	0.041250	0.460110	0.034840
O1181	O118	0.197590	0.283480	0.824790
O1191	O119	0.249930	0.250600	0.849690
Zn181	Zn18	0.768540	0.801690	0.725960
C3581	C358	0.723600	0.776000	0.655140
C3591	C359	0.710700	0.787100	0.614360
C3601	C360	0.726300	0.819600	0.596200
H1711	H171	0.745600	0.834000	0.609500
C3611	C361	0.714800	0.832200	0.558600
H1721	H172	0.726500	0.854000	0.546500
C3621	C362	0.684900	0.810800	0.540300
C3631	C363	0.670000	0.778000	0.557400
H1731	H173	0.651400	0.763000	0.543700
C3641	C364	0.681900	0.765900	0.595400
H1741	H174	0.670400	0.744000	0.607400
C3651	C365	0.639400	0.855000	0.504710
C3661	C366	0.625700	0.871600	0.539100
H1751	H175	0.635400	0.862700	0.563400
C3671	C367	0.598000	0.901000	0.538200
H1761	H176	0.589200	0.911800	0.562000
C3681	C368	0.582700	0.915300	0.503100
C3691	C369	0.596700	0.898700	0.468150
H1771	H177	0.587300	0.907900	0.444000
C3701	C370	0.624000	0.869100	0.468900
C3711	C371	0.664800	0.825900	0.432360
C3721	C372	0.683300	0.812400	0.467570
C3731	C373	0.713100	0.784500	0.464000
H1781	H178	0.724700	0.774100	0.486700
C3741	C374	0.726000	0.771800	0.426830
H1791	H179	0.746900	0.754100	0.424800
C3751	C375	0.707600	0.785700	0.393020
C3761	C376	0.677800	0.813500	0.395760
H1801	H180	0.666500	0.823800	0.372900
C3771	C377	0.552130	0.946870	0.502000
C3781	C378	0.719600	0.772800	0.352380
N181	N18	0.668500	0.825100	0.503640
O1201	O120	0.746220	0.799420	0.672440
O1211	O121	0.710350	0.744170	0.668900
O1221	O122	0.634700	0.853000	0.433110
O1231	O123	0.540040	0.958020	0.468580
O1241	O124	0.541250	0.960110	0.534840
O1251	O125	0.697590	0.783480	0.324790
O1261	O126	0.749930	0.750600	0.349690
Zn191	Zn19	0.731460	0.301690	0.774040
C3791	C379	0.776400	0.276000	0.844860
C3801	C380	0.789300	0.287100	0.885640
C3811	C381	0.773700	0.319600	0.903800
H1811	H181	0.754400	0.334000	0.890500
C3821	C382	0.785200	0.332200	0.941400
H1821	H182	0.773500	0.354000	0.953500
C3831	C383	0.815100	0.310800	0.959700
C3841	C384	0.830000	0.278000	0.942600
H1831	H183	0.848600	0.263000	0.956300
C3851	C385	0.818100	0.265900	0.904600
H1841	H184	0.829600	0.244000	0.892600
C3861	C386	0.860600	0.355000	0.995290
C3871	C387	0.874300	0.371600	0.960900
H1851	H185	0.864600	0.362700	0.936600
C3881	C388	0.902000	0.401000	0.961800
H1861	H186	0.910800	0.411800	0.938000
C3891	C389	0.917300	0.415300	0.996900
C3901	C390	0.903300	0.398700	0.031850
H1871	H187	0.912700	0.407900	0.056000
C3911	C391	0.876000	0.369100	0.031100
C3921	C392	0.835200	0.325900	0.067640
C3931	C393	0.816700	0.312400	0.032430
C3941	C394	0.786900	0.284500	0.036000
H1881	H188	0.775300	0.274100	0.013300
C3951	C395	0.774000	0.271800	0.073170
H1891	H189	0.753100	0.254100	0.075200
C3961	C396	0.792400	0.285700	0.106980
C3971	C397	0.822200	0.313500	0.104240
H1901	H190	0.833500	0.323800	0.127100
C3981	C398	0.947870	0.446870	0.998000
C3991	C399	0.780400	0.272800	0.147620
N191	N19	0.831500	0.325100	0.996360
O1271	O127	0.753780	0.299420	0.827560
O1281	O128	0.789650	0.244170	0.831100
O1291	O129	0.865300	0.353000	0.066890
O1301	O130	0.959960	0.458020	0.031420
O1311	O131	0.958750	0.460110	0.965160
O1321	O132	0.802410	0.283480	0.175210
O1331	O133	0.750070	0.250600	0.150310
Zn201	Zn20	0.231460	0.801690	0.274040
C4001	C400	0.276400	0.776000	0.344860
C4011	C401	0.289300	0.787100	0.385640
C4021	C402	0.273700	0.819600	0.403800
H1911	H191	0.254400	0.834000	0.390500
C4031	C403	0.285200	0.832200	0.441400
H1921	H192	0.273500	0.854000	0.453500
C4041	C404	0.315100	0.810800	0.459700
C4051	C405	0.330000	0.778000	0.442600
H1931	H193	0.348600	0.763000	0.456300
C4061	C406	0.318100	0.765900	0.404600
H1941	H194	0.329600	0.744000	0.392600
C4071	C407	0.360600	0.855000	0.495290
C4081	C408	0.374300	0.871600	0.460900
H1951	H195	0.364600	0.862700	0.436600
C4091	C409	0.402000	0.901000	0.461800
H1961	H196	0.410800	0.911800	0.438000
C4101	C410	0.417300	0.915300	0.496900
C4111	C411	0.403300	0.898700	0.531850
H1971	H197	0.412700	0.907900	0.556000
C4121	C412	0.376000	0.869100	0.531100
C4131	C413	0.335200	0.825900	0.567640
C4141	C414	0.316700	0.812400	0.532430
C4151	C415	0.286900	0.784500	0.536000
H1981	H198	0.275300	0.774100	0.513300
C4161	C416	0.274000	0.771800	0.573170
H1991	H199	0.253100	0.754100	0.575200
C4171	C417	0.292400	0.785700	0.606980
C4181	C418	0.322200	0.813500	0.604240
H2001	H200	0.333500	0.823800	0.627100
C4191	C419	0.447870	0.946870	0.498000
C4201	C420	0.280400	0.772800	0.647620
N201	N20	0.331500	0.825100	0.496360
O1341	O134	0.253780	0.799420	0.327560
O1351	O135	0.289650	0.744170	0.331100
O1361	O136	0.365300	0.853000	0.566890
O1371	O137	0.459960	0.958020	0.531420
O1381	O138	0.458750	0.960110	0.465160
O1391	O139	0.302410	0.783480	0.675210
O1401	O140	0.250070	0.750600	0.650310
Zn211	Zn21	0.268540	0.698310	0.774040
C4211	C421	0.223600	0.724000	0.844860
C4221	C422	0.210700	0.712900	0.885640
C4231	C423	0.226300	0.680400	0.903800
H2011	H201	0.245600	0.666000	0.890500
C4241	C424	0.214800	0.667800	0.941400
H2021	H202	0.226500	0.646000	0.953500
C4251	C425	0.184900	0.689200	0.959700
C4261	C426	0.170000	0.722000	0.942600
H2031	H203	0.151400	0.737000	0.956300
C4271	C427	0.181900	0.734100	0.904600
H2041	H204	0.170400	0.756000	0.892600
C4281	C428	0.139400	0.645000	0.995290
C4291	C429	0.125700	0.628400	0.960900
H2051	H205	0.135400	0.637300	0.936600
C4301	C430	0.098000	0.599000	0.961800
H2061	H206	0.089200	0.588200	0.938000
C4311	C431	0.082700	0.584700	0.996900
C4321	C432	0.096700	0.601300	0.031850
H2071	H207	0.087300	0.592100	0.056000
C4331	C433	0.124000	0.630900	0.031100
C4341	C434	0.164800	0.674100	0.067640
C4351	C435	0.183300	0.687600	0.032430
C4361	C436	0.213100	0.715500	0.036000
H2081	H208	0.224700	0.725900	0.013300
C4371	C437	0.226000	0.728200	0.073170
H2091	H209	0.246900	0.745900	0.075200
C4381	C438	0.207600	0.714300	0.106980
C4391	C439	0.177800	0.686500	0.104240
H2101	H210	0.166500	0.676200	0.127100
C4401	C440	0.052130	0.553130	0.998000
C4411	C441	0.219600	0.727200	0.147620
N211	N21	0.168500	0.674900	0.996360
O1411	O141	0.246220	0.700580	0.827560
O1421	O142	0.210350	0.755830	0.831100
O1431	O143	0.134700	0.647000	0.066890
O1441	O144	0.040040	0.541980	0.031420
O1451	O145	0.041250	0.539890	0.965160
O1461	O146	0.197590	0.716520	0.175210
O1471	O147	0.249930	0.749400	0.150310
Zn221	Zn22	0.768540	0.198310	0.274040
C4421	C442	0.723600	0.224000	0.344860
C4431	C443	0.710700	0.212900	0.385640
C4441	C444	0.726300	0.180400	0.403800
H2111	H211	0.745600	0.166000	0.390500
C4451	C445	0.714800	0.167800	0.441400
H2121	H212	0.726500	0.146000	0.453500
C4461	C446	0.684900	0.189200	0.459700
C4471	C447	0.670000	0.222000	0.442600
H2131	H213	0.651400	0.237000	0.456300
C4481	C448	0.681900	0.234100	0.404600
H2141	H214	0.670400	0.256000	0.392600
C4491	C449	0.639400	0.145000	0.495290
C4501	C450	0.625700	0.128400	0.460900
H2151	H215	0.635400	0.137300	0.436600
C4511	C451	0.598000	0.099000	0.461800
H2161	H216	0.589200	0.088200	0.438000
C4521	C452	0.582700	0.084700	0.496900
C4531	C453	0.596700	0.101300	0.531850
H2171	H217	0.587300	0.092100	0.556000
C4541	C454	0.624000	0.130900	0.531100
C4551	C455	0.664800	0.174100	0.567640
C4561	C456	0.683300	0.187600	0.532430
C4571	C457	0.713100	0.215500	0.536000
H2181	H218	0.724700	0.225900	0.513300
C4581	C458	0.726000	0.228200	0.573170
H2191	H219	0.746900	0.245900	0.575200
C4591	C459	0.707600	0.214300	0.606980
C4601	C460	0.677800	0.186500	0.604240
H2201	H220	0.666500	0.176200	0.627100
C4611	C461	0.552130	0.053130	0.498000
C4621	C462	0.719600	0.227200	0.647620
N221	N22	0.668500	0.174900	0.496360
O1481	O148	0.746220	0.200580	0.327560
O1491	O149	0.710350	0.255830	0.331100
O1501	O150	0.634700	0.147000	0.566890
O1511	O151	0.540040	0.041980	0.531420
O1521	O152	0.541250	0.039890	0.465160
O1531	O153	0.697590	0.216520	0.675210
O1541	O154	0.749930	0.249400	0.650310
Zn231	Zn23	0.731460	0.698310	0.225960
C4631	C463	0.776400	0.724000	0.155140
C4641	C464	0.789300	0.712900	0.114360
C4651	C465	0.773700	0.680400	0.096200
H2211	H221	0.754400	0.666000	0.109500
C4661	C466	0.785200	0.667800	0.058600
H2221	H222	0.773500	0.646000	0.046500
C4671	C467	0.815100	0.689200	0.040300
C4681	C468	0.830000	0.722000	0.057400
H2231	H223	0.848600	0.737000	0.043700
C4691	C469	0.818100	0.734100	0.095400
H2241	H224	0.829600	0.756000	0.107400
C4701	C470	0.860600	0.645000	0.004710
C4711	C471	0.874300	0.628400	0.039100
H2251	H225	0.864600	0.637300	0.063400
C4721	C472	0.902000	0.599000	0.038200
H2261	H226	0.910800	0.588200	0.062000
C4731	C473	0.917300	0.584700	0.003100
C4741	C474	0.903300	0.601300	0.968150
H2271	H227	0.912700	0.592100	0.944000
C4751	C475	0.876000	0.630900	0.968900
C4761	C476	0.835200	0.674100	0.932360
C4771	C477	0.816700	0.687600	0.967570
C4781	C478	0.786900	0.715500	0.964000
H2281	H228	0.775300	0.725900	0.986700
C4791	C479	0.774000	0.728200	0.926830
H2291	H229	0.753100	0.745900	0.924800
C4801	C480	0.792400	0.714300	0.893020
C4811	C481	0.822200	0.686500	0.895760
H2301	H230	0.833500	0.676200	0.872900
C4821	C482	0.947870	0.553130	0.002000
C4831	C483	0.780400	0.727200	0.852380
N231	N23	0.831500	0.674900	0.003640
O1551	O155	0.753780	0.700580	0.172440
O1561	O156	0.789650	0.755830	0.168900
O1571	O157	0.865300	0.647000	0.933110
O1581	O158	0.959960	0.541980	0.968580
O1591	O159	0.958750	0.539890	0.034840
O1601	O160	0.802410	0.716520	0.824790
O1611	O161	0.750070	0.749400	0.849690
Zn241	Zn24	0.231460	0.198310	0.725960
C4841	C484	0.276400	0.224000	0.655140
C4851	C485	0.289300	0.212900	0.614360
C4861	C486	0.273700	0.180400	0.596200
H2311	H231	0.254400	0.166000	0.609500
C4871	C487	0.285200	0.167800	0.558600
H2321	H232	0.273500	0.146000	0.546500
C4881	C488	0.315100	0.189200	0.540300
C4891	C489	0.330000	0.222000	0.557400
H2331	H233	0.348600	0.237000	0.543700
C4901	C490	0.318100	0.234100	0.595400
H2341	H234	0.329600	0.256000	0.607400
C4911	C491	0.360600	0.145000	0.504710
C4921	C492	0.374300	0.128400	0.539100
H2351	H235	0.364600	0.137300	0.563400
C4931	C493	0.402000	0.099000	0.538200
H2361	H236	0.410800	0.088200	0.562000
C4941	C494	0.417300	0.084700	0.503100
C4951	C495	0.403300	0.101300	0.468150
H2371	H237	0.412700	0.092100	0.444000
C4961	C496	0.376000	0.130900	0.468900
C4971	C497	0.335200	0.174100	0.432360
C4981	C498	0.316700	0.187600	0.467570
C4991	C499	0.286900	0.215500	0.464000
H2381	H238	0.275300	0.225900	0.486700
C5001	C500	0.274000	0.228200	0.426830
H2391	H239	0.253100	0.245900	0.424800
C5011	C501	0.292400	0.214300	0.393020
C5021	C502	0.322200	0.186500	0.395760
H2401	H240	0.333500	0.176200	0.372900
C5031	C503	0.447870	0.053130	0.502000
C5041	C504	0.280400	0.227200	0.352380
N241	N24	0.331500	0.174900	0.503640
O1621	O162	0.253780	0.200580	0.672440
O1631	O163	0.289650	0.255830	0.668900
O1641	O164	0.365300	0.147000	0.433110
O1651	O165	0.459960	0.041980	0.468580
O1661	O166	0.458750	0.039890	0.534840
O1671	O167	0.302410	0.216520	0.324790
O1681	O168	0.250070	0.249400	0.349690
Zn251	Zn25	0.220660	0.220660	0.220660
O1691	O169	0.253720	0.253720	0.253720
Zn261	Zn26	0.720660	0.720660	0.720660
O1701	O170	0.753720	0.753720	0.753720
Zn271	Zn27	0.779340	0.779340	0.220660
O1711	O171	0.746280	0.746280	0.253720
Zn281	Zn28	0.279340	0.279340	0.720660
O1721	O172	0.246280	0.246280	0.753720
Zn291	Zn29	0.779340	0.220660	0.779340
O1731	O173	0.746280	0.253720	0.746280
Zn301	Zn30	0.279340	0.720660	0.279340
O1741	O174	0.246280	0.753720	0.246280
Zn311	Zn31	0.220660	0.779340	0.779340
O1751	O175	0.253720	0.746280	0.746280
Zn321	Zn32	0.720660	0.279340	0.279340
O1761	O176	0.753720	0.246280	0.246280
Cu11	Cu1	0.961190	0.000000	0.500000
Cu21	Cu2	0.461190	0.500000	0.000000
Cu31	Cu3	0.038810	0.000000	0.500000
Cu41	Cu4	0.538810	0.500000	0.000000
Cu51	Cu5	0.500000	0.961190	0.000000
Cu61	Cu6	0.000000	0.461190	0.500000
Cu71	Cu7	0.500000	0.038810	0.000000
Cu81	Cu8	0.000000	0.538810	0.500000
Cu91	Cu9	0.000000	0.500000	0.961190
Cu101	Cu10	0.500000	0.000000	0.461190
Cu111	Cu11	0.000000	0.500000	0.038810
Cu121	Cu12	0.500000	0.000000	0.538810
