data_MAHCIK_clean_PM
_symmetry_space_group_name_H-M	'P1'
_cell_length_a	33.598800
_cell_length_b	33.598800
_cell_length_c	33.598800
_cell_angle_alpha	90.000000
_cell_angle_beta	90.000000
_cell_angle_gamma	90.000000
_symmetry_Int_Tables_number 1

loop_
_symmetry_equiv_pos_as_xyz
'x,y,z'

loop_
_atom_site_label
_atom_site_type_symbol
_atom_site_fract_x
_atom_site_fract_y
_atom_site_fract_z
Zn11	Zn1	0.726770	0.771920	0.196880
C11	C1	0.539800	0.691670	0.185380
C21	C2	0.562300	0.722140	0.168750
H11	H1	0.552500	0.736300	0.147100
C31	C3	0.599410	0.731420	0.184500
H21	H2	0.614500	0.751800	0.173400
C41	C4	0.614020	0.710200	0.216900
C51	C5	0.591530	0.679800	0.233520
H31	H3	0.601300	0.665600	0.255200
C61	C6	0.554410	0.670480	0.217770
H41	H4	0.539400	0.650100	0.228900
C71	C7	0.501200	0.584080	0.081830
C81	C8	0.537100	0.601310	0.093230
H51	H5	0.559800	0.597200	0.078100
C91	C9	0.538830	0.624750	0.127280
H61	H6	0.562800	0.636300	0.134900
C101	C10	0.504770	0.630960	0.149910
C111	C11	0.468930	0.613730	0.138510
C121	C12	0.467100	0.590290	0.104470
H71	H7	0.443200	0.578800	0.096800
C131	C13	0.394700	0.710900	0.218910
C141	C14	0.395780	0.681200	0.190130
H81	H8	0.372200	0.670500	0.180400
C151	C15	0.432120	0.667590	0.175830
C161	C16	0.467390	0.683660	0.190300
C171	C17	0.466320	0.713350	0.219080
H91	H9	0.489900	0.724100	0.228800
C181	C18	0.429970	0.726980	0.233390
H101	H10	0.429200	0.746900	0.252600
O11	O1	0.322500	0.694700	0.214400
C191	C19	0.348100	0.710200	0.230400
O21	O2	0.351700	0.749700	0.251700
C201	C20	0.501300	0.556700	0.050500
O31	O3	0.533200	0.545300	0.039400
O41	O4	0.468700	0.539900	0.042600
O51	O5	0.435000	0.632200	0.148800
C211	C21	0.659100	0.729100	0.225700
O61	O6	0.672700	0.748800	0.199200
O71	O7	0.671200	0.713700	0.256200
N11	N1	0.506200	0.671500	0.172100
Zn21	Zn2	0.226770	0.271920	0.696880
C221	C22	0.039800	0.191670	0.685380
C231	C23	0.062300	0.222140	0.668750
H111	H11	0.052500	0.236300	0.647100
C241	C24	0.099410	0.231420	0.684500
H121	H12	0.114500	0.251800	0.673400
C251	C25	0.114020	0.210200	0.716900
C261	C26	0.091530	0.179800	0.733520
H131	H13	0.101300	0.165600	0.755200
C271	C27	0.054410	0.170480	0.717770
H141	H14	0.039400	0.150100	0.728900
C281	C28	0.001200	0.084080	0.581830
C291	C29	0.037100	0.101310	0.593230
H151	H15	0.059800	0.097200	0.578100
C301	C30	0.038830	0.124750	0.627280
H161	H16	0.062800	0.136300	0.634900
C311	C31	0.004770	0.130960	0.649910
C321	C32	0.968930	0.113730	0.638510
C331	C33	0.967100	0.090290	0.604470
H171	H17	0.943200	0.078800	0.596800
C341	C34	0.894700	0.210900	0.718910
C351	C35	0.895780	0.181200	0.690130
H181	H18	0.872200	0.170500	0.680400
C361	C36	0.932120	0.167590	0.675830
C371	C37	0.967390	0.183660	0.690300
C381	C38	0.966320	0.213350	0.719080
H191	H19	0.989900	0.224100	0.728800
C391	C39	0.929970	0.226980	0.733390
H201	H20	0.929200	0.246900	0.752600
O81	O8	0.822500	0.194700	0.714400
C401	C40	0.848100	0.210200	0.730400
O91	O9	0.851700	0.249700	0.751700
C411	C41	0.001300	0.056700	0.550500
O101	O10	0.033200	0.045300	0.539400
O111	O11	0.968700	0.039900	0.542600
O121	O12	0.935000	0.132200	0.648800
C421	C42	0.159100	0.229100	0.725700
O131	O13	0.172700	0.248800	0.699200
O141	O14	0.171200	0.213700	0.756200
N21	N2	0.006200	0.171500	0.672100
Zn31	Zn3	0.273230	0.228080	0.196880
C431	C43	0.460200	0.308330	0.185380
C441	C44	0.437700	0.277860	0.168750
H211	H21	0.447500	0.263700	0.147100
C451	C45	0.400590	0.268580	0.184500
H221	H22	0.385500	0.248200	0.173400
C461	C46	0.385980	0.289800	0.216900
C471	C47	0.408470	0.320200	0.233520
H231	H23	0.398700	0.334400	0.255200
C481	C48	0.445590	0.329520	0.217770
H241	H24	0.460600	0.349900	0.228900
C491	C49	0.498800	0.415920	0.081830
C501	C50	0.462900	0.398690	0.093230
H251	H25	0.440200	0.402800	0.078100
C511	C51	0.461170	0.375250	0.127280
H261	H26	0.437200	0.363700	0.134900
C521	C52	0.495230	0.369040	0.149910
C531	C53	0.531070	0.386270	0.138510
C541	C54	0.532900	0.409710	0.104470
H271	H27	0.556800	0.421200	0.096800
C551	C55	0.605300	0.289100	0.218910
C561	C56	0.604220	0.318800	0.190130
H281	H28	0.627800	0.329500	0.180400
C571	C57	0.567880	0.332410	0.175830
C581	C58	0.532610	0.316340	0.190300
C591	C59	0.533680	0.286650	0.219080
H291	H29	0.510100	0.275900	0.228800
C601	C60	0.570030	0.273020	0.233390
H301	H30	0.570800	0.253100	0.252600
O151	O15	0.677500	0.305300	0.214400
C611	C61	0.651900	0.289800	0.230400
O161	O16	0.648300	0.250300	0.251700
C621	C62	0.498700	0.443300	0.050500
O171	O17	0.466800	0.454700	0.039400
O181	O18	0.531300	0.460100	0.042600
O191	O19	0.565000	0.367800	0.148800
C631	C63	0.340900	0.270900	0.225700
O201	O20	0.327300	0.251200	0.199200
O211	O21	0.328800	0.286300	0.256200
N31	N3	0.493800	0.328500	0.172100
Zn41	Zn4	0.773230	0.728080	0.696880
C641	C64	0.960200	0.808330	0.685380
C651	C65	0.937700	0.777860	0.668750
H311	H31	0.947500	0.763700	0.647100
C661	C66	0.900590	0.768580	0.684500
H321	H32	0.885500	0.748200	0.673400
C671	C67	0.885980	0.789800	0.716900
C681	C68	0.908470	0.820200	0.733520
H331	H33	0.898700	0.834400	0.755200
C691	C69	0.945590	0.829520	0.717770
H341	H34	0.960600	0.849900	0.728900
C701	C70	0.998800	0.915920	0.581830
C711	C71	0.962900	0.898690	0.593230
H351	H35	0.940200	0.902800	0.578100
C721	C72	0.961170	0.875250	0.627280
H361	H36	0.937200	0.863700	0.634900
C731	C73	0.995230	0.869040	0.649910
C741	C74	0.031070	0.886270	0.638510
C751	C75	0.032900	0.909710	0.604470
H371	H37	0.056800	0.921200	0.596800
C761	C76	0.105300	0.789100	0.718910
C771	C77	0.104220	0.818800	0.690130
H381	H38	0.127800	0.829500	0.680400
C781	C78	0.067880	0.832410	0.675830
C791	C79	0.032610	0.816340	0.690300
C801	C80	0.033680	0.786650	0.719080
H391	H39	0.010100	0.775900	0.728800
C811	C81	0.070030	0.773020	0.733390
H401	H40	0.070800	0.753100	0.752600
O221	O22	0.177500	0.805300	0.714400
C821	C82	0.151900	0.789800	0.730400
O231	O23	0.148300	0.750300	0.751700
C831	C83	0.998700	0.943300	0.550500
O241	O24	0.966800	0.954700	0.539400
O251	O25	0.031300	0.960100	0.542600
O261	O26	0.065000	0.867800	0.648800
C841	C84	0.840900	0.770900	0.725700
O271	O27	0.827300	0.751200	0.699200
O281	O28	0.828800	0.786300	0.756200
N41	N4	0.993800	0.828500	0.672100
Zn51	Zn5	0.273230	0.771920	0.803120
C851	C85	0.460200	0.691670	0.814620
C861	C86	0.437700	0.722140	0.831250
H411	H41	0.447500	0.736300	0.852900
C871	C87	0.400590	0.731420	0.815500
H421	H42	0.385500	0.751800	0.826600
C881	C88	0.385980	0.710200	0.783100
C891	C89	0.408470	0.679800	0.766480
H431	H43	0.398700	0.665600	0.744800
C901	C90	0.445590	0.670480	0.782230
H441	H44	0.460600	0.650100	0.771100
C911	C91	0.498800	0.584080	0.918170
C921	C92	0.462900	0.601310	0.906770
H451	H45	0.440200	0.597200	0.921900
C931	C93	0.461170	0.624750	0.872720
H461	H46	0.437200	0.636300	0.865100
C941	C94	0.495230	0.630960	0.850090
C951	C95	0.531070	0.613730	0.861490
C961	C96	0.532900	0.590290	0.895530
H471	H47	0.556800	0.578800	0.903200
C971	C97	0.605300	0.710900	0.781090
C981	C98	0.604220	0.681200	0.809870
H481	H48	0.627800	0.670500	0.819600
C991	C99	0.567880	0.667590	0.824170
C1001	C100	0.532610	0.683660	0.809700
C1011	C101	0.533680	0.713350	0.780920
H491	H49	0.510100	0.724100	0.771200
C1021	C102	0.570030	0.726980	0.766610
H501	H50	0.570800	0.746900	0.747400
O291	O29	0.677500	0.694700	0.785600
C1031	C103	0.651900	0.710200	0.769600
O301	O30	0.648300	0.749700	0.748300
C1041	C104	0.498700	0.556700	0.949500
O311	O31	0.466800	0.545300	0.960600
O321	O32	0.531300	0.539900	0.957400
O331	O33	0.565000	0.632200	0.851200
C1051	C105	0.340900	0.729100	0.774300
O341	O34	0.327300	0.748800	0.800800
O351	O35	0.328800	0.713700	0.743800
N51	N5	0.493800	0.671500	0.827900
Zn61	Zn6	0.773230	0.271920	0.303120
C1061	C106	0.960200	0.191670	0.314620
C1071	C107	0.937700	0.222140	0.331250
H511	H51	0.947500	0.236300	0.352900
C1081	C108	0.900590	0.231420	0.315500
H521	H52	0.885500	0.251800	0.326600
C1091	C109	0.885980	0.210200	0.283100
C1101	C110	0.908470	0.179800	0.266480
H531	H53	0.898700	0.165600	0.244800
C1111	C111	0.945590	0.170480	0.282230
H541	H54	0.960600	0.150100	0.271100
C1121	C112	0.998800	0.084080	0.418170
C1131	C113	0.962900	0.101310	0.406770
H551	H55	0.940200	0.097200	0.421900
C1141	C114	0.961170	0.124750	0.372720
H561	H56	0.937200	0.136300	0.365100
C1151	C115	0.995230	0.130960	0.350090
C1161	C116	0.031070	0.113730	0.361490
C1171	C117	0.032900	0.090290	0.395530
H571	H57	0.056800	0.078800	0.403200
C1181	C118	0.105300	0.210900	0.281090
C1191	C119	0.104220	0.181200	0.309870
H581	H58	0.127800	0.170500	0.319600
C1201	C120	0.067880	0.167590	0.324170
C1211	C121	0.032610	0.183660	0.309700
C1221	C122	0.033680	0.213350	0.280920
H591	H59	0.010100	0.224100	0.271200
C1231	C123	0.070030	0.226980	0.266610
H601	H60	0.070800	0.246900	0.247400
O361	O36	0.177500	0.194700	0.285600
C1241	C124	0.151900	0.210200	0.269600
O371	O37	0.148300	0.249700	0.248300
C1251	C125	0.998700	0.056700	0.449500
O381	O38	0.966800	0.045300	0.460600
O391	O39	0.031300	0.039900	0.457400
O401	O40	0.065000	0.132200	0.351200
C1261	C126	0.840900	0.229100	0.274300
O411	O41	0.827300	0.248800	0.300800
O421	O42	0.828800	0.213700	0.243800
N61	N6	0.993800	0.171500	0.327900
Zn71	Zn7	0.726770	0.228080	0.803120
C1271	C127	0.539800	0.308330	0.814620
C1281	C128	0.562300	0.277860	0.831250
H611	H61	0.552500	0.263700	0.852900
C1291	C129	0.599410	0.268580	0.815500
H621	H62	0.614500	0.248200	0.826600
C1301	C130	0.614020	0.289800	0.783100
C1311	C131	0.591530	0.320200	0.766480
H631	H63	0.601300	0.334400	0.744800
C1321	C132	0.554410	0.329520	0.782230
H641	H64	0.539400	0.349900	0.771100
C1331	C133	0.501200	0.415920	0.918170
C1341	C134	0.537100	0.398690	0.906770
H651	H65	0.559800	0.402800	0.921900
C1351	C135	0.538830	0.375250	0.872720
H661	H66	0.562800	0.363700	0.865100
C1361	C136	0.504770	0.369040	0.850090
C1371	C137	0.468930	0.386270	0.861490
C1381	C138	0.467100	0.409710	0.895530
H671	H67	0.443200	0.421200	0.903200
C1391	C139	0.394700	0.289100	0.781090
C1401	C140	0.395780	0.318800	0.809870
H681	H68	0.372200	0.329500	0.819600
C1411	C141	0.432120	0.332410	0.824170
C1421	C142	0.467390	0.316340	0.809700
C1431	C143	0.466320	0.286650	0.780920
H691	H69	0.489900	0.275900	0.771200
C1441	C144	0.429970	0.273020	0.766610
H701	H70	0.429200	0.253100	0.747400
O431	O43	0.322500	0.305300	0.785600
C1451	C145	0.348100	0.289800	0.769600
O441	O44	0.351700	0.250300	0.748300
C1461	C146	0.501300	0.443300	0.949500
O451	O45	0.533200	0.454700	0.960600
O461	O46	0.468700	0.460100	0.957400
O471	O47	0.435000	0.367800	0.851200
C1471	C147	0.659100	0.270900	0.774300
O481	O48	0.672700	0.251200	0.800800
O491	O49	0.671200	0.286300	0.743800
N71	N7	0.506200	0.328500	0.827900
Zn81	Zn8	0.226770	0.728080	0.303120
C1481	C148	0.039800	0.808330	0.314620
C1491	C149	0.062300	0.777860	0.331250
H711	H71	0.052500	0.763700	0.352900
C1501	C150	0.099410	0.768580	0.315500
H721	H72	0.114500	0.748200	0.326600
C1511	C151	0.114020	0.789800	0.283100
C1521	C152	0.091530	0.820200	0.266480
H731	H73	0.101300	0.834400	0.244800
C1531	C153	0.054410	0.829520	0.282230
H741	H74	0.039400	0.849900	0.271100
C1541	C154	0.001200	0.915920	0.418170
C1551	C155	0.037100	0.898690	0.406770
H751	H75	0.059800	0.902800	0.421900
C1561	C156	0.038830	0.875250	0.372720
H761	H76	0.062800	0.863700	0.365100
C1571	C157	0.004770	0.869040	0.350090
C1581	C158	0.968930	0.886270	0.361490
C1591	C159	0.967100	0.909710	0.395530
H771	H77	0.943200	0.921200	0.403200
C1601	C160	0.894700	0.789100	0.281090
C1611	C161	0.895780	0.818800	0.309870
H781	H78	0.872200	0.829500	0.319600
C1621	C162	0.932120	0.832410	0.324170
C1631	C163	0.967390	0.816340	0.309700
C1641	C164	0.966320	0.786650	0.280920
H791	H79	0.989900	0.775900	0.271200
C1651	C165	0.929970	0.773020	0.266610
H801	H80	0.929200	0.753100	0.247400
O501	O50	0.822500	0.805300	0.285600
C1661	C166	0.848100	0.789800	0.269600
O511	O51	0.851700	0.750300	0.248300
C1671	C167	0.001300	0.943300	0.449500
O521	O52	0.033200	0.954700	0.460600
O531	O53	0.968700	0.960100	0.457400
O541	O54	0.935000	0.867800	0.351200
C1681	C168	0.159100	0.770900	0.274300
O551	O55	0.172700	0.751200	0.300800
O561	O56	0.171200	0.786300	0.243800
N81	N8	0.006200	0.828500	0.327900
Zn91	Zn9	0.196880	0.726770	0.771920
C1691	C169	0.185380	0.539800	0.691670
C1701	C170	0.168750	0.562300	0.722140
H811	H81	0.147100	0.552500	0.736300
C1711	C171	0.184500	0.599410	0.731420
H821	H82	0.173400	0.614500	0.751800
C1721	C172	0.216900	0.614020	0.710200
C1731	C173	0.233520	0.591530	0.679800
H831	H83	0.255200	0.601300	0.665600
C1741	C174	0.217770	0.554410	0.670480
H841	H84	0.228900	0.539400	0.650100
C1751	C175	0.081830	0.501200	0.584080
C1761	C176	0.093230	0.537100	0.601310
H851	H85	0.078100	0.559800	0.597200
C1771	C177	0.127280	0.538830	0.624750
H861	H86	0.134900	0.562800	0.636300
C1781	C178	0.149910	0.504770	0.630960
C1791	C179	0.138510	0.468930	0.613730
C1801	C180	0.104470	0.467100	0.590290
H871	H87	0.096800	0.443200	0.578800
C1811	C181	0.218910	0.394700	0.710900
C1821	C182	0.190130	0.395780	0.681200
H881	H88	0.180400	0.372200	0.670500
C1831	C183	0.175830	0.432120	0.667590
C1841	C184	0.190300	0.467390	0.683660
C1851	C185	0.219080	0.466320	0.713350
H891	H89	0.228800	0.489900	0.724100
C1861	C186	0.233390	0.429970	0.726980
H901	H90	0.252600	0.429200	0.746900
O571	O57	0.214400	0.322500	0.694700
C1871	C187	0.230400	0.348100	0.710200
O581	O58	0.251700	0.351700	0.749700
C1881	C188	0.050500	0.501300	0.556700
O591	O59	0.039400	0.533200	0.545300
O601	O60	0.042600	0.468700	0.539900
O611	O61	0.148800	0.435000	0.632200
C1891	C189	0.225700	0.659100	0.729100
O621	O62	0.199200	0.672700	0.748800
O631	O63	0.256200	0.671200	0.713700
N91	N9	0.172100	0.506200	0.671500
Zn101	Zn10	0.696880	0.226770	0.271920
C1901	C190	0.685380	0.039800	0.191670
C1911	C191	0.668750	0.062300	0.222140
H911	H91	0.647100	0.052500	0.236300
C1921	C192	0.684500	0.099410	0.231420
H921	H92	0.673400	0.114500	0.251800
C1931	C193	0.716900	0.114020	0.210200
C1941	C194	0.733520	0.091530	0.179800
H931	H93	0.755200	0.101300	0.165600
C1951	C195	0.717770	0.054410	0.170480
H941	H94	0.728900	0.039400	0.150100
C1961	C196	0.581830	0.001200	0.084080
C1971	C197	0.593230	0.037100	0.101310
H951	H95	0.578100	0.059800	0.097200
C1981	C198	0.627280	0.038830	0.124750
H961	H96	0.634900	0.062800	0.136300
C1991	C199	0.649910	0.004770	0.130960
C2001	C200	0.638510	0.968930	0.113730
C2011	C201	0.604470	0.967100	0.090290
H971	H97	0.596800	0.943200	0.078800
C2021	C202	0.718910	0.894700	0.210900
C2031	C203	0.690130	0.895780	0.181200
H981	H98	0.680400	0.872200	0.170500
C2041	C204	0.675830	0.932120	0.167590
C2051	C205	0.690300	0.967390	0.183660
C2061	C206	0.719080	0.966320	0.213350
H991	H99	0.728800	0.989900	0.224100
C2071	C207	0.733390	0.929970	0.226980
H1001	H100	0.752600	0.929200	0.246900
O641	O64	0.714400	0.822500	0.194700
C2081	C208	0.730400	0.848100	0.210200
O651	O65	0.751700	0.851700	0.249700
C2091	C209	0.550500	0.001300	0.056700
O661	O66	0.539400	0.033200	0.045300
O671	O67	0.542600	0.968700	0.039900
O681	O68	0.648800	0.935000	0.132200
C2101	C210	0.725700	0.159100	0.229100
O691	O69	0.699200	0.172700	0.248800
O701	O70	0.756200	0.171200	0.213700
N101	N10	0.672100	0.006200	0.171500
Zn111	Zn11	0.196880	0.273230	0.228080
C2111	C211	0.185380	0.460200	0.308330
C2121	C212	0.168750	0.437700	0.277860
H1011	H101	0.147100	0.447500	0.263700
C2131	C213	0.184500	0.400590	0.268580
H1021	H102	0.173400	0.385500	0.248200
C2141	C214	0.216900	0.385980	0.289800
C2151	C215	0.233520	0.408470	0.320200
H1031	H103	0.255200	0.398700	0.334400
C2161	C216	0.217770	0.445590	0.329520
H1041	H104	0.228900	0.460600	0.349900
C2171	C217	0.081830	0.498800	0.415920
C2181	C218	0.093230	0.462900	0.398690
H1051	H105	0.078100	0.440200	0.402800
C2191	C219	0.127280	0.461170	0.375250
H1061	H106	0.134900	0.437200	0.363700
C2201	C220	0.149910	0.495230	0.369040
C2211	C221	0.138510	0.531070	0.386270
C2221	C222	0.104470	0.532900	0.409710
H1071	H107	0.096800	0.556800	0.421200
C2231	C223	0.218910	0.605300	0.289100
C2241	C224	0.190130	0.604220	0.318800
H1081	H108	0.180400	0.627800	0.329500
C2251	C225	0.175830	0.567880	0.332410
C2261	C226	0.190300	0.532610	0.316340
C2271	C227	0.219080	0.533680	0.286650
H1091	H109	0.228800	0.510100	0.275900
C2281	C228	0.233390	0.570030	0.273020
H1101	H110	0.252600	0.570800	0.253100
O711	O71	0.214400	0.677500	0.305300
C2291	C229	0.230400	0.651900	0.289800
O721	O72	0.251700	0.648300	0.250300
C2301	C230	0.050500	0.498700	0.443300
O731	O73	0.039400	0.466800	0.454700
O741	O74	0.042600	0.531300	0.460100
O751	O75	0.148800	0.565000	0.367800
C2311	C231	0.225700	0.340900	0.270900
O761	O76	0.199200	0.327300	0.251200
O771	O77	0.256200	0.328800	0.286300
N111	N11	0.172100	0.493800	0.328500
Zn121	Zn12	0.696880	0.773230	0.728080
C2321	C232	0.685380	0.960200	0.808330
C2331	C233	0.668750	0.937700	0.777860
H1111	H111	0.647100	0.947500	0.763700
C2341	C234	0.684500	0.900590	0.768580
H1121	H112	0.673400	0.885500	0.748200
C2351	C235	0.716900	0.885980	0.789800
C2361	C236	0.733520	0.908470	0.820200
H1131	H113	0.755200	0.898700	0.834400
C2371	C237	0.717770	0.945590	0.829520
H1141	H114	0.728900	0.960600	0.849900
C2381	C238	0.581830	0.998800	0.915920
C2391	C239	0.593230	0.962900	0.898690
H1151	H115	0.578100	0.940200	0.902800
C2401	C240	0.627280	0.961170	0.875250
H1161	H116	0.634900	0.937200	0.863700
C2411	C241	0.649910	0.995230	0.869040
C2421	C242	0.638510	0.031070	0.886270
C2431	C243	0.604470	0.032900	0.909710
H1171	H117	0.596800	0.056800	0.921200
C2441	C244	0.718910	0.105300	0.789100
C2451	C245	0.690130	0.104220	0.818800
H1181	H118	0.680400	0.127800	0.829500
C2461	C246	0.675830	0.067880	0.832410
C2471	C247	0.690300	0.032610	0.816340
C2481	C248	0.719080	0.033680	0.786650
H1191	H119	0.728800	0.010100	0.775900
C2491	C249	0.733390	0.070030	0.773020
H1201	H120	0.752600	0.070800	0.753100
O781	O78	0.714400	0.177500	0.805300
C2501	C250	0.730400	0.151900	0.789800
O791	O79	0.751700	0.148300	0.750300
C2511	C251	0.550500	0.998700	0.943300
O801	O80	0.539400	0.966800	0.954700
O811	O81	0.542600	0.031300	0.960100
O821	O82	0.648800	0.065000	0.867800
C2521	C252	0.725700	0.840900	0.770900
O831	O83	0.699200	0.827300	0.751200
O841	O84	0.756200	0.828800	0.786300
N121	N12	0.672100	0.993800	0.828500
Zn131	Zn13	0.803120	0.273230	0.771920
C2531	C253	0.814620	0.460200	0.691670
C2541	C254	0.831250	0.437700	0.722140
H1211	H121	0.852900	0.447500	0.736300
C2551	C255	0.815500	0.400590	0.731420
H1221	H122	0.826600	0.385500	0.751800
C2561	C256	0.783100	0.385980	0.710200
C2571	C257	0.766480	0.408470	0.679800
H1231	H123	0.744800	0.398700	0.665600
C2581	C258	0.782230	0.445590	0.670480
H1241	H124	0.771100	0.460600	0.650100
C2591	C259	0.918170	0.498800	0.584080
C2601	C260	0.906770	0.462900	0.601310
H1251	H125	0.921900	0.440200	0.597200
C2611	C261	0.872720	0.461170	0.624750
H1261	H126	0.865100	0.437200	0.636300
C2621	C262	0.850090	0.495230	0.630960
C2631	C263	0.861490	0.531070	0.613730
C2641	C264	0.895530	0.532900	0.590290
H1271	H127	0.903200	0.556800	0.578800
C2651	C265	0.781090	0.605300	0.710900
C2661	C266	0.809870	0.604220	0.681200
H1281	H128	0.819600	0.627800	0.670500
C2671	C267	0.824170	0.567880	0.667590
C2681	C268	0.809700	0.532610	0.683660
C2691	C269	0.780920	0.533680	0.713350
H1291	H129	0.771200	0.510100	0.724100
C2701	C270	0.766610	0.570030	0.726980
H1301	H130	0.747400	0.570800	0.746900
O851	O85	0.785600	0.677500	0.694700
C2711	C271	0.769600	0.651900	0.710200
O861	O86	0.748300	0.648300	0.749700
C2721	C272	0.949500	0.498700	0.556700
O871	O87	0.960600	0.466800	0.545300
O881	O88	0.957400	0.531300	0.539900
O891	O89	0.851200	0.565000	0.632200
C2731	C273	0.774300	0.340900	0.729100
O901	O90	0.800800	0.327300	0.748800
O911	O91	0.743800	0.328800	0.713700
N131	N13	0.827900	0.493800	0.671500
Zn141	Zn14	0.303120	0.773230	0.271920
C2741	C274	0.314620	0.960200	0.191670
C2751	C275	0.331250	0.937700	0.222140
H1311	H131	0.352900	0.947500	0.236300
C2761	C276	0.315500	0.900590	0.231420
H1321	H132	0.326600	0.885500	0.251800
C2771	C277	0.283100	0.885980	0.210200
C2781	C278	0.266480	0.908470	0.179800
H1331	H133	0.244800	0.898700	0.165600
C2791	C279	0.282230	0.945590	0.170480
H1341	H134	0.271100	0.960600	0.150100
C2801	C280	0.418170	0.998800	0.084080
C2811	C281	0.406770	0.962900	0.101310
H1351	H135	0.421900	0.940200	0.097200
C2821	C282	0.372720	0.961170	0.124750
H1361	H136	0.365100	0.937200	0.136300
C2831	C283	0.350090	0.995230	0.130960
C2841	C284	0.361490	0.031070	0.113730
C2851	C285	0.395530	0.032900	0.090290
H1371	H137	0.403200	0.056800	0.078800
C2861	C286	0.281090	0.105300	0.210900
C2871	C287	0.309870	0.104220	0.181200
H1381	H138	0.319600	0.127800	0.170500
C2881	C288	0.324170	0.067880	0.167590
C2891	C289	0.309700	0.032610	0.183660
C2901	C290	0.280920	0.033680	0.213350
H1391	H139	0.271200	0.010100	0.224100
C2911	C291	0.266610	0.070030	0.226980
H1401	H140	0.247400	0.070800	0.246900
O921	O92	0.285600	0.177500	0.194700
C2921	C292	0.269600	0.151900	0.210200
O931	O93	0.248300	0.148300	0.249700
C2931	C293	0.449500	0.998700	0.056700
O941	O94	0.460600	0.966800	0.045300
O951	O95	0.457400	0.031300	0.039900
O961	O96	0.351200	0.065000	0.132200
C2941	C294	0.274300	0.840900	0.229100
O971	O97	0.300800	0.827300	0.248800
O981	O98	0.243800	0.828800	0.213700
N141	N14	0.327900	0.993800	0.171500
Zn151	Zn15	0.803120	0.726770	0.228080
C2951	C295	0.814620	0.539800	0.308330
C2961	C296	0.831250	0.562300	0.277860
H1411	H141	0.852900	0.552500	0.263700
C2971	C297	0.815500	0.599410	0.268580
H1421	H142	0.826600	0.614500	0.248200
C2981	C298	0.783100	0.614020	0.289800
C2991	C299	0.766480	0.591530	0.320200
H1431	H143	0.744800	0.601300	0.334400
C3001	C300	0.782230	0.554410	0.329520
H1441	H144	0.771100	0.539400	0.349900
C3011	C301	0.918170	0.501200	0.415920
C3021	C302	0.906770	0.537100	0.398690
H1451	H145	0.921900	0.559800	0.402800
C3031	C303	0.872720	0.538830	0.375250
H1461	H146	0.865100	0.562800	0.363700
C3041	C304	0.850090	0.504770	0.369040
C3051	C305	0.861490	0.468930	0.386270
C3061	C306	0.895530	0.467100	0.409710
H1471	H147	0.903200	0.443200	0.421200
C3071	C307	0.781090	0.394700	0.289100
C3081	C308	0.809870	0.395780	0.318800
H1481	H148	0.819600	0.372200	0.329500
C3091	C309	0.824170	0.432120	0.332410
C3101	C310	0.809700	0.467390	0.316340
C3111	C311	0.780920	0.466320	0.286650
H1491	H149	0.771200	0.489900	0.275900
C3121	C312	0.766610	0.429970	0.273020
H1501	H150	0.747400	0.429200	0.253100
O991	O99	0.785600	0.322500	0.305300
C3131	C313	0.769600	0.348100	0.289800
O1001	O100	0.748300	0.351700	0.250300
C3141	C314	0.949500	0.501300	0.443300
O1011	O101	0.960600	0.533200	0.454700
O1021	O102	0.957400	0.468700	0.460100
O1031	O103	0.851200	0.435000	0.367800
C3151	C315	0.774300	0.659100	0.270900
O1041	O104	0.800800	0.672700	0.251200
O1051	O105	0.743800	0.671200	0.286300
N151	N15	0.827900	0.506200	0.328500
Zn161	Zn16	0.303120	0.226770	0.728080
C3161	C316	0.314620	0.039800	0.808330
C3171	C317	0.331250	0.062300	0.777860
H1511	H151	0.352900	0.052500	0.763700
C3181	C318	0.315500	0.099410	0.768580
H1521	H152	0.326600	0.114500	0.748200
C3191	C319	0.283100	0.114020	0.789800
C3201	C320	0.266480	0.091530	0.820200
H1531	H153	0.244800	0.101300	0.834400
C3211	C321	0.282230	0.054410	0.829520
H1541	H154	0.271100	0.039400	0.849900
C3221	C322	0.418170	0.001200	0.915920
C3231	C323	0.406770	0.037100	0.898690
H1551	H155	0.421900	0.059800	0.902800
C3241	C324	0.372720	0.038830	0.875250
H1561	H156	0.365100	0.062800	0.863700
C3251	C325	0.350090	0.004770	0.869040
C3261	C326	0.361490	0.968930	0.886270
C3271	C327	0.395530	0.967100	0.909710
H1571	H157	0.403200	0.943200	0.921200
C3281	C328	0.281090	0.894700	0.789100
C3291	C329	0.309870	0.895780	0.818800
H1581	H158	0.319600	0.872200	0.829500
C3301	C330	0.324170	0.932120	0.832410
C3311	C331	0.309700	0.967390	0.816340
C3321	C332	0.280920	0.966320	0.786650
H1591	H159	0.271200	0.989900	0.775900
C3331	C333	0.266610	0.929970	0.773020
H1601	H160	0.247400	0.929200	0.753100
O1061	O106	0.285600	0.822500	0.805300
C3341	C334	0.269600	0.848100	0.789800
O1071	O107	0.248300	0.851700	0.750300
C3351	C335	0.449500	0.001300	0.943300
O1081	O108	0.460600	0.033200	0.954700
O1091	O109	0.457400	0.968700	0.960100
O1101	O110	0.351200	0.935000	0.867800
C3361	C336	0.274300	0.159100	0.770900
O1111	O111	0.300800	0.172700	0.751200
O1121	O112	0.243800	0.171200	0.786300
N161	N16	0.327900	0.006200	0.828500
Zn171	Zn17	0.771920	0.196880	0.726770
C3371	C337	0.691670	0.185380	0.539800
C3381	C338	0.722140	0.168750	0.562300
H1611	H161	0.736300	0.147100	0.552500
C3391	C339	0.731420	0.184500	0.599410
H1621	H162	0.751800	0.173400	0.614500
C3401	C340	0.710200	0.216900	0.614020
C3411	C341	0.679800	0.233520	0.591530
H1631	H163	0.665600	0.255200	0.601300
C3421	C342	0.670480	0.217770	0.554410
H1641	H164	0.650100	0.228900	0.539400
C3431	C343	0.584080	0.081830	0.501200
C3441	C344	0.601310	0.093230	0.537100
H1651	H165	0.597200	0.078100	0.559800
C3451	C345	0.624750	0.127280	0.538830
H1661	H166	0.636300	0.134900	0.562800
C3461	C346	0.630960	0.149910	0.504770
C3471	C347	0.613730	0.138510	0.468930
C3481	C348	0.590290	0.104470	0.467100
H1671	H167	0.578800	0.096800	0.443200
C3491	C349	0.710900	0.218910	0.394700
C3501	C350	0.681200	0.190130	0.395780
H1681	H168	0.670500	0.180400	0.372200
C3511	C351	0.667590	0.175830	0.432120
C3521	C352	0.683660	0.190300	0.467390
C3531	C353	0.713350	0.219080	0.466320
H1691	H169	0.724100	0.228800	0.489900
C3541	C354	0.726980	0.233390	0.429970
H1701	H170	0.746900	0.252600	0.429200
O1131	O113	0.694700	0.214400	0.322500
C3551	C355	0.710200	0.230400	0.348100
O1141	O114	0.749700	0.251700	0.351700
C3561	C356	0.556700	0.050500	0.501300
O1151	O115	0.545300	0.039400	0.533200
O1161	O116	0.539900	0.042600	0.468700
O1171	O117	0.632200	0.148800	0.435000
C3571	C357	0.729100	0.225700	0.659100
O1181	O118	0.748800	0.199200	0.672700
O1191	O119	0.713700	0.256200	0.671200
N171	N17	0.671500	0.172100	0.506200
Zn181	Zn18	0.271920	0.696880	0.226770
C3581	C358	0.191670	0.685380	0.039800
C3591	C359	0.222140	0.668750	0.062300
H1711	H171	0.236300	0.647100	0.052500
C3601	C360	0.231420	0.684500	0.099410
H1721	H172	0.251800	0.673400	0.114500
C3611	C361	0.210200	0.716900	0.114020
C3621	C362	0.179800	0.733520	0.091530
H1731	H173	0.165600	0.755200	0.101300
C3631	C363	0.170480	0.717770	0.054410
H1741	H174	0.150100	0.728900	0.039400
C3641	C364	0.084080	0.581830	0.001200
C3651	C365	0.101310	0.593230	0.037100
H1751	H175	0.097200	0.578100	0.059800
C3661	C366	0.124750	0.627280	0.038830
H1761	H176	0.136300	0.634900	0.062800
C3671	C367	0.130960	0.649910	0.004770
C3681	C368	0.113730	0.638510	0.968930
C3691	C369	0.090290	0.604470	0.967100
H1771	H177	0.078800	0.596800	0.943200
C3701	C370	0.210900	0.718910	0.894700
C3711	C371	0.181200	0.690130	0.895780
H1781	H178	0.170500	0.680400	0.872200
C3721	C372	0.167590	0.675830	0.932120
C3731	C373	0.183660	0.690300	0.967390
C3741	C374	0.213350	0.719080	0.966320
H1791	H179	0.224100	0.728800	0.989900
C3751	C375	0.226980	0.733390	0.929970
H1801	H180	0.246900	0.752600	0.929200
O1201	O120	0.194700	0.714400	0.822500
C3761	C376	0.210200	0.730400	0.848100
O1211	O121	0.249700	0.751700	0.851700
C3771	C377	0.056700	0.550500	0.001300
O1221	O122	0.045300	0.539400	0.033200
O1231	O123	0.039900	0.542600	0.968700
O1241	O124	0.132200	0.648800	0.935000
C3781	C378	0.229100	0.725700	0.159100
O1251	O125	0.248800	0.699200	0.172700
O1261	O126	0.213700	0.756200	0.171200
N181	N18	0.171500	0.672100	0.006200
Zn191	Zn19	0.228080	0.196880	0.273230
C3791	C379	0.308330	0.185380	0.460200
C3801	C380	0.277860	0.168750	0.437700
H1811	H181	0.263700	0.147100	0.447500
C3811	C381	0.268580	0.184500	0.400590
H1821	H182	0.248200	0.173400	0.385500
C3821	C382	0.289800	0.216900	0.385980
C3831	C383	0.320200	0.233520	0.408470
H1831	H183	0.334400	0.255200	0.398700
C3841	C384	0.329520	0.217770	0.445590
H1841	H184	0.349900	0.228900	0.460600
C3851	C385	0.415920	0.081830	0.498800
C3861	C386	0.398690	0.093230	0.462900
H1851	H185	0.402800	0.078100	0.440200
C3871	C387	0.375250	0.127280	0.461170
H1861	H186	0.363700	0.134900	0.437200
C3881	C388	0.369040	0.149910	0.495230
C3891	C389	0.386270	0.138510	0.531070
C3901	C390	0.409710	0.104470	0.532900
H1871	H187	0.421200	0.096800	0.556800
C3911	C391	0.289100	0.218910	0.605300
C3921	C392	0.318800	0.190130	0.604220
H1881	H188	0.329500	0.180400	0.627800
C3931	C393	0.332410	0.175830	0.567880
C3941	C394	0.316340	0.190300	0.532610
C3951	C395	0.286650	0.219080	0.533680
H1891	H189	0.275900	0.228800	0.510100
C3961	C396	0.273020	0.233390	0.570030
H1901	H190	0.253100	0.252600	0.570800
O1271	O127	0.305300	0.214400	0.677500
C3971	C397	0.289800	0.230400	0.651900
O1281	O128	0.250300	0.251700	0.648300
C3981	C398	0.443300	0.050500	0.498700
O1291	O129	0.454700	0.039400	0.466800
O1301	O130	0.460100	0.042600	0.531300
O1311	O131	0.367800	0.148800	0.565000
C3991	C399	0.270900	0.225700	0.340900
O1321	O132	0.251200	0.199200	0.327300
O1331	O133	0.286300	0.256200	0.328800
N191	N19	0.328500	0.172100	0.493800
Zn201	Zn20	0.728080	0.696880	0.773230
C4001	C400	0.808330	0.685380	0.960200
C4011	C401	0.777860	0.668750	0.937700
H1911	H191	0.763700	0.647100	0.947500
C4021	C402	0.768580	0.684500	0.900590
H1921	H192	0.748200	0.673400	0.885500
C4031	C403	0.789800	0.716900	0.885980
C4041	C404	0.820200	0.733520	0.908470
H1931	H193	0.834400	0.755200	0.898700
C4051	C405	0.829520	0.717770	0.945590
H1941	H194	0.849900	0.728900	0.960600
C4061	C406	0.915920	0.581830	0.998800
C4071	C407	0.898690	0.593230	0.962900
H1951	H195	0.902800	0.578100	0.940200
C4081	C408	0.875250	0.627280	0.961170
H1961	H196	0.863700	0.634900	0.937200
C4091	C409	0.869040	0.649910	0.995230
C4101	C410	0.886270	0.638510	0.031070
C4111	C411	0.909710	0.604470	0.032900
H1971	H197	0.921200	0.596800	0.056800
C4121	C412	0.789100	0.718910	0.105300
C4131	C413	0.818800	0.690130	0.104220
H1981	H198	0.829500	0.680400	0.127800
C4141	C414	0.832410	0.675830	0.067880
C4151	C415	0.816340	0.690300	0.032610
C4161	C416	0.786650	0.719080	0.033680
H1991	H199	0.775900	0.728800	0.010100
C4171	C417	0.773020	0.733390	0.070030
H2001	H200	0.753100	0.752600	0.070800
O1341	O134	0.805300	0.714400	0.177500
C4181	C418	0.789800	0.730400	0.151900
O1351	O135	0.750300	0.751700	0.148300
C4191	C419	0.943300	0.550500	0.998700
O1361	O136	0.954700	0.539400	0.966800
O1371	O137	0.960100	0.542600	0.031300
O1381	O138	0.867800	0.648800	0.065000
C4201	C420	0.770900	0.725700	0.840900
O1391	O139	0.751200	0.699200	0.827300
O1401	O140	0.786300	0.756200	0.828800
N201	N20	0.828500	0.672100	0.993800
Zn211	Zn21	0.771920	0.803120	0.273230
C4211	C421	0.691670	0.814620	0.460200
C4221	C422	0.722140	0.831250	0.437700
H2011	H201	0.736300	0.852900	0.447500
C4231	C423	0.731420	0.815500	0.400590
H2021	H202	0.751800	0.826600	0.385500
C4241	C424	0.710200	0.783100	0.385980
C4251	C425	0.679800	0.766480	0.408470
H2031	H203	0.665600	0.744800	0.398700
C4261	C426	0.670480	0.782230	0.445590
H2041	H204	0.650100	0.771100	0.460600
C4271	C427	0.584080	0.918170	0.498800
C4281	C428	0.601310	0.906770	0.462900
H2051	H205	0.597200	0.921900	0.440200
C4291	C429	0.624750	0.872720	0.461170
H2061	H206	0.636300	0.865100	0.437200
C4301	C430	0.630960	0.850090	0.495230
C4311	C431	0.613730	0.861490	0.531070
C4321	C432	0.590290	0.895530	0.532900
H2071	H207	0.578800	0.903200	0.556800
C4331	C433	0.710900	0.781090	0.605300
C4341	C434	0.681200	0.809870	0.604220
H2081	H208	0.670500	0.819600	0.627800
C4351	C435	0.667590	0.824170	0.567880
C4361	C436	0.683660	0.809700	0.532610
C4371	C437	0.713350	0.780920	0.533680
H2091	H209	0.724100	0.771200	0.510100
C4381	C438	0.726980	0.766610	0.570030
H2101	H210	0.746900	0.747400	0.570800
O1411	O141	0.694700	0.785600	0.677500
C4391	C439	0.710200	0.769600	0.651900
O1421	O142	0.749700	0.748300	0.648300
C4401	C440	0.556700	0.949500	0.498700
O1431	O143	0.545300	0.960600	0.466800
O1441	O144	0.539900	0.957400	0.531300
O1451	O145	0.632200	0.851200	0.565000
C4411	C441	0.729100	0.774300	0.340900
O1461	O146	0.748800	0.800800	0.327300
O1471	O147	0.713700	0.743800	0.328800
N211	N21	0.671500	0.827900	0.493800
Zn221	Zn22	0.271920	0.303120	0.773230
C4421	C442	0.191670	0.314620	0.960200
C4431	C443	0.222140	0.331250	0.937700
H2111	H211	0.236300	0.352900	0.947500
C4441	C444	0.231420	0.315500	0.900590
H2121	H212	0.251800	0.326600	0.885500
C4451	C445	0.210200	0.283100	0.885980
C4461	C446	0.179800	0.266480	0.908470
H2131	H213	0.165600	0.244800	0.898700
C4471	C447	0.170480	0.282230	0.945590
H2141	H214	0.150100	0.271100	0.960600
C4481	C448	0.084080	0.418170	0.998800
C4491	C449	0.101310	0.406770	0.962900
H2151	H215	0.097200	0.421900	0.940200
C4501	C450	0.124750	0.372720	0.961170
H2161	H216	0.136300	0.365100	0.937200
C4511	C451	0.130960	0.350090	0.995230
C4521	C452	0.113730	0.361490	0.031070
C4531	C453	0.090290	0.395530	0.032900
H2171	H217	0.078800	0.403200	0.056800
C4541	C454	0.210900	0.281090	0.105300
C4551	C455	0.181200	0.309870	0.104220
H2181	H218	0.170500	0.319600	0.127800
C4561	C456	0.167590	0.324170	0.067880
C4571	C457	0.183660	0.309700	0.032610
C4581	C458	0.213350	0.280920	0.033680
H2191	H219	0.224100	0.271200	0.010100
C4591	C459	0.226980	0.266610	0.070030
H2201	H220	0.246900	0.247400	0.070800
O1481	O148	0.194700	0.285600	0.177500
C4601	C460	0.210200	0.269600	0.151900
O1491	O149	0.249700	0.248300	0.148300
C4611	C461	0.056700	0.449500	0.998700
O1501	O150	0.045300	0.460600	0.966800
O1511	O151	0.039900	0.457400	0.031300
O1521	O152	0.132200	0.351200	0.065000
C4621	C462	0.229100	0.274300	0.840900
O1531	O153	0.248800	0.300800	0.827300
O1541	O154	0.213700	0.243800	0.828800
N221	N22	0.171500	0.327900	0.993800
Zn231	Zn23	0.228080	0.803120	0.726770
C4631	C463	0.308330	0.814620	0.539800
C4641	C464	0.277860	0.831250	0.562300
H2211	H221	0.263700	0.852900	0.552500
C4651	C465	0.268580	0.815500	0.599410
H2221	H222	0.248200	0.826600	0.614500
C4661	C466	0.289800	0.783100	0.614020
C4671	C467	0.320200	0.766480	0.591530
H2231	H223	0.334400	0.744800	0.601300
C4681	C468	0.329520	0.782230	0.554410
H2241	H224	0.349900	0.771100	0.539400
C4691	C469	0.415920	0.918170	0.501200
C4701	C470	0.398690	0.906770	0.537100
H2251	H225	0.402800	0.921900	0.559800
C4711	C471	0.375250	0.872720	0.538830
H2261	H226	0.363700	0.865100	0.562800
C4721	C472	0.369040	0.850090	0.504770
C4731	C473	0.386270	0.861490	0.468930
C4741	C474	0.409710	0.895530	0.467100
H2271	H227	0.421200	0.903200	0.443200
C4751	C475	0.289100	0.781090	0.394700
C4761	C476	0.318800	0.809870	0.395780
H2281	H228	0.329500	0.819600	0.372200
C4771	C477	0.332410	0.824170	0.432120
C4781	C478	0.316340	0.809700	0.467390
C4791	C479	0.286650	0.780920	0.466320
H2291	H229	0.275900	0.771200	0.489900
C4801	C480	0.273020	0.766610	0.429970
H2301	H230	0.253100	0.747400	0.429200
O1551	O155	0.305300	0.785600	0.322500
C4811	C481	0.289800	0.769600	0.348100
O1561	O156	0.250300	0.748300	0.351700
C4821	C482	0.443300	0.949500	0.501300
O1571	O157	0.454700	0.960600	0.533200
O1581	O158	0.460100	0.957400	0.468700
O1591	O159	0.367800	0.851200	0.435000
C4831	C483	0.270900	0.774300	0.659100
O1601	O160	0.251200	0.800800	0.672700
O1611	O161	0.286300	0.743800	0.671200
N231	N23	0.328500	0.827900	0.506200
Zn241	Zn24	0.728080	0.303120	0.226770
C4841	C484	0.808330	0.314620	0.039800
C4851	C485	0.777860	0.331250	0.062300
H2311	H231	0.763700	0.352900	0.052500
C4861	C486	0.768580	0.315500	0.099410
H2321	H232	0.748200	0.326600	0.114500
C4871	C487	0.789800	0.283100	0.114020
C4881	C488	0.820200	0.266480	0.091530
H2331	H233	0.834400	0.244800	0.101300
C4891	C489	0.829520	0.282230	0.054410
H2341	H234	0.849900	0.271100	0.039400
C4901	C490	0.915920	0.418170	0.001200
C4911	C491	0.898690	0.406770	0.037100
H2351	H235	0.902800	0.421900	0.059800
C4921	C492	0.875250	0.372720	0.038830
H2361	H236	0.863700	0.365100	0.062800
C4931	C493	0.869040	0.350090	0.004770
C4941	C494	0.886270	0.361490	0.968930
C4951	C495	0.909710	0.395530	0.967100
H2371	H237	0.921200	0.403200	0.943200
C4961	C496	0.789100	0.281090	0.894700
C4971	C497	0.818800	0.309870	0.895780
H2381	H238	0.829500	0.319600	0.872200
C4981	C498	0.832410	0.324170	0.932120
C4991	C499	0.816340	0.309700	0.967390
C5001	C500	0.786650	0.280920	0.966320
H2391	H239	0.775900	0.271200	0.989900
C5011	C501	0.773020	0.266610	0.929970
H2401	H240	0.753100	0.247400	0.929200
O1621	O162	0.805300	0.285600	0.822500
C5021	C502	0.789800	0.269600	0.848100
O1631	O163	0.750300	0.248300	0.851700
C5031	C503	0.943300	0.449500	0.001300
O1641	O164	0.954700	0.460600	0.033200
O1651	O165	0.960100	0.457400	0.968700
O1661	O166	0.867800	0.351200	0.935000
C5041	C504	0.770900	0.274300	0.159100
O1671	O167	0.751200	0.300800	0.172700
O1681	O168	0.786300	0.243800	0.171200
N241	N24	0.828500	0.327900	0.006200
Zn251	Zn25	0.723410	0.723410	0.276590
O1691	O169	0.755330	0.755330	0.244670
Zn261	Zn26	0.223410	0.223410	0.776590
O1701	O170	0.255330	0.255330	0.744670
Zn271	Zn27	0.276590	0.276590	0.276590
O1711	O171	0.244670	0.244670	0.244670
Zn281	Zn28	0.776590	0.776590	0.776590
O1721	O172	0.744670	0.744670	0.744670
Zn291	Zn29	0.276590	0.723410	0.723410
O1731	O173	0.244670	0.755330	0.755330
Zn301	Zn30	0.776590	0.223410	0.223410
O1741	O174	0.744670	0.255330	0.255330
Zn311	Zn31	0.723410	0.276590	0.723410
O1751	O175	0.755330	0.244670	0.755330
Zn321	Zn32	0.223410	0.776590	0.223410
O1761	O176	0.255330	0.744670	0.255330
Zn331	Zn33	0.543840	0.500000	0.000000
Zn341	Zn34	0.043840	0.000000	0.500000
Zn351	Zn35	0.456160	0.500000	0.000000
Zn361	Zn36	0.956160	0.000000	0.500000
Zn371	Zn37	0.000000	0.543840	0.500000
Zn381	Zn38	0.500000	0.043840	0.000000
Zn391	Zn39	0.000000	0.456160	0.500000
Zn401	Zn40	0.500000	0.956160	0.000000
Zn411	Zn41	0.500000	0.000000	0.543840
Zn421	Zn42	0.000000	0.500000	0.043840
Zn431	Zn43	0.500000	0.000000	0.456160
Zn441	Zn44	0.000000	0.500000	0.956160
