data_MAKGEN_clean_PM
_symmetry_space_group_name_H-M	'P1'
_cell_length_a	11.532400
_cell_length_b	40.866500
_cell_length_c	17.047300
_cell_angle_alpha	90.000000
_cell_angle_beta	90.000000
_cell_angle_gamma	90.000000
_symmetry_Int_Tables_number 1

loop_
_symmetry_equiv_pos_as_xyz
'x,y,z'

loop_
_atom_site_label
_atom_site_type_symbol
_atom_site_fract_x
_atom_site_fract_y
_atom_site_fract_z
Sm11	Sm1	0.269400	0.485430	0.442330
O11	O1	0.705900	0.652600	0.485100
C11	C1	0.439900	0.588700	0.444000
O21	O2	0.536200	0.685400	0.265300
O31	O3	0.787500	0.552200	0.347700
O41	O4	0.599000	0.696000	0.459500
C21	C2	0.207300	0.649800	0.396100
C31	C3	0.534700	0.608800	0.453200
H11	H1	0.609800	0.599900	0.461200
N11	N1	0.112600	0.631500	0.372900
O51	O5	0.679500	0.716900	0.235700
C41	C4	0.517200	0.643200	0.450300
C51	C5	0.721700	0.571700	0.311000
C61	C6	0.028900	0.655370	0.362600
C71	C7	0.410900	0.655500	0.430600
H21	H2	0.400800	0.678500	0.426500
O61	O6	0.556300	0.541500	0.459000
C81	C8	0.876300	0.614900	0.332700
H31	H3	0.928900	0.598100	0.347800
O71	O7	0.365800	0.534600	0.464900
C91	C9	0.331500	0.601000	0.425800
H41	H4	0.267900	0.586400	0.420100
C101	C10	0.457300	0.552500	0.454700
O81	O8	0.633900	0.562400	0.276500
C111	C11	0.838200	0.671800	0.307300
H51	H5	0.864500	0.693800	0.304700
C121	C12	0.314600	0.634400	0.415900
N21	N2	0.068100	0.684800	0.378500
N31	N3	0.180900	0.681300	0.400500
C131	C13	0.611500	0.666800	0.464900
C141	C14	0.642500	0.690300	0.258700
C151	C15	0.727500	0.664000	0.285200
C161	C16	0.763000	0.606600	0.309800
C171	C17	0.689900	0.630700	0.285100
H61	H6	0.613900	0.625300	0.267800
C181	C18	0.911900	0.647000	0.333600
H71	H7	0.719000	0.662300	0.527600
H81	H8	0.035400	0.701500	0.354000
Sm21	Sm2	0.269400	0.985430	0.942330
O91	O9	0.705900	0.152600	0.985100
C191	C19	0.439900	0.088700	0.944000
O101	O10	0.536200	0.185400	0.765300
O111	O11	0.787500	0.052200	0.847700
O121	O12	0.599000	0.196000	0.959500
C201	C20	0.207300	0.149800	0.896100
C211	C21	0.534700	0.108800	0.953200
H91	H9	0.609800	0.099900	0.961200
N41	N4	0.112600	0.131500	0.872900
O131	O13	0.679500	0.216900	0.735700
C221	C22	0.517200	0.143200	0.950300
C231	C23	0.721700	0.071700	0.811000
C241	C24	0.028900	0.155370	0.862600
C251	C25	0.410900	0.155500	0.930600
H101	H10	0.400800	0.178500	0.926500
O141	O14	0.556300	0.041500	0.959000
C261	C26	0.876300	0.114900	0.832700
H111	H11	0.928900	0.098100	0.847800
O151	O15	0.365800	0.034600	0.964900
C271	C27	0.331500	0.101000	0.925800
H121	H12	0.267900	0.086400	0.920100
C281	C28	0.457300	0.052500	0.954700
O161	O16	0.633900	0.062400	0.776500
C291	C29	0.838200	0.171800	0.807300
H131	H13	0.864500	0.193800	0.804700
C301	C30	0.314600	0.134400	0.915900
N51	N5	0.068100	0.184800	0.878500
N61	N6	0.180900	0.181300	0.900500
C311	C31	0.611500	0.166800	0.964900
C321	C32	0.642500	0.190300	0.758700
C331	C33	0.727500	0.164000	0.785200
C341	C34	0.763000	0.106600	0.809800
C351	C35	0.689900	0.130700	0.785100
H141	H14	0.613900	0.125300	0.767800
C361	C36	0.911900	0.147000	0.833600
H151	H15	0.719000	0.162300	0.027600
H161	H16	0.035400	0.201500	0.854000
Sm31	Sm3	0.769400	0.485430	0.942330
O171	O17	0.205900	0.652600	0.985100
C371	C37	0.939900	0.588700	0.944000
O181	O18	0.036200	0.685400	0.765300
O191	O19	0.287500	0.552200	0.847700
O201	O20	0.099000	0.696000	0.959500
C381	C38	0.707300	0.649800	0.896100
C391	C39	0.034700	0.608800	0.953200
H171	H17	0.109800	0.599900	0.961200
N71	N7	0.612600	0.631500	0.872900
O211	O21	0.179500	0.716900	0.735700
C401	C40	0.017200	0.643200	0.950300
C411	C41	0.221700	0.571700	0.811000
C421	C42	0.528900	0.655370	0.862600
C431	C43	0.910900	0.655500	0.930600
H181	H18	0.900800	0.678500	0.926500
O221	O22	0.056300	0.541500	0.959000
C441	C44	0.376300	0.614900	0.832700
H191	H19	0.428900	0.598100	0.847800
O231	O23	0.865800	0.534600	0.964900
C451	C45	0.831500	0.601000	0.925800
H201	H20	0.767900	0.586400	0.920100
C461	C46	0.957300	0.552500	0.954700
O241	O24	0.133900	0.562400	0.776500
C471	C47	0.338200	0.671800	0.807300
H211	H21	0.364500	0.693800	0.804700
C481	C48	0.814600	0.634400	0.915900
N81	N8	0.568100	0.684800	0.878500
N91	N9	0.680900	0.681300	0.900500
C491	C49	0.111500	0.666800	0.964900
C501	C50	0.142500	0.690300	0.758700
C511	C51	0.227500	0.664000	0.785200
C521	C52	0.263000	0.606600	0.809800
C531	C53	0.189900	0.630700	0.785100
H221	H22	0.113900	0.625300	0.767800
C541	C54	0.411900	0.647000	0.833600
H231	H23	0.219000	0.662300	0.027600
H241	H24	0.535400	0.701500	0.854000
Sm41	Sm4	0.769400	0.985430	0.442330
O251	O25	0.205900	0.152600	0.485100
C551	C55	0.939900	0.088700	0.444000
O261	O26	0.036200	0.185400	0.265300
O271	O27	0.287500	0.052200	0.347700
O281	O28	0.099000	0.196000	0.459500
C561	C56	0.707300	0.149800	0.396100
C571	C57	0.034700	0.108800	0.453200
H251	H25	0.109800	0.099900	0.461200
N101	N10	0.612600	0.131500	0.372900
O291	O29	0.179500	0.216900	0.235700
C581	C58	0.017200	0.143200	0.450300
C591	C59	0.221700	0.071700	0.311000
C601	C60	0.528900	0.155370	0.362600
C611	C61	0.910900	0.155500	0.430600
H261	H26	0.900800	0.178500	0.426500
O301	O30	0.056300	0.041500	0.459000
C621	C62	0.376300	0.114900	0.332700
H271	H27	0.428900	0.098100	0.347800
O311	O31	0.865800	0.034600	0.464900
C631	C63	0.831500	0.101000	0.425800
H281	H28	0.767900	0.086400	0.420100
C641	C64	0.957300	0.052500	0.454700
O321	O32	0.133900	0.062400	0.276500
C651	C65	0.338200	0.171800	0.307300
H291	H29	0.364500	0.193800	0.304700
C661	C66	0.814600	0.134400	0.415900
N111	N11	0.568100	0.184800	0.378500
N121	N12	0.680900	0.181300	0.400500
C671	C67	0.111500	0.166800	0.464900
C681	C68	0.142500	0.190300	0.258700
C691	C69	0.227500	0.164000	0.285200
C701	C70	0.263000	0.106600	0.309800
C711	C71	0.189900	0.130700	0.285100
H301	H30	0.113900	0.125300	0.267800
C721	C72	0.411900	0.147000	0.333600
H311	H31	0.219000	0.162300	0.527600
H321	H32	0.535400	0.201500	0.354000
Sm51	Sm5	0.730600	0.514570	0.442330
O331	O33	0.294100	0.347400	0.485100
C731	C73	0.560100	0.411300	0.444000
O341	O34	0.463800	0.314600	0.265300
O351	O35	0.212500	0.447800	0.347700
O361	O36	0.401000	0.304000	0.459500
C741	C74	0.792700	0.350200	0.396100
C751	C75	0.465300	0.391200	0.453200
H331	H33	0.390200	0.400100	0.461200
N131	N13	0.887400	0.368500	0.372900
O371	O37	0.320500	0.283100	0.235700
C761	C76	0.482800	0.356800	0.450300
C771	C77	0.278300	0.428300	0.311000
C781	C78	0.971100	0.344630	0.362600
C791	C79	0.589100	0.344500	0.430600
H341	H34	0.599200	0.321500	0.426500
O381	O38	0.443700	0.458500	0.459000
C801	C80	0.123700	0.385100	0.332700
H351	H35	0.071100	0.401900	0.347800
O391	O39	0.634200	0.465400	0.464900
C811	C81	0.668500	0.399000	0.425800
H361	H36	0.732100	0.413600	0.420100
C821	C82	0.542700	0.447500	0.454700
O401	O40	0.366100	0.437600	0.276500
C831	C83	0.161800	0.328200	0.307300
H371	H37	0.135500	0.306200	0.304700
C841	C84	0.685400	0.365600	0.415900
N141	N14	0.931900	0.315200	0.378500
N151	N15	0.819100	0.318700	0.400500
C851	C85	0.388500	0.333200	0.464900
C861	C86	0.357500	0.309700	0.258700
C871	C87	0.272500	0.336000	0.285200
C881	C88	0.237000	0.393400	0.309800
C891	C89	0.310100	0.369300	0.285100
H381	H38	0.386100	0.374700	0.267800
C901	C90	0.088100	0.353000	0.333600
H391	H39	0.281000	0.337700	0.527600
H401	H40	0.964600	0.298500	0.354000
Sm61	Sm6	0.730600	0.014570	0.942330
O411	O41	0.294100	0.847400	0.985100
C911	C91	0.560100	0.911300	0.944000
O421	O42	0.463800	0.814600	0.765300
O431	O43	0.212500	0.947800	0.847700
O441	O44	0.401000	0.804000	0.959500
C921	C92	0.792700	0.850200	0.896100
C931	C93	0.465300	0.891200	0.953200
H411	H41	0.390200	0.900100	0.961200
N161	N16	0.887400	0.868500	0.872900
O451	O45	0.320500	0.783100	0.735700
C941	C94	0.482800	0.856800	0.950300
C951	C95	0.278300	0.928300	0.811000
C961	C96	0.971100	0.844630	0.862600
C971	C97	0.589100	0.844500	0.930600
H421	H42	0.599200	0.821500	0.926500
O461	O46	0.443700	0.958500	0.959000
C981	C98	0.123700	0.885100	0.832700
H431	H43	0.071100	0.901900	0.847800
O471	O47	0.634200	0.965400	0.964900
C991	C99	0.668500	0.899000	0.925800
H441	H44	0.732100	0.913600	0.920100
C1001	C100	0.542700	0.947500	0.954700
O481	O48	0.366100	0.937600	0.776500
C1011	C101	0.161800	0.828200	0.807300
H451	H45	0.135500	0.806200	0.804700
C1021	C102	0.685400	0.865600	0.915900
N171	N17	0.931900	0.815200	0.878500
N181	N18	0.819100	0.818700	0.900500
C1031	C103	0.388500	0.833200	0.964900
C1041	C104	0.357500	0.809700	0.758700
C1051	C105	0.272500	0.836000	0.785200
C1061	C106	0.237000	0.893400	0.809800
C1071	C107	0.310100	0.869300	0.785100
H461	H46	0.386100	0.874700	0.767800
C1081	C108	0.088100	0.853000	0.833600
H471	H47	0.281000	0.837700	0.027600
H481	H48	0.964600	0.798500	0.854000
Sm71	Sm7	0.230600	0.514570	0.942330
O491	O49	0.794100	0.347400	0.985100
C1091	C109	0.060100	0.411300	0.944000
O501	O50	0.963800	0.314600	0.765300
O511	O51	0.712500	0.447800	0.847700
O521	O52	0.901000	0.304000	0.959500
C1101	C110	0.292700	0.350200	0.896100
C1111	C111	0.965300	0.391200	0.953200
H491	H49	0.890200	0.400100	0.961200
N191	N19	0.387400	0.368500	0.872900
O531	O53	0.820500	0.283100	0.735700
C1121	C112	0.982800	0.356800	0.950300
C1131	C113	0.778300	0.428300	0.811000
C1141	C114	0.471100	0.344630	0.862600
C1151	C115	0.089100	0.344500	0.930600
H501	H50	0.099200	0.321500	0.926500
O541	O54	0.943700	0.458500	0.959000
C1161	C116	0.623700	0.385100	0.832700
H511	H51	0.571100	0.401900	0.847800
O551	O55	0.134200	0.465400	0.964900
C1171	C117	0.168500	0.399000	0.925800
H521	H52	0.232100	0.413600	0.920100
C1181	C118	0.042700	0.447500	0.954700
O561	O56	0.866100	0.437600	0.776500
C1191	C119	0.661800	0.328200	0.807300
H531	H53	0.635500	0.306200	0.804700
C1201	C120	0.185400	0.365600	0.915900
N201	N20	0.431900	0.315200	0.878500
N211	N21	0.319100	0.318700	0.900500
C1211	C121	0.888500	0.333200	0.964900
C1221	C122	0.857500	0.309700	0.758700
C1231	C123	0.772500	0.336000	0.785200
C1241	C124	0.737000	0.393400	0.809800
C1251	C125	0.810100	0.369300	0.785100
H541	H54	0.886100	0.374700	0.767800
C1261	C126	0.588100	0.353000	0.833600
H551	H55	0.781000	0.337700	0.027600
H561	H56	0.464600	0.298500	0.854000
Sm81	Sm8	0.230600	0.014570	0.442330
O571	O57	0.794100	0.847400	0.485100
C1271	C127	0.060100	0.911300	0.444000
O581	O58	0.963800	0.814600	0.265300
O591	O59	0.712500	0.947800	0.347700
O601	O60	0.901000	0.804000	0.459500
C1281	C128	0.292700	0.850200	0.396100
C1291	C129	0.965300	0.891200	0.453200
H571	H57	0.890200	0.900100	0.461200
N221	N22	0.387400	0.868500	0.372900
O611	O61	0.820500	0.783100	0.235700
C1301	C130	0.982800	0.856800	0.450300
C1311	C131	0.778300	0.928300	0.311000
C1321	C132	0.471100	0.844630	0.362600
C1331	C133	0.089100	0.844500	0.430600
H581	H58	0.099200	0.821500	0.426500
O621	O62	0.943700	0.958500	0.459000
C1341	C134	0.623700	0.885100	0.332700
H591	H59	0.571100	0.901900	0.347800
O631	O63	0.134200	0.965400	0.464900
C1351	C135	0.168500	0.899000	0.425800
H601	H60	0.232100	0.913600	0.420100
C1361	C136	0.042700	0.947500	0.454700
O641	O64	0.866100	0.937600	0.276500
C1371	C137	0.661800	0.828200	0.307300
H611	H61	0.635500	0.806200	0.304700
C1381	C138	0.185400	0.865600	0.415900
N231	N23	0.431900	0.815200	0.378500
N241	N24	0.319100	0.818700	0.400500
C1391	C139	0.888500	0.833200	0.464900
C1401	C140	0.857500	0.809700	0.258700
C1411	C141	0.772500	0.836000	0.285200
C1421	C142	0.737000	0.893400	0.309800
C1431	C143	0.810100	0.869300	0.285100
H621	H62	0.886100	0.874700	0.267800
C1441	C144	0.588100	0.853000	0.333600
H631	H63	0.781000	0.837700	0.527600
H641	H64	0.464600	0.798500	0.354000
Sm91	Sm9	0.519400	0.764570	0.692330
O651	O65	0.955900	0.597400	0.735100
C1451	C145	0.689900	0.661300	0.694000
O661	O66	0.786200	0.564600	0.515300
O671	O67	0.037500	0.697800	0.597700
O681	O68	0.849000	0.554000	0.709500
C1461	C146	0.457300	0.600200	0.646100
C1471	C147	0.784700	0.641200	0.703200
H651	H65	0.859800	0.650100	0.711200
N251	N25	0.362600	0.618500	0.622900
O691	O69	0.929500	0.533100	0.485700
C1481	C148	0.767200	0.606800	0.700300
C1491	C149	0.971700	0.678300	0.561000
C1501	C150	0.278900	0.594630	0.612600
C1511	C151	0.660900	0.594500	0.680600
H661	H66	0.650800	0.571500	0.676500
O701	O70	0.806300	0.708500	0.709000
C1521	C152	0.126300	0.635100	0.582700
H671	H67	0.178900	0.651900	0.597800
O711	O71	0.615800	0.715400	0.714900
C1531	C153	0.581500	0.649000	0.675800
H681	H68	0.517900	0.663600	0.670100
C1541	C154	0.707300	0.697500	0.704700
O721	O72	0.883900	0.687600	0.526500
C1551	C155	0.088200	0.578200	0.557300
H691	H69	0.114500	0.556200	0.554700
C1561	C156	0.564600	0.615600	0.665900
N261	N26	0.318100	0.565200	0.628500
N271	N27	0.430900	0.568700	0.650500
C1571	C157	0.861500	0.583200	0.714900
C1581	C158	0.892500	0.559700	0.508700
C1591	C159	0.977500	0.586000	0.535200
C1601	C160	0.013000	0.643400	0.559800
C1611	C161	0.939900	0.619300	0.535100
H701	H70	0.863900	0.624700	0.517800
C1621	C162	0.161900	0.603000	0.583600
H711	H71	0.969000	0.587700	0.777600
H721	H72	0.285400	0.548500	0.604000
Sm101	Sm10	0.519400	0.264570	0.192330
O731	O73	0.955900	0.097400	0.235100
C1631	C163	0.689900	0.161300	0.194000
O741	O74	0.786200	0.064600	0.015300
O751	O75	0.037500	0.197800	0.097700
O761	O76	0.849000	0.054000	0.209500
C1641	C164	0.457300	0.100200	0.146100
C1651	C165	0.784700	0.141200	0.203200
H731	H73	0.859800	0.150100	0.211200
N281	N28	0.362600	0.118500	0.122900
O771	O77	0.929500	0.033100	0.985700
C1661	C166	0.767200	0.106800	0.200300
C1671	C167	0.971700	0.178300	0.061000
C1681	C168	0.278900	0.094630	0.112600
C1691	C169	0.660900	0.094500	0.180600
H741	H74	0.650800	0.071500	0.176500
O781	O78	0.806300	0.208500	0.209000
C1701	C170	0.126300	0.135100	0.082700
H751	H75	0.178900	0.151900	0.097800
O791	O79	0.615800	0.215400	0.214900
C1711	C171	0.581500	0.149000	0.175800
H761	H76	0.517900	0.163600	0.170100
C1721	C172	0.707300	0.197500	0.204700
O801	O80	0.883900	0.187600	0.026500
C1731	C173	0.088200	0.078200	0.057300
H771	H77	0.114500	0.056200	0.054700
C1741	C174	0.564600	0.115600	0.165900
N291	N29	0.318100	0.065200	0.128500
N301	N30	0.430900	0.068700	0.150500
C1751	C175	0.861500	0.083200	0.214900
C1761	C176	0.892500	0.059700	0.008700
C1771	C177	0.977500	0.086000	0.035200
C1781	C178	0.013000	0.143400	0.059800
C1791	C179	0.939900	0.119300	0.035100
H781	H78	0.863900	0.124700	0.017800
C1801	C180	0.161900	0.103000	0.083600
H791	H79	0.969000	0.087700	0.277600
H801	H80	0.285400	0.048500	0.104000
Sm111	Sm11	0.019400	0.764570	0.192330
O811	O81	0.455900	0.597400	0.235100
C1811	C181	0.189900	0.661300	0.194000
O821	O82	0.286200	0.564600	0.015300
O831	O83	0.537500	0.697800	0.097700
O841	O84	0.349000	0.554000	0.209500
C1821	C182	0.957300	0.600200	0.146100
C1831	C183	0.284700	0.641200	0.203200
H811	H81	0.359800	0.650100	0.211200
N311	N31	0.862600	0.618500	0.122900
O851	O85	0.429500	0.533100	0.985700
C1841	C184	0.267200	0.606800	0.200300
C1851	C185	0.471700	0.678300	0.061000
C1861	C186	0.778900	0.594630	0.112600
C1871	C187	0.160900	0.594500	0.180600
H821	H82	0.150800	0.571500	0.176500
O861	O86	0.306300	0.708500	0.209000
C1881	C188	0.626300	0.635100	0.082700
H831	H83	0.678900	0.651900	0.097800
O871	O87	0.115800	0.715400	0.214900
C1891	C189	0.081500	0.649000	0.175800
H841	H84	0.017900	0.663600	0.170100
C1901	C190	0.207300	0.697500	0.204700
O881	O88	0.383900	0.687600	0.026500
C1911	C191	0.588200	0.578200	0.057300
H851	H85	0.614500	0.556200	0.054700
C1921	C192	0.064600	0.615600	0.165900
N321	N32	0.818100	0.565200	0.128500
N331	N33	0.930900	0.568700	0.150500
C1931	C193	0.361500	0.583200	0.214900
C1941	C194	0.392500	0.559700	0.008700
C1951	C195	0.477500	0.586000	0.035200
C1961	C196	0.513000	0.643400	0.059800
C1971	C197	0.439900	0.619300	0.035100
H861	H86	0.363900	0.624700	0.017800
C1981	C198	0.661900	0.603000	0.083600
H871	H87	0.469000	0.587700	0.277600
H881	H88	0.785400	0.548500	0.104000
Sm121	Sm12	0.019400	0.264570	0.692330
O891	O89	0.455900	0.097400	0.735100
C1991	C199	0.189900	0.161300	0.694000
O901	O90	0.286200	0.064600	0.515300
O911	O91	0.537500	0.197800	0.597700
O921	O92	0.349000	0.054000	0.709500
C2001	C200	0.957300	0.100200	0.646100
C2011	C201	0.284700	0.141200	0.703200
H891	H89	0.359800	0.150100	0.711200
N341	N34	0.862600	0.118500	0.622900
O931	O93	0.429500	0.033100	0.485700
C2021	C202	0.267200	0.106800	0.700300
C2031	C203	0.471700	0.178300	0.561000
C2041	C204	0.778900	0.094630	0.612600
C2051	C205	0.160900	0.094500	0.680600
H901	H90	0.150800	0.071500	0.676500
O941	O94	0.306300	0.208500	0.709000
C2061	C206	0.626300	0.135100	0.582700
H911	H91	0.678900	0.151900	0.597800
O951	O95	0.115800	0.215400	0.714900
C2071	C207	0.081500	0.149000	0.675800
H921	H92	0.017900	0.163600	0.670100
C2081	C208	0.207300	0.197500	0.704700
O961	O96	0.383900	0.187600	0.526500
C2091	C209	0.588200	0.078200	0.557300
H931	H93	0.614500	0.056200	0.554700
C2101	C210	0.064600	0.115600	0.665900
N351	N35	0.818100	0.065200	0.628500
N361	N36	0.930900	0.068700	0.650500
C2111	C211	0.361500	0.083200	0.714900
C2121	C212	0.392500	0.059700	0.508700
C2131	C213	0.477500	0.086000	0.535200
C2141	C214	0.513000	0.143400	0.559800
C2151	C215	0.439900	0.119300	0.535100
H941	H94	0.363900	0.124700	0.517800
C2161	C216	0.661900	0.103000	0.583600
H951	H95	0.469000	0.087700	0.777600
H961	H96	0.785400	0.048500	0.604000
Sm131	Sm13	0.980600	0.735430	0.692330
O971	O97	0.544100	0.902600	0.735100
C2171	C217	0.810100	0.838700	0.694000
O981	O98	0.713800	0.935400	0.515300
O991	O99	0.462500	0.802200	0.597700
O1001	O100	0.651000	0.946000	0.709500
C2181	C218	0.042700	0.899800	0.646100
C2191	C219	0.715300	0.858800	0.703200
H971	H97	0.640200	0.849900	0.711200
N371	N37	0.137400	0.881500	0.622900
O1011	O101	0.570500	0.966900	0.485700
C2201	C220	0.732800	0.893200	0.700300
C2211	C221	0.528300	0.821700	0.561000
C2221	C222	0.221100	0.905370	0.612600
C2231	C223	0.839100	0.905500	0.680600
H981	H98	0.849200	0.928500	0.676500
O1021	O102	0.693700	0.791500	0.709000
C2241	C224	0.373700	0.864900	0.582700
H991	H99	0.321100	0.848100	0.597800
O1031	O103	0.884200	0.784600	0.714900
C2251	C225	0.918500	0.851000	0.675800
H1001	H100	0.982100	0.836400	0.670100
C2261	C226	0.792700	0.802500	0.704700
O1041	O104	0.616100	0.812400	0.526500
C2271	C227	0.411800	0.921800	0.557300
H1011	H101	0.385500	0.943800	0.554700
C2281	C228	0.935400	0.884400	0.665900
N381	N38	0.181900	0.934800	0.628500
N391	N39	0.069100	0.931300	0.650500
C2291	C229	0.638500	0.916800	0.714900
C2301	C230	0.607500	0.940300	0.508700
C2311	C231	0.522500	0.914000	0.535200
C2321	C232	0.487000	0.856600	0.559800
C2331	C233	0.560100	0.880700	0.535100
H1021	H102	0.636100	0.875300	0.517800
C2341	C234	0.338100	0.897000	0.583600
H1031	H103	0.531000	0.912300	0.777600
H1041	H104	0.214600	0.951500	0.604000
Sm141	Sm14	0.980600	0.235430	0.192330
O1051	O105	0.544100	0.402600	0.235100
C2351	C235	0.810100	0.338700	0.194000
O1061	O106	0.713800	0.435400	0.015300
O1071	O107	0.462500	0.302200	0.097700
O1081	O108	0.651000	0.446000	0.209500
C2361	C236	0.042700	0.399800	0.146100
C2371	C237	0.715300	0.358800	0.203200
H1051	H105	0.640200	0.349900	0.211200
N401	N40	0.137400	0.381500	0.122900
O1091	O109	0.570500	0.466900	0.985700
C2381	C238	0.732800	0.393200	0.200300
C2391	C239	0.528300	0.321700	0.061000
C2401	C240	0.221100	0.405370	0.112600
C2411	C241	0.839100	0.405500	0.180600
H1061	H106	0.849200	0.428500	0.176500
O1101	O110	0.693700	0.291500	0.209000
C2421	C242	0.373700	0.364900	0.082700
H1071	H107	0.321100	0.348100	0.097800
O1111	O111	0.884200	0.284600	0.214900
C2431	C243	0.918500	0.351000	0.175800
H1081	H108	0.982100	0.336400	0.170100
C2441	C244	0.792700	0.302500	0.204700
O1121	O112	0.616100	0.312400	0.026500
C2451	C245	0.411800	0.421800	0.057300
H1091	H109	0.385500	0.443800	0.054700
C2461	C246	0.935400	0.384400	0.165900
N411	N41	0.181900	0.434800	0.128500
N421	N42	0.069100	0.431300	0.150500
C2471	C247	0.638500	0.416800	0.214900
C2481	C248	0.607500	0.440300	0.008700
C2491	C249	0.522500	0.414000	0.035200
C2501	C250	0.487000	0.356600	0.059800
C2511	C251	0.560100	0.380700	0.035100
H1101	H110	0.636100	0.375300	0.017800
C2521	C252	0.338100	0.397000	0.083600
H1111	H111	0.531000	0.412300	0.277600
H1121	H112	0.214600	0.451500	0.104000
Sm151	Sm15	0.480600	0.735430	0.192330
O1131	O113	0.044100	0.902600	0.235100
C2531	C253	0.310100	0.838700	0.194000
O1141	O114	0.213800	0.935400	0.015300
O1151	O115	0.962500	0.802200	0.097700
O1161	O116	0.151000	0.946000	0.209500
C2541	C254	0.542700	0.899800	0.146100
C2551	C255	0.215300	0.858800	0.203200
H1131	H113	0.140200	0.849900	0.211200
N431	N43	0.637400	0.881500	0.122900
O1171	O117	0.070500	0.966900	0.985700
C2561	C256	0.232800	0.893200	0.200300
C2571	C257	0.028300	0.821700	0.061000
C2581	C258	0.721100	0.905370	0.112600
C2591	C259	0.339100	0.905500	0.180600
H1141	H114	0.349200	0.928500	0.176500
O1181	O118	0.193700	0.791500	0.209000
C2601	C260	0.873700	0.864900	0.082700
H1151	H115	0.821100	0.848100	0.097800
O1191	O119	0.384200	0.784600	0.214900
C2611	C261	0.418500	0.851000	0.175800
H1161	H116	0.482100	0.836400	0.170100
C2621	C262	0.292700	0.802500	0.204700
O1201	O120	0.116100	0.812400	0.026500
C2631	C263	0.911800	0.921800	0.057300
H1171	H117	0.885500	0.943800	0.054700
C2641	C264	0.435400	0.884400	0.165900
N441	N44	0.681900	0.934800	0.128500
N451	N45	0.569100	0.931300	0.150500
C2651	C265	0.138500	0.916800	0.214900
C2661	C266	0.107500	0.940300	0.008700
C2671	C267	0.022500	0.914000	0.035200
C2681	C268	0.987000	0.856600	0.059800
C2691	C269	0.060100	0.880700	0.035100
H1181	H118	0.136100	0.875300	0.017800
C2701	C270	0.838100	0.897000	0.083600
H1191	H119	0.031000	0.912300	0.277600
H1201	H120	0.714600	0.951500	0.104000
Sm161	Sm16	0.480600	0.235430	0.692330
O1211	O121	0.044100	0.402600	0.735100
C2711	C271	0.310100	0.338700	0.694000
O1221	O122	0.213800	0.435400	0.515300
O1231	O123	0.962500	0.302200	0.597700
O1241	O124	0.151000	0.446000	0.709500
C2721	C272	0.542700	0.399800	0.646100
C2731	C273	0.215300	0.358800	0.703200
H1211	H121	0.140200	0.349900	0.711200
N461	N46	0.637400	0.381500	0.622900
O1251	O125	0.070500	0.466900	0.485700
C2741	C274	0.232800	0.393200	0.700300
C2751	C275	0.028300	0.321700	0.561000
C2761	C276	0.721100	0.405370	0.612600
C2771	C277	0.339100	0.405500	0.680600
H1221	H122	0.349200	0.428500	0.676500
O1261	O126	0.193700	0.291500	0.709000
C2781	C278	0.873700	0.364900	0.582700
H1231	H123	0.821100	0.348100	0.597800
O1271	O127	0.384200	0.284600	0.714900
C2791	C279	0.418500	0.351000	0.675800
H1241	H124	0.482100	0.336400	0.670100
C2801	C280	0.292700	0.302500	0.704700
O1281	O128	0.116100	0.312400	0.526500
C2811	C281	0.911800	0.421800	0.557300
H1251	H125	0.885500	0.443800	0.554700
C2821	C282	0.435400	0.384400	0.665900
N471	N47	0.681900	0.434800	0.628500
N481	N48	0.569100	0.431300	0.650500
C2831	C283	0.138500	0.416800	0.714900
C2841	C284	0.107500	0.440300	0.508700
C2851	C285	0.022500	0.414000	0.535200
C2861	C286	0.987000	0.356600	0.559800
C2871	C287	0.060100	0.380700	0.535100
H1261	H126	0.136100	0.375300	0.517800
C2881	C288	0.838100	0.397000	0.583600
H1271	H127	0.031000	0.412300	0.777600
H1281	H128	0.714600	0.451500	0.604000
