data_MAKHAK_clean_PM
_symmetry_space_group_name_H-M	'P1'
_cell_length_a	11.529300
_cell_length_b	40.471000
_cell_length_c	17.130400
_cell_angle_alpha	90.000000
_cell_angle_beta	90.000000
_cell_angle_gamma	90.000000
_symmetry_Int_Tables_number 1

loop_
_symmetry_equiv_pos_as_xyz
'x,y,z'

loop_
_atom_site_label
_atom_site_type_symbol
_atom_site_fract_x
_atom_site_fract_y
_atom_site_fract_z
Dy11	Dy1	0.229660	0.514600	0.748920
O11	O1	0.793600	0.346130	0.786100
H11	H1	0.754300	0.333100	0.813600
C11	C1	0.059500	0.412000	0.747700
O21	O2	0.713700	0.449060	0.650700
O31	O3	0.966000	0.315290	0.565900
C21	C2	0.298600	0.351200	0.697500
C31	C3	0.967200	0.389700	0.759500
H21	H2	0.892500	0.398000	0.772500
O41	O4	0.902200	0.302600	0.759600
C41	C4	0.984000	0.356400	0.752300
N11	N1	0.389900	0.368900	0.673800
O51	O5	0.132900	0.465990	0.767900
C51	C5	0.665300	0.328200	0.610100
H31	H3	0.639000	0.306000	0.608700
C61	C6	0.859500	0.309700	0.561100
O61	O6	0.868100	0.438230	0.578800
O71	O7	0.941400	0.459160	0.761600
C71	C7	0.472500	0.345600	0.662300
C81	C8	0.092100	0.344200	0.729800
H41	H4	0.102500	0.321100	0.722500
N21	N2	0.435400	0.315800	0.677900
C91	C9	0.776400	0.429300	0.612000
C101	C10	0.627700	0.385900	0.635500
H51	H5	0.576900	0.402900	0.652400
C111	C11	0.184900	0.365700	0.717800
C121	C12	0.168300	0.399100	0.725900
H61	H6	0.231100	0.413800	0.716600
C131	C13	0.738700	0.393800	0.610600
C141	C14	0.890200	0.332300	0.767200
C151	C15	0.813700	0.368900	0.587300
H71	H7	0.890400	0.374100	0.571300
N31	N3	0.321400	0.319600	0.701000
H81	H8	0.273400	0.303900	0.715300
C161	C16	0.776500	0.336000	0.587200
C171	C17	0.042900	0.448500	0.759600
O81	O8	0.820700	0.282790	0.536800
C181	C18	0.590800	0.353800	0.635800
Dy21	Dy2	0.229660	0.014600	0.248920
O91	O9	0.793600	0.846130	0.286100
H91	H9	0.754300	0.833100	0.313600
C191	C19	0.059500	0.912000	0.247700
O101	O10	0.713700	0.949060	0.150700
O111	O11	0.966000	0.815290	0.065900
C201	C20	0.298600	0.851200	0.197500
C211	C21	0.967200	0.889700	0.259500
H101	H10	0.892500	0.898000	0.272500
O121	O12	0.902200	0.802600	0.259600
C221	C22	0.984000	0.856400	0.252300
N41	N4	0.389900	0.868900	0.173800
O131	O13	0.132900	0.965990	0.267900
C231	C23	0.665300	0.828200	0.110100
H111	H11	0.639000	0.806000	0.108700
C241	C24	0.859500	0.809700	0.061100
O141	O14	0.868100	0.938230	0.078800
O151	O15	0.941400	0.959160	0.261600
C251	C25	0.472500	0.845600	0.162300
C261	C26	0.092100	0.844200	0.229800
H121	H12	0.102500	0.821100	0.222500
N51	N5	0.435400	0.815800	0.177900
C271	C27	0.776400	0.929300	0.112000
C281	C28	0.627700	0.885900	0.135500
H131	H13	0.576900	0.902900	0.152400
C291	C29	0.184900	0.865700	0.217800
C301	C30	0.168300	0.899100	0.225900
H141	H14	0.231100	0.913800	0.216600
C311	C31	0.738700	0.893800	0.110600
C321	C32	0.890200	0.832300	0.267200
C331	C33	0.813700	0.868900	0.087300
H151	H15	0.890400	0.874100	0.071300
N61	N6	0.321400	0.819600	0.201000
H161	H16	0.273400	0.803900	0.215300
C341	C34	0.776500	0.836000	0.087200
C351	C35	0.042900	0.948500	0.259600
O161	O16	0.820700	0.782790	0.036800
C361	C36	0.590800	0.853800	0.135800
Dy31	Dy3	0.729660	0.514600	0.248920
O171	O17	0.293600	0.346130	0.286100
H171	H17	0.254300	0.333100	0.313600
C371	C37	0.559500	0.412000	0.247700
O181	O18	0.213700	0.449060	0.150700
O191	O19	0.466000	0.315290	0.065900
C381	C38	0.798600	0.351200	0.197500
C391	C39	0.467200	0.389700	0.259500
H181	H18	0.392500	0.398000	0.272500
O201	O20	0.402200	0.302600	0.259600
C401	C40	0.484000	0.356400	0.252300
N71	N7	0.889900	0.368900	0.173800
O211	O21	0.632900	0.465990	0.267900
C411	C41	0.165300	0.328200	0.110100
H191	H19	0.139000	0.306000	0.108700
C421	C42	0.359500	0.309700	0.061100
O221	O22	0.368100	0.438230	0.078800
O231	O23	0.441400	0.459160	0.261600
C431	C43	0.972500	0.345600	0.162300
C441	C44	0.592100	0.344200	0.229800
H201	H20	0.602500	0.321100	0.222500
N81	N8	0.935400	0.315800	0.177900
C451	C45	0.276400	0.429300	0.112000
C461	C46	0.127700	0.385900	0.135500
H211	H21	0.076900	0.402900	0.152400
C471	C47	0.684900	0.365700	0.217800
C481	C48	0.668300	0.399100	0.225900
H221	H22	0.731100	0.413800	0.216600
C491	C49	0.238700	0.393800	0.110600
C501	C50	0.390200	0.332300	0.267200
C511	C51	0.313700	0.368900	0.087300
H231	H23	0.390400	0.374100	0.071300
N91	N9	0.821400	0.319600	0.201000
H241	H24	0.773400	0.303900	0.215300
C521	C52	0.276500	0.336000	0.087200
C531	C53	0.542900	0.448500	0.259600
O241	O24	0.320700	0.282790	0.036800
C541	C54	0.090800	0.353800	0.135800
Dy41	Dy4	0.729660	0.014600	0.748920
O251	O25	0.293600	0.846130	0.786100
H251	H25	0.254300	0.833100	0.813600
C551	C55	0.559500	0.912000	0.747700
O261	O26	0.213700	0.949060	0.650700
O271	O27	0.466000	0.815290	0.565900
C561	C56	0.798600	0.851200	0.697500
C571	C57	0.467200	0.889700	0.759500
H261	H26	0.392500	0.898000	0.772500
O281	O28	0.402200	0.802600	0.759600
C581	C58	0.484000	0.856400	0.752300
N101	N10	0.889900	0.868900	0.673800
O291	O29	0.632900	0.965990	0.767900
C591	C59	0.165300	0.828200	0.610100
H271	H27	0.139000	0.806000	0.608700
C601	C60	0.359500	0.809700	0.561100
O301	O30	0.368100	0.938230	0.578800
O311	O31	0.441400	0.959160	0.761600
C611	C61	0.972500	0.845600	0.662300
C621	C62	0.592100	0.844200	0.729800
H281	H28	0.602500	0.821100	0.722500
N111	N11	0.935400	0.815800	0.677900
C631	C63	0.276400	0.929300	0.612000
C641	C64	0.127700	0.885900	0.635500
H291	H29	0.076900	0.902900	0.652400
C651	C65	0.684900	0.865700	0.717800
C661	C66	0.668300	0.899100	0.725900
H301	H30	0.731100	0.913800	0.716600
C671	C67	0.238700	0.893800	0.610600
C681	C68	0.390200	0.832300	0.767200
C691	C69	0.313700	0.868900	0.587300
H311	H31	0.390400	0.874100	0.571300
N121	N12	0.821400	0.819600	0.701000
H321	H32	0.773400	0.803900	0.715300
C701	C70	0.276500	0.836000	0.587200
C711	C71	0.542900	0.948500	0.759600
O321	O32	0.320700	0.782790	0.536800
C721	C72	0.090800	0.853800	0.635800
Dy51	Dy5	0.770340	0.485400	0.748920
O331	O33	0.206400	0.653870	0.786100
H331	H33	0.245700	0.666900	0.813600
C731	C73	0.940500	0.588000	0.747700
O341	O34	0.286300	0.550940	0.650700
O351	O35	0.034000	0.684710	0.565900
C741	C74	0.701400	0.648800	0.697500
C751	C75	0.032800	0.610300	0.759500
H341	H34	0.107500	0.602000	0.772500
O361	O36	0.097800	0.697400	0.759600
C761	C76	0.016000	0.643600	0.752300
N131	N13	0.610100	0.631100	0.673800
O371	O37	0.867100	0.534010	0.767900
C771	C77	0.334700	0.671800	0.610100
H351	H35	0.361000	0.694000	0.608700
C781	C78	0.140500	0.690300	0.561100
O381	O38	0.131900	0.561770	0.578800
O391	O39	0.058600	0.540840	0.761600
C791	C79	0.527500	0.654400	0.662300
C801	C80	0.907900	0.655800	0.729800
H361	H36	0.897500	0.678900	0.722500
N141	N14	0.564600	0.684200	0.677900
C811	C81	0.223600	0.570700	0.612000
C821	C82	0.372300	0.614100	0.635500
H371	H37	0.423100	0.597100	0.652400
C831	C83	0.815100	0.634300	0.717800
C841	C84	0.831700	0.600900	0.725900
H381	H38	0.768900	0.586200	0.716600
C851	C85	0.261300	0.606200	0.610600
C861	C86	0.109800	0.667700	0.767200
C871	C87	0.186300	0.631100	0.587300
H391	H39	0.109600	0.625900	0.571300
N151	N15	0.678600	0.680400	0.701000
H401	H40	0.726600	0.696100	0.715300
C881	C88	0.223500	0.664000	0.587200
C891	C89	0.957100	0.551500	0.759600
O401	O40	0.179300	0.717210	0.536800
C901	C90	0.409200	0.646200	0.635800
Dy61	Dy6	0.770340	0.985400	0.248920
O411	O41	0.206400	0.153870	0.286100
H411	H41	0.245700	0.166900	0.313600
C911	C91	0.940500	0.088000	0.247700
O421	O42	0.286300	0.050940	0.150700
O431	O43	0.034000	0.184710	0.065900
C921	C92	0.701400	0.148800	0.197500
C931	C93	0.032800	0.110300	0.259500
H421	H42	0.107500	0.102000	0.272500
O441	O44	0.097800	0.197400	0.259600
C941	C94	0.016000	0.143600	0.252300
N161	N16	0.610100	0.131100	0.173800
O451	O45	0.867100	0.034010	0.267900
C951	C95	0.334700	0.171800	0.110100
H431	H43	0.361000	0.194000	0.108700
C961	C96	0.140500	0.190300	0.061100
O461	O46	0.131900	0.061770	0.078800
O471	O47	0.058600	0.040840	0.261600
C971	C97	0.527500	0.154400	0.162300
C981	C98	0.907900	0.155800	0.229800
H441	H44	0.897500	0.178900	0.222500
N171	N17	0.564600	0.184200	0.177900
C991	C99	0.223600	0.070700	0.112000
C1001	C100	0.372300	0.114100	0.135500
H451	H45	0.423100	0.097100	0.152400
C1011	C101	0.815100	0.134300	0.217800
C1021	C102	0.831700	0.100900	0.225900
H461	H46	0.768900	0.086200	0.216600
C1031	C103	0.261300	0.106200	0.110600
C1041	C104	0.109800	0.167700	0.267200
C1051	C105	0.186300	0.131100	0.087300
H471	H47	0.109600	0.125900	0.071300
N181	N18	0.678600	0.180400	0.201000
H481	H48	0.726600	0.196100	0.215300
C1061	C106	0.223500	0.164000	0.087200
C1071	C107	0.957100	0.051500	0.259600
O481	O48	0.179300	0.217210	0.036800
C1081	C108	0.409200	0.146200	0.135800
Dy71	Dy7	0.270340	0.485400	0.248920
O491	O49	0.706400	0.653870	0.286100
H491	H49	0.745700	0.666900	0.313600
C1091	C109	0.440500	0.588000	0.247700
O501	O50	0.786300	0.550940	0.150700
O511	O51	0.534000	0.684710	0.065900
C1101	C110	0.201400	0.648800	0.197500
C1111	C111	0.532800	0.610300	0.259500
H501	H50	0.607500	0.602000	0.272500
O521	O52	0.597800	0.697400	0.259600
C1121	C112	0.516000	0.643600	0.252300
N191	N19	0.110100	0.631100	0.173800
O531	O53	0.367100	0.534010	0.267900
C1131	C113	0.834700	0.671800	0.110100
H511	H51	0.861000	0.694000	0.108700
C1141	C114	0.640500	0.690300	0.061100
O541	O54	0.631900	0.561770	0.078800
O551	O55	0.558600	0.540840	0.261600
C1151	C115	0.027500	0.654400	0.162300
C1161	C116	0.407900	0.655800	0.229800
H521	H52	0.397500	0.678900	0.222500
N201	N20	0.064600	0.684200	0.177900
C1171	C117	0.723600	0.570700	0.112000
C1181	C118	0.872300	0.614100	0.135500
H531	H53	0.923100	0.597100	0.152400
C1191	C119	0.315100	0.634300	0.217800
C1201	C120	0.331700	0.600900	0.225900
H541	H54	0.268900	0.586200	0.216600
C1211	C121	0.761300	0.606200	0.110600
C1221	C122	0.609800	0.667700	0.267200
C1231	C123	0.686300	0.631100	0.087300
H551	H55	0.609600	0.625900	0.071300
N211	N21	0.178600	0.680400	0.201000
H561	H56	0.226600	0.696100	0.215300
C1241	C124	0.723500	0.664000	0.087200
C1251	C125	0.457100	0.551500	0.259600
O561	O56	0.679300	0.717210	0.036800
C1261	C126	0.909200	0.646200	0.135800
Dy81	Dy8	0.270340	0.985400	0.748920
O571	O57	0.706400	0.153870	0.786100
H571	H57	0.745700	0.166900	0.813600
C1271	C127	0.440500	0.088000	0.747700
O581	O58	0.786300	0.050940	0.650700
O591	O59	0.534000	0.184710	0.565900
C1281	C128	0.201400	0.148800	0.697500
C1291	C129	0.532800	0.110300	0.759500
H581	H58	0.607500	0.102000	0.772500
O601	O60	0.597800	0.197400	0.759600
C1301	C130	0.516000	0.143600	0.752300
N221	N22	0.110100	0.131100	0.673800
O611	O61	0.367100	0.034010	0.767900
C1311	C131	0.834700	0.171800	0.610100
H591	H59	0.861000	0.194000	0.608700
C1321	C132	0.640500	0.190300	0.561100
O621	O62	0.631900	0.061770	0.578800
O631	O63	0.558600	0.040840	0.761600
C1331	C133	0.027500	0.154400	0.662300
C1341	C134	0.407900	0.155800	0.729800
H601	H60	0.397500	0.178900	0.722500
N231	N23	0.064600	0.184200	0.677900
C1351	C135	0.723600	0.070700	0.612000
C1361	C136	0.872300	0.114100	0.635500
H611	H61	0.923100	0.097100	0.652400
C1371	C137	0.315100	0.134300	0.717800
C1381	C138	0.331700	0.100900	0.725900
H621	H62	0.268900	0.086200	0.716600
C1391	C139	0.761300	0.106200	0.610600
C1401	C140	0.609800	0.167700	0.767200
C1411	C141	0.686300	0.131100	0.587300
H631	H63	0.609600	0.125900	0.571300
N241	N24	0.178600	0.180400	0.701000
H641	H64	0.226600	0.196100	0.715300
C1421	C142	0.723500	0.164000	0.587200
C1431	C143	0.457100	0.051500	0.759600
O641	O64	0.679300	0.217210	0.536800
C1441	C144	0.909200	0.146200	0.635800
Dy91	Dy9	0.479660	0.735400	0.998920
O651	O65	0.043600	0.903870	0.036100
H651	H65	0.004300	0.916900	0.063600
C1451	C145	0.309500	0.838000	0.997700
O661	O66	0.963700	0.800940	0.900700
O671	O67	0.216000	0.934710	0.815900
C1461	C146	0.548600	0.898800	0.947500
C1471	C147	0.217200	0.860300	0.009500
H661	H66	0.142500	0.852000	0.022500
O681	O68	0.152200	0.947400	0.009600
C1481	C148	0.234000	0.893600	0.002300
N251	N25	0.639900	0.881100	0.923800
O691	O69	0.382900	0.784010	0.017900
C1491	C149	0.915300	0.921800	0.860100
H671	H67	0.889000	0.944000	0.858700
C1501	C150	0.109500	0.940300	0.811100
O701	O70	0.118100	0.811770	0.828800
O711	O71	0.191400	0.790840	0.011600
C1511	C151	0.722500	0.904400	0.912300
C1521	C152	0.342100	0.905800	0.979800
H681	H68	0.352500	0.928900	0.972500
N261	N26	0.685400	0.934200	0.927900
C1531	C153	0.026400	0.820700	0.862000
C1541	C154	0.877700	0.864100	0.885500
H691	H69	0.826900	0.847100	0.902400
C1551	C155	0.434900	0.884300	0.967800
C1561	C156	0.418300	0.850900	0.975900
H701	H70	0.481100	0.836200	0.966600
C1571	C157	0.988700	0.856200	0.860600
C1581	C158	0.140200	0.917700	0.017200
C1591	C159	0.063700	0.881100	0.837300
H711	H71	0.140400	0.875900	0.821300
N271	N27	0.571400	0.930400	0.951000
H721	H72	0.523400	0.946100	0.965300
C1601	C160	0.026500	0.914000	0.837200
C1611	C161	0.292900	0.801500	0.009600
O721	O72	0.070700	0.967210	0.786800
C1621	C162	0.840800	0.896200	0.885800
Dy101	Dy10	0.479660	0.235400	0.498920
O731	O73	0.043600	0.403870	0.536100
H731	H73	0.004300	0.416900	0.563600
C1631	C163	0.309500	0.338000	0.497700
O741	O74	0.963700	0.300940	0.400700
O751	O75	0.216000	0.434710	0.315900
C1641	C164	0.548600	0.398800	0.447500
C1651	C165	0.217200	0.360300	0.509500
H741	H74	0.142500	0.352000	0.522500
O761	O76	0.152200	0.447400	0.509600
C1661	C166	0.234000	0.393600	0.502300
N281	N28	0.639900	0.381100	0.423800
O771	O77	0.382900	0.284010	0.517900
C1671	C167	0.915300	0.421800	0.360100
H751	H75	0.889000	0.444000	0.358700
C1681	C168	0.109500	0.440300	0.311100
O781	O78	0.118100	0.311770	0.328800
O791	O79	0.191400	0.290840	0.511600
C1691	C169	0.722500	0.404400	0.412300
C1701	C170	0.342100	0.405800	0.479800
H761	H76	0.352500	0.428900	0.472500
N291	N29	0.685400	0.434200	0.427900
C1711	C171	0.026400	0.320700	0.362000
C1721	C172	0.877700	0.364100	0.385500
H771	H77	0.826900	0.347100	0.402400
C1731	C173	0.434900	0.384300	0.467800
C1741	C174	0.418300	0.350900	0.475900
H781	H78	0.481100	0.336200	0.466600
C1751	C175	0.988700	0.356200	0.360600
C1761	C176	0.140200	0.417700	0.517200
C1771	C177	0.063700	0.381100	0.337300
H791	H79	0.140400	0.375900	0.321300
N301	N30	0.571400	0.430400	0.451000
H801	H80	0.523400	0.446100	0.465300
C1781	C178	0.026500	0.414000	0.337200
C1791	C179	0.292900	0.301500	0.509600
O801	O80	0.070700	0.467210	0.286800
C1801	C180	0.840800	0.396200	0.385800
Dy111	Dy11	0.979660	0.735400	0.498920
O811	O81	0.543600	0.903870	0.536100
H811	H81	0.504300	0.916900	0.563600
C1811	C181	0.809500	0.838000	0.497700
O821	O82	0.463700	0.800940	0.400700
O831	O83	0.716000	0.934710	0.315900
C1821	C182	0.048600	0.898800	0.447500
C1831	C183	0.717200	0.860300	0.509500
H821	H82	0.642500	0.852000	0.522500
O841	O84	0.652200	0.947400	0.509600
C1841	C184	0.734000	0.893600	0.502300
N311	N31	0.139900	0.881100	0.423800
O851	O85	0.882900	0.784010	0.517900
C1851	C185	0.415300	0.921800	0.360100
H831	H83	0.389000	0.944000	0.358700
C1861	C186	0.609500	0.940300	0.311100
O861	O86	0.618100	0.811770	0.328800
O871	O87	0.691400	0.790840	0.511600
C1871	C187	0.222500	0.904400	0.412300
C1881	C188	0.842100	0.905800	0.479800
H841	H84	0.852500	0.928900	0.472500
N321	N32	0.185400	0.934200	0.427900
C1891	C189	0.526400	0.820700	0.362000
C1901	C190	0.377700	0.864100	0.385500
H851	H85	0.326900	0.847100	0.402400
C1911	C191	0.934900	0.884300	0.467800
C1921	C192	0.918300	0.850900	0.475900
H861	H86	0.981100	0.836200	0.466600
C1931	C193	0.488700	0.856200	0.360600
C1941	C194	0.640200	0.917700	0.517200
C1951	C195	0.563700	0.881100	0.337300
H871	H87	0.640400	0.875900	0.321300
N331	N33	0.071400	0.930400	0.451000
H881	H88	0.023400	0.946100	0.465300
C1961	C196	0.526500	0.914000	0.337200
C1971	C197	0.792900	0.801500	0.509600
O881	O88	0.570700	0.967210	0.286800
C1981	C198	0.340800	0.896200	0.385800
Dy121	Dy12	0.979660	0.235400	0.998920
O891	O89	0.543600	0.403870	0.036100
H891	H89	0.504300	0.416900	0.063600
C1991	C199	0.809500	0.338000	0.997700
O901	O90	0.463700	0.300940	0.900700
O911	O91	0.716000	0.434710	0.815900
C2001	C200	0.048600	0.398800	0.947500
C2011	C201	0.717200	0.360300	0.009500
H901	H90	0.642500	0.352000	0.022500
O921	O92	0.652200	0.447400	0.009600
C2021	C202	0.734000	0.393600	0.002300
N341	N34	0.139900	0.381100	0.923800
O931	O93	0.882900	0.284010	0.017900
C2031	C203	0.415300	0.421800	0.860100
H911	H91	0.389000	0.444000	0.858700
C2041	C204	0.609500	0.440300	0.811100
O941	O94	0.618100	0.311770	0.828800
O951	O95	0.691400	0.290840	0.011600
C2051	C205	0.222500	0.404400	0.912300
C2061	C206	0.842100	0.405800	0.979800
H921	H92	0.852500	0.428900	0.972500
N351	N35	0.185400	0.434200	0.927900
C2071	C207	0.526400	0.320700	0.862000
C2081	C208	0.377700	0.364100	0.885500
H931	H93	0.326900	0.347100	0.902400
C2091	C209	0.934900	0.384300	0.967800
C2101	C210	0.918300	0.350900	0.975900
H941	H94	0.981100	0.336200	0.966600
C2111	C211	0.488700	0.356200	0.860600
C2121	C212	0.640200	0.417700	0.017200
C2131	C213	0.563700	0.381100	0.837300
H951	H95	0.640400	0.375900	0.821300
N361	N36	0.071400	0.430400	0.951000
H961	H96	0.023400	0.446100	0.965300
C2141	C214	0.526500	0.414000	0.837200
C2151	C215	0.792900	0.301500	0.009600
O961	O96	0.570700	0.467210	0.786800
C2161	C216	0.340800	0.396200	0.885800
Dy131	Dy13	0.020340	0.764600	0.998920
O971	O97	0.456400	0.596130	0.036100
H971	H97	0.495700	0.583100	0.063600
C2171	C217	0.190500	0.662000	0.997700
O981	O98	0.536300	0.699060	0.900700
O991	O99	0.284000	0.565290	0.815900
C2181	C218	0.951400	0.601200	0.947500
C2191	C219	0.282800	0.639700	0.009500
H981	H98	0.357500	0.648000	0.022500
O1001	O100	0.347800	0.552600	0.009600
C2201	C220	0.266000	0.606400	0.002300
N371	N37	0.860100	0.618900	0.923800
O1011	O101	0.117100	0.715990	0.017900
C2211	C221	0.584700	0.578200	0.860100
H991	H99	0.611000	0.556000	0.858700
C2221	C222	0.390500	0.559700	0.811100
O1021	O102	0.381900	0.688230	0.828800
O1031	O103	0.308600	0.709160	0.011600
C2231	C223	0.777500	0.595600	0.912300
C2241	C224	0.157900	0.594200	0.979800
H1001	H100	0.147500	0.571100	0.972500
N381	N38	0.814600	0.565800	0.927900
C2251	C225	0.473600	0.679300	0.862000
C2261	C226	0.622300	0.635900	0.885500
H1011	H101	0.673100	0.652900	0.902400
C2271	C227	0.065100	0.615700	0.967800
C2281	C228	0.081700	0.649100	0.975900
H1021	H102	0.018900	0.663800	0.966600
C2291	C229	0.511300	0.643800	0.860600
C2301	C230	0.359800	0.582300	0.017200
C2311	C231	0.436300	0.618900	0.837300
H1031	H103	0.359600	0.624100	0.821300
N391	N39	0.928600	0.569600	0.951000
H1041	H104	0.976600	0.553900	0.965300
C2321	C232	0.473500	0.586000	0.837200
C2331	C233	0.207100	0.698500	0.009600
O1041	O104	0.429300	0.532790	0.786800
C2341	C234	0.659200	0.603800	0.885800
Dy141	Dy14	0.020340	0.264600	0.498920
O1051	O105	0.456400	0.096130	0.536100
H1051	H105	0.495700	0.083100	0.563600
C2351	C235	0.190500	0.162000	0.497700
O1061	O106	0.536300	0.199060	0.400700
O1071	O107	0.284000	0.065290	0.315900
C2361	C236	0.951400	0.101200	0.447500
C2371	C237	0.282800	0.139700	0.509500
H1061	H106	0.357500	0.148000	0.522500
O1081	O108	0.347800	0.052600	0.509600
C2381	C238	0.266000	0.106400	0.502300
N401	N40	0.860100	0.118900	0.423800
O1091	O109	0.117100	0.215990	0.517900
C2391	C239	0.584700	0.078200	0.360100
H1071	H107	0.611000	0.056000	0.358700
C2401	C240	0.390500	0.059700	0.311100
O1101	O110	0.381900	0.188230	0.328800
O1111	O111	0.308600	0.209160	0.511600
C2411	C241	0.777500	0.095600	0.412300
C2421	C242	0.157900	0.094200	0.479800
H1081	H108	0.147500	0.071100	0.472500
N411	N41	0.814600	0.065800	0.427900
C2431	C243	0.473600	0.179300	0.362000
C2441	C244	0.622300	0.135900	0.385500
H1091	H109	0.673100	0.152900	0.402400
C2451	C245	0.065100	0.115700	0.467800
C2461	C246	0.081700	0.149100	0.475900
H1101	H110	0.018900	0.163800	0.466600
C2471	C247	0.511300	0.143800	0.360600
C2481	C248	0.359800	0.082300	0.517200
C2491	C249	0.436300	0.118900	0.337300
H1111	H111	0.359600	0.124100	0.321300
N421	N42	0.928600	0.069600	0.451000
H1121	H112	0.976600	0.053900	0.465300
C2501	C250	0.473500	0.086000	0.337200
C2511	C251	0.207100	0.198500	0.509600
O1121	O112	0.429300	0.032790	0.286800
C2521	C252	0.659200	0.103800	0.385800
Dy151	Dy15	0.520340	0.764600	0.498920
O1131	O113	0.956400	0.596130	0.536100
H1131	H113	0.995700	0.583100	0.563600
C2531	C253	0.690500	0.662000	0.497700
O1141	O114	0.036300	0.699060	0.400700
O1151	O115	0.784000	0.565290	0.315900
C2541	C254	0.451400	0.601200	0.447500
C2551	C255	0.782800	0.639700	0.509500
H1141	H114	0.857500	0.648000	0.522500
O1161	O116	0.847800	0.552600	0.509600
C2561	C256	0.766000	0.606400	0.502300
N431	N43	0.360100	0.618900	0.423800
O1171	O117	0.617100	0.715990	0.517900
C2571	C257	0.084700	0.578200	0.360100
H1151	H115	0.111000	0.556000	0.358700
C2581	C258	0.890500	0.559700	0.311100
O1181	O118	0.881900	0.688230	0.328800
O1191	O119	0.808600	0.709160	0.511600
C2591	C259	0.277500	0.595600	0.412300
C2601	C260	0.657900	0.594200	0.479800
H1161	H116	0.647500	0.571100	0.472500
N441	N44	0.314600	0.565800	0.427900
C2611	C261	0.973600	0.679300	0.362000
C2621	C262	0.122300	0.635900	0.385500
H1171	H117	0.173100	0.652900	0.402400
C2631	C263	0.565100	0.615700	0.467800
C2641	C264	0.581700	0.649100	0.475900
H1181	H118	0.518900	0.663800	0.466600
C2651	C265	0.011300	0.643800	0.360600
C2661	C266	0.859800	0.582300	0.517200
C2671	C267	0.936300	0.618900	0.337300
H1191	H119	0.859600	0.624100	0.321300
N451	N45	0.428600	0.569600	0.451000
H1201	H120	0.476600	0.553900	0.465300
C2681	C268	0.973500	0.586000	0.337200
C2691	C269	0.707100	0.698500	0.509600
O1201	O120	0.929300	0.532790	0.286800
C2701	C270	0.159200	0.603800	0.385800
Dy161	Dy16	0.520340	0.264600	0.998920
O1211	O121	0.956400	0.096130	0.036100
H1211	H121	0.995700	0.083100	0.063600
C2711	C271	0.690500	0.162000	0.997700
O1221	O122	0.036300	0.199060	0.900700
O1231	O123	0.784000	0.065290	0.815900
C2721	C272	0.451400	0.101200	0.947500
C2731	C273	0.782800	0.139700	0.009500
H1221	H122	0.857500	0.148000	0.022500
O1241	O124	0.847800	0.052600	0.009600
C2741	C274	0.766000	0.106400	0.002300
N461	N46	0.360100	0.118900	0.923800
O1251	O125	0.617100	0.215990	0.017900
C2751	C275	0.084700	0.078200	0.860100
H1231	H123	0.111000	0.056000	0.858700
C2761	C276	0.890500	0.059700	0.811100
O1261	O126	0.881900	0.188230	0.828800
O1271	O127	0.808600	0.209160	0.011600
C2771	C277	0.277500	0.095600	0.912300
C2781	C278	0.657900	0.094200	0.979800
H1241	H124	0.647500	0.071100	0.972500
N471	N47	0.314600	0.065800	0.927900
C2791	C279	0.973600	0.179300	0.862000
C2801	C280	0.122300	0.135900	0.885500
H1251	H125	0.173100	0.152900	0.902400
C2811	C281	0.565100	0.115700	0.967800
C2821	C282	0.581700	0.149100	0.975900
H1261	H126	0.518900	0.163800	0.966600
C2831	C283	0.011300	0.143800	0.860600
C2841	C284	0.859800	0.082300	0.017200
C2851	C285	0.936300	0.118900	0.837300
H1271	H127	0.859600	0.124100	0.821300
N481	N48	0.428600	0.069600	0.951000
H1281	H128	0.476600	0.053900	0.965300
C2861	C286	0.973500	0.086000	0.837200
C2871	C287	0.707100	0.198500	0.009600
O1281	O128	0.929300	0.032790	0.786800
C2881	C288	0.159200	0.103800	0.885800
