data_MAKRAU_clean_PM
_symmetry_space_group_name_H-M	'P1'
_cell_length_a	12.636800
_cell_length_b	14.482700
_cell_length_c	18.082000
_cell_angle_alpha	83.373000
_cell_angle_beta	69.732000
_cell_angle_gamma	85.888000
_symmetry_Int_Tables_number 1

loop_
_symmetry_equiv_pos_as_xyz
'x,y,z'

loop_
_atom_site_label
_atom_site_type_symbol
_atom_site_fract_x
_atom_site_fract_y
_atom_site_fract_z
Ni11	Ni1	0.207340	0.023310	0.484000
C11	C1	0.227510	0.228280	0.481680
C21	C2	0.217770	0.313630	0.435530
H11	H1	0.240700	0.371600	0.440300
C31	C3	0.169140	0.294140	0.383980
H21	H2	0.152200	0.336000	0.346300
C41	C4	0.148300	0.196640	0.398100
N11	N1	0.188410	0.155730	0.456650
C51	C5	0.089940	0.152060	0.361680
C61	C6	0.072120	0.058120	0.376700
C71	C7	0.002250	0.011170	0.347560
H31	H3	0.956100	0.038700	0.320200
C81	C8	0.014730	0.920170	0.366570
H41	H4	0.978300	0.872600	0.355700
C91	C9	0.095330	0.910010	0.407130
N21	N2	0.125770	0.995650	0.417070
C101	C10	0.143410	0.825280	0.425290
C111	C11	0.214980	0.819150	0.469240
C121	C12	0.270540	0.734690	0.487830
H51	H5	0.271400	0.677700	0.468600
C131	C13	0.321140	0.753290	0.538320
H61	H6	0.362200	0.711200	0.561700
C141	C14	0.300190	0.849870	0.549520
N31	N3	0.237490	0.890910	0.504220
C151	C15	0.334590	0.893910	0.600720
C161	C16	0.317680	0.987950	0.606620
C171	C17	0.339830	0.034130	0.664720
H71	H7	0.364100	0.006100	0.705200
C181	C18	0.319300	0.125520	0.650530
H81	H8	0.325700	0.172600	0.679500
C191	C19	0.285300	0.136170	0.581370
N41	N4	0.278650	0.051430	0.557490
C201	C20	0.267340	0.221790	0.544020
C211	C21	0.045340	0.207860	0.303270
C221	C22	0.961640	0.275210	0.326270
H91	H9	0.931600	0.286400	0.379300
C231	C23	0.921380	0.326540	0.271930
H101	H10	0.864700	0.372000	0.288500
C241	C24	0.964360	0.310890	0.194210
C251	C25	0.049840	0.245160	0.169000
H111	H11	0.081000	0.235800	0.115600
C261	C26	0.089020	0.193130	0.224040
H121	H12	0.145600	0.147600	0.207400
C271	C27	0.954800	0.356200	0.065290
H131	H13	0.969800	0.291300	0.055300
H141	H14	0.024000	0.389500	0.039700
C281	C28	0.862800	0.397900	0.033830
O11	O1	0.914870	0.364510	0.146750
O21	O2	0.769490	0.409240	0.075630
O31	O3	0.898850	0.417010	0.959120
H151	H15	0.846600	0.438300	0.944600
C291	C29	0.126580	0.741040	0.390580
C301	C30	0.154630	0.743130	0.309800
H161	H16	0.176000	0.799100	0.278800
C311	C31	0.152250	0.665050	0.272820
H171	H17	0.171300	0.668900	0.218100
C321	C32	0.121420	0.581850	0.318030
C331	C33	0.087270	0.579520	0.400150
H181	H18	0.062800	0.524300	0.431400
C341	C34	0.089340	0.657450	0.435160
H191	H19	0.065300	0.654600	0.490100
C351	C35	0.139170	0.502590	0.206840
H201	H20	0.091300	0.552300	0.193400
H211	H21	0.114800	0.444600	0.197000
C361	C36	0.259510	0.517330	0.151700
O41	O4	0.121460	0.499690	0.288420
O51	O5	0.338590	0.510240	0.177520
O61	O6	0.270410	0.534150	0.080020
C371	C37	0.386990	0.837960	0.654640
C381	C38	0.323460	0.777050	0.714170
H221	H22	0.249900	0.767100	0.717700
C391	C39	0.365960	0.729890	0.769290
H231	H23	0.321300	0.688600	0.809300
C401	C40	0.473900	0.744020	0.764880
C411	C41	0.541820	0.801440	0.703300
H241	H24	0.616600	0.808600	0.698400
C421	C42	0.497640	0.848520	0.648660
H251	H25	0.543200	0.887800	0.607300
C431	C43	0.604670	0.724360	0.833750
H261	H26	0.604200	0.791700	0.829800
H271	H27	0.671700	0.702900	0.793000
C441	C44	0.605230	0.684500	0.914280
O71	O7	0.507770	0.695110	0.823460
O81	O8	0.692970	0.711790	0.926460
H281	H28	0.692300	0.690600	0.970700
O91	O9	0.538310	0.633610	0.960140
C451	C45	0.299270	0.308410	0.568330
C461	C46	0.225140	0.383050	0.587850
H291	H29	0.152000	0.379700	0.587700
C471	C47	0.257540	0.462510	0.607510
H301	H30	0.206400	0.512600	0.620300
C481	C48	0.367190	0.468730	0.608370
C491	C49	0.441130	0.394490	0.590380
H311	H31	0.513700	0.397100	0.591900
C501	C50	0.407390	0.315360	0.569870
H321	H32	0.458600	0.265400	0.556700
C511	C51	0.502200	0.564360	0.625490
H331	H33	0.514800	0.630400	0.620200
H341	H34	0.555200	0.538400	0.579100
C521	C52	0.524950	0.519210	0.698330
O101	O10	0.390450	0.551530	0.628220
O111	O11	0.632760	0.525300	0.687730
H351	H35	0.645000	0.503200	0.728000
O121	O12	0.456270	0.486770	0.756710
K11	K1	0.428600	0.502260	0.917740
Ni21	Ni2	0.792660	0.976690	0.516000
C531	C53	0.772490	0.771720	0.518320
C541	C54	0.782230	0.686370	0.564470
H361	H36	0.759300	0.628400	0.559700
C551	C55	0.830860	0.705860	0.616020
H371	H37	0.847800	0.664000	0.653700
C561	C56	0.851700	0.803360	0.601900
N51	N5	0.811590	0.844270	0.543350
C571	C57	0.910060	0.847940	0.638320
C581	C58	0.927880	0.941880	0.623300
C591	C59	0.997750	0.988830	0.652440
H381	H38	0.043900	0.961300	0.679800
C601	C60	0.985270	0.079830	0.633430
H391	H39	0.021700	0.127400	0.644300
C611	C61	0.904670	0.089990	0.592870
N61	N6	0.874230	0.004350	0.582930
C621	C62	0.856590	0.174720	0.574710
C631	C63	0.785020	0.180850	0.530760
C641	C64	0.729460	0.265310	0.512170
H401	H40	0.728600	0.322300	0.531400
C651	C65	0.678860	0.246710	0.461680
H411	H41	0.637800	0.288800	0.438300
C661	C66	0.699810	0.150130	0.450480
N71	N7	0.762510	0.109090	0.495780
C671	C67	0.665410	0.106090	0.399280
C681	C68	0.682320	0.012050	0.393380
C691	C69	0.660170	0.965870	0.335280
H421	H42	0.635900	0.993900	0.294800
C701	C70	0.680700	0.874480	0.349470
H431	H43	0.674300	0.827400	0.320500
C711	C71	0.714700	0.863830	0.418630
N81	N8	0.721350	0.948570	0.442510
C721	C72	0.732660	0.778210	0.455980
C731	C73	0.954660	0.792140	0.696730
C741	C74	0.038360	0.724790	0.673730
H441	H44	0.068400	0.713600	0.620700
C751	C75	0.078620	0.673460	0.728070
H451	H45	0.135300	0.628000	0.711500
C761	C76	0.035640	0.689110	0.805790
C771	C77	0.950160	0.754840	0.831000
H461	H46	0.919000	0.764200	0.884400
C781	C78	0.910980	0.806870	0.775960
H471	H47	0.854400	0.852400	0.792600
C791	C79	0.045200	0.643800	0.934710
H481	H48	0.030200	0.708700	0.944700
H491	H49	0.976000	0.610500	0.960300
C801	C80	0.137200	0.602100	0.966170
O131	O13	0.085130	0.635490	0.853250
O141	O14	0.230510	0.590760	0.924370
O151	O15	0.101150	0.582990	0.040880
H501	H50	0.153400	0.561700	0.055400
C811	C81	0.873420	0.258960	0.609420
C821	C82	0.845370	0.256870	0.690200
H511	H51	0.824000	0.200900	0.721200
C831	C83	0.847750	0.334950	0.727180
H521	H52	0.828700	0.331100	0.781900
C841	C84	0.878580	0.418150	0.681970
C851	C85	0.912730	0.420480	0.599850
H531	H53	0.937200	0.475700	0.568600
C861	C86	0.910660	0.342550	0.564840
H541	H54	0.934700	0.345400	0.509900
C871	C87	0.860830	0.497410	0.793160
H551	H55	0.908700	0.447700	0.806600
H561	H56	0.885200	0.555400	0.803000
C881	C88	0.740490	0.482670	0.848300
O161	O16	0.878540	0.500310	0.711580
O171	O17	0.661410	0.489760	0.822480
O181	O18	0.729590	0.465850	0.919980
C891	C89	0.613010	0.162040	0.345360
C901	C90	0.676540	0.222950	0.285830
H571	H57	0.750100	0.232900	0.282300
C911	C91	0.634040	0.270110	0.230710
H581	H58	0.678700	0.311400	0.190700
C921	C92	0.526100	0.255980	0.235120
C931	C93	0.458180	0.198560	0.296700
H591	H59	0.383400	0.191400	0.301600
C941	C94	0.502360	0.151480	0.351340
H601	H60	0.456800	0.112200	0.392700
C951	C95	0.395330	0.275640	0.166250
H611	H61	0.395800	0.208300	0.170200
H621	H62	0.328300	0.297100	0.207000
C961	C96	0.394770	0.315500	0.085720
O191	O19	0.492230	0.304890	0.176540
O201	O20	0.307030	0.288210	0.073540
H631	H63	0.307700	0.309400	0.029300
O211	O21	0.461690	0.366390	0.039860
C971	C97	0.700730	0.691590	0.431670
C981	C98	0.774860	0.616950	0.412150
H641	H64	0.848000	0.620300	0.412300
C991	C99	0.742460	0.537490	0.392490
H651	H65	0.793600	0.487400	0.379700
C1001	C100	0.632810	0.531270	0.391630
C1011	C101	0.558870	0.605510	0.409620
H661	H66	0.486300	0.602900	0.408100
C1021	C102	0.592610	0.684640	0.430130
H671	H67	0.541400	0.734600	0.443300
C1031	C103	0.497800	0.435640	0.374510
H681	H68	0.485200	0.369600	0.379800
H691	H69	0.444800	0.461600	0.420900
C1041	C104	0.475050	0.480790	0.301670
O221	O22	0.609550	0.448470	0.371780
O231	O23	0.367240	0.474700	0.312270
H701	H70	0.355000	0.496800	0.272000
O241	O24	0.543730	0.513230	0.243290
K21	K2	0.571400	0.497740	0.082260
