data_MALYIJ_charged_PM
_symmetry_space_group_name_H-M	'P1'
_cell_length_a	14.868000
_cell_length_b	22.523000
_cell_length_c	25.174000
_cell_angle_alpha	90.000000
_cell_angle_beta	90.000000
_cell_angle_gamma	98.458000
_symmetry_Int_Tables_number 1

loop_
_symmetry_equiv_pos_as_xyz
'x,y,z'

loop_
_atom_site_label
_atom_site_type_symbol
_atom_site_fract_x
_atom_site_fract_y
_atom_site_fract_z
Ce11	Ce1	0.372100	0.458960	0.521510
Ce21	Ce2	0.627900	0.041040	0.021510
Ce31	Ce3	0.627900	0.541040	0.478490
Ce41	Ce4	0.372100	0.958960	0.978490
H11	H1	0.535900	0.676500	0.462100
H21	H2	0.263400	0.639600	0.447600
H31	H3	0.365300	0.872800	0.438200
H41	H4	0.373300	0.946400	0.365600
H51	H5	0.422700	0.791300	0.306700
H61	H6	0.570100	0.971300	0.189100
H71	H7	0.309600	0.913900	0.155000
H81	H8	0.554400	0.823900	0.405800
H91	H9	0.636000	0.757600	0.482400
H101	H10	0.592400	0.815600	0.493800
H111	H11	0.682200	0.819800	0.460500
H121	H12	0.656300	0.730800	0.387600
H131	H13	0.669800	0.794600	0.361200
H141	H14	0.586800	0.746800	0.345000
H151	H15	0.237800	0.777400	0.382800
H161	H16	0.247800	0.689400	0.325700
H171	H17	0.156600	0.716500	0.323300
H181	H18	0.162100	0.658400	0.356700
H191	H19	0.126700	0.692600	0.441700
H201	H20	0.108800	0.756900	0.425100
H211	H21	0.181100	0.749400	0.469000
H221	H22	0.560500	0.920100	0.323300
H231	H23	0.672400	0.908200	0.236200
H241	H24	0.632300	0.857600	0.276000
H251	H25	0.708400	0.909000	0.294700
H261	H26	0.661400	0.004800	0.329400
H271	H27	0.572400	0.024000	0.305800
H281	H28	0.655100	0.018200	0.268500
H291	H29	0.249700	0.852700	0.283200
H301	H30	0.161700	0.789200	0.226600
H311	H31	0.264100	0.782900	0.217300
H321	H32	0.213500	0.819800	0.177200
H331	H33	0.183100	0.934400	0.268200
H341	H34	0.116400	0.881300	0.243300
H351	H35	0.181300	0.924400	0.206500
H361	H36	0.918900	0.123800	0.935000
H371	H37	0.757500	0.249100	0.948300
H381	H38	0.095000	0.351500	0.942600
H391	H39	0.017900	0.294600	0.797900
H401	H40	0.190000	0.411100	0.877500
H411	H41	0.149100	0.469400	0.673300
H421	H42	0.316800	0.347200	0.693000
H431	H43	0.919700	0.370300	0.896900
H441	H44	0.803400	0.408900	0.945700
H451	H45	0.867500	0.376500	0.981600
H461	H46	0.770600	0.343600	0.966400
H471	H47	0.814900	0.317800	0.831300
H481	H48	0.810700	0.386100	0.841400
H491	H49	0.738400	0.337100	0.867600
H501	H50	0.111300	0.219200	0.880100
H511	H51	0.060100	0.119300	0.947100
H521	H52	0.134700	0.174500	0.958900
H531	H53	0.153100	0.126500	0.916700
H541	H54	0.018200	0.107500	0.849200
H551	H55	0.111400	0.138600	0.826300
H561	H56	0.021800	0.165100	0.813900
H571	H57	0.236200	0.299900	0.822600
H581	H58	0.395500	0.339000	0.765400
H591	H59	0.394800	0.282100	0.801400
H601	H60	0.380200	0.343600	0.826800
H611	H61	0.182000	0.230500	0.753300
H621	H62	0.265200	0.209700	0.782400
H631	H63	0.278500	0.241200	0.726900
H641	H64	0.033500	0.440100	0.797900
H651	H65	0.033500	0.537000	0.791100
H661	H66	0.070300	0.539800	0.732600
H671	H67	0.135400	0.530600	0.780000
H681	H68	0.915500	0.453200	0.745600
H691	H69	0.954100	0.396300	0.724800
H701	H70	0.976200	0.457500	0.694500
H711	H71	0.464100	0.823500	0.962100
H721	H72	0.736600	0.860400	0.947600
H731	H73	0.634700	0.627200	0.938200
H741	H74	0.626700	0.553600	0.865600
H751	H75	0.577300	0.708700	0.806700
H761	H76	0.429900	0.528700	0.689100
H771	H77	0.690400	0.586100	0.655000
H781	H78	0.445600	0.676100	0.905800
H791	H79	0.364000	0.742400	0.982400
H801	H80	0.407600	0.684400	0.993800
H811	H81	0.317800	0.680200	0.960500
H821	H82	0.343700	0.769200	0.887600
H831	H83	0.330200	0.705400	0.861200
H841	H84	0.413200	0.753200	0.845000
H851	H85	0.762200	0.722600	0.882800
H861	H86	0.752200	0.810600	0.825700
H871	H87	0.843400	0.783500	0.823300
H881	H88	0.837900	0.841600	0.856700
H891	H89	0.873300	0.807400	0.941700
H901	H90	0.891200	0.743100	0.925100
H911	H91	0.818900	0.750600	0.969000
H921	H92	0.439500	0.579900	0.823300
H931	H93	0.327600	0.591800	0.736200
H941	H94	0.367700	0.642400	0.776000
H951	H95	0.291600	0.591000	0.794700
H961	H96	0.338600	0.495200	0.829400
H971	H97	0.427600	0.476000	0.805800
H981	H98	0.344900	0.481800	0.768500
H991	H99	0.750300	0.647300	0.783200
H1001	H100	0.838300	0.710800	0.726600
H1011	H101	0.735900	0.717100	0.717300
H1021	H102	0.786500	0.680200	0.677200
H1031	H103	0.816900	0.565600	0.768200
H1041	H104	0.883600	0.618700	0.743300
H1051	H105	0.818700	0.575600	0.706500
H1061	H106	0.081100	0.376200	0.435000
H1071	H107	0.242500	0.250900	0.448300
H1081	H108	0.905000	0.148500	0.442600
H1091	H109	0.982100	0.205400	0.297900
H1101	H110	0.810000	0.088900	0.377500
H1111	H111	0.850900	0.030600	0.173300
H1121	H112	0.683200	0.152800	0.193000
H1131	H113	0.080300	0.129700	0.396900
H1141	H114	0.196600	0.091100	0.445700
H1151	H115	0.132500	0.123500	0.481600
H1161	H116	0.229400	0.156400	0.466400
H1171	H117	0.185100	0.182200	0.331300
H1181	H118	0.189300	0.113900	0.341400
H1191	H119	0.261600	0.162900	0.367600
H1201	H120	0.888700	0.280800	0.380100
H1211	H121	0.939900	0.380700	0.447100
H1221	H122	0.865300	0.325500	0.458900
H1231	H123	0.846900	0.373500	0.416700
H1241	H124	0.981800	0.392500	0.349200
H1251	H125	0.888600	0.361400	0.326300
H1261	H126	0.978200	0.334900	0.313900
H1271	H127	0.763800	0.200100	0.322600
H1281	H128	0.604500	0.161000	0.265400
H1291	H129	0.605200	0.217900	0.301400
H1301	H130	0.619800	0.156400	0.326800
H1311	H131	0.818000	0.269500	0.253300
H1321	H132	0.734800	0.290300	0.282400
H1331	H133	0.721500	0.258800	0.226900
H1341	H134	0.966500	0.059900	0.297900
H1351	H135	0.966500	0.963000	0.291100
H1361	H136	0.929700	0.960200	0.232600
H1371	H137	0.864600	0.969400	0.280000
H1381	H138	0.084500	0.046800	0.245600
H1391	H139	0.045900	0.103700	0.224800
H1401	H140	0.023800	0.042500	0.194500
H1411	H141	0.464100	0.323500	0.537900
H1421	H142	0.736600	0.360400	0.552400
H1431	H143	0.634700	0.127200	0.561800
H1441	H144	0.626700	0.053600	0.634400
H1451	H145	0.577300	0.208700	0.693300
H1461	H146	0.429900	0.028700	0.810900
H1471	H147	0.690400	0.086100	0.845000
H1481	H148	0.445600	0.176100	0.594200
H1491	H149	0.364000	0.242400	0.517600
H1501	H150	0.407600	0.184400	0.506200
H1511	H151	0.317800	0.180200	0.539500
H1521	H152	0.343700	0.269200	0.612400
H1531	H153	0.330200	0.205400	0.638800
H1541	H154	0.413200	0.253200	0.655000
H1551	H155	0.762200	0.222600	0.617200
H1561	H156	0.752200	0.310600	0.674300
H1571	H157	0.843400	0.283500	0.676700
H1581	H158	0.837900	0.341600	0.643300
H1591	H159	0.873300	0.307400	0.558300
H1601	H160	0.891200	0.243100	0.574900
H1611	H161	0.818900	0.250600	0.531000
H1621	H162	0.439500	0.079900	0.676700
H1631	H163	0.327600	0.091800	0.763800
H1641	H164	0.367700	0.142400	0.724000
H1651	H165	0.291600	0.091000	0.705300
H1661	H166	0.338600	0.995200	0.670600
H1671	H167	0.427600	0.976000	0.694200
H1681	H168	0.344900	0.981800	0.731500
H1691	H169	0.750300	0.147300	0.716800
H1701	H170	0.838300	0.210800	0.773400
H1711	H171	0.735900	0.217100	0.782700
H1721	H172	0.786500	0.180200	0.822800
H1731	H173	0.816900	0.065600	0.731800
H1741	H174	0.883600	0.118700	0.756700
H1751	H175	0.818700	0.075600	0.793500
H1761	H176	0.081100	0.876200	0.065000
H1771	H177	0.242500	0.750900	0.051700
H1781	H178	0.905000	0.648500	0.057400
H1791	H179	0.982100	0.705400	0.202100
H1801	H180	0.810000	0.588900	0.122500
H1811	H181	0.850900	0.530600	0.326700
H1821	H182	0.683200	0.652800	0.307000
H1831	H183	0.080300	0.629700	0.103100
H1841	H184	0.196600	0.591100	0.054300
H1851	H185	0.132500	0.623500	0.018400
H1861	H186	0.229400	0.656400	0.033600
H1871	H187	0.185100	0.682200	0.168700
H1881	H188	0.189300	0.613900	0.158600
H1891	H189	0.261600	0.662900	0.132400
H1901	H190	0.888700	0.780800	0.119900
H1911	H191	0.939900	0.880700	0.052900
H1921	H192	0.865300	0.825500	0.041100
H1931	H193	0.846900	0.873500	0.083300
H1941	H194	0.981800	0.892500	0.150800
H1951	H195	0.888600	0.861400	0.173700
H1961	H196	0.978200	0.834900	0.186100
H1971	H197	0.763800	0.700100	0.177400
H1981	H198	0.604500	0.661000	0.234600
H1991	H199	0.605200	0.717900	0.198600
H2001	H200	0.619800	0.656400	0.173200
H2011	H201	0.818000	0.769500	0.246700
H2021	H202	0.734800	0.790300	0.217600
H2031	H203	0.721500	0.758800	0.273100
H2041	H204	0.966500	0.559900	0.202100
H2051	H205	0.966500	0.463000	0.208900
H2061	H206	0.929700	0.460200	0.267400
H2071	H207	0.864600	0.469400	0.220000
H2081	H208	0.084500	0.546800	0.254400
H2091	H209	0.045900	0.603700	0.275200
H2101	H210	0.023800	0.542500	0.305500
H2111	H211	0.535900	0.176500	0.037900
H2121	H212	0.263400	0.139600	0.052400
H2131	H213	0.365300	0.372800	0.061800
H2141	H214	0.373300	0.446400	0.134400
H2151	H215	0.422700	0.291300	0.193300
H2161	H216	0.570100	0.471300	0.310900
H2171	H217	0.309600	0.413900	0.345000
H2181	H218	0.554400	0.323900	0.094200
H2191	H219	0.636000	0.257600	0.017600
H2201	H220	0.592400	0.315600	0.006200
H2211	H221	0.682200	0.319800	0.039500
H2221	H222	0.656300	0.230800	0.112400
H2231	H223	0.669800	0.294600	0.138800
H2241	H224	0.586800	0.246800	0.155000
H2251	H225	0.237800	0.277400	0.117200
H2261	H226	0.247800	0.189400	0.174300
H2271	H227	0.156600	0.216500	0.176700
H2281	H228	0.162100	0.158400	0.143300
H2291	H229	0.126700	0.192600	0.058300
H2301	H230	0.108800	0.256900	0.074900
H2311	H231	0.181100	0.249400	0.031000
H2321	H232	0.560500	0.420100	0.176700
H2331	H233	0.672400	0.408200	0.263800
H2341	H234	0.632300	0.357600	0.224000
H2351	H235	0.708400	0.409000	0.205300
H2361	H236	0.661400	0.504800	0.170600
H2371	H237	0.572400	0.524000	0.194200
H2381	H238	0.655100	0.518200	0.231500
H2391	H239	0.249700	0.352700	0.216800
H2401	H240	0.161700	0.289200	0.273400
H2411	H241	0.264100	0.282900	0.282700
H2421	H242	0.213500	0.319800	0.322800
H2431	H243	0.183100	0.434400	0.231800
H2441	H244	0.116400	0.381300	0.256700
H2451	H245	0.181300	0.424400	0.293500
H2461	H246	0.918900	0.623800	0.565000
H2471	H247	0.757500	0.749100	0.551700
H2481	H248	0.095000	0.851500	0.557400
H2491	H249	0.017900	0.794600	0.702100
H2501	H250	0.190000	0.911100	0.622500
H2511	H251	0.149100	0.969400	0.826700
H2521	H252	0.316800	0.847200	0.807000
H2531	H253	0.919700	0.870300	0.603100
H2541	H254	0.803400	0.908900	0.554300
H2551	H255	0.867500	0.876500	0.518400
H2561	H256	0.770600	0.843600	0.533600
H2571	H257	0.814900	0.817800	0.668700
H2581	H258	0.810700	0.886100	0.658600
H2591	H259	0.738400	0.837100	0.632400
H2601	H260	0.111300	0.719200	0.619900
H2611	H261	0.060100	0.619300	0.552900
H2621	H262	0.134700	0.674500	0.541100
H2631	H263	0.153100	0.626500	0.583300
H2641	H264	0.018200	0.607500	0.650800
H2651	H265	0.111400	0.638600	0.673700
H2661	H266	0.021800	0.665100	0.686100
H2671	H267	0.236200	0.799900	0.677400
H2681	H268	0.395500	0.839000	0.734600
H2691	H269	0.394800	0.782100	0.698600
H2701	H270	0.380200	0.843600	0.673200
H2711	H271	0.182000	0.730500	0.746700
H2721	H272	0.265200	0.709700	0.717600
H2731	H273	0.278500	0.741200	0.773100
H2741	H274	0.033500	0.940100	0.702100
H2751	H275	0.033500	0.037000	0.708900
H2761	H276	0.070300	0.039800	0.767400
H2771	H277	0.135400	0.030600	0.720000
H2781	H278	0.915500	0.953200	0.754400
H2791	H279	0.954100	0.896300	0.775200
H2801	H280	0.976200	0.957500	0.805500
C11	C1	0.401000	0.587100	0.483200
C21	C2	0.399300	0.648500	0.458400
C31	C3	0.481100	0.687600	0.451000
C41	C4	0.479600	0.743700	0.426400
C51	C5	0.394800	0.756900	0.409900
C61	C6	0.314100	0.719300	0.415800
C71	C7	0.317300	0.665300	0.441500
C81	C8	0.377600	0.865800	0.402800
C91	C9	0.382100	0.906500	0.362800
C101	C10	0.409300	0.820500	0.330400
C111	C11	0.416200	0.901800	0.264200
C121	C12	0.503400	0.930500	0.251500
C131	C13	0.513500	0.951600	0.199800
C141	C14	0.443000	0.944700	0.163300
C151	C15	0.357400	0.917200	0.179100
C161	C16	0.341400	0.894700	0.229800
C171	C17	0.459700	0.967500	0.106400
C181	C18	0.569300	0.784900	0.417300
C191	C19	0.625200	0.795400	0.468200
C201	C20	0.625700	0.762200	0.373800
C211	C21	0.225200	0.735700	0.395100
C221	C22	0.195000	0.696200	0.345400
C231	C23	0.154300	0.733500	0.436300
C241	C24	0.584100	0.936500	0.289100
C251	C25	0.655800	0.899500	0.272500
C261	C26	0.621700	0.001900	0.299100
C271	C27	0.247300	0.864600	0.245800
C281	C28	0.219100	0.809200	0.213900
C291	C29	0.175600	0.904800	0.240500
C301	C30	0.758500	0.135400	0.973500
C311	C31	0.828900	0.179300	0.946900
C321	C32	0.910100	0.163500	0.930300
C331	C33	0.980100	0.202500	0.906900
C341	C34	0.959500	0.261500	0.899800
C351	C35	0.880200	0.281400	0.914000
C361	C36	0.812900	0.238000	0.938200
C371	C37	0.091600	0.347400	0.905900
C381	C38	0.048800	0.315700	0.825700
C391	C39	0.143500	0.379900	0.869900
C401	C40	0.161000	0.379100	0.771900
C411	C41	0.126600	0.424900	0.742900
C421	C42	0.168700	0.439400	0.693800
C431	C43	0.239600	0.410200	0.674500
C441	C44	0.269800	0.366500	0.705500
C451	C45	0.231900	0.350700	0.754900
C461	C46	0.279800	0.425600	0.620100
C471	C47	0.861600	0.345400	0.904800
C481	C48	0.822100	0.371000	0.954200
C491	C49	0.800900	0.346700	0.856900
C501	C50	0.067800	0.183300	0.888300
C511	C51	0.107600	0.147600	0.931800
C521	C52	0.053500	0.145300	0.840200
C531	C53	0.266400	0.302300	0.787900
C541	C54	0.368700	0.318200	0.796100
C551	C55	0.246100	0.239900	0.759900
C561	C56	0.048900	0.455400	0.762100
C571	C57	0.074300	0.521600	0.766900
C581	C58	0.966400	0.439200	0.728800
C591	C59	0.599000	0.912900	0.983200
C601	C60	0.600700	0.851500	0.958400
C611	C61	0.518900	0.812400	0.951000
C621	C62	0.520400	0.756300	0.926400
C631	C63	0.605200	0.743100	0.909900
C641	C64	0.685900	0.780700	0.915800
C651	C65	0.682700	0.834700	0.941500
C661	C66	0.622400	0.634200	0.902800
C671	C67	0.617900	0.593500	0.862800
C681	C68	0.590700	0.679500	0.830400
C691	C69	0.583800	0.598200	0.764200
C701	C70	0.496600	0.569500	0.751500
C711	C71	0.486500	0.548400	0.699800
C721	C72	0.557000	0.555300	0.663300
C731	C73	0.642600	0.582800	0.679100
C741	C74	0.658600	0.605300	0.729800
C751	C75	0.540300	0.532500	0.606400
C761	C76	0.430700	0.715100	0.917300
C771	C77	0.374800	0.704600	0.968200
C781	C78	0.374300	0.737800	0.873800
C791	C79	0.774800	0.764300	0.895100
C801	C80	0.805000	0.803800	0.845400
C811	C81	0.845700	0.766500	0.936300
C821	C82	0.415900	0.563500	0.789100
C831	C83	0.344200	0.600500	0.772500
C841	C84	0.378300	0.498100	0.799100
C851	C85	0.752700	0.635400	0.745800
C861	C86	0.780900	0.690800	0.713900
C871	C87	0.824400	0.595200	0.740500
C881	C88	0.241500	0.364600	0.473500
C891	C89	0.171100	0.320700	0.446900
C901	C90	0.089900	0.336500	0.430300
C911	C91	0.019900	0.297500	0.406900
C921	C92	0.040500	0.238500	0.399800
C931	C93	0.119800	0.218600	0.414000
C941	C94	0.187100	0.262000	0.438200
C951	C95	0.908400	0.152600	0.405900
C961	C96	0.951200	0.184300	0.325700
C971	C97	0.856500	0.120100	0.369900
C981	C98	0.839000	0.120900	0.271900
C991	C99	0.873400	0.075100	0.242900
C1001	C100	0.831300	0.060600	0.193800
C1011	C101	0.760400	0.089800	0.174500
C1021	C102	0.730200	0.133500	0.205500
C1031	C103	0.768100	0.149300	0.254900
C1041	C104	0.720200	0.074400	0.120100
C1051	C105	0.138400	0.154600	0.404800
C1061	C106	0.177900	0.129000	0.454200
C1071	C107	0.199100	0.153300	0.356900
C1081	C108	0.932200	0.316700	0.388300
C1091	C109	0.892400	0.352400	0.431800
C1101	C110	0.946500	0.354700	0.340200
C1111	C111	0.733600	0.197700	0.287900
C1121	C112	0.631300	0.181800	0.296100
C1131	C113	0.753900	0.260100	0.259900
C1141	C114	0.951100	0.044600	0.262100
C1151	C115	0.925700	0.978400	0.266900
C1161	C116	0.033600	0.060800	0.228800
C1171	C117	0.599000	0.412900	0.516800
C1181	C118	0.600700	0.351500	0.541600
C1191	C119	0.518900	0.312400	0.549000
C1201	C120	0.520400	0.256300	0.573600
C1211	C121	0.605200	0.243100	0.590100
C1221	C122	0.685900	0.280700	0.584200
C1231	C123	0.682700	0.334700	0.558500
C1241	C124	0.622400	0.134200	0.597200
C1251	C125	0.617900	0.093500	0.637200
C1261	C126	0.590700	0.179500	0.669600
C1271	C127	0.583800	0.098200	0.735800
C1281	C128	0.496600	0.069500	0.748500
C1291	C129	0.486500	0.048400	0.800200
C1301	C130	0.557000	0.055300	0.836700
C1311	C131	0.642600	0.082800	0.820900
C1321	C132	0.658600	0.105300	0.770200
C1331	C133	0.540300	0.032500	0.893600
C1341	C134	0.430700	0.215100	0.582700
C1351	C135	0.374800	0.204600	0.531800
C1361	C136	0.374300	0.237800	0.626200
C1371	C137	0.774800	0.264300	0.604900
C1381	C138	0.805000	0.303800	0.654600
C1391	C139	0.845700	0.266500	0.563700
C1401	C140	0.415900	0.063500	0.710900
C1411	C141	0.344200	0.100500	0.727500
C1421	C142	0.378300	0.998100	0.700900
C1431	C143	0.752700	0.135400	0.754200
C1441	C144	0.780900	0.190800	0.786100
C1451	C145	0.824400	0.095200	0.759500
C1461	C146	0.241500	0.864600	0.026500
C1471	C147	0.171100	0.820700	0.053100
C1481	C148	0.089900	0.836500	0.069700
C1491	C149	0.019900	0.797500	0.093100
C1501	C150	0.040500	0.738500	0.100200
C1511	C151	0.119800	0.718600	0.086000
C1521	C152	0.187100	0.762000	0.061800
C1531	C153	0.908400	0.652600	0.094100
C1541	C154	0.951200	0.684300	0.174300
C1551	C155	0.856500	0.620100	0.130100
C1561	C156	0.839000	0.620900	0.228100
C1571	C157	0.873400	0.575100	0.257100
C1581	C158	0.831300	0.560600	0.306200
C1591	C159	0.760400	0.589800	0.325500
C1601	C160	0.730200	0.633500	0.294500
C1611	C161	0.768100	0.649300	0.245100
C1621	C162	0.720200	0.574400	0.379900
C1631	C163	0.138400	0.654600	0.095200
C1641	C164	0.177900	0.629000	0.045800
C1651	C165	0.199100	0.653300	0.143100
C1661	C166	0.932200	0.816700	0.111700
C1671	C167	0.892400	0.852400	0.068200
C1681	C168	0.946500	0.854700	0.159800
C1691	C169	0.733600	0.697700	0.212100
C1701	C170	0.631300	0.681800	0.203900
C1711	C171	0.753900	0.760100	0.240100
C1721	C172	0.951100	0.544600	0.237900
C1731	C173	0.925700	0.478400	0.233100
C1741	C174	0.033600	0.560800	0.271200
C1751	C175	0.401000	0.087100	0.016800
C1761	C176	0.399300	0.148500	0.041600
C1771	C177	0.481100	0.187600	0.049000
C1781	C178	0.479600	0.243700	0.073600
C1791	C179	0.394800	0.256900	0.090100
C1801	C180	0.314100	0.219300	0.084200
C1811	C181	0.317300	0.165300	0.058500
C1821	C182	0.377600	0.365800	0.097200
C1831	C183	0.382100	0.406500	0.137200
C1841	C184	0.409300	0.320500	0.169600
C1851	C185	0.416200	0.401800	0.235800
C1861	C186	0.503400	0.430500	0.248500
C1871	C187	0.513500	0.451600	0.300200
C1881	C188	0.443000	0.444700	0.336700
C1891	C189	0.357400	0.417200	0.320900
C1901	C190	0.341400	0.394700	0.270200
C1911	C191	0.459700	0.467500	0.393600
C1921	C192	0.569300	0.284900	0.082700
C1931	C193	0.625200	0.295400	0.031800
C1941	C194	0.625700	0.262200	0.126200
C1951	C195	0.225200	0.235700	0.104900
C1961	C196	0.195000	0.196200	0.154600
C1971	C197	0.154300	0.233500	0.063700
C1981	C198	0.584100	0.436500	0.210900
C1991	C199	0.655800	0.399500	0.227500
C2001	C200	0.621700	0.501900	0.200900
C2011	C201	0.247300	0.364600	0.254200
C2021	C202	0.219100	0.309200	0.286100
C2031	C203	0.175600	0.404800	0.259500
C2041	C204	0.758500	0.635400	0.526500
C2051	C205	0.828900	0.679300	0.553100
C2061	C206	0.910100	0.663500	0.569700
C2071	C207	0.980100	0.702500	0.593100
C2081	C208	0.959500	0.761500	0.600200
C2091	C209	0.880200	0.781400	0.586000
C2101	C210	0.812900	0.738000	0.561800
C2111	C211	0.091600	0.847400	0.594100
C2121	C212	0.048800	0.815700	0.674300
C2131	C213	0.143500	0.879900	0.630100
C2141	C214	0.161000	0.879100	0.728100
C2151	C215	0.126600	0.924900	0.757100
C2161	C216	0.168700	0.939400	0.806200
C2171	C217	0.239600	0.910200	0.825500
C2181	C218	0.269800	0.866500	0.794500
C2191	C219	0.231900	0.850700	0.745100
C2201	C220	0.279800	0.925600	0.879900
C2211	C221	0.861600	0.845400	0.595200
C2221	C222	0.822100	0.871000	0.545800
C2231	C223	0.800900	0.846700	0.643100
C2241	C224	0.067800	0.683300	0.611700
C2251	C225	0.107600	0.647600	0.568200
C2261	C226	0.053500	0.645300	0.659800
C2271	C227	0.266400	0.802300	0.712100
C2281	C228	0.368700	0.818200	0.703900
C2291	C229	0.246100	0.739900	0.740100
C2301	C230	0.048900	0.955400	0.737900
C2311	C231	0.074300	0.021600	0.733100
C2321	C232	0.966400	0.939200	0.771200
N11	N1	0.394500	0.812700	0.381600
N21	N2	0.402100	0.877400	0.317800
N31	N3	0.117800	0.360300	0.821000
N41	N4	0.031800	0.306500	0.877500
N51	N5	0.605500	0.687300	0.881600
N61	N6	0.597900	0.622600	0.817800
N71	N7	0.882200	0.139700	0.321000
N81	N8	0.968200	0.193500	0.377500
N91	N9	0.605500	0.187300	0.618400
N101	N10	0.597900	0.122600	0.682200
N111	N11	0.882200	0.639700	0.179000
N121	N12	0.968200	0.693500	0.122500
N131	N13	0.394500	0.312700	0.118400
N141	N14	0.402100	0.377400	0.182200
N151	N15	0.117800	0.860300	0.679000
N161	N16	0.031800	0.806500	0.622500
O11	O1	0.325800	0.558200	0.497000
O21	O2	0.475200	0.568200	0.489130
O31	O3	0.391800	0.961300	0.075590
O41	O4	0.540600	0.989500	0.095250
O51	O5	0.682800	0.149500	0.985900
O61	O6	0.779900	0.084100	0.982800
O71	O7	0.335500	0.393500	0.602500
O81	O8	0.258500	0.470400	0.595400
O91	O9	0.674200	0.941800	0.997000
O101	O10	0.524800	0.931800	0.989130
O111	O11	0.608200	0.538700	0.575590
O121	O12	0.459400	0.510500	0.595250
O131	O13	0.317200	0.350500	0.485900
O141	O14	0.220100	0.415900	0.482800
O151	O15	0.664500	0.106500	0.102500
O161	O16	0.741500	0.029600	0.095400
O171	O17	0.674200	0.441800	0.503000
O181	O18	0.524800	0.431800	0.510870
O191	O19	0.608200	0.038700	0.924410
O201	O20	0.459400	0.010500	0.904750
O211	O21	0.317200	0.850500	0.014100
O221	O22	0.220100	0.915900	0.017200
O231	O23	0.664500	0.606500	0.397500
O241	O24	0.741500	0.529600	0.404600
O251	O25	0.325800	0.058200	0.003000
O261	O26	0.475200	0.068200	0.010870
O271	O27	0.391800	0.461300	0.424410
O281	O28	0.540600	0.489500	0.404750
O291	O29	0.682800	0.649500	0.514100
O301	O30	0.779900	0.584100	0.517200
O311	O31	0.335500	0.893500	0.897500
O321	O32	0.258500	0.970400	0.904600
N171	N17	0.442200	0.714900	0.595300
O331	O33	0.377700	0.657600	0.617400
O341	O34	0.536900	0.724900	0.604300
N181	N18	0.557800	0.785100	0.095300
O351	O35	0.622300	0.842400	0.117400
O361	O36	0.463100	0.775100	0.104300
N191	N19	0.557800	0.285100	0.404700
O371	O37	0.622300	0.342400	0.382600
O381	O38	0.463100	0.275100	0.395700
N201	N20	0.442200	0.214900	0.904700
O391	O39	0.377700	0.157600	0.882600
O401	O40	0.536900	0.224900	0.895700
