data_MANDUD_clean_PM
_symmetry_space_group_name_H-M	'P1'
_cell_length_a	35.067000
_cell_length_b	24.035000
_cell_length_c	26.081000
_cell_angle_alpha	90.000000
_cell_angle_beta	132.068000
_cell_angle_gamma	90.000000
_symmetry_Int_Tables_number 1

loop_
_symmetry_equiv_pos_as_xyz
'x,y,z'

loop_
_atom_site_label
_atom_site_type_symbol
_atom_site_fract_x
_atom_site_fract_y
_atom_site_fract_z
Gd11	Gd1	0.405470	0.234780	0.399780
Gd21	Gd2	0.240230	0.265170	0.262380
O11	O1	0.357200	0.176900	0.409200
O21	O2	0.272800	0.191700	0.340200
O31	O3	0.343200	0.797500	0.785900
O41	O4	0.255100	0.800800	0.714400
O51	O5	0.372800	0.310300	0.327000
O61	O6	0.285800	0.318600	0.245000
O71	O7	0.386300	0.704300	0.951300
O81	O8	0.303200	0.695500	0.866800
O91	O9	0.440900	0.143800	0.406600
O101	O10	0.453000	0.210800	0.367000
O111	O11	0.696700	0.850600	0.248800
O121	O12	0.699100	0.784000	0.312500
C11	C1	0.312400	0.165600	0.384500
C21	C2	0.310800	0.120800	0.423100
C31	C3	0.301900	0.850700	0.687900
C41	C4	0.267400	0.114500	0.413300
H11	H1	0.238980	0.137090	0.381760
C51	C5	0.349300	0.083400	0.465500
H21	H2	0.379080	0.087440	0.472880
C61	C6	0.265600	0.074700	0.450400
H31	H3	0.237230	0.074690	0.446420
C71	C7	0.347400	0.042100	0.496500
H41	H4	0.373950	0.016280	0.521820
C81	C8	0.302000	0.036400	0.491200
C91	C9	0.303000	0.995500	0.530200
C101	C10	0.300200	0.961600	0.560700
C111	C11	0.253500	0.908300	0.583300
H51	H5	0.221990	0.922220	0.543960
C121	C12	0.344400	0.902200	0.658000
H61	H6	0.374810	0.911000	0.668690
C131	C13	0.297900	0.922700	0.598400
C141	C14	0.256100	0.873200	0.626700
H71	H7	0.225500	0.863390	0.615050
C151	C15	0.345000	0.867700	0.702300
H81	H8	0.376590	0.856120	0.743520
C161	C16	0.302200	0.812200	0.734400
C171	C17	0.331000	0.331600	0.271300
C181	C18	0.336800	0.370300	0.233800
C191	C19	0.292800	0.392500	0.173000
H91	H9	0.261010	0.382110	0.157610
C201	C20	0.380600	0.388000	0.252000
H101	H10	0.410680	0.373850	0.293310
C211	C21	0.294800	0.431700	0.132800
H111	H11	0.265510	0.450370	0.095470
C221	C22	0.386100	0.422800	0.219000
H121	H12	0.418040	0.435940	0.237070
C231	C23	0.337700	0.439500	0.150000
C241	C24	0.348300	0.482500	0.117000
C251	C25	0.347000	0.513800	0.080300
C261	C26	0.344900	0.555900	0.039700
C271	C27	0.302500	0.568100	0.975000
H131	H13	0.272510	0.548220	0.954000
C281	C28	0.390800	0.583200	0.068400
H141	H14	0.421100	0.573260	0.112200
C291	C29	0.302400	0.609400	0.938000
H151	H15	0.271630	0.619510	0.894840
C301	C30	0.391600	0.624400	0.032400
H161	H16	0.421640	0.644500	0.053730
C311	C31	0.347700	0.636200	0.964400
C321	C32	0.348000	0.680500	0.927900
C331	C33	0.461300	0.165400	0.384800
C341	C34	0.483100	0.120200	0.368700
C351	C35	0.505800	0.138500	0.343000
H171	H17	0.503090	0.175930	0.331430
C361	C36	0.486300	0.066900	0.381400
H181	H18	0.471640	0.054710	0.398630
C371	C37	0.531300	0.104000	0.333000
H191	H19	0.548890	0.118020	0.320430
C381	C38	0.509900	0.026000	0.371600
H201	H20	0.512120	0.988840	0.383380
C391	C39	0.530200	0.045900	0.342200
C401	C40	0.559900	0.011400	0.335300
C411	C41	0.579500	0.978000	0.325500
C421	C42	0.603500	0.939600	0.311600
C431	C43	0.621800	0.889600	0.344400
H211	H21	0.615340	0.877940	0.372000
C441	C44	0.616900	0.958800	0.273700
H221	H22	0.609530	0.995170	0.257320
C451	C45	0.650500	0.855200	0.336900
H231	H23	0.663540	0.821150	0.359400
C461	C46	0.640800	0.922900	0.261600
H241	H24	0.644390	0.932670	0.230510
C471	C47	0.658600	0.874500	0.294400
C481	C48	0.685400	0.831400	0.282100
Gd31	Gd3	0.905470	0.734780	0.399780
Gd41	Gd4	0.740230	0.765170	0.262380
O131	O13	0.857200	0.676900	0.409200
O141	O14	0.772800	0.691700	0.340200
O151	O15	0.843200	0.297500	0.785900
O161	O16	0.755100	0.300800	0.714400
O171	O17	0.872800	0.810300	0.327000
O181	O18	0.785800	0.818600	0.245000
O191	O19	0.886300	0.204300	0.951300
O201	O20	0.803200	0.195500	0.866800
O211	O21	0.940900	0.643800	0.406600
O221	O22	0.953000	0.710800	0.367000
O231	O23	0.196700	0.350600	0.248800
O241	O24	0.199100	0.284000	0.312500
C491	C49	0.812400	0.665600	0.384500
C501	C50	0.810800	0.620800	0.423100
C511	C51	0.801900	0.350700	0.687900
C521	C52	0.767400	0.614500	0.413300
H251	H25	0.738980	0.637090	0.381760
C531	C53	0.849300	0.583400	0.465500
H261	H26	0.879080	0.587440	0.472880
C541	C54	0.765600	0.574700	0.450400
H271	H27	0.737230	0.574690	0.446420
C551	C55	0.847400	0.542100	0.496500
H281	H28	0.873950	0.516280	0.521820
C561	C56	0.802000	0.536400	0.491200
C571	C57	0.803000	0.495500	0.530200
C581	C58	0.800200	0.461600	0.560700
C591	C59	0.753500	0.408300	0.583300
H291	H29	0.721990	0.422220	0.543960
C601	C60	0.844400	0.402200	0.658000
H301	H30	0.874810	0.411000	0.668690
C611	C61	0.797900	0.422700	0.598400
C621	C62	0.756100	0.373200	0.626700
H311	H31	0.725500	0.363390	0.615050
C631	C63	0.845000	0.367700	0.702300
H321	H32	0.876590	0.356120	0.743520
C641	C64	0.802200	0.312200	0.734400
C651	C65	0.831000	0.831600	0.271300
C661	C66	0.836800	0.870300	0.233800
C671	C67	0.792800	0.892500	0.173000
H331	H33	0.761010	0.882110	0.157610
C681	C68	0.880600	0.888000	0.252000
H341	H34	0.910680	0.873850	0.293310
C691	C69	0.794800	0.931700	0.132800
H351	H35	0.765510	0.950370	0.095470
C701	C70	0.886100	0.922800	0.219000
H361	H36	0.918040	0.935940	0.237070
C711	C71	0.837700	0.939500	0.150000
C721	C72	0.848300	0.982500	0.117000
C731	C73	0.847000	0.013800	0.080300
C741	C74	0.844900	0.055900	0.039700
C751	C75	0.802500	0.068100	0.975000
H371	H37	0.772510	0.048220	0.954000
C761	C76	0.890800	0.083200	0.068400
H381	H38	0.921100	0.073260	0.112200
C771	C77	0.802400	0.109400	0.938000
H391	H39	0.771630	0.119510	0.894840
C781	C78	0.891600	0.124400	0.032400
H401	H40	0.921640	0.144500	0.053730
C791	C79	0.847700	0.136200	0.964400
C801	C80	0.848000	0.180500	0.927900
C811	C81	0.961300	0.665400	0.384800
C821	C82	0.983100	0.620200	0.368700
C831	C83	0.005800	0.638500	0.343000
H411	H41	0.003090	0.675930	0.331430
C841	C84	0.986300	0.566900	0.381400
H421	H42	0.971640	0.554710	0.398630
C851	C85	0.031300	0.604000	0.333000
H431	H43	0.048890	0.618020	0.320430
C861	C86	0.009900	0.526000	0.371600
H441	H44	0.012120	0.488840	0.383380
C871	C87	0.030200	0.545900	0.342200
C881	C88	0.059900	0.511400	0.335300
C891	C89	0.079500	0.478000	0.325500
C901	C90	0.103500	0.439600	0.311600
C911	C91	0.121800	0.389600	0.344400
H451	H45	0.115340	0.377940	0.372000
C921	C92	0.116900	0.458800	0.273700
H461	H46	0.109530	0.495170	0.257320
C931	C93	0.150500	0.355200	0.336900
H471	H47	0.163540	0.321150	0.359400
C941	C94	0.140800	0.422900	0.261600
H481	H48	0.144390	0.432670	0.230510
C951	C95	0.158600	0.374500	0.294400
C961	C96	0.185400	0.331400	0.282100
Gd51	Gd5	0.405470	0.765220	0.899780
Gd61	Gd6	0.240230	0.734830	0.762380
O251	O25	0.357200	0.823100	0.909200
O261	O26	0.272800	0.808300	0.840200
O271	O27	0.343200	0.202500	0.285900
O281	O28	0.255100	0.199200	0.214400
O291	O29	0.372800	0.689700	0.827000
O301	O30	0.285800	0.681400	0.745000
O311	O31	0.386300	0.295700	0.451300
O321	O32	0.303200	0.304500	0.366800
O331	O33	0.440900	0.856200	0.906600
O341	O34	0.453000	0.789200	0.867000
O351	O35	0.696700	0.149400	0.748800
O361	O36	0.699100	0.216000	0.812500
C971	C97	0.312400	0.834400	0.884500
C981	C98	0.310800	0.879200	0.923100
C991	C99	0.301900	0.149300	0.187900
C1001	C100	0.267400	0.885500	0.913300
H491	H49	0.238980	0.862910	0.881760
C1011	C101	0.349300	0.916600	0.965500
H501	H50	0.379080	0.912560	0.972880
C1021	C102	0.265600	0.925300	0.950400
H511	H51	0.237230	0.925310	0.946420
C1031	C103	0.347400	0.957900	0.996500
H521	H52	0.373950	0.983720	0.021820
C1041	C104	0.302000	0.963600	0.991200
C1051	C105	0.303000	0.004500	0.030200
C1061	C106	0.300200	0.038400	0.060700
C1071	C107	0.253500	0.091700	0.083300
H531	H53	0.221990	0.077780	0.043960
C1081	C108	0.344400	0.097800	0.158000
H541	H54	0.374810	0.089000	0.168690
C1091	C109	0.297900	0.077300	0.098400
C1101	C110	0.256100	0.126800	0.126700
H551	H55	0.225500	0.136610	0.115050
C1111	C111	0.345000	0.132300	0.202300
H561	H56	0.376590	0.143880	0.243520
C1121	C112	0.302200	0.187800	0.234400
C1131	C113	0.331000	0.668400	0.771300
C1141	C114	0.336800	0.629700	0.733800
C1151	C115	0.292800	0.607500	0.673000
H571	H57	0.261010	0.617890	0.657610
C1161	C116	0.380600	0.612000	0.752000
H581	H58	0.410680	0.626150	0.793310
C1171	C117	0.294800	0.568300	0.632800
H591	H59	0.265510	0.549630	0.595470
C1181	C118	0.386100	0.577200	0.719000
H601	H60	0.418040	0.564060	0.737070
C1191	C119	0.337700	0.560500	0.650000
C1201	C120	0.348300	0.517500	0.617000
C1211	C121	0.347000	0.486200	0.580300
C1221	C122	0.344900	0.444100	0.539700
C1231	C123	0.302500	0.431900	0.475000
H611	H61	0.272510	0.451780	0.454000
C1241	C124	0.390800	0.416800	0.568400
H621	H62	0.421100	0.426740	0.612200
C1251	C125	0.302400	0.390600	0.438000
H631	H63	0.271630	0.380490	0.394840
C1261	C126	0.391600	0.375600	0.532400
H641	H64	0.421640	0.355500	0.553730
C1271	C127	0.347700	0.363800	0.464400
C1281	C128	0.348000	0.319500	0.427900
C1291	C129	0.461300	0.834600	0.884800
C1301	C130	0.483100	0.879800	0.868700
C1311	C131	0.505800	0.861500	0.843000
H651	H65	0.503090	0.824070	0.831430
C1321	C132	0.486300	0.933100	0.881400
H661	H66	0.471640	0.945290	0.898630
C1331	C133	0.531300	0.896000	0.833000
H671	H67	0.548890	0.881980	0.820430
C1341	C134	0.509900	0.974000	0.871600
H681	H68	0.512120	0.011160	0.883380
C1351	C135	0.530200	0.954100	0.842200
C1361	C136	0.559900	0.988600	0.835300
C1371	C137	0.579500	0.022000	0.825500
C1381	C138	0.603500	0.060400	0.811600
C1391	C139	0.621800	0.110400	0.844400
H691	H69	0.615340	0.122060	0.872000
C1401	C140	0.616900	0.041200	0.773700
H701	H70	0.609530	0.004830	0.757320
C1411	C141	0.650500	0.144800	0.836900
H711	H71	0.663540	0.178850	0.859400
C1421	C142	0.640800	0.077100	0.761600
H721	H72	0.644390	0.067330	0.730510
C1431	C143	0.658600	0.125500	0.794400
C1441	C144	0.685400	0.168600	0.782100
Gd71	Gd7	0.905470	0.265220	0.899780
Gd81	Gd8	0.740230	0.234830	0.762380
O371	O37	0.857200	0.323100	0.909200
O381	O38	0.772800	0.308300	0.840200
O391	O39	0.843200	0.702500	0.285900
O401	O40	0.755100	0.699200	0.214400
O411	O41	0.872800	0.189700	0.827000
O421	O42	0.785800	0.181400	0.745000
O431	O43	0.886300	0.795700	0.451300
O441	O44	0.803200	0.804500	0.366800
O451	O45	0.940900	0.356200	0.906600
O461	O46	0.953000	0.289200	0.867000
O471	O47	0.196700	0.649400	0.748800
O481	O48	0.199100	0.716000	0.812500
C1451	C145	0.812400	0.334400	0.884500
C1461	C146	0.810800	0.379200	0.923100
C1471	C147	0.801900	0.649300	0.187900
C1481	C148	0.767400	0.385500	0.913300
H731	H73	0.738980	0.362910	0.881760
C1491	C149	0.849300	0.416600	0.965500
H741	H74	0.879080	0.412560	0.972880
C1501	C150	0.765600	0.425300	0.950400
H751	H75	0.737230	0.425310	0.946420
C1511	C151	0.847400	0.457900	0.996500
H761	H76	0.873950	0.483720	0.021820
C1521	C152	0.802000	0.463600	0.991200
C1531	C153	0.803000	0.504500	0.030200
C1541	C154	0.800200	0.538400	0.060700
C1551	C155	0.753500	0.591700	0.083300
H771	H77	0.721990	0.577780	0.043960
C1561	C156	0.844400	0.597800	0.158000
H781	H78	0.874810	0.589000	0.168690
C1571	C157	0.797900	0.577300	0.098400
C1581	C158	0.756100	0.626800	0.126700
H791	H79	0.725500	0.636610	0.115050
C1591	C159	0.845000	0.632300	0.202300
H801	H80	0.876590	0.643880	0.243520
C1601	C160	0.802200	0.687800	0.234400
C1611	C161	0.831000	0.168400	0.771300
C1621	C162	0.836800	0.129700	0.733800
C1631	C163	0.792800	0.107500	0.673000
H811	H81	0.761010	0.117890	0.657610
C1641	C164	0.880600	0.112000	0.752000
H821	H82	0.910680	0.126150	0.793310
C1651	C165	0.794800	0.068300	0.632800
H831	H83	0.765510	0.049630	0.595470
C1661	C166	0.886100	0.077200	0.719000
H841	H84	0.918040	0.064060	0.737070
C1671	C167	0.837700	0.060500	0.650000
C1681	C168	0.848300	0.017500	0.617000
C1691	C169	0.847000	0.986200	0.580300
C1701	C170	0.844900	0.944100	0.539700
C1711	C171	0.802500	0.931900	0.475000
H851	H85	0.772510	0.951780	0.454000
C1721	C172	0.890800	0.916800	0.568400
H861	H86	0.921100	0.926740	0.612200
C1731	C173	0.802400	0.890600	0.438000
H871	H87	0.771630	0.880490	0.394840
C1741	C174	0.891600	0.875600	0.532400
H881	H88	0.921640	0.855500	0.553730
C1751	C175	0.847700	0.863800	0.464400
C1761	C176	0.848000	0.819500	0.427900
C1771	C177	0.961300	0.334600	0.884800
C1781	C178	0.983100	0.379800	0.868700
C1791	C179	0.005800	0.361500	0.843000
H891	H89	0.003090	0.324070	0.831430
C1801	C180	0.986300	0.433100	0.881400
H901	H90	0.971640	0.445290	0.898630
C1811	C181	0.031300	0.396000	0.833000
H911	H91	0.048890	0.381980	0.820430
C1821	C182	0.009900	0.474000	0.871600
H921	H92	0.012120	0.511160	0.883380
C1831	C183	0.030200	0.454100	0.842200
C1841	C184	0.059900	0.488600	0.835300
C1851	C185	0.079500	0.522000	0.825500
C1861	C186	0.103500	0.560400	0.811600
C1871	C187	0.121800	0.610400	0.844400
H931	H93	0.115340	0.622060	0.872000
C1881	C188	0.116900	0.541200	0.773700
H941	H94	0.109530	0.504830	0.757320
C1891	C189	0.150500	0.644800	0.836900
H951	H95	0.163540	0.678850	0.859400
C1901	C190	0.140800	0.577100	0.761600
H961	H96	0.144390	0.567330	0.730510
C1911	C191	0.158600	0.625500	0.794400
C1921	C192	0.185400	0.668600	0.782100
Gd91	Gd9	0.594530	0.234780	0.100220
Gd101	Gd10	0.759770	0.265170	0.237620
O491	O49	0.642800	0.176900	0.090800
O501	O50	0.727200	0.191700	0.159800
O511	O51	0.656800	0.797500	0.714100
O521	O52	0.744900	0.800800	0.785600
O531	O53	0.627200	0.310300	0.173000
O541	O54	0.714200	0.318600	0.255000
O551	O55	0.613700	0.704300	0.548700
O561	O56	0.696800	0.695500	0.633200
O571	O57	0.559100	0.143800	0.093400
O581	O58	0.547000	0.210800	0.133000
O591	O59	0.303300	0.850600	0.251200
O601	O60	0.300900	0.784000	0.187500
C1931	C193	0.687600	0.165600	0.115500
C1941	C194	0.689200	0.120800	0.076900
C1951	C195	0.698100	0.850700	0.812100
C1961	C196	0.732600	0.114500	0.086700
H971	H97	0.761020	0.137090	0.118240
C1971	C197	0.650700	0.083400	0.034500
H981	H98	0.620920	0.087440	0.027120
C1981	C198	0.734400	0.074700	0.049600
H991	H99	0.762770	0.074690	0.053580
C1991	C199	0.652600	0.042100	0.003500
H1001	H100	0.626050	0.016280	0.978180
C2001	C200	0.698000	0.036400	0.008800
C2011	C201	0.697000	0.995500	0.969800
C2021	C202	0.699800	0.961600	0.939300
C2031	C203	0.746500	0.908300	0.916700
H1011	H101	0.778010	0.922220	0.956040
C2041	C204	0.655600	0.902200	0.842000
H1021	H102	0.625190	0.911000	0.831310
C2051	C205	0.702100	0.922700	0.901600
C2061	C206	0.743900	0.873200	0.873300
H1031	H103	0.774500	0.863390	0.884950
C2071	C207	0.655000	0.867700	0.797700
H1041	H104	0.623410	0.856120	0.756480
C2081	C208	0.697800	0.812200	0.765600
C2091	C209	0.669000	0.331600	0.228700
C2101	C210	0.663200	0.370300	0.266200
C2111	C211	0.707200	0.392500	0.327000
H1051	H105	0.738990	0.382110	0.342390
C2121	C212	0.619400	0.388000	0.248000
H1061	H106	0.589320	0.373850	0.206690
C2131	C213	0.705200	0.431700	0.367200
H1071	H107	0.734490	0.450370	0.404530
C2141	C214	0.613900	0.422800	0.281000
H1081	H108	0.581960	0.435940	0.262930
C2151	C215	0.662300	0.439500	0.350000
C2161	C216	0.651700	0.482500	0.383000
C2171	C217	0.653000	0.513800	0.419700
C2181	C218	0.655100	0.555900	0.460300
C2191	C219	0.697500	0.568100	0.525000
H1091	H109	0.727490	0.548220	0.546000
C2201	C220	0.609200	0.583200	0.431600
H1101	H110	0.578900	0.573260	0.387800
C2211	C221	0.697600	0.609400	0.562000
H1111	H111	0.728370	0.619510	0.605160
C2221	C222	0.608400	0.624400	0.467600
H1121	H112	0.578360	0.644500	0.446270
C2231	C223	0.652300	0.636200	0.535600
C2241	C224	0.652000	0.680500	0.572100
C2251	C225	0.538700	0.165400	0.115200
C2261	C226	0.516900	0.120200	0.131300
C2271	C227	0.494200	0.138500	0.157000
H1131	H113	0.496910	0.175930	0.168570
C2281	C228	0.513700	0.066900	0.118600
H1141	H114	0.528360	0.054710	0.101370
C2291	C229	0.468700	0.104000	0.167000
H1151	H115	0.451110	0.118020	0.179570
C2301	C230	0.490100	0.026000	0.128400
H1161	H116	0.487880	0.988840	0.116620
C2311	C231	0.469800	0.045900	0.157800
C2321	C232	0.440100	0.011400	0.164700
C2331	C233	0.420500	0.978000	0.174500
C2341	C234	0.396500	0.939600	0.188400
C2351	C235	0.378200	0.889600	0.155600
H1171	H117	0.384660	0.877940	0.128000
C2361	C236	0.383100	0.958800	0.226300
H1181	H118	0.390470	0.995170	0.242680
C2371	C237	0.349500	0.855200	0.163100
H1191	H119	0.336460	0.821150	0.140600
C2381	C238	0.359200	0.922900	0.238400
H1201	H120	0.355610	0.932670	0.269490
C2391	C239	0.341400	0.874500	0.205600
C2401	C240	0.314600	0.831400	0.217900
Gd111	Gd11	0.094530	0.734780	0.100220
Gd121	Gd12	0.259770	0.765170	0.237620
O611	O61	0.142800	0.676900	0.090800
O621	O62	0.227200	0.691700	0.159800
O631	O63	0.156800	0.297500	0.714100
O641	O64	0.244900	0.300800	0.785600
O651	O65	0.127200	0.810300	0.173000
O661	O66	0.214200	0.818600	0.255000
O671	O67	0.113700	0.204300	0.548700
O681	O68	0.196800	0.195500	0.633200
O691	O69	0.059100	0.643800	0.093400
O701	O70	0.047000	0.710800	0.133000
O711	O71	0.803300	0.350600	0.251200
O721	O72	0.800900	0.284000	0.187500
C2411	C241	0.187600	0.665600	0.115500
C2421	C242	0.189200	0.620800	0.076900
C2431	C243	0.198100	0.350700	0.812100
C2441	C244	0.232600	0.614500	0.086700
H1211	H121	0.261020	0.637090	0.118240
C2451	C245	0.150700	0.583400	0.034500
H1221	H122	0.120920	0.587440	0.027120
C2461	C246	0.234400	0.574700	0.049600
H1231	H123	0.262770	0.574690	0.053580
C2471	C247	0.152600	0.542100	0.003500
H1241	H124	0.126050	0.516280	0.978180
C2481	C248	0.198000	0.536400	0.008800
C2491	C249	0.197000	0.495500	0.969800
C2501	C250	0.199800	0.461600	0.939300
C2511	C251	0.246500	0.408300	0.916700
H1251	H125	0.278010	0.422220	0.956040
C2521	C252	0.155600	0.402200	0.842000
H1261	H126	0.125190	0.411000	0.831310
C2531	C253	0.202100	0.422700	0.901600
C2541	C254	0.243900	0.373200	0.873300
H1271	H127	0.274500	0.363390	0.884950
C2551	C255	0.155000	0.367700	0.797700
H1281	H128	0.123410	0.356120	0.756480
C2561	C256	0.197800	0.312200	0.765600
C2571	C257	0.169000	0.831600	0.228700
C2581	C258	0.163200	0.870300	0.266200
C2591	C259	0.207200	0.892500	0.327000
H1291	H129	0.238990	0.882110	0.342390
C2601	C260	0.119400	0.888000	0.248000
H1301	H130	0.089320	0.873850	0.206690
C2611	C261	0.205200	0.931700	0.367200
H1311	H131	0.234490	0.950370	0.404530
C2621	C262	0.113900	0.922800	0.281000
H1321	H132	0.081960	0.935940	0.262930
C2631	C263	0.162300	0.939500	0.350000
C2641	C264	0.151700	0.982500	0.383000
C2651	C265	0.153000	0.013800	0.419700
C2661	C266	0.155100	0.055900	0.460300
C2671	C267	0.197500	0.068100	0.525000
H1331	H133	0.227490	0.048220	0.546000
C2681	C268	0.109200	0.083200	0.431600
H1341	H134	0.078900	0.073260	0.387800
C2691	C269	0.197600	0.109400	0.562000
H1351	H135	0.228370	0.119510	0.605160
C2701	C270	0.108400	0.124400	0.467600
H1361	H136	0.078360	0.144500	0.446270
C2711	C271	0.152300	0.136200	0.535600
C2721	C272	0.152000	0.180500	0.572100
C2731	C273	0.038700	0.665400	0.115200
C2741	C274	0.016900	0.620200	0.131300
C2751	C275	0.994200	0.638500	0.157000
H1371	H137	0.996910	0.675930	0.168570
C2761	C276	0.013700	0.566900	0.118600
H1381	H138	0.028360	0.554710	0.101370
C2771	C277	0.968700	0.604000	0.167000
H1391	H139	0.951110	0.618020	0.179570
C2781	C278	0.990100	0.526000	0.128400
H1401	H140	0.987880	0.488840	0.116620
C2791	C279	0.969800	0.545900	0.157800
C2801	C280	0.940100	0.511400	0.164700
C2811	C281	0.920500	0.478000	0.174500
C2821	C282	0.896500	0.439600	0.188400
C2831	C283	0.878200	0.389600	0.155600
H1411	H141	0.884660	0.377940	0.128000
C2841	C284	0.883100	0.458800	0.226300
H1421	H142	0.890470	0.495170	0.242680
C2851	C285	0.849500	0.355200	0.163100
H1431	H143	0.836460	0.321150	0.140600
C2861	C286	0.859200	0.422900	0.238400
H1441	H144	0.855610	0.432670	0.269490
C2871	C287	0.841400	0.374500	0.205600
C2881	C288	0.814600	0.331400	0.217900
Gd131	Gd13	0.594530	0.765220	0.600220
Gd141	Gd14	0.759770	0.734830	0.737620
O731	O73	0.642800	0.823100	0.590800
O741	O74	0.727200	0.808300	0.659800
O751	O75	0.656800	0.202500	0.214100
O761	O76	0.744900	0.199200	0.285600
O771	O77	0.627200	0.689700	0.673000
O781	O78	0.714200	0.681400	0.755000
O791	O79	0.613700	0.295700	0.048700
O801	O80	0.696800	0.304500	0.133200
O811	O81	0.559100	0.856200	0.593400
O821	O82	0.547000	0.789200	0.633000
O831	O83	0.303300	0.149400	0.751200
O841	O84	0.300900	0.216000	0.687500
C2891	C289	0.687600	0.834400	0.615500
C2901	C290	0.689200	0.879200	0.576900
C2911	C291	0.698100	0.149300	0.312100
C2921	C292	0.732600	0.885500	0.586700
H1451	H145	0.761020	0.862910	0.618240
C2931	C293	0.650700	0.916600	0.534500
H1461	H146	0.620920	0.912560	0.527120
C2941	C294	0.734400	0.925300	0.549600
H1471	H147	0.762770	0.925310	0.553580
C2951	C295	0.652600	0.957900	0.503500
H1481	H148	0.626050	0.983720	0.478180
C2961	C296	0.698000	0.963600	0.508800
C2971	C297	0.697000	0.004500	0.469800
C2981	C298	0.699800	0.038400	0.439300
C2991	C299	0.746500	0.091700	0.416700
H1491	H149	0.778010	0.077780	0.456040
C3001	C300	0.655600	0.097800	0.342000
H1501	H150	0.625190	0.089000	0.331310
C3011	C301	0.702100	0.077300	0.401600
C3021	C302	0.743900	0.126800	0.373300
H1511	H151	0.774500	0.136610	0.384950
C3031	C303	0.655000	0.132300	0.297700
H1521	H152	0.623410	0.143880	0.256480
C3041	C304	0.697800	0.187800	0.265600
C3051	C305	0.669000	0.668400	0.728700
C3061	C306	0.663200	0.629700	0.766200
C3071	C307	0.707200	0.607500	0.827000
H1531	H153	0.738990	0.617890	0.842390
C3081	C308	0.619400	0.612000	0.748000
H1541	H154	0.589320	0.626150	0.706690
C3091	C309	0.705200	0.568300	0.867200
H1551	H155	0.734490	0.549630	0.904530
C3101	C310	0.613900	0.577200	0.781000
H1561	H156	0.581960	0.564060	0.762930
C3111	C311	0.662300	0.560500	0.850000
C3121	C312	0.651700	0.517500	0.883000
C3131	C313	0.653000	0.486200	0.919700
C3141	C314	0.655100	0.444100	0.960300
C3151	C315	0.697500	0.431900	0.025000
H1571	H157	0.727490	0.451780	0.046000
C3161	C316	0.609200	0.416800	0.931600
H1581	H158	0.578900	0.426740	0.887800
C3171	C317	0.697600	0.390600	0.062000
H1591	H159	0.728370	0.380490	0.105160
C3181	C318	0.608400	0.375600	0.967600
H1601	H160	0.578360	0.355500	0.946270
C3191	C319	0.652300	0.363800	0.035600
C3201	C320	0.652000	0.319500	0.072100
C3211	C321	0.538700	0.834600	0.615200
C3221	C322	0.516900	0.879800	0.631300
C3231	C323	0.494200	0.861500	0.657000
H1611	H161	0.496910	0.824070	0.668570
C3241	C324	0.513700	0.933100	0.618600
H1621	H162	0.528360	0.945290	0.601370
C3251	C325	0.468700	0.896000	0.667000
H1631	H163	0.451110	0.881980	0.679570
C3261	C326	0.490100	0.974000	0.628400
H1641	H164	0.487880	0.011160	0.616620
C3271	C327	0.469800	0.954100	0.657800
C3281	C328	0.440100	0.988600	0.664700
C3291	C329	0.420500	0.022000	0.674500
C3301	C330	0.396500	0.060400	0.688400
C3311	C331	0.378200	0.110400	0.655600
H1651	H165	0.384660	0.122060	0.628000
C3321	C332	0.383100	0.041200	0.726300
H1661	H166	0.390470	0.004830	0.742680
C3331	C333	0.349500	0.144800	0.663100
H1671	H167	0.336460	0.178850	0.640600
C3341	C334	0.359200	0.077100	0.738400
H1681	H168	0.355610	0.067330	0.769490
C3351	C335	0.341400	0.125500	0.705600
C3361	C336	0.314600	0.168600	0.717900
Gd151	Gd15	0.094530	0.265220	0.600220
Gd161	Gd16	0.259770	0.234830	0.737620
O851	O85	0.142800	0.323100	0.590800
O861	O86	0.227200	0.308300	0.659800
O871	O87	0.156800	0.702500	0.214100
O881	O88	0.244900	0.699200	0.285600
O891	O89	0.127200	0.189700	0.673000
O901	O90	0.214200	0.181400	0.755000
O911	O91	0.113700	0.795700	0.048700
O921	O92	0.196800	0.804500	0.133200
O931	O93	0.059100	0.356200	0.593400
O941	O94	0.047000	0.289200	0.633000
O951	O95	0.803300	0.649400	0.751200
O961	O96	0.800900	0.716000	0.687500
C3371	C337	0.187600	0.334400	0.615500
C3381	C338	0.189200	0.379200	0.576900
C3391	C339	0.198100	0.649300	0.312100
C3401	C340	0.232600	0.385500	0.586700
H1691	H169	0.261020	0.362910	0.618240
C3411	C341	0.150700	0.416600	0.534500
H1701	H170	0.120920	0.412560	0.527120
C3421	C342	0.234400	0.425300	0.549600
H1711	H171	0.262770	0.425310	0.553580
C3431	C343	0.152600	0.457900	0.503500
H1721	H172	0.126050	0.483720	0.478180
C3441	C344	0.198000	0.463600	0.508800
C3451	C345	0.197000	0.504500	0.469800
C3461	C346	0.199800	0.538400	0.439300
C3471	C347	0.246500	0.591700	0.416700
H1731	H173	0.278010	0.577780	0.456040
C3481	C348	0.155600	0.597800	0.342000
H1741	H174	0.125190	0.589000	0.331310
C3491	C349	0.202100	0.577300	0.401600
C3501	C350	0.243900	0.626800	0.373300
H1751	H175	0.274500	0.636610	0.384950
C3511	C351	0.155000	0.632300	0.297700
H1761	H176	0.123410	0.643880	0.256480
C3521	C352	0.197800	0.687800	0.265600
C3531	C353	0.169000	0.168400	0.728700
C3541	C354	0.163200	0.129700	0.766200
C3551	C355	0.207200	0.107500	0.827000
H1771	H177	0.238990	0.117890	0.842390
C3561	C356	0.119400	0.112000	0.748000
H1781	H178	0.089320	0.126150	0.706690
C3571	C357	0.205200	0.068300	0.867200
H1791	H179	0.234490	0.049630	0.904530
C3581	C358	0.113900	0.077200	0.781000
H1801	H180	0.081960	0.064060	0.762930
C3591	C359	0.162300	0.060500	0.850000
C3601	C360	0.151700	0.017500	0.883000
C3611	C361	0.153000	0.986200	0.919700
C3621	C362	0.155100	0.944100	0.960300
C3631	C363	0.197500	0.931900	0.025000
H1811	H181	0.227490	0.951780	0.046000
C3641	C364	0.109200	0.916800	0.931600
H1821	H182	0.078900	0.926740	0.887800
C3651	C365	0.197600	0.890600	0.062000
H1831	H183	0.228370	0.880490	0.105160
C3661	C366	0.108400	0.875600	0.967600
H1841	H184	0.078360	0.855500	0.946270
C3671	C367	0.152300	0.863800	0.035600
C3681	C368	0.152000	0.819500	0.072100
C3691	C369	0.038700	0.334600	0.615200
C3701	C370	0.016900	0.379800	0.631300
C3711	C371	0.994200	0.361500	0.657000
H1851	H185	0.996910	0.324070	0.668570
C3721	C372	0.013700	0.433100	0.618600
H1861	H186	0.028360	0.445290	0.601370
C3731	C373	0.968700	0.396000	0.667000
H1871	H187	0.951110	0.381980	0.679570
C3741	C374	0.990100	0.474000	0.628400
H1881	H188	0.987880	0.511160	0.616620
C3751	C375	0.969800	0.454100	0.657800
C3761	C376	0.940100	0.488600	0.664700
C3771	C377	0.920500	0.522000	0.674500
C3781	C378	0.896500	0.560400	0.688400
C3791	C379	0.878200	0.610400	0.655600
H1891	H189	0.884660	0.622060	0.628000
C3801	C380	0.883100	0.541200	0.726300
H1901	H190	0.890470	0.504830	0.742680
C3811	C381	0.849500	0.644800	0.663100
H1911	H191	0.836460	0.678850	0.640600
C3821	C382	0.859200	0.577100	0.738400
H1921	H192	0.855610	0.567330	0.769490
C3831	C383	0.841400	0.625500	0.705600
C3841	C384	0.814600	0.668600	0.717900
