data_MANLOD_manual_PM
_symmetry_space_group_name_H-M	'P1'
_cell_length_a	28.342500
_cell_length_b	28.342500
_cell_length_c	28.342500
_cell_angle_alpha	109.471000
_cell_angle_beta	109.471000
_cell_angle_gamma	109.471000
_symmetry_Int_Tables_number 1

loop_
_symmetry_equiv_pos_as_xyz
'x,y,z'

loop_
_atom_site_label
_atom_site_type_symbol
_atom_site_fract_x
_atom_site_fract_y
_atom_site_fract_z
H11	H1	0.585660	0.135880	0.062990
H21	H2	0.620380	0.216220	0.038630
H31	H3	0.471390	0.098190	0.869180
H41	H4	0.445240	0.030140	0.899950
H51	H5	0.660870	0.190490	0.897750
H61	H6	0.585110	0.129410	0.855220
H71	H7	0.628860	0.156920	0.933830
C11	C1	0.560710	0.127860	0.017570
C21	C2	0.579100	0.173200	0.004500
C31	C3	0.545600	0.161900	0.951300
C41	C4	0.500100	0.110300	0.915400
C51	C5	0.487120	0.073400	0.930720
C61	C6	0.565800	0.208100	0.936900
C71	C7	0.599000	0.210700	0.912100
C81	C8	0.619600	0.169600	0.899000
N11	N1	0.517380	0.077620	0.981560
H81	H8	0.572900	0.522670	0.437010
H91	H9	0.677590	0.581750	0.461370
H101	H10	0.729010	0.602210	0.630820
H111	H11	0.630200	0.545290	0.600050
H121	H12	0.725800	0.699230	0.562240
H131	H13	0.797740	0.766290	0.610790
H141	H14	0.766470	0.722510	0.640160
C91	C9	0.610290	0.543140	0.482430
C101	C10	0.668700	0.574600	0.495500
C111	C11	0.710600	0.594300	0.548700
C121	C12	0.694900	0.584700	0.584600
C131	C13	0.642680	0.556400	0.569280
C141	C14	0.771200	0.628900	0.563100
C151	C15	0.798600	0.686900	0.587900
C161	C16	0.770600	0.720600	0.601000
N21	N2	0.596060	0.535820	0.518440
H151	H15	0.927100	0.364120	0.949780
H161	H16	0.822410	0.283780	0.904160
H171	H17	0.770990	0.401810	0.873200
H181	H18	0.869800	0.469860	0.915100
H191	H19	0.771320	0.331620	0.974360
H201	H20	0.699330	0.316310	0.967130
H211	H21	0.739340	0.375260	0.956540
C171	C17	0.889710	0.372140	0.932850
C181	C18	0.831300	0.326800	0.905900
C191	C19	0.789400	0.338100	0.883700
C201	C20	0.805100	0.389700	0.889800
C211	C21	0.857320	0.426600	0.913720
C221	C22	0.728800	0.291900	0.857700
C231	C23	0.701400	0.289300	0.888300
C241	C24	0.729400	0.330400	0.950000
N31	N3	0.903940	0.422380	0.939760
H221	H22	0.914340	0.977330	0.550220
H231	H23	0.879620	0.918250	0.595840
H241	H24	0.028610	0.897790	0.626800
H251	H25	0.054760	0.954710	0.584900
H261	H26	0.835380	0.740770	0.528100
H271	H27	0.911200	0.763480	0.544310
H281	H28	0.878590	0.807720	0.529570
C251	C25	0.939290	0.956860	0.567150
C261	C26	0.920900	0.925400	0.594100
C271	C27	0.954400	0.905700	0.616300
C281	C28	0.999900	0.915300	0.610200
C291	C29	0.012880	0.943600	0.586280
C301	C30	0.934200	0.871100	0.642300
C311	C31	0.901000	0.813100	0.611700
C321	C32	0.880400	0.779400	0.550000
N41	N4	0.982620	0.964180	0.560240
H291	H29	0.062990	0.585660	0.135880
H301	H30	0.038630	0.620380	0.216220
H311	H31	0.869180	0.471390	0.098190
H321	H32	0.899950	0.445240	0.030140
H331	H33	0.852930	0.587720	0.132060
H341	H34	0.930470	0.623370	0.152530
H351	H35	0.903400	0.663740	0.192220
C331	C33	0.017570	0.560710	0.127860
C341	C34	0.004500	0.579100	0.173200
C351	C35	0.951300	0.545600	0.161900
C361	C36	0.915400	0.500100	0.110300
C371	C37	0.930720	0.487120	0.073400
C381	C38	0.936900	0.565800	0.208100
C391	C39	0.912100	0.599000	0.210700
C401	C40	0.899000	0.619600	0.169600
N51	N5	0.981560	0.517380	0.077620
H361	H36	0.437010	0.572900	0.522670
H371	H37	0.461370	0.677590	0.581750
H381	H38	0.630820	0.729010	0.602210
H391	H39	0.600050	0.630200	0.545290
H401	H40	0.639240	0.765120	0.721260
H411	H41	0.561720	0.726410	0.700060
H421	H42	0.612240	0.798480	0.766700
C411	C41	0.482430	0.610290	0.543140
C421	C42	0.495500	0.668700	0.574600
C431	C43	0.548700	0.710600	0.594300
C441	C44	0.584600	0.694900	0.584700
C451	C45	0.569280	0.642680	0.556400
C461	C46	0.563100	0.771200	0.628900
C471	C47	0.587900	0.798600	0.686900
C481	C48	0.601000	0.770600	0.720600
N61	N6	0.518440	0.596060	0.535820
H431	H43	0.949780	0.927100	0.364120
H441	H44	0.904160	0.822410	0.283780
H451	H45	0.873200	0.770990	0.401810
H461	H46	0.915100	0.869800	0.469860
H471	H47	0.971310	0.710390	0.308070
H481	H48	0.955660	0.721810	0.368480
H491	H49	0.971060	0.777790	0.346630
C491	C49	0.932850	0.889710	0.372140
C501	C50	0.905900	0.831300	0.326800
C511	C51	0.883700	0.789400	0.338100
C521	C52	0.889800	0.805100	0.389700
C531	C53	0.913720	0.857320	0.426600
C541	C54	0.857700	0.728800	0.291900
C551	C55	0.888300	0.701400	0.289300
C561	C56	0.950000	0.729400	0.330400
N71	N7	0.939760	0.903940	0.422380
H501	H50	0.550220	0.914340	0.977330
H511	H51	0.595840	0.879620	0.918250
H521	H52	0.626800	0.028610	0.897790
H531	H53	0.584900	0.054760	0.954710
H541	H54	0.523980	0.843800	0.784440
H551	H55	0.536720	0.863970	0.731880
H561	H56	0.541280	0.917400	0.795650
C571	C57	0.567150	0.939290	0.956860
C581	C58	0.594100	0.920900	0.925400
C591	C59	0.616300	0.954400	0.905700
C601	C60	0.610200	0.999900	0.915300
C611	C61	0.586280	0.012880	0.943600
C621	C62	0.642300	0.934200	0.871100
C631	C63	0.611700	0.901000	0.813100
C641	C64	0.550000	0.880400	0.779400
N81	N8	0.560240	0.982620	0.964180
H571	H57	0.135880	0.062990	0.585660
H581	H58	0.216220	0.038630	0.620380
H591	H59	0.098190	0.869180	0.471390
H601	H60	0.030140	0.899950	0.445240
H611	H61	0.185990	0.887260	0.654100
H621	H62	0.125750	0.861090	0.581930
H631	H63	0.165070	0.938450	0.638810
C651	C65	0.127860	0.017570	0.560710
C661	C66	0.173200	0.004500	0.579100
C671	C67	0.161900	0.951300	0.545600
C681	C68	0.110300	0.915400	0.500100
C691	C69	0.073400	0.930720	0.487120
C701	C70	0.208100	0.936900	0.565800
C711	C71	0.210700	0.912100	0.599000
C721	C72	0.169600	0.899000	0.619600
N91	N9	0.077620	0.981560	0.517380
H641	H64	0.522670	0.437010	0.572900
H651	H65	0.581750	0.461370	0.677590
H661	H66	0.602210	0.630820	0.729010
H671	H67	0.545290	0.600050	0.630200
H681	H68	0.692520	0.570320	0.721930
H691	H69	0.759690	0.595410	0.787940
H701	H70	0.735820	0.647470	0.780140
C731	C73	0.543140	0.482430	0.610290
C741	C74	0.574600	0.495500	0.668700
C751	C75	0.594300	0.548700	0.710600
C761	C76	0.584700	0.584600	0.694900
C771	C77	0.556400	0.569280	0.642680
C781	C78	0.628900	0.563100	0.771200
C791	C79	0.686900	0.587900	0.798600
C801	C80	0.720600	0.601000	0.770600
N101	N10	0.535820	0.518440	0.596060
H711	H71	0.364120	0.949780	0.927100
H721	H72	0.283780	0.904160	0.822410
H731	H73	0.401810	0.873200	0.770990
H741	H74	0.469860	0.915100	0.869800
H751	H75	0.308280	0.971160	0.709870
H761	H76	0.368840	0.955660	0.722440
H771	H77	0.346060	0.971210	0.777680
C811	C81	0.372140	0.932850	0.889710
C821	C82	0.326800	0.905900	0.831300
C831	C83	0.338100	0.883700	0.789400
C841	C84	0.389700	0.889800	0.805100
C851	C85	0.426600	0.913720	0.857320
C861	C86	0.291900	0.857700	0.728800
C871	C87	0.289300	0.888300	0.701400
C881	C88	0.330400	0.950000	0.729400
N111	N11	0.422380	0.939760	0.903940
H781	H78	0.977330	0.550220	0.914340
H791	H79	0.918250	0.595840	0.879620
H801	H80	0.897790	0.626800	0.028610
H811	H81	0.954710	0.584900	0.054760
H821	H82	0.801520	0.526790	0.864290
H831	H83	0.734140	0.531150	0.843560
H841	H84	0.776310	0.544030	0.917310
C891	C89	0.956860	0.567150	0.939290
C901	C90	0.925400	0.594100	0.920900
C911	C91	0.905700	0.616300	0.954400
C921	C92	0.915300	0.610200	0.999900
C931	C93	0.943600	0.586280	0.012880
C941	C94	0.871100	0.642300	0.934200
C951	C95	0.813100	0.611700	0.901000
C961	C96	0.779400	0.550000	0.880400
N121	N12	0.964180	0.560240	0.982620
H851	H85	0.977330	0.927100	0.062990
H861	H86	0.918250	0.822410	0.038630
H871	H87	0.897790	0.770990	0.869180
H881	H88	0.954710	0.869800	0.899950
H891	H89	0.733840	0.695260	0.861520
H901	H90	0.801000	0.761270	0.886620
H911	H91	0.777130	0.753470	0.938670
C971	C97	0.956860	0.889710	0.017570
C981	C98	0.925400	0.831300	0.004500
C991	C99	0.905700	0.789400	0.951300
C1001	C100	0.915300	0.805100	0.915400
C1011	C101	0.943600	0.857320	0.930720
C1021	C102	0.871100	0.728800	0.936900
C1031	C103	0.813100	0.701400	0.912100
C1041	C104	0.779400	0.729400	0.899000
N131	N13	0.964180	0.903940	0.981560
H921	H92	0.364120	0.914340	0.437010
H931	H93	0.283780	0.879620	0.461370
H941	H94	0.401810	0.028610	0.630820
H951	H95	0.469860	0.054760	0.600050
H961	H96	0.368120	0.904210	0.596060
H971	H97	0.307870	0.832040	0.569880
H981	H98	0.347200	0.888920	0.647250
C1051	C105	0.372140	0.939290	0.482430
C1061	C106	0.326800	0.920900	0.495500
C1071	C107	0.338100	0.954400	0.548700
C1081	C108	0.389700	0.999900	0.584600
C1091	C109	0.426600	0.012880	0.569280
C1101	C110	0.291900	0.934200	0.563100
C1111	C111	0.289300	0.901000	0.587900
C1121	C112	0.330400	0.880400	0.601000
N141	N14	0.422380	0.982620	0.518440
H991	H99	0.522670	0.585660	0.949780
H1001	H100	0.581750	0.620380	0.904160
H1011	H101	0.602210	0.471390	0.873200
H1021	H102	0.545290	0.445240	0.915100
H1031	H103	0.760210	0.614180	0.958810
H1041	H104	0.692820	0.593450	0.963170
H1051	H105	0.735000	0.667200	0.976050
C1131	C113	0.543140	0.560710	0.932850
C1141	C114	0.574600	0.579100	0.905900
C1151	C115	0.594300	0.545600	0.883700
C1161	C116	0.584700	0.500100	0.889800
C1171	C117	0.556400	0.487120	0.913720
C1181	C118	0.628900	0.565800	0.857700
C1191	C119	0.686900	0.599000	0.888300
C1201	C120	0.720600	0.619600	0.950000
N151	N15	0.535820	0.517380	0.939760
H1061	H106	0.135880	0.572900	0.550220
H1071	H107	0.216220	0.677590	0.595840
H1081	H108	0.098190	0.729010	0.626800
H1091	H109	0.030140	0.630200	0.584900
H1101	H110	0.126160	0.736540	0.539140
H1111	H111	0.186720	0.749110	0.523640
H1121	H112	0.163940	0.804350	0.539190
C1211	C121	0.127860	0.610290	0.567150
C1221	C122	0.173200	0.668700	0.594100
C1231	C123	0.161900	0.710600	0.616300
C1241	C124	0.110300	0.694900	0.610200
C1251	C125	0.073400	0.642680	0.586280
C1261	C126	0.208100	0.771200	0.642300
C1271	C127	0.210700	0.798600	0.611700
C1281	C128	0.169600	0.770600	0.550000
N161	N16	0.077620	0.596060	0.560240
H1131	H113	0.572900	0.550220	0.135880
H1141	H114	0.677590	0.595840	0.216220
H1151	H115	0.729010	0.626800	0.098190
H1161	H116	0.630200	0.584900	0.030140
H1171	H117	0.798000	0.542350	0.149490
H1181	H118	0.726000	0.535110	0.134180
H1191	H119	0.766010	0.524520	0.193130
C1291	C129	0.610290	0.567150	0.127860
C1301	C130	0.668700	0.594100	0.173200
C1311	C131	0.710600	0.616300	0.161900
C1321	C132	0.694900	0.610200	0.110300
C1331	C133	0.642680	0.586280	0.073400
C1341	C134	0.771200	0.642300	0.208100
C1351	C135	0.798600	0.611700	0.210700
C1361	C136	0.770600	0.550000	0.169600
N171	N17	0.596060	0.560240	0.077620
H1201	H120	0.585660	0.949780	0.522670
H1211	H121	0.620380	0.904160	0.581750
H1221	H122	0.471390	0.873200	0.602210
H1231	H123	0.445240	0.915100	0.545290
H1241	H124	0.585270	0.960110	0.699460
H1251	H125	0.661090	0.976320	0.722160
H1261	H126	0.628480	0.961590	0.766410
C1371	C137	0.560710	0.932850	0.543140
C1381	C138	0.579100	0.905900	0.574600
C1391	C139	0.545600	0.883700	0.594300
C1401	C140	0.500100	0.889800	0.584700
C1411	C141	0.487120	0.913720	0.556400
C1421	C142	0.565800	0.857700	0.628900
C1431	C143	0.599000	0.888300	0.686900
C1441	C144	0.619600	0.950000	0.720600
N181	N18	0.517380	0.939760	0.535820
H1271	H127	0.914340	0.437010	0.364120
H1281	H128	0.879620	0.461370	0.283780
H1291	H129	0.028610	0.630820	0.401810
H1301	H130	0.054760	0.600050	0.469860
H1311	H131	0.910980	0.606550	0.372610
H1321	H132	0.835220	0.564020	0.311540
H1331	H133	0.878970	0.642630	0.339040
C1451	C145	0.939290	0.482430	0.372140
C1461	C146	0.920900	0.495500	0.326800
C1471	C147	0.954400	0.548700	0.338100
C1481	C148	0.999900	0.584600	0.389700
C1491	C149	0.012880	0.569280	0.426600
C1501	C150	0.934200	0.563100	0.291900
C1511	C151	0.901000	0.587900	0.289300
C1521	C152	0.880400	0.601000	0.330400
N191	N19	0.982620	0.518440	0.422380
H1341	H134	0.927100	0.062990	0.977330
H1351	H135	0.822410	0.038630	0.918250
H1361	H136	0.770990	0.869180	0.897790
H1371	H137	0.869800	0.899950	0.954710
H1381	H138	0.699130	0.853450	0.740540
H1391	H139	0.771070	0.901990	0.807600
H1401	H140	0.739800	0.931370	0.763830
C1531	C153	0.889710	0.017570	0.956860
C1541	C154	0.831300	0.004500	0.925400
C1551	C155	0.789400	0.951300	0.905700
C1561	C156	0.805100	0.915400	0.915300
C1571	C157	0.857320	0.930720	0.943600
C1581	C158	0.728800	0.936900	0.871100
C1591	C159	0.701400	0.912100	0.813100
C1601	C160	0.729400	0.899000	0.779400
N201	N20	0.903940	0.981560	0.964180
H1411	H141	0.949780	0.522670	0.585660
H1421	H142	0.904160	0.581750	0.620380
H1431	H143	0.873200	0.602210	0.471390
H1441	H144	0.915100	0.545290	0.445240
H1451	H145	0.956000	0.743130	0.593690
H1461	H146	0.968730	0.690570	0.613860
H1471	H147	0.973290	0.754330	0.667290
C1611	C161	0.932850	0.543140	0.560710
C1621	C162	0.905900	0.574600	0.579100
C1631	C163	0.883700	0.594300	0.545600
C1641	C164	0.889800	0.584700	0.500100
C1651	C165	0.913720	0.556400	0.487120
C1661	C166	0.857700	0.628900	0.565800
C1671	C167	0.888300	0.686900	0.599000
C1681	C168	0.950000	0.720600	0.619600
N211	N21	0.939760	0.535820	0.517380
H1481	H148	0.550220	0.135880	0.572900
H1491	H149	0.595840	0.216220	0.677590
H1501	H150	0.626800	0.098190	0.729010
H1511	H151	0.584900	0.030140	0.630200
H1521	H152	0.539290	0.125950	0.737070
H1531	H153	0.523640	0.186360	0.748480
H1541	H154	0.539040	0.164510	0.804460
C1691	C169	0.567150	0.127860	0.610290
C1701	C170	0.594100	0.173200	0.668700
C1711	C171	0.616300	0.161900	0.710600
C1721	C172	0.610200	0.110300	0.694900
C1731	C173	0.586280	0.073400	0.642680
C1741	C174	0.642300	0.208100	0.771200
C1751	C175	0.611700	0.210700	0.798600
C1761	C176	0.550000	0.169600	0.770600
N221	N22	0.560240	0.077620	0.596060
H1551	H155	0.062990	0.977330	0.927100
H1561	H156	0.038630	0.918250	0.822410
H1571	H157	0.869180	0.897790	0.770990
H1581	H158	0.899950	0.954710	0.869800
H1591	H159	0.930440	0.762580	0.738450
H1601	H160	0.852920	0.741380	0.699730
H1611	H161	0.903450	0.808020	0.771810
C1771	C177	0.017570	0.956860	0.889710
C1781	C178	0.004500	0.925400	0.831300
C1791	C179	0.951300	0.905700	0.789400
C1801	C180	0.915400	0.915300	0.805100
C1811	C181	0.930720	0.943600	0.857320
C1821	C182	0.936900	0.871100	0.728800
C1831	C183	0.912100	0.813100	0.701400
C1841	C184	0.899000	0.779400	0.729400
N231	N23	0.981560	0.964180	0.903940
H1621	H162	0.437010	0.364120	0.914340
H1631	H163	0.461370	0.283780	0.879620
H1641	H164	0.630820	0.401810	0.028610
H1651	H165	0.600050	0.469860	0.054760
H1661	H166	0.561730	0.314190	0.837830
H1671	H167	0.639270	0.334660	0.873480
H1681	H168	0.612200	0.374350	0.913850
C1851	C185	0.482430	0.372140	0.939290
C1861	C186	0.495500	0.326800	0.920900
C1871	C187	0.548700	0.338100	0.954400
C1881	C188	0.584600	0.389700	0.999900
C1891	C189	0.569280	0.426600	0.012880
C1901	C190	0.563100	0.291900	0.934200
C1911	C191	0.587900	0.289300	0.901000
C1921	C192	0.601000	0.330400	0.880400
N241	N24	0.518440	0.422380	0.982620
H1691	H169	0.414340	0.864120	0.937010
H1701	H170	0.379620	0.783780	0.961370
H1711	H171	0.528610	0.901810	0.130820
H1721	H172	0.554760	0.969860	0.100050
H1731	H173	0.335220	0.811540	0.064020
H1741	H174	0.410980	0.872610	0.106550
H1751	H175	0.378970	0.839040	0.142630
C1931	C193	0.439290	0.872140	0.982430
C1941	C194	0.420900	0.826800	0.995500
C1951	C195	0.454400	0.838100	0.048700
C1961	C196	0.499900	0.889700	0.084600
C1971	C197	0.512880	0.926600	0.069280
C1981	C198	0.434200	0.791900	0.063100
C1991	C199	0.401000	0.789300	0.087900
C2001	C200	0.380400	0.830400	0.101000
N251	N25	0.482620	0.922380	0.018440
H1761	H176	0.427100	0.477330	0.562990
H1771	H177	0.322410	0.418250	0.538630
H1781	H178	0.270990	0.397790	0.369180
H1791	H179	0.369800	0.454710	0.399950
H1801	H180	0.271070	0.307600	0.401990
H1811	H181	0.199130	0.240540	0.353450
H1821	H182	0.239800	0.263830	0.431370
C2011	C201	0.389710	0.456860	0.517570
C2021	C202	0.331300	0.425400	0.504500
C2031	C203	0.289400	0.405700	0.451300
C2041	C204	0.305100	0.415300	0.415400
C2051	C205	0.357320	0.443600	0.430720
C2061	C206	0.228800	0.371100	0.436900
C2071	C207	0.201400	0.313100	0.412100
C2081	C208	0.229400	0.279400	0.399000
N261	N26	0.403940	0.464180	0.481560
H1831	H183	0.072900	0.635880	0.050220
H1841	H184	0.177590	0.716220	0.095840
H1851	H185	0.229010	0.598190	0.126800
H1861	H186	0.130200	0.530140	0.084900
H1871	H187	0.226000	0.634180	0.035110
H1881	H188	0.298000	0.649490	0.042350
H1891	H189	0.266010	0.693130	0.024520
C2091	C209	0.110290	0.627860	0.067150
C2101	C210	0.168700	0.673200	0.094100
C2111	C211	0.210600	0.661900	0.116300
C2121	C212	0.194900	0.610300	0.110200
C2131	C213	0.142680	0.573400	0.086280
C2141	C214	0.271200	0.708100	0.142300
C2151	C215	0.298600	0.710700	0.111700
C2161	C216	0.270600	0.669600	0.050000
N271	N27	0.096060	0.577620	0.060240
H1901	H190	0.085660	0.022670	0.449780
H1911	H191	0.120380	0.081750	0.404160
H1921	H192	0.971390	0.102210	0.373200
H1931	H193	0.945240	0.045290	0.415100
H1941	H194	0.161090	0.222160	0.476320
H1951	H195	0.085270	0.199460	0.460110
H1961	H196	0.128480	0.266410	0.461590
C2171	C217	0.060710	0.043140	0.432850
C2181	C218	0.079100	0.074600	0.405900
C2191	C219	0.045600	0.094300	0.383700
C2201	C220	0.000100	0.084700	0.389800
C2211	C221	0.987120	0.056400	0.413720
C2221	C222	0.065800	0.128900	0.357700
C2231	C223	0.099000	0.186900	0.388300
C2241	C224	0.119600	0.220600	0.450000
N281	N28	0.017380	0.035820	0.439760
H1971	H197	0.937010	0.414340	0.864120
H1981	H198	0.961370	0.379620	0.783780
H1991	H199	0.130820	0.528610	0.901810
H2001	H200	0.100050	0.554760	0.969860
H2011	H201	0.139270	0.373480	0.834660
H2021	H202	0.061730	0.337830	0.814190
H2031	H203	0.112200	0.413850	0.874350
C2251	C225	0.982430	0.439290	0.872140
C2261	C226	0.995500	0.420900	0.826800
C2271	C227	0.048700	0.454400	0.838100
C2281	C228	0.084600	0.499900	0.889700
C2291	C229	0.069280	0.512880	0.926600
C2301	C230	0.063100	0.434200	0.791900
C2311	C231	0.087900	0.401000	0.789300
C2321	C232	0.101000	0.380400	0.830400
N291	N29	0.018440	0.482620	0.922380
H2041	H204	0.562990	0.427100	0.477330
H2051	H205	0.538630	0.322410	0.418250
H2061	H206	0.369180	0.270990	0.397790
H2071	H207	0.399950	0.369800	0.454710
H2081	H208	0.352920	0.199730	0.241380
H2091	H209	0.430440	0.238450	0.262580
H2101	H210	0.403450	0.271810	0.308020
C2331	C233	0.517570	0.389710	0.456860
C2341	C234	0.504500	0.331300	0.425400
C2351	C235	0.451300	0.289400	0.405700
C2361	C236	0.415400	0.305100	0.415300
C2371	C237	0.430720	0.357320	0.443600
C2381	C238	0.436900	0.228800	0.371100
C2391	C239	0.412100	0.201400	0.313100
C2401	C240	0.399000	0.229400	0.279400
N301	N30	0.481560	0.403940	0.464180
H2111	H211	0.050220	0.072900	0.635880
H2121	H212	0.095840	0.177590	0.716220
H2131	H213	0.126800	0.229010	0.598190
H2141	H214	0.084900	0.130200	0.530140
H2151	H215	0.023640	0.248480	0.686360
H2161	H216	0.039290	0.237070	0.625950
H2171	H217	0.039040	0.304460	0.664510
C2411	C241	0.067150	0.110290	0.627860
C2421	C242	0.094100	0.168700	0.673200
C2431	C243	0.116300	0.210600	0.661900
C2441	C244	0.110200	0.194900	0.610300
C2451	C245	0.086280	0.142680	0.573400
C2461	C246	0.142300	0.271200	0.708100
C2471	C247	0.111700	0.298600	0.710700
C2481	C248	0.050000	0.270600	0.669600
N311	N31	0.060240	0.096060	0.577620
H2181	H218	0.449780	0.085660	0.022670
H2191	H219	0.404160	0.120380	0.081750
H2201	H220	0.373200	0.971390	0.102210
H2211	H221	0.415100	0.945240	0.045290
H2221	H222	0.468730	0.113860	0.190570
H2231	H223	0.456000	0.093690	0.243130
H2241	H224	0.473290	0.167290	0.254330
C2491	C249	0.432850	0.060710	0.043140
C2501	C250	0.405900	0.079100	0.074600
C2511	C251	0.383700	0.045600	0.094300
C2521	C252	0.389800	0.000100	0.084700
C2531	C253	0.413720	0.987120	0.056400
C2541	C254	0.357700	0.065800	0.128900
C2551	C255	0.388300	0.099000	0.186900
C2561	C256	0.450000	0.119600	0.220600
N321	N32	0.439760	0.017380	0.035820
H2251	H225	0.864120	0.937010	0.414340
H2261	H226	0.783780	0.961370	0.379620
H2271	H227	0.901810	0.130820	0.528610
H2281	H228	0.969860	0.100050	0.554760
H2291	H229	0.807870	0.069880	0.332040
H2301	H230	0.868120	0.096060	0.404210
H2311	H231	0.847200	0.147250	0.388920
C2571	C257	0.872140	0.982430	0.439290
C2581	C258	0.826800	0.995500	0.420900
C2591	C259	0.838100	0.048700	0.454400
C2601	C260	0.889700	0.084600	0.499900
C2611	C261	0.926600	0.069280	0.512880
C2621	C262	0.791900	0.063100	0.434200
C2631	C263	0.789300	0.087900	0.401000
C2641	C264	0.830400	0.101000	0.380400
N331	N33	0.922380	0.018440	0.482620
H2321	H232	0.477330	0.562990	0.427100
H2331	H233	0.418250	0.538630	0.322410
H2341	H234	0.397790	0.369180	0.270990
H2351	H235	0.454710	0.399950	0.369800
H2361	H236	0.301000	0.386620	0.261270
H2371	H237	0.233840	0.361520	0.195260
H2381	H238	0.277130	0.438670	0.253470
C2651	C265	0.456860	0.517570	0.389710
C2661	C266	0.425400	0.504500	0.331300
C2671	C267	0.405700	0.451300	0.289400
C2681	C268	0.415300	0.415400	0.305100
C2691	C269	0.443600	0.430720	0.357320
C2701	C270	0.371100	0.436900	0.228800
C2711	C271	0.313100	0.412100	0.201400
C2721	C272	0.279400	0.399000	0.229400
N341	N34	0.464180	0.481560	0.403940
H2391	H239	0.635880	0.050220	0.072900
H2401	H240	0.716220	0.095840	0.177590
H2411	H241	0.598190	0.126800	0.229010
H2421	H242	0.530140	0.084900	0.130200
H2431	H243	0.686720	0.023640	0.249110
H2441	H244	0.626160	0.039140	0.236540
H2451	H245	0.663940	0.039190	0.304350
C2731	C273	0.627860	0.067150	0.110290
C2741	C274	0.673200	0.094100	0.168700
C2751	C275	0.661900	0.116300	0.210600
C2761	C276	0.610300	0.110200	0.194900
C2771	C277	0.573400	0.086280	0.142680
C2781	C278	0.708100	0.142300	0.271200
C2791	C279	0.710700	0.111700	0.298600
C2801	C280	0.669600	0.050000	0.270600
N351	N35	0.577620	0.060240	0.096060
H2461	H246	0.022670	0.449780	0.085660
H2471	H247	0.081750	0.404160	0.120380
H2481	H248	0.102210	0.373200	0.971390
H2491	H249	0.045290	0.415100	0.945240
H2501	H250	0.192820	0.463170	0.093450
H2511	H251	0.260210	0.458810	0.114180
H2521	H252	0.235000	0.476050	0.167200
C2811	C281	0.043140	0.432850	0.060710
C2821	C282	0.074600	0.405900	0.079100
C2831	C283	0.094300	0.383700	0.045600
C2841	C284	0.084700	0.389800	0.000100
C2851	C285	0.056400	0.413720	0.987120
C2861	C286	0.128900	0.357700	0.065800
C2871	C287	0.186900	0.388300	0.099000
C2881	C288	0.220600	0.450000	0.119600
N361	N36	0.035820	0.439760	0.017380
H2531	H253	0.022670	0.072900	0.937010
H2541	H254	0.081750	0.177590	0.961370
H2551	H255	0.102210	0.229010	0.130820
H2561	H256	0.045290	0.130200	0.100050
H2571	H257	0.259690	0.287940	0.095410
H2581	H258	0.192520	0.221930	0.070320
H2591	H259	0.235820	0.280140	0.147470
C2891	C289	0.043140	0.110290	0.982430
C2901	C290	0.074600	0.168700	0.995500
C2911	C291	0.094300	0.210600	0.048700
C2921	C292	0.084700	0.194900	0.084600
C2931	C293	0.056400	0.142680	0.069280
C2941	C294	0.128900	0.271200	0.063100
C2951	C295	0.186900	0.298600	0.087900
C2961	C296	0.220600	0.270600	0.101000
N371	N37	0.035820	0.096060	0.018440
H2601	H260	0.635880	0.085660	0.562990
H2611	H261	0.716220	0.120380	0.538630
H2621	H262	0.598190	0.971390	0.369180
H2631	H263	0.530140	0.945240	0.399950
H2641	H264	0.625750	0.081930	0.361090
H2651	H265	0.685990	0.154100	0.387260
H2661	H266	0.665070	0.138810	0.438450
C2971	C297	0.627860	0.060710	0.517570
C2981	C298	0.673200	0.079100	0.504500
C2991	C299	0.661900	0.045600	0.451300
C3001	C300	0.610300	0.000100	0.415400
C3011	C301	0.573400	0.987120	0.430720
C3021	C302	0.708100	0.065800	0.436900
C3031	C303	0.710700	0.099000	0.412100
C3041	C304	0.669600	0.119600	0.399000
N381	N38	0.577620	0.017380	0.481560
H2671	H267	0.477330	0.414340	0.050220
H2681	H268	0.418250	0.379620	0.095840
H2691	H269	0.397790	0.528610	0.126800
H2701	H270	0.454710	0.554760	0.084900
H2711	H271	0.234140	0.343560	0.031150
H2721	H272	0.301520	0.364290	0.026790
H2731	H273	0.276310	0.417310	0.044030
C3051	C305	0.456860	0.439290	0.067150
C3061	C306	0.425400	0.420900	0.094100
C3071	C307	0.405700	0.454400	0.116300
C3081	C308	0.415300	0.499900	0.110200
C3091	C309	0.443600	0.512880	0.086280
C3101	C310	0.371100	0.434200	0.142300
C3111	C311	0.313100	0.401000	0.111700
C3121	C312	0.279400	0.380400	0.050000
N391	N39	0.464180	0.482620	0.060240
H2741	H274	0.864120	0.427100	0.449780
H2751	H275	0.783780	0.322410	0.404160
H2761	H276	0.901810	0.270990	0.373200
H2771	H277	0.969860	0.369800	0.415100
H2781	H278	0.868840	0.222440	0.455660
H2791	H279	0.808280	0.209870	0.471160
H2801	H280	0.846060	0.277680	0.471210
C3131	C313	0.872140	0.389710	0.432850
C3141	C314	0.826800	0.331300	0.405900
C3151	C315	0.838100	0.289400	0.383700
C3161	C316	0.889700	0.305100	0.389800
C3171	C317	0.926600	0.357320	0.413720
C3181	C318	0.791900	0.228800	0.357700
C3191	C319	0.789300	0.201400	0.388300
C3201	C320	0.830400	0.229400	0.450000
N401	N40	0.922380	0.403940	0.439760
H2811	H281	0.427100	0.449780	0.864120
H2821	H282	0.322410	0.404160	0.783780
H2831	H283	0.270990	0.373200	0.901810
H2841	H284	0.369800	0.415100	0.969860
H2851	H285	0.199330	0.467130	0.816310
H2861	H286	0.271320	0.474360	0.831620
H2871	H287	0.239340	0.456540	0.875260
C3211	C321	0.389710	0.432850	0.872140
C3221	C322	0.331300	0.405900	0.826800
C3231	C323	0.289400	0.383700	0.838100
C3241	C324	0.305100	0.389800	0.889700
C3251	C325	0.357320	0.413720	0.926600
C3261	C326	0.228800	0.357700	0.791900
C3271	C327	0.201400	0.388300	0.789300
C3281	C328	0.229400	0.450000	0.830400
N411	N41	0.403940	0.439760	0.922380
H2881	H288	0.414340	0.050220	0.477330
H2891	H289	0.379620	0.095840	0.418250
H2901	H290	0.528610	0.126800	0.397790
H2911	H291	0.554760	0.084900	0.454710
H2921	H292	0.411200	0.044310	0.263480
H2931	H293	0.335380	0.028100	0.240770
H2941	H294	0.378590	0.029570	0.307720
C3291	C329	0.439290	0.067150	0.456860
C3301	C330	0.420900	0.094100	0.425400
C3311	C331	0.454400	0.116300	0.405700
C3321	C332	0.499900	0.110200	0.415300
C3331	C333	0.512880	0.086280	0.443600
C3341	C334	0.434200	0.142300	0.371100
C3351	C335	0.401000	0.111700	0.313100
C3361	C336	0.380400	0.050000	0.279400
N421	N42	0.482620	0.060240	0.464180
H2951	H295	0.085660	0.562990	0.635880
H2961	H296	0.120380	0.538630	0.716220
H2971	H297	0.971390	0.369180	0.598190
H2981	H298	0.945240	0.399950	0.530140
H2991	H299	0.085110	0.355220	0.629410
H3001	H300	0.160870	0.397750	0.690490
H3011	H301	0.128860	0.433830	0.656920
C3371	C337	0.060710	0.517570	0.627860
C3381	C338	0.079100	0.504500	0.673200
C3391	C339	0.045600	0.451300	0.661900
C3401	C340	0.000100	0.415400	0.610300
C3411	C341	0.987120	0.430720	0.573400
C3421	C342	0.065800	0.436900	0.708100
C3431	C343	0.099000	0.412100	0.710700
C3441	C344	0.119600	0.399000	0.669600
N431	N43	0.017380	0.481560	0.577620
H3021	H302	0.072900	0.937010	0.022670
H3031	H303	0.177590	0.961370	0.081750
H3041	H304	0.229010	0.130820	0.102210
H3051	H305	0.130200	0.100050	0.045290
H3061	H306	0.297740	0.110790	0.266290
H3071	H307	0.225800	0.062240	0.199230
H3081	H308	0.266470	0.140160	0.222510
C3451	C345	0.110290	0.982430	0.043140
C3461	C346	0.168700	0.995500	0.074600
C3471	C347	0.210600	0.048700	0.094300
C3481	C348	0.194900	0.084600	0.084700
C3491	C349	0.142680	0.069280	0.056400
C3501	C350	0.271200	0.063100	0.128900
C3511	C351	0.298600	0.087900	0.186900
C3521	C352	0.270600	0.101000	0.220600
N441	N44	0.096060	0.018440	0.035820
H3091	H309	0.050220	0.477330	0.414340
H3101	H310	0.095840	0.418250	0.379620
H3111	H311	0.126800	0.397790	0.528610
H3121	H312	0.084900	0.454710	0.554760
H3131	H313	0.036720	0.231880	0.363970
H3141	H314	0.023980	0.284440	0.343800
H3151	H315	0.041280	0.295650	0.417400
C3531	C353	0.067150	0.456860	0.439290
C3541	C354	0.094100	0.425400	0.420900
C3551	C355	0.116300	0.405700	0.454400
C3561	C356	0.110200	0.415300	0.499900
C3571	C357	0.086280	0.443600	0.512880
C3581	C358	0.142300	0.371100	0.434200
C3591	C359	0.111700	0.313100	0.401000
C3601	C360	0.050000	0.279400	0.380400
N451	N45	0.060240	0.464180	0.482620
H3161	H316	0.449780	0.864120	0.427100
H3171	H317	0.404160	0.783780	0.322410
H3181	H318	0.373200	0.901810	0.270990
H3191	H319	0.415100	0.969860	0.369800
H3201	H320	0.455660	0.868480	0.221810
H3211	H321	0.471310	0.808070	0.210390
H3221	H322	0.471060	0.846630	0.277790
C3611	C361	0.432850	0.872140	0.389710
C3621	C362	0.405900	0.826800	0.331300
C3631	C363	0.383700	0.838100	0.289400
C3641	C364	0.389800	0.889700	0.305100
C3651	C365	0.413720	0.926600	0.357320
C3661	C366	0.357700	0.791900	0.228800
C3671	C367	0.388300	0.789300	0.201400
C3681	C368	0.450000	0.830400	0.229400
N461	N46	0.439760	0.922380	0.403940
H3231	H323	0.937010	0.022670	0.072900
H3241	H324	0.961370	0.081750	0.177590
H3251	H325	0.130820	0.102210	0.229010
H3261	H326	0.100050	0.045290	0.130200
H3271	H327	0.061720	0.200060	0.226410
H3281	H328	0.139240	0.221260	0.265120
H3291	H329	0.112240	0.266700	0.298480
C3691	C369	0.982430	0.043140	0.110290
C3701	C370	0.995500	0.074600	0.168700
C3711	C371	0.048700	0.094300	0.210600
C3721	C372	0.084600	0.084700	0.194900
C3731	C373	0.069280	0.056400	0.142680
C3741	C374	0.063100	0.128900	0.271200
C3751	C375	0.087900	0.186900	0.298600
C3761	C376	0.101000	0.220600	0.270600
N471	N47	0.018440	0.035820	0.096060
H3301	H330	0.562990	0.635880	0.085660
H3311	H331	0.538630	0.716220	0.120380
H3321	H332	0.369180	0.598190	0.971390
H3331	H333	0.399950	0.530140	0.945240
H3341	H334	0.430470	0.652530	0.123370
H3351	H335	0.352930	0.632060	0.087720
H3361	H336	0.403400	0.692220	0.163740
C3771	C377	0.517570	0.627860	0.060710
C3781	C378	0.504500	0.673200	0.079100
C3791	C379	0.451300	0.661900	0.045600
C3801	C380	0.415400	0.610300	0.000100
C3811	C381	0.430720	0.573400	0.987120
C3821	C382	0.436900	0.708100	0.065800
C3831	C383	0.412100	0.710700	0.099000
C3841	C384	0.399000	0.669600	0.119600
N481	N48	0.481560	0.577620	0.017380
Cd11	Cd1	0.500000	0.000000	0.000000
Cd21	Cd2	0.500000	0.500000	0.500000
Cd31	Cd3	0.000000	0.500000	0.000000
Cd41	Cd4	0.000000	0.000000	0.500000
Cd51	Cd5	0.000000	0.000000	0.000000
Cd61	Cd6	0.500000	0.000000	0.500000
Cd71	Cd7	0.500000	0.500000	0.000000
Cd81	Cd8	0.000000	0.500000	0.500000
C3851	C385	0.514900	0.250000	0.985100
C3861	C386	0.549300	0.250000	0.950700
C3871	C387	0.607600	0.250000	0.892400
C3881	C388	0.764900	0.529800	0.514900
C3891	C389	0.799300	0.598600	0.549300
C3901	C390	0.857600	0.715200	0.607600
C3911	C391	0.735100	0.250000	0.764900
C3921	C392	0.700700	0.250000	0.799300
C3931	C393	0.642400	0.250000	0.857600
C3941	C394	0.985100	0.970200	0.735100
C3951	C395	0.950700	0.901400	0.700700
C3961	C396	0.892400	0.784800	0.642400
C3971	C397	0.985100	0.514900	0.250000
C3981	C398	0.950700	0.549300	0.250000
C3991	C399	0.892400	0.607600	0.250000
C4001	C400	0.514900	0.764900	0.529800
C4011	C401	0.549300	0.799300	0.598600
C4021	C402	0.607600	0.857600	0.715200
C4031	C403	0.764900	0.735100	0.250000
C4041	C404	0.799300	0.700700	0.250000
C4051	C405	0.857600	0.642400	0.250000
C4061	C406	0.735100	0.985100	0.970200
C4071	C407	0.700700	0.950700	0.901400
C4081	C408	0.642400	0.892400	0.784800
C4091	C409	0.250000	0.985100	0.514900
C4101	C410	0.250000	0.950700	0.549300
C4111	C411	0.250000	0.892400	0.607600
C4121	C412	0.529800	0.514900	0.764900
C4131	C413	0.598600	0.549300	0.799300
C4141	C414	0.715200	0.607600	0.857600
C4151	C415	0.250000	0.764900	0.735100
C4161	C416	0.250000	0.799300	0.700700
C4171	C417	0.250000	0.857600	0.642400
C4181	C418	0.970200	0.735100	0.985100
C4191	C419	0.901400	0.700700	0.950700
C4201	C420	0.784800	0.642400	0.892400
C4211	C421	0.485100	0.750000	0.014900
C4221	C422	0.450700	0.750000	0.049300
C4231	C423	0.392400	0.750000	0.107600
C4241	C424	0.235100	0.470200	0.485100
C4251	C425	0.200700	0.401400	0.450700
C4261	C426	0.142400	0.284800	0.392400
C4271	C427	0.264900	0.750000	0.235100
C4281	C428	0.299300	0.750000	0.200700
C4291	C429	0.357600	0.750000	0.142400
C4301	C430	0.014900	0.029800	0.264900
C4311	C431	0.049300	0.098600	0.299300
C4321	C432	0.107600	0.215200	0.357600
C4331	C433	0.014900	0.485100	0.750000
C4341	C434	0.049300	0.450700	0.750000
C4351	C435	0.107600	0.392400	0.750000
C4361	C436	0.485100	0.235100	0.470200
C4371	C437	0.450700	0.200700	0.401400
C4381	C438	0.392400	0.142400	0.284800
C4391	C439	0.235100	0.264900	0.750000
C4401	C440	0.200700	0.299300	0.750000
C4411	C441	0.142400	0.357600	0.750000
C4421	C442	0.264900	0.014900	0.029800
C4431	C443	0.299300	0.049300	0.098600
C4441	C444	0.357600	0.107600	0.215200
C4451	C445	0.750000	0.014900	0.485100
C4461	C446	0.750000	0.049300	0.450700
C4471	C447	0.750000	0.107600	0.392400
C4481	C448	0.470200	0.485100	0.235100
C4491	C449	0.401400	0.450700	0.200700
C4501	C450	0.284800	0.392400	0.142400
C4511	C451	0.750000	0.235100	0.264900
C4521	C452	0.750000	0.200700	0.299300
C4531	C453	0.750000	0.142400	0.357600
C4541	C454	0.029800	0.264900	0.014900
C4551	C455	0.098600	0.299300	0.049300
C4561	C456	0.215200	0.357600	0.107600
H3371	H337	0.538770	0.248520	0.025390
H3381	H338	0.469640	0.210540	0.956260
H3391	H339	0.511660	0.290940	0.998280
H3401	H340	0.789210	0.513380	0.495220
H3411	H341	0.719930	0.513380	0.479040
H3421	H342	0.760920	0.513380	0.545810
H3431	H343	0.706260	0.210540	0.719640
H3441	H344	0.775390	0.248520	0.788770
H3451	H345	0.748280	0.290940	0.761660
H3461	H346	0.956550	0.986620	0.715660
H3471	H347	0.025830	0.986620	0.731840
H3481	H348	0.997540	0.986620	0.782430
H3491	H349	0.025390	0.538770	0.248520
H3501	H350	0.956260	0.469640	0.210540
H3511	H351	0.998280	0.511660	0.290940
H3521	H352	0.469930	0.729040	0.513380
H3531	H353	0.539210	0.745220	0.513380
H3541	H354	0.510920	0.795810	0.513380
H3551	H355	0.719640	0.706260	0.210540
H3561	H356	0.788770	0.775390	0.248520
H3571	H357	0.761660	0.748280	0.290940
H3581	H358	0.775830	0.981840	0.986620
H3591	H359	0.706550	0.965660	0.986620
H3601	H360	0.747540	0.032430	0.986620
H3611	H361	0.206430	0.960150	0.473530
H3621	H362	0.285720	0.990170	0.503550
H3631	H363	0.257850	0.029610	0.542980
H3641	H364	0.513380	0.489860	0.716640
H3651	H365	0.513380	0.546740	0.773520
H3661	H366	0.513380	0.483470	0.779910
H3671	H367	0.285720	0.753550	0.740170
H3681	H368	0.206430	0.723530	0.710150
H3691	H369	0.257850	0.792980	0.779610
H3701	H370	0.986620	0.703260	0.976480
H3711	H371	0.986620	0.760140	0.033360
H3721	H372	0.986620	0.766530	0.970090
H3731	H373	0.456260	0.710540	0.969640
H3741	H374	0.525390	0.748520	0.038770
H3751	H375	0.498280	0.790940	0.011660
H3761	H376	0.206550	0.486620	0.465660
H3771	H377	0.275830	0.486620	0.481840
H3781	H378	0.247540	0.486620	0.532430
H3791	H379	0.288770	0.748520	0.275390
H3801	H380	0.219640	0.710540	0.206260
H3811	H381	0.261660	0.790940	0.248280
H3821	H382	0.039210	0.013380	0.245220
H3831	H383	0.969930	0.013380	0.229040
H3841	H384	0.010920	0.013380	0.295810
H3851	H385	0.969640	0.456260	0.710540
H3861	H386	0.038770	0.525390	0.748520
H3871	H387	0.011660	0.498280	0.790940
H3881	H388	0.525830	0.231840	0.486620
H3891	H389	0.456550	0.215660	0.486620
H3901	H390	0.497540	0.282430	0.486620
H3911	H391	0.275390	0.288770	0.748520
H3921	H392	0.206260	0.219640	0.710540
H3931	H393	0.248280	0.261660	0.790940
H3941	H394	0.219930	0.979040	0.013380
H3951	H395	0.289210	0.995220	0.013380
H3961	H396	0.260920	0.045810	0.013380
H3971	H397	0.785720	0.003550	0.490170
H3981	H398	0.706430	0.973530	0.460150
H3991	H399	0.757850	0.042980	0.529610
H4001	H400	0.486620	0.453260	0.226480
H4011	H401	0.486620	0.510140	0.283360
H4021	H402	0.486620	0.516530	0.220090
H4031	H403	0.706430	0.210150	0.223530
H4041	H404	0.785720	0.240170	0.253550
H4051	H405	0.757850	0.279610	0.292980
H4061	H406	0.013380	0.273520	0.046740
H4071	H407	0.013380	0.216640	0.989860
H4081	H408	0.013380	0.279910	0.983470
