data_MANLIX_charged_PM
_symmetry_space_group_name_H-M	'P1'
_cell_length_a	27.884300
_cell_length_b	27.884300
_cell_length_c	27.884300
_cell_angle_alpha	109.471000
_cell_angle_beta	109.471000
_cell_angle_gamma	109.471000
_symmetry_Int_Tables_number 1

loop_
_symmetry_equiv_pos_as_xyz
'x,y,z'

loop_
_atom_site_label
_atom_site_type_symbol
_atom_site_fract_x
_atom_site_fract_y
_atom_site_fract_z
Zn11	Zn1	0.000000	0.000000	0.000000
Zn21	Zn2	0.500000	0.000000	0.500000
Zn31	Zn3	0.000000	0.500000	0.500000
Zn41	Zn4	0.500000	0.500000	0.000000
Zn51	Zn5	0.500000	0.500000	0.500000
Zn61	Zn6	0.500000	0.000000	0.000000
Zn71	Zn7	0.000000	0.500000	0.000000
Zn81	Zn8	0.000000	0.000000	0.500000
H11	H1	0.072800	0.047500	0.132300
H21	H2	0.171100	0.090600	0.207700
H31	H3	0.220500	0.125900	0.101000
H41	H4	0.130700	0.087600	0.036900
H51	H5	0.226200	0.032800	0.142400
H61	H6	0.270300	0.026500	0.188800
H71	H7	0.284200	0.038600	0.142600
H81	H8	0.415200	0.940500	0.367700
H91	H9	0.382900	0.963400	0.292300
H101	H10	0.524900	0.119500	0.399000
H111	H11	0.550700	0.093800	0.463100
H121	H12	0.390400	0.083800	0.357600
H131	H13	0.337700	0.081500	0.311200
H141	H14	0.396000	0.141600	0.357400
H151	H15	0.084800	0.452500	0.525300
H161	H16	0.117100	0.409400	0.580500
H171	H17	0.975100	0.374100	0.594600
H181	H18	0.949300	0.412400	0.543100
H191	H19	0.109600	0.467200	0.693400
H201	H20	0.162300	0.473500	0.743800
H211	H21	0.104000	0.461400	0.745600
H221	H22	0.427200	0.559500	0.974700
H231	H23	0.328900	0.536600	0.919500
H241	H24	0.279500	0.380500	0.905400
H251	H25	0.369300	0.406200	0.956900
H261	H26	0.273800	0.416200	0.806600
H271	H27	0.229700	0.418500	0.756200
H281	H28	0.215800	0.358400	0.754400
H291	H29	0.025300	0.084800	0.952500
H301	H30	0.080500	0.117100	0.909400
H311	H31	0.094600	0.975100	0.874100
H321	H32	0.043100	0.949300	0.912400
H331	H33	0.193400	0.109600	0.967200
H341	H34	0.243800	0.162300	0.973500
H351	H35	0.245600	0.104000	0.961400
H361	H36	0.474700	0.427200	0.059500
H371	H37	0.419500	0.328900	0.036600
H381	H38	0.405400	0.279500	0.880500
H391	H39	0.456900	0.369300	0.906200
H401	H40	0.306600	0.273800	0.916200
H411	H41	0.256200	0.229700	0.918500
H421	H42	0.254400	0.215800	0.858400
H431	H43	0.632300	0.072800	0.547500
H441	H44	0.707700	0.171100	0.590600
H451	H45	0.601000	0.220500	0.625900
H461	H46	0.536900	0.130700	0.587600
H471	H47	0.642400	0.226200	0.532800
H481	H48	0.688800	0.270300	0.526500
H491	H49	0.642600	0.284200	0.538600
H501	H50	0.867700	0.415200	0.440500
H511	H51	0.792300	0.382900	0.463400
H521	H52	0.899000	0.524900	0.619500
H531	H53	0.963100	0.550700	0.593800
H541	H54	0.857600	0.390400	0.583800
H551	H55	0.811200	0.337700	0.581500
H561	H56	0.857400	0.396000	0.641600
H571	H57	0.940500	0.867700	0.915200
H581	H58	0.963400	0.792300	0.882900
H591	H59	0.119500	0.899000	0.024900
H601	H60	0.093800	0.963100	0.050700
H611	H61	0.083800	0.857600	0.890400
H621	H62	0.081500	0.811200	0.837700
H631	H63	0.141600	0.857400	0.896000
H641	H64	0.047500	0.632300	0.572800
H651	H65	0.090600	0.707700	0.671100
H661	H66	0.125900	0.601000	0.720500
H671	H67	0.087600	0.536900	0.630700
H681	H68	0.032800	0.642400	0.726200
H691	H69	0.026500	0.688800	0.770300
H701	H70	0.038600	0.642600	0.784200
H711	H71	0.559500	0.474700	0.927200
H721	H72	0.536600	0.419500	0.828900
H731	H73	0.380500	0.405400	0.779500
H741	H74	0.406200	0.456900	0.869300
H751	H75	0.416200	0.306600	0.773800
H761	H76	0.418500	0.256200	0.729700
H771	H77	0.358400	0.254400	0.715800
H781	H78	0.452500	0.025300	0.584800
H791	H79	0.409400	0.080500	0.617100
H801	H80	0.374100	0.094600	0.475100
H811	H81	0.412400	0.043100	0.449300
H821	H82	0.467200	0.193400	0.609600
H831	H83	0.473500	0.243800	0.662300
H841	H84	0.461400	0.245600	0.604000
H851	H85	0.452500	0.427200	0.367700
H861	H86	0.409400	0.328900	0.292300
H871	H87	0.374100	0.279500	0.399000
H881	H88	0.412400	0.369300	0.463100
H891	H89	0.467200	0.273800	0.357600
H901	H90	0.473500	0.229700	0.311200
H911	H91	0.461400	0.215800	0.357400
H921	H92	0.559500	0.084800	0.132300
H931	H93	0.536600	0.117100	0.207700
H941	H94	0.380500	0.975100	0.101000
H951	H95	0.406200	0.949300	0.036900
H961	H96	0.416200	0.109600	0.142400
H971	H97	0.418500	0.162300	0.188800
H981	H98	0.358400	0.104000	0.142600
H991	H99	0.047500	0.415200	0.974700
H1001	H100	0.090600	0.382900	0.919500
H1011	H101	0.125900	0.524900	0.905400
H1021	H102	0.087600	0.550700	0.956900
H1031	H103	0.032800	0.390400	0.806600
H1041	H104	0.026500	0.337700	0.756200
H1051	H105	0.038600	0.396000	0.754400
H1061	H106	0.940500	0.072800	0.525300
H1071	H107	0.963400	0.171100	0.580500
H1081	H108	0.119500	0.220500	0.594600
H1091	H109	0.093800	0.130700	0.543100
H1101	H110	0.083800	0.226200	0.693400
H1111	H111	0.081500	0.270300	0.743800
H1121	H112	0.141600	0.284200	0.745600
H1131	H113	0.415200	0.474700	0.547500
H1141	H114	0.382900	0.419500	0.590600
H1151	H115	0.524900	0.405400	0.625900
H1161	H116	0.550700	0.456900	0.587600
H1171	H117	0.390400	0.306600	0.532800
H1181	H118	0.337700	0.256200	0.526500
H1191	H119	0.396000	0.254400	0.538600
H1201	H120	0.072800	0.025300	0.440500
H1211	H121	0.171100	0.080500	0.463400
H1221	H122	0.220500	0.094600	0.619500
H1231	H123	0.130700	0.043100	0.593800
H1241	H124	0.226200	0.193400	0.583800
H1251	H125	0.270300	0.243800	0.581500
H1261	H126	0.284200	0.245600	0.641600
H1271	H127	0.427200	0.867700	0.952500
H1281	H128	0.328900	0.792300	0.909400
H1291	H129	0.279500	0.899000	0.874100
H1301	H130	0.369300	0.963100	0.912400
H1311	H131	0.273800	0.857600	0.967200
H1321	H132	0.229700	0.811200	0.973500
H1331	H133	0.215800	0.857400	0.961400
H1341	H134	0.084800	0.632300	0.059500
H1351	H135	0.117100	0.707700	0.036600
H1361	H136	0.975100	0.601000	0.880500
H1371	H137	0.949300	0.536900	0.906200
H1381	H138	0.109600	0.642400	0.916200
H1391	H139	0.162300	0.688800	0.918500
H1401	H140	0.104000	0.642600	0.858400
H1411	H141	0.632300	0.559500	0.584800
H1421	H142	0.707700	0.536600	0.617100
H1431	H143	0.601000	0.380500	0.475100
H1441	H144	0.536900	0.406200	0.449300
H1451	H145	0.642400	0.416200	0.609600
H1461	H146	0.688800	0.418500	0.662300
H1471	H147	0.642600	0.358400	0.604000
H1481	H148	0.867700	0.452500	0.927200
H1491	H149	0.792300	0.409400	0.828900
H1501	H150	0.899000	0.374100	0.779500
H1511	H151	0.963100	0.412400	0.869300
H1521	H152	0.857600	0.467200	0.773800
H1531	H153	0.811200	0.473500	0.729700
H1541	H154	0.857400	0.461400	0.715800
H1551	H155	0.025300	0.940500	0.572800
H1561	H156	0.080500	0.963400	0.671100
H1571	H157	0.094600	0.119500	0.720500
H1581	H158	0.043100	0.093800	0.630700
H1591	H159	0.193400	0.083800	0.726200
H1601	H160	0.243800	0.081500	0.770300
H1611	H161	0.245600	0.141600	0.784200
H1621	H162	0.474700	0.047500	0.915200
H1631	H163	0.419500	0.090600	0.882900
H1641	H164	0.405400	0.125900	0.024900
H1651	H165	0.456900	0.087600	0.050700
H1661	H166	0.306600	0.032800	0.890400
H1671	H167	0.256200	0.026500	0.837700
H1681	H168	0.254400	0.038600	0.896000
H1691	H169	0.927200	0.952500	0.867700
H1701	H170	0.828900	0.909400	0.792300
H1711	H171	0.779500	0.874100	0.899000
H1721	H172	0.869300	0.912400	0.963100
H1731	H173	0.773800	0.967200	0.857600
H1741	H174	0.729700	0.973500	0.811200
H1751	H175	0.715800	0.961400	0.857400
H1761	H176	0.584800	0.059500	0.632300
H1771	H177	0.617100	0.036600	0.707700
H1781	H178	0.475100	0.880500	0.601000
H1791	H179	0.449300	0.906200	0.536900
H1801	H180	0.609600	0.916200	0.642400
H1811	H181	0.662300	0.918500	0.688800
H1821	H182	0.604000	0.858400	0.642600
H1831	H183	0.915200	0.547500	0.474700
H1841	H184	0.882900	0.590600	0.419500
H1851	H185	0.024900	0.625900	0.405400
H1861	H186	0.050700	0.587600	0.456900
H1871	H187	0.890400	0.532800	0.306600
H1881	H188	0.837700	0.526500	0.256200
H1891	H189	0.896000	0.538600	0.254400
H1901	H190	0.572800	0.440500	0.025300
H1911	H191	0.671100	0.463400	0.080500
H1921	H192	0.720500	0.619500	0.094600
H1931	H193	0.630700	0.593800	0.043100
H1941	H194	0.726200	0.583800	0.193400
H1951	H195	0.770300	0.581500	0.243800
H1961	H196	0.784200	0.641600	0.245600
H1971	H197	0.974700	0.915200	0.047500
H1981	H198	0.919500	0.882900	0.090600
H1991	H199	0.905400	0.024900	0.125900
H2001	H200	0.956900	0.050700	0.087600
H2011	H201	0.806600	0.890400	0.032800
H2021	H202	0.756200	0.837700	0.026500
H2031	H203	0.754400	0.896000	0.038600
H2041	H204	0.525300	0.572800	0.940500
H2051	H205	0.580500	0.671100	0.963400
H2061	H206	0.594600	0.720500	0.119500
H2071	H207	0.543100	0.630700	0.093800
H2081	H208	0.693400	0.726200	0.083800
H2091	H209	0.743800	0.770300	0.081500
H2101	H210	0.745600	0.784200	0.141600
H2111	H211	0.367700	0.927200	0.452500
H2121	H212	0.292300	0.828900	0.409400
H2131	H213	0.399000	0.779500	0.374100
H2141	H214	0.463100	0.869300	0.412400
H2151	H215	0.357600	0.773800	0.467200
H2161	H216	0.311200	0.729700	0.473500
H2171	H217	0.357400	0.715800	0.461400
H2181	H218	0.132300	0.584800	0.559500
H2191	H219	0.207700	0.617100	0.536600
H2201	H220	0.101000	0.475100	0.380500
H2211	H221	0.036900	0.449300	0.406200
H2221	H222	0.142400	0.609600	0.416200
H2231	H223	0.188800	0.662300	0.418500
H2241	H224	0.142600	0.604000	0.358400
H2251	H225	0.059500	0.132300	0.084800
H2261	H226	0.036600	0.207700	0.117100
H2271	H227	0.880500	0.101000	0.975100
H2281	H228	0.906200	0.036900	0.949300
H2291	H229	0.916200	0.142400	0.109600
H2301	H230	0.918500	0.188800	0.162300
H2311	H231	0.858400	0.142600	0.104000
H2321	H232	0.952500	0.367700	0.427200
H2331	H233	0.909400	0.292300	0.328900
H2341	H234	0.874100	0.399000	0.279500
H2351	H235	0.912400	0.463100	0.369300
H2361	H236	0.967200	0.357600	0.273800
H2371	H237	0.973500	0.311200	0.229700
H2381	H238	0.961400	0.357400	0.215800
H2391	H239	0.440500	0.525300	0.072800
H2401	H240	0.463400	0.580500	0.171100
H2411	H241	0.619500	0.594600	0.220500
H2421	H242	0.593800	0.543100	0.130700
H2431	H243	0.583800	0.693400	0.226200
H2441	H244	0.581500	0.743800	0.270300
H2451	H245	0.641600	0.745600	0.284200
H2461	H246	0.547500	0.974700	0.415200
H2471	H247	0.590600	0.919500	0.382900
H2481	H248	0.625900	0.905400	0.524900
H2491	H249	0.587600	0.956900	0.550700
H2501	H250	0.532800	0.806600	0.390400
H2511	H251	0.526500	0.756200	0.337700
H2521	H252	0.538600	0.754400	0.396000
H2531	H253	0.547500	0.572800	0.632300
H2541	H254	0.590600	0.671100	0.707700
H2551	H255	0.625900	0.720500	0.601000
H2561	H256	0.587600	0.630700	0.536900
H2571	H257	0.532800	0.726200	0.642400
H2581	H258	0.526500	0.770300	0.688800
H2591	H259	0.538600	0.784200	0.642600
H2601	H260	0.440500	0.915200	0.867700
H2611	H261	0.463400	0.882900	0.792300
H2621	H262	0.619500	0.024900	0.899000
H2631	H263	0.593800	0.050700	0.963100
H2641	H264	0.583800	0.890400	0.857600
H2651	H265	0.581500	0.837700	0.811200
H2661	H266	0.641600	0.896000	0.857400
H2671	H267	0.952500	0.584800	0.025300
H2681	H268	0.909400	0.617100	0.080500
H2691	H269	0.874100	0.475100	0.094600
H2701	H270	0.912400	0.449300	0.043100
H2711	H271	0.967200	0.609600	0.193400
H2721	H272	0.973500	0.662300	0.243800
H2731	H273	0.961400	0.604000	0.245600
H2741	H274	0.059500	0.927200	0.474700
H2751	H275	0.036600	0.828900	0.419500
H2761	H276	0.880500	0.779500	0.405400
H2771	H277	0.906200	0.869300	0.456900
H2781	H278	0.916200	0.773800	0.306600
H2791	H279	0.918500	0.729700	0.256200
H2801	H280	0.858400	0.715800	0.254400
H2811	H281	0.584800	0.525300	0.452500
H2821	H282	0.617100	0.580500	0.409400
H2831	H283	0.475100	0.594600	0.374100
H2841	H284	0.449300	0.543100	0.412400
H2851	H285	0.609600	0.693400	0.467200
H2861	H286	0.662300	0.743800	0.473500
H2871	H287	0.604000	0.745600	0.461400
H2881	H288	0.927200	0.974700	0.559500
H2891	H289	0.828900	0.919500	0.536600
H2901	H290	0.779500	0.905400	0.380500
H2911	H291	0.869300	0.956900	0.406200
H2921	H292	0.773800	0.806600	0.416200
H2931	H293	0.729700	0.756200	0.418500
H2941	H294	0.715800	0.754400	0.358400
H2951	H295	0.572800	0.132300	0.047500
H2961	H296	0.671100	0.207700	0.090600
H2971	H297	0.720500	0.101000	0.125900
H2981	H298	0.630700	0.036900	0.087600
H2991	H299	0.726200	0.142400	0.032800
H3001	H300	0.770300	0.188800	0.026500
H3011	H301	0.784200	0.142600	0.038600
H3021	H302	0.915200	0.367700	0.940500
H3031	H303	0.882900	0.292300	0.963400
H3041	H304	0.024900	0.399000	0.119500
H3051	H305	0.050700	0.463100	0.093800
H3061	H306	0.890400	0.357600	0.083800
H3071	H307	0.837700	0.311200	0.081500
H3081	H308	0.896000	0.357400	0.141600
H3091	H309	0.367700	0.440500	0.415200
H3101	H310	0.292300	0.463400	0.382900
H3111	H311	0.399000	0.619500	0.524900
H3121	H312	0.463100	0.593800	0.550700
H3131	H313	0.357600	0.583800	0.390400
H3141	H314	0.311200	0.581500	0.337700
H3151	H315	0.357400	0.641600	0.396000
H3161	H316	0.132300	0.547500	0.072800
H3171	H317	0.207700	0.590600	0.171100
H3181	H318	0.101000	0.625900	0.220500
H3191	H319	0.036900	0.587600	0.130700
H3201	H320	0.142400	0.532800	0.226200
H3211	H321	0.188800	0.526500	0.270300
H3221	H322	0.142600	0.538600	0.284200
H3231	H323	0.974700	0.059500	0.427200
H3241	H324	0.919500	0.036600	0.328900
H3251	H325	0.905400	0.880500	0.279500
H3261	H326	0.956900	0.906200	0.369300
H3271	H327	0.806600	0.916200	0.273800
H3281	H328	0.756200	0.918500	0.229700
H3291	H329	0.754400	0.858400	0.215800
H3301	H330	0.525300	0.952500	0.084800
H3311	H331	0.580500	0.909400	0.117100
H3321	H332	0.594600	0.874100	0.975100
H3331	H333	0.543100	0.912400	0.949300
H3341	H334	0.693400	0.967200	0.109600
H3351	H335	0.743800	0.973500	0.162300
H3361	H336	0.745600	0.961400	0.104000
C11	C1	0.103120	0.062410	0.125050
C21	C2	0.163100	0.090010	0.172310
C31	C3	0.206930	0.114860	0.162110
C41	C4	0.191480	0.110580	0.109700
C51	C5	0.137850	0.085940	0.071170
C61	C6	0.268270	0.143540	0.208050
C71	C7	0.298900	0.112660	0.209160
C81	C8	0.266910	0.046490	0.166800
C91	C9	0.437360	0.978070	0.374950
C101	C10	0.417700	0.990790	0.327690
C111	C11	0.452750	0.044820	0.337890
C121	C12	0.500880	0.081780	0.390300
C131	C13	0.514770	0.066680	0.428830
C141	C14	0.435490	0.060220	0.291950
C151	C15	0.403500	0.089740	0.290840
C161	C16	0.379690	0.100110	0.333200
C171	C17	0.062640	0.437590	0.540710
C181	C18	0.082300	0.409990	0.573090
C191	C19	0.047250	0.385140	0.592070
C201	C20	0.999120	0.389420	0.580900
C211	C21	0.985230	0.414060	0.551910
C221	C22	0.064510	0.356460	0.624730
C231	C23	0.096500	0.387340	0.686240
C241	C24	0.120310	0.453510	0.720420
C251	C25	0.396880	0.521930	0.959290
C261	C26	0.336900	0.509210	0.926910
C271	C27	0.293070	0.455180	0.907930
C281	C28	0.308520	0.418220	0.919100
C291	C29	0.362150	0.433320	0.948090
C301	C30	0.231730	0.439780	0.875270
C311	C31	0.201100	0.410260	0.813760
C321	C32	0.233090	0.399890	0.779580
C331	C33	0.040710	0.062640	0.937590
C341	C34	0.073090	0.082300	0.909990
C351	C35	0.092070	0.047250	0.885140
C361	C36	0.080900	0.999120	0.889420
C371	C37	0.051910	0.985230	0.914060
C381	C38	0.124730	0.064510	0.856460
C391	C39	0.186240	0.096500	0.887340
C401	C40	0.220420	0.120310	0.953510
C411	C41	0.459290	0.396880	0.021930
C421	C42	0.426910	0.336900	0.009210
C431	C43	0.407930	0.293070	0.955180
C441	C44	0.419100	0.308520	0.918220
C451	C45	0.448090	0.362150	0.933320
C461	C46	0.375270	0.231730	0.939780
C471	C47	0.313760	0.201100	0.910260
C481	C48	0.279580	0.233090	0.899890
C491	C49	0.625050	0.103120	0.562410
C501	C50	0.672310	0.163100	0.590010
C511	C51	0.662110	0.206930	0.614860
C521	C52	0.609700	0.191480	0.610580
C531	C53	0.571170	0.137850	0.585940
C541	C54	0.708050	0.268270	0.643540
C551	C55	0.709160	0.298900	0.612660
C561	C56	0.666800	0.266910	0.546490
C571	C57	0.874950	0.437360	0.478070
C581	C58	0.827690	0.417700	0.490790
C591	C59	0.837890	0.452750	0.544820
C601	C60	0.890300	0.500880	0.581780
C611	C61	0.928830	0.514770	0.566680
C621	C62	0.791950	0.435490	0.560220
C631	C63	0.790840	0.403500	0.589740
C641	C64	0.833200	0.379690	0.600110
C651	C65	0.978070	0.874950	0.937360
C661	C66	0.990790	0.827690	0.917700
C671	C67	0.044820	0.837890	0.952750
C681	C68	0.081780	0.890300	0.000880
C691	C69	0.066680	0.928830	0.014770
C701	C70	0.060220	0.791950	0.935490
C711	C71	0.089740	0.790840	0.903500
C721	C72	0.100110	0.833200	0.879690
C731	C73	0.062410	0.625050	0.603120
C741	C74	0.090010	0.672310	0.663100
C751	C75	0.114860	0.662110	0.706930
C761	C76	0.110580	0.609700	0.691480
C771	C77	0.085940	0.571170	0.637850
C781	C78	0.143540	0.708050	0.768270
C791	C79	0.112660	0.709160	0.798900
C801	C80	0.046490	0.666800	0.766910
C811	C81	0.521930	0.459290	0.896880
C821	C82	0.509210	0.426910	0.836900
C831	C83	0.455180	0.407930	0.793070
C841	C84	0.418220	0.419100	0.808520
C851	C85	0.433320	0.448090	0.862150
C861	C86	0.439780	0.375270	0.731730
C871	C87	0.410260	0.313760	0.701100
C881	C88	0.399890	0.279580	0.733090
C891	C89	0.437590	0.040710	0.562640
C901	C90	0.409990	0.073090	0.582300
C911	C91	0.385140	0.092070	0.547250
C921	C92	0.389420	0.080900	0.499120
C931	C93	0.414060	0.051910	0.485230
C941	C94	0.356460	0.124730	0.564510
C951	C95	0.387340	0.186240	0.596500
C961	C96	0.453510	0.220420	0.620310
C971	C97	0.437590	0.396880	0.374950
C981	C98	0.409990	0.336900	0.327690
C991	C99	0.385140	0.293070	0.337890
C1001	C100	0.389420	0.308520	0.390300
C1011	C101	0.414060	0.362150	0.428830
C1021	C102	0.356460	0.231730	0.291950
C1031	C103	0.387340	0.201100	0.290840
C1041	C104	0.453510	0.233090	0.333200
C1051	C105	0.521930	0.062640	0.125050
C1061	C106	0.509210	0.082300	0.172310
C1071	C107	0.455180	0.047250	0.162110
C1081	C108	0.418220	0.999120	0.109700
C1091	C109	0.433320	0.985230	0.071170
C1101	C110	0.439780	0.064510	0.208050
C1111	C111	0.410260	0.096500	0.209160
C1121	C112	0.399890	0.120310	0.166800
C1131	C113	0.062410	0.437360	0.959290
C1141	C114	0.090010	0.417700	0.926910
C1151	C115	0.114860	0.452750	0.907930
C1161	C116	0.110580	0.500880	0.919100
C1171	C117	0.085940	0.514770	0.948090
C1181	C118	0.143540	0.435490	0.875270
C1191	C119	0.112660	0.403500	0.813760
C1201	C120	0.046490	0.379690	0.779580
C1211	C121	0.978070	0.103120	0.540710
C1221	C122	0.990790	0.163100	0.573090
C1231	C123	0.044820	0.206930	0.592070
C1241	C124	0.081780	0.191480	0.580900
C1251	C125	0.066680	0.137850	0.551910
C1261	C126	0.060220	0.268270	0.624730
C1271	C127	0.089740	0.298900	0.686240
C1281	C128	0.100110	0.266910	0.720420
C1291	C129	0.437360	0.459290	0.562410
C1301	C130	0.417700	0.426910	0.590010
C1311	C131	0.452750	0.407930	0.614860
C1321	C132	0.500880	0.419100	0.610580
C1331	C133	0.514770	0.448090	0.585940
C1341	C134	0.435490	0.375270	0.643540
C1351	C135	0.403500	0.313760	0.612660
C1361	C136	0.379690	0.279580	0.546490
C1371	C137	0.103120	0.040710	0.478070
C1381	C138	0.163100	0.073090	0.490790
C1391	C139	0.206930	0.092070	0.544820
C1401	C140	0.191480	0.080900	0.581780
C1411	C141	0.137850	0.051910	0.566680
C1421	C142	0.268270	0.124730	0.560220
C1431	C143	0.298900	0.186240	0.589740
C1441	C144	0.266910	0.220420	0.600110
C1451	C145	0.396880	0.874950	0.937590
C1461	C146	0.336900	0.827690	0.909990
C1471	C147	0.293070	0.837890	0.885140
C1481	C148	0.308520	0.890300	0.889420
C1491	C149	0.362150	0.928830	0.914060
C1501	C150	0.231730	0.791950	0.856460
C1511	C151	0.201100	0.790840	0.887340
C1521	C152	0.233090	0.833200	0.953510
C1531	C153	0.062640	0.625050	0.021930
C1541	C154	0.082300	0.672310	0.009210
C1551	C155	0.047250	0.662110	0.955180
C1561	C156	0.999120	0.609700	0.918220
C1571	C157	0.985230	0.571170	0.933320
C1581	C158	0.064510	0.708050	0.939780
C1591	C159	0.096500	0.709160	0.910260
C1601	C160	0.120310	0.666800	0.899890
C1611	C161	0.625050	0.521930	0.562640
C1621	C162	0.672310	0.509210	0.582300
C1631	C163	0.662110	0.455180	0.547250
C1641	C164	0.609700	0.418220	0.499120
C1651	C165	0.571170	0.433320	0.485230
C1661	C166	0.708050	0.439780	0.564510
C1671	C167	0.709160	0.410260	0.596500
C1681	C168	0.666800	0.399890	0.620310
C1691	C169	0.874950	0.437590	0.896880
C1701	C170	0.827690	0.409990	0.836900
C1711	C171	0.837890	0.385140	0.793070
C1721	C172	0.890300	0.389420	0.808520
C1731	C173	0.928830	0.414060	0.862150
C1741	C174	0.791950	0.356460	0.731730
C1751	C175	0.790840	0.387340	0.701100
C1761	C176	0.833200	0.453510	0.733090
C1771	C177	0.040710	0.978070	0.603120
C1781	C178	0.073090	0.990790	0.663100
C1791	C179	0.092070	0.044820	0.706930
C1801	C180	0.080900	0.081780	0.691480
C1811	C181	0.051910	0.066680	0.637850
C1821	C182	0.124730	0.060220	0.768270
C1831	C183	0.186240	0.089740	0.798900
C1841	C184	0.220420	0.100110	0.766910
C1851	C185	0.459290	0.062410	0.937360
C1861	C186	0.426910	0.090010	0.917700
C1871	C187	0.407930	0.114860	0.952750
C1881	C188	0.419100	0.110580	0.000880
C1891	C189	0.448090	0.085940	0.014770
C1901	C190	0.375270	0.143540	0.935490
C1911	C191	0.313760	0.112660	0.903500
C1921	C192	0.279580	0.046490	0.879690
C1931	C193	0.896880	0.937590	0.874950
C1941	C194	0.836900	0.909990	0.827690
C1951	C195	0.793070	0.885140	0.837890
C1961	C196	0.808520	0.889420	0.890300
C1971	C197	0.862150	0.914060	0.928830
C1981	C198	0.731730	0.856460	0.791950
C1991	C199	0.701100	0.887340	0.790840
C2001	C200	0.733090	0.953510	0.833200
C2011	C201	0.562640	0.021930	0.625050
C2021	C202	0.582300	0.009210	0.672310
C2031	C203	0.547250	0.955180	0.662110
C2041	C204	0.499120	0.918220	0.609700
C2051	C205	0.485230	0.933320	0.571170
C2061	C206	0.564510	0.939780	0.708050
C2071	C207	0.596500	0.910260	0.709160
C2081	C208	0.620310	0.899890	0.666800
C2091	C209	0.937360	0.562410	0.459290
C2101	C210	0.917700	0.590010	0.426910
C2111	C211	0.952750	0.614860	0.407930
C2121	C212	0.000880	0.610580	0.419100
C2131	C213	0.014770	0.585940	0.448090
C2141	C214	0.935490	0.643540	0.375270
C2151	C215	0.903500	0.612660	0.313760
C2161	C216	0.879690	0.546490	0.279580
C2171	C217	0.603120	0.478070	0.040710
C2181	C218	0.663100	0.490790	0.073090
C2191	C219	0.706930	0.544820	0.092070
C2201	C220	0.691480	0.581780	0.080900
C2211	C221	0.637850	0.566680	0.051910
C2221	C222	0.768270	0.560220	0.124730
C2231	C223	0.798900	0.589740	0.186240
C2241	C224	0.766910	0.600110	0.220420
C2251	C225	0.959290	0.937360	0.062410
C2261	C226	0.926910	0.917700	0.090010
C2271	C227	0.907930	0.952750	0.114860
C2281	C228	0.919100	0.000880	0.110580
C2291	C229	0.948090	0.014770	0.085940
C2301	C230	0.875270	0.935490	0.143540
C2311	C231	0.813760	0.903500	0.112660
C2321	C232	0.779580	0.879690	0.046490
C2331	C233	0.540710	0.603120	0.978070
C2341	C234	0.573090	0.663100	0.990790
C2351	C235	0.592070	0.706930	0.044820
C2361	C236	0.580900	0.691480	0.081780
C2371	C237	0.551910	0.637850	0.066680
C2381	C238	0.624730	0.768270	0.060220
C2391	C239	0.686240	0.798900	0.089740
C2401	C240	0.720420	0.766910	0.100110
C2411	C241	0.374950	0.896880	0.437590
C2421	C242	0.327690	0.836900	0.409990
C2431	C243	0.337890	0.793070	0.385140
C2441	C244	0.390300	0.808520	0.389420
C2451	C245	0.428830	0.862150	0.414060
C2461	C246	0.291950	0.731730	0.356460
C2471	C247	0.290840	0.701100	0.387340
C2481	C248	0.333200	0.733090	0.453510
C2491	C249	0.125050	0.562640	0.521930
C2501	C250	0.172310	0.582300	0.509210
C2511	C251	0.162110	0.547250	0.455180
C2521	C252	0.109700	0.499120	0.418220
C2531	C253	0.071170	0.485230	0.433320
C2541	C254	0.208050	0.564510	0.439780
C2551	C255	0.209160	0.596500	0.410260
C2561	C256	0.166800	0.620310	0.399890
C2571	C257	0.021930	0.125050	0.062640
C2581	C258	0.009210	0.172310	0.082300
C2591	C259	0.955180	0.162110	0.047250
C2601	C260	0.918220	0.109700	0.999120
C2611	C261	0.933320	0.071170	0.985230
C2621	C262	0.939780	0.208050	0.064510
C2631	C263	0.910260	0.209160	0.096500
C2641	C264	0.899890	0.166800	0.120310
C2651	C265	0.937590	0.374950	0.396880
C2661	C266	0.909990	0.327690	0.336900
C2671	C267	0.885140	0.337890	0.293070
C2681	C268	0.889420	0.390300	0.308520
C2691	C269	0.914060	0.428830	0.362150
C2701	C270	0.856460	0.291950	0.231730
C2711	C271	0.887340	0.290840	0.201100
C2721	C272	0.953510	0.333200	0.233090
C2731	C273	0.478070	0.540710	0.103120
C2741	C274	0.490790	0.573090	0.163100
C2751	C275	0.544820	0.592070	0.206930
C2761	C276	0.581780	0.580900	0.191480
C2771	C277	0.566680	0.551910	0.137850
C2781	C278	0.560220	0.624730	0.268270
C2791	C279	0.589740	0.686240	0.298900
C2801	C280	0.600110	0.720420	0.266910
C2811	C281	0.562410	0.959290	0.437360
C2821	C282	0.590010	0.926910	0.417700
C2831	C283	0.614860	0.907930	0.452750
C2841	C284	0.610580	0.919100	0.500880
C2851	C285	0.585940	0.948090	0.514770
C2861	C286	0.643540	0.875270	0.435490
C2871	C287	0.612660	0.813760	0.403500
C2881	C288	0.546490	0.779580	0.379690
C2891	C289	0.562410	0.603120	0.625050
C2901	C290	0.590010	0.663100	0.672310
C2911	C291	0.614860	0.706930	0.662110
C2921	C292	0.610580	0.691480	0.609700
C2931	C293	0.585940	0.637850	0.571170
C2941	C294	0.643540	0.768270	0.708050
C2951	C295	0.612660	0.798900	0.709160
C2961	C296	0.546490	0.766910	0.666800
C2971	C297	0.478070	0.937360	0.874950
C2981	C298	0.490790	0.917700	0.827690
C2991	C299	0.544820	0.952750	0.837890
C3001	C300	0.581780	0.000880	0.890300
C3011	C301	0.566680	0.014770	0.928830
C3021	C302	0.560220	0.935490	0.791950
C3031	C303	0.589740	0.903500	0.790840
C3041	C304	0.600110	0.879690	0.833200
C3051	C305	0.937590	0.562640	0.040710
C3061	C306	0.909990	0.582300	0.073090
C3071	C307	0.885140	0.547250	0.092070
C3081	C308	0.889420	0.499120	0.080900
C3091	C309	0.914060	0.485230	0.051910
C3101	C310	0.856460	0.564510	0.124730
C3111	C311	0.887340	0.596500	0.186240
C3121	C312	0.953510	0.620310	0.220420
C3131	C313	0.021930	0.896880	0.459290
C3141	C314	0.009210	0.836900	0.426910
C3151	C315	0.955180	0.793070	0.407930
C3161	C316	0.918220	0.808520	0.419100
C3171	C317	0.933320	0.862150	0.448090
C3181	C318	0.939780	0.731730	0.375270
C3191	C319	0.910260	0.701100	0.313760
C3201	C320	0.899890	0.733090	0.279580
C3211	C321	0.562640	0.540710	0.437590
C3221	C322	0.582300	0.573090	0.409990
C3231	C323	0.547250	0.592070	0.385140
C3241	C324	0.499120	0.580900	0.389420
C3251	C325	0.485230	0.551910	0.414060
C3261	C326	0.564510	0.624730	0.356460
C3271	C327	0.596500	0.686240	0.387340
C3281	C328	0.620310	0.720420	0.453510
C3291	C329	0.896880	0.959290	0.521930
C3301	C330	0.836900	0.926910	0.509210
C3311	C331	0.793070	0.907930	0.455180
C3321	C332	0.808520	0.919100	0.418220
C3331	C333	0.862150	0.948090	0.433320
C3341	C334	0.731730	0.875270	0.439780
C3351	C335	0.701100	0.813760	0.410260
C3361	C336	0.733090	0.779580	0.399890
C3371	C337	0.603120	0.125050	0.062410
C3381	C338	0.663100	0.172310	0.090010
C3391	C339	0.706930	0.162110	0.114860
C3401	C340	0.691480	0.109700	0.110580
C3411	C341	0.637850	0.071170	0.085940
C3421	C342	0.768270	0.208050	0.143540
C3431	C343	0.798900	0.209160	0.112660
C3441	C344	0.766910	0.166800	0.046490
C3451	C345	0.937360	0.374950	0.978070
C3461	C346	0.917700	0.327690	0.990790
C3471	C347	0.952750	0.337890	0.044820
C3481	C348	0.000880	0.390300	0.081780
C3491	C349	0.014770	0.428830	0.066680
C3501	C350	0.935490	0.291950	0.060220
C3511	C351	0.903500	0.290840	0.089740
C3521	C352	0.879690	0.333200	0.100110
C3531	C353	0.374950	0.478070	0.437360
C3541	C354	0.327690	0.490790	0.417700
C3551	C355	0.337890	0.544820	0.452750
C3561	C356	0.390300	0.581780	0.500880
C3571	C357	0.428830	0.566680	0.514770
C3581	C358	0.291950	0.560220	0.435490
C3591	C359	0.290840	0.589740	0.403500
C3601	C360	0.333200	0.600110	0.379690
C3611	C361	0.125050	0.562410	0.103120
C3621	C362	0.172310	0.590010	0.163100
C3631	C363	0.162110	0.614860	0.206930
C3641	C364	0.109700	0.610580	0.191480
C3651	C365	0.071170	0.585940	0.137850
C3661	C366	0.208050	0.643540	0.268270
C3671	C367	0.209160	0.612660	0.298900
C3681	C368	0.166800	0.546490	0.266910
C3691	C369	0.959290	0.021930	0.396880
C3701	C370	0.926910	0.009210	0.336900
C3711	C371	0.907930	0.955180	0.293070
C3721	C372	0.919100	0.918220	0.308520
C3731	C373	0.948090	0.933320	0.362150
C3741	C374	0.875270	0.939780	0.231730
C3751	C375	0.813760	0.910260	0.201100
C3761	C376	0.779580	0.899890	0.233090
C3771	C377	0.540710	0.937590	0.062640
C3781	C378	0.573090	0.909990	0.082300
C3791	C379	0.592070	0.885140	0.047250
C3801	C380	0.580900	0.889420	0.999120
C3811	C381	0.551910	0.914060	0.985230
C3821	C382	0.624730	0.856460	0.064510
C3831	C383	0.686240	0.887340	0.096500
C3841	C384	0.720420	0.953510	0.120310
C3851	C385	0.262860	0.237140	0.250000
C3861	C386	0.297990	0.202010	0.250000
C3871	C387	0.358760	0.141240	0.250000
C3881	C388	0.487140	0.012860	0.250000
C3891	C389	0.452010	0.047990	0.250000
C3901	C390	0.391240	0.108760	0.250000
C3911	C391	0.012860	0.262860	0.525720
C3921	C392	0.047990	0.297990	0.595980
C3931	C393	0.108760	0.358760	0.717520
C3941	C394	0.237140	0.487140	0.974280
C3951	C395	0.202010	0.452010	0.904020
C3961	C396	0.141240	0.391240	0.782480
C3971	C397	0.025720	0.012860	0.762860
C3981	C398	0.095980	0.047990	0.797990
C3991	C399	0.217520	0.108760	0.858760
C4001	C400	0.474280	0.237140	0.987140
C4011	C401	0.404020	0.202010	0.952010
C4021	C402	0.282480	0.141240	0.891240
C4031	C403	0.750000	0.262860	0.737140
C4041	C404	0.750000	0.297990	0.702010
C4051	C405	0.750000	0.358760	0.641240
C4061	C406	0.750000	0.487140	0.512860
C4071	C407	0.750000	0.452010	0.547990
C4081	C408	0.750000	0.391240	0.608760
C4091	C409	0.012860	0.750000	0.987140
C4101	C410	0.047990	0.750000	0.952010
C4111	C411	0.108760	0.750000	0.891240
C4121	C412	0.237140	0.750000	0.762860
C4131	C413	0.202010	0.750000	0.797990
C4141	C414	0.141240	0.750000	0.858760
C4151	C415	0.487140	0.474280	0.737140
C4161	C416	0.452010	0.404020	0.702010
C4171	C417	0.391240	0.282480	0.641240
C4181	C418	0.262860	0.025720	0.512860
C4191	C419	0.297990	0.095980	0.547990
C4201	C420	0.358760	0.217520	0.608760
C4211	C421	0.737140	0.762860	0.750000
C4221	C422	0.702010	0.797990	0.750000
C4231	C423	0.641240	0.858760	0.750000
C4241	C424	0.512860	0.987140	0.750000
C4251	C425	0.547990	0.952010	0.750000
C4261	C426	0.608760	0.891240	0.750000
C4271	C427	0.987140	0.737140	0.474280
C4281	C428	0.952010	0.702010	0.404020
C4291	C429	0.891240	0.641240	0.282480
C4301	C430	0.762860	0.512860	0.025720
C4311	C431	0.797990	0.547990	0.095980
C4321	C432	0.858760	0.608760	0.217520
C4331	C433	0.974280	0.987140	0.237140
C4341	C434	0.904020	0.952010	0.202010
C4351	C435	0.782480	0.891240	0.141240
C4361	C436	0.525720	0.762860	0.012860
C4371	C437	0.595980	0.797990	0.047990
C4381	C438	0.717520	0.858760	0.108760
C4391	C439	0.250000	0.737140	0.262860
C4401	C440	0.250000	0.702010	0.297990
C4411	C441	0.250000	0.641240	0.358760
C4421	C442	0.250000	0.512860	0.487140
C4431	C443	0.250000	0.547990	0.452010
C4441	C444	0.250000	0.608760	0.391240
C4451	C445	0.987140	0.250000	0.012860
C4461	C446	0.952010	0.250000	0.047990
C4471	C447	0.891240	0.250000	0.108760
C4481	C448	0.762860	0.250000	0.237140
C4491	C449	0.797990	0.250000	0.202010
C4501	C450	0.858760	0.250000	0.141240
C4511	C451	0.512860	0.525720	0.262860
C4521	C452	0.547990	0.595980	0.297990
C4531	C453	0.608760	0.717520	0.358760
C4541	C454	0.737140	0.974280	0.487140
C4551	C455	0.702010	0.904020	0.452010
C4561	C456	0.641240	0.782480	0.391240
N11	N1	0.089260	0.057220	0.074000
N21	N2	0.483220	0.015260	0.426000
N31	N3	0.016780	0.442780	0.532040
N41	N4	0.410740	0.484740	0.967960
N51	N5	0.032040	0.016780	0.942780
N61	N6	0.467960	0.410740	0.984740
N71	N7	0.574000	0.089260	0.557220
N81	N8	0.926000	0.483220	0.515260
N91	N9	0.015260	0.926000	0.983220
N101	N10	0.057220	0.574000	0.589260
N111	N11	0.484740	0.467960	0.910740
N121	N12	0.442780	0.032040	0.516780
N131	N13	0.442780	0.410740	0.426000
N141	N14	0.484740	0.016780	0.074000
N151	N15	0.057220	0.483220	0.967960
N161	N16	0.015260	0.089260	0.532040
N171	N17	0.483220	0.467960	0.557220
N181	N18	0.089260	0.032040	0.515260
N191	N19	0.410740	0.926000	0.942780
N201	N20	0.016780	0.574000	0.984740
N211	N21	0.574000	0.484740	0.516780
N221	N22	0.926000	0.442780	0.910740
N231	N23	0.032040	0.015260	0.589260
N241	N24	0.467960	0.057220	0.983220
N251	N25	0.910740	0.942780	0.926000
N261	N26	0.516780	0.984740	0.574000
N271	N27	0.983220	0.557220	0.467960
N281	N28	0.589260	0.515260	0.032040
N291	N29	0.967960	0.983220	0.057220
N301	N30	0.532040	0.589260	0.015260
N311	N31	0.426000	0.910740	0.442780
N321	N32	0.074000	0.516780	0.484740
N331	N33	0.984740	0.074000	0.016780
N341	N34	0.942780	0.426000	0.410740
N351	N35	0.515260	0.532040	0.089260
N361	N36	0.557220	0.967960	0.483220
N371	N37	0.557220	0.589260	0.574000
N381	N38	0.515260	0.983220	0.926000
N391	N39	0.942780	0.516780	0.032040
N401	N40	0.984740	0.910740	0.467960
N411	N41	0.516780	0.532040	0.442780
N421	N42	0.910740	0.967960	0.484740
N431	N43	0.589260	0.074000	0.057220
N441	N44	0.983220	0.426000	0.015260
N451	N45	0.426000	0.515260	0.483220
N461	N46	0.074000	0.557220	0.089260
N471	N47	0.967960	0.984740	0.410740
N481	N48	0.532040	0.942780	0.016780
Cl11	Cl1	0.750000	0.000000	0.000000
O11	O1	0.781000	0.031000	0.062000
O21	O2	0.750000	0.031000	0.969000
O31	O3	0.719000	0.938000	0.969000
Cl21	Cl2	0.500000	0.750000	0.500000
O41	O4	0.469000	0.719000	0.438000
O51	O5	0.562000	0.781000	0.531000
O61	O6	0.469000	0.750000	0.531000
Cl31	Cl3	0.000000	0.500000	0.250000
O71	O7	0.031000	0.469000	0.250000
O81	O8	0.938000	0.469000	0.219000
O91	O9	0.031000	0.562000	0.281000
Cl41	Cl4	0.750000	0.750000	0.250000
O101	O10	0.719000	0.781000	0.250000
O111	O11	0.750000	0.719000	0.281000
O121	O12	0.781000	0.750000	0.219000
Cl51	Cl5	0.250000	0.000000	0.000000
O131	O13	0.219000	0.969000	0.938000
O141	O14	0.250000	0.969000	0.031000
O151	O15	0.281000	0.062000	0.031000
Cl61	Cl6	0.500000	0.250000	0.500000
O161	O16	0.531000	0.281000	0.562000
O171	O17	0.438000	0.219000	0.469000
O181	O18	0.531000	0.250000	0.469000
Cl71	Cl7	0.000000	0.500000	0.750000
O191	O19	0.969000	0.531000	0.750000
O201	O20	0.062000	0.531000	0.781000
O211	O21	0.969000	0.438000	0.719000
Cl81	Cl8	0.250000	0.250000	0.750000
O221	O22	0.281000	0.219000	0.750000
O231	O23	0.250000	0.281000	0.719000
O241	O24	0.219000	0.250000	0.781000
