data_MANLAP_ion_b_PM
_symmetry_space_group_name_H-M	'P1'
_cell_length_a	13.583500
_cell_length_b	13.583500
_cell_length_c	16.501000
_cell_angle_alpha	119.802100
_cell_angle_beta	119.802100
_cell_angle_gamma	77.622000
_symmetry_Int_Tables_number 1

loop_
_symmetry_equiv_pos_as_xyz
'x,y,z'

loop_
_atom_site_label
_atom_site_type_symbol
_atom_site_fract_x
_atom_site_fract_y
_atom_site_fract_z
N11	N1	0.113700	0.122700	0.866700
N21	N2	0.109500	0.821700	0.834900
C31	C3	0.040300	0.196900	0.888500
H41	H4	0.967800	0.169200	0.865500
C51	C5	0.062000	0.316000	0.944300
H61	H6	0.005500	0.366300	0.957800
C71	C7	0.217800	0.164200	0.904800
H81	H8	0.274200	0.112400	0.893000
C91	C9	0.245800	0.279800	0.960600
H101	H10	0.320500	0.305100	0.986700
C111	C11	0.166800	0.357200	0.978300
C121	C12	0.193200	0.482600	0.032000
C131	C13	0.162700	0.537300	0.970900
C141	C14	0.190300	0.652700	0.020100
C151	C15	0.248200	0.714000	0.130000
C161	C16	0.278400	0.658600	0.191200
C171	C17	0.251100	0.542100	0.141300
C181	C18	0.100300	0.472500	0.850800
H191	H19	0.114200	0.391400	0.827900
H201	H20	0.128000	0.500800	0.821200
H211	H21	0.018600	0.483800	0.826400
C221	C22	0.285900	0.479300	0.205500
H231	H23	0.223700	0.426700	0.175700
H241	H24	0.303000	0.534000	0.278400
H251	H25	0.353500	0.436500	0.204000
C261	C26	0.278500	0.838300	0.180100
H271	H27	0.305800	0.872400	0.256100
H281	H28	0.211100	0.876900	0.150000
H291	H29	0.338100	0.846500	0.166600
C301	C30	0.160500	0.712900	0.955000
C311	C31	0.053500	0.746300	0.909600
H321	H32	0.994500	0.730700	0.917200
C331	C33	0.030700	0.803500	0.851600
H341	H34	0.956800	0.830200	0.823400
C351	C35	0.240800	0.731400	0.936300
H361	H36	0.315900	0.707100	0.964600
C371	C37	0.211800	0.785800	0.875800
H381	H38	0.268200	0.797800	0.863200
N571	N57	0.877300	0.886300	0.633300
N581	N58	0.178300	0.890500	0.665100
C591	C59	0.803100	0.959700	0.611500
H601	H60	0.830800	0.032200	0.634500
C611	C61	0.684000	0.938000	0.555700
H621	H62	0.633700	0.994500	0.542200
C631	C63	0.835800	0.782200	0.595200
H641	H64	0.887600	0.725800	0.607000
C651	C65	0.720200	0.754200	0.539400
H661	H66	0.694900	0.679500	0.513300
C671	C67	0.642800	0.833200	0.521700
C681	C68	0.517400	0.806800	0.468000
C691	C69	0.462700	0.837300	0.529100
C701	C70	0.347300	0.809700	0.479900
C711	C71	0.286000	0.751800	0.370000
C721	C72	0.341400	0.721600	0.308800
C731	C73	0.457900	0.748900	0.358700
C741	C74	0.527500	0.899700	0.649200
H751	H75	0.608600	0.885800	0.672100
H761	H76	0.499200	0.872000	0.678800
H771	H77	0.516200	0.981400	0.673600
C781	C78	0.520700	0.714100	0.294500
H791	H79	0.573300	0.776300	0.324300
H801	H80	0.466000	0.697000	0.221600
H811	H81	0.563500	0.646500	0.296000
C821	C82	0.161700	0.721500	0.319900
H831	H83	0.127600	0.694200	0.243900
H841	H84	0.123100	0.788900	0.350000
H851	H85	0.153500	0.661900	0.333400
C861	C86	0.287100	0.839500	0.545000
C871	C87	0.253700	0.946500	0.590400
H881	H88	0.269300	0.005500	0.582800
C891	C89	0.196500	0.969300	0.648400
H901	H90	0.169800	0.043200	0.676600
C911	C91	0.268600	0.759200	0.563700
H921	H92	0.292900	0.684100	0.535400
C931	C93	0.214200	0.788200	0.624200
H941	H94	0.202200	0.731800	0.636800
N1131	N113	0.886300	0.877300	0.133300
N1141	N114	0.890500	0.178300	0.165100
C1151	C115	0.959700	0.803100	0.111500
H1161	H116	0.032200	0.830800	0.134500
C1171	C117	0.938000	0.684000	0.055700
H1181	H118	0.994500	0.633700	0.042200
C1191	C119	0.782200	0.835800	0.095200
H1201	H120	0.725800	0.887600	0.107000
C1211	C121	0.754200	0.720200	0.039400
H1221	H122	0.679500	0.694900	0.013300
C1231	C123	0.833200	0.642800	0.021700
C1241	C124	0.806800	0.517400	0.968000
C1251	C125	0.837300	0.462700	0.029100
C1261	C126	0.809700	0.347300	0.979900
C1271	C127	0.751800	0.286000	0.870000
C1281	C128	0.721600	0.341400	0.808800
C1291	C129	0.748900	0.457900	0.858700
C1301	C130	0.899700	0.527500	0.149200
H1311	H131	0.885800	0.608600	0.172100
H1321	H132	0.872000	0.499200	0.178800
H1331	H133	0.981400	0.516200	0.173600
C1341	C134	0.714100	0.520700	0.794500
H1351	H135	0.776300	0.573300	0.824300
H1361	H136	0.697000	0.466000	0.721600
H1371	H137	0.646500	0.563500	0.796000
C1381	C138	0.721500	0.161700	0.819900
H1391	H139	0.694200	0.127600	0.743900
H1401	H140	0.788900	0.123100	0.850000
H1411	H141	0.661900	0.153500	0.833400
C1421	C142	0.839500	0.287100	0.045000
C1431	C143	0.946500	0.253700	0.090400
H1441	H144	0.005500	0.269300	0.082800
C1451	C145	0.969300	0.196500	0.148400
H1461	H146	0.043200	0.169800	0.176600
C1471	C147	0.759200	0.268600	0.063700
H1481	H148	0.684100	0.292900	0.035400
C1491	C149	0.788200	0.214200	0.124200
H1501	H150	0.731800	0.202200	0.136800
N1691	N169	0.122700	0.113700	0.366700
N1701	N170	0.821700	0.109500	0.334900
C1711	C171	0.196900	0.040300	0.388500
H1721	H172	0.169200	0.967800	0.365500
C1731	C173	0.316000	0.062000	0.444300
H1741	H174	0.366300	0.005500	0.457800
C1751	C175	0.164200	0.217800	0.404800
H1761	H176	0.112400	0.274200	0.393000
C1771	C177	0.279800	0.245800	0.460600
H1781	H178	0.305100	0.320500	0.486700
C1791	C179	0.357200	0.166800	0.478300
C1801	C180	0.482600	0.193200	0.532000
C1811	C181	0.537300	0.162700	0.470900
C1821	C182	0.652700	0.190300	0.520100
C1831	C183	0.714000	0.248200	0.630000
C1841	C184	0.658600	0.278400	0.691200
C1851	C185	0.542100	0.251100	0.641300
C1861	C186	0.472500	0.100300	0.350800
H1871	H187	0.391400	0.114200	0.327900
H1881	H188	0.500800	0.128000	0.321200
H1891	H189	0.483800	0.018600	0.326400
C1901	C190	0.479300	0.285900	0.705500
H1911	H191	0.426700	0.223700	0.675700
H1921	H192	0.534000	0.303000	0.778400
H1931	H193	0.436500	0.353500	0.704000
C1941	C194	0.838300	0.278500	0.680100
H1951	H195	0.872400	0.305800	0.756100
H1961	H196	0.876900	0.211100	0.650000
H1971	H197	0.846500	0.338100	0.666600
C1981	C198	0.712900	0.160500	0.455000
C1991	C199	0.746300	0.053500	0.409600
H2001	H200	0.730700	0.994500	0.417200
C2011	C201	0.803500	0.030700	0.351600
H2021	H202	0.830200	0.956800	0.323400
C2031	C203	0.731400	0.240800	0.436300
H2041	H204	0.707100	0.315900	0.464600
C2051	C205	0.785800	0.211800	0.375800
H2061	H206	0.797800	0.268200	0.363200
Ag2251	Ag225	0.069000	0.931000	0.750000
Ag2261	Ag226	0.931000	0.069000	0.250000
