data_MAQBIS_clean_PM
_symmetry_space_group_name_H-M	'P1'
_cell_length_a	15.303500
_cell_length_b	39.694600
_cell_length_c	21.593400
_cell_angle_alpha	90.000000
_cell_angle_beta	107.402000
_cell_angle_gamma	90.000000
_symmetry_Int_Tables_number 1

loop_
_symmetry_equiv_pos_as_xyz
'x,y,z'

loop_
_atom_site_label
_atom_site_type_symbol
_atom_site_fract_x
_atom_site_fract_y
_atom_site_fract_z
Cu11	Cu1	0.299130	0.236480	0.202850
Cu21	Cu2	0.191470	0.283390	0.133710
Cu31	Cu3	0.518630	0.992170	0.945910
O11	O1	0.137260	0.286020	0.205300
O21	O2	0.290220	0.314080	0.179270
O31	O3	0.198260	0.206320	0.163050
O41	O4	0.600940	0.030830	0.965920
O51	O5	0.756960	0.226530	0.570630
O61	O6	0.844220	0.267930	0.627680
O71	O7	0.234760	0.248490	0.266480
O81	O8	0.385220	0.273120	0.233100
O91	O9	0.106550	0.245850	0.101130
C11	C1	0.613530	0.047430	0.017350
C21	C2	0.165280	0.267230	0.254280
C31	C3	0.365920	0.303460	0.216970
C41	C4	0.817330	0.249220	0.579180
C51	C5	0.034150	0.286350	0.292320
H11	H1	0.016800	0.301200	0.257500
C61	C6	0.007830	0.261640	0.387080
C71	C7	0.959310	0.201390	0.071850
H21	H2	0.947900	0.223800	0.059600
C81	C8	0.954940	0.259520	0.434610
C91	C9	0.829170	0.119700	0.059360
C101	C10	0.084720	0.241030	0.395140
C111	C11	0.742650	0.075850	0.991300
H31	H3	0.731900	0.062100	0.954900
C121	C12	0.772300	0.117080	0.099510
C131	C13	0.983900	0.284170	0.335210
C141	C14	0.905840	0.144710	0.074910
C151	C15	0.888800	0.178530	0.058170
C161	C16	0.813300	0.098950	0.005170
C171	C17	0.111530	0.266050	0.301320
C181	C18	0.122640	0.216280	0.123200
C191	C19	0.702340	0.093640	0.086170
H41	H4	0.665500	0.091600	0.113300
C201	C20	0.137180	0.243860	0.352960
H51	H5	0.189600	0.230800	0.359400
C211	C21	0.047820	0.190860	0.104010
C221	C22	0.982940	0.278470	0.491860
C231	C23	0.526170	0.318010	0.277250
H61	H6	0.539000	0.295100	0.280700
C241	C24	0.687650	0.073220	0.032050
C251	C25	0.594600	0.341400	0.305190
C261	C26	0.439520	0.329180	0.244520
C271	C27	0.419000	0.362870	0.239500
H71	H7	0.359900	0.369900	0.217600
C281	C28	0.575600	0.375590	0.299630
C291	C29	0.648030	0.400370	0.331980
C301	C30	0.066080	0.157360	0.121210
H81	H8	0.125600	0.150500	0.142700
C311	C31	0.880700	0.237660	0.424520
C321	C32	0.995650	0.134170	0.106370
C331	C33	0.485700	0.386290	0.266700
O101	O10	0.917220	0.477780	0.402240
O111	O11	0.883780	0.465890	0.494060
O121	O12	0.569700	0.044070	0.058230
O131	O13	0.799310	0.185780	0.026630
O141	O14	0.681870	0.333540	0.339420
O151	O15	0.870150	0.104170	0.967960
O161	O16	0.792690	0.138400	0.151050
O171	O17	0.103230	0.219780	0.447390
O181	O18	0.907910	0.303250	0.331770
O191	O19	0.005700	0.100900	0.120740
C341	C34	0.834610	0.234730	0.470790
H91	H9	0.784800	0.220300	0.463700
C351	C35	0.936530	0.275700	0.538730
H101	H10	0.954400	0.288500	0.576500
C361	C36	0.727040	0.432830	0.426710
H111	H11	0.731600	0.440300	0.468400
O201	O20	0.473380	0.420410	0.265580
O211	O21	0.056130	0.298810	0.498070
O221	O22	0.589370	0.400740	0.419660
O231	O23	0.858750	0.219940	0.367590
C371	C37	0.791180	0.442540	0.396840
C381	C38	0.863120	0.253370	0.527320
C391	C39	0.783410	0.432560	0.333750
H121	H12	0.825100	0.440100	0.313100
C401	C40	0.870590	0.463920	0.433400
C411	C41	0.655640	0.411810	0.393800
C421	C42	0.712240	0.411170	0.302020
C431	C43	0.779000	0.219960	0.007660
H131	H13	0.714700	0.222200	0.985900
H141	H14	0.813000	0.226600	0.978800
H151	H15	0.795700	0.234100	0.045400
C441	C44	0.091400	0.316850	0.557080
H161	H16	0.142700	0.330200	0.555000
H171	H17	0.110600	0.301200	0.592500
H181	H18	0.044600	0.331300	0.563600
C451	C45	0.880200	0.326380	0.280500
H191	H19	0.826700	0.338200	0.283200
H201	H20	0.866200	0.314600	0.239900
H211	H21	0.928600	0.342200	0.283300
C461	C46	0.179200	0.197440	0.456490
H221	H22	0.185300	0.183900	0.494300
H231	H23	0.234200	0.210300	0.462100
H241	H24	0.169300	0.183200	0.419200
C471	C47	0.855800	0.083840	0.910970
H251	H25	0.899800	0.089800	0.889100
H261	H26	0.795100	0.087500	0.882500
H271	H27	0.863100	0.060500	0.923100
C481	C48	0.737300	0.135810	0.193900
H281	H28	0.757800	0.151900	0.228400
H291	H29	0.742400	0.113500	0.211800
H301	H30	0.674500	0.140300	0.170200
C491	C49	0.095100	0.089690	0.156600
H311	H31	0.093900	0.065900	0.163800
H321	H32	0.114400	0.101200	0.197600
H331	H33	0.137200	0.094500	0.132500
O241	O24	0.701430	0.398440	0.241510
C501	C50	0.594900	0.411220	0.483700
H341	H34	0.544800	0.401700	0.496000
H351	H35	0.591800	0.435400	0.485100
H361	H36	0.651700	0.403700	0.513200
C511	C51	0.703200	0.298490	0.351600
H371	H37	0.766500	0.296100	0.376100
H381	H38	0.691700	0.286800	0.311100
H391	H39	0.665600	0.289200	0.375800
C521	C52	0.768100	0.407060	0.210000
H401	H40	0.752400	0.396600	0.168100
H411	H41	0.827200	0.399300	0.235700
H421	H42	0.769400	0.431100	0.205100
C531	C53	0.382100	0.432900	0.234500
H431	H43	0.382100	0.457100	0.236800
H441	H44	0.340800	0.424000	0.256200
H451	H45	0.362700	0.426000	0.189900
C541	C54	0.783000	0.198280	0.355000
H461	H46	0.774600	0.187200	0.314100
H471	H47	0.729100	0.211100	0.353500
H481	H48	0.793300	0.181700	0.388800
Cu41	Cu4	0.200870	0.736480	0.297150
Cu51	Cu5	0.308530	0.783390	0.366290
Cu61	Cu6	0.981370	0.492170	0.554090
O251	O25	0.362740	0.786020	0.294700
O261	O26	0.209780	0.814080	0.320730
O271	O27	0.301740	0.706320	0.336950
O281	O28	0.899060	0.530830	0.534080
O291	O29	0.743040	0.726530	0.929370
O301	O30	0.655780	0.767930	0.872320
O311	O31	0.265240	0.748490	0.233520
O321	O32	0.114780	0.773120	0.266900
O331	O33	0.393450	0.745850	0.398870
C551	C55	0.886470	0.547430	0.482650
C561	C56	0.334720	0.767230	0.245720
C571	C57	0.134080	0.803460	0.283030
C581	C58	0.682670	0.749220	0.920820
C591	C59	0.465850	0.786350	0.207680
H491	H49	0.483200	0.801200	0.242500
C601	C60	0.492170	0.761640	0.112920
C611	C61	0.540690	0.701390	0.428150
H501	H50	0.552100	0.723800	0.440400
C621	C62	0.545060	0.759520	0.065390
C631	C63	0.670830	0.619700	0.440640
C641	C64	0.415280	0.741030	0.104860
C651	C65	0.757350	0.575850	0.508700
H511	H51	0.768100	0.562100	0.545100
C661	C66	0.727700	0.617080	0.400490
C671	C67	0.516100	0.784170	0.164790
C681	C68	0.594160	0.644710	0.425090
C691	C69	0.611200	0.678530	0.441830
C701	C70	0.686700	0.598950	0.494830
C711	C71	0.388470	0.766050	0.198680
C721	C72	0.377360	0.716280	0.376800
C731	C73	0.797660	0.593640	0.413830
H521	H52	0.834500	0.591600	0.386700
C741	C74	0.362820	0.743860	0.147040
H531	H53	0.310400	0.730800	0.140600
C751	C75	0.452180	0.690860	0.395990
C761	C76	0.517060	0.778470	0.008140
C771	C77	0.973830	0.818010	0.222750
H541	H54	0.961000	0.795100	0.219300
C781	C78	0.812350	0.573220	0.467950
C791	C79	0.905400	0.841400	0.194810
C801	C80	0.060480	0.829180	0.255480
C811	C81	0.081000	0.862870	0.260500
H551	H55	0.140100	0.869900	0.282400
C821	C82	0.924400	0.875590	0.200370
C831	C83	0.851970	0.900370	0.168020
C841	C84	0.433920	0.657360	0.378790
H561	H56	0.374400	0.650500	0.357300
C851	C85	0.619300	0.737660	0.075480
C861	C86	0.504350	0.634170	0.393630
C871	C87	0.014300	0.886290	0.233300
O341	O34	0.582780	0.977780	0.097760
O351	O35	0.616220	0.965890	0.005940
O361	O36	0.930300	0.544070	0.441770
O371	O37	0.700690	0.685780	0.473370
O381	O38	0.818130	0.833540	0.160580
O391	O39	0.629850	0.604170	0.532040
O401	O40	0.707310	0.638400	0.348950
O411	O41	0.396770	0.719780	0.052610
O421	O42	0.592090	0.803250	0.168230
O431	O43	0.494300	0.600900	0.379260
C881	C88	0.665390	0.734730	0.029210
H571	H57	0.715200	0.720300	0.036300
C891	C89	0.563470	0.775700	0.961270
H581	H58	0.545600	0.788500	0.923500
C901	C90	0.772960	0.932830	0.073290
H591	H59	0.768400	0.940300	0.031600
O441	O44	0.026620	0.920410	0.234420
O451	O45	0.443870	0.798810	0.001930
O461	O46	0.910630	0.900740	0.080340
O471	O47	0.641250	0.719940	0.132410
C911	C91	0.708820	0.942540	0.103160
C921	C92	0.636880	0.753370	0.972680
C931	C93	0.716590	0.932560	0.166250
H601	H60	0.674900	0.940100	0.186900
C941	C94	0.629410	0.963920	0.066600
C951	C95	0.844360	0.911810	0.106200
C961	C96	0.787760	0.911170	0.197980
C971	C97	0.721000	0.719960	0.492340
H611	H61	0.785300	0.722200	0.514100
H621	H62	0.687000	0.726600	0.521200
H631	H63	0.704300	0.734100	0.454600
C981	C98	0.408600	0.816850	0.942920
H641	H64	0.357300	0.830200	0.945000
H651	H65	0.389400	0.801200	0.907500
H661	H66	0.455400	0.831300	0.936400
C991	C99	0.619800	0.826380	0.219500
H671	H67	0.673300	0.838200	0.216800
H681	H68	0.633800	0.814600	0.260100
H691	H69	0.571400	0.842200	0.216700
C1001	C100	0.320800	0.697440	0.043510
H701	H70	0.314700	0.683900	0.005700
H711	H71	0.265800	0.710300	0.037900
H721	H72	0.330700	0.683200	0.080800
C1011	C101	0.644200	0.583840	0.589030
H731	H73	0.600200	0.589800	0.610900
H741	H74	0.704900	0.587500	0.617500
H751	H75	0.636900	0.560500	0.576900
C1021	C102	0.762700	0.635810	0.306100
H761	H76	0.742200	0.651900	0.271600
H771	H77	0.757600	0.613500	0.288200
H781	H78	0.825500	0.640300	0.329800
C1031	C103	0.404900	0.589690	0.343400
H791	H79	0.406100	0.565900	0.336200
H801	H80	0.385600	0.601200	0.302400
H811	H81	0.362800	0.594500	0.367500
O481	O48	0.798570	0.898440	0.258490
C1041	C104	0.905100	0.911220	0.016300
H821	H82	0.955200	0.901700	0.004000
H831	H83	0.908200	0.935400	0.014900
H841	H84	0.848300	0.903700	0.986800
C1051	C105	0.796800	0.798490	0.148400
H851	H85	0.733500	0.796100	0.123900
H861	H86	0.808300	0.786800	0.188900
H871	H87	0.834400	0.789200	0.124200
C1061	C106	0.731900	0.907060	0.290000
H881	H88	0.747600	0.896600	0.331900
H891	H89	0.672800	0.899300	0.264300
H901	H90	0.730600	0.931100	0.294900
C1071	C107	0.117900	0.932900	0.265500
H911	H91	0.117900	0.957100	0.263200
H921	H92	0.159200	0.924000	0.243800
H931	H93	0.137300	0.926000	0.310100
C1081	C108	0.717000	0.698280	0.145000
H941	H94	0.725400	0.687200	0.185900
H951	H95	0.770900	0.711100	0.146500
H961	H96	0.706700	0.681700	0.111200
Cu71	Cu7	0.700870	0.763520	0.797150
Cu81	Cu8	0.808530	0.716610	0.866290
Cu91	Cu9	0.481370	0.007830	0.054090
O491	O49	0.862740	0.713980	0.794700
O501	O50	0.709780	0.685920	0.820730
O511	O51	0.801740	0.793680	0.836950
O521	O52	0.399060	0.969170	0.034080
O531	O53	0.243040	0.773470	0.429370
O541	O54	0.155780	0.732070	0.372320
O551	O55	0.765240	0.751510	0.733520
O561	O56	0.614780	0.726880	0.766900
O571	O57	0.893450	0.754150	0.898870
C1091	C109	0.386470	0.952570	0.982650
C1101	C110	0.834720	0.732770	0.745720
C1111	C111	0.634080	0.696540	0.783030
C1121	C112	0.182670	0.750780	0.420820
C1131	C113	0.965850	0.713650	0.707680
H971	H97	0.983200	0.698800	0.742500
C1141	C114	0.992170	0.738360	0.612920
C1151	C115	0.040690	0.798610	0.928150
H981	H98	0.052100	0.776200	0.940400
C1161	C116	0.045060	0.740480	0.565390
C1171	C117	0.170830	0.880300	0.940640
C1181	C118	0.915280	0.758970	0.604860
C1191	C119	0.257350	0.924150	0.008700
H991	H99	0.268100	0.937900	0.045100
C1201	C120	0.227700	0.882920	0.900490
C1211	C121	0.016100	0.715830	0.664790
C1221	C122	0.094160	0.855290	0.925090
C1231	C123	0.111200	0.821470	0.941830
C1241	C124	0.186700	0.901050	0.994830
C1251	C125	0.888470	0.733950	0.698680
C1261	C126	0.877360	0.783720	0.876800
C1271	C127	0.297660	0.906360	0.913830
H1001	H100	0.334500	0.908400	0.886700
C1281	C128	0.862820	0.756140	0.647040
H1011	H101	0.810400	0.769200	0.640600
C1291	C129	0.952180	0.809140	0.895990
C1301	C130	0.017060	0.721530	0.508140
C1311	C131	0.473830	0.681990	0.722750
H1021	H102	0.461000	0.704900	0.719300
C1321	C132	0.312350	0.926780	0.967950
C1331	C133	0.405400	0.658600	0.694810
C1341	C134	0.560480	0.670820	0.755480
C1351	C135	0.581000	0.637130	0.760500
H1031	H103	0.640100	0.630100	0.782400
C1361	C136	0.424400	0.624410	0.700370
C1371	C137	0.351970	0.599630	0.668020
C1381	C138	0.933920	0.842640	0.878790
H1041	H104	0.874400	0.849500	0.857300
C1391	C139	0.119300	0.762340	0.575480
C1401	C140	0.004350	0.865830	0.893630
C1411	C141	0.514300	0.613710	0.733300
O581	O58	0.082780	0.522220	0.597760
O591	O59	0.116220	0.534110	0.505940
O601	O60	0.430300	0.955930	0.941770
O611	O61	0.200690	0.814220	0.973370
O621	O62	0.318130	0.666460	0.660580
O631	O63	0.129850	0.895830	0.032040
O641	O64	0.207310	0.861600	0.848950
O651	O65	0.896770	0.780220	0.552610
O661	O66	0.092090	0.696750	0.668230
O671	O67	0.994300	0.899100	0.879260
C1421	C142	0.165390	0.765270	0.529210
H1051	H105	0.215200	0.779700	0.536300
C1431	C143	0.063470	0.724300	0.461270
H1061	H106	0.045600	0.711500	0.423500
C1441	C144	0.272960	0.567170	0.573290
H1071	H107	0.268400	0.559700	0.531600
O681	O68	0.526620	0.579590	0.734420
O691	O69	0.943870	0.701190	0.501930
O701	O70	0.410630	0.599260	0.580340
O711	O71	0.141250	0.780060	0.632410
C1451	C145	0.208820	0.557460	0.603160
C1461	C146	0.136880	0.746630	0.472680
C1471	C147	0.216590	0.567440	0.666250
H1081	H108	0.174900	0.559900	0.686900
C1481	C148	0.129410	0.536080	0.566600
C1491	C149	0.344360	0.588190	0.606200
C1501	C150	0.287760	0.588830	0.697980
C1511	C151	0.221000	0.780040	0.992340
H1091	H109	0.285300	0.777800	0.014100
H1101	H110	0.187000	0.773400	0.021200
H1111	H111	0.204300	0.765900	0.954600
C1521	C152	0.908600	0.683150	0.442920
H1121	H112	0.857300	0.669800	0.445000
H1131	H113	0.889400	0.698800	0.407500
H1141	H114	0.955400	0.668700	0.436400
C1531	C153	0.119800	0.673620	0.719500
H1151	H115	0.173300	0.661800	0.716800
H1161	H116	0.133800	0.685400	0.760100
H1171	H117	0.071400	0.657800	0.716700
C1541	C154	0.820800	0.802560	0.543510
H1181	H118	0.814700	0.816100	0.505700
H1191	H119	0.765800	0.789700	0.537900
H1201	H120	0.830700	0.816800	0.580800
C1551	C155	0.144200	0.916160	0.089030
H1211	H121	0.100200	0.910200	0.110900
H1221	H122	0.204900	0.912500	0.117500
H1231	H123	0.136900	0.939500	0.076900
C1561	C156	0.262700	0.864190	0.806100
H1241	H124	0.242200	0.848100	0.771600
H1251	H125	0.257600	0.886500	0.788200
H1261	H126	0.325500	0.859700	0.829800
C1571	C157	0.904900	0.910310	0.843400
H1271	H127	0.906100	0.934100	0.836200
H1281	H128	0.885600	0.898800	0.802400
H1291	H129	0.862800	0.905500	0.867500
O721	O72	0.298570	0.601560	0.758490
C1581	C158	0.405100	0.588780	0.516300
H1301	H130	0.455200	0.598300	0.504000
H1311	H131	0.408200	0.564600	0.514900
H1321	H132	0.348300	0.596300	0.486800
C1591	C159	0.296800	0.701510	0.648400
H1331	H133	0.233500	0.703900	0.623900
H1341	H134	0.308300	0.713200	0.688900
H1351	H135	0.334400	0.710800	0.624200
C1601	C160	0.231900	0.592940	0.790000
H1361	H136	0.247600	0.603400	0.831900
H1371	H137	0.172800	0.600700	0.764300
H1381	H138	0.230600	0.568900	0.794900
C1611	C161	0.617900	0.567100	0.765500
H1391	H139	0.617900	0.542900	0.763200
H1401	H140	0.659200	0.576000	0.743800
H1411	H141	0.637300	0.574000	0.810100
C1621	C162	0.217000	0.801720	0.645000
H1421	H142	0.225400	0.812800	0.685900
H1431	H143	0.270900	0.788900	0.646500
H1441	H144	0.206700	0.818300	0.611200
Cu101	Cu10	0.799130	0.263520	0.702850
Cu111	Cu11	0.691470	0.216610	0.633710
Cu121	Cu12	0.018630	0.507830	0.445910
O731	O73	0.637260	0.213980	0.705300
O741	O74	0.790220	0.185920	0.679270
O751	O75	0.698260	0.293680	0.663050
O761	O76	0.100940	0.469170	0.465920
O771	O77	0.256960	0.273470	0.070630
O781	O78	0.344220	0.232070	0.127680
O791	O79	0.734760	0.251510	0.766480
O801	O80	0.885220	0.226880	0.733100
O811	O81	0.606550	0.254150	0.601130
C1631	C163	0.113530	0.452570	0.517350
C1641	C164	0.665280	0.232770	0.754280
C1651	C165	0.865920	0.196540	0.716970
C1661	C166	0.317330	0.250780	0.079180
C1671	C167	0.534150	0.213650	0.792320
H1451	H145	0.516800	0.198800	0.757500
C1681	C168	0.507830	0.238360	0.887080
C1691	C169	0.459310	0.298610	0.571850
H1461	H146	0.447900	0.276200	0.559600
C1701	C170	0.454940	0.240480	0.934610
C1711	C171	0.329170	0.380300	0.559360
C1721	C172	0.584720	0.258970	0.895140
C1731	C173	0.242650	0.424150	0.491300
H1471	H147	0.231900	0.437900	0.454900
C1741	C174	0.272300	0.382920	0.599510
C1751	C175	0.483900	0.215830	0.835210
C1761	C176	0.405840	0.355290	0.574910
C1771	C177	0.388800	0.321470	0.558170
C1781	C178	0.313300	0.401050	0.505170
C1791	C179	0.611530	0.233950	0.801320
C1801	C180	0.622640	0.283720	0.623200
C1811	C181	0.202340	0.406360	0.586170
H1481	H148	0.165500	0.408400	0.613300
C1821	C182	0.637180	0.256140	0.852960
H1491	H149	0.689600	0.269200	0.859400
C1831	C183	0.547820	0.309140	0.604010
C1841	C184	0.482940	0.221530	0.991860
C1851	C185	0.026170	0.181990	0.777250
H1501	H150	0.039000	0.204900	0.780700
C1861	C186	0.187650	0.426780	0.532050
C1871	C187	0.094600	0.158600	0.805190
C1881	C188	0.939520	0.170820	0.744520
C1891	C189	0.919000	0.137130	0.739500
H1511	H151	0.859900	0.130100	0.717600
C1901	C190	0.075600	0.124410	0.799630
C1911	C191	0.148030	0.099630	0.831980
C1921	C192	0.566080	0.342640	0.621210
H1521	H152	0.625600	0.349500	0.642700
C1931	C193	0.380700	0.262340	0.924520
C1941	C194	0.495650	0.365830	0.606370
C1951	C195	0.985700	0.113710	0.766700
O821	O82	0.417220	0.022220	0.902240
O831	O83	0.383780	0.034110	0.994060
O841	O84	0.069700	0.455930	0.558230
O851	O85	0.299310	0.314220	0.526630
O861	O86	0.181870	0.166460	0.839420
O871	O87	0.370150	0.395830	0.467960
O881	O88	0.292690	0.361600	0.651050
O891	O89	0.603230	0.280220	0.947390
O901	O90	0.407910	0.196750	0.831770
O911	O91	0.505700	0.399100	0.620740
C1961	C196	0.334610	0.265270	0.970790
H1531	H153	0.284800	0.279700	0.963700
C1971	C197	0.436530	0.224300	0.038730
H1541	H154	0.454400	0.211500	0.076500
C1981	C198	0.227040	0.067170	0.926710
H1551	H155	0.231600	0.059700	0.968400
O921	O92	0.973380	0.079590	0.765580
O931	O93	0.556130	0.201190	0.998070
O941	O94	0.089370	0.099260	0.919660
O951	O95	0.358750	0.280060	0.867590
C1991	C199	0.291180	0.057460	0.896840
C2001	C200	0.363120	0.246630	0.027320
C2011	C201	0.283410	0.067440	0.833750
H1561	H156	0.325100	0.059900	0.813100
C2021	C202	0.370590	0.036080	0.933400
C2031	C203	0.155640	0.088190	0.893800
C2041	C204	0.212240	0.088830	0.802020
C2051	C205	0.279000	0.280040	0.507660
H1571	H157	0.214700	0.277800	0.485900
H1581	H158	0.313000	0.273400	0.478800
H1591	H159	0.295700	0.265900	0.545400
C2061	C206	0.591400	0.183150	0.057080
H1601	H160	0.642700	0.169800	0.055000
H1611	H161	0.610600	0.198800	0.092500
H1621	H162	0.544600	0.168700	0.063600
C2071	C207	0.380200	0.173620	0.780500
H1631	H163	0.326700	0.161800	0.783200
H1641	H164	0.366200	0.185400	0.739900
H1651	H165	0.428600	0.157800	0.783300
C2081	C208	0.679200	0.302560	0.956490
H1661	H166	0.685300	0.316100	0.994300
H1671	H167	0.734200	0.289700	0.962100
H1681	H168	0.669300	0.316800	0.919200
C2091	C209	0.355800	0.416160	0.410970
H1691	H169	0.399800	0.410200	0.389100
H1701	H170	0.295100	0.412500	0.382500
H1711	H171	0.363100	0.439500	0.423100
C2101	C210	0.237300	0.364190	0.693900
H1721	H172	0.257800	0.348100	0.728400
H1731	H173	0.242400	0.386500	0.711800
H1741	H174	0.174500	0.359700	0.670200
C2111	C211	0.595100	0.410310	0.656600
H1751	H175	0.593900	0.434100	0.663800
H1761	H176	0.614400	0.398800	0.697600
H1771	H177	0.637200	0.405500	0.632500
O961	O96	0.201430	0.101560	0.741510
C2121	C212	0.094900	0.088780	0.983700
H1781	H178	0.044800	0.098300	0.996000
H1791	H179	0.091800	0.064600	0.985100
H1801	H180	0.151700	0.096300	0.013200
C2131	C213	0.203200	0.201510	0.851600
H1811	H181	0.266500	0.203900	0.876100
H1821	H182	0.191700	0.213200	0.811100
H1831	H183	0.165600	0.210800	0.875800
C2141	C214	0.268100	0.092940	0.710000
H1841	H184	0.252400	0.103400	0.668100
H1851	H185	0.327200	0.100700	0.735700
H1861	H186	0.269400	0.068900	0.705100
C2151	C215	0.882100	0.067100	0.734500
H1871	H187	0.882100	0.042900	0.736800
H1881	H188	0.840800	0.076000	0.756200
H1891	H189	0.862700	0.074000	0.689900
C2161	C216	0.283000	0.301720	0.855000
H1901	H190	0.274600	0.312800	0.814100
H1911	H191	0.229100	0.288900	0.853500
H1921	H192	0.293300	0.318300	0.888800
