data_MAQBEO_clean_PM
_symmetry_space_group_name_H-M	'P1'
_cell_length_a	16.828900
_cell_length_b	16.962500
_cell_length_c	17.034100
_cell_angle_alpha	94.812000
_cell_angle_beta	95.549000
_cell_angle_gamma	91.609000
_symmetry_Int_Tables_number 1

loop_
_symmetry_equiv_pos_as_xyz
'x,y,z'

loop_
_atom_site_label
_atom_site_type_symbol
_atom_site_fract_x
_atom_site_fract_y
_atom_site_fract_z
Zn11	Zn1	0.329340	0.234040	0.212280
Zn21	Zn2	0.184740	0.351980	0.228900
Zn31	Zn3	0.347820	0.364960	0.354560
Zn41	Zn4	0.229720	0.224880	0.354570
O11	O1	0.273790	0.296060	0.286250
O21	O2	0.358900	0.468970	0.316750
O31	O3	0.325410	0.378760	0.465800
O41	O4	0.233420	0.362250	0.121630
O51	O5	0.272130	0.119760	0.332890
O61	O6	0.228900	0.464010	0.275700
O71	O7	0.453490	0.317640	0.359550
O81	O8	0.745240	0.312100	0.460630
O91	O9	0.411200	0.301900	0.837530
O101	O10	0.319020	0.265300	0.106740
O111	O11	0.272500	0.256390	0.464270
O121	O12	0.116560	0.207900	0.360000
O131	O13	0.445630	0.244800	0.242630
O141	O14	0.311200	0.119310	0.211510
O151	O15	0.443930	0.755670	0.309900
O161	O16	0.114180	0.333100	0.333700
O171	O17	0.173100	0.746050	0.214900
O181	O18	0.818030	0.388470	0.302000
O191	O19	0.823590	0.127130	0.366100
O201	O20	0.354100	0.466740	0.762520
O211	O21	0.353100	0.827650	0.137730
O221	O22	0.735000	0.197300	0.202470
C11	C1	0.238100	0.702600	0.241400
C21	C2	0.613700	0.293400	0.386600
H11	H1	0.588000	0.314600	0.429000
C31	C3	0.329000	0.875200	0.200000
C41	C4	0.482000	0.276600	0.304700
C51	C5	0.295200	0.499100	0.288800
C61	C6	0.319900	0.406400	0.712200
C71	C7	0.865700	0.328500	0.320000
C81	C8	0.608400	0.232600	0.252500
H21	H2	0.578700	0.212800	0.205700
C91	C9	0.215600	0.368500	0.873400
C101	C10	0.736300	0.256200	0.330800
C111	C11	0.301000	0.585700	0.275700
C121	C12	0.570700	0.266800	0.315800
C131	C13	0.373600	0.627800	0.295600
H31	H3	0.419200	0.602000	0.312700
C141	C14	0.279600	0.334000	0.996400
C151	C15	0.348700	0.321900	0.880000
C161	C16	0.308200	0.747300	0.262000
C171	C17	0.214100	0.362400	0.954900
H41	H4	0.169600	0.377200	0.980200
C181	C18	0.348200	0.313600	0.959900
H51	H5	0.392400	0.294900	0.988800
C191	C19	0.825000	0.258700	0.335500
C201	C20	0.869100	0.193400	0.353200
C211	C21	0.309700	0.834500	0.263800
C221	C22	0.948600	0.332400	0.324400
H61	H6	0.975800	0.378700	0.315200
C231	C23	0.276700	0.320200	0.081600
C241	C24	0.281700	0.348700	0.835600
C251	C25	0.080000	0.410200	0.860500
H71	H7	0.040500	0.425700	0.820800
H81	H8	0.090700	0.452700	0.901400
H91	H9	0.060500	0.364200	0.882800
C261	C26	0.280800	0.347200	0.748200
C271	C27	0.855900	0.456700	0.277100
H101	H10	0.816800	0.495700	0.266900
H111	H11	0.880500	0.442500	0.229600
H121	H12	0.895900	0.478100	0.317900
C281	C28	0.691100	0.228800	0.260700
C291	C29	0.376600	0.708600	0.289200
C301	C30	0.232800	0.622100	0.248000
H131	H13	0.184900	0.593300	0.234200
C311	C31	0.099800	0.704500	0.192700
H141	H14	0.060000	0.740900	0.176400
H151	H15	0.083500	0.678800	0.236900
H161	H16	0.105700	0.665500	0.149600
C321	C32	0.696800	0.287900	0.393300
C331	C33	0.514300	0.719100	0.340600
H171	H17	0.556900	0.758300	0.352700
H181	H18	0.529200	0.679300	0.301900
H191	H19	0.504000	0.695100	0.387900
C341	C34	0.707100	0.341800	0.529000
H201	H20	0.747100	0.357600	0.571900
H211	H21	0.672600	0.301000	0.544400
H221	H22	0.676200	0.386500	0.516200
C351	C35	0.866100	0.057900	0.380500
H231	H23	0.829200	0.016100	0.389500
H241	H24	0.903900	0.068600	0.426300
H251	H25	0.893800	0.042000	0.335400
C361	C36	0.387200	0.533300	0.728200
H261	H26	0.409700	0.571600	0.769600
H271	H27	0.345800	0.556800	0.696100
H281	H28	0.428200	0.515800	0.696000
C371	C37	0.376700	0.867000	0.072500
H291	H29	0.391700	0.828500	0.032500
H301	H30	0.421300	0.902700	0.090200
H311	H31	0.332900	0.896200	0.051000
C381	C38	0.479300	0.269600	0.879500
H321	H32	0.518700	0.257500	0.843600
H331	H33	0.463000	0.222200	0.901600
H341	H34	0.501600	0.307600	0.921300
C391	C39	0.690500	0.168100	0.129600
H351	H35	0.726400	0.148300	0.092800
H361	H36	0.661000	0.210200	0.107900
H371	H37	0.654000	0.126200	0.139100
O231	O23	0.152120	0.392200	0.825150
C401	C40	0.989900	0.265900	0.342800
C411	C41	0.079100	0.269200	0.345300
C421	C42	0.951700	0.196400	0.357600
H381	H38	0.980800	0.152700	0.370300
C431	C43	0.323400	0.399600	0.629900
H391	H39	0.348700	0.439200	0.605700
C441	C44	0.289300	0.334000	0.585500
C451	C45	0.296000	0.322700	0.498300
C461	C46	0.248300	0.275600	0.619400
H401	H40	0.224200	0.232100	0.588300
C471	C47	0.244000	0.283200	0.701000
O241	O24	0.205900	0.228900	0.740160
C481	C48	0.161100	0.167200	0.691400
H411	H41	0.135500	0.133000	0.724200
H421	H42	0.196400	0.137200	0.660500
H431	H43	0.121300	0.189900	0.656700
C491	C49	0.284000	0.878100	0.330000
O251	O25	0.266300	0.833960	0.389400
C501	C50	0.280500	0.959400	0.333100
H441	H44	0.265200	0.988200	0.377700
C511	C51	0.324600	0.956300	0.201900
H451	H45	0.337900	0.982900	0.159100
C521	C52	0.300400	0.997400	0.267600
C531	C53	0.293100	0.086100	0.271600
C541	C54	0.236500	0.875000	0.457000
H461	H46	0.226200	0.838000	0.494800
H471	H47	0.187900	0.900100	0.440600
H481	H48	0.275500	0.914500	0.480800
Zn51	Zn5	0.670660	0.765960	0.787720
Zn61	Zn6	0.815260	0.648020	0.771100
Zn71	Zn7	0.652180	0.635040	0.645440
Zn81	Zn8	0.770280	0.775120	0.645430
O261	O26	0.726210	0.703940	0.713750
O271	O27	0.641100	0.531030	0.683250
O281	O28	0.674590	0.621240	0.534200
O291	O29	0.766580	0.637750	0.878370
O301	O30	0.727870	0.880240	0.667110
O311	O31	0.771100	0.535990	0.724300
O321	O32	0.546510	0.682360	0.640450
O331	O33	0.254760	0.687900	0.539370
O341	O34	0.588800	0.698100	0.162470
O351	O35	0.680980	0.734700	0.893260
O361	O36	0.727500	0.743610	0.535730
O371	O37	0.883440	0.792100	0.640000
O381	O38	0.554370	0.755200	0.757370
O391	O39	0.688800	0.880690	0.788490
O401	O40	0.556070	0.244330	0.690100
O411	O41	0.885820	0.666900	0.666300
O421	O42	0.826900	0.253950	0.785100
O431	O43	0.181970	0.611530	0.698000
O441	O44	0.176410	0.872870	0.633900
O451	O45	0.645900	0.533260	0.237480
O461	O46	0.646900	0.172350	0.862270
O471	O47	0.265000	0.802700	0.797530
C551	C55	0.761900	0.297400	0.758600
C561	C56	0.386300	0.706600	0.613400
H491	H49	0.412000	0.685400	0.571000
C571	C57	0.671000	0.124800	0.800000
C581	C58	0.518000	0.723400	0.695300
C591	C59	0.704800	0.500900	0.711200
C601	C60	0.680100	0.593600	0.287800
C611	C61	0.134300	0.671500	0.680000
C621	C62	0.391600	0.767400	0.747500
H501	H50	0.421300	0.787200	0.794300
C631	C63	0.784400	0.631500	0.126600
C641	C64	0.263700	0.743800	0.669200
C651	C65	0.699000	0.414300	0.724300
C661	C66	0.429300	0.733200	0.684200
C671	C67	0.626400	0.372200	0.704400
H511	H51	0.580800	0.398000	0.687300
C681	C68	0.720400	0.666000	0.003600
C691	C69	0.651300	0.678100	0.120000
C701	C70	0.691800	0.252700	0.738000
C711	C71	0.785900	0.637600	0.045100
H521	H52	0.830400	0.622800	0.019800
C721	C72	0.651800	0.686400	0.040100
H531	H53	0.607600	0.705100	0.011200
C731	C73	0.175000	0.741300	0.664500
C741	C74	0.130900	0.806600	0.646800
C751	C75	0.690300	0.165500	0.736200
C761	C76	0.051400	0.667600	0.675600
H541	H54	0.024200	0.621300	0.684800
C771	C77	0.723300	0.679800	0.918400
C781	C78	0.718300	0.651300	0.164400
C791	C79	0.920000	0.589800	0.139500
H551	H55	0.959500	0.574300	0.179200
H561	H56	0.909300	0.547300	0.098600
H571	H57	0.939500	0.635800	0.117200
C801	C80	0.719200	0.652800	0.251800
C811	C81	0.144100	0.543300	0.722900
H581	H58	0.183200	0.504300	0.733100
H591	H59	0.119500	0.557500	0.770400
H601	H60	0.104100	0.521900	0.682100
C821	C82	0.308900	0.771200	0.739300
C831	C83	0.623400	0.291400	0.710800
C841	C84	0.767200	0.377900	0.752000
H611	H61	0.815100	0.406700	0.765800
C851	C85	0.900200	0.295500	0.807300
H621	H62	0.940000	0.259100	0.823600
H631	H63	0.916500	0.321200	0.763100
H641	H64	0.894300	0.334500	0.850400
C861	C86	0.303200	0.712100	0.606700
C871	C87	0.485700	0.280900	0.659400
H651	H65	0.443100	0.241700	0.647300
H661	H66	0.470800	0.320700	0.698100
H671	H67	0.496000	0.304900	0.612100
C881	C88	0.292900	0.658200	0.471000
H681	H68	0.252900	0.642400	0.428100
H691	H69	0.327400	0.699000	0.455600
H701	H70	0.323800	0.613500	0.483800
C891	C89	0.133900	0.942100	0.619500
H711	H71	0.170800	0.983900	0.610500
H721	H72	0.096100	0.931400	0.573700
H731	H73	0.106200	0.958000	0.664600
C901	C90	0.612800	0.466700	0.271800
H741	H74	0.590300	0.428400	0.230400
H751	H75	0.654200	0.443200	0.303900
H761	H76	0.571800	0.484200	0.304000
C911	C91	0.623300	0.133000	0.927500
H771	H77	0.608300	0.171500	0.967500
H781	H78	0.578700	0.097300	0.909800
H791	H79	0.667100	0.103800	0.949000
C921	C92	0.520700	0.730400	0.120500
H801	H80	0.481300	0.742500	0.156400
H811	H81	0.537000	0.777800	0.098400
H821	H82	0.498400	0.692400	0.078700
C931	C93	0.309500	0.831900	0.870400
H831	H83	0.273600	0.851700	0.907200
H841	H84	0.339000	0.789800	0.892100
H851	H85	0.346000	0.873800	0.860900
O481	O48	0.847880	0.607800	0.174850
C941	C94	0.010100	0.734100	0.657200
C951	C95	0.920900	0.730800	0.654700
C961	C96	0.048300	0.803600	0.642400
H861	H86	0.019200	0.847300	0.629700
C971	C97	0.676600	0.600400	0.370100
H871	H87	0.651300	0.560800	0.394300
C981	C98	0.710700	0.666000	0.414500
C991	C99	0.704000	0.677300	0.501700
C1001	C100	0.751700	0.724400	0.380600
H881	H88	0.775800	0.767900	0.411700
C1011	C101	0.756000	0.716800	0.299000
O491	O49	0.794100	0.771100	0.259840
C1021	C102	0.838900	0.832800	0.308600
H891	H89	0.864500	0.867000	0.275800
H901	H90	0.803600	0.862800	0.339500
H911	H91	0.878700	0.810100	0.343300
C1031	C103	0.716000	0.121900	0.670000
O501	O50	0.733700	0.166040	0.610600
C1041	C104	0.719500	0.040600	0.666900
H921	H92	0.734800	0.011800	0.622300
C1051	C105	0.675400	0.043700	0.798100
H931	H93	0.662100	0.017100	0.840900
C1061	C106	0.699600	0.002600	0.732400
C1071	C107	0.706900	0.913900	0.728400
C1081	C108	0.763500	0.125000	0.543000
H941	H94	0.773800	0.162000	0.505200
H951	H95	0.812100	0.099900	0.559400
H961	H96	0.724500	0.085500	0.519200
