data_MAQJEW_clean_PM
_symmetry_space_group_name_H-M	'P1'
_cell_length_a	14.761000
_cell_length_b	14.761000
_cell_length_c	10.879000
_cell_angle_alpha	90.000000
_cell_angle_beta	90.000000
_cell_angle_gamma	90.000000
_symmetry_Int_Tables_number 1

loop_
_symmetry_equiv_pos_as_xyz
'x,y,z'

loop_
_atom_site_label
_atom_site_type_symbol
_atom_site_fract_x
_atom_site_fract_y
_atom_site_fract_z
O11	O1	0.734480	0.654080	0.158420
O21	O2	0.862320	0.675330	0.052390
N11	N1	0.597230	0.792260	0.165910
C11	C1	0.777840	0.665690	0.060750
H11	H1	0.647000	0.810200	0.159000
H21	H2	0.573700	0.799900	0.239000
O31	O3	0.234480	0.154080	0.658420
O41	O4	0.362320	0.175330	0.552390
N21	N2	0.097230	0.292260	0.665910
C21	C2	0.277840	0.165690	0.560750
H31	H3	0.147000	0.310200	0.659000
H41	H4	0.073700	0.299900	0.739000
O51	O5	0.765520	0.345920	0.658420
O61	O6	0.637680	0.324670	0.552390
N31	N3	0.902770	0.207740	0.665910
C31	C3	0.722160	0.334310	0.560750
H51	H5	0.853000	0.189800	0.659000
H61	H6	0.926300	0.200100	0.739000
O71	O7	0.265520	0.845920	0.158420
O81	O8	0.137680	0.824670	0.052390
N41	N4	0.402770	0.707740	0.165910
C41	C4	0.222160	0.834310	0.060750
H71	H7	0.353000	0.689800	0.159000
H81	H8	0.426300	0.700100	0.239000
O91	O9	0.595920	0.484480	0.408420
O101	O10	0.574670	0.612320	0.302390
N51	N5	0.457740	0.347230	0.415910
C51	C5	0.584310	0.527840	0.310750
H91	H9	0.439800	0.397000	0.409000
H101	H10	0.450100	0.323700	0.489000
O111	O11	0.095920	0.984480	0.908420
O121	O12	0.074670	0.112320	0.802390
N61	N6	0.957740	0.847230	0.915910
C61	C6	0.084310	0.027840	0.810750
H111	H11	0.939800	0.897000	0.909000
H121	H12	0.950100	0.823700	0.989000
O131	O13	0.904080	0.515520	0.908420
O141	O14	0.925330	0.387680	0.802390
N71	N7	0.042260	0.652770	0.915910
C71	C7	0.915690	0.472160	0.810750
H131	H13	0.060200	0.603000	0.909000
H141	H14	0.049900	0.676300	0.989000
O151	O15	0.404080	0.015520	0.408420
O161	O16	0.425330	0.887680	0.302390
N81	N8	0.542260	0.152770	0.415910
C81	C8	0.415690	0.972160	0.310750
H151	H15	0.560200	0.103000	0.409000
H161	H16	0.549900	0.176300	0.489000
O171	O17	0.765520	0.654080	0.841580
O181	O18	0.637680	0.675330	0.947610
N91	N9	0.902770	0.792260	0.834090
C91	C9	0.722160	0.665690	0.939250
H171	H17	0.853000	0.810200	0.841000
H181	H18	0.926300	0.799900	0.761000
O191	O19	0.265520	0.154080	0.341580
O201	O20	0.137680	0.175330	0.447610
N101	N10	0.402770	0.292260	0.334090
C101	C10	0.222160	0.165690	0.439250
H191	H19	0.353000	0.310200	0.341000
H201	H20	0.426300	0.299900	0.261000
O211	O21	0.734480	0.345920	0.341580
O221	O22	0.862320	0.324670	0.447610
N111	N11	0.597230	0.207740	0.334090
C111	C11	0.777840	0.334310	0.439250
H211	H21	0.647000	0.189800	0.341000
H221	H22	0.573700	0.200100	0.261000
O231	O23	0.234480	0.845920	0.841580
O241	O24	0.362320	0.824670	0.947610
N121	N12	0.097230	0.707740	0.834090
C121	C12	0.277840	0.834310	0.939250
H231	H23	0.147000	0.689800	0.841000
H241	H24	0.073700	0.700100	0.761000
O251	O25	0.904080	0.484480	0.591580
O261	O26	0.925330	0.612320	0.697610
N131	N13	0.042260	0.347230	0.584090
C131	C13	0.915690	0.527840	0.689250
H251	H25	0.060200	0.397000	0.591000
H261	H26	0.049900	0.323700	0.511000
O271	O27	0.404080	0.984480	0.091580
O281	O28	0.425330	0.112320	0.197610
N141	N14	0.542260	0.847230	0.084090
C141	C14	0.415690	0.027840	0.189250
H271	H27	0.560200	0.897000	0.091000
H281	H28	0.549900	0.823700	0.011000
O291	O29	0.595920	0.515520	0.091580
O301	O30	0.574670	0.387680	0.197610
N151	N15	0.457740	0.652770	0.084090
C151	C15	0.584310	0.472160	0.189250
H291	H29	0.439800	0.603000	0.091000
H301	H30	0.450100	0.676300	0.011000
O311	O31	0.095920	0.015520	0.591580
O321	O32	0.074670	0.887680	0.697610
N161	N16	0.957740	0.152770	0.584090
C161	C16	0.084310	0.972160	0.689250
H311	H31	0.939800	0.103000	0.591000
H321	H32	0.950100	0.176300	0.511000
Ni11	Ni1	0.595010	0.654990	0.125000
Ni21	Ni2	0.095010	0.154990	0.625000
Ni31	Ni3	0.904990	0.345010	0.625000
Ni41	Ni4	0.404990	0.845010	0.125000
Ni51	Ni5	0.595010	0.345010	0.375000
Ni61	Ni6	0.095010	0.845010	0.875000
Ni71	Ni7	0.904990	0.654990	0.875000
Ni81	Ni8	0.404990	0.154990	0.375000
O331	O33	0.265520	0.345920	0.841580
O341	O34	0.137680	0.324670	0.947610
N171	N17	0.402770	0.207740	0.834090
C171	C17	0.222160	0.334310	0.939250
H331	H33	0.353000	0.189800	0.841000
H341	H34	0.426300	0.200100	0.761000
O351	O35	0.765520	0.845920	0.341580
O361	O36	0.637680	0.824670	0.447610
N181	N18	0.902770	0.707740	0.334090
C181	C18	0.722160	0.834310	0.439250
H351	H35	0.853000	0.689800	0.341000
H361	H36	0.926300	0.700100	0.261000
O371	O37	0.234480	0.654080	0.341580
O381	O38	0.362320	0.675330	0.447610
N191	N19	0.097230	0.792260	0.334090
C191	C19	0.277840	0.665690	0.439250
H371	H37	0.147000	0.810200	0.341000
H381	H38	0.073700	0.799900	0.261000
O391	O39	0.734480	0.154080	0.841580
O401	O40	0.862320	0.175330	0.947610
N201	N20	0.597230	0.292260	0.834090
C201	C20	0.777840	0.165690	0.939250
H391	H39	0.647000	0.310200	0.841000
H401	H40	0.573700	0.299900	0.761000
O411	O41	0.404080	0.515520	0.591580
O421	O42	0.425330	0.387680	0.697610
N211	N21	0.542260	0.652770	0.584090
C211	C21	0.415690	0.472160	0.689250
H411	H41	0.560200	0.603000	0.591000
H421	H42	0.549900	0.676300	0.511000
O431	O43	0.904080	0.015520	0.091580
O441	O44	0.925330	0.887680	0.197610
N221	N22	0.042260	0.152770	0.084090
C221	C22	0.915690	0.972160	0.189250
H431	H43	0.060200	0.103000	0.091000
H441	H44	0.049900	0.176300	0.011000
O451	O45	0.095920	0.484480	0.091580
O461	O46	0.074670	0.612320	0.197610
N231	N23	0.957740	0.347230	0.084090
C231	C23	0.084310	0.527840	0.189250
H451	H45	0.939800	0.397000	0.091000
H461	H46	0.950100	0.323700	0.011000
O471	O47	0.595920	0.984480	0.591580
O481	O48	0.574670	0.112320	0.697610
N241	N24	0.457740	0.847230	0.584090
C241	C24	0.584310	0.027840	0.689250
H471	H47	0.439800	0.897000	0.591000
H481	H48	0.450100	0.823700	0.511000
O491	O49	0.234480	0.345920	0.158420
O501	O50	0.362320	0.324670	0.052390
N251	N25	0.097230	0.207740	0.165910
C251	C25	0.277840	0.334310	0.060750
H491	H49	0.147000	0.189800	0.159000
H501	H50	0.073700	0.200100	0.239000
O511	O51	0.734480	0.845920	0.658420
O521	O52	0.862320	0.824670	0.552390
N261	N26	0.597230	0.707740	0.665910
C261	C26	0.777840	0.834310	0.560750
H511	H51	0.647000	0.689800	0.659000
H521	H52	0.573700	0.700100	0.739000
O531	O53	0.265520	0.654080	0.658420
O541	O54	0.137680	0.675330	0.552390
N271	N27	0.402770	0.792260	0.665910
C271	C27	0.222160	0.665690	0.560750
H531	H53	0.353000	0.810200	0.659000
H541	H54	0.426300	0.799900	0.739000
O551	O55	0.765520	0.154080	0.158420
O561	O56	0.637680	0.175330	0.052390
N281	N28	0.902770	0.292260	0.165910
C281	C28	0.722160	0.165690	0.060750
H551	H55	0.853000	0.310200	0.159000
H561	H56	0.926300	0.299900	0.239000
O571	O57	0.095920	0.515520	0.408420
O581	O58	0.074670	0.387680	0.302390
N291	N29	0.957740	0.652770	0.415910
C291	C29	0.084310	0.472160	0.310750
H571	H57	0.939800	0.603000	0.409000
H581	H58	0.950100	0.676300	0.489000
O591	O59	0.595920	0.015520	0.908420
O601	O60	0.574670	0.887680	0.802390
N301	N30	0.457740	0.152770	0.915910
C301	C30	0.584310	0.972160	0.810750
H591	H59	0.439800	0.103000	0.909000
H601	H60	0.450100	0.176300	0.989000
O611	O61	0.404080	0.484480	0.908420
O621	O62	0.425330	0.612320	0.802390
N311	N31	0.542260	0.347230	0.915910
C311	C31	0.415690	0.527840	0.810750
H611	H61	0.560200	0.397000	0.909000
H621	H62	0.549900	0.323700	0.989000
O631	O63	0.904080	0.984480	0.408420
O641	O64	0.925330	0.112320	0.302390
N321	N32	0.042260	0.847230	0.415910
C321	C32	0.915690	0.027840	0.310750
H631	H63	0.060200	0.897000	0.409000
H641	H64	0.049900	0.823700	0.489000
Ni91	Ni9	0.404990	0.345010	0.875000
Ni101	Ni10	0.904990	0.845010	0.375000
Ni111	Ni11	0.095010	0.654990	0.375000
Ni121	Ni12	0.595010	0.154990	0.875000
Ni131	Ni13	0.404990	0.654990	0.625000
Ni141	Ni14	0.904990	0.154990	0.125000
Ni151	Ni15	0.095010	0.345010	0.125000
Ni161	Ni16	0.595010	0.845010	0.625000
