data_MAQZOV_clean_PM
_symmetry_space_group_name_H-M	'P1'
_cell_length_a	9.086200
_cell_length_b	10.729900
_cell_length_c	19.549600
_cell_angle_alpha	89.452000
_cell_angle_beta	87.337000
_cell_angle_gamma	80.347000
_symmetry_Int_Tables_number 1

loop_
_symmetry_equiv_pos_as_xyz
'x,y,z'

loop_
_atom_site_label
_atom_site_type_symbol
_atom_site_fract_x
_atom_site_fract_y
_atom_site_fract_z
Co11	Co1	0.827930	0.748410	0.778440
Co21	Co2	0.153030	0.765160	0.723030
Co31	Co3	0.934530	0.759180	0.589400
Co41	Co4	0.057620	0.744030	0.911080
Co51	Co5	0.172070	0.251590	0.221560
Co61	Co6	0.846970	0.234840	0.276970
Co71	Co7	0.065470	0.240820	0.410600
Co81	Co8	0.942380	0.255970	0.088920
Co91	Co9	0.000000	0.500000	0.500000
Co101	Co10	0.000000	0.000000	0.000000
Co111	Co11	0.000000	0.500000	0.000000
Co121	Co12	0.000000	0.000000	0.500000
H11	H1	0.922000	0.883000	0.690000
H21	H2	0.063000	0.630000	0.807000
H31	H3	0.886400	0.262200	0.829500
H41	H4	0.002900	0.139400	0.848800
H51	H5	0.464500	0.844200	0.547700
H61	H6	0.367000	0.982100	0.543300
H71	H7	0.644300	0.503500	0.960200
H81	H8	0.532800	0.633900	0.951500
H91	H9	0.451900	0.835400	0.436100
H101	H10	0.282500	0.815000	0.449300
H111	H11	0.631900	0.928200	0.968000
H121	H12	0.498700	0.866800	0.003100
H131	H13	0.698200	0.693100	0.048300
H141	H14	0.538000	0.653100	0.062200
H151	H15	0.500800	0.633600	0.498800
H161	H16	0.367800	0.570400	0.532800
H171	H17	0.500900	0.884000	0.876600
H181	H18	0.445100	0.032600	0.887400
H191	H19	0.705000	0.151000	0.842400
H201	H20	0.735900	0.137600	0.922400
H211	H21	0.554700	0.460800	0.611600
H221	H22	0.501000	0.609000	0.624800
H231	H23	0.273700	0.372200	0.579400
H241	H24	0.302400	0.357100	0.659700
H251	H25	0.998800	0.360100	0.649600
H261	H26	0.116100	0.239300	0.671400
H271	H27	0.078000	0.117000	0.310000
H281	H28	0.937000	0.370000	0.193000
H291	H29	0.113600	0.737800	0.170500
H301	H30	0.997100	0.860600	0.151200
H311	H31	0.535500	0.155800	0.452300
H321	H32	0.633000	0.017900	0.456700
H331	H33	0.355700	0.496500	0.039800
H341	H34	0.467200	0.366100	0.048500
H351	H35	0.548100	0.164600	0.563900
H361	H36	0.717500	0.185000	0.550700
H371	H37	0.368100	0.071800	0.032000
H381	H38	0.501300	0.133200	0.996900
H391	H39	0.301800	0.306900	0.951700
H401	H40	0.462000	0.346900	0.937800
H411	H41	0.499200	0.366400	0.501200
H421	H42	0.632200	0.429600	0.467200
H431	H43	0.499100	0.116000	0.123400
H441	H44	0.554900	0.967400	0.112600
H451	H45	0.295000	0.849000	0.157600
H461	H46	0.264100	0.862400	0.077600
H471	H47	0.445300	0.539200	0.388400
H481	H48	0.499000	0.391000	0.375200
H491	H49	0.726300	0.627800	0.420600
H501	H50	0.697600	0.642900	0.340300
H511	H51	0.001200	0.639900	0.350400
H521	H52	0.883900	0.760700	0.328600
C11	C1	0.912000	0.197400	0.865350
C21	C2	0.710800	0.512500	0.085890
C31	C3	0.945900	0.261500	0.929570
C41	C4	0.715000	0.568000	0.581310
C51	C5	0.366700	0.891400	0.534460
C61	C6	0.300000	0.996800	0.420200
C71	C7	0.068300	0.238000	0.569340
C81	C8	0.633100	0.596100	0.966480
C91	C9	0.835600	0.982300	0.866620
C101	C10	0.160300	0.522600	0.636760
C111	C11	0.286500	0.925300	0.919060
C121	C12	0.353200	0.874000	0.456490
C131	C13	0.522400	0.941400	0.977360
C141	C14	0.640700	0.623300	0.043370
C151	C15	0.477200	0.557800	0.523330
C161	C16	0.749900	0.645500	0.920160
C171	C17	0.445000	0.948300	0.908340
C181	C18	0.782200	0.121700	0.875780
C191	C19	0.245700	0.849100	0.580360
C201	C20	0.555600	0.546100	0.592010
C211	C21	0.225700	0.384800	0.625900
C221	C22	0.092000	0.303400	0.635000
C231	C23	0.088000	0.802600	0.134650
C241	C24	0.289200	0.487500	0.914110
C251	C25	0.054100	0.738500	0.070430
C261	C26	0.285000	0.432000	0.418690
C271	C27	0.633300	0.108600	0.465540
C281	C28	0.700000	0.003200	0.579800
C291	C29	0.931700	0.762000	0.430660
C301	C30	0.366900	0.403900	0.033520
C311	C31	0.164400	0.017700	0.133380
C321	C32	0.839700	0.477400	0.363240
C331	C33	0.713500	0.074700	0.080940
C341	C34	0.646800	0.126000	0.543510
C351	C35	0.477600	0.058600	0.022640
C361	C36	0.359300	0.376700	0.956630
C371	C37	0.522800	0.442200	0.476670
C381	C38	0.250100	0.354500	0.079840
C391	C39	0.555000	0.051700	0.091660
C401	C40	0.217800	0.878300	0.124220
C411	C41	0.754300	0.150900	0.419640
C421	C42	0.444400	0.453900	0.407990
C431	C43	0.774300	0.615200	0.374100
C441	C44	0.908000	0.696600	0.365000
O11	O1	0.937600	0.808000	0.689250
O21	O2	0.659500	0.500600	0.145590
O31	O3	0.043500	0.702700	0.811880
O41	O4	0.377500	0.035500	0.373580
O51	O5	0.791200	0.929300	0.816740
O61	O6	0.036000	0.128700	0.574120
O71	O7	0.749100	0.668100	0.605390
O81	O8	0.195000	0.577700	0.688090
O91	O9	0.255200	0.820700	0.899410
O101	O10	0.879900	0.644400	0.943140
O111	O11	0.278900	0.815500	0.639840
O121	O12	0.978500	0.371700	0.924420
O131	O13	0.196300	0.010600	0.950670
O141	O14	0.712100	0.683900	0.862060
O151	O15	0.926900	0.926300	0.909860
O161	O16	0.070400	0.300400	0.514030
O171	O17	0.068300	0.575000	0.592920
O181	O18	0.172500	0.059500	0.442030
O191	O19	0.825300	0.439300	0.059660
O201	O20	0.115600	0.852200	0.556890
O211	O21	0.804400	0.484200	0.547960
O221	O22	0.940600	0.201800	0.985900
O231	O23	0.062400	0.192000	0.310750
O241	O24	0.340500	0.499400	0.854410
O251	O25	0.956500	0.297300	0.188120
O261	O26	0.622500	0.964500	0.626420
O271	O27	0.208800	0.070700	0.183260
O281	O28	0.964000	0.871300	0.425880
O291	O29	0.250900	0.331900	0.394610
O301	O30	0.805000	0.422300	0.311910
O311	O31	0.744800	0.179300	0.100590
O321	O32	0.120100	0.355600	0.056860
O331	O33	0.721100	0.184500	0.360160
O341	O34	0.021500	0.628300	0.075580
O351	O35	0.803700	0.989400	0.049330
O361	O36	0.287900	0.316100	0.137940
O371	O37	0.073100	0.073700	0.090140
O381	O38	0.929600	0.699600	0.485970
O391	O39	0.931700	0.425000	0.407080
O401	O40	0.827500	0.940500	0.557970
O411	O41	0.174700	0.560700	0.940340
O421	O42	0.884400	0.147800	0.443110
O431	O43	0.195600	0.515800	0.452040
O441	O44	0.059400	0.798200	0.014100
