data_MARLID_clean_PM
_symmetry_space_group_name_H-M	'P1'
_cell_length_a	9.749000
_cell_length_b	10.658000
_cell_length_c	16.414000
_cell_angle_alpha	74.830000
_cell_angle_beta	82.720000
_cell_angle_gamma	63.980000
_symmetry_Int_Tables_number 1

loop_
_symmetry_equiv_pos_as_xyz
'x,y,z'

loop_
_atom_site_label
_atom_site_type_symbol
_atom_site_fract_x
_atom_site_fract_y
_atom_site_fract_z
La11	La1	0.876160	0.031080	0.125610
La21	La2	0.629510	0.982360	0.375900
O11	O1	0.414800	0.106900	0.265500
O21	O2	0.627300	0.101100	0.202800
O31	O3	0.094100	0.871600	0.046800
O41	O4	0.272900	0.727100	0.976900
O51	O5	0.711400	0.800000	0.291800
O61	O6	0.864400	0.792400	0.179100
O71	O7	0.708000	0.126400	0.460700
O81	O8	0.622600	0.237100	0.332800
O91	O9	0.885400	0.951400	0.314100
O101	O10	0.090100	0.890100	0.234500
O111	O11	0.201200	0.254100	0.524500
O121	O12	0.392900	0.125200	0.453800
O131	O13	0.081700	0.132400	0.092200
C11	C1	0.485300	0.142700	0.201100
C21	C2	0.398000	0.240700	0.122200
H11	H1	0.468600	0.243900	0.075300
H21	H2	0.330500	0.204500	0.108200
C31	C3	0.307200	0.387300	0.137200
H31	H3	0.213900	0.405300	0.165300
C41	C4	0.348500	0.491500	0.114000
H41	H4	0.443100	0.472700	0.087300
C51	C5	0.255700	0.640300	0.127000
H51	H5	0.166400	0.642400	0.161200
H61	H6	0.315900	0.664500	0.157800
C61	C6	0.205400	0.751100	0.045700
C71	C7	0.803800	0.736100	0.242300
C81	C8	0.843000	0.580200	0.251600
H71	H7	0.803600	0.570700	0.203200
H81	H8	0.953200	0.528200	0.250000
C91	C9	0.783900	0.510400	0.329700
H91	H9	0.829500	0.499600	0.379000
C101	C10	0.687700	0.465400	0.340400
H101	H10	0.632900	0.487400	0.292200
C111	C11	0.640100	0.380800	0.416800
H111	H11	0.534000	0.436000	0.430300
H121	H12	0.701200	0.362900	0.464300
C121	C12	0.659100	0.239900	0.402700
C131	C13	0.024200	0.876200	0.305800
C141	C14	0.116100	0.765900	0.379100
H131	H13	0.049300	0.763700	0.428000
H141	H14	0.191900	0.793300	0.392200
C151	C15	0.195400	0.617900	0.361900
H151	H15	0.275500	0.600800	0.322800
C161	C16	0.158600	0.512300	0.398600
H161	H16	0.079400	0.529400	0.438200
C171	C17	0.235400	0.364600	0.381100
H171	H17	0.168200	0.354900	0.346800
H181	H18	0.327700	0.356200	0.348200
C181	C18	0.276500	0.243000	0.458000
H191	H19	0.037000	0.207000	0.057000
H201	H20	0.133000	0.068000	0.067000
La31	La3	0.123840	0.968920	0.874390
La41	La4	0.370490	0.017640	0.624100
O141	O14	0.585200	0.893100	0.734500
O151	O15	0.372700	0.898900	0.797200
O161	O16	0.905900	0.128400	0.953200
O171	O17	0.727100	0.272900	0.023100
O181	O18	0.288600	0.200000	0.708200
O191	O19	0.135600	0.207600	0.820900
O201	O20	0.292000	0.873600	0.539300
O211	O21	0.377400	0.762900	0.667200
O221	O22	0.114600	0.048600	0.685900
O231	O23	0.909900	0.109900	0.765500
O241	O24	0.798800	0.745900	0.475500
O251	O25	0.607100	0.874800	0.546200
O261	O26	0.918300	0.867600	0.907800
C191	C19	0.514700	0.857300	0.798900
C201	C20	0.602000	0.759300	0.877800
H211	H21	0.531400	0.756100	0.924700
H221	H22	0.669500	0.795500	0.891800
C211	C21	0.692800	0.612700	0.862800
H231	H23	0.786100	0.594700	0.834700
C221	C22	0.651500	0.508500	0.886000
H241	H24	0.556900	0.527300	0.912700
C231	C23	0.744300	0.359700	0.873000
H251	H25	0.833600	0.357600	0.838800
H261	H26	0.684100	0.335500	0.842200
C241	C24	0.794600	0.248900	0.954300
C251	C25	0.196200	0.263900	0.757700
C261	C26	0.157000	0.419800	0.748400
H271	H27	0.196400	0.429300	0.796800
H281	H28	0.046800	0.471800	0.750000
C271	C27	0.216100	0.489600	0.670300
H291	H29	0.170500	0.500400	0.621000
C281	C28	0.312300	0.534600	0.659600
H301	H30	0.367100	0.512600	0.707800
C291	C29	0.359900	0.619200	0.583200
H311	H31	0.466000	0.564000	0.569700
H321	H32	0.298800	0.637100	0.535700
C301	C30	0.340900	0.760100	0.597300
C311	C31	0.975800	0.123800	0.694200
C321	C32	0.883900	0.234100	0.620900
H331	H33	0.950700	0.236300	0.572000
H341	H34	0.808100	0.206700	0.607800
C331	C33	0.804600	0.382100	0.638100
H351	H35	0.724500	0.399200	0.677200
C341	C34	0.841400	0.487700	0.601400
H361	H36	0.920600	0.470600	0.561800
C351	C35	0.764600	0.635400	0.618900
H371	H37	0.831800	0.645100	0.653200
H381	H38	0.672300	0.643800	0.651800
C361	C36	0.723500	0.757000	0.542000
H391	H39	0.963000	0.793000	0.943000
H401	H40	0.867000	0.932000	0.933000
