data_MARNOL_clean_PM
_symmetry_space_group_name_H-M	'P1'
_cell_length_a	14.932000
_cell_length_b	17.072000
_cell_length_c	21.282000
_cell_angle_alpha	90.000000
_cell_angle_beta	90.000000
_cell_angle_gamma	90.000000
_symmetry_Int_Tables_number 1

loop_
_symmetry_equiv_pos_as_xyz
'x,y,z'

loop_
_atom_site_label
_atom_site_type_symbol
_atom_site_fract_x
_atom_site_fract_y
_atom_site_fract_z
Co11	Co1	0.598890	0.468630	0.487660
Co21	Co2	0.442660	0.389510	0.391500
O11	O1	0.882020	0.572940	0.081500
O21	O2	0.836710	0.462040	0.128600
O31	O3	0.599240	0.816880	0.188090
O41	O4	0.648680	0.790470	0.093080
O51	O5	0.852560	0.860440	0.459220
O61	O6	0.959360	0.805400	0.399860
O71	O7	0.462950	0.430700	0.480430
H11	H1	0.449100	0.390900	0.506600
N11	N1	0.618220	0.547290	0.295340
N21	N2	0.592800	0.510290	0.391690
N31	N3	0.535250	0.469720	0.352280
C11	C1	0.641270	0.557320	0.356880
C21	C2	0.550910	0.492850	0.294720
C31	C3	0.658570	0.584500	0.241410
C41	C4	0.722970	0.543620	0.207800
H21	H2	0.739700	0.493400	0.220000
C51	C5	0.762360	0.578620	0.155450
C61	C6	0.734640	0.652790	0.136850
H31	H3	0.759300	0.675600	0.101100
C71	C7	0.670230	0.693240	0.171330
C81	C8	0.632300	0.659490	0.224810
H41	H4	0.590400	0.686700	0.248700
C91	C9	0.833060	0.534980	0.118890
C101	C10	0.638290	0.772070	0.149800
C111	C11	0.706600	0.617470	0.377950
C121	C12	0.675260	0.679880	0.413090
H51	H5	0.615400	0.681900	0.425100
C131	C13	0.733480	0.739490	0.430430
H61	H6	0.712700	0.780700	0.455000
C141	C14	0.822600	0.738250	0.411490
C151	C15	0.854230	0.674630	0.376930
H71	H7	0.914100	0.672600	0.364900
C161	C16	0.796580	0.614340	0.360450
H81	H8	0.817900	0.571800	0.337700
C171	C17	0.883380	0.806980	0.425290
C181	C18	0.502150	0.467820	0.237070
H91	H9	0.526100	0.494900	0.201300
H101	H10	0.439700	0.480100	0.241400
H111	H11	0.509200	0.412400	0.231400
Co31	Co3	0.901110	0.531370	0.987660
Co41	Co4	0.057340	0.610490	0.891500
O81	O8	0.617980	0.427060	0.581500
O91	O9	0.663290	0.537960	0.628600
O101	O10	0.900760	0.183120	0.688090
O111	O11	0.851320	0.209530	0.593080
O121	O12	0.647440	0.139560	0.959220
O131	O13	0.540640	0.194600	0.899860
O141	O14	0.037050	0.569300	0.980430
H121	H12	0.050900	0.609100	0.006600
N41	N4	0.881780	0.452710	0.795340
N51	N5	0.907200	0.489710	0.891690
N61	N6	0.964750	0.530280	0.852280
C191	C19	0.858730	0.442680	0.856880
C201	C20	0.949090	0.507150	0.794720
C211	C21	0.841430	0.415500	0.741410
C221	C22	0.777030	0.456380	0.707800
H131	H13	0.760300	0.506600	0.720000
C231	C23	0.737640	0.421380	0.655450
C241	C24	0.765360	0.347210	0.636850
H141	H14	0.740700	0.324400	0.601100
C251	C25	0.829770	0.306760	0.671330
C261	C26	0.867700	0.340510	0.724810
H151	H15	0.909600	0.313300	0.748700
C271	C27	0.666940	0.465020	0.618890
C281	C28	0.861710	0.227930	0.649800
C291	C29	0.793400	0.382530	0.877950
C301	C30	0.824740	0.320120	0.913090
H161	H16	0.884600	0.318100	0.925100
C311	C31	0.766520	0.260510	0.930430
H171	H17	0.787300	0.219300	0.955000
C321	C32	0.677400	0.261750	0.911490
C331	C33	0.645770	0.325370	0.876930
H181	H18	0.585900	0.327400	0.864900
C341	C34	0.703420	0.385660	0.860450
H191	H19	0.682100	0.428200	0.837700
C351	C35	0.616620	0.193020	0.925290
C361	C36	0.997850	0.532180	0.737070
H201	H20	0.973900	0.505100	0.701300
H211	H21	0.060300	0.519900	0.741400
H221	H22	0.990800	0.587600	0.731400
Co51	Co5	0.401110	0.968630	0.012340
Co61	Co6	0.557340	0.889510	0.108500
O151	O15	0.117980	0.072940	0.418500
O161	O16	0.163290	0.962040	0.371400
O171	O17	0.400760	0.316880	0.311910
O181	O18	0.351320	0.290470	0.406920
O191	O19	0.147440	0.360440	0.040780
O201	O20	0.040640	0.305400	0.100140
O211	O21	0.537050	0.930700	0.019570
H231	H23	0.550900	0.890900	0.993400
N71	N7	0.381780	0.047290	0.204660
N81	N8	0.407200	0.010290	0.108310
N91	N9	0.464750	0.969720	0.147720
C371	C37	0.358730	0.057320	0.143120
C381	C38	0.449090	0.992850	0.205280
C391	C39	0.341430	0.084500	0.258590
C401	C40	0.277030	0.043620	0.292200
H241	H24	0.260300	0.993400	0.280000
C411	C41	0.237640	0.078620	0.344550
C421	C42	0.265360	0.152790	0.363150
H251	H25	0.240700	0.175600	0.398900
C431	C43	0.329770	0.193240	0.328670
C441	C44	0.367700	0.159490	0.275190
H261	H26	0.409600	0.186700	0.251300
C451	C45	0.166940	0.034980	0.381110
C461	C46	0.361710	0.272070	0.350200
C471	C47	0.293400	0.117470	0.122050
C481	C48	0.324740	0.179880	0.086910
H271	H27	0.384600	0.181900	0.074900
C491	C49	0.266520	0.239490	0.069570
H281	H28	0.287300	0.280700	0.045000
C501	C50	0.177400	0.238250	0.088510
C511	C51	0.145770	0.174630	0.123070
H291	H29	0.085900	0.172600	0.135100
C521	C52	0.203420	0.114340	0.139550
H301	H30	0.182100	0.071800	0.162300
C531	C53	0.116620	0.306980	0.074710
C541	C54	0.497850	0.967820	0.262930
H311	H31	0.473900	0.994900	0.298700
H321	H32	0.560300	0.980100	0.258600
H331	H33	0.490800	0.912400	0.268600
Co71	Co7	0.098890	0.031370	0.512340
Co81	Co8	0.942660	0.110490	0.608500
O221	O22	0.382020	0.927060	0.918500
O231	O23	0.336710	0.037960	0.871400
O241	O24	0.099240	0.683120	0.811910
O251	O25	0.148680	0.709530	0.906920
O261	O26	0.352560	0.639560	0.540780
O271	O27	0.459360	0.694600	0.600140
O281	O28	0.962950	0.069300	0.519570
H341	H34	0.949100	0.109100	0.493400
N101	N10	0.118220	0.952710	0.704660
N111	N11	0.092800	0.989710	0.608310
N121	N12	0.035250	0.030280	0.647720
C551	C55	0.141270	0.942680	0.643120
C561	C56	0.050910	0.007150	0.705280
C571	C57	0.158570	0.915500	0.758590
C581	C58	0.222970	0.956380	0.792200
H351	H35	0.239700	0.006600	0.780000
C591	C59	0.262360	0.921380	0.844550
C601	C60	0.234640	0.847210	0.863150
H361	H36	0.259300	0.824400	0.898900
C611	C61	0.170230	0.806760	0.828670
C621	C62	0.132300	0.840510	0.775190
H371	H37	0.090400	0.813300	0.751300
C631	C63	0.333060	0.965020	0.881110
C641	C64	0.138290	0.727930	0.850200
C651	C65	0.206600	0.882530	0.622050
C661	C66	0.175260	0.820120	0.586910
H381	H38	0.115400	0.818100	0.574900
C671	C67	0.233480	0.760510	0.569570
H391	H39	0.212700	0.719300	0.545000
C681	C68	0.322600	0.761750	0.588510
C691	C69	0.354230	0.825370	0.623070
H401	H40	0.414100	0.827400	0.635100
C701	C70	0.296580	0.885660	0.639550
H411	H41	0.317900	0.928200	0.662300
C711	C71	0.383380	0.693020	0.574710
C721	C72	0.002150	0.032180	0.762930
H421	H42	0.026100	0.005100	0.798700
H431	H43	0.939700	0.019900	0.758600
H441	H44	0.009200	0.087600	0.768600
Co91	Co9	0.401110	0.531370	0.512340
Co101	Co10	0.557340	0.610490	0.608500
O291	O29	0.117980	0.427060	0.918500
O301	O30	0.163290	0.537960	0.871400
O311	O31	0.400760	0.183120	0.811910
O321	O32	0.351320	0.209530	0.906920
O331	O33	0.147440	0.139560	0.540780
O341	O34	0.040640	0.194600	0.600140
O351	O35	0.537050	0.569300	0.519570
H451	H45	0.550900	0.609100	0.493400
N131	N13	0.381780	0.452710	0.704660
N141	N14	0.407200	0.489710	0.608310
N151	N15	0.464750	0.530280	0.647720
C731	C73	0.358730	0.442680	0.643120
C741	C74	0.449090	0.507150	0.705280
C751	C75	0.341430	0.415500	0.758590
C761	C76	0.277030	0.456380	0.792200
H461	H46	0.260300	0.506600	0.780000
C771	C77	0.237640	0.421380	0.844550
C781	C78	0.265360	0.347210	0.863150
H471	H47	0.240700	0.324400	0.898900
C791	C79	0.329770	0.306760	0.828670
C801	C80	0.367700	0.340510	0.775190
H481	H48	0.409600	0.313300	0.751300
C811	C81	0.166940	0.465020	0.881110
C821	C82	0.361710	0.227930	0.850200
C831	C83	0.293400	0.382530	0.622050
C841	C84	0.324740	0.320120	0.586910
H491	H49	0.384600	0.318100	0.574900
C851	C85	0.266520	0.260510	0.569570
H501	H50	0.287300	0.219300	0.545000
C861	C86	0.177400	0.261750	0.588510
C871	C87	0.145770	0.325370	0.623070
H511	H51	0.085900	0.327400	0.635100
C881	C88	0.203420	0.385660	0.639550
H521	H52	0.182100	0.428200	0.662300
C891	C89	0.116620	0.193020	0.574710
C901	C90	0.497850	0.532180	0.762930
H531	H53	0.473900	0.505100	0.798700
H541	H54	0.560300	0.519900	0.758600
H551	H55	0.490800	0.587600	0.768600
Co111	Co11	0.098890	0.468630	0.012340
Co121	Co12	0.942660	0.389510	0.108500
O361	O36	0.382020	0.572940	0.418500
O371	O37	0.336710	0.462040	0.371400
O381	O38	0.099240	0.816880	0.311910
O391	O39	0.148680	0.790470	0.406920
O401	O40	0.352560	0.860440	0.040780
O411	O41	0.459360	0.805400	0.100140
O421	O42	0.962950	0.430700	0.019570
H561	H56	0.949100	0.390900	0.993400
N161	N16	0.118220	0.547290	0.204660
N171	N17	0.092800	0.510290	0.108310
N181	N18	0.035250	0.469720	0.147720
C911	C91	0.141270	0.557320	0.143120
C921	C92	0.050910	0.492850	0.205280
C931	C93	0.158570	0.584500	0.258590
C941	C94	0.222970	0.543620	0.292200
H571	H57	0.239700	0.493400	0.280000
C951	C95	0.262360	0.578620	0.344550
C961	C96	0.234640	0.652790	0.363150
H581	H58	0.259300	0.675600	0.398900
C971	C97	0.170230	0.693240	0.328670
C981	C98	0.132300	0.659490	0.275190
H591	H59	0.090400	0.686700	0.251300
C991	C99	0.333060	0.534980	0.381110
C1001	C100	0.138290	0.772070	0.350200
C1011	C101	0.206600	0.617470	0.122050
C1021	C102	0.175260	0.679880	0.086910
H601	H60	0.115400	0.681900	0.074900
C1031	C103	0.233480	0.739490	0.069570
H611	H61	0.212700	0.780700	0.045000
C1041	C104	0.322600	0.738250	0.088510
C1051	C105	0.354230	0.674630	0.123070
H621	H62	0.414100	0.672600	0.135100
C1061	C106	0.296580	0.614340	0.139550
H631	H63	0.317900	0.571800	0.162300
C1071	C107	0.383380	0.806980	0.074710
C1081	C108	0.002150	0.467820	0.262930
H641	H64	0.026100	0.494900	0.298700
H651	H65	0.939700	0.480100	0.258600
H661	H66	0.009200	0.412400	0.268600
Co131	Co13	0.598890	0.031370	0.987660
Co141	Co14	0.442660	0.110490	0.891500
O431	O43	0.882020	0.927060	0.581500
O441	O44	0.836710	0.037960	0.628600
O451	O45	0.599240	0.683120	0.688090
O461	O46	0.648680	0.709530	0.593080
O471	O47	0.852560	0.639560	0.959220
O481	O48	0.959360	0.694600	0.899860
O491	O49	0.462950	0.069300	0.980430
H671	H67	0.449100	0.109100	0.006600
N191	N19	0.618220	0.952710	0.795340
N201	N20	0.592800	0.989710	0.891690
N211	N21	0.535250	0.030280	0.852280
C1091	C109	0.641270	0.942680	0.856880
C1101	C110	0.550910	0.007150	0.794720
C1111	C111	0.658570	0.915500	0.741410
C1121	C112	0.722970	0.956380	0.707800
H681	H68	0.739700	0.006600	0.720000
C1131	C113	0.762360	0.921380	0.655450
C1141	C114	0.734640	0.847210	0.636850
H691	H69	0.759300	0.824400	0.601100
C1151	C115	0.670230	0.806760	0.671330
C1161	C116	0.632300	0.840510	0.724810
H701	H70	0.590400	0.813300	0.748700
C1171	C117	0.833060	0.965020	0.618890
C1181	C118	0.638290	0.727930	0.649800
C1191	C119	0.706600	0.882530	0.877950
C1201	C120	0.675260	0.820120	0.913090
H711	H71	0.615400	0.818100	0.925100
C1211	C121	0.733480	0.760510	0.930430
H721	H72	0.712700	0.719300	0.955000
C1221	C122	0.822600	0.761750	0.911490
C1231	C123	0.854230	0.825370	0.876930
H731	H73	0.914100	0.827400	0.864900
C1241	C124	0.796580	0.885660	0.860450
H741	H74	0.817900	0.928200	0.837700
C1251	C125	0.883380	0.693020	0.925290
C1261	C126	0.502150	0.032180	0.737070
H751	H75	0.526100	0.005100	0.701300
H761	H76	0.439700	0.019900	0.741400
H771	H77	0.509200	0.087600	0.731400
Co151	Co15	0.901110	0.968630	0.487660
Co161	Co16	0.057340	0.889510	0.391500
O501	O50	0.617980	0.072940	0.081500
O511	O51	0.663290	0.962040	0.128600
O521	O52	0.900760	0.316880	0.188090
O531	O53	0.851320	0.290470	0.093080
O541	O54	0.647440	0.360440	0.459220
O551	O55	0.540640	0.305400	0.399860
O561	O56	0.037050	0.930700	0.480430
H781	H78	0.050900	0.890900	0.506600
N221	N22	0.881780	0.047290	0.295340
N231	N23	0.907200	0.010290	0.391690
N241	N24	0.964750	0.969720	0.352280
C1271	C127	0.858730	0.057320	0.356880
C1281	C128	0.949090	0.992850	0.294720
C1291	C129	0.841430	0.084500	0.241410
C1301	C130	0.777030	0.043620	0.207800
H791	H79	0.760300	0.993400	0.220000
C1311	C131	0.737640	0.078620	0.155450
C1321	C132	0.765360	0.152790	0.136850
H801	H80	0.740700	0.175600	0.101100
C1331	C133	0.829770	0.193240	0.171330
C1341	C134	0.867700	0.159490	0.224810
H811	H81	0.909600	0.186700	0.248700
C1351	C135	0.666940	0.034980	0.118890
C1361	C136	0.861710	0.272070	0.149800
C1371	C137	0.793400	0.117470	0.377950
C1381	C138	0.824740	0.179880	0.413090
H821	H82	0.884600	0.181900	0.425100
C1391	C139	0.766520	0.239490	0.430430
H831	H83	0.787300	0.280700	0.455000
C1401	C140	0.677400	0.238250	0.411490
C1411	C141	0.645770	0.174630	0.376930
H841	H84	0.585900	0.172600	0.364900
C1421	C142	0.703420	0.114340	0.360450
H851	H85	0.682100	0.071800	0.337700
C1431	C143	0.616620	0.306980	0.425290
C1441	C144	0.997850	0.967820	0.237070
H861	H86	0.973900	0.994900	0.201300
H871	H87	0.060300	0.980100	0.241400
H881	H88	0.990800	0.912400	0.231400
