data_MARPOL_clean_PM
_symmetry_space_group_name_H-M	'P1'
_cell_length_a	15.291000
_cell_length_b	15.656000
_cell_length_c	50.912000
_cell_angle_alpha	90.000000
_cell_angle_beta	90.000000
_cell_angle_gamma	90.000000
_symmetry_Int_Tables_number 1

loop_
_symmetry_equiv_pos_as_xyz
'x,y,z'

loop_
_atom_site_label
_atom_site_type_symbol
_atom_site_fract_x
_atom_site_fract_y
_atom_site_fract_z
Fe11	Fe1	0.100300	0.247490	0.459820
Fe21	Fe2	0.411370	0.353500	0.293880
Fe31	Fe3	0.899700	0.252510	0.959820
Fe41	Fe4	0.588630	0.146500	0.793880
Fe51	Fe5	0.600300	0.752510	0.040180
Fe61	Fe6	0.911370	0.646500	0.206120
Fe71	Fe7	0.399700	0.747490	0.540180
Fe81	Fe8	0.088630	0.853500	0.706120
Ni11	Ni1	0.297260	0.453980	0.506330
Ni21	Ni2	0.282880	0.223090	0.375450
Ni31	Ni3	0.612880	0.521820	0.235170
Ni41	Ni4	0.702740	0.046020	0.006330
Ni51	Ni5	0.717120	0.276910	0.875450
Ni61	Ni6	0.387120	0.978180	0.735170
Ni71	Ni7	0.797260	0.546020	0.993670
Ni81	Ni8	0.782880	0.776910	0.124550
Ni91	Ni9	0.112880	0.478180	0.264830
Ni101	Ni10	0.202740	0.953980	0.493670
Ni111	Ni11	0.217120	0.723090	0.624550
Ni121	Ni12	0.887120	0.021820	0.764830
H11	H1	0.642100	0.409700	0.269900
H21	H2	0.392000	0.352000	0.531500
H31	H3	0.372000	0.421000	0.549800
H41	H4	0.265000	0.283000	0.538300
H51	H5	0.323000	0.295000	0.564700
H61	H6	0.247000	0.426000	0.575500
H71	H7	0.194000	0.341000	0.576400
H81	H8	0.131000	0.361000	0.534200
H91	H9	0.102000	0.427000	0.553600
H101	H10	0.191000	0.514000	0.537400
H111	H11	0.064000	0.539000	0.520300
H121	H12	0.086000	0.458000	0.501100
H131	H13	0.179000	0.622000	0.500400
H141	H14	0.111000	0.588000	0.478600
H151	H15	0.205000	0.485000	0.468700
H161	H16	0.297000	0.636000	0.471200
H171	H17	0.239000	0.605000	0.446600
H181	H18	0.369000	0.578000	0.431100
H191	H19	0.329000	0.486000	0.436500
H201	H20	0.480000	0.497000	0.450300
H211	H21	0.437000	0.562000	0.476000
H221	H22	0.454000	0.422000	0.488800
H231	H23	0.397000	0.395000	0.469100
H241	H24	0.353000	0.361000	0.367400
H251	H25	0.362000	0.349000	0.394900
H261	H26	0.287000	0.480000	0.385400
H271	H27	0.236000	0.408000	0.401800
H281	H28	0.157000	0.464000	0.366200
H291	H29	0.210000	0.415000	0.346100
H301	H30	0.102000	0.331000	0.381900
H311	H31	0.075000	0.346000	0.351800
H321	H32	0.174000	0.264000	0.341200
H331	H33	0.084000	0.185000	0.380200
H341	H34	0.045000	0.197000	0.350900
H351	H35	0.115000	0.057000	0.356600
H361	H36	0.173000	0.103000	0.335500
H371	H37	0.214000	0.080000	0.388400
H381	H38	0.244000	0.971000	0.369400
H391	H39	0.304000	0.036000	0.347400
H401	H40	0.384000	0.965000	0.382600
H411	H41	0.335000	0.025000	0.402500
H421	H42	0.442000	0.094000	0.360400
H431	H43	0.486000	0.079000	0.393000
H441	H44	0.387000	0.170000	0.408700
H451	H45	0.434000	0.218000	0.391600
H461	H46	0.507000	0.636000	0.220500
H471	H47	0.565000	0.621000	0.199300
H481	H48	0.420000	0.526000	0.211200
H491	H49	0.430000	0.599000	0.186600
H501	H50	0.445000	0.466000	0.168600
H511	H51	0.547000	0.502000	0.170400
H521	H52	0.474000	0.392000	0.205700
H531	H53	0.536000	0.353000	0.181000
H541	H54	0.646000	0.423000	0.198100
H551	H55	0.648000	0.295000	0.209600
H561	H56	0.581000	0.320000	0.234800
H571	H57	0.751000	0.379000	0.229700
H581	H58	0.726000	0.309000	0.251300
H591	H59	0.808000	0.480000	0.261100
H601	H60	0.785000	0.405000	0.287200
H611	H61	0.678000	0.526000	0.298100
H621	H62	0.780000	0.544000	0.304700
H631	H63	0.710000	0.670000	0.295500
H641	H64	0.771000	0.636000	0.263800
H651	H65	0.588000	0.621000	0.277400
H661	H66	0.616000	0.665000	0.253200
H671	H67	0.357900	0.090300	0.769900
H681	H68	0.608000	0.148000	0.031500
H691	H69	0.628000	0.079000	0.049800
H701	H70	0.735000	0.217000	0.038300
H711	H71	0.677000	0.205000	0.064700
H721	H72	0.753000	0.074000	0.075500
H731	H73	0.806000	0.159000	0.076400
H741	H74	0.869000	0.139000	0.034200
H751	H75	0.898000	0.073000	0.053600
H761	H76	0.809000	0.986000	0.037400
H771	H77	0.936000	0.961000	0.020300
H781	H78	0.914000	0.042000	0.001100
H791	H79	0.821000	0.878000	0.000400
H801	H80	0.889000	0.912000	0.978600
H811	H81	0.795000	0.015000	0.968700
H821	H82	0.703000	0.864000	0.971200
H831	H83	0.761000	0.895000	0.946600
H841	H84	0.631000	0.922000	0.931100
H851	H85	0.671000	0.014000	0.936500
H861	H86	0.520000	0.003000	0.950300
H871	H87	0.563000	0.938000	0.976000
H881	H88	0.546000	0.078000	0.988800
H891	H89	0.603000	0.105000	0.969100
H901	H90	0.647000	0.139000	0.867400
H911	H91	0.638000	0.151000	0.894900
H921	H92	0.713000	0.020000	0.885400
H931	H93	0.764000	0.092000	0.901800
H941	H94	0.843000	0.036000	0.866200
H951	H95	0.790000	0.085000	0.846100
H961	H96	0.898000	0.169000	0.881900
H971	H97	0.925000	0.154000	0.851800
H981	H98	0.826000	0.236000	0.841200
H991	H99	0.916000	0.315000	0.880200
H1001	H100	0.955000	0.303000	0.850900
H1011	H101	0.885000	0.443000	0.856600
H1021	H102	0.827000	0.397000	0.835500
H1031	H103	0.786000	0.420000	0.888400
H1041	H104	0.756000	0.529000	0.869400
H1051	H105	0.696000	0.464000	0.847400
H1061	H106	0.616000	0.535000	0.882600
H1071	H107	0.665000	0.475000	0.902500
H1081	H108	0.558000	0.406000	0.860400
H1091	H109	0.514000	0.421000	0.893000
H1101	H110	0.613000	0.330000	0.908700
H1111	H111	0.566000	0.282000	0.891600
H1121	H112	0.493000	0.864000	0.720500
H1131	H113	0.435000	0.879000	0.699300
H1141	H114	0.580000	0.974000	0.711200
H1151	H115	0.570000	0.901000	0.686600
H1161	H116	0.555000	0.034000	0.668600
H1171	H117	0.453000	0.998000	0.670400
H1181	H118	0.526000	0.108000	0.705700
H1191	H119	0.464000	0.147000	0.681000
H1201	H120	0.354000	0.077000	0.698100
H1211	H121	0.352000	0.205000	0.709600
H1221	H122	0.419000	0.180000	0.734800
H1231	H123	0.249000	0.121000	0.729700
H1241	H124	0.274000	0.191000	0.751300
H1251	H125	0.192000	0.020000	0.761100
H1261	H126	0.215000	0.095000	0.787200
H1271	H127	0.322000	0.974000	0.798100
H1281	H128	0.220000	0.956000	0.804700
H1291	H129	0.290000	0.830000	0.795500
H1301	H130	0.229000	0.864000	0.763800
H1311	H131	0.412000	0.879000	0.777400
H1321	H132	0.384000	0.835000	0.753200
H1331	H133	0.142100	0.590300	0.230100
H1341	H134	0.892000	0.648000	0.968500
H1351	H135	0.872000	0.579000	0.950200
H1361	H136	0.765000	0.717000	0.961700
H1371	H137	0.823000	0.705000	0.935300
H1381	H138	0.747000	0.574000	0.924500
H1391	H139	0.694000	0.659000	0.923600
H1401	H140	0.631000	0.639000	0.965800
H1411	H141	0.602000	0.573000	0.946400
H1421	H142	0.691000	0.486000	0.962600
H1431	H143	0.564000	0.461000	0.979700
H1441	H144	0.586000	0.542000	0.998900
H1451	H145	0.679000	0.378000	0.999600
H1461	H146	0.611000	0.412000	0.021400
H1471	H147	0.705000	0.515000	0.031300
H1481	H148	0.797000	0.364000	0.028800
H1491	H149	0.739000	0.395000	0.053400
H1501	H150	0.869000	0.422000	0.068900
H1511	H151	0.829000	0.514000	0.063500
H1521	H152	0.980000	0.503000	0.049700
H1531	H153	0.937000	0.438000	0.024000
H1541	H154	0.954000	0.578000	0.011200
H1551	H155	0.897000	0.605000	0.030900
H1561	H156	0.853000	0.639000	0.132600
H1571	H157	0.862000	0.651000	0.105100
H1581	H158	0.787000	0.520000	0.114600
H1591	H159	0.736000	0.592000	0.098200
H1601	H160	0.657000	0.536000	0.133800
H1611	H161	0.710000	0.585000	0.153900
H1621	H162	0.602000	0.669000	0.118100
H1631	H163	0.575000	0.654000	0.148200
H1641	H164	0.674000	0.736000	0.158800
H1651	H165	0.584000	0.815000	0.119800
H1661	H166	0.545000	0.803000	0.149100
H1671	H167	0.615000	0.943000	0.143400
H1681	H168	0.673000	0.897000	0.164500
H1691	H169	0.714000	0.920000	0.111600
H1701	H170	0.744000	0.029000	0.130600
H1711	H171	0.804000	0.964000	0.152600
H1721	H172	0.884000	0.035000	0.117400
H1731	H173	0.835000	0.975000	0.097500
H1741	H174	0.942000	0.906000	0.139600
H1751	H175	0.986000	0.921000	0.107000
H1761	H176	0.887000	0.830000	0.091300
H1771	H177	0.934000	0.782000	0.108400
H1781	H178	0.007000	0.364000	0.279500
H1791	H179	0.065000	0.379000	0.300700
H1801	H180	0.920000	0.474000	0.288800
H1811	H181	0.930000	0.401000	0.313400
H1821	H182	0.945000	0.534000	0.331400
H1831	H183	0.047000	0.498000	0.329600
H1841	H184	0.974000	0.608000	0.294300
H1851	H185	0.036000	0.647000	0.319000
H1861	H186	0.146000	0.577000	0.301900
H1871	H187	0.148000	0.705000	0.290400
H1881	H188	0.081000	0.680000	0.265200
H1891	H189	0.251000	0.621000	0.270300
H1901	H190	0.226000	0.691000	0.248700
H1911	H191	0.308000	0.520000	0.238900
H1921	H192	0.285000	0.595000	0.212800
H1931	H193	0.178000	0.474000	0.201900
H1941	H194	0.280000	0.456000	0.195300
H1951	H195	0.210000	0.330000	0.204500
H1961	H196	0.271000	0.364000	0.236200
H1971	H197	0.088000	0.379000	0.222600
H1981	H198	0.116000	0.335000	0.246800
H1991	H199	0.857900	0.909700	0.730100
H2001	H200	0.108000	0.852000	0.468500
H2011	H201	0.128000	0.921000	0.450200
H2021	H202	0.235000	0.783000	0.461700
H2031	H203	0.177000	0.795000	0.435300
H2041	H204	0.253000	0.926000	0.424500
H2051	H205	0.306000	0.841000	0.423600
H2061	H206	0.369000	0.861000	0.465800
H2071	H207	0.398000	0.927000	0.446400
H2081	H208	0.309000	0.014000	0.462600
H2091	H209	0.436000	0.039000	0.479700
H2101	H210	0.414000	0.958000	0.498900
H2111	H211	0.321000	0.122000	0.499600
H2121	H212	0.389000	0.088000	0.521400
H2131	H213	0.295000	0.985000	0.531300
H2141	H214	0.203000	0.136000	0.528800
H2151	H215	0.261000	0.105000	0.553400
H2161	H216	0.131000	0.078000	0.568900
H2171	H217	0.171000	0.986000	0.563500
H2181	H218	0.020000	0.997000	0.549700
H2191	H219	0.063000	0.062000	0.524000
H2201	H220	0.046000	0.922000	0.511200
H2211	H221	0.103000	0.895000	0.530900
H2221	H222	0.147000	0.861000	0.632600
H2231	H223	0.138000	0.849000	0.605100
H2241	H224	0.213000	0.980000	0.614600
H2251	H225	0.264000	0.908000	0.598200
H2261	H226	0.343000	0.964000	0.633800
H2271	H227	0.290000	0.915000	0.653900
H2281	H228	0.398000	0.831000	0.618100
H2291	H229	0.425000	0.846000	0.648200
H2301	H230	0.326000	0.764000	0.658800
H2311	H231	0.416000	0.685000	0.619800
H2321	H232	0.455000	0.697000	0.649100
H2331	H233	0.385000	0.557000	0.643400
H2341	H234	0.327000	0.603000	0.664500
H2351	H235	0.286000	0.580000	0.611600
H2361	H236	0.256000	0.471000	0.630600
H2371	H237	0.196000	0.536000	0.652600
H2381	H238	0.116000	0.465000	0.617400
H2391	H239	0.165000	0.525000	0.597500
H2401	H240	0.058000	0.594000	0.639600
H2411	H241	0.014000	0.579000	0.607000
H2421	H242	0.113000	0.670000	0.591300
H2431	H243	0.066000	0.718000	0.608400
H2441	H244	0.993000	0.136000	0.779500
H2451	H245	0.935000	0.121000	0.800700
H2461	H246	0.080000	0.026000	0.788800
H2471	H247	0.070000	0.099000	0.813400
H2481	H248	0.055000	0.966000	0.831400
H2491	H249	0.953000	0.002000	0.829600
H2501	H250	0.026000	0.892000	0.794300
H2511	H251	0.964000	0.853000	0.819000
H2521	H252	0.854000	0.923000	0.801900
H2531	H253	0.852000	0.795000	0.790400
H2541	H254	0.919000	0.820000	0.765200
H2551	H255	0.749000	0.879000	0.770300
H2561	H256	0.774000	0.809000	0.748700
H2571	H257	0.692000	0.980000	0.738900
H2581	H258	0.715000	0.905000	0.712800
H2591	H259	0.822000	0.026000	0.701900
H2601	H260	0.720000	0.044000	0.695300
H2611	H261	0.790000	0.170000	0.704500
H2621	H262	0.729000	0.136000	0.736200
H2631	H263	0.912000	0.121000	0.722600
H2641	H264	0.884000	0.165000	0.746800
C11	C1	0.294800	0.324900	0.551490
C21	C2	0.220700	0.374700	0.564520
C31	C3	0.151400	0.407400	0.545980
C41	C4	0.114600	0.507200	0.510640
C51	C5	0.154200	0.567900	0.491130
C61	C6	0.276300	0.584200	0.460110
C71	C7	0.351000	0.540100	0.446050
C81	C8	0.427500	0.513900	0.463780
C91	C9	0.192000	0.302800	0.479530
C101	C10	0.072100	0.361100	0.447380
C111	C11	0.179100	0.235800	0.430310
C121	C12	0.008400	0.195500	0.438470
C131	C13	0.133500	0.134200	0.471610
C141	C14	0.027200	0.252500	0.491240
C151	C15	0.257100	0.417200	0.384290
C161	C16	0.187200	0.414300	0.363290
C171	C17	0.124900	0.340100	0.365000
C181	C18	0.103600	0.185100	0.361420
C191	C19	0.152000	0.104500	0.354970
C201	C20	0.283000	0.025100	0.366770
C211	C21	0.360000	0.019800	0.385880
C221	C22	0.427900	0.089300	0.382080
C231	C23	0.366700	0.272100	0.319990
C241	C24	0.401500	0.274400	0.264800
C251	C25	0.530100	0.310300	0.297780
C261	C26	0.461300	0.434500	0.269140
C271	C27	0.426900	0.435800	0.322230
C281	C28	0.294700	0.400700	0.287550
C291	C29	0.463900	0.553500	0.196200
C301	C30	0.498000	0.483600	0.178720
C311	C31	0.526400	0.404400	0.192690
C321	C32	0.632400	0.340800	0.222660
C331	C33	0.706600	0.360700	0.240510
C341	C34	0.755800	0.460500	0.274510
C351	C35	0.729500	0.533300	0.292120
C361	C36	0.712800	0.619500	0.278730
C371	C37	0.705200	0.175100	0.051490
C381	C38	0.779300	0.125300	0.064520
C391	C39	0.848600	0.092600	0.045980
C401	C40	0.885400	0.992800	0.010640
C411	C41	0.845800	0.932100	0.991130
C421	C42	0.723700	0.915800	0.960110
C431	C43	0.649000	0.959900	0.946050
C441	C44	0.572500	0.986100	0.963780
C451	C45	0.808000	0.197200	0.979530
C461	C46	0.927900	0.138900	0.947380
C471	C47	0.820900	0.264200	0.930310
C481	C48	0.991600	0.304500	0.938470
C491	C49	0.866500	0.365800	0.971610
C501	C50	0.972800	0.247500	0.991240
C511	C51	0.742900	0.082800	0.884290
C521	C52	0.812800	0.085700	0.863290
C531	C53	0.875100	0.159900	0.865000
C541	C54	0.896400	0.314900	0.861420
C551	C55	0.848000	0.395500	0.854970
C561	C56	0.717000	0.474900	0.866770
C571	C57	0.640000	0.480200	0.885880
C581	C58	0.572100	0.410700	0.882080
C591	C59	0.633300	0.227900	0.819990
C601	C60	0.598500	0.225600	0.764800
C611	C61	0.469900	0.189700	0.797780
C621	C62	0.538700	0.065500	0.769140
C631	C63	0.573100	0.064200	0.822230
C641	C64	0.705300	0.099300	0.787550
C651	C65	0.536100	0.946500	0.696200
C661	C66	0.502000	0.016400	0.678720
C671	C67	0.473600	0.095600	0.692690
C681	C68	0.367600	0.159200	0.722660
C691	C69	0.293400	0.139300	0.740510
C701	C70	0.244200	0.039500	0.774510
C711	C71	0.270500	0.966700	0.792120
C721	C72	0.287200	0.880500	0.778730
C731	C73	0.794800	0.675100	0.948510
C741	C74	0.720700	0.625300	0.935480
C751	C75	0.651400	0.592600	0.954020
C761	C76	0.614600	0.492800	0.989360
C771	C77	0.654200	0.432100	0.008870
C781	C78	0.776300	0.415800	0.039890
C791	C79	0.851000	0.459900	0.053950
C801	C80	0.927500	0.486100	0.036220
C811	C81	0.692000	0.697200	0.020470
C821	C82	0.572100	0.638900	0.052620
C831	C83	0.679100	0.764200	0.069690
C841	C84	0.508400	0.804500	0.061530
C851	C85	0.633500	0.865800	0.028390
C861	C86	0.527200	0.747500	0.008760
C871	C87	0.757100	0.582800	0.115710
C881	C88	0.687200	0.585700	0.136710
C891	C89	0.624900	0.659900	0.135000
C901	C90	0.603600	0.814900	0.138580
C911	C91	0.652000	0.895500	0.145030
C921	C92	0.783000	0.974900	0.133230
C931	C93	0.860000	0.980200	0.114120
C941	C94	0.927900	0.910700	0.117920
C951	C95	0.866700	0.727900	0.180010
C961	C96	0.901500	0.725600	0.235200
C971	C97	0.030100	0.689700	0.202220
C981	C98	0.961300	0.565500	0.230860
C991	C99	0.926900	0.564200	0.177770
C1001	C100	0.794700	0.599300	0.212450
C1011	C101	0.963900	0.446500	0.303800
C1021	C102	0.998000	0.516400	0.321280
C1031	C103	0.026400	0.595600	0.307310
C1041	C104	0.132400	0.659200	0.277340
C1051	C105	0.206600	0.639300	0.259490
C1061	C106	0.255800	0.539500	0.225490
C1071	C107	0.229500	0.466700	0.207880
C1081	C108	0.212800	0.380500	0.221270
C1091	C109	0.205200	0.824900	0.448510
C1101	C110	0.279300	0.874700	0.435480
C1111	C111	0.348600	0.907400	0.454020
C1121	C112	0.385400	0.007200	0.489360
C1131	C113	0.345800	0.067900	0.508870
C1141	C114	0.223700	0.084200	0.539890
C1151	C115	0.149000	0.040100	0.553950
C1161	C116	0.072500	0.013900	0.536220
C1171	C117	0.308000	0.802800	0.520470
C1181	C118	0.427900	0.861100	0.552620
C1191	C119	0.320900	0.735800	0.569690
C1201	C120	0.491600	0.695500	0.561530
C1211	C121	0.366500	0.634200	0.528390
C1221	C122	0.472800	0.752500	0.508760
C1231	C123	0.242900	0.917200	0.615710
C1241	C124	0.312800	0.914300	0.636710
C1251	C125	0.375100	0.840100	0.635000
C1261	C126	0.396400	0.685100	0.638580
C1271	C127	0.348000	0.604500	0.645030
C1281	C128	0.217000	0.525100	0.633230
C1291	C129	0.140000	0.519800	0.614120
C1301	C130	0.072100	0.589300	0.617920
C1311	C131	0.133300	0.772100	0.680010
C1321	C132	0.098500	0.774400	0.735200
C1331	C133	0.969900	0.810300	0.702220
C1341	C134	0.038700	0.934500	0.730860
C1351	C135	0.073100	0.935800	0.677770
C1361	C136	0.205300	0.900700	0.712450
C1371	C137	0.036100	0.053500	0.803800
C1381	C138	0.002000	0.983600	0.821280
C1391	C139	0.973600	0.904400	0.807310
C1401	C140	0.867600	0.840800	0.777340
C1411	C141	0.793400	0.860700	0.759490
C1421	C142	0.744200	0.960500	0.725490
C1431	C143	0.770500	0.033300	0.707880
C1441	C144	0.787200	0.119500	0.721270
N11	N1	0.353900	0.383600	0.536970
N21	N2	0.183400	0.475700	0.528810
N31	N3	0.227200	0.524900	0.477260
N41	N4	0.404400	0.440100	0.480730
N51	N5	0.242100	0.343400	0.490620
N61	N6	0.060900	0.430300	0.439640
N71	N7	0.224000	0.230000	0.412210
N81	N8	0.958500	0.162600	0.425420
N91	N9	0.151900	0.067200	0.479170
N101	N10	0.989700	0.251200	0.510830
N111	N11	0.324500	0.350600	0.380550
N121	N12	0.164000	0.257500	0.357460
N131	N13	0.228600	0.099100	0.372440
N141	N14	0.397700	0.173100	0.391800
N151	N15	0.341800	0.230300	0.336970
N161	N16	0.402800	0.228900	0.247060
N171	N17	0.601300	0.285600	0.298620
N181	N18	0.499800	0.477500	0.254900
N191	N19	0.436300	0.484600	0.339130
N201	N20	0.227800	0.431200	0.283040
N211	N21	0.533700	0.597100	0.211340
N221	N22	0.607200	0.418500	0.208420
N231	N23	0.682800	0.432200	0.258240
N241	N24	0.630400	0.619500	0.263040
N251	N25	0.646100	0.116400	0.036970
N261	N26	0.816600	0.024300	0.028810
N271	N27	0.772800	0.975100	0.977260
N281	N28	0.595600	0.059900	0.980730
N291	N29	0.757900	0.156600	0.990620
N301	N30	0.939100	0.069700	0.939640
N311	N31	0.776000	0.270000	0.912210
N321	N32	0.041500	0.337400	0.925420
N331	N33	0.848100	0.432800	0.979170
N341	N34	0.010300	0.248800	0.010830
N351	N35	0.675500	0.149400	0.880550
N361	N36	0.836000	0.242500	0.857460
N371	N37	0.771400	0.400900	0.872440
N381	N38	0.602300	0.326900	0.891800
N391	N39	0.658200	0.269700	0.836970
N401	N40	0.597200	0.271100	0.747060
N411	N41	0.398700	0.214400	0.798620
N421	N42	0.500200	0.022500	0.754900
N431	N43	0.563700	0.015400	0.839130
N441	N44	0.772200	0.068800	0.783040
N451	N45	0.466300	0.902900	0.711340
N461	N46	0.392800	0.081500	0.708420
N471	N47	0.317200	0.067800	0.758240
N481	N48	0.369600	0.880500	0.763040
N491	N49	0.853900	0.616400	0.963030
N501	N50	0.683400	0.524300	0.971190
N511	N51	0.727200	0.475100	0.022740
N521	N52	0.904400	0.559900	0.019270
N531	N53	0.742100	0.656600	0.009380
N541	N54	0.560900	0.569700	0.060360
N551	N55	0.724000	0.770000	0.087790
N561	N56	0.458500	0.837400	0.074580
N571	N57	0.651900	0.932800	0.020830
N581	N58	0.489700	0.748800	0.989170
N591	N59	0.824500	0.649400	0.119450
N601	N60	0.664000	0.742500	0.142540
N611	N61	0.728600	0.900900	0.127560
N621	N62	0.897700	0.826900	0.108200
N631	N63	0.841800	0.769700	0.163030
N641	N64	0.902800	0.771100	0.252940
N651	N65	0.101300	0.714400	0.201380
N661	N66	0.999800	0.522500	0.245100
N671	N67	0.936300	0.515400	0.160870
N681	N68	0.727800	0.568800	0.216960
N691	N69	0.033700	0.402900	0.288660
N701	N70	0.107200	0.581500	0.291580
N711	N71	0.182800	0.567800	0.241760
N721	N72	0.130400	0.380500	0.236960
N731	N73	0.146100	0.883600	0.463030
N741	N74	0.316600	0.975700	0.471190
N751	N75	0.272800	0.024900	0.522740
N761	N76	0.095600	0.940100	0.519270
N771	N77	0.257900	0.843400	0.509380
N781	N78	0.439100	0.930300	0.560360
N791	N79	0.276000	0.730000	0.587790
N801	N80	0.541500	0.662600	0.574580
N811	N81	0.348100	0.567200	0.520830
N821	N82	0.510300	0.751200	0.489170
N831	N83	0.175500	0.850600	0.619450
N841	N84	0.336000	0.757500	0.642540
N851	N85	0.271400	0.599100	0.627560
N861	N86	0.102300	0.673100	0.608200
N871	N87	0.158200	0.730300	0.663030
N881	N88	0.097200	0.728900	0.752940
N891	N89	0.898700	0.785600	0.701380
N901	N90	0.000200	0.977500	0.745100
N911	N91	0.063700	0.984600	0.660870
N921	N92	0.272200	0.931200	0.716960
N931	N93	0.966300	0.097100	0.788660
N941	N94	0.892800	0.918500	0.791580
N951	N95	0.817200	0.932200	0.741760
N961	N96	0.869600	0.119500	0.736960
Fe91	Fe9	0.899700	0.752510	0.540180
Fe101	Fe10	0.588630	0.646500	0.706120
Fe111	Fe11	0.100300	0.747490	0.040180
Fe121	Fe12	0.411370	0.853500	0.206120
Fe131	Fe13	0.399700	0.247490	0.959820
Fe141	Fe14	0.088630	0.353500	0.793880
Fe151	Fe15	0.600300	0.252510	0.459820
Fe161	Fe16	0.911370	0.146500	0.293880
Ni131	Ni13	0.702740	0.546020	0.493670
Ni141	Ni14	0.717120	0.776910	0.624550
Ni151	Ni15	0.387120	0.478180	0.764830
Ni161	Ni16	0.297260	0.953980	0.993670
Ni171	Ni17	0.282880	0.723090	0.124550
Ni181	Ni18	0.612880	0.021820	0.264830
Ni191	Ni19	0.202740	0.453980	0.006330
Ni201	Ni20	0.217120	0.223090	0.875450
Ni211	Ni21	0.887120	0.521820	0.735170
Ni221	Ni22	0.797260	0.046020	0.506330
Ni231	Ni23	0.782880	0.276910	0.375450
Ni241	Ni24	0.112880	0.978180	0.235170
H2651	H265	0.357900	0.590300	0.730100
H2661	H266	0.608000	0.648000	0.468500
H2671	H267	0.628000	0.579000	0.450200
H2681	H268	0.735000	0.717000	0.461700
H2691	H269	0.677000	0.705000	0.435300
H2701	H270	0.753000	0.574000	0.424500
H2711	H271	0.806000	0.659000	0.423600
H2721	H272	0.869000	0.639000	0.465800
H2731	H273	0.898000	0.573000	0.446400
H2741	H274	0.809000	0.486000	0.462600
H2751	H275	0.936000	0.461000	0.479700
H2761	H276	0.914000	0.542000	0.498900
H2771	H277	0.821000	0.378000	0.499600
H2781	H278	0.889000	0.412000	0.521400
H2791	H279	0.795000	0.515000	0.531300
H2801	H280	0.703000	0.364000	0.528800
H2811	H281	0.761000	0.395000	0.553400
H2821	H282	0.631000	0.422000	0.568900
H2831	H283	0.671000	0.514000	0.563500
H2841	H284	0.520000	0.503000	0.549700
H2851	H285	0.563000	0.438000	0.524000
H2861	H286	0.546000	0.578000	0.511200
H2871	H287	0.603000	0.605000	0.530900
H2881	H288	0.647000	0.639000	0.632600
H2891	H289	0.638000	0.651000	0.605100
H2901	H290	0.713000	0.520000	0.614600
H2911	H291	0.764000	0.592000	0.598200
H2921	H292	0.843000	0.536000	0.633800
H2931	H293	0.790000	0.585000	0.653900
H2941	H294	0.898000	0.669000	0.618100
H2951	H295	0.925000	0.654000	0.648200
H2961	H296	0.826000	0.736000	0.658800
H2971	H297	0.916000	0.815000	0.619800
H2981	H298	0.955000	0.803000	0.649100
H2991	H299	0.885000	0.943000	0.643400
H3001	H300	0.827000	0.897000	0.664500
H3011	H301	0.786000	0.920000	0.611600
H3021	H302	0.756000	0.029000	0.630600
H3031	H303	0.696000	0.964000	0.652600
H3041	H304	0.616000	0.035000	0.617400
H3051	H305	0.665000	0.975000	0.597500
H3061	H306	0.558000	0.906000	0.639600
H3071	H307	0.514000	0.921000	0.607000
H3081	H308	0.613000	0.830000	0.591300
H3091	H309	0.566000	0.782000	0.608400
H3101	H310	0.493000	0.364000	0.779500
H3111	H311	0.435000	0.379000	0.800700
H3121	H312	0.580000	0.474000	0.788800
H3131	H313	0.570000	0.401000	0.813400
H3141	H314	0.555000	0.534000	0.831400
H3151	H315	0.453000	0.498000	0.829600
H3161	H316	0.526000	0.608000	0.794300
H3171	H317	0.464000	0.647000	0.819000
H3181	H318	0.354000	0.577000	0.801900
H3191	H319	0.352000	0.705000	0.790400
H3201	H320	0.419000	0.680000	0.765200
H3211	H321	0.249000	0.621000	0.770300
H3221	H322	0.274000	0.691000	0.748700
H3231	H323	0.192000	0.520000	0.738900
H3241	H324	0.215000	0.595000	0.712800
H3251	H325	0.322000	0.474000	0.701900
H3261	H326	0.220000	0.456000	0.695300
H3271	H327	0.290000	0.330000	0.704500
H3281	H328	0.229000	0.364000	0.736200
H3291	H329	0.412000	0.379000	0.722600
H3301	H330	0.384000	0.335000	0.746800
H3311	H331	0.642100	0.909700	0.230100
H3321	H332	0.392000	0.852000	0.968500
H3331	H333	0.372000	0.921000	0.950200
H3341	H334	0.265000	0.783000	0.961700
H3351	H335	0.323000	0.795000	0.935300
H3361	H336	0.247000	0.926000	0.924500
H3371	H337	0.194000	0.841000	0.923600
H3381	H338	0.131000	0.861000	0.965800
H3391	H339	0.102000	0.927000	0.946400
H3401	H340	0.191000	0.014000	0.962600
H3411	H341	0.064000	0.039000	0.979700
H3421	H342	0.086000	0.958000	0.998900
H3431	H343	0.179000	0.122000	0.999600
H3441	H344	0.111000	0.088000	0.021400
H3451	H345	0.205000	0.985000	0.031300
H3461	H346	0.297000	0.136000	0.028800
H3471	H347	0.239000	0.105000	0.053400
H3481	H348	0.369000	0.078000	0.068900
H3491	H349	0.329000	0.986000	0.063500
H3501	H350	0.480000	0.997000	0.049700
H3511	H351	0.437000	0.062000	0.024000
H3521	H352	0.454000	0.922000	0.011200
H3531	H353	0.397000	0.895000	0.030900
H3541	H354	0.353000	0.861000	0.132600
H3551	H355	0.362000	0.849000	0.105100
H3561	H356	0.287000	0.980000	0.114600
H3571	H357	0.236000	0.908000	0.098200
H3581	H358	0.157000	0.964000	0.133800
H3591	H359	0.210000	0.915000	0.153900
H3601	H360	0.102000	0.831000	0.118100
H3611	H361	0.075000	0.846000	0.148200
H3621	H362	0.174000	0.764000	0.158800
H3631	H363	0.084000	0.685000	0.119800
H3641	H364	0.045000	0.697000	0.149100
H3651	H365	0.115000	0.557000	0.143400
H3661	H366	0.173000	0.603000	0.164500
H3671	H367	0.214000	0.580000	0.111600
H3681	H368	0.244000	0.471000	0.130600
H3691	H369	0.304000	0.536000	0.152600
H3701	H370	0.384000	0.465000	0.117400
H3711	H371	0.335000	0.525000	0.097500
H3721	H372	0.442000	0.594000	0.139600
H3731	H373	0.486000	0.579000	0.107000
H3741	H374	0.387000	0.670000	0.091300
H3751	H375	0.434000	0.718000	0.108400
H3761	H376	0.507000	0.136000	0.279500
H3771	H377	0.565000	0.121000	0.300700
H3781	H378	0.420000	0.026000	0.288800
H3791	H379	0.430000	0.099000	0.313400
H3801	H380	0.445000	0.966000	0.331400
H3811	H381	0.547000	0.002000	0.329600
H3821	H382	0.474000	0.892000	0.294300
H3831	H383	0.536000	0.853000	0.319000
H3841	H384	0.646000	0.923000	0.301900
H3851	H385	0.648000	0.795000	0.290400
H3861	H386	0.581000	0.820000	0.265200
H3871	H387	0.751000	0.879000	0.270300
H3881	H388	0.726000	0.809000	0.248700
H3891	H389	0.808000	0.980000	0.238900
H3901	H390	0.785000	0.905000	0.212800
H3911	H391	0.678000	0.026000	0.201900
H3921	H392	0.780000	0.044000	0.195300
H3931	H393	0.710000	0.170000	0.204500
H3941	H394	0.771000	0.136000	0.236200
H3951	H395	0.588000	0.121000	0.222600
H3961	H396	0.616000	0.165000	0.246800
H3971	H397	0.857900	0.409700	0.769900
H3981	H398	0.108000	0.352000	0.031500
H3991	H399	0.128000	0.421000	0.049800
H4001	H400	0.235000	0.283000	0.038300
H4011	H401	0.177000	0.295000	0.064700
H4021	H402	0.253000	0.426000	0.075500
H4031	H403	0.306000	0.341000	0.076400
H4041	H404	0.369000	0.361000	0.034200
H4051	H405	0.398000	0.427000	0.053600
H4061	H406	0.309000	0.514000	0.037400
H4071	H407	0.436000	0.539000	0.020300
H4081	H408	0.414000	0.458000	0.001100
H4091	H409	0.321000	0.622000	0.000400
H4101	H410	0.389000	0.588000	0.978600
H4111	H411	0.295000	0.485000	0.968700
H4121	H412	0.203000	0.636000	0.971200
H4131	H413	0.261000	0.605000	0.946600
H4141	H414	0.131000	0.578000	0.931100
H4151	H415	0.171000	0.486000	0.936500
H4161	H416	0.020000	0.497000	0.950300
H4171	H417	0.063000	0.562000	0.976000
H4181	H418	0.046000	0.422000	0.988800
H4191	H419	0.103000	0.395000	0.969100
H4201	H420	0.147000	0.361000	0.867400
H4211	H421	0.138000	0.349000	0.894900
H4221	H422	0.213000	0.480000	0.885400
H4231	H423	0.264000	0.408000	0.901800
H4241	H424	0.343000	0.464000	0.866200
H4251	H425	0.290000	0.415000	0.846100
H4261	H426	0.398000	0.331000	0.881900
H4271	H427	0.425000	0.346000	0.851800
H4281	H428	0.326000	0.264000	0.841200
H4291	H429	0.416000	0.185000	0.880200
H4301	H430	0.455000	0.197000	0.850900
H4311	H431	0.385000	0.057000	0.856600
H4321	H432	0.327000	0.103000	0.835500
H4331	H433	0.286000	0.080000	0.888400
H4341	H434	0.256000	0.971000	0.869400
H4351	H435	0.196000	0.036000	0.847400
H4361	H436	0.116000	0.965000	0.882600
H4371	H437	0.165000	0.025000	0.902500
H4381	H438	0.058000	0.094000	0.860400
H4391	H439	0.014000	0.079000	0.893000
H4401	H440	0.113000	0.170000	0.908700
H4411	H441	0.066000	0.218000	0.891600
H4421	H442	0.993000	0.636000	0.720500
H4431	H443	0.935000	0.621000	0.699300
H4441	H444	0.080000	0.526000	0.711200
H4451	H445	0.070000	0.599000	0.686600
H4461	H446	0.055000	0.466000	0.668600
H4471	H447	0.953000	0.502000	0.670400
H4481	H448	0.026000	0.392000	0.705700
H4491	H449	0.964000	0.353000	0.681000
H4501	H450	0.854000	0.423000	0.698100
H4511	H451	0.852000	0.295000	0.709600
H4521	H452	0.919000	0.320000	0.734800
H4531	H453	0.749000	0.379000	0.729700
H4541	H454	0.774000	0.309000	0.751300
H4551	H455	0.692000	0.480000	0.761100
H4561	H456	0.715000	0.405000	0.787200
H4571	H457	0.822000	0.526000	0.798100
H4581	H458	0.720000	0.544000	0.804700
H4591	H459	0.790000	0.670000	0.795500
H4601	H460	0.729000	0.636000	0.763800
H4611	H461	0.912000	0.621000	0.777400
H4621	H462	0.884000	0.665000	0.753200
H4631	H463	0.142100	0.090300	0.269900
H4641	H464	0.892000	0.148000	0.531500
H4651	H465	0.872000	0.079000	0.549800
H4661	H466	0.765000	0.217000	0.538300
H4671	H467	0.823000	0.205000	0.564700
H4681	H468	0.747000	0.074000	0.575500
H4691	H469	0.694000	0.159000	0.576400
H4701	H470	0.631000	0.139000	0.534200
H4711	H471	0.602000	0.073000	0.553600
H4721	H472	0.691000	0.986000	0.537400
H4731	H473	0.564000	0.961000	0.520300
H4741	H474	0.586000	0.042000	0.501100
H4751	H475	0.679000	0.878000	0.500400
H4761	H476	0.611000	0.912000	0.478600
H4771	H477	0.705000	0.015000	0.468700
H4781	H478	0.797000	0.864000	0.471200
H4791	H479	0.739000	0.895000	0.446600
H4801	H480	0.869000	0.922000	0.431100
H4811	H481	0.829000	0.014000	0.436500
H4821	H482	0.980000	0.003000	0.450300
H4831	H483	0.937000	0.938000	0.476000
H4841	H484	0.954000	0.078000	0.488800
H4851	H485	0.897000	0.105000	0.469100
H4861	H486	0.853000	0.139000	0.367400
H4871	H487	0.862000	0.151000	0.394900
H4881	H488	0.787000	0.020000	0.385400
H4891	H489	0.736000	0.092000	0.401800
H4901	H490	0.657000	0.036000	0.366200
H4911	H491	0.710000	0.085000	0.346100
H4921	H492	0.602000	0.169000	0.381900
H4931	H493	0.575000	0.154000	0.351800
H4941	H494	0.674000	0.236000	0.341200
H4951	H495	0.584000	0.315000	0.380200
H4961	H496	0.545000	0.303000	0.350900
H4971	H497	0.615000	0.443000	0.356600
H4981	H498	0.673000	0.397000	0.335500
H4991	H499	0.714000	0.420000	0.388400
H5001	H500	0.744000	0.529000	0.369400
H5011	H501	0.804000	0.464000	0.347400
H5021	H502	0.884000	0.535000	0.382600
H5031	H503	0.835000	0.475000	0.402500
H5041	H504	0.942000	0.406000	0.360400
H5051	H505	0.986000	0.421000	0.393000
H5061	H506	0.887000	0.330000	0.408700
H5071	H507	0.934000	0.282000	0.391600
H5081	H508	0.007000	0.864000	0.220500
H5091	H509	0.065000	0.879000	0.199300
H5101	H510	0.920000	0.974000	0.211200
H5111	H511	0.930000	0.901000	0.186600
H5121	H512	0.945000	0.034000	0.168600
H5131	H513	0.047000	0.998000	0.170400
H5141	H514	0.974000	0.108000	0.205700
H5151	H515	0.036000	0.147000	0.181000
H5161	H516	0.146000	0.077000	0.198100
H5171	H517	0.148000	0.205000	0.209600
H5181	H518	0.081000	0.180000	0.234800
H5191	H519	0.251000	0.121000	0.229700
H5201	H520	0.226000	0.191000	0.251300
H5211	H521	0.308000	0.020000	0.261100
H5221	H522	0.285000	0.095000	0.287200
H5231	H523	0.178000	0.974000	0.298100
H5241	H524	0.280000	0.956000	0.304700
H5251	H525	0.210000	0.830000	0.295500
H5261	H526	0.271000	0.864000	0.263800
H5271	H527	0.088000	0.879000	0.277400
H5281	H528	0.116000	0.835000	0.253200
C1451	C145	0.705200	0.675100	0.448510
C1461	C146	0.779300	0.625300	0.435480
C1471	C147	0.848600	0.592600	0.454020
C1481	C148	0.885400	0.492800	0.489360
C1491	C149	0.845800	0.432100	0.508870
C1501	C150	0.723700	0.415800	0.539890
C1511	C151	0.649000	0.459900	0.553950
C1521	C152	0.572500	0.486100	0.536220
C1531	C153	0.808000	0.697200	0.520470
C1541	C154	0.927900	0.638900	0.552620
C1551	C155	0.820900	0.764200	0.569690
C1561	C156	0.991600	0.804500	0.561530
C1571	C157	0.866500	0.865800	0.528390
C1581	C158	0.972800	0.747500	0.508760
C1591	C159	0.742900	0.582800	0.615710
C1601	C160	0.812800	0.585700	0.636710
C1611	C161	0.875100	0.659900	0.635000
C1621	C162	0.896400	0.814900	0.638580
C1631	C163	0.848000	0.895500	0.645030
C1641	C164	0.717000	0.974900	0.633230
C1651	C165	0.640000	0.980200	0.614120
C1661	C166	0.572100	0.910700	0.617920
C1671	C167	0.633300	0.727900	0.680010
C1681	C168	0.598500	0.725600	0.735200
C1691	C169	0.469900	0.689700	0.702220
C1701	C170	0.538700	0.565500	0.730860
C1711	C171	0.573100	0.564200	0.677770
C1721	C172	0.705300	0.599300	0.712450
C1731	C173	0.536100	0.446500	0.803800
C1741	C174	0.502000	0.516400	0.821280
C1751	C175	0.473600	0.595600	0.807310
C1761	C176	0.367600	0.659200	0.777340
C1771	C177	0.293400	0.639300	0.759490
C1781	C178	0.244200	0.539500	0.725490
C1791	C179	0.270500	0.466700	0.707880
C1801	C180	0.287200	0.380500	0.721270
C1811	C181	0.294800	0.824900	0.948510
C1821	C182	0.220700	0.874700	0.935480
C1831	C183	0.151400	0.907400	0.954020
C1841	C184	0.114600	0.007200	0.989360
C1851	C185	0.154200	0.067900	0.008870
C1861	C186	0.276300	0.084200	0.039890
C1871	C187	0.351000	0.040100	0.053950
C1881	C188	0.427500	0.013900	0.036220
C1891	C189	0.192000	0.802800	0.020470
C1901	C190	0.072100	0.861100	0.052620
C1911	C191	0.179100	0.735800	0.069690
C1921	C192	0.008400	0.695500	0.061530
C1931	C193	0.133500	0.634200	0.028390
C1941	C194	0.027200	0.752500	0.008760
C1951	C195	0.257100	0.917200	0.115710
C1961	C196	0.187200	0.914300	0.136710
C1971	C197	0.124900	0.840100	0.135000
C1981	C198	0.103600	0.685100	0.138580
C1991	C199	0.152000	0.604500	0.145030
C2001	C200	0.283000	0.525100	0.133230
C2011	C201	0.360000	0.519800	0.114120
C2021	C202	0.427900	0.589300	0.117920
C2031	C203	0.366700	0.772100	0.180010
C2041	C204	0.401500	0.774400	0.235200
C2051	C205	0.530100	0.810300	0.202220
C2061	C206	0.461300	0.934500	0.230860
C2071	C207	0.426900	0.935800	0.177770
C2081	C208	0.294700	0.900700	0.212450
C2091	C209	0.463900	0.053500	0.303800
C2101	C210	0.498000	0.983600	0.321280
C2111	C211	0.526400	0.904400	0.307310
C2121	C212	0.632400	0.840800	0.277340
C2131	C213	0.706600	0.860700	0.259490
C2141	C214	0.755800	0.960500	0.225490
C2151	C215	0.729500	0.033300	0.207880
C2161	C216	0.712800	0.119500	0.221270
C2171	C217	0.205200	0.324900	0.051490
C2181	C218	0.279300	0.374700	0.064520
C2191	C219	0.348600	0.407400	0.045980
C2201	C220	0.385400	0.507200	0.010640
C2211	C221	0.345800	0.567900	0.991130
C2221	C222	0.223700	0.584200	0.960110
C2231	C223	0.149000	0.540100	0.946050
C2241	C224	0.072500	0.513900	0.963780
C2251	C225	0.308000	0.302800	0.979530
C2261	C226	0.427900	0.361100	0.947380
C2271	C227	0.320900	0.235800	0.930310
C2281	C228	0.491600	0.195500	0.938470
C2291	C229	0.366500	0.134200	0.971610
C2301	C230	0.472800	0.252500	0.991240
C2311	C231	0.242900	0.417200	0.884290
C2321	C232	0.312800	0.414300	0.863290
C2331	C233	0.375100	0.340100	0.865000
C2341	C234	0.396400	0.185100	0.861420
C2351	C235	0.348000	0.104500	0.854970
C2361	C236	0.217000	0.025100	0.866770
C2371	C237	0.140000	0.019800	0.885880
C2381	C238	0.072100	0.089300	0.882080
C2391	C239	0.133300	0.272100	0.819990
C2401	C240	0.098500	0.274400	0.764800
C2411	C241	0.969900	0.310300	0.797780
C2421	C242	0.038700	0.434500	0.769140
C2431	C243	0.073100	0.435800	0.822230
C2441	C244	0.205300	0.400700	0.787550
C2451	C245	0.036100	0.553500	0.696200
C2461	C246	0.002000	0.483600	0.678720
C2471	C247	0.973600	0.404400	0.692690
C2481	C248	0.867600	0.340800	0.722660
C2491	C249	0.793400	0.360700	0.740510
C2501	C250	0.744200	0.460500	0.774510
C2511	C251	0.770500	0.533300	0.792120
C2521	C252	0.787200	0.619500	0.778730
C2531	C253	0.794800	0.175100	0.551490
C2541	C254	0.720700	0.125300	0.564520
C2551	C255	0.651400	0.092600	0.545980
C2561	C256	0.614600	0.992800	0.510640
C2571	C257	0.654200	0.932100	0.491130
C2581	C258	0.776300	0.915800	0.460110
C2591	C259	0.851000	0.959900	0.446050
C2601	C260	0.927500	0.986100	0.463780
C2611	C261	0.692000	0.197200	0.479530
C2621	C262	0.572100	0.138900	0.447380
C2631	C263	0.679100	0.264200	0.430310
C2641	C264	0.508400	0.304500	0.438470
C2651	C265	0.633500	0.365800	0.471610
C2661	C266	0.527200	0.247500	0.491240
C2671	C267	0.757100	0.082800	0.384290
C2681	C268	0.687200	0.085700	0.363290
C2691	C269	0.624900	0.159900	0.365000
C2701	C270	0.603600	0.314900	0.361420
C2711	C271	0.652000	0.395500	0.354970
C2721	C272	0.783000	0.474900	0.366770
C2731	C273	0.860000	0.480200	0.385880
C2741	C274	0.927900	0.410700	0.382080
C2751	C275	0.866700	0.227900	0.319990
C2761	C276	0.901500	0.225600	0.264800
C2771	C277	0.030100	0.189700	0.297780
C2781	C278	0.961300	0.065500	0.269140
C2791	C279	0.926900	0.064200	0.322230
C2801	C280	0.794700	0.099300	0.287550
C2811	C281	0.963900	0.946500	0.196200
C2821	C282	0.998000	0.016400	0.178720
C2831	C283	0.026400	0.095600	0.192690
C2841	C284	0.132400	0.159200	0.222660
C2851	C285	0.206600	0.139300	0.240510
C2861	C286	0.255800	0.039500	0.274510
C2871	C287	0.229500	0.966700	0.292120
C2881	C288	0.212800	0.880500	0.278730
N971	N97	0.646100	0.616400	0.463030
N981	N98	0.816600	0.524300	0.471190
N991	N99	0.772800	0.475100	0.522740
N1001	N100	0.595600	0.559900	0.519270
N1011	N101	0.757900	0.656600	0.509380
N1021	N102	0.939100	0.569700	0.560360
N1031	N103	0.776000	0.770000	0.587790
N1041	N104	0.041500	0.837400	0.574580
N1051	N105	0.848100	0.932800	0.520830
N1061	N106	0.010300	0.748800	0.489170
N1071	N107	0.675500	0.649400	0.619450
N1081	N108	0.836000	0.742500	0.642540
N1091	N109	0.771400	0.900900	0.627560
N1101	N110	0.602300	0.826900	0.608200
N1111	N111	0.658200	0.769700	0.663030
N1121	N112	0.597200	0.771100	0.752940
N1131	N113	0.398700	0.714400	0.701380
N1141	N114	0.500200	0.522500	0.745100
N1151	N115	0.563700	0.515400	0.660870
N1161	N116	0.772200	0.568800	0.716960
N1171	N117	0.466300	0.402900	0.788660
N1181	N118	0.392800	0.581500	0.791580
N1191	N119	0.317200	0.567800	0.741760
N1201	N120	0.369600	0.380500	0.736960
N1211	N121	0.353900	0.883600	0.963030
N1221	N122	0.183400	0.975700	0.971190
N1231	N123	0.227200	0.024900	0.022740
N1241	N124	0.404400	0.940100	0.019270
N1251	N125	0.242100	0.843400	0.009380
N1261	N126	0.060900	0.930300	0.060360
N1271	N127	0.224000	0.730000	0.087790
N1281	N128	0.958500	0.662600	0.074580
N1291	N129	0.151900	0.567200	0.020830
N1301	N130	0.989700	0.751200	0.989170
N1311	N131	0.324500	0.850600	0.119450
N1321	N132	0.164000	0.757500	0.142540
N1331	N133	0.228600	0.599100	0.127560
N1341	N134	0.397700	0.673100	0.108200
N1351	N135	0.341800	0.730300	0.163030
N1361	N136	0.402800	0.728900	0.252940
N1371	N137	0.601300	0.785600	0.201380
N1381	N138	0.499800	0.977500	0.245100
N1391	N139	0.436300	0.984600	0.160870
N1401	N140	0.227800	0.931200	0.216960
N1411	N141	0.533700	0.097100	0.288660
N1421	N142	0.607200	0.918500	0.291580
N1431	N143	0.682800	0.932200	0.241760
N1441	N144	0.630400	0.119500	0.236960
N1451	N145	0.146100	0.383600	0.036970
N1461	N146	0.316600	0.475700	0.028810
N1471	N147	0.272800	0.524900	0.977260
N1481	N148	0.095600	0.440100	0.980730
N1491	N149	0.257900	0.343400	0.990620
N1501	N150	0.439100	0.430300	0.939640
N1511	N151	0.276000	0.230000	0.912210
N1521	N152	0.541500	0.162600	0.925420
N1531	N153	0.348100	0.067200	0.979170
N1541	N154	0.510300	0.251200	0.010830
N1551	N155	0.175500	0.350600	0.880550
N1561	N156	0.336000	0.257500	0.857460
N1571	N157	0.271400	0.099100	0.872440
N1581	N158	0.102300	0.173100	0.891800
N1591	N159	0.158200	0.230300	0.836970
N1601	N160	0.097200	0.228900	0.747060
N1611	N161	0.898700	0.285600	0.798620
N1621	N162	0.000200	0.477500	0.754900
N1631	N163	0.063700	0.484600	0.839130
N1641	N164	0.272200	0.431200	0.783040
N1651	N165	0.966300	0.597100	0.711340
N1661	N166	0.892800	0.418500	0.708420
N1671	N167	0.817200	0.432200	0.758240
N1681	N168	0.869600	0.619500	0.763040
N1691	N169	0.853900	0.116400	0.536970
N1701	N170	0.683400	0.024300	0.528810
N1711	N171	0.727200	0.975100	0.477260
N1721	N172	0.904400	0.059900	0.480730
N1731	N173	0.742100	0.156600	0.490620
N1741	N174	0.560900	0.069700	0.439640
N1751	N175	0.724000	0.270000	0.412210
N1761	N176	0.458500	0.337400	0.425420
N1771	N177	0.651900	0.432800	0.479170
N1781	N178	0.489700	0.248800	0.510830
N1791	N179	0.824500	0.149400	0.380550
N1801	N180	0.664000	0.242500	0.357460
N1811	N181	0.728600	0.400900	0.372440
N1821	N182	0.897700	0.326900	0.391800
N1831	N183	0.841800	0.269700	0.336970
N1841	N184	0.902800	0.271100	0.247060
N1851	N185	0.101300	0.214400	0.298620
N1861	N186	0.999800	0.022500	0.254900
N1871	N187	0.936300	0.015400	0.339130
N1881	N188	0.727800	0.068800	0.283040
N1891	N189	0.033700	0.902900	0.211340
N1901	N190	0.107200	0.081500	0.208420
N1911	N191	0.182800	0.067800	0.258240
N1921	N192	0.130400	0.880500	0.263040
