data_MASZOX_clean_PM
_symmetry_space_group_name_H-M	'P1'
_cell_length_a	15.018600
_cell_length_b	15.018600
_cell_length_c	17.947000
_cell_angle_alpha	94.550800
_cell_angle_beta	94.550800
_cell_angle_gamma	90.288600
_symmetry_Int_Tables_number 1

loop_
_symmetry_equiv_pos_as_xyz
'x,y,z'

loop_
_atom_site_label
_atom_site_type_symbol
_atom_site_fract_x
_atom_site_fract_y
_atom_site_fract_z
Cu11	Cu1	0.627680	0.802140	0.487500
Cu21	Cu2	0.807910	0.717070	0.359190
Cu31	Cu3	0.770350	0.594210	0.527470
Cu41	Cu4	0.197860	0.372320	0.012500
Cu51	Cu5	0.282930	0.192090	0.140810
Cu61	Cu6	0.405790	0.229650	0.972530
Mo11	Mo1	0.804600	0.766980	0.504700
Mo21	Mo2	0.233020	0.195400	0.995300
H11	H1	0.717100	0.945300	0.601700
H21	H2	0.686400	0.037800	0.703600
H31	H3	0.424400	0.000200	0.635800
H41	H4	0.467600	0.909000	0.537400
H51	H5	0.566900	0.111900	0.930200
H61	H6	0.615000	0.033600	0.825000
H71	H7	0.422300	0.148900	0.703600
H81	H8	0.377800	0.220600	0.808500
H91	H9	0.991200	0.799000	0.400800
H101	H10	0.083300	0.897100	0.365400
H111	H11	0.939300	0.900500	0.169100
H121	H12	0.841700	0.801100	0.213000
H131	H13	0.844200	0.577800	0.235900
H141	H14	0.767500	0.480300	0.150100
H151	H15	0.541900	0.577100	0.223000
H161	H16	0.619800	0.661800	0.313200
H171	H17	0.403800	0.417000	0.032900
H181	H18	0.480400	0.516000	0.112900
H191	H19	0.687300	0.350300	0.116100
H201	H20	0.600600	0.252400	0.036400
H211	H21	0.054700	0.282900	0.898300
H221	H22	0.962200	0.313600	0.796400
H231	H23	0.999800	0.575600	0.864200
H241	H24	0.091000	0.532400	0.962600
H251	H25	0.888100	0.433100	0.569800
H261	H26	0.966400	0.385000	0.675000
H271	H27	0.851100	0.577700	0.796400
H281	H28	0.779400	0.622200	0.691500
H291	H29	0.201000	0.008800	0.099200
H301	H30	0.102900	0.916700	0.134600
H311	H31	0.099500	0.060700	0.330900
H321	H32	0.198900	0.158300	0.287000
H331	H33	0.422200	0.155800	0.264100
H341	H34	0.519700	0.232500	0.349900
H351	H35	0.422900	0.458100	0.277000
H361	H36	0.338200	0.380200	0.186800
H371	H37	0.583000	0.596200	0.467100
H381	H38	0.484000	0.519600	0.387100
H391	H39	0.649700	0.312700	0.383900
H401	H40	0.747600	0.399400	0.463600
C11	C1	0.657500	0.956700	0.609100
C21	C2	0.640200	0.012600	0.671100
C31	C3	0.550100	0.030300	0.683800
C41	C4	0.484800	0.990000	0.630700
C51	C5	0.511300	0.935700	0.571600
C61	C6	0.536400	0.118400	0.883800
C71	C7	0.566900	0.072100	0.820300
C81	C8	0.526000	0.083600	0.751900
C91	C9	0.453000	0.140200	0.749500
C101	C10	0.426100	0.182300	0.812500
C111	C11	0.979800	0.820000	0.353600
C121	C12	0.034500	0.877900	0.332800
C131	C13	0.022500	0.912700	0.262300
C141	C14	0.950100	0.881300	0.217000
C151	C15	0.892200	0.820200	0.243500
C161	C16	0.782100	0.577100	0.233600
C171	C17	0.736300	0.517300	0.182700
C181	C18	0.645400	0.512000	0.179500
C191	C19	0.603900	0.573700	0.227100
C201	C20	0.650300	0.627700	0.278000
C211	C21	0.461300	0.402500	0.050900
C221	C22	0.507600	0.462800	0.097700
C231	C23	0.593900	0.448100	0.124000
C241	C24	0.629300	0.365300	0.100200
C251	C25	0.576000	0.306600	0.052400
C261	C26	0.043300	0.342500	0.890900
C271	C27	0.987400	0.359800	0.828900
C281	C28	0.969700	0.449900	0.816200
C291	C29	0.010000	0.515200	0.869300
C301	C30	0.064300	0.488700	0.928400
C311	C31	0.881600	0.463600	0.616200
C321	C32	0.927900	0.433100	0.679700
C331	C33	0.916400	0.474000	0.748100
C341	C34	0.859800	0.547000	0.750500
C351	C35	0.817700	0.573900	0.687500
C361	C36	0.180000	0.020200	0.146400
C371	C37	0.122100	0.965500	0.167200
C381	C38	0.087300	0.977500	0.237700
C391	C39	0.118700	0.049900	0.283000
C401	C40	0.179800	0.107800	0.256500
C411	C41	0.422900	0.217900	0.266400
C421	C42	0.482700	0.263700	0.317300
C431	C43	0.488000	0.354600	0.320500
C441	C44	0.426300	0.396100	0.272900
C451	C45	0.372300	0.349700	0.222000
C461	C46	0.597500	0.538700	0.449100
C471	C47	0.537200	0.492400	0.402300
C481	C48	0.551900	0.406100	0.376000
C491	C49	0.634700	0.370700	0.399800
C501	C50	0.693400	0.424000	0.447600
S11	S1	0.732790	0.836530	0.410510
S21	S2	0.874750	0.644630	0.455100
S31	S3	0.699960	0.719620	0.576180
S41	S4	0.163470	0.267210	0.089490
S51	S5	0.355370	0.125250	0.044900
S61	S6	0.280380	0.300040	0.923820
I11	I1	0.482180	0.753660	0.429610
I21	I2	0.246340	0.517820	0.070390
N11	N1	0.598500	0.919100	0.560600
N21	N2	0.465500	0.171700	0.880800
N31	N3	0.906000	0.788000	0.310000
N41	N4	0.740300	0.635100	0.280700
N51	N5	0.493200	0.322000	0.028300
N61	N6	0.080900	0.401500	0.939400
N71	N7	0.828300	0.534500	0.619200
N81	N8	0.212000	0.094000	0.190000
N91	N9	0.364900	0.259700	0.219300
N101	N10	0.678000	0.506800	0.471700
Cu71	Cu7	0.372320	0.197860	0.512500
Cu81	Cu8	0.192090	0.282930	0.640810
Cu91	Cu9	0.229650	0.405790	0.472530
Cu101	Cu10	0.802140	0.627680	0.987500
Cu111	Cu11	0.717070	0.807910	0.859190
Cu121	Cu12	0.594210	0.770350	0.027470
Mo31	Mo3	0.195400	0.233020	0.495300
Mo41	Mo4	0.766980	0.804600	0.004700
H411	H41	0.282900	0.054700	0.398300
H421	H42	0.313600	0.962200	0.296400
H431	H43	0.575600	0.999800	0.364200
H441	H44	0.532400	0.091000	0.462600
H451	H45	0.433100	0.888100	0.069800
H461	H46	0.385000	0.966400	0.175000
H471	H47	0.577700	0.851100	0.296400
H481	H48	0.622200	0.779400	0.191500
H491	H49	0.008800	0.201000	0.599200
H501	H50	0.916700	0.102900	0.634600
H511	H51	0.060700	0.099500	0.830900
H521	H52	0.158300	0.198900	0.787000
H531	H53	0.155800	0.422200	0.764100
H541	H54	0.232500	0.519700	0.849900
H551	H55	0.458100	0.422900	0.777000
H561	H56	0.380200	0.338200	0.686800
H571	H57	0.596200	0.583000	0.967100
H581	H58	0.519600	0.484000	0.887100
H591	H59	0.312700	0.649700	0.883900
H601	H60	0.399400	0.747600	0.963600
H611	H61	0.945300	0.717100	0.101700
H621	H62	0.037800	0.686400	0.203600
H631	H63	0.000200	0.424400	0.135800
H641	H64	0.909000	0.467600	0.037400
H651	H65	0.111900	0.566900	0.430200
H661	H66	0.033600	0.615000	0.325000
H671	H67	0.148900	0.422300	0.203600
H681	H68	0.220600	0.377800	0.308500
H691	H69	0.799000	0.991200	0.900800
H701	H70	0.897100	0.083300	0.865400
H711	H71	0.900500	0.939300	0.669100
H721	H72	0.801100	0.841700	0.713000
H731	H73	0.577800	0.844200	0.735900
H741	H74	0.480300	0.767500	0.650100
H751	H75	0.577100	0.541900	0.723000
H761	H76	0.661800	0.619800	0.813200
H771	H77	0.417000	0.403800	0.532900
H781	H78	0.516000	0.480400	0.612900
H791	H79	0.350300	0.687300	0.616100
H801	H80	0.252400	0.600600	0.536400
C511	C51	0.342500	0.043300	0.390900
C521	C52	0.359800	0.987400	0.328900
C531	C53	0.449900	0.969700	0.316200
C541	C54	0.515200	0.010000	0.369300
C551	C55	0.488700	0.064300	0.428400
C561	C56	0.463600	0.881600	0.116200
C571	C57	0.433100	0.927900	0.179700
C581	C58	0.474000	0.916400	0.248100
C591	C59	0.547000	0.859800	0.250500
C601	C60	0.573900	0.817700	0.187500
C611	C61	0.020200	0.180000	0.646400
C621	C62	0.965500	0.122100	0.667200
C631	C63	0.977500	0.087300	0.737700
C641	C64	0.049900	0.118700	0.783000
C651	C65	0.107800	0.179800	0.756500
C661	C66	0.217900	0.422900	0.766400
C671	C67	0.263700	0.482700	0.817300
C681	C68	0.354600	0.488000	0.820500
C691	C69	0.396100	0.426300	0.772900
C701	C70	0.349700	0.372300	0.722000
C711	C71	0.538700	0.597500	0.949100
C721	C72	0.492400	0.537200	0.902300
C731	C73	0.406100	0.551900	0.876000
C741	C74	0.370700	0.634700	0.899800
C751	C75	0.424000	0.693400	0.947600
C761	C76	0.956700	0.657500	0.109100
C771	C77	0.012600	0.640200	0.171100
C781	C78	0.030300	0.550100	0.183800
C791	C79	0.990000	0.484800	0.130700
C801	C80	0.935700	0.511300	0.071600
C811	C81	0.118400	0.536400	0.383800
C821	C82	0.072100	0.566900	0.320300
C831	C83	0.083600	0.526000	0.251900
C841	C84	0.140200	0.453000	0.249500
C851	C85	0.182300	0.426100	0.312500
C861	C86	0.820000	0.979800	0.853600
C871	C87	0.877900	0.034500	0.832800
C881	C88	0.912700	0.022500	0.762300
C891	C89	0.881300	0.950100	0.717000
C901	C90	0.820200	0.892200	0.743500
C911	C91	0.577100	0.782100	0.733600
C921	C92	0.517300	0.736300	0.682700
C931	C93	0.512000	0.645400	0.679500
C941	C94	0.573700	0.603900	0.727100
C951	C95	0.627700	0.650300	0.778000
C961	C96	0.402500	0.461300	0.550900
C971	C97	0.462800	0.507600	0.597700
C981	C98	0.448100	0.593900	0.624000
C991	C99	0.365300	0.629300	0.600200
C1001	C100	0.306600	0.576000	0.552400
S71	S7	0.267210	0.163470	0.589490
S81	S8	0.125250	0.355370	0.544900
S91	S9	0.300040	0.280380	0.423820
S101	S10	0.836530	0.732790	0.910510
S111	S11	0.644630	0.874750	0.955100
S121	S12	0.719620	0.699960	0.076180
I31	I3	0.517820	0.246340	0.570390
I41	I4	0.753660	0.482180	0.929610
N111	N11	0.401500	0.080900	0.439400
N121	N12	0.534500	0.828300	0.119200
N131	N13	0.094000	0.212000	0.690000
N141	N14	0.259700	0.364900	0.719300
N151	N15	0.506800	0.678000	0.971700
N161	N16	0.919100	0.598500	0.060600
N171	N17	0.171700	0.465500	0.380800
N181	N18	0.788000	0.906000	0.810000
N191	N19	0.635100	0.740300	0.780700
N201	N20	0.322000	0.493200	0.528300
