data_MATBAM_clean_PM
_symmetry_space_group_name_H-M	'P1'
_cell_length_a	9.700800
_cell_length_b	20.867500
_cell_length_c	24.750000
_cell_angle_alpha	104.531000
_cell_angle_beta	90.000000
_cell_angle_gamma	103.441000
_symmetry_Int_Tables_number 1

loop_
_symmetry_equiv_pos_as_xyz
'x,y,z'

loop_
_atom_site_label
_atom_site_type_symbol
_atom_site_fract_x
_atom_site_fract_y
_atom_site_fract_z
Cu11	Cu1	0.252050	0.785480	0.010490
Cu21	Cu2	0.564500	0.710340	0.961810
Cu31	Cu3	0.474270	0.738520	0.108280
Cu41	Cu4	0.466570	0.214520	0.489510
Cu51	Cu5	0.854160	0.289660	0.538190
Cu61	Cu6	0.735750	0.261480	0.391720
Cu71	Cu7	0.747950	0.214520	0.989510
Cu81	Cu8	0.435500	0.289660	0.038190
Cu91	Cu9	0.525730	0.261480	0.891720
Cu101	Cu10	0.533430	0.785480	0.510490
Cu111	Cu11	0.145840	0.710340	0.461810
Cu121	Cu12	0.264250	0.738520	0.608280
Mo11	Mo1	0.530970	0.821100	0.040040
Mo21	Mo2	0.709870	0.178900	0.459960
Mo31	Mo3	0.469030	0.178900	0.959960
Mo41	Mo4	0.290130	0.821100	0.540040
H11	H1	0.959300	0.714600	0.039100
H21	H2	0.806500	0.609600	0.018700
H31	H3	0.064600	0.547800	0.901800
H41	H4	0.212500	0.652800	0.928200
H51	H5	0.512500	0.406600	0.950900
H61	H6	0.643200	0.515600	0.972300
H71	H7	0.977200	0.443000	0.910500
H81	H8	0.828900	0.336200	0.890700
H91	H9	0.985100	0.837800	0.043700
H101	H10	0.890500	0.926200	0.045900
H111	H11	0.179500	0.986400	0.946900
H121	H12	0.282000	0.899200	0.952900
H131	H13	0.764600	0.820000	0.916000
H141	H14	0.927000	0.831000	0.849900
H151	H15	0.905900	0.632000	0.822400
H161	H16	0.739700	0.627800	0.887700
H171	H17	0.263800	0.830800	0.726200
H181	H18	0.144600	0.831600	0.804400
H191	H19	0.948700	0.637800	0.736700
H201	H20	0.095100	0.640400	0.662500
H211	H21	0.244700	0.285400	0.460900
H221	H22	0.196900	0.390400	0.481300
H231	H23	0.516800	0.452200	0.598200
H241	H24	0.559700	0.347200	0.571800
H251	H25	0.105900	0.593400	0.549100
H261	H26	0.127600	0.484400	0.527700
H271	H27	0.534200	0.557000	0.589500
H281	H28	0.492700	0.663800	0.609300
H291	H29	0.147300	0.162200	0.456300
H301	H30	0.964300	0.073800	0.454100
H311	H31	0.193100	0.013600	0.553100
H321	H32	0.382800	0.100800	0.547100
H331	H33	0.944600	0.180000	0.584000
H341	H34	0.096000	0.169000	0.650100
H351	H35	0.273900	0.368000	0.677600
H361	H36	0.111900	0.372200	0.612300
H371	H37	0.433000	0.169200	0.773800
H381	H38	0.313000	0.168400	0.695600
H391	H39	0.310900	0.362200	0.763300
H401	H40	0.454700	0.359600	0.837500
H411	H41	0.040700	0.285400	0.960900
H421	H42	0.193500	0.390400	0.981300
H431	H43	0.935400	0.452200	0.098200
H441	H44	0.787500	0.347200	0.071800
H451	H45	0.487500	0.593400	0.049100
H461	H46	0.356800	0.484400	0.027700
H471	H47	0.022800	0.557000	0.089500
H481	H48	0.171100	0.663800	0.109300
H491	H49	0.014900	0.162200	0.956300
H501	H50	0.109500	0.073800	0.954100
H511	H51	0.820500	0.013600	0.053100
H521	H52	0.718000	0.100800	0.047100
H531	H53	0.235400	0.180000	0.084000
H541	H54	0.073000	0.169000	0.150100
H551	H55	0.094100	0.368000	0.177600
H561	H56	0.260300	0.372200	0.112300
H571	H57	0.736200	0.169200	0.273800
H581	H58	0.855400	0.168400	0.195600
H591	H59	0.051300	0.362200	0.263300
H601	H60	0.904900	0.359600	0.337500
H611	H61	0.755300	0.714600	0.539100
H621	H62	0.803100	0.609600	0.518700
H631	H63	0.483200	0.547800	0.401800
H641	H64	0.440300	0.652800	0.428200
H651	H65	0.894100	0.406600	0.450900
H661	H66	0.872400	0.515600	0.472300
H671	H67	0.465800	0.443000	0.410500
H681	H68	0.507300	0.336200	0.390700
H691	H69	0.852700	0.837800	0.543700
H701	H70	0.035700	0.926200	0.545900
H711	H71	0.806900	0.986400	0.446900
H721	H72	0.617200	0.899200	0.452900
H731	H73	0.055400	0.820000	0.416000
H741	H74	0.904000	0.831000	0.349900
H751	H75	0.726100	0.632000	0.322400
H761	H76	0.888100	0.627800	0.387700
H771	H77	0.567000	0.830800	0.226200
H781	H78	0.687000	0.831600	0.304400
H791	H79	0.689100	0.637800	0.236700
H801	H80	0.545300	0.640400	0.162500
C11	C1	0.982860	0.679720	0.012000
C21	C2	0.889540	0.616480	0.999900
C31	C3	0.920400	0.563400	0.959600
C41	C4	0.042620	0.580440	0.931500
C51	C5	0.129930	0.643860	0.946900
C61	C6	0.607100	0.414600	0.942000
C71	C7	0.684970	0.480340	0.955500
C81	C8	0.827560	0.494120	0.944000
C91	C9	0.882240	0.437280	0.918900
C101	C10	0.791660	0.373320	0.907000
C111	C11	0.031220	0.870040	0.025500
C121	C12	0.971520	0.922440	0.026500
C131	C13	0.029560	0.968720	0.999400
C141	C14	0.141900	0.958000	0.969500
C151	C15	0.201500	0.904200	0.972300
C161	C16	0.792700	0.781400	0.896500
C171	C17	0.890550	0.788700	0.856700
C181	C18	0.933520	0.731440	0.826900
C191	C19	0.877700	0.671400	0.840200
C201	C20	0.779000	0.669600	0.880200
C211	C21	0.200000	0.790800	0.728100
C221	C22	0.127130	0.792060	0.775300
C231	C23	0.025880	0.733960	0.780300
C241	C24	0.014200	0.678200	0.736400
C251	C25	0.100200	0.680600	0.690200
C261	C26	0.411400	0.556200	0.913400
C271	C27	0.303140	0.320280	0.488000
C281	C28	0.273060	0.383520	0.500100
C291	C29	0.357000	0.436600	0.540400
C301	C30	0.462180	0.419560	0.568500
C311	C31	0.486070	0.356140	0.553100
C321	C32	0.192500	0.585400	0.558000
C331	C33	0.204630	0.519660	0.544500
C341	C34	0.333440	0.505880	0.556000
C351	C35	0.444960	0.562720	0.581100
C361	C36	0.418340	0.626680	0.593000
C371	C37	0.161180	0.129960	0.474500
C381	C38	0.049080	0.077560	0.473500
C391	C39	0.060840	0.031280	0.500600
C401	C40	0.183900	0.042000	0.530500
C411	C41	0.297300	0.095800	0.527700
C421	C42	0.011300	0.218600	0.603500
C431	C43	0.101850	0.211300	0.643300
C441	C44	0.202080	0.268560	0.673100
C451	C45	0.206300	0.328600	0.659800
C461	C46	0.109400	0.330400	0.619800
C471	C47	0.409200	0.209200	0.771900
C481	C48	0.335070	0.207940	0.724700
C491	C49	0.291920	0.266040	0.719700
C501	C50	0.336000	0.321800	0.763600
C511	C51	0.419600	0.319400	0.809800
C521	C52	0.855200	0.443800	0.586600
C531	C53	0.017140	0.320280	0.988000
C541	C54	0.110460	0.383520	0.000100
C551	C55	0.079600	0.436600	0.040400
C561	C56	0.957380	0.419560	0.068500
C571	C57	0.870070	0.356140	0.053100
C581	C58	0.392900	0.585400	0.058000
C591	C59	0.315030	0.519660	0.044500
C601	C60	0.172440	0.505880	0.056000
C611	C61	0.117760	0.562720	0.081100
C621	C62	0.208340	0.626680	0.093000
C631	C63	0.968780	0.129960	0.974500
C641	C64	0.028480	0.077560	0.973500
C651	C65	0.970440	0.031280	0.000600
C661	C66	0.858100	0.042000	0.030500
C671	C67	0.798500	0.095800	0.027700
C681	C68	0.207300	0.218600	0.103500
C691	C69	0.109450	0.211300	0.143300
C701	C70	0.066480	0.268560	0.173100
C711	C71	0.122300	0.328600	0.159800
C721	C72	0.221000	0.330400	0.119800
C731	C73	0.800000	0.209200	0.271900
C741	C74	0.872870	0.207940	0.224700
C751	C75	0.974120	0.266040	0.219700
C761	C76	0.985800	0.321800	0.263600
C771	C77	0.899800	0.319400	0.309800
C781	C78	0.588600	0.443800	0.086600
C791	C79	0.696860	0.679720	0.512000
C801	C80	0.726940	0.616480	0.499900
C811	C81	0.643000	0.563400	0.459600
C821	C82	0.537820	0.580440	0.431500
C831	C83	0.513930	0.643860	0.446900
C841	C84	0.807500	0.414600	0.442000
C851	C85	0.795370	0.480340	0.455500
C861	C86	0.666560	0.494120	0.444000
C871	C87	0.555040	0.437280	0.418900
C881	C88	0.581660	0.373320	0.407000
C891	C89	0.838820	0.870040	0.525500
C901	C90	0.950920	0.922440	0.526500
C911	C91	0.939160	0.968720	0.499400
C921	C92	0.816100	0.958000	0.469500
C931	C93	0.702700	0.904200	0.472300
C941	C94	0.988700	0.781400	0.396500
C951	C95	0.898150	0.788700	0.356700
C961	C96	0.797920	0.731440	0.326900
C971	C97	0.793700	0.671400	0.340200
C981	C98	0.890600	0.669600	0.380200
C991	C99	0.590800	0.790800	0.228100
C1001	C100	0.664930	0.792060	0.275300
C1011	C101	0.708080	0.733960	0.280300
C1021	C102	0.664000	0.678200	0.236400
C1031	C103	0.580400	0.680600	0.190200
C1041	C104	0.144800	0.556200	0.413400
S11	S1	0.433040	0.785340	0.951460
S21	S2	0.659940	0.747400	0.051450
S31	S3	0.352300	0.815720	0.099390
S41	S4	0.319090	0.478180	0.888750
S51	S5	0.647700	0.214660	0.548540
S61	S6	0.912540	0.252600	0.448550
S71	S7	0.536580	0.184280	0.400610
S81	S8	0.840910	0.521820	0.611250
S91	S9	0.566960	0.214660	0.048540
S101	S10	0.340060	0.252600	0.948550
S111	S11	0.647700	0.184280	0.900610
S121	S12	0.680910	0.521820	0.111250
S131	S13	0.352300	0.785340	0.451460
S141	S14	0.087460	0.747400	0.551450
S151	S15	0.463420	0.815720	0.599390
S161	S16	0.159090	0.478180	0.388750
N11	N1	0.103170	0.694540	0.987900
N21	N2	0.656080	0.361160	0.917000
N31	N3	0.148500	0.859600	0.001500
N41	N4	0.736710	0.723620	0.908800
N51	N5	0.187250	0.737500	0.685000
N61	N6	0.478910	0.610220	0.930500
N71	N7	0.408630	0.305460	0.512100
N81	N8	0.294920	0.638840	0.583000
N91	N9	0.288900	0.140400	0.498500
N101	N10	0.013090	0.276380	0.591200
N111	N11	0.449750	0.262500	0.815000
N121	N12	0.868690	0.389780	0.569500
N131	N13	0.896830	0.305460	0.012100
N141	N14	0.343920	0.638840	0.083000
N151	N15	0.851500	0.140400	0.998500
N161	N16	0.263290	0.276380	0.091200
N171	N17	0.812750	0.262500	0.315000
N181	N18	0.521090	0.389780	0.069500
N191	N19	0.591370	0.694540	0.487900
N201	N20	0.705080	0.361160	0.417000
N211	N21	0.711100	0.859600	0.501500
N221	N22	0.986910	0.723620	0.408800
N231	N23	0.550250	0.737500	0.185000
N241	N24	0.131310	0.610220	0.430500
