data_MATWUC_clean_PM
_symmetry_space_group_name_H-M	'P1'
_cell_length_a	18.898400
_cell_length_b	17.703100
_cell_length_c	14.475400
_cell_angle_alpha	90.000000
_cell_angle_beta	96.602000
_cell_angle_gamma	90.000000
_symmetry_Int_Tables_number 1

loop_
_symmetry_equiv_pos_as_xyz
'x,y,z'

loop_
_atom_site_label
_atom_site_type_symbol
_atom_site_fract_x
_atom_site_fract_y
_atom_site_fract_z
Zn11	Zn1	0.290210	0.247160	0.073970
Zn21	Zn2	0.165590	0.311710	0.883140
O11	O1	0.901500	0.334400	0.229700
O21	O2	0.965300	0.323000	0.115700
O31	O3	0.253920	0.311400	0.819700
O41	O4	0.323500	0.306400	0.955600
O51	O5	0.626900	0.277000	0.843600
O61	O6	0.570600	0.192900	0.920800
O71	O7	0.182200	0.402400	0.963000
O81	O8	0.212280	0.322100	0.078700
O91	O9	0.243500	0.666200	0.008600
O101	O10	0.341200	0.700200	0.097300
N11	N1	0.412600	0.417400	0.450300
N21	N2	0.322500	0.362300	0.532600
N31	N3	0.292700	0.412800	0.378400
N41	N4	0.441400	0.372000	0.596000
N51	N5	0.380900	0.469700	0.309900
N61	N6	0.208400	0.353400	0.463500
C11	C1	0.149900	0.352500	0.394300
C21	C2	0.154100	0.350200	0.300600
H11	H1	0.198300	0.350600	0.278400
C31	C3	0.093300	0.347400	0.239300
H21	H2	0.097800	0.349000	0.176100
C41	C4	0.027600	0.342500	0.265300
C51	C5	0.021300	0.355500	0.363400
H31	H3	0.977300	0.361900	0.385200
C61	C6	0.083400	0.357700	0.421500
H41	H4	0.080100	0.363100	0.484800
C71	C7	0.962100	0.333600	0.200300
C81	C8	0.437800	0.338200	0.683400
C91	C9	0.377200	0.336900	0.728200
H51	H5	0.334800	0.356500	0.698800
C101	C10	0.379200	0.305900	0.819000
C111	C11	0.441200	0.273800	0.860400
H61	H6	0.442000	0.250300	0.918000
C121	C12	0.501700	0.276400	0.816800
C131	C13	0.500900	0.310200	0.727400
H71	H7	0.542500	0.313400	0.699000
C141	C14	0.314000	0.306300	0.868400
C151	C15	0.571000	0.246600	0.863700
C161	C16	0.336900	0.487900	0.224300
C171	C17	0.295100	0.431100	0.178800
H81	H8	0.294500	0.382700	0.203900
C181	C18	0.254300	0.448200	0.095400
C191	C19	0.254200	0.520200	0.058500
H91	H9	0.226000	0.531500	0.003300
C201	C20	0.297300	0.576200	0.105800
C211	C21	0.338400	0.558500	0.188800
H101	H10	0.367000	0.595300	0.220100
C221	C22	0.213000	0.387400	0.044100
C231	C23	0.294300	0.653800	0.066500
C241	C24	0.278000	0.376600	0.455100
C251	C25	0.388100	0.385700	0.524900
C261	C26	0.359700	0.431500	0.380700
Zn31	Zn3	0.790210	0.747160	0.073970
Zn41	Zn4	0.665590	0.811710	0.883140
O111	O11	0.401500	0.834400	0.229700
O121	O12	0.465300	0.823000	0.115700
O131	O13	0.753920	0.811400	0.819700
O141	O14	0.823500	0.806400	0.955600
O151	O15	0.126900	0.777000	0.843600
O161	O16	0.070600	0.692900	0.920800
O171	O17	0.682200	0.902400	0.963000
O181	O18	0.712280	0.822100	0.078700
O191	O19	0.743500	0.166200	0.008600
O201	O20	0.841200	0.200200	0.097300
N71	N7	0.912600	0.917400	0.450300
N81	N8	0.822500	0.862300	0.532600
N91	N9	0.792700	0.912800	0.378400
N101	N10	0.941400	0.872000	0.596000
N111	N11	0.880900	0.969700	0.309900
N121	N12	0.708400	0.853400	0.463500
C271	C27	0.649900	0.852500	0.394300
C281	C28	0.654100	0.850200	0.300600
H111	H11	0.698300	0.850600	0.278400
C291	C29	0.593300	0.847400	0.239300
H121	H12	0.597800	0.849000	0.176100
C301	C30	0.527600	0.842500	0.265300
C311	C31	0.521300	0.855500	0.363400
H131	H13	0.477300	0.861900	0.385200
C321	C32	0.583400	0.857700	0.421500
H141	H14	0.580100	0.863100	0.484800
C331	C33	0.462100	0.833600	0.200300
C341	C34	0.937800	0.838200	0.683400
C351	C35	0.877200	0.836900	0.728200
H151	H15	0.834800	0.856500	0.698800
C361	C36	0.879200	0.805900	0.819000
C371	C37	0.941200	0.773800	0.860400
H161	H16	0.942000	0.750300	0.918000
C381	C38	0.001700	0.776400	0.816800
C391	C39	0.000900	0.810200	0.727400
H171	H17	0.042500	0.813400	0.699000
C401	C40	0.814000	0.806300	0.868400
C411	C41	0.071000	0.746600	0.863700
C421	C42	0.836900	0.987900	0.224300
C431	C43	0.795100	0.931100	0.178800
H181	H18	0.794500	0.882700	0.203900
C441	C44	0.754300	0.948200	0.095400
C451	C45	0.754200	0.020200	0.058500
H191	H19	0.726000	0.031500	0.003300
C461	C46	0.797300	0.076200	0.105800
C471	C47	0.838400	0.058500	0.188800
H201	H20	0.867000	0.095300	0.220100
C481	C48	0.713000	0.887400	0.044100
C491	C49	0.794300	0.153800	0.066500
C501	C50	0.778000	0.876600	0.455100
C511	C51	0.888100	0.885700	0.524900
C521	C52	0.859700	0.931500	0.380700
Zn51	Zn5	0.709790	0.247160	0.926030
Zn61	Zn6	0.834410	0.311710	0.116860
O211	O21	0.098500	0.334400	0.770300
O221	O22	0.034700	0.323000	0.884300
O231	O23	0.746080	0.311400	0.180300
O241	O24	0.676500	0.306400	0.044400
O251	O25	0.373100	0.277000	0.156400
O261	O26	0.429400	0.192900	0.079200
O271	O27	0.817800	0.402400	0.037000
O281	O28	0.787720	0.322100	0.921300
O291	O29	0.756500	0.666200	0.991400
O301	O30	0.658800	0.700200	0.902700
N131	N13	0.587400	0.417400	0.549700
N141	N14	0.677500	0.362300	0.467400
N151	N15	0.707300	0.412800	0.621600
N161	N16	0.558600	0.372000	0.404000
N171	N17	0.619100	0.469700	0.690100
N181	N18	0.791600	0.353400	0.536500
C531	C53	0.850100	0.352500	0.605700
C541	C54	0.845900	0.350200	0.699400
H211	H21	0.801700	0.350600	0.721600
C551	C55	0.906700	0.347400	0.760700
H221	H22	0.902200	0.349000	0.823900
C561	C56	0.972400	0.342500	0.734700
C571	C57	0.978700	0.355500	0.636600
H231	H23	0.022700	0.361900	0.614800
C581	C58	0.916600	0.357700	0.578500
H241	H24	0.919900	0.363100	0.515200
C591	C59	0.037900	0.333600	0.799700
C601	C60	0.562200	0.338200	0.316600
C611	C61	0.622800	0.336900	0.271800
H251	H25	0.665200	0.356500	0.301200
C621	C62	0.620800	0.305900	0.181000
C631	C63	0.558800	0.273800	0.139600
H261	H26	0.558000	0.250300	0.082000
C641	C64	0.498300	0.276400	0.183200
C651	C65	0.499100	0.310200	0.272600
H271	H27	0.457500	0.313400	0.301000
C661	C66	0.686000	0.306300	0.131600
C671	C67	0.429000	0.246600	0.136300
C681	C68	0.663100	0.487900	0.775700
C691	C69	0.704900	0.431100	0.821200
H281	H28	0.705500	0.382700	0.796100
C701	C70	0.745700	0.448200	0.904600
C711	C71	0.745800	0.520200	0.941500
H291	H29	0.774000	0.531500	0.996700
C721	C72	0.702700	0.576200	0.894200
C731	C73	0.661600	0.558500	0.811200
H301	H30	0.633000	0.595300	0.779900
C741	C74	0.787000	0.387400	0.955900
C751	C75	0.705700	0.653800	0.933500
C761	C76	0.722000	0.376600	0.544900
C771	C77	0.611900	0.385700	0.475100
C781	C78	0.640300	0.431500	0.619300
Zn71	Zn7	0.209790	0.747160	0.926030
Zn81	Zn8	0.334410	0.811710	0.116860
O311	O31	0.598500	0.834400	0.770300
O321	O32	0.534700	0.823000	0.884300
O331	O33	0.246080	0.811400	0.180300
O341	O34	0.176500	0.806400	0.044400
O351	O35	0.873100	0.777000	0.156400
O361	O36	0.929400	0.692900	0.079200
O371	O37	0.317800	0.902400	0.037000
O381	O38	0.287720	0.822100	0.921300
O391	O39	0.256500	0.166200	0.991400
O401	O40	0.158800	0.200200	0.902700
N191	N19	0.087400	0.917400	0.549700
N201	N20	0.177500	0.862300	0.467400
N211	N21	0.207300	0.912800	0.621600
N221	N22	0.058600	0.872000	0.404000
N231	N23	0.119100	0.969700	0.690100
N241	N24	0.291600	0.853400	0.536500
C791	C79	0.350100	0.852500	0.605700
C801	C80	0.345900	0.850200	0.699400
H311	H31	0.301700	0.850600	0.721600
C811	C81	0.406700	0.847400	0.760700
H321	H32	0.402200	0.849000	0.823900
C821	C82	0.472400	0.842500	0.734700
C831	C83	0.478700	0.855500	0.636600
H331	H33	0.522700	0.861900	0.614800
C841	C84	0.416600	0.857700	0.578500
H341	H34	0.419900	0.863100	0.515200
C851	C85	0.537900	0.833600	0.799700
C861	C86	0.062200	0.838200	0.316600
C871	C87	0.122800	0.836900	0.271800
H351	H35	0.165200	0.856500	0.301200
C881	C88	0.120800	0.805900	0.181000
C891	C89	0.058800	0.773800	0.139600
H361	H36	0.058000	0.750300	0.082000
C901	C90	0.998300	0.776400	0.183200
C911	C91	0.999100	0.810200	0.272600
H371	H37	0.957500	0.813400	0.301000
C921	C92	0.186000	0.806300	0.131600
C931	C93	0.929000	0.746600	0.136300
C941	C94	0.163100	0.987900	0.775700
C951	C95	0.204900	0.931100	0.821200
H381	H38	0.205500	0.882700	0.796100
C961	C96	0.245700	0.948200	0.904600
C971	C97	0.245800	0.020200	0.941500
H391	H39	0.274000	0.031500	0.996700
C981	C98	0.202700	0.076200	0.894200
C991	C99	0.161600	0.058500	0.811200
H401	H40	0.133000	0.095300	0.779900
C1001	C100	0.287000	0.887400	0.955900
C1011	C101	0.205700	0.153800	0.933500
C1021	C102	0.222000	0.876600	0.544900
C1031	C103	0.111900	0.885700	0.475100
C1041	C104	0.140300	0.931500	0.619300
