data_MATXAJ_clean_PM
_symmetry_space_group_name_H-M	'P1'
_cell_length_a	31.855000
_cell_length_b	17.268000
_cell_length_c	30.293000
_cell_angle_alpha	90.000000
_cell_angle_beta	116.250000
_cell_angle_gamma	90.000000
_symmetry_Int_Tables_number 1

loop_
_symmetry_equiv_pos_as_xyz
'x,y,z'

loop_
_atom_site_label
_atom_site_type_symbol
_atom_site_fract_x
_atom_site_fract_y
_atom_site_fract_z
Zn11	Zn1	0.896420	0.498960	0.017220
Zn21	Zn2	0.866150	0.343630	0.069060
O11	O1	0.423900	0.109800	0.546200
O21	O2	0.434680	0.189800	0.602820
O31	O3	0.612800	0.101500	0.530000
O41	O4	0.559600	0.013800	0.519100
O51	O5	0.635200	0.221300	0.839530
O61	O6	0.673400	0.231500	0.921600
O71	O7	0.822300	0.358300	0.999820
O81	O8	0.847100	0.442500	0.958720
O91	O9	0.860200	0.559600	0.600510
O101	O10	0.850400	0.472500	0.543100
N11	N1	0.662000	0.290000	0.646700
N21	N2	0.671600	0.322900	0.726820
N31	N3	0.728700	0.361600	0.702060
N41	N4	0.606900	0.259900	0.673990
H11	H1	0.597500	0.270300	0.695900
N51	N5	0.740300	0.380200	0.781070
H21	H2	0.761200	0.413400	0.783000
N61	N6	0.714500	0.329200	0.620900
H31	H3	0.697800	0.300800	0.595900
C11	C1	0.647100	0.289500	0.681800
C21	C2	0.701500	0.324900	0.658100
C31	C3	0.710300	0.352500	0.734900
C41	C4	0.576000	0.212300	0.634200
C51	C5	0.531500	0.202600	0.627500
H41	H4	0.521200	0.229000	0.647700
C61	C6	0.500400	0.153100	0.590500
C71	C7	0.517500	0.115200	0.561000
H51	H5	0.497800	0.082800	0.535800
C81	C8	0.560900	0.124900	0.568400
C91	C9	0.593200	0.174900	0.605000
H61	H6	0.623700	0.181900	0.609000
C101	C10	0.579200	0.075200	0.537600
C111	C11	0.450200	0.139400	0.580600
C121	C12	0.738800	0.357500	0.825400
C131	C13	0.703700	0.316100	0.829500
H71	H7	0.677900	0.300700	0.801000
C141	C14	0.705700	0.296700	0.875000
C151	C15	0.669700	0.247100	0.878200
C161	C16	0.742800	0.321900	0.917500
H81	H8	0.744400	0.309900	0.948100
C171	C17	0.778100	0.366100	0.913800
C181	C18	0.820600	0.391500	0.960700
C191	C19	0.777200	0.382900	0.868900
H91	H9	0.801500	0.410700	0.867300
C201	C20	0.748500	0.369400	0.615500
C211	C21	0.774200	0.432800	0.644000
H101	H10	0.769700	0.449200	0.670900
C221	C22	0.805200	0.469800	0.632300
H111	H11	0.822500	0.510500	0.652100
C231	C23	0.812200	0.448700	0.591200
C241	C24	0.790100	0.384900	0.565900
H121	H12	0.796300	0.367700	0.540300
C251	C25	0.759500	0.345400	0.576600
H131	H13	0.745000	0.301600	0.558400
C261	C26	0.843400	0.502300	0.576700
Zn31	Zn3	0.396420	0.998960	0.017220
Zn41	Zn4	0.366150	0.843630	0.069060
O111	O11	0.923900	0.609800	0.546200
O121	O12	0.934680	0.689800	0.602820
O131	O13	0.112800	0.601500	0.530000
O141	O14	0.059600	0.513800	0.519100
O151	O15	0.135200	0.721300	0.839530
O161	O16	0.173400	0.731500	0.921600
O171	O17	0.322300	0.858300	0.999820
O181	O18	0.347100	0.942500	0.958720
O191	O19	0.360200	0.059600	0.600510
O201	O20	0.350400	0.972500	0.543100
N71	N7	0.162000	0.790000	0.646700
N81	N8	0.171600	0.822900	0.726820
N91	N9	0.228700	0.861600	0.702060
N101	N10	0.106900	0.759900	0.673990
H141	H14	0.097500	0.770300	0.695900
N111	N11	0.240300	0.880200	0.781070
H151	H15	0.261200	0.913400	0.783000
N121	N12	0.214500	0.829200	0.620900
H161	H16	0.197800	0.800800	0.595900
C271	C27	0.147100	0.789500	0.681800
C281	C28	0.201500	0.824900	0.658100
C291	C29	0.210300	0.852500	0.734900
C301	C30	0.076000	0.712300	0.634200
C311	C31	0.031500	0.702600	0.627500
H171	H17	0.021200	0.729000	0.647700
C321	C32	0.000400	0.653100	0.590500
C331	C33	0.017500	0.615200	0.561000
H181	H18	0.997800	0.582800	0.535800
C341	C34	0.060900	0.624900	0.568400
C351	C35	0.093200	0.674900	0.605000
H191	H19	0.123700	0.681900	0.609000
C361	C36	0.079200	0.575200	0.537600
C371	C37	0.950200	0.639400	0.580600
C381	C38	0.238800	0.857500	0.825400
C391	C39	0.203700	0.816100	0.829500
H201	H20	0.177900	0.800700	0.801000
C401	C40	0.205700	0.796700	0.875000
C411	C41	0.169700	0.747100	0.878200
C421	C42	0.242800	0.821900	0.917500
H211	H21	0.244400	0.809900	0.948100
C431	C43	0.278100	0.866100	0.913800
C441	C44	0.320600	0.891500	0.960700
C451	C45	0.277200	0.882900	0.868900
H221	H22	0.301500	0.910700	0.867300
C461	C46	0.248500	0.869400	0.615500
C471	C47	0.274200	0.932800	0.644000
H231	H23	0.269700	0.949200	0.670900
C481	C48	0.305200	0.969800	0.632300
H241	H24	0.322500	0.010500	0.652100
C491	C49	0.312200	0.948700	0.591200
C501	C50	0.290100	0.884900	0.565900
H251	H25	0.296300	0.867700	0.540300
C511	C51	0.259500	0.845400	0.576600
H261	H26	0.245000	0.801600	0.558400
C521	C52	0.343400	0.002300	0.576700
Zn51	Zn5	0.103580	0.498960	0.482780
Zn61	Zn6	0.133850	0.343630	0.430940
O211	O21	0.576100	0.109800	0.953800
O221	O22	0.565320	0.189800	0.897180
O231	O23	0.387200	0.101500	0.970000
O241	O24	0.440400	0.013800	0.980900
O251	O25	0.364800	0.221300	0.660470
O261	O26	0.326600	0.231500	0.578400
O271	O27	0.177700	0.358300	0.500180
O281	O28	0.152900	0.442500	0.541280
O291	O29	0.139800	0.559600	0.899490
O301	O30	0.149600	0.472500	0.956900
N131	N13	0.338000	0.290000	0.853300
N141	N14	0.328400	0.322900	0.773180
N151	N15	0.271300	0.361600	0.797940
N161	N16	0.393100	0.259900	0.826010
H271	H27	0.402500	0.270300	0.804100
N171	N17	0.259700	0.380200	0.718930
H281	H28	0.238800	0.413400	0.717000
N181	N18	0.285500	0.329200	0.879100
H291	H29	0.302200	0.300800	0.904100
C531	C53	0.352900	0.289500	0.818200
C541	C54	0.298500	0.324900	0.841900
C551	C55	0.289700	0.352500	0.765100
C561	C56	0.424000	0.212300	0.865800
C571	C57	0.468500	0.202600	0.872500
H301	H30	0.478800	0.229000	0.852300
C581	C58	0.499600	0.153100	0.909500
C591	C59	0.482500	0.115200	0.939000
H311	H31	0.502200	0.082800	0.964200
C601	C60	0.439100	0.124900	0.931600
C611	C61	0.406800	0.174900	0.895000
H321	H32	0.376300	0.181900	0.891000
C621	C62	0.420800	0.075200	0.962400
C631	C63	0.549800	0.139400	0.919400
C641	C64	0.261200	0.357500	0.674600
C651	C65	0.296300	0.316100	0.670500
H331	H33	0.322100	0.300700	0.699000
C661	C66	0.294300	0.296700	0.625000
C671	C67	0.330300	0.247100	0.621800
C681	C68	0.257200	0.321900	0.582500
H341	H34	0.255600	0.309900	0.551900
C691	C69	0.221900	0.366100	0.586200
C701	C70	0.179400	0.391500	0.539300
C711	C71	0.222800	0.382900	0.631100
H351	H35	0.198500	0.410700	0.632700
C721	C72	0.251500	0.369400	0.884500
C731	C73	0.225800	0.432800	0.856000
H361	H36	0.230300	0.449200	0.829100
C741	C74	0.194800	0.469800	0.867700
H371	H37	0.177500	0.510500	0.847900
C751	C75	0.187800	0.448700	0.908800
C761	C76	0.209900	0.384900	0.934100
H381	H38	0.203700	0.367700	0.959700
C771	C77	0.240500	0.345400	0.923400
H391	H39	0.255000	0.301600	0.941600
C781	C78	0.156600	0.502300	0.923300
Zn71	Zn7	0.603580	0.998960	0.482780
Zn81	Zn8	0.633850	0.843630	0.430940
O311	O31	0.076100	0.609800	0.953800
O321	O32	0.065320	0.689800	0.897180
O331	O33	0.887200	0.601500	0.970000
O341	O34	0.940400	0.513800	0.980900
O351	O35	0.864800	0.721300	0.660470
O361	O36	0.826600	0.731500	0.578400
O371	O37	0.677700	0.858300	0.500180
O381	O38	0.652900	0.942500	0.541280
O391	O39	0.639800	0.059600	0.899490
O401	O40	0.649600	0.972500	0.956900
N191	N19	0.838000	0.790000	0.853300
N201	N20	0.828400	0.822900	0.773180
N211	N21	0.771300	0.861600	0.797940
N221	N22	0.893100	0.759900	0.826010
H401	H40	0.902500	0.770300	0.804100
N231	N23	0.759700	0.880200	0.718930
H411	H41	0.738800	0.913400	0.717000
N241	N24	0.785500	0.829200	0.879100
H421	H42	0.802200	0.800800	0.904100
C791	C79	0.852900	0.789500	0.818200
C801	C80	0.798500	0.824900	0.841900
C811	C81	0.789700	0.852500	0.765100
C821	C82	0.924000	0.712300	0.865800
C831	C83	0.968500	0.702600	0.872500
H431	H43	0.978800	0.729000	0.852300
C841	C84	0.999600	0.653100	0.909500
C851	C85	0.982500	0.615200	0.939000
H441	H44	0.002200	0.582800	0.964200
C861	C86	0.939100	0.624900	0.931600
C871	C87	0.906800	0.674900	0.895000
H451	H45	0.876300	0.681900	0.891000
C881	C88	0.920800	0.575200	0.962400
C891	C89	0.049800	0.639400	0.919400
C901	C90	0.761200	0.857500	0.674600
C911	C91	0.796300	0.816100	0.670500
H461	H46	0.822100	0.800700	0.699000
C921	C92	0.794300	0.796700	0.625000
C931	C93	0.830300	0.747100	0.621800
C941	C94	0.757200	0.821900	0.582500
H471	H47	0.755600	0.809900	0.551900
C951	C95	0.721900	0.866100	0.586200
C961	C96	0.679400	0.891500	0.539300
C971	C97	0.722800	0.882900	0.631100
H481	H48	0.698500	0.910700	0.632700
C981	C98	0.751500	0.869400	0.884500
C991	C99	0.725800	0.932800	0.856000
H491	H49	0.730300	0.949200	0.829100
C1001	C100	0.694800	0.969800	0.867700
H501	H50	0.677500	0.010500	0.847900
C1011	C101	0.687800	0.948700	0.908800
C1021	C102	0.709900	0.884900	0.934100
H511	H51	0.703700	0.867700	0.959700
C1031	C103	0.740500	0.845400	0.923400
H521	H52	0.755000	0.801600	0.941600
C1041	C104	0.656600	0.002300	0.923300
Zn91	Zn9	0.103580	0.501040	0.982780
Zn101	Zn10	0.133850	0.656370	0.930940
O411	O41	0.576100	0.890200	0.453800
O421	O42	0.565320	0.810200	0.397180
O431	O43	0.387200	0.898500	0.470000
O441	O44	0.440400	0.986200	0.480900
O451	O45	0.364800	0.778700	0.160470
O461	O46	0.326600	0.768500	0.078400
O471	O47	0.177700	0.641700	0.000180
O481	O48	0.152900	0.557500	0.041280
O491	O49	0.139800	0.440400	0.399490
O501	O50	0.149600	0.527500	0.456900
N251	N25	0.338000	0.710000	0.353300
N261	N26	0.328400	0.677100	0.273180
N271	N27	0.271300	0.638400	0.297940
N281	N28	0.393100	0.740100	0.326010
H531	H53	0.402500	0.729700	0.304100
N291	N29	0.259700	0.619800	0.218930
H541	H54	0.238800	0.586600	0.217000
N301	N30	0.285500	0.670800	0.379100
H551	H55	0.302200	0.699200	0.404100
C1051	C105	0.352900	0.710500	0.318200
C1061	C106	0.298500	0.675100	0.341900
C1071	C107	0.289700	0.647500	0.265100
C1081	C108	0.424000	0.787700	0.365800
C1091	C109	0.468500	0.797400	0.372500
H561	H56	0.478800	0.771000	0.352300
C1101	C110	0.499600	0.846900	0.409500
C1111	C111	0.482500	0.884800	0.439000
H571	H57	0.502200	0.917200	0.464200
C1121	C112	0.439100	0.875100	0.431600
C1131	C113	0.406800	0.825100	0.395000
H581	H58	0.376300	0.818100	0.391000
C1141	C114	0.420800	0.924800	0.462400
C1151	C115	0.549800	0.860600	0.419400
C1161	C116	0.261200	0.642500	0.174600
C1171	C117	0.296300	0.683900	0.170500
H591	H59	0.322100	0.699300	0.199000
C1181	C118	0.294300	0.703300	0.125000
C1191	C119	0.330300	0.752900	0.121800
C1201	C120	0.257200	0.678100	0.082500
H601	H60	0.255600	0.690100	0.051900
C1211	C121	0.221900	0.633900	0.086200
C1221	C122	0.179400	0.608500	0.039300
C1231	C123	0.222800	0.617100	0.131100
H611	H61	0.198500	0.589300	0.132700
C1241	C124	0.251500	0.630600	0.384500
C1251	C125	0.225800	0.567200	0.356000
H621	H62	0.230300	0.550800	0.329100
C1261	C126	0.194800	0.530200	0.367700
H631	H63	0.177500	0.489500	0.347900
C1271	C127	0.187800	0.551300	0.408800
C1281	C128	0.209900	0.615100	0.434100
H641	H64	0.203700	0.632300	0.459700
C1291	C129	0.240500	0.654600	0.423400
H651	H65	0.255000	0.698400	0.441600
C1301	C130	0.156600	0.497700	0.423300
Zn111	Zn11	0.603580	0.001040	0.982780
Zn121	Zn12	0.633850	0.156370	0.930940
O511	O51	0.076100	0.390200	0.453800
O521	O52	0.065320	0.310200	0.397180
O531	O53	0.887200	0.398500	0.470000
O541	O54	0.940400	0.486200	0.480900
O551	O55	0.864800	0.278700	0.160470
O561	O56	0.826600	0.268500	0.078400
O571	O57	0.677700	0.141700	0.000180
O581	O58	0.652900	0.057500	0.041280
O591	O59	0.639800	0.940400	0.399490
O601	O60	0.649600	0.027500	0.456900
N311	N31	0.838000	0.210000	0.353300
N321	N32	0.828400	0.177100	0.273180
N331	N33	0.771300	0.138400	0.297940
N341	N34	0.893100	0.240100	0.326010
H661	H66	0.902500	0.229700	0.304100
N351	N35	0.759700	0.119800	0.218930
H671	H67	0.738800	0.086600	0.217000
N361	N36	0.785500	0.170800	0.379100
H681	H68	0.802200	0.199200	0.404100
C1311	C131	0.852900	0.210500	0.318200
C1321	C132	0.798500	0.175100	0.341900
C1331	C133	0.789700	0.147500	0.265100
C1341	C134	0.924000	0.287700	0.365800
C1351	C135	0.968500	0.297400	0.372500
H691	H69	0.978800	0.271000	0.352300
C1361	C136	0.999600	0.346900	0.409500
C1371	C137	0.982500	0.384800	0.439000
H701	H70	0.002200	0.417200	0.464200
C1381	C138	0.939100	0.375100	0.431600
C1391	C139	0.906800	0.325100	0.395000
H711	H71	0.876300	0.318100	0.391000
C1401	C140	0.920800	0.424800	0.462400
C1411	C141	0.049800	0.360600	0.419400
C1421	C142	0.761200	0.142500	0.174600
C1431	C143	0.796300	0.183900	0.170500
H721	H72	0.822100	0.199300	0.199000
C1441	C144	0.794300	0.203300	0.125000
C1451	C145	0.830300	0.252900	0.121800
C1461	C146	0.757200	0.178100	0.082500
H731	H73	0.755600	0.190100	0.051900
C1471	C147	0.721900	0.133900	0.086200
C1481	C148	0.679400	0.108500	0.039300
C1491	C149	0.722800	0.117100	0.131100
H741	H74	0.698500	0.089300	0.132700
C1501	C150	0.751500	0.130600	0.384500
C1511	C151	0.725800	0.067200	0.356000
H751	H75	0.730300	0.050800	0.329100
C1521	C152	0.694800	0.030200	0.367700
H761	H76	0.677500	0.989500	0.347900
C1531	C153	0.687800	0.051300	0.408800
C1541	C154	0.709900	0.115100	0.434100
H771	H77	0.703700	0.132300	0.459700
C1551	C155	0.740500	0.154600	0.423400
H781	H78	0.755000	0.198400	0.441600
C1561	C156	0.656600	0.997700	0.423300
Zn131	Zn13	0.896420	0.501040	0.517220
Zn141	Zn14	0.866150	0.656370	0.569060
O611	O61	0.423900	0.890200	0.046200
O621	O62	0.434680	0.810200	0.102820
O631	O63	0.612800	0.898500	0.030000
O641	O64	0.559600	0.986200	0.019100
O651	O65	0.635200	0.778700	0.339530
O661	O66	0.673400	0.768500	0.421600
O671	O67	0.822300	0.641700	0.499820
O681	O68	0.847100	0.557500	0.458720
O691	O69	0.860200	0.440400	0.100510
O701	O70	0.850400	0.527500	0.043100
N371	N37	0.662000	0.710000	0.146700
N381	N38	0.671600	0.677100	0.226820
N391	N39	0.728700	0.638400	0.202060
N401	N40	0.606900	0.740100	0.173990
H791	H79	0.597500	0.729700	0.195900
N411	N41	0.740300	0.619800	0.281070
H801	H80	0.761200	0.586600	0.283000
N421	N42	0.714500	0.670800	0.120900
H811	H81	0.697800	0.699200	0.095900
C1571	C157	0.647100	0.710500	0.181800
C1581	C158	0.701500	0.675100	0.158100
C1591	C159	0.710300	0.647500	0.234900
C1601	C160	0.576000	0.787700	0.134200
C1611	C161	0.531500	0.797400	0.127500
H821	H82	0.521200	0.771000	0.147700
C1621	C162	0.500400	0.846900	0.090500
C1631	C163	0.517500	0.884800	0.061000
H831	H83	0.497800	0.917200	0.035800
C1641	C164	0.560900	0.875100	0.068400
C1651	C165	0.593200	0.825100	0.105000
H841	H84	0.623700	0.818100	0.109000
C1661	C166	0.579200	0.924800	0.037600
C1671	C167	0.450200	0.860600	0.080600
C1681	C168	0.738800	0.642500	0.325400
C1691	C169	0.703700	0.683900	0.329500
H851	H85	0.677900	0.699300	0.301000
C1701	C170	0.705700	0.703300	0.375000
C1711	C171	0.669700	0.752900	0.378200
C1721	C172	0.742800	0.678100	0.417500
H861	H86	0.744400	0.690100	0.448100
C1731	C173	0.778100	0.633900	0.413800
C1741	C174	0.820600	0.608500	0.460700
C1751	C175	0.777200	0.617100	0.368900
H871	H87	0.801500	0.589300	0.367300
C1761	C176	0.748500	0.630600	0.115500
C1771	C177	0.774200	0.567200	0.144000
H881	H88	0.769700	0.550800	0.170900
C1781	C178	0.805200	0.530200	0.132300
H891	H89	0.822500	0.489500	0.152100
C1791	C179	0.812200	0.551300	0.091200
C1801	C180	0.790100	0.615100	0.065900
H901	H90	0.796300	0.632300	0.040300
C1811	C181	0.759500	0.654600	0.076600
H911	H91	0.745000	0.698400	0.058400
C1821	C182	0.843400	0.497700	0.076700
Zn151	Zn15	0.396420	0.001040	0.517220
Zn161	Zn16	0.366150	0.156370	0.569060
O711	O71	0.923900	0.390200	0.046200
O721	O72	0.934680	0.310200	0.102820
O731	O73	0.112800	0.398500	0.030000
O741	O74	0.059600	0.486200	0.019100
O751	O75	0.135200	0.278700	0.339530
O761	O76	0.173400	0.268500	0.421600
O771	O77	0.322300	0.141700	0.499820
O781	O78	0.347100	0.057500	0.458720
O791	O79	0.360200	0.940400	0.100510
O801	O80	0.350400	0.027500	0.043100
N431	N43	0.162000	0.210000	0.146700
N441	N44	0.171600	0.177100	0.226820
N451	N45	0.228700	0.138400	0.202060
N461	N46	0.106900	0.240100	0.173990
H921	H92	0.097500	0.229700	0.195900
N471	N47	0.240300	0.119800	0.281070
H931	H93	0.261200	0.086600	0.283000
N481	N48	0.214500	0.170800	0.120900
H941	H94	0.197800	0.199200	0.095900
C1831	C183	0.147100	0.210500	0.181800
C1841	C184	0.201500	0.175100	0.158100
C1851	C185	0.210300	0.147500	0.234900
C1861	C186	0.076000	0.287700	0.134200
C1871	C187	0.031500	0.297400	0.127500
H951	H95	0.021200	0.271000	0.147700
C1881	C188	0.000400	0.346900	0.090500
C1891	C189	0.017500	0.384800	0.061000
H961	H96	0.997800	0.417200	0.035800
C1901	C190	0.060900	0.375100	0.068400
C1911	C191	0.093200	0.325100	0.105000
H971	H97	0.123700	0.318100	0.109000
C1921	C192	0.079200	0.424800	0.037600
C1931	C193	0.950200	0.360600	0.080600
C1941	C194	0.238800	0.142500	0.325400
C1951	C195	0.203700	0.183900	0.329500
H981	H98	0.177900	0.199300	0.301000
C1961	C196	0.205700	0.203300	0.375000
C1971	C197	0.169700	0.252900	0.378200
C1981	C198	0.242800	0.178100	0.417500
H991	H99	0.244400	0.190100	0.448100
C1991	C199	0.278100	0.133900	0.413800
C2001	C200	0.320600	0.108500	0.460700
C2011	C201	0.277200	0.117100	0.368900
H1001	H100	0.301500	0.089300	0.367300
C2021	C202	0.248500	0.130600	0.115500
C2031	C203	0.274200	0.067200	0.144000
H1011	H101	0.269700	0.050800	0.170900
C2041	C204	0.305200	0.030200	0.132300
H1021	H102	0.322500	0.989500	0.152100
C2051	C205	0.312200	0.051300	0.091200
C2061	C206	0.290100	0.115100	0.065900
H1031	H103	0.296300	0.132300	0.040300
C2071	C207	0.259500	0.154600	0.076600
H1041	H104	0.245000	0.198400	0.058400
C2081	C208	0.343400	0.997700	0.076700
