data_MAWFAT_charged_PM
_symmetry_space_group_name_H-M	'P1'
_cell_length_a	17.007300
_cell_length_b	17.007300
_cell_length_c	24.523000
_cell_angle_alpha	73.858200
_cell_angle_beta	73.858200
_cell_angle_gamma	88.363400
_symmetry_Int_Tables_number 1

loop_
_symmetry_equiv_pos_as_xyz
'x,y,z'

loop_
_atom_site_label
_atom_site_type_symbol
_atom_site_fract_x
_atom_site_fract_y
_atom_site_fract_z
Mn11	Mn1	0.126300	0.712800	0.584900
Mn21	Mn2	0.287200	0.873700	0.915100
Mn31	Mn3	0.873700	0.287200	0.415100
Mn41	Mn4	0.712800	0.126300	0.084900
Cu11	Cu1	0.000000	0.000000	0.500000
Cu21	Cu2	0.000000	0.000000	0.000000
Cu31	Cu3	0.000000	0.500000	0.500000
Cu41	Cu4	0.500000	0.000000	0.000000
Cu51	Cu5	0.265330	0.734670	0.750000
Cu61	Cu6	0.734670	0.265330	0.250000
H11	H1	0.119800	0.841000	0.306100
H21	H2	0.238700	0.931100	0.258100
H31	H3	0.275100	0.028700	0.295500
H41	H4	0.022400	0.785400	0.384500
H51	H5	0.020900	0.796500	0.446100
H61	H6	0.895300	0.831100	0.426900
H71	H7	0.938200	0.909200	0.430300
H81	H8	0.939800	0.898200	0.368600
H91	H9	0.249400	0.083000	0.381900
H101	H10	0.175000	0.052000	0.438700
H111	H11	0.303100	0.015300	0.466000
H121	H12	0.252500	0.934100	0.476400
H131	H13	0.326800	0.964800	0.419700
H141	H14	0.324100	0.380100	0.496900
H151	H15	0.376800	0.443400	0.403800
H161	H16	0.319300	0.529900	0.348100
H171	H17	0.163300	0.457300	0.592500
H181	H18	0.230300	0.391300	0.593600
H191	H19	0.096800	0.325200	0.627900
H201	H20	0.081000	0.370000	0.567000
H211	H21	0.147100	0.303900	0.570200
H221	H22	0.124600	0.586000	0.386900
H231	H23	0.171800	0.647600	0.405000
H241	H24	0.195600	0.688200	0.301200
H251	H25	0.279100	0.665700	0.315600
H261	H26	0.232100	0.603700	0.297400
H271	H27	0.396200	0.025800	0.563200
H281	H28	0.527200	0.978000	0.541500
H291	H29	0.546500	0.838900	0.573300
H301	H30	0.232200	0.934800	0.661300
H311	H31	0.258700	0.002900	0.599300
H321	H32	0.475400	0.696600	0.634300
H331	H33	0.379200	0.690800	0.648800
H341	H34	0.164500	0.898700	0.594200
H351	H35	0.250700	0.899100	0.549200
H361	H36	0.225800	0.831400	0.610200
H371	H37	0.435300	0.648900	0.560700
H381	H38	0.392400	0.731200	0.543200
H391	H39	0.159000	0.880200	0.193900
H401	H40	0.068900	0.761300	0.241900
H411	H41	0.971300	0.724900	0.204500
H421	H42	0.214600	0.977600	0.115500
H431	H43	0.203500	0.979100	0.053900
H441	H44	0.168900	0.104700	0.073100
H451	H45	0.090800	0.061800	0.069700
H461	H46	0.101800	0.060200	0.131400
H471	H47	0.917000	0.750600	0.118100
H481	H48	0.948000	0.825000	0.061300
H491	H49	0.984700	0.696900	0.034000
H501	H50	0.065900	0.747500	0.023600
H511	H51	0.035200	0.673200	0.080300
H521	H52	0.619900	0.675900	0.003100
H531	H53	0.556600	0.623200	0.096200
H541	H54	0.470100	0.680700	0.151900
H551	H55	0.542700	0.836700	0.907500
H561	H56	0.608700	0.769700	0.906400
H571	H57	0.674800	0.903200	0.872100
H581	H58	0.630000	0.919000	0.933000
H591	H59	0.696100	0.852900	0.929800
H601	H60	0.414000	0.875400	0.113100
H611	H61	0.352400	0.828200	0.095000
H621	H62	0.311800	0.804400	0.198800
H631	H63	0.334300	0.720900	0.184400
H641	H64	0.396300	0.767900	0.202600
H651	H65	0.974200	0.603800	0.936800
H661	H66	0.022000	0.472800	0.958500
H671	H67	0.161100	0.453500	0.926700
H681	H68	0.065200	0.767800	0.838700
H691	H69	0.997100	0.741300	0.900700
H701	H70	0.303400	0.524600	0.865700
H711	H71	0.309200	0.620800	0.851200
H721	H72	0.101300	0.835500	0.905800
H731	H73	0.100900	0.749300	0.950800
H741	H74	0.168600	0.774200	0.889800
H751	H75	0.351100	0.564700	0.939300
H761	H76	0.268800	0.607600	0.956800
H771	H77	0.880200	0.159000	0.693900
H781	H78	0.761300	0.068900	0.741900
H791	H79	0.724900	0.971300	0.704500
H801	H80	0.977600	0.214600	0.615500
H811	H81	0.979100	0.203500	0.553900
H821	H82	0.104700	0.168900	0.573100
H831	H83	0.061800	0.090800	0.569700
H841	H84	0.060200	0.101800	0.631400
H851	H85	0.750600	0.917000	0.618100
H861	H86	0.825000	0.948000	0.561300
H871	H87	0.696900	0.984700	0.534000
H881	H88	0.747500	0.065900	0.523600
H891	H89	0.673200	0.035200	0.580300
H901	H90	0.675900	0.619900	0.503100
H911	H91	0.623200	0.556600	0.596200
H921	H92	0.680700	0.470100	0.651900
H931	H93	0.836700	0.542700	0.407500
H941	H94	0.769700	0.608700	0.406400
H951	H95	0.903200	0.674800	0.372100
H961	H96	0.919000	0.630000	0.433000
H971	H97	0.852900	0.696100	0.429800
H981	H98	0.875400	0.414000	0.613100
H991	H99	0.828200	0.352400	0.595000
H1001	H100	0.804400	0.311800	0.698800
H1011	H101	0.720900	0.334300	0.684400
H1021	H102	0.767900	0.396300	0.702600
H1031	H103	0.603800	0.974200	0.436800
H1041	H104	0.472800	0.022000	0.458500
H1051	H105	0.453500	0.161100	0.426700
H1061	H106	0.767800	0.065200	0.338700
H1071	H107	0.741300	0.997100	0.400700
H1081	H108	0.524600	0.303400	0.365700
H1091	H109	0.620800	0.309200	0.351200
H1101	H110	0.835500	0.101300	0.405800
H1111	H111	0.749300	0.100900	0.450800
H1121	H112	0.774200	0.168600	0.389800
H1131	H113	0.564700	0.351100	0.439300
H1141	H114	0.607600	0.268800	0.456800
H1151	H115	0.841000	0.119800	0.806100
H1161	H116	0.931100	0.238700	0.758100
H1171	H117	0.028700	0.275100	0.795500
H1181	H118	0.785400	0.022400	0.884500
H1191	H119	0.796500	0.020900	0.946100
H1201	H120	0.831100	0.895300	0.926900
H1211	H121	0.909200	0.938200	0.930300
H1221	H122	0.898200	0.939800	0.868600
H1231	H123	0.083000	0.249400	0.881900
H1241	H124	0.052000	0.175000	0.938700
H1251	H125	0.015300	0.303100	0.966000
H1261	H126	0.934100	0.252500	0.976400
H1271	H127	0.964800	0.326800	0.919700
H1281	H128	0.380100	0.324100	0.996900
H1291	H129	0.443400	0.376800	0.903800
H1301	H130	0.529900	0.319300	0.848100
H1311	H131	0.457300	0.163300	0.092500
H1321	H132	0.391300	0.230300	0.093600
H1331	H133	0.325200	0.096800	0.127900
H1341	H134	0.370000	0.081000	0.067000
H1351	H135	0.303900	0.147100	0.070200
H1361	H136	0.586000	0.124600	0.886900
H1371	H137	0.647600	0.171800	0.905000
H1381	H138	0.688200	0.195600	0.801200
H1391	H139	0.665700	0.279100	0.815600
H1401	H140	0.603700	0.232100	0.797400
H1411	H141	0.025800	0.396200	0.063200
H1421	H142	0.978000	0.527200	0.041500
H1431	H143	0.838900	0.546500	0.073300
H1441	H144	0.934800	0.232200	0.161300
H1451	H145	0.002900	0.258700	0.099300
H1461	H146	0.696600	0.475400	0.134300
H1471	H147	0.690800	0.379200	0.148800
H1481	H148	0.898700	0.164500	0.094200
H1491	H149	0.899100	0.250700	0.049200
H1501	H150	0.831400	0.225800	0.110200
H1511	H151	0.648900	0.435300	0.060700
H1521	H152	0.731200	0.392400	0.043200
C11	C1	0.089500	0.865300	0.510800
C21	C2	0.042300	0.866300	0.572200
C31	C3	0.122800	0.936000	0.407400
C41	C4	0.092700	0.879100	0.378700
C51	C5	0.135300	0.876700	0.324400
C61	C6	0.207500	0.933500	0.295300
C71	C7	0.233100	0.989500	0.317900
C81	C8	0.188300	0.983900	0.382400
C91	C9	0.020700	0.825700	0.406000
C101	C10	0.941100	0.870100	0.408200
C111	C11	0.220000	0.034400	0.411200
C121	C12	0.282100	0.981700	0.447100
C131	C13	0.106300	0.588100	0.529500
C141	C14	0.020200	0.609600	0.557800
C151	C15	0.184200	0.508400	0.473300
C161	C16	0.222700	0.447500	0.507900
C171	C17	0.296600	0.421800	0.477700
C181	C18	0.325100	0.458300	0.421800
C191	C19	0.294100	0.510300	0.388500
C201	C20	0.217600	0.538000	0.416000
C211	C21	0.187400	0.414000	0.575600
C221	C22	0.122000	0.347000	0.586200
C231	C23	0.178800	0.605200	0.384800
C241	C24	0.225900	0.644500	0.318400
C251	C25	0.242900	0.735300	0.645400
C261	C26	0.170000	0.683400	0.692600
C271	C27	0.337200	0.915400	0.608100
C281	C28	0.404000	0.970000	0.576000
C291	C29	0.482500	0.941300	0.562900
C301	C30	0.494100	0.858100	0.582000
C311	C31	0.427200	0.803400	0.614100
C321	C32	0.348800	0.832000	0.627100
C331	C33	0.259000	0.945000	0.619400
C341	C34	0.429000	0.718800	0.620400
C351	C35	0.221300	0.887900	0.590400
C361	C36	0.436700	0.706700	0.557500
C371	C37	0.134700	0.910500	0.989200
C381	C38	0.133700	0.957700	0.927800
C391	C39	0.064000	0.877200	0.092600
C401	C40	0.120900	0.907300	0.121300
C411	C41	0.123300	0.864700	0.175600
C421	C42	0.066500	0.792500	0.204700
C431	C43	0.010500	0.766900	0.182100
C441	C44	0.016100	0.811700	0.117600
C451	C45	0.174300	0.979300	0.094000
C461	C46	0.129900	0.058900	0.091800
C471	C47	0.965600	0.780000	0.088800
C481	C48	0.018300	0.717900	0.052900
C491	C49	0.411900	0.893700	0.970500
C501	C50	0.390400	0.979800	0.942200
C511	C51	0.491600	0.815800	0.026700
C521	C52	0.552500	0.777300	0.992100
C531	C53	0.578200	0.703400	0.022300
C541	C54	0.541700	0.674900	0.078200
C551	C55	0.489700	0.705900	0.111500
C561	C56	0.462000	0.782400	0.084000
C571	C57	0.586000	0.812600	0.924400
C581	C58	0.653000	0.878000	0.913800
C591	C59	0.394800	0.821200	0.115200
C601	C60	0.355500	0.774100	0.181600
C611	C61	0.264700	0.757100	0.854600
C621	C62	0.316600	0.830000	0.807400
C631	C63	0.084600	0.662800	0.891900
C641	C64	0.030000	0.596000	0.924000
C651	C65	0.058700	0.517500	0.937100
C661	C66	0.141900	0.505900	0.918000
C671	C67	0.196600	0.572800	0.885900
C681	C68	0.168000	0.651200	0.872900
C691	C69	0.055000	0.741000	0.880600
C701	C70	0.281200	0.571000	0.879600
C711	C71	0.112100	0.778700	0.909600
C721	C72	0.293300	0.563300	0.942500
C731	C73	0.910500	0.134700	0.489200
C741	C74	0.957700	0.133700	0.427800
C751	C75	0.877200	0.064000	0.592600
C761	C76	0.907300	0.120900	0.621300
C771	C77	0.864700	0.123300	0.675600
C781	C78	0.792500	0.066500	0.704700
C791	C79	0.766900	0.010500	0.682100
C801	C80	0.811700	0.016100	0.617600
C811	C81	0.979300	0.174300	0.594000
C821	C82	0.058900	0.129900	0.591800
C831	C83	0.780000	0.965600	0.588800
C841	C84	0.717900	0.018300	0.552900
C851	C85	0.893700	0.411900	0.470500
C861	C86	0.979800	0.390400	0.442200
C871	C87	0.815800	0.491600	0.526700
C881	C88	0.777300	0.552500	0.492100
C891	C89	0.703400	0.578200	0.522300
C901	C90	0.674900	0.541700	0.578200
C911	C91	0.705900	0.489700	0.611500
C921	C92	0.782400	0.462000	0.584000
C931	C93	0.812600	0.586000	0.424400
C941	C94	0.878000	0.653000	0.413800
C951	C95	0.821200	0.394800	0.615200
C961	C96	0.774100	0.355500	0.681600
C971	C97	0.757100	0.264700	0.354600
C981	C98	0.830000	0.316600	0.307400
C991	C99	0.662800	0.084600	0.391900
C1001	C100	0.596000	0.030000	0.424000
C1011	C101	0.517500	0.058700	0.437100
C1021	C102	0.505900	0.141900	0.418000
C1031	C103	0.572800	0.196600	0.385900
C1041	C104	0.651200	0.168000	0.372900
C1051	C105	0.741000	0.055000	0.380600
C1061	C106	0.571000	0.281200	0.379600
C1071	C107	0.778700	0.112100	0.409600
C1081	C108	0.563300	0.293300	0.442500
C1091	C109	0.865300	0.089500	0.010800
C1101	C110	0.866300	0.042300	0.072200
C1111	C111	0.936000	0.122800	0.907400
C1121	C112	0.879100	0.092700	0.878700
C1131	C113	0.876700	0.135300	0.824400
C1141	C114	0.933500	0.207500	0.795300
C1151	C115	0.989500	0.233100	0.817900
C1161	C116	0.983900	0.188300	0.882400
C1171	C117	0.825700	0.020700	0.906000
C1181	C118	0.870100	0.941100	0.908200
C1191	C119	0.034400	0.220000	0.911200
C1201	C120	0.981700	0.282100	0.947100
C1211	C121	0.588100	0.106300	0.029500
C1221	C122	0.609600	0.020200	0.057800
C1231	C123	0.508400	0.184200	0.973300
C1241	C124	0.447500	0.222700	0.007900
C1251	C125	0.421800	0.296600	0.977700
C1261	C126	0.458300	0.325100	0.921800
C1271	C127	0.510300	0.294100	0.888500
C1281	C128	0.538000	0.217600	0.916000
C1291	C129	0.414000	0.187400	0.075600
C1301	C130	0.347000	0.122000	0.086200
C1311	C131	0.605200	0.178800	0.884800
C1321	C132	0.644500	0.225900	0.818400
C1331	C133	0.735300	0.242900	0.145400
C1341	C134	0.683400	0.170000	0.192600
C1351	C135	0.915400	0.337200	0.108100
C1361	C136	0.970000	0.404000	0.076000
C1371	C137	0.941300	0.482500	0.062900
C1381	C138	0.858100	0.494100	0.082000
C1391	C139	0.803400	0.427200	0.114100
C1401	C140	0.832000	0.348800	0.127100
C1411	C141	0.945000	0.259000	0.119400
C1421	C142	0.718800	0.429000	0.120400
C1431	C143	0.887900	0.221300	0.090400
C1441	C144	0.706700	0.436700	0.057500
N11	N1	0.296700	0.759900	0.664500
N21	N2	0.078700	0.927500	0.468100
N31	N3	0.108100	0.533700	0.500400
N41	N4	0.240100	0.703300	0.835500
N51	N5	0.072500	0.921300	0.031900
N61	N6	0.466300	0.891900	0.999600
N71	N7	0.703300	0.240100	0.335500
N81	N8	0.921300	0.072500	0.531900
N91	N9	0.891900	0.466300	0.499600
N101	N10	0.759900	0.296700	0.164500
N111	N11	0.927500	0.078700	0.968100
N121	N12	0.533700	0.108100	0.000400
O11	O1	0.171800	0.671600	0.745600
O21	O2	0.135600	0.806600	0.503300
O31	O3	0.050700	0.808900	0.614800
O41	O4	0.993200	0.922200	0.577500
O51	O5	0.163500	0.619500	0.539400
O61	O6	0.011100	0.658300	0.587100
O71	O7	0.959700	0.574100	0.548500
O81	O8	0.242500	0.749100	0.591500
O91	O9	0.118000	0.655600	0.676200
O101	O10	0.328400	0.828200	0.754400
O111	O11	0.193400	0.864400	0.996700
O121	O12	0.191100	0.949300	0.885200
O131	O13	0.077800	0.006800	0.922500
O141	O14	0.380500	0.836500	0.960600
O151	O15	0.341700	0.988900	0.912900
O161	O16	0.425900	0.040300	0.951500
O171	O17	0.250900	0.757500	0.908500
O181	O18	0.344400	0.882000	0.823800
O191	O19	0.828200	0.328400	0.254400
O201	O20	0.864400	0.193400	0.496700
O211	O21	0.949300	0.191100	0.385200
O221	O22	0.006800	0.077800	0.422500
O231	O23	0.836500	0.380500	0.460600
O241	O24	0.988900	0.341700	0.412900
O251	O25	0.040300	0.425900	0.451500
O261	O26	0.757500	0.250900	0.408500
O271	O27	0.882000	0.344400	0.323800
O281	O28	0.671600	0.171800	0.245600
O291	O29	0.806600	0.135600	0.003300
O301	O30	0.808900	0.050700	0.114800
O311	O31	0.922200	0.993200	0.077500
O321	O32	0.619500	0.163500	0.039400
O331	O33	0.658300	0.011100	0.087100
O341	O34	0.574100	0.959700	0.048500
O351	O35	0.749100	0.242500	0.091500
O361	O36	0.655600	0.118000	0.176200
H1531	H153	0.587100	0.932300	0.260800
H1541	H154	0.630100	0.946700	0.193400
H1551	H155	0.513200	0.817200	0.242800
H1561	H156	0.529000	0.884000	0.180500
H1571	H157	0.411600	0.904400	0.274100
H1581	H158	0.486600	0.955600	0.276600
H1591	H159	0.426800	0.037600	0.204400
H1601	H160	0.439600	0.968800	0.171900
H1611	H161	0.515600	0.017600	0.173100
H1621	H162	0.668100	0.746500	0.319700
H1631	H163	0.582600	0.749800	0.307100
H1641	H164	0.633200	0.869600	0.357900
H1651	H165	0.542600	0.857800	0.353900
H1661	H166	0.630900	0.732500	0.414300
H1671	H167	0.550800	0.710400	0.401800
H1681	H168	0.524900	0.696500	0.503400
H1691	H169	0.471800	0.766200	0.477700
H1701	H170	0.552500	0.788700	0.490300
H1711	H171	0.626300	0.766500	0.208200
H1721	H172	0.712600	0.746000	0.217900
H1731	H173	0.770300	0.855700	0.141400
H1741	H174	0.684000	0.878000	0.132000
H1751	H175	0.764300	0.732900	0.114400
H1761	H176	0.674700	0.748300	0.110100
H1771	H177	0.765300	0.779500	0.018000
H1781	H178	0.811800	0.844600	0.033800
H1791	H179	0.722100	0.858500	0.029200
H1801	H180	0.721500	0.941500	0.247400
H1811	H181	0.758800	0.918000	0.187700
H1821	H182	0.768600	0.808800	0.297900
H1831	H183	0.817100	0.801700	0.236000
H1841	H184	0.874600	0.870600	0.309000
H1851	H185	0.926800	0.834200	0.258600
H1861	H186	0.954400	0.980800	0.232300
H1871	H187	0.862200	0.993800	0.234100
H1881	H188	0.919300	0.957900	0.185600
C1451	C145	0.602600	0.905400	0.229600
C1461	C146	0.526300	0.874700	0.221900
C1471	C147	0.464500	0.932100	0.251700
C1481	C148	0.461300	0.994700	0.195100
C1491	C149	0.627200	0.783200	0.308100
C1501	C150	0.592700	0.830900	0.357500
C1511	C151	0.577300	0.751700	0.412000
C1521	C152	0.526700	0.750700	0.477300
C1531	C153	0.678800	0.790600	0.205300
C1541	C154	0.716900	0.832900	0.144900
C1551	C155	0.727500	0.775100	0.103500
C1561	C156	0.759400	0.818000	0.040800
C1571	C157	0.736300	0.896300	0.230200
C1581	C158	0.800600	0.840600	0.258900
C1591	C159	0.883300	0.870500	0.268200
C1601	C160	0.907100	0.959300	0.226000
N131	N13	0.666000	0.839800	0.244800
H1891	H189	0.067700	0.412900	0.239200
H1901	H190	0.053300	0.369900	0.306600
H1911	H191	0.182800	0.486800	0.257200
H1921	H192	0.116000	0.471000	0.319500
H1931	H193	0.095600	0.588400	0.225900
H1941	H194	0.044400	0.513400	0.223400
H1951	H195	0.962400	0.573200	0.295600
H1961	H196	0.031200	0.560400	0.328100
H1971	H197	0.982400	0.484400	0.326900
H1981	H198	0.253500	0.331900	0.180300
H1991	H199	0.250200	0.417400	0.192900
H2001	H200	0.130400	0.366800	0.142100
H2011	H201	0.142200	0.457400	0.146100
H2021	H202	0.267500	0.369100	0.085700
H2031	H203	0.289600	0.449200	0.098200
H2041	H204	0.303500	0.475100	0.996600
H2051	H205	0.233800	0.528200	0.022300
H2061	H206	0.211300	0.447500	0.009700
H2071	H207	0.233500	0.373700	0.291800
H2081	H208	0.254000	0.287400	0.282100
H2091	H209	0.144300	0.229700	0.358600
H2101	H210	0.122000	0.316000	0.368000
H2111	H211	0.267100	0.235700	0.385600
H2121	H212	0.251700	0.325300	0.389900
H2131	H213	0.220500	0.234700	0.482000
H2141	H214	0.155400	0.188200	0.466200
H2151	H215	0.141500	0.277900	0.470800
H2161	H216	0.058500	0.278500	0.252600
H2171	H217	0.082000	0.241200	0.312300
H2181	H218	0.191200	0.231400	0.202100
H2191	H219	0.198300	0.182900	0.264000
H2201	H220	0.129400	0.125400	0.191000
H2211	H221	0.165800	0.073200	0.241400
H2221	H222	0.019200	0.045600	0.267700
H2231	H223	0.006200	0.137800	0.265900
H2241	H224	0.042100	0.080700	0.314400
C1611	C161	0.094600	0.397400	0.270400
C1621	C162	0.125300	0.473700	0.278100
C1631	C163	0.067900	0.535500	0.248300
C1641	C164	0.005300	0.538700	0.304900
C1651	C165	0.216800	0.372800	0.191900
C1661	C166	0.169100	0.407300	0.142500
C1671	C167	0.248300	0.422700	0.088000
C1681	C168	0.249300	0.473300	0.022700
C1691	C169	0.209400	0.321200	0.294700
C1701	C170	0.167100	0.283100	0.355100
C1711	C171	0.224900	0.272500	0.396500
C1721	C172	0.182000	0.240600	0.459200
C1731	C173	0.103700	0.263700	0.269800
C1741	C174	0.159400	0.199400	0.241100
C1751	C175	0.129500	0.116700	0.231800
C1761	C176	0.040700	0.092900	0.274000
N141	N14	0.160200	0.334000	0.255200
H2251	H225	0.412900	0.067700	0.739200
H2261	H226	0.369900	0.053300	0.806600
H2271	H227	0.486800	0.182800	0.757200
H2281	H228	0.471000	0.116000	0.819500
H2291	H229	0.588400	0.095600	0.725900
H2301	H230	0.513400	0.044400	0.723400
H2311	H231	0.573200	0.962400	0.795600
H2321	H232	0.560400	0.031200	0.828100
H2331	H233	0.484400	0.982400	0.826900
H2341	H234	0.331900	0.253500	0.680300
H2351	H235	0.417400	0.250200	0.692900
H2361	H236	0.366800	0.130400	0.642100
H2371	H237	0.457400	0.142200	0.646100
H2381	H238	0.369100	0.267500	0.585700
H2391	H239	0.449200	0.289600	0.598200
H2401	H240	0.475100	0.303500	0.496600
H2411	H241	0.528200	0.233800	0.522300
H2421	H242	0.447500	0.211300	0.509700
H2431	H243	0.373700	0.233500	0.791800
H2441	H244	0.287400	0.254000	0.782100
H2451	H245	0.229700	0.144300	0.858600
H2461	H246	0.316000	0.122000	0.868000
H2471	H247	0.235700	0.267100	0.885600
H2481	H248	0.325300	0.251700	0.889900
H2491	H249	0.234700	0.220500	0.982000
H2501	H250	0.188200	0.155400	0.966200
H2511	H251	0.277900	0.141500	0.970800
H2521	H252	0.278500	0.058500	0.752600
H2531	H253	0.241200	0.082000	0.812300
H2541	H254	0.231400	0.191200	0.702100
H2551	H255	0.182900	0.198300	0.764000
H2561	H256	0.125400	0.129400	0.691000
H2571	H257	0.073200	0.165800	0.741400
H2581	H258	0.045600	0.019200	0.767700
H2591	H259	0.137800	0.006200	0.765900
H2601	H260	0.080700	0.042100	0.814400
C1771	C177	0.397400	0.094600	0.770400
C1781	C178	0.473700	0.125300	0.778100
C1791	C179	0.535500	0.067900	0.748300
C1801	C180	0.538700	0.005300	0.804900
C1811	C181	0.372800	0.216800	0.691900
C1821	C182	0.407300	0.169100	0.642500
C1831	C183	0.422700	0.248300	0.588000
C1841	C184	0.473300	0.249300	0.522700
C1851	C185	0.321200	0.209400	0.794700
C1861	C186	0.283100	0.167100	0.855100
C1871	C187	0.272500	0.224900	0.896500
C1881	C188	0.240600	0.182000	0.959200
C1891	C189	0.263700	0.103700	0.769800
C1901	C190	0.199400	0.159400	0.741100
C1911	C191	0.116700	0.129500	0.731800
C1921	C192	0.092900	0.040700	0.774000
N151	N15	0.334000	0.160200	0.755200
H2611	H261	0.932300	0.587100	0.760800
H2621	H262	0.946700	0.630100	0.693400
H2631	H263	0.817200	0.513200	0.742800
H2641	H264	0.884000	0.529000	0.680500
H2651	H265	0.904400	0.411600	0.774100
H2661	H266	0.955600	0.486600	0.776600
H2671	H267	0.037600	0.426800	0.704400
H2681	H268	0.968800	0.439600	0.671900
H2691	H269	0.017600	0.515600	0.673100
H2701	H270	0.746500	0.668100	0.819700
H2711	H271	0.749800	0.582600	0.807100
H2721	H272	0.869600	0.633200	0.857900
H2731	H273	0.857800	0.542600	0.853900
H2741	H274	0.732500	0.630900	0.914300
H2751	H275	0.710400	0.550800	0.901800
H2761	H276	0.696500	0.524900	0.003400
H2771	H277	0.766200	0.471800	0.977700
H2781	H278	0.788700	0.552500	0.990300
H2791	H279	0.766500	0.626300	0.708200
H2801	H280	0.746000	0.712600	0.717900
H2811	H281	0.855700	0.770300	0.641400
H2821	H282	0.878000	0.684000	0.632000
H2831	H283	0.732900	0.764300	0.614400
H2841	H284	0.748300	0.674700	0.610100
H2851	H285	0.779500	0.765300	0.518000
H2861	H286	0.844600	0.811800	0.533800
H2871	H287	0.858500	0.722100	0.529200
H2881	H288	0.941500	0.721500	0.747400
H2891	H289	0.918000	0.758800	0.687700
H2901	H290	0.808800	0.768600	0.797900
H2911	H291	0.801700	0.817100	0.736000
H2921	H292	0.870600	0.874600	0.809000
H2931	H293	0.834200	0.926800	0.758600
H2941	H294	0.980800	0.954400	0.732300
H2951	H295	0.993800	0.862200	0.734100
H2961	H296	0.957900	0.919300	0.685600
C1931	C193	0.905400	0.602600	0.729600
C1941	C194	0.874700	0.526300	0.721900
C1951	C195	0.932100	0.464500	0.751700
C1961	C196	0.994700	0.461300	0.695100
C1971	C197	0.783200	0.627200	0.808100
C1981	C198	0.830900	0.592700	0.857500
C1991	C199	0.751700	0.577300	0.912000
C2001	C200	0.750700	0.526700	0.977300
C2011	C201	0.790600	0.678800	0.705300
C2021	C202	0.832900	0.716900	0.644900
C2031	C203	0.775100	0.727500	0.603500
C2041	C204	0.818000	0.759400	0.540800
C2051	C205	0.896300	0.736300	0.730200
C2061	C206	0.840600	0.800600	0.758900
C2071	C207	0.870500	0.883300	0.768200
C2081	C208	0.959300	0.907100	0.726000
N161	N16	0.839800	0.666000	0.744800
