data_MAWFIC_clean_PM
_symmetry_space_group_name_H-M	'P1'
_cell_length_a	25.686000
_cell_length_b	31.770000
_cell_length_c	25.129000
_cell_angle_alpha	90.000000
_cell_angle_beta	90.000000
_cell_angle_gamma	90.000000
_symmetry_Int_Tables_number 1

loop_
_symmetry_equiv_pos_as_xyz
'x,y,z'

loop_
_atom_site_label
_atom_site_type_symbol
_atom_site_fract_x
_atom_site_fract_y
_atom_site_fract_z
Mo11	Mo1	0.195700	0.023050	0.406090
Mo21	Mo2	0.335000	0.172270	0.339340
Mo31	Mo3	0.207590	0.197470	0.367320
Mo41	Mo4	0.161640	0.079930	0.526420
Mo51	Mo5	0.299850	0.228840	0.459560
Mo61	Mo6	0.395110	0.044030	0.463000
Mo71	Mo7	0.295080	0.011120	0.381900
Mo81	Mo8	0.312150	0.193190	0.553780
Mo91	Mo9	0.364710	0.094470	0.569390
Mo101	Mo10	0.373270	0.095130	0.344720
Mo111	Mo11	0.234160	0.109190	0.591010
Mo121	Mo12	0.135320	0.120100	0.402170
Zn11	Zn1	0.235620	0.099490	0.314470
Zn21	Zn2	0.279700	0.016950	0.522390
Zn31	Zn3	0.406080	0.153160	0.461730
Zn41	Zn4	0.182010	0.186920	0.501370
C11	C1	0.251700	0.106300	0.198800
H11	H1	0.274600	0.127600	0.208800
C21	C2	0.252000	0.094000	0.147800
H21	H2	0.274000	0.107000	0.123500
C31	C3	0.218900	0.061300	0.131300
C41	C4	0.183400	0.044900	0.170000
H31	H3	0.159500	0.024200	0.160900
C51	C5	0.185600	0.060600	0.221100
H41	H4	0.161700	0.050400	0.245700
C61	C6	0.221900	0.041600	0.077500
C71	C7	0.081700	0.199800	0.550200
H51	H5	0.085900	0.171800	0.560300
C81	C8	0.035300	0.221000	0.560200
H61	H6	0.008200	0.206600	0.576700
C91	C9	0.028300	0.261400	0.546900
C101	C10	0.068700	0.282400	0.523400
H71	H7	0.066200	0.310500	0.513400
C111	C11	0.113300	0.259300	0.515300
H81	H8	0.141600	0.273500	0.500800
C121	C12	0.977000	0.283000	0.557600
N11	N1	0.219900	0.089600	0.237400
N21	N2	0.119600	0.220300	0.525900
O11	O1	0.348400	0.041600	0.526800
O21	O2	0.305600	0.085600	0.607400
O31	O3	0.366900	0.151600	0.577800
O41	O4	0.249300	0.211500	0.513200
O51	O5	0.418400	0.069500	0.401600
O61	O6	0.340800	0.224900	0.389100
O71	O7	0.116300	0.108500	0.470400
O81	O8	0.265600	0.163700	0.601500
O91	O9	0.355600	0.003600	0.433400
O101	O10	0.144000	0.065300	0.379600
O111	O11	0.263100	0.191900	0.322000
O121	O12	0.235600	0.235500	0.413000
O131	O13	0.256200	0.006100	0.449300
O141	O14	0.226700	0.056000	0.552100
O151	O15	0.401300	0.100900	0.498900
O161	O16	0.386500	0.146300	0.386400
O171	O17	0.308500	0.117300	0.315700
O181	O18	0.355500	0.194400	0.490200
O191	O19	0.157900	0.025700	0.479400
O201	O20	0.188900	0.138200	0.347000
O211	O21	0.164000	0.174700	0.427400
O221	O22	0.342900	0.039300	0.337500
O231	O23	0.239700	0.044500	0.348000
O241	O24	0.181300	0.137200	0.545600
O251	O25	0.269200	0.033800	0.063400
O261	O26	0.181200	0.033400	0.053700
O271	O27	0.943500	0.264100	0.582500
O281	O28	0.974200	0.320100	0.537400
Mo131	Mo13	0.695700	0.476950	0.593910
Mo141	Mo14	0.835000	0.327730	0.660660
Mo151	Mo15	0.707590	0.302530	0.632680
Mo161	Mo16	0.661640	0.420070	0.473580
Mo171	Mo17	0.799850	0.271160	0.540440
Mo181	Mo18	0.895110	0.455970	0.537000
Mo191	Mo19	0.795080	0.488880	0.618100
Mo201	Mo20	0.812150	0.306810	0.446220
Mo211	Mo21	0.864710	0.405530	0.430610
Mo221	Mo22	0.873270	0.404870	0.655280
Mo231	Mo23	0.734160	0.390810	0.408990
Mo241	Mo24	0.635320	0.379900	0.597830
Zn51	Zn5	0.735620	0.400510	0.685530
Zn61	Zn6	0.779700	0.483050	0.477610
Zn71	Zn7	0.906080	0.346840	0.538270
Zn81	Zn8	0.682010	0.313080	0.498630
C131	C13	0.751700	0.393700	0.801200
H91	H9	0.774600	0.372400	0.791200
C141	C14	0.752000	0.406000	0.852200
H101	H10	0.774000	0.393000	0.876500
C151	C15	0.718900	0.438700	0.868700
C161	C16	0.683400	0.455100	0.830000
H111	H11	0.659500	0.475800	0.839100
C171	C17	0.685600	0.439400	0.778900
H121	H12	0.661700	0.449600	0.754300
C181	C18	0.721900	0.458400	0.922500
C191	C19	0.581700	0.300200	0.449800
H131	H13	0.585900	0.328200	0.439700
C201	C20	0.535300	0.279000	0.439800
H141	H14	0.508200	0.293400	0.423300
C211	C21	0.528300	0.238600	0.453100
C221	C22	0.568700	0.217600	0.476600
H151	H15	0.566200	0.189500	0.486600
C231	C23	0.613300	0.240700	0.484700
H161	H16	0.641600	0.226500	0.499200
C241	C24	0.477000	0.217000	0.442400
N31	N3	0.719900	0.410400	0.762600
N41	N4	0.619600	0.279700	0.474100
O291	O29	0.848400	0.458400	0.473200
O301	O30	0.805600	0.414400	0.392600
O311	O31	0.866900	0.348400	0.422200
O321	O32	0.749300	0.288500	0.486800
O331	O33	0.918400	0.430500	0.598400
O341	O34	0.840800	0.275100	0.610900
O351	O35	0.616300	0.391500	0.529600
O361	O36	0.765600	0.336300	0.398500
O371	O37	0.855600	0.496400	0.566600
O381	O38	0.644000	0.434700	0.620400
O391	O39	0.763100	0.308100	0.678000
O401	O40	0.735600	0.264500	0.587000
O411	O41	0.756200	0.493900	0.550700
O421	O42	0.726700	0.444000	0.447900
O431	O43	0.901300	0.399100	0.501100
O441	O44	0.886500	0.353700	0.613600
O451	O45	0.808500	0.382700	0.684300
O461	O46	0.855500	0.305600	0.509800
O471	O47	0.657900	0.474300	0.520600
O481	O48	0.688900	0.361800	0.653000
O491	O49	0.664000	0.325300	0.572600
O501	O50	0.842900	0.460700	0.662500
O511	O51	0.739700	0.455500	0.652000
O521	O52	0.681300	0.362800	0.454400
O531	O53	0.769200	0.466200	0.936600
O541	O54	0.681200	0.466600	0.946300
O551	O55	0.443500	0.235900	0.417500
O561	O56	0.474200	0.179900	0.462600
Mo251	Mo25	0.695700	0.523050	0.093910
Mo261	Mo26	0.835000	0.672270	0.160660
Mo271	Mo27	0.707590	0.697470	0.132680
Mo281	Mo28	0.661640	0.579930	0.973580
Mo291	Mo29	0.799850	0.728840	0.040440
Mo301	Mo30	0.895110	0.544030	0.037000
Mo311	Mo31	0.795080	0.511120	0.118100
Mo321	Mo32	0.812150	0.693190	0.946220
Mo331	Mo33	0.864710	0.594470	0.930610
Mo341	Mo34	0.873270	0.595130	0.155280
Mo351	Mo35	0.734160	0.609190	0.908990
Mo361	Mo36	0.635320	0.620100	0.097830
Zn91	Zn9	0.735620	0.599490	0.185530
Zn101	Zn10	0.779700	0.516950	0.977610
Zn111	Zn11	0.906080	0.653160	0.038270
Zn121	Zn12	0.682010	0.686920	0.998630
C251	C25	0.751700	0.606300	0.301200
H171	H17	0.774600	0.627600	0.291200
C261	C26	0.752000	0.594000	0.352200
H181	H18	0.774000	0.607000	0.376500
C271	C27	0.718900	0.561300	0.368700
C281	C28	0.683400	0.544900	0.330000
H191	H19	0.659500	0.524200	0.339100
C291	C29	0.685600	0.560600	0.278900
H201	H20	0.661700	0.550400	0.254300
C301	C30	0.721900	0.541600	0.422500
C311	C31	0.581700	0.699800	0.949800
H211	H21	0.585900	0.671800	0.939700
C321	C32	0.535300	0.721000	0.939800
H221	H22	0.508200	0.706600	0.923300
C331	C33	0.528300	0.761400	0.953100
C341	C34	0.568700	0.782400	0.976600
H231	H23	0.566200	0.810500	0.986600
C351	C35	0.613300	0.759300	0.984700
H241	H24	0.641600	0.773500	0.999200
C361	C36	0.477000	0.783000	0.942400
N51	N5	0.719900	0.589600	0.262600
N61	N6	0.619600	0.720300	0.974100
O571	O57	0.848400	0.541600	0.973200
O581	O58	0.805600	0.585600	0.892600
O591	O59	0.866900	0.651600	0.922200
O601	O60	0.749300	0.711500	0.986800
O611	O61	0.918400	0.569500	0.098400
O621	O62	0.840800	0.724900	0.110900
O631	O63	0.616300	0.608500	0.029600
O641	O64	0.765600	0.663700	0.898500
O651	O65	0.855600	0.503600	0.066600
O661	O66	0.644000	0.565300	0.120400
O671	O67	0.763100	0.691900	0.178000
O681	O68	0.735600	0.735500	0.087000
O691	O69	0.756200	0.506100	0.050700
O701	O70	0.726700	0.556000	0.947900
O711	O71	0.901300	0.600900	0.001100
O721	O72	0.886500	0.646300	0.113600
O731	O73	0.808500	0.617300	0.184300
O741	O74	0.855500	0.694400	0.009800
O751	O75	0.657900	0.525700	0.020600
O761	O76	0.688900	0.638200	0.153000
O771	O77	0.664000	0.674700	0.072600
O781	O78	0.842900	0.539300	0.162500
O791	O79	0.739700	0.544500	0.152000
O801	O80	0.681300	0.637200	0.954400
O811	O81	0.769200	0.533800	0.436600
O821	O82	0.681200	0.533400	0.446300
O831	O83	0.443500	0.764100	0.917500
O841	O84	0.474200	0.820100	0.962600
Mo371	Mo37	0.195700	0.976950	0.906090
Mo381	Mo38	0.335000	0.827730	0.839340
Mo391	Mo39	0.207590	0.802530	0.867320
Mo401	Mo40	0.161640	0.920070	0.026420
Mo411	Mo41	0.299850	0.771160	0.959560
Mo421	Mo42	0.395110	0.955970	0.963000
Mo431	Mo43	0.295080	0.988880	0.881900
Mo441	Mo44	0.312150	0.806810	0.053780
Mo451	Mo45	0.364710	0.905530	0.069390
Mo461	Mo46	0.373270	0.904870	0.844720
Mo471	Mo47	0.234160	0.890810	0.091010
Mo481	Mo48	0.135320	0.879900	0.902170
Zn131	Zn13	0.235620	0.900510	0.814470
Zn141	Zn14	0.279700	0.983050	0.022390
Zn151	Zn15	0.406080	0.846840	0.961730
Zn161	Zn16	0.182010	0.813080	0.001370
C371	C37	0.251700	0.893700	0.698800
H251	H25	0.274600	0.872400	0.708800
C381	C38	0.252000	0.906000	0.647800
H261	H26	0.274000	0.893000	0.623500
C391	C39	0.218900	0.938700	0.631300
C401	C40	0.183400	0.955100	0.670000
H271	H27	0.159500	0.975800	0.660900
C411	C41	0.185600	0.939400	0.721100
H281	H28	0.161700	0.949600	0.745700
C421	C42	0.221900	0.958400	0.577500
C431	C43	0.081700	0.800200	0.050200
H291	H29	0.085900	0.828200	0.060300
C441	C44	0.035300	0.779000	0.060200
H301	H30	0.008200	0.793400	0.076700
C451	C45	0.028300	0.738600	0.046900
C461	C46	0.068700	0.717600	0.023400
H311	H31	0.066200	0.689500	0.013400
C471	C47	0.113300	0.740700	0.015300
H321	H32	0.141600	0.726500	0.000800
C481	C48	0.977000	0.717000	0.057600
N71	N7	0.219900	0.910400	0.737400
N81	N8	0.119600	0.779700	0.025900
O851	O85	0.348400	0.958400	0.026800
O861	O86	0.305600	0.914400	0.107400
O871	O87	0.366900	0.848400	0.077800
O881	O88	0.249300	0.788500	0.013200
O891	O89	0.418400	0.930500	0.901600
O901	O90	0.340800	0.775100	0.889100
O911	O91	0.116300	0.891500	0.970400
O921	O92	0.265600	0.836300	0.101500
O931	O93	0.355600	0.996400	0.933400
O941	O94	0.144000	0.934700	0.879600
O951	O95	0.263100	0.808100	0.822000
O961	O96	0.235600	0.764500	0.913000
O971	O97	0.256200	0.993900	0.949300
O981	O98	0.226700	0.944000	0.052100
O991	O99	0.401300	0.899100	0.998900
O1001	O100	0.386500	0.853700	0.886400
O1011	O101	0.308500	0.882700	0.815700
O1021	O102	0.355500	0.805600	0.990200
O1031	O103	0.157900	0.974300	0.979400
O1041	O104	0.188900	0.861800	0.847000
O1051	O105	0.164000	0.825300	0.927400
O1061	O106	0.342900	0.960700	0.837500
O1071	O107	0.239700	0.955500	0.848000
O1081	O108	0.181300	0.862800	0.045600
O1091	O109	0.269200	0.966200	0.563400
O1101	O110	0.181200	0.966600	0.553700
O1111	O111	0.943500	0.735900	0.082500
O1121	O112	0.974200	0.679900	0.037400
Mo491	Mo49	0.304300	0.476950	0.906090
Mo501	Mo50	0.165000	0.327730	0.839340
Mo511	Mo51	0.292410	0.302530	0.867320
Mo521	Mo52	0.338360	0.420070	0.026420
Mo531	Mo53	0.200150	0.271160	0.959560
Mo541	Mo54	0.104890	0.455970	0.963000
Mo551	Mo55	0.204920	0.488880	0.881900
Mo561	Mo56	0.187850	0.306810	0.053780
Mo571	Mo57	0.135290	0.405530	0.069390
Mo581	Mo58	0.126730	0.404870	0.844720
Mo591	Mo59	0.265840	0.390810	0.091010
Mo601	Mo60	0.364680	0.379900	0.902170
Zn171	Zn17	0.264380	0.400510	0.814470
Zn181	Zn18	0.220300	0.483050	0.022390
Zn191	Zn19	0.093920	0.346840	0.961730
Zn201	Zn20	0.317990	0.313080	0.001370
C491	C49	0.248300	0.393700	0.698800
H331	H33	0.225400	0.372400	0.708800
C501	C50	0.248000	0.406000	0.647800
H341	H34	0.226000	0.393000	0.623500
C511	C51	0.281100	0.438700	0.631300
C521	C52	0.316600	0.455100	0.670000
H351	H35	0.340500	0.475800	0.660900
C531	C53	0.314400	0.439400	0.721100
H361	H36	0.338300	0.449600	0.745700
C541	C54	0.278100	0.458400	0.577500
C551	C55	0.418300	0.300200	0.050200
H371	H37	0.414100	0.328200	0.060300
C561	C56	0.464700	0.279000	0.060200
H381	H38	0.491800	0.293400	0.076700
C571	C57	0.471700	0.238600	0.046900
C581	C58	0.431300	0.217600	0.023400
H391	H39	0.433800	0.189500	0.013400
C591	C59	0.386700	0.240700	0.015300
H401	H40	0.358400	0.226500	0.000800
C601	C60	0.523000	0.217000	0.057600
N91	N9	0.280100	0.410400	0.737400
N101	N10	0.380400	0.279700	0.025900
O1131	O113	0.151600	0.458400	0.026800
O1141	O114	0.194400	0.414400	0.107400
O1151	O115	0.133100	0.348400	0.077800
O1161	O116	0.250700	0.288500	0.013200
O1171	O117	0.081600	0.430500	0.901600
O1181	O118	0.159200	0.275100	0.889100
O1191	O119	0.383700	0.391500	0.970400
O1201	O120	0.234400	0.336300	0.101500
O1211	O121	0.144400	0.496400	0.933400
O1221	O122	0.356000	0.434700	0.879600
O1231	O123	0.236900	0.308100	0.822000
O1241	O124	0.264400	0.264500	0.913000
O1251	O125	0.243800	0.493900	0.949300
O1261	O126	0.273300	0.444000	0.052100
O1271	O127	0.098700	0.399100	0.998900
O1281	O128	0.113500	0.353700	0.886400
O1291	O129	0.191500	0.382700	0.815700
O1301	O130	0.144500	0.305600	0.990200
O1311	O131	0.342100	0.474300	0.979400
O1321	O132	0.311100	0.361800	0.847000
O1331	O133	0.336000	0.325300	0.927400
O1341	O134	0.157100	0.460700	0.837500
O1351	O135	0.260300	0.455500	0.848000
O1361	O136	0.318700	0.362800	0.045600
O1371	O137	0.230800	0.466200	0.563400
O1381	O138	0.318800	0.466600	0.553700
O1391	O139	0.556500	0.235900	0.082500
O1401	O140	0.525800	0.179900	0.037400
Mo611	Mo61	0.804300	0.023050	0.093910
Mo621	Mo62	0.665000	0.172270	0.160660
Mo631	Mo63	0.792410	0.197470	0.132680
Mo641	Mo64	0.838360	0.079930	0.973580
Mo651	Mo65	0.700150	0.228840	0.040440
Mo661	Mo66	0.604890	0.044030	0.037000
Mo671	Mo67	0.704920	0.011120	0.118100
Mo681	Mo68	0.687850	0.193190	0.946220
Mo691	Mo69	0.635290	0.094470	0.930610
Mo701	Mo70	0.626730	0.095130	0.155280
Mo711	Mo71	0.765840	0.109190	0.908990
Mo721	Mo72	0.864680	0.120100	0.097830
Zn211	Zn21	0.764380	0.099490	0.185530
Zn221	Zn22	0.720300	0.016950	0.977610
Zn231	Zn23	0.593920	0.153160	0.038270
Zn241	Zn24	0.817990	0.186920	0.998630
C611	C61	0.748300	0.106300	0.301200
H411	H41	0.725400	0.127600	0.291200
C621	C62	0.748000	0.094000	0.352200
H421	H42	0.726000	0.107000	0.376500
C631	C63	0.781100	0.061300	0.368700
C641	C64	0.816600	0.044900	0.330000
H431	H43	0.840500	0.024200	0.339100
C651	C65	0.814400	0.060600	0.278900
H441	H44	0.838300	0.050400	0.254300
C661	C66	0.778100	0.041600	0.422500
C671	C67	0.918300	0.199800	0.949800
H451	H45	0.914100	0.171800	0.939700
C681	C68	0.964700	0.221000	0.939800
H461	H46	0.991800	0.206600	0.923300
C691	C69	0.971700	0.261400	0.953100
C701	C70	0.931300	0.282400	0.976600
H471	H47	0.933800	0.310500	0.986600
C711	C71	0.886700	0.259300	0.984700
H481	H48	0.858400	0.273500	0.999200
C721	C72	0.023000	0.283000	0.942400
N111	N11	0.780100	0.089600	0.262600
N121	N12	0.880400	0.220300	0.974100
O1411	O141	0.651600	0.041600	0.973200
O1421	O142	0.694400	0.085600	0.892600
O1431	O143	0.633100	0.151600	0.922200
O1441	O144	0.750700	0.211500	0.986800
O1451	O145	0.581600	0.069500	0.098400
O1461	O146	0.659200	0.224900	0.110900
O1471	O147	0.883700	0.108500	0.029600
O1481	O148	0.734400	0.163700	0.898500
O1491	O149	0.644400	0.003600	0.066600
O1501	O150	0.856000	0.065300	0.120400
O1511	O151	0.736900	0.191900	0.178000
O1521	O152	0.764400	0.235500	0.087000
O1531	O153	0.743800	0.006100	0.050700
O1541	O154	0.773300	0.056000	0.947900
O1551	O155	0.598700	0.100900	0.001100
O1561	O156	0.613500	0.146300	0.113600
O1571	O157	0.691500	0.117300	0.184300
O1581	O158	0.644500	0.194400	0.009800
O1591	O159	0.842100	0.025700	0.020600
O1601	O160	0.811100	0.138200	0.153000
O1611	O161	0.836000	0.174700	0.072600
O1621	O162	0.657100	0.039300	0.162500
O1631	O163	0.760300	0.044500	0.152000
O1641	O164	0.818700	0.137200	0.954400
O1651	O165	0.730800	0.033800	0.436600
O1661	O166	0.818800	0.033400	0.446300
O1671	O167	0.056500	0.264100	0.917500
O1681	O168	0.025800	0.320100	0.962600
Mo731	Mo73	0.804300	0.976950	0.593910
Mo741	Mo74	0.665000	0.827730	0.660660
Mo751	Mo75	0.792410	0.802530	0.632680
Mo761	Mo76	0.838360	0.920070	0.473580
Mo771	Mo77	0.700150	0.771160	0.540440
Mo781	Mo78	0.604890	0.955970	0.537000
Mo791	Mo79	0.704920	0.988880	0.618100
Mo801	Mo80	0.687850	0.806810	0.446220
Mo811	Mo81	0.635290	0.905530	0.430610
Mo821	Mo82	0.626730	0.904870	0.655280
Mo831	Mo83	0.765840	0.890810	0.408990
Mo841	Mo84	0.864680	0.879900	0.597830
Zn251	Zn25	0.764380	0.900510	0.685530
Zn261	Zn26	0.720300	0.983050	0.477610
Zn271	Zn27	0.593920	0.846840	0.538270
Zn281	Zn28	0.817990	0.813080	0.498630
C731	C73	0.748300	0.893700	0.801200
H491	H49	0.725400	0.872400	0.791200
C741	C74	0.748000	0.906000	0.852200
H501	H50	0.726000	0.893000	0.876500
C751	C75	0.781100	0.938700	0.868700
C761	C76	0.816600	0.955100	0.830000
H511	H51	0.840500	0.975800	0.839100
C771	C77	0.814400	0.939400	0.778900
H521	H52	0.838300	0.949600	0.754300
C781	C78	0.778100	0.958400	0.922500
C791	C79	0.918300	0.800200	0.449800
H531	H53	0.914100	0.828200	0.439700
C801	C80	0.964700	0.779000	0.439800
H541	H54	0.991800	0.793400	0.423300
C811	C81	0.971700	0.738600	0.453100
C821	C82	0.931300	0.717600	0.476600
H551	H55	0.933800	0.689500	0.486600
C831	C83	0.886700	0.740700	0.484700
H561	H56	0.858400	0.726500	0.499200
C841	C84	0.023000	0.717000	0.442400
N131	N13	0.780100	0.910400	0.762600
N141	N14	0.880400	0.779700	0.474100
O1691	O169	0.651600	0.958400	0.473200
O1701	O170	0.694400	0.914400	0.392600
O1711	O171	0.633100	0.848400	0.422200
O1721	O172	0.750700	0.788500	0.486800
O1731	O173	0.581600	0.930500	0.598400
O1741	O174	0.659200	0.775100	0.610900
O1751	O175	0.883700	0.891500	0.529600
O1761	O176	0.734400	0.836300	0.398500
O1771	O177	0.644400	0.996400	0.566600
O1781	O178	0.856000	0.934700	0.620400
O1791	O179	0.736900	0.808100	0.678000
O1801	O180	0.764400	0.764500	0.587000
O1811	O181	0.743800	0.993900	0.550700
O1821	O182	0.773300	0.944000	0.447900
O1831	O183	0.598700	0.899100	0.501100
O1841	O184	0.613500	0.853700	0.613600
O1851	O185	0.691500	0.882700	0.684300
O1861	O186	0.644500	0.805600	0.509800
O1871	O187	0.842100	0.974300	0.520600
O1881	O188	0.811100	0.861800	0.653000
O1891	O189	0.836000	0.825300	0.572600
O1901	O190	0.657100	0.960700	0.662500
O1911	O191	0.760300	0.955500	0.652000
O1921	O192	0.818700	0.862800	0.454400
O1931	O193	0.730800	0.966200	0.936600
O1941	O194	0.818800	0.966600	0.946300
O1951	O195	0.056500	0.735900	0.417500
O1961	O196	0.025800	0.679900	0.462600
Mo851	Mo85	0.304300	0.523050	0.406090
Mo861	Mo86	0.165000	0.672270	0.339340
Mo871	Mo87	0.292410	0.697470	0.367320
Mo881	Mo88	0.338360	0.579930	0.526420
Mo891	Mo89	0.200150	0.728840	0.459560
Mo901	Mo90	0.104890	0.544030	0.463000
Mo911	Mo91	0.204920	0.511120	0.381900
Mo921	Mo92	0.187850	0.693190	0.553780
Mo931	Mo93	0.135290	0.594470	0.569390
Mo941	Mo94	0.126730	0.595130	0.344720
Mo951	Mo95	0.265840	0.609190	0.591010
Mo961	Mo96	0.364680	0.620100	0.402170
Zn291	Zn29	0.264380	0.599490	0.314470
Zn301	Zn30	0.220300	0.516950	0.522390
Zn311	Zn31	0.093920	0.653160	0.461730
Zn321	Zn32	0.317990	0.686920	0.501370
C851	C85	0.248300	0.606300	0.198800
H571	H57	0.225400	0.627600	0.208800
C861	C86	0.248000	0.594000	0.147800
H581	H58	0.226000	0.607000	0.123500
C871	C87	0.281100	0.561300	0.131300
C881	C88	0.316600	0.544900	0.170000
H591	H59	0.340500	0.524200	0.160900
C891	C89	0.314400	0.560600	0.221100
H601	H60	0.338300	0.550400	0.245700
C901	C90	0.278100	0.541600	0.077500
C911	C91	0.418300	0.699800	0.550200
H611	H61	0.414100	0.671800	0.560300
C921	C92	0.464700	0.721000	0.560200
H621	H62	0.491800	0.706600	0.576700
C931	C93	0.471700	0.761400	0.546900
C941	C94	0.431300	0.782400	0.523400
H631	H63	0.433800	0.810500	0.513400
C951	C95	0.386700	0.759300	0.515300
H641	H64	0.358400	0.773500	0.500800
C961	C96	0.523000	0.783000	0.557600
N151	N15	0.280100	0.589600	0.237400
N161	N16	0.380400	0.720300	0.525900
O1971	O197	0.151600	0.541600	0.526800
O1981	O198	0.194400	0.585600	0.607400
O1991	O199	0.133100	0.651600	0.577800
O2001	O200	0.250700	0.711500	0.513200
O2011	O201	0.081600	0.569500	0.401600
O2021	O202	0.159200	0.724900	0.389100
O2031	O203	0.383700	0.608500	0.470400
O2041	O204	0.234400	0.663700	0.601500
O2051	O205	0.144400	0.503600	0.433400
O2061	O206	0.356000	0.565300	0.379600
O2071	O207	0.236900	0.691900	0.322000
O2081	O208	0.264400	0.735500	0.413000
O2091	O209	0.243800	0.506100	0.449300
O2101	O210	0.273300	0.556000	0.552100
O2111	O211	0.098700	0.600900	0.498900
O2121	O212	0.113500	0.646300	0.386400
O2131	O213	0.191500	0.617300	0.315700
O2141	O214	0.144500	0.694400	0.490200
O2151	O215	0.342100	0.525700	0.479400
O2161	O216	0.311100	0.638200	0.347000
O2171	O217	0.336000	0.674700	0.427400
O2181	O218	0.157100	0.539300	0.337500
O2191	O219	0.260300	0.544500	0.348000
O2201	O220	0.318700	0.637200	0.545600
O2211	O221	0.230800	0.533800	0.063400
O2221	O222	0.318800	0.533400	0.053700
O2231	O223	0.556500	0.764100	0.582500
O2241	O224	0.525800	0.820100	0.537400
