data_MAXHOK_clean_PM
_symmetry_space_group_name_H-M	'P1'
_cell_length_a	8.649000
_cell_length_b	10.323000
_cell_length_c	10.738000
_cell_angle_alpha	90.000000
_cell_angle_beta	90.000000
_cell_angle_gamma	90.000000
_symmetry_Int_Tables_number 1

loop_
_symmetry_equiv_pos_as_xyz
'x,y,z'

loop_
_atom_site_label
_atom_site_type_symbol
_atom_site_fract_x
_atom_site_fract_y
_atom_site_fract_z
Nd11	Nd1	0.492910	0.398260	0.613020
P11	P1	0.693500	0.581700	0.861700
P21	P2	0.342600	0.584700	0.892800
O11	O1	0.675800	0.470600	0.769500
O21	O2	0.671200	0.715300	0.801500
O31	O3	0.841900	0.569900	0.935900
O41	O4	0.217600	0.543300	0.985200
O51	O5	0.325800	0.726500	0.857500
O61	O6	0.343900	0.494200	0.780500
O71	O7	0.543300	0.695000	0.045800
H11	H1	0.631500	0.698100	0.079500
C11	C1	0.531600	0.574700	0.970600
C21	C2	0.539200	0.457000	0.056600
H21	H2	0.638700	0.453800	0.096100
H31	H3	0.523600	0.379500	0.008800
H41	H4	0.460100	0.463700	0.119000
Nd21	Nd2	0.007090	0.601740	0.113020
P31	P3	0.806500	0.418300	0.361700
P41	P4	0.157400	0.415300	0.392800
O81	O8	0.824200	0.529400	0.269500
O91	O9	0.828800	0.284700	0.301500
O101	O10	0.658100	0.430100	0.435900
O111	O11	0.282400	0.456700	0.485200
O121	O12	0.174200	0.273500	0.357500
O131	O13	0.156100	0.505800	0.280500
O141	O14	0.956700	0.305000	0.545800
H51	H5	0.868500	0.301900	0.579500
C31	C3	0.968400	0.425300	0.470600
C41	C4	0.960800	0.543000	0.556600
H61	H6	0.861300	0.546200	0.596100
H71	H7	0.976400	0.620500	0.508800
H81	H8	0.039900	0.536300	0.619000
Nd31	Nd3	0.507090	0.898260	0.886980
P51	P5	0.306500	0.081700	0.638300
P61	P6	0.657400	0.084700	0.607200
O151	O15	0.324200	0.970600	0.730500
O161	O16	0.328800	0.215300	0.698500
O171	O17	0.158100	0.069900	0.564100
O181	O18	0.782400	0.043300	0.514800
O191	O19	0.674200	0.226500	0.642500
O201	O20	0.656100	0.994200	0.719500
O211	O21	0.456700	0.195000	0.454200
H91	H9	0.368500	0.198100	0.420500
C51	C5	0.468400	0.074700	0.529400
C61	C6	0.460800	0.957000	0.443400
H101	H10	0.361300	0.953800	0.403900
H111	H11	0.476400	0.879500	0.491200
H121	H12	0.539900	0.963700	0.381000
Nd41	Nd4	0.992910	0.101740	0.386980
P71	P7	0.193500	0.918300	0.138300
P81	P8	0.842600	0.915300	0.107200
O221	O22	0.175800	0.029400	0.230500
O231	O23	0.171200	0.784700	0.198500
O241	O24	0.341900	0.930100	0.064100
O251	O25	0.717600	0.956700	0.014800
O261	O26	0.825800	0.773500	0.142500
O271	O27	0.843900	0.005800	0.219500
O281	O28	0.043300	0.805000	0.954200
H131	H13	0.131500	0.801900	0.920500
C71	C7	0.031600	0.925300	0.029400
C81	C8	0.039200	0.043000	0.943400
H141	H14	0.138700	0.046200	0.903900
H151	H15	0.023600	0.120500	0.991200
H161	H16	0.960100	0.036300	0.881000
