data_MAYPIM_clean_PM
_symmetry_space_group_name_H-M	'P1'
_cell_length_a	6.872700
_cell_length_b	11.462000
_cell_length_c	24.986000
_cell_angle_alpha	98.790000
_cell_angle_beta	90.000000
_cell_angle_gamma	90.000000
_symmetry_Int_Tables_number 1

loop_
_symmetry_equiv_pos_as_xyz
'x,y,z'

loop_
_atom_site_label
_atom_site_type_symbol
_atom_site_fract_x
_atom_site_fract_y
_atom_site_fract_z
Ag11	Ag1	0.136260	0.917740	0.451800
Ag21	Ag2	0.504730	0.822810	0.551330
Ag31	Ag3	0.136260	0.082260	0.048200
Ag41	Ag4	0.504730	0.177190	0.948670
Ag51	Ag5	0.863740	0.082260	0.548200
Ag61	Ag6	0.495270	0.177190	0.448670
Ag71	Ag7	0.863740	0.917740	0.951800
Ag81	Ag8	0.495270	0.822810	0.051330
H11	H1	0.285400	0.139200	0.683400
H21	H2	0.056900	0.255300	0.735200
H31	H3	0.106000	0.272000	0.550300
H41	H4	0.866500	0.381800	0.602000
H51	H5	0.010100	0.546100	0.729000
H61	H6	0.756100	0.535900	0.657200
H71	H7	0.591000	0.436100	0.652300
H81	H8	0.750300	0.295100	0.764800
H91	H9	0.585100	0.289500	0.719300
H101	H10	0.330100	0.553600	0.774600
H111	H11	0.473600	0.808500	0.714500
H121	H12	0.283200	0.490900	0.640600
H131	H13	0.258300	0.901700	0.663600
H141	H14	0.066100	0.583500	0.589500
H151	H15	0.285400	0.860800	0.816600
H161	H16	0.056900	0.744700	0.764800
H171	H17	0.106000	0.728000	0.949700
H181	H18	0.866500	0.618200	0.898000
H191	H19	0.010100	0.453900	0.771000
H201	H20	0.756100	0.464100	0.842800
H211	H21	0.591000	0.563900	0.847700
H221	H22	0.750300	0.704900	0.735200
H231	H23	0.585100	0.710500	0.780700
H241	H24	0.330100	0.446400	0.725400
H251	H25	0.473600	0.191500	0.785500
H261	H26	0.283200	0.509100	0.859400
H271	H27	0.258300	0.098300	0.836400
H281	H28	0.066100	0.416500	0.910500
H291	H29	0.714600	0.860800	0.316600
H301	H30	0.943100	0.744700	0.264800
H311	H31	0.894000	0.728000	0.449700
H321	H32	0.133500	0.618200	0.398000
H331	H33	0.989900	0.453900	0.271000
H341	H34	0.243900	0.464100	0.342800
H351	H35	0.409000	0.563900	0.347700
H361	H36	0.249700	0.704900	0.235200
H371	H37	0.414900	0.710500	0.280700
H381	H38	0.669900	0.446400	0.225400
H391	H39	0.526400	0.191500	0.285500
H401	H40	0.716800	0.509100	0.359400
H411	H41	0.741700	0.098300	0.336400
H421	H42	0.933900	0.416500	0.410500
H431	H43	0.714600	0.139200	0.183400
H441	H44	0.943100	0.255300	0.235200
H451	H45	0.894000	0.272000	0.050300
H461	H46	0.133500	0.381800	0.102000
H471	H47	0.989900	0.546100	0.229000
H481	H48	0.243900	0.535900	0.157200
H491	H49	0.409000	0.436100	0.152300
H501	H50	0.249700	0.295100	0.264800
H511	H51	0.414900	0.289500	0.219300
H521	H52	0.669900	0.553600	0.274600
H531	H53	0.526400	0.808500	0.214500
H541	H54	0.716800	0.490900	0.140600
H551	H55	0.741700	0.901700	0.163600
H561	H56	0.933900	0.583500	0.089500
C11	C1	0.218900	0.195400	0.611900
C21	C2	0.202700	0.189800	0.666900
C31	C3	0.065300	0.258600	0.697500
C41	C4	0.094800	0.267900	0.587800
C51	C5	0.937800	0.333000	0.674600
C61	C6	0.953600	0.334500	0.618900
C71	C7	0.672200	0.489100	0.678200
C81	C8	0.800500	0.414900	0.710800
C91	C9	0.539400	0.573300	0.716500
C101	C10	0.668500	0.343500	0.744100
C111	C11	0.403300	0.639500	0.683300
C121	C12	0.391600	0.762200	0.689000
C131	C13	0.278900	0.574700	0.645300
C141	C14	0.264100	0.818000	0.658600
C151	C15	0.143900	0.751600	0.620700
C161	C16	0.150000	0.629400	0.614600
C171	C17	0.218900	0.804600	0.888100
C181	C18	0.202700	0.810200	0.833100
C191	C19	0.065300	0.741400	0.802500
C201	C20	0.094800	0.732100	0.912200
C211	C21	0.937800	0.667000	0.825400
C221	C22	0.953600	0.665500	0.881100
C231	C23	0.672200	0.510900	0.821800
C241	C24	0.800500	0.585100	0.789200
C251	C25	0.539400	0.426700	0.783500
C261	C26	0.668500	0.656500	0.755900
C271	C27	0.403300	0.360500	0.816700
C281	C28	0.391600	0.237800	0.811000
C291	C29	0.278900	0.425300	0.854700
C301	C30	0.264100	0.182000	0.841400
C311	C31	0.143900	0.248400	0.879300
C321	C32	0.150000	0.370600	0.885400
C331	C33	0.781100	0.804600	0.388100
C341	C34	0.797300	0.810200	0.333100
C351	C35	0.934700	0.741400	0.302500
C361	C36	0.905200	0.732100	0.412200
C371	C37	0.062200	0.667000	0.325400
C381	C38	0.046400	0.665500	0.381100
C391	C39	0.327800	0.510900	0.321800
C401	C40	0.199500	0.585100	0.289200
C411	C41	0.460600	0.426700	0.283500
C421	C42	0.331500	0.656500	0.255900
C431	C43	0.596700	0.360500	0.316700
C441	C44	0.608400	0.237800	0.311000
C451	C45	0.721100	0.425300	0.354700
C461	C46	0.735900	0.182000	0.341400
C471	C47	0.856100	0.248400	0.379300
C481	C48	0.850000	0.370600	0.385400
C491	C49	0.781100	0.195400	0.111900
C501	C50	0.797300	0.189800	0.166900
C511	C51	0.934700	0.258600	0.197500
C521	C52	0.905200	0.267900	0.087800
C531	C53	0.062200	0.333000	0.174600
C541	C54	0.046400	0.334500	0.118900
C551	C55	0.327800	0.489100	0.178200
C561	C56	0.199500	0.414900	0.210800
C571	C57	0.460600	0.573300	0.216500
C581	C58	0.331500	0.343500	0.244100
C591	C59	0.596700	0.639500	0.183300
C601	C60	0.608400	0.762200	0.189000
C611	C61	0.721100	0.574700	0.145300
C621	C62	0.735900	0.818000	0.158600
C631	C63	0.856100	0.751600	0.120700
C641	C64	0.850000	0.629400	0.114600
C651	C65	0.925300	0.500000	0.750000
C661	C66	0.414900	0.500000	0.750000
C671	C67	0.074700	0.500000	0.250000
C681	C68	0.585100	0.500000	0.250000
S11	S1	0.396500	0.112930	0.571160
S21	S2	0.999200	0.818220	0.575290
S31	S3	0.396500	0.887070	0.928840
S41	S4	0.999200	0.181780	0.924710
S51	S5	0.603500	0.887070	0.428840
S61	S6	0.000800	0.181780	0.424710
S71	S7	0.603500	0.112930	0.071160
S81	S8	0.000800	0.818220	0.075290
O11	O1	0.452700	0.015000	0.598960
O21	O2	0.305000	0.075700	0.519330
O31	O3	0.558800	0.192200	0.567100
O41	O4	0.965400	0.940300	0.599200
O51	O5	0.123000	0.809900	0.527200
O61	O6	0.825300	0.748300	0.565600
O71	O7	0.452700	0.985000	0.901040
O81	O8	0.305000	0.924300	0.980670
O91	O9	0.558800	0.807800	0.932900
O101	O10	0.965400	0.059700	0.900800
O111	O11	0.123000	0.190100	0.972800
O121	O12	0.825300	0.251700	0.934400
O131	O13	0.547300	0.985000	0.401040
O141	O14	0.695000	0.924300	0.480670
O151	O15	0.441200	0.807800	0.432900
O161	O16	0.034600	0.059700	0.400800
O171	O17	0.877000	0.190100	0.472800
O181	O18	0.174700	0.251700	0.434400
O191	O19	0.547300	0.015000	0.098960
O201	O20	0.695000	0.075700	0.019330
O211	O21	0.441200	0.192200	0.067100
O221	O22	0.034600	0.940300	0.099200
O231	O23	0.877000	0.809900	0.027200
O241	O24	0.174700	0.748300	0.065600
