data_MAZTIR_clean_PM
_symmetry_space_group_name_H-M	'P1'
_cell_length_a	6.843400
_cell_length_b	19.014000
_cell_length_c	9.420300
_cell_angle_alpha	90.000000
_cell_angle_beta	90.000000
_cell_angle_gamma	90.000000
_symmetry_Int_Tables_number 1

loop_
_symmetry_equiv_pos_as_xyz
'x,y,z'

loop_
_atom_site_label
_atom_site_type_symbol
_atom_site_fract_x
_atom_site_fract_y
_atom_site_fract_z
Ba11	Ba1	0.750000	0.750000	0.471820
Ba21	Ba2	0.250000	0.250000	0.028180
Ba31	Ba3	0.250000	0.250000	0.528180
Ba41	Ba4	0.750000	0.750000	0.971820
Zn11	Zn1	0.000000	0.500000	0.000000
Zn21	Zn2	0.500000	0.000000	0.000000
Zn31	Zn3	0.500000	0.500000	0.500000
Zn41	Zn4	0.000000	0.000000	0.500000
H11	H1	0.436000	0.570500	0.835700
H21	H2	0.644000	0.584500	0.897000
H31	H3	0.064000	0.929500	0.835700
H41	H4	0.856000	0.915500	0.897000
H51	H5	0.936000	0.429500	0.664300
H61	H6	0.144000	0.415500	0.603000
H71	H7	0.564000	0.070500	0.664300
H81	H8	0.356000	0.084500	0.603000
H91	H9	0.564000	0.429500	0.164300
H101	H10	0.356000	0.415500	0.103000
H111	H11	0.936000	0.070500	0.164300
H121	H12	0.144000	0.084500	0.103000
H131	H13	0.064000	0.570500	0.335700
H141	H14	0.856000	0.584500	0.397000
H151	H15	0.436000	0.929500	0.335700
H161	H16	0.644000	0.915500	0.397000
C11	C1	0.622400	0.489370	0.800700
C21	C2	0.574400	0.566780	0.814700
C31	C3	0.617500	0.615610	0.692100
C41	C4	0.877600	0.010630	0.800700
C51	C5	0.925600	0.933220	0.814700
C61	C6	0.882500	0.884390	0.692100
C71	C7	0.122400	0.510630	0.699300
C81	C8	0.074400	0.433220	0.685300
C91	C9	0.117500	0.384390	0.807900
C101	C10	0.377600	0.989370	0.699300
C111	C11	0.425600	0.066780	0.685300
C121	C12	0.382500	0.115610	0.807900
C131	C13	0.377600	0.510630	0.199300
C141	C14	0.425600	0.433220	0.185300
C151	C15	0.382500	0.384390	0.307900
C161	C16	0.122400	0.989370	0.199300
C171	C17	0.074400	0.066780	0.185300
C181	C18	0.117500	0.115610	0.307900
C191	C19	0.877600	0.489370	0.300700
C201	C20	0.925600	0.566780	0.314700
C211	C21	0.882500	0.615610	0.192100
C221	C22	0.622400	0.010630	0.300700
C231	C23	0.574400	0.933220	0.314700
C241	C24	0.617500	0.884390	0.192100
O11	O1	0.709200	0.459890	0.901500
O21	O2	0.565800	0.455630	0.690800
O31	O3	0.613800	0.593840	0.564400
O41	O4	0.654600	0.678030	0.722600
O51	O5	0.790800	0.040110	0.901500
O61	O6	0.934200	0.044370	0.690800
O71	O7	0.886200	0.906160	0.564400
O81	O8	0.845400	0.821970	0.722600
O91	O9	0.209200	0.540110	0.598500
O101	O10	0.065800	0.544370	0.809200
O111	O11	0.113800	0.406160	0.935600
O121	O12	0.154600	0.321970	0.777400
O131	O13	0.290800	0.959890	0.598500
O141	O14	0.434200	0.955630	0.809200
O151	O15	0.386200	0.093840	0.935600
O161	O16	0.345400	0.178030	0.777400
O171	O17	0.290800	0.540110	0.098500
O181	O18	0.434200	0.544370	0.309200
O191	O19	0.386200	0.406160	0.435600
O201	O20	0.345400	0.321970	0.277400
O211	O21	0.209200	0.959890	0.098500
O221	O22	0.065800	0.955630	0.309200
O231	O23	0.113800	0.093840	0.435600
O241	O24	0.154600	0.178030	0.277400
O251	O25	0.790800	0.459890	0.401500
O261	O26	0.934200	0.455630	0.190800
O271	O27	0.886200	0.593840	0.064400
O281	O28	0.845400	0.678030	0.222600
O291	O29	0.709200	0.040110	0.401500
O301	O30	0.565800	0.044370	0.190800
O311	O31	0.613800	0.906160	0.064400
O321	O32	0.654600	0.821970	0.222600
