data_MECVIA_clean_PM
_symmetry_space_group_name_H-M	'P1'
_cell_length_a	16.880700
_cell_length_b	16.880700
_cell_length_c	16.880700
_cell_angle_alpha	90.000000
_cell_angle_beta	90.000000
_cell_angle_gamma	90.000000
_symmetry_Int_Tables_number 1

loop_
_symmetry_equiv_pos_as_xyz
'x,y,z'

loop_
_atom_site_label
_atom_site_type_symbol
_atom_site_fract_x
_atom_site_fract_y
_atom_site_fract_z
O11	O1	0.805710	0.514540	0.906360
O21	O2	0.305710	0.014540	0.406360
O31	O3	0.194290	0.485460	0.906360
O41	O4	0.694290	0.985460	0.406360
O51	O5	0.194290	0.514540	0.093640
O61	O6	0.694290	0.014540	0.593640
O71	O7	0.805710	0.485460	0.093640
O81	O8	0.305710	0.985460	0.593640
O91	O9	0.906360	0.805710	0.514540
O101	O10	0.406360	0.305710	0.014540
O111	O11	0.906360	0.194290	0.485460
O121	O12	0.406360	0.694290	0.985460
O131	O13	0.093640	0.194290	0.514540
O141	O14	0.593640	0.694290	0.014540
O151	O15	0.093640	0.805710	0.485460
O161	O16	0.593640	0.305710	0.985460
O171	O17	0.514540	0.906360	0.805710
O181	O18	0.014540	0.406360	0.305710
O191	O19	0.485460	0.906360	0.194290
O201	O20	0.985460	0.406360	0.694290
O211	O21	0.514540	0.093640	0.194290
O221	O22	0.014540	0.593640	0.694290
O231	O23	0.485460	0.093640	0.805710
O241	O24	0.985460	0.593640	0.305710
O251	O25	0.514540	0.805710	0.906360
O261	O26	0.014540	0.305710	0.406360
O271	O27	0.485460	0.194290	0.906360
O281	O28	0.985460	0.694290	0.406360
O291	O29	0.514540	0.194290	0.093640
O301	O30	0.014540	0.694290	0.593640
O311	O31	0.485460	0.805710	0.093640
O321	O32	0.985460	0.305710	0.593640
O331	O33	0.805710	0.906360	0.514540
O341	O34	0.305710	0.406360	0.014540
O351	O35	0.194290	0.906360	0.485460
O361	O36	0.694290	0.406360	0.985460
O371	O37	0.194290	0.093640	0.514540
O381	O38	0.694290	0.593640	0.014540
O391	O39	0.805710	0.093640	0.485460
O401	O40	0.305710	0.593640	0.985460
O411	O41	0.906360	0.514540	0.805710
O421	O42	0.406360	0.014540	0.305710
O431	O43	0.906360	0.485460	0.194290
O441	O44	0.406360	0.985460	0.694290
O451	O45	0.093640	0.514540	0.194290
O461	O46	0.593640	0.014540	0.694290
O471	O47	0.093640	0.485460	0.805710
O481	O48	0.593640	0.985460	0.305710
Ga11	Ga1	0.000000	0.500000	0.000000
Ga21	Ga2	0.500000	0.000000	0.500000
Ga31	Ga3	0.000000	0.000000	0.500000
Ga41	Ga4	0.500000	0.500000	0.000000
Ga51	Ga5	0.500000	0.000000	0.000000
Ga61	Ga6	0.000000	0.500000	0.500000
Co11	Co1	0.750000	0.500000	0.000000
Co21	Co2	0.250000	0.500000	0.000000
Co31	Co3	0.000000	0.750000	0.500000
Co41	Co4	0.000000	0.250000	0.500000
Co51	Co5	0.500000	0.000000	0.750000
Co61	Co6	0.500000	0.000000	0.250000
Co71	Co7	0.500000	0.750000	0.000000
Co81	Co8	0.500000	0.250000	0.000000
Co91	Co9	0.750000	0.000000	0.500000
Co101	Co10	0.250000	0.000000	0.500000
Co111	Co11	0.000000	0.500000	0.750000
Co121	Co12	0.000000	0.500000	0.250000
P11	P1	0.876170	0.564110	0.876170
O491	O49	0.852750	0.646630	0.852750
O501	O50	0.940570	0.568610	0.940570
P21	P2	0.376170	0.064110	0.376170
O511	O51	0.352750	0.146630	0.352750
O521	O52	0.440570	0.068610	0.440570
P31	P3	0.123830	0.435890	0.876170
O531	O53	0.147250	0.353370	0.852750
O541	O54	0.059430	0.431390	0.940570
P41	P4	0.623830	0.935890	0.376170
O551	O55	0.647250	0.853370	0.352750
O561	O56	0.559430	0.931390	0.440570
P51	P5	0.123830	0.564110	0.123830
O571	O57	0.147250	0.646630	0.147250
O581	O58	0.059430	0.568610	0.059430
P61	P6	0.623830	0.064110	0.623830
O591	O59	0.647250	0.146630	0.647250
O601	O60	0.559430	0.068610	0.559430
P71	P7	0.876170	0.435890	0.123830
O611	O61	0.852750	0.353370	0.147250
O621	O62	0.940570	0.431390	0.059430
P81	P8	0.376170	0.935890	0.623830
O631	O63	0.352750	0.853370	0.647250
O641	O64	0.440570	0.931390	0.559430
P91	P9	0.876170	0.876170	0.564110
O651	O65	0.852750	0.852750	0.646630
O661	O66	0.940570	0.940570	0.568610
P101	P10	0.376170	0.376170	0.064110
O671	O67	0.352750	0.352750	0.146630
O681	O68	0.440570	0.440570	0.068610
P111	P11	0.876170	0.123830	0.435890
O691	O69	0.852750	0.147250	0.353370
O701	O70	0.940570	0.059430	0.431390
P121	P12	0.376170	0.623830	0.935890
O711	O71	0.352750	0.647250	0.853370
O721	O72	0.440570	0.559430	0.931390
P131	P13	0.123830	0.123830	0.564110
O731	O73	0.147250	0.147250	0.646630
O741	O74	0.059430	0.059430	0.568610
P141	P14	0.623830	0.623830	0.064110
O751	O75	0.647250	0.647250	0.146630
O761	O76	0.559430	0.559430	0.068610
P151	P15	0.123830	0.876170	0.435890
O771	O77	0.147250	0.852750	0.353370
O781	O78	0.059430	0.940570	0.431390
P161	P16	0.623830	0.376170	0.935890
O791	O79	0.647250	0.352750	0.853370
O801	O80	0.559430	0.440570	0.931390
P171	P17	0.564110	0.876170	0.876170
O811	O81	0.646630	0.852750	0.852750
O821	O82	0.568610	0.940570	0.940570
P181	P18	0.064110	0.376170	0.376170
O831	O83	0.146630	0.352750	0.352750
O841	O84	0.068610	0.440570	0.440570
P191	P19	0.435890	0.876170	0.123830
O851	O85	0.353370	0.852750	0.147250
O861	O86	0.431390	0.940570	0.059430
P201	P20	0.935890	0.376170	0.623830
O871	O87	0.853370	0.352750	0.647250
O881	O88	0.931390	0.440570	0.559430
P211	P21	0.564110	0.123830	0.123830
O891	O89	0.646630	0.147250	0.147250
O901	O90	0.568610	0.059430	0.059430
P221	P22	0.064110	0.623830	0.623830
O911	O91	0.146630	0.647250	0.647250
O921	O92	0.068610	0.559430	0.559430
P231	P23	0.435890	0.123830	0.876170
O931	O93	0.353370	0.147250	0.852750
O941	O94	0.431390	0.059430	0.940570
P241	P24	0.935890	0.623830	0.376170
O951	O95	0.853370	0.647250	0.352750
O961	O96	0.931390	0.559430	0.440570
