data_MECWIB_clean_PM
_symmetry_space_group_name_H-M	'P1'
_cell_length_a	22.976500
_cell_length_b	22.976500
_cell_length_c	22.976500
_cell_angle_alpha	109.471000
_cell_angle_beta	109.471000
_cell_angle_gamma	109.471000
_symmetry_Int_Tables_number 1

loop_
_symmetry_equiv_pos_as_xyz
'x,y,z'

loop_
_atom_site_label
_atom_site_type_symbol
_atom_site_fract_x
_atom_site_fract_y
_atom_site_fract_z
Zn11	Zn1	0.072640	0.036320	0.286320
Zn21	Zn2	0.250000	0.786320	0.213680
Zn31	Zn3	0.250000	0.463680	0.536320
Zn41	Zn4	0.427360	0.713680	0.963680
Zn51	Zn5	0.036320	0.250000	0.963680
Zn61	Zn6	0.463680	0.427360	0.213680
Zn71	Zn7	0.786320	0.072640	0.536320
Zn81	Zn8	0.713680	0.250000	0.286320
Zn91	Zn9	0.786320	0.713680	0.750000
Zn101	Zn10	0.036320	0.786320	0.572640
Zn111	Zn11	0.713680	0.463680	0.927360
Zn121	Zn12	0.463680	0.036320	0.750000
Zn131	Zn13	0.927360	0.963680	0.713680
Zn141	Zn14	0.750000	0.213680	0.786320
Zn151	Zn15	0.750000	0.536320	0.463680
Zn161	Zn16	0.572640	0.286320	0.036320
Zn171	Zn17	0.963680	0.750000	0.036320
Zn181	Zn18	0.536320	0.572640	0.786320
Zn191	Zn19	0.213680	0.927360	0.463680
Zn201	Zn20	0.286320	0.750000	0.713680
Zn211	Zn21	0.213680	0.286320	0.250000
Zn221	Zn22	0.963680	0.213680	0.427360
Zn231	Zn23	0.286320	0.536320	0.072640
Zn241	Zn24	0.536320	0.963680	0.250000
H11	H1	0.230800	0.099700	0.310100
H21	H2	0.289200	0.203400	0.298400
H31	H3	0.055100	0.157200	0.178700
H41	H4	0.023100	0.105200	0.203500
H51	H5	0.008000	0.202000	0.244200
H61	H6	0.092200	0.254300	0.285100
H71	H7	0.059500	0.201000	0.310500
H81	H8	0.289600	0.920700	0.189900
H91	H9	0.405000	0.990800	0.201600
H101	H10	0.478500	0.876400	0.321300
H111	H11	0.401700	0.819600	0.296500
H121	H12	0.457800	0.763800	0.255800
H131	H13	0.469200	0.807100	0.214900
H141	H14	0.390500	0.749000	0.189500
H151	H15	0.210400	0.400300	0.631100
H161	H16	0.095000	0.296600	0.585800
H171	H17	0.021500	0.342800	0.397900
H181	H18	0.098300	0.394800	0.417900
H191	H19	0.042200	0.298000	0.306000
H201	H20	0.030800	0.245700	0.337900
H211	H21	0.109500	0.299000	0.358500
H221	H22	0.269200	0.579300	0.868900
H231	H23	0.210800	0.509200	0.914200
H241	H24	0.444900	0.623600	0.102100
H251	H25	0.476900	0.680400	0.082100
H261	H26	0.492000	0.736200	0.194000
H271	H27	0.407800	0.692900	0.162100
H281	H28	0.440500	0.751000	0.141500
H291	H29	0.131100	0.210400	0.900300
H301	H30	0.085800	0.095000	0.796600
H311	H31	0.897900	0.021500	0.842800
H321	H32	0.917900	0.098300	0.894800
H331	H33	0.806000	0.042200	0.798000
H341	H34	0.837900	0.030800	0.745700
H351	H35	0.858500	0.109500	0.799000
H361	H36	0.368900	0.269200	0.079300
H371	H37	0.414200	0.210800	0.009200
H381	H38	0.602100	0.444900	0.123600
H391	H39	0.582100	0.476900	0.180400
H401	H40	0.694000	0.492000	0.236200
H411	H41	0.662100	0.407800	0.192900
H421	H42	0.641500	0.440500	0.251000
H431	H43	0.810100	0.230800	0.599700
H441	H44	0.798400	0.289200	0.703400
H451	H45	0.678700	0.055100	0.657200
H461	H46	0.703500	0.023100	0.605200
H471	H47	0.744200	0.008000	0.702000
H481	H48	0.785100	0.092200	0.754300
H491	H49	0.810500	0.059500	0.701000
H501	H50	0.689900	0.289600	0.420700
H511	H51	0.701600	0.405000	0.490800
H521	H52	0.821300	0.478500	0.376400
H531	H53	0.796500	0.401700	0.319600
H541	H54	0.755800	0.457800	0.263800
H551	H55	0.714900	0.469200	0.307100
H561	H56	0.689500	0.390500	0.249000
H571	H57	0.920700	0.689900	0.789600
H581	H58	0.990800	0.701600	0.905000
H591	H59	0.876400	0.821300	0.978500
H601	H60	0.819600	0.796500	0.901700
H611	H61	0.763800	0.755800	0.957800
H621	H62	0.807100	0.714900	0.969200
H631	H63	0.749000	0.689500	0.890500
H641	H64	0.099700	0.810100	0.730800
H651	H65	0.203400	0.798400	0.789200
H661	H66	0.157200	0.678700	0.555100
H671	H67	0.105200	0.703500	0.523100
H681	H68	0.202000	0.744200	0.508000
H691	H69	0.254300	0.785100	0.592200
H701	H70	0.201000	0.810500	0.559500
H711	H71	0.579300	0.368900	0.769200
H721	H72	0.509200	0.414200	0.710800
H731	H73	0.623600	0.602100	0.944900
H741	H74	0.680400	0.582100	0.976900
H751	H75	0.736200	0.694000	0.992000
H761	H76	0.692900	0.662100	0.907800
H771	H77	0.751000	0.641500	0.940500
H781	H78	0.400300	0.131100	0.710400
H791	H79	0.296600	0.085800	0.595000
H801	H80	0.342800	0.897900	0.521500
H811	H81	0.394800	0.917900	0.598300
H821	H82	0.298000	0.806000	0.542200
H831	H83	0.245700	0.837900	0.530800
H841	H84	0.299000	0.858500	0.609500
H851	H85	0.400300	0.269200	0.189900
H861	H86	0.296600	0.210800	0.201600
H871	H87	0.342800	0.444900	0.321300
H881	H88	0.394800	0.476900	0.296500
H891	H89	0.298000	0.492000	0.255800
H901	H90	0.245700	0.407800	0.214900
H911	H91	0.299000	0.440500	0.189500
H921	H92	0.579300	0.210400	0.310100
H931	H93	0.509200	0.095000	0.298400
H941	H94	0.623600	0.021500	0.178700
H951	H95	0.680400	0.098300	0.203500
H961	H96	0.736200	0.042200	0.244200
H971	H97	0.692900	0.030800	0.285100
H981	H98	0.751000	0.109500	0.310500
H991	H99	0.099700	0.289600	0.868900
H1001	H100	0.203400	0.405000	0.914200
H1011	H101	0.157200	0.478500	0.102100
H1021	H102	0.105200	0.401700	0.082100
H1031	H103	0.202000	0.457800	0.194000
H1041	H104	0.254300	0.469200	0.162100
H1051	H105	0.201000	0.390500	0.141500
H1061	H106	0.920700	0.230800	0.631100
H1071	H107	0.990800	0.289200	0.585800
H1081	H108	0.876400	0.055100	0.397900
H1091	H109	0.819600	0.023100	0.417900
H1101	H110	0.763800	0.008000	0.306000
H1111	H111	0.807100	0.092200	0.337900
H1121	H112	0.749000	0.059500	0.358500
H1131	H113	0.289600	0.368900	0.599700
H1141	H114	0.405000	0.414200	0.703400
H1151	H115	0.478500	0.602100	0.657200
H1161	H116	0.401700	0.582100	0.605200
H1171	H117	0.457800	0.694000	0.702000
H1181	H118	0.469200	0.662100	0.754300
H1191	H119	0.390500	0.641500	0.701000
H1201	H120	0.230800	0.131100	0.420700
H1211	H121	0.289200	0.085800	0.490800
H1221	H122	0.055100	0.897900	0.376400
H1231	H123	0.023100	0.917900	0.319600
H1241	H124	0.008000	0.806000	0.263800
H1251	H125	0.092200	0.837900	0.307100
H1261	H126	0.059500	0.858500	0.249000
H1271	H127	0.269200	0.689900	0.900300
H1281	H128	0.210800	0.701600	0.796600
H1291	H129	0.444900	0.821300	0.842800
H1301	H130	0.476900	0.796500	0.894800
H1311	H131	0.492000	0.755800	0.798000
H1321	H132	0.407800	0.714900	0.745700
H1331	H133	0.440500	0.689500	0.799000
H1341	H134	0.210400	0.810100	0.079300
H1351	H135	0.095000	0.798400	0.009200
H1361	H136	0.021500	0.678700	0.123600
H1371	H137	0.098300	0.703500	0.180400
H1381	H138	0.042200	0.744200	0.236200
H1391	H139	0.030800	0.785100	0.192900
H1401	H140	0.109500	0.810500	0.251000
H1411	H141	0.810100	0.579300	0.710400
H1421	H142	0.798400	0.509200	0.595000
H1431	H143	0.678700	0.623600	0.521500
H1441	H144	0.703500	0.680400	0.598300
H1451	H145	0.744200	0.736200	0.542200
H1461	H146	0.785100	0.692900	0.530800
H1471	H147	0.810500	0.751000	0.609500
H1481	H148	0.689900	0.400300	0.769200
H1491	H149	0.701600	0.296600	0.710800
H1501	H150	0.821300	0.342800	0.944900
H1511	H151	0.796500	0.394800	0.976900
H1521	H152	0.755800	0.298000	0.992000
H1531	H153	0.714900	0.245700	0.907800
H1541	H154	0.689500	0.299000	0.940500
H1551	H155	0.131100	0.920700	0.730800
H1561	H156	0.085800	0.990800	0.789200
H1571	H157	0.897900	0.876400	0.555100
H1581	H158	0.917900	0.819600	0.523100
H1591	H159	0.806000	0.763800	0.508000
H1601	H160	0.837900	0.807100	0.592200
H1611	H161	0.858500	0.749000	0.559500
H1621	H162	0.368900	0.099700	0.789600
H1631	H163	0.414200	0.203400	0.905000
H1641	H164	0.602100	0.157200	0.978500
H1651	H165	0.582100	0.105200	0.901700
H1661	H166	0.694000	0.202000	0.957800
H1671	H167	0.662100	0.254300	0.969200
H1681	H168	0.641500	0.201000	0.890500
H1691	H169	0.769200	0.900300	0.689900
H1701	H170	0.710800	0.796600	0.701600
H1711	H171	0.944900	0.842800	0.821300
H1721	H172	0.976900	0.894800	0.796500
H1731	H173	0.992000	0.798000	0.755800
H1741	H174	0.907800	0.745700	0.714900
H1751	H175	0.940500	0.799000	0.689500
H1761	H176	0.710400	0.079300	0.810100
H1771	H177	0.595000	0.009200	0.798400
H1781	H178	0.521500	0.123600	0.678700
H1791	H179	0.598300	0.180400	0.703500
H1801	H180	0.542200	0.236200	0.744200
H1811	H181	0.530800	0.192900	0.785100
H1821	H182	0.609500	0.251000	0.810500
H1831	H183	0.789600	0.599700	0.368900
H1841	H184	0.905000	0.703400	0.414200
H1851	H185	0.978500	0.657200	0.602100
H1861	H186	0.901700	0.605200	0.582100
H1871	H187	0.957800	0.702000	0.694000
H1881	H188	0.969200	0.754300	0.662100
H1891	H189	0.890500	0.701000	0.641500
H1901	H190	0.730800	0.420700	0.131100
H1911	H191	0.789200	0.490800	0.085800
H1921	H192	0.555100	0.376400	0.897900
H1931	H193	0.523100	0.319600	0.917900
H1941	H194	0.508000	0.263800	0.806000
H1951	H195	0.592200	0.307100	0.837900
H1961	H196	0.559500	0.249000	0.858500
H1971	H197	0.868900	0.789600	0.099700
H1981	H198	0.914200	0.905000	0.203400
H1991	H199	0.102100	0.978500	0.157200
H2001	H200	0.082100	0.901700	0.105200
H2011	H201	0.194000	0.957800	0.202000
H2021	H202	0.162100	0.969200	0.254300
H2031	H203	0.141500	0.890500	0.201000
H2041	H204	0.631100	0.730800	0.920700
H2051	H205	0.585800	0.789200	0.990800
H2061	H206	0.397900	0.555100	0.876400
H2071	H207	0.417900	0.523100	0.819600
H2081	H208	0.306000	0.508000	0.763800
H2091	H209	0.337900	0.592200	0.807100
H2101	H210	0.358500	0.559500	0.749000
H2111	H211	0.189900	0.769200	0.400300
H2121	H212	0.201600	0.710800	0.296600
H2131	H213	0.321300	0.944900	0.342800
H2141	H214	0.296500	0.976900	0.394800
H2151	H215	0.255800	0.992000	0.298000
H2161	H216	0.214900	0.907800	0.245700
H2171	H217	0.189500	0.940500	0.299000
H2181	H218	0.310100	0.710400	0.579300
H2191	H219	0.298400	0.595000	0.509200
H2201	H220	0.178700	0.521500	0.623600
H2211	H221	0.203500	0.598300	0.680400
H2221	H222	0.244200	0.542200	0.736200
H2231	H223	0.285100	0.530800	0.692900
H2241	H224	0.310500	0.609500	0.751000
H2251	H225	0.079300	0.310100	0.210400
H2261	H226	0.009200	0.298400	0.095000
H2271	H227	0.123600	0.178700	0.021500
H2281	H228	0.180400	0.203500	0.098300
H2291	H229	0.236200	0.244200	0.042200
H2301	H230	0.192900	0.285100	0.030800
H2311	H231	0.251000	0.310500	0.109500
H2321	H232	0.900300	0.189900	0.269200
H2331	H233	0.796600	0.201600	0.210800
H2341	H234	0.842800	0.321300	0.444900
H2351	H235	0.894800	0.296500	0.476900
H2361	H236	0.798000	0.255800	0.492000
H2371	H237	0.745700	0.214900	0.407800
H2381	H238	0.799000	0.189500	0.440500
H2391	H239	0.420700	0.631100	0.230800
H2401	H240	0.490800	0.585800	0.289200
H2411	H241	0.376400	0.397900	0.055100
H2421	H242	0.319600	0.417900	0.023100
H2431	H243	0.263800	0.306000	0.008000
H2441	H244	0.307100	0.337900	0.092200
H2451	H245	0.249000	0.358500	0.059500
H2461	H246	0.599700	0.868900	0.289600
H2471	H247	0.703400	0.914200	0.405000
H2481	H248	0.657200	0.102100	0.478500
H2491	H249	0.605200	0.082100	0.401700
H2501	H250	0.702000	0.194000	0.457800
H2511	H251	0.754300	0.162100	0.469200
H2521	H252	0.701000	0.141500	0.390500
H2531	H253	0.599700	0.730800	0.810100
H2541	H254	0.703400	0.789200	0.798400
H2551	H255	0.657200	0.555100	0.678700
H2561	H256	0.605200	0.523100	0.703500
H2571	H257	0.702000	0.508000	0.744200
H2581	H258	0.754300	0.592200	0.785100
H2591	H259	0.701000	0.559500	0.810500
H2601	H260	0.420700	0.789600	0.689900
H2611	H261	0.490800	0.905000	0.701600
H2621	H262	0.376400	0.978500	0.821300
H2631	H263	0.319600	0.901700	0.796500
H2641	H264	0.263800	0.957800	0.755800
H2651	H265	0.307100	0.969200	0.714900
H2661	H266	0.249000	0.890500	0.689500
H2671	H267	0.900300	0.710400	0.131100
H2681	H268	0.796600	0.595000	0.085800
H2691	H269	0.842800	0.521500	0.897900
H2701	H270	0.894800	0.598300	0.917900
H2711	H271	0.798000	0.542200	0.806000
H2721	H272	0.745700	0.530800	0.837900
H2731	H273	0.799000	0.609500	0.858500
H2741	H274	0.079300	0.769200	0.368900
H2751	H275	0.009200	0.710800	0.414200
H2761	H276	0.123600	0.944900	0.602100
H2771	H277	0.180400	0.976900	0.582100
H2781	H278	0.236200	0.992000	0.694000
H2791	H279	0.192900	0.907800	0.662100
H2801	H280	0.251000	0.940500	0.641500
H2811	H281	0.710400	0.631100	0.400300
H2821	H282	0.595000	0.585800	0.296600
H2831	H283	0.521500	0.397900	0.342800
H2841	H284	0.598300	0.417900	0.394800
H2851	H285	0.542200	0.306000	0.298000
H2861	H286	0.530800	0.337900	0.245700
H2871	H287	0.609500	0.358500	0.299000
H2881	H288	0.769200	0.868900	0.579300
H2891	H289	0.710800	0.914200	0.509200
H2901	H290	0.944900	0.102100	0.623600
H2911	H291	0.976900	0.082100	0.680400
H2921	H292	0.992000	0.194000	0.736200
H2931	H293	0.907800	0.162100	0.692900
H2941	H294	0.940500	0.141500	0.751000
H2951	H295	0.730800	0.310100	0.099700
H2961	H296	0.789200	0.298400	0.203400
H2971	H297	0.555100	0.178700	0.157200
H2981	H298	0.523100	0.203500	0.105200
H2991	H299	0.508000	0.244200	0.202000
H3001	H300	0.592200	0.285100	0.254300
H3011	H301	0.559500	0.310500	0.201000
H3021	H302	0.789600	0.189900	0.920700
H3031	H303	0.905000	0.201600	0.990800
H3041	H304	0.978500	0.321300	0.876400
H3051	H305	0.901700	0.296500	0.819600
H3061	H306	0.957800	0.255800	0.763800
H3071	H307	0.969200	0.214900	0.807100
H3081	H308	0.890500	0.189500	0.749000
H3091	H309	0.189900	0.420700	0.289600
H3101	H310	0.201600	0.490800	0.405000
H3111	H311	0.321300	0.376400	0.478500
H3121	H312	0.296500	0.319600	0.401700
H3131	H313	0.255800	0.263800	0.457800
H3141	H314	0.214900	0.307100	0.469200
H3151	H315	0.189500	0.249000	0.390500
H3161	H316	0.310100	0.599700	0.230800
H3171	H317	0.298400	0.703400	0.289200
H3181	H318	0.178700	0.657200	0.055100
H3191	H319	0.203500	0.605200	0.023100
H3201	H320	0.244200	0.702000	0.008000
H3211	H321	0.285100	0.754300	0.092200
H3221	H322	0.310500	0.701000	0.059500
H3231	H323	0.868900	0.079300	0.269200
H3241	H324	0.914200	0.009200	0.210800
H3251	H325	0.102100	0.123600	0.444900
H3261	H326	0.082100	0.180400	0.476900
H3271	H327	0.194000	0.236200	0.492000
H3281	H328	0.162100	0.192900	0.407800
H3291	H329	0.141500	0.251000	0.440500
H3301	H330	0.631100	0.900300	0.210400
H3311	H331	0.585800	0.796600	0.095000
H3321	H332	0.397900	0.842800	0.021500
H3331	H333	0.417900	0.894800	0.098300
H3341	H334	0.306000	0.798000	0.042200
H3351	H335	0.337900	0.745700	0.030800
H3361	H336	0.358500	0.799000	0.109500
C11	C1	0.208670	0.123550	0.293240
C21	C2	0.240730	0.180400	0.286490
C31	C3	0.130560	0.152830	0.251190
C41	C4	0.061490	0.151690	0.220080
C51	C5	0.054700	0.207000	0.269100
C61	C6	0.330310	0.915430	0.206760
C71	C7	0.393910	0.954240	0.213510
C81	C8	0.401640	0.879370	0.248810
C91	C9	0.431610	0.841410	0.279920
C101	C10	0.437900	0.785600	0.230900
C111	C11	0.169690	0.376450	0.585120
C121	C12	0.106090	0.319600	0.560330
C131	C13	0.098360	0.347170	0.477730
C141	C14	0.068390	0.348310	0.409800
C151	C15	0.062100	0.293000	0.347700
C161	C16	0.291330	0.584570	0.914880
C171	C17	0.259270	0.545760	0.939670
C181	C18	0.369440	0.620630	0.022270
C191	C19	0.438510	0.658590	0.090200
C201	C20	0.445300	0.714400	0.152300
C211	C21	0.085120	0.169690	0.876450
C221	C22	0.060330	0.106090	0.819600
C231	C23	0.977730	0.098360	0.847170
C241	C24	0.909800	0.068390	0.848310
C251	C25	0.847700	0.062100	0.793000
C261	C26	0.414880	0.291330	0.084570
C271	C27	0.439670	0.259270	0.045760
C281	C28	0.522270	0.369440	0.120630
C291	C29	0.590200	0.438510	0.158590
C301	C30	0.652300	0.445300	0.214400
C311	C31	0.793240	0.208670	0.623550
C321	C32	0.786490	0.240730	0.680400
C331	C33	0.751190	0.130560	0.652830
C341	C34	0.720080	0.061490	0.651690
C351	C35	0.769100	0.054700	0.707000
C361	C36	0.706760	0.330310	0.415430
C371	C37	0.713510	0.393910	0.454240
C381	C38	0.748810	0.401640	0.379370
C391	C39	0.779920	0.431610	0.341410
C401	C40	0.730900	0.437900	0.285600
C411	C41	0.915430	0.706760	0.830310
C421	C42	0.954240	0.713510	0.893910
C431	C43	0.879370	0.748810	0.901640
C441	C44	0.841410	0.779920	0.931610
C451	C45	0.785600	0.730900	0.937900
C461	C46	0.123550	0.793240	0.708670
C471	C47	0.180400	0.786490	0.740730
C481	C48	0.152830	0.751190	0.630560
C491	C49	0.151690	0.720080	0.561490
C501	C50	0.207000	0.769100	0.554700
C511	C51	0.584570	0.414880	0.791330
C521	C52	0.545760	0.439670	0.759270
C531	C53	0.620630	0.522270	0.869440
C541	C54	0.658590	0.590200	0.938510
C551	C55	0.714400	0.652300	0.945300
C561	C56	0.376450	0.085120	0.669690
C571	C57	0.319600	0.060330	0.606090
C581	C58	0.347170	0.977730	0.598360
C591	C59	0.348310	0.909800	0.568390
C601	C60	0.293000	0.847700	0.562100
C611	C61	0.376450	0.291330	0.206760
C621	C62	0.319600	0.259270	0.213510
C631	C63	0.347170	0.369440	0.248810
C641	C64	0.348310	0.438510	0.279920
C651	C65	0.293000	0.445300	0.230900
C661	C66	0.584570	0.169690	0.293240
C671	C67	0.545760	0.106090	0.286490
C681	C68	0.620630	0.098360	0.251190
C691	C69	0.658590	0.068390	0.220080
C701	C70	0.714400	0.062100	0.269100
C711	C71	0.123550	0.330310	0.914880
C721	C72	0.180400	0.393910	0.939670
C731	C73	0.152830	0.401640	0.022270
C741	C74	0.151690	0.431610	0.090200
C751	C75	0.207000	0.437900	0.152300
C761	C76	0.915430	0.208670	0.585120
C771	C77	0.954240	0.240730	0.560330
C781	C78	0.879370	0.130560	0.477730
C791	C79	0.841410	0.061490	0.409800
C801	C80	0.785600	0.054700	0.347700
C811	C81	0.330310	0.414880	0.623550
C821	C82	0.393910	0.439670	0.680400
C831	C83	0.401640	0.522270	0.652830
C841	C84	0.431610	0.590200	0.651690
C851	C85	0.437900	0.652300	0.707000
C861	C86	0.208670	0.085120	0.415430
C871	C87	0.240730	0.060330	0.454240
C881	C88	0.130560	0.977730	0.379370
C891	C89	0.061490	0.909800	0.341410
C901	C90	0.054700	0.847700	0.285600
C911	C91	0.291330	0.706760	0.876450
C921	C92	0.259270	0.713510	0.819600
C931	C93	0.369440	0.748810	0.847170
C941	C94	0.438510	0.779920	0.848310
C951	C95	0.445300	0.730900	0.793000
C961	C96	0.169690	0.793240	0.084570
C971	C97	0.106090	0.786490	0.045760
C981	C98	0.098360	0.751190	0.120630
C991	C99	0.068390	0.720080	0.158590
C1001	C100	0.062100	0.769100	0.214400
C1011	C101	0.793240	0.584570	0.669690
C1021	C102	0.786490	0.545760	0.606090
C1031	C103	0.751190	0.620630	0.598360
C1041	C104	0.720080	0.658590	0.568390
C1051	C105	0.769100	0.714400	0.562100
C1061	C106	0.706760	0.376450	0.791330
C1071	C107	0.713510	0.319600	0.759270
C1081	C108	0.748810	0.347170	0.869440
C1091	C109	0.779920	0.348310	0.938510
C1101	C110	0.730900	0.293000	0.945300
C1111	C111	0.085120	0.915430	0.708670
C1121	C112	0.060330	0.954240	0.740730
C1131	C113	0.977730	0.879370	0.630560
C1141	C114	0.909800	0.841410	0.561490
C1151	C115	0.847700	0.785600	0.554700
C1161	C116	0.414880	0.123550	0.830310
C1171	C117	0.439670	0.180400	0.893910
C1181	C118	0.522270	0.152830	0.901640
C1191	C119	0.590200	0.151690	0.931610
C1201	C120	0.652300	0.207000	0.937900
C1211	C121	0.791330	0.876450	0.706760
C1221	C122	0.759270	0.819600	0.713510
C1231	C123	0.869440	0.847170	0.748810
C1241	C124	0.938510	0.848310	0.779920
C1251	C125	0.945300	0.793000	0.730900
C1261	C126	0.669690	0.084570	0.793240
C1271	C127	0.606090	0.045760	0.786490
C1281	C128	0.598360	0.120630	0.751190
C1291	C129	0.568390	0.158590	0.720080
C1301	C130	0.562100	0.214400	0.769100
C1311	C131	0.830310	0.623550	0.414880
C1321	C132	0.893910	0.680400	0.439670
C1331	C133	0.901640	0.652830	0.522270
C1341	C134	0.931610	0.651690	0.590200
C1351	C135	0.937900	0.707000	0.652300
C1361	C136	0.708670	0.415430	0.085120
C1371	C137	0.740730	0.454240	0.060330
C1381	C138	0.630560	0.379370	0.977730
C1391	C139	0.561490	0.341410	0.909800
C1401	C140	0.554700	0.285600	0.847700
C1411	C141	0.914880	0.830310	0.123550
C1421	C142	0.939670	0.893910	0.180400
C1431	C143	0.022270	0.901640	0.152830
C1441	C144	0.090200	0.931610	0.151690
C1451	C145	0.152300	0.937900	0.207000
C1461	C146	0.585120	0.708670	0.915430
C1471	C147	0.560330	0.740730	0.954240
C1481	C148	0.477730	0.630560	0.879370
C1491	C149	0.409800	0.561490	0.841410
C1501	C150	0.347700	0.554700	0.785600
C1511	C151	0.206760	0.791330	0.376450
C1521	C152	0.213510	0.759270	0.319600
C1531	C153	0.248810	0.869440	0.347170
C1541	C154	0.279920	0.938510	0.348310
C1551	C155	0.230900	0.945300	0.293000
C1561	C156	0.293240	0.669690	0.584570
C1571	C157	0.286490	0.606090	0.545760
C1581	C158	0.251190	0.598360	0.620630
C1591	C159	0.220080	0.568390	0.658590
C1601	C160	0.269100	0.562100	0.714400
C1611	C161	0.084570	0.293240	0.169690
C1621	C162	0.045760	0.286490	0.106090
C1631	C163	0.120630	0.251190	0.098360
C1641	C164	0.158590	0.220080	0.068390
C1651	C165	0.214400	0.269100	0.062100
C1661	C166	0.876450	0.206760	0.291330
C1671	C167	0.819600	0.213510	0.259270
C1681	C168	0.847170	0.248810	0.369440
C1691	C169	0.848310	0.279920	0.438510
C1701	C170	0.793000	0.230900	0.445300
C1711	C171	0.415430	0.585120	0.208670
C1721	C172	0.454240	0.560330	0.240730
C1731	C173	0.379370	0.477730	0.130560
C1741	C174	0.341410	0.409800	0.061490
C1751	C175	0.285600	0.347700	0.054700
C1761	C176	0.623550	0.914880	0.330310
C1771	C177	0.680400	0.939670	0.393910
C1781	C178	0.652830	0.022270	0.401640
C1791	C179	0.651690	0.090200	0.431610
C1801	C180	0.707000	0.152300	0.437900
C1811	C181	0.623550	0.708670	0.793240
C1821	C182	0.680400	0.740730	0.786490
C1831	C183	0.652830	0.630560	0.751190
C1841	C184	0.651690	0.561490	0.720080
C1851	C185	0.707000	0.554700	0.769100
C1861	C186	0.415430	0.830310	0.706760
C1871	C187	0.454240	0.893910	0.713510
C1881	C188	0.379370	0.901640	0.748810
C1891	C189	0.341410	0.931610	0.779920
C1901	C190	0.285600	0.937900	0.730900
C1911	C191	0.876450	0.669690	0.085120
C1921	C192	0.819600	0.606090	0.060330
C1931	C193	0.847170	0.598360	0.977730
C1941	C194	0.848310	0.568390	0.909800
C1951	C195	0.793000	0.562100	0.847700
C1961	C196	0.084570	0.791330	0.414880
C1971	C197	0.045760	0.759270	0.439670
C1981	C198	0.120630	0.869440	0.522270
C1991	C199	0.158590	0.938510	0.590200
C2001	C200	0.214400	0.945300	0.652300
C2011	C201	0.669690	0.585120	0.376450
C2021	C202	0.606090	0.560330	0.319600
C2031	C203	0.598360	0.477730	0.347170
C2041	C204	0.568390	0.409800	0.348310
C2051	C205	0.562100	0.347700	0.293000
C2061	C206	0.791330	0.914880	0.584570
C2071	C207	0.759270	0.939670	0.545760
C2081	C208	0.869440	0.022270	0.620630
C2091	C209	0.938510	0.090200	0.658590
C2101	C210	0.945300	0.152300	0.714400
C2111	C211	0.708670	0.293240	0.123550
C2121	C212	0.740730	0.286490	0.180400
C2131	C213	0.630560	0.251190	0.152830
C2141	C214	0.561490	0.220080	0.151690
C2151	C215	0.554700	0.269100	0.207000
C2161	C216	0.830310	0.206760	0.915430
C2171	C217	0.893910	0.213510	0.954240
C2181	C218	0.901640	0.248810	0.879370
C2191	C219	0.931610	0.279920	0.841410
C2201	C220	0.937900	0.230900	0.785600
C2211	C221	0.206760	0.415430	0.330310
C2221	C222	0.213510	0.454240	0.393910
C2231	C223	0.248810	0.379370	0.401640
C2241	C224	0.279920	0.341410	0.431610
C2251	C225	0.230900	0.285600	0.437900
C2261	C226	0.293240	0.623550	0.208670
C2271	C227	0.286490	0.680400	0.240730
C2281	C228	0.251190	0.652830	0.130560
C2291	C229	0.220080	0.651690	0.061490
C2301	C230	0.269100	0.707000	0.054700
C2311	C231	0.914880	0.084570	0.291330
C2321	C232	0.939670	0.045760	0.259270
C2331	C233	0.022270	0.120630	0.369440
C2341	C234	0.090200	0.158590	0.438510
C2351	C235	0.152300	0.214400	0.445300
C2361	C236	0.585120	0.876450	0.169690
C2371	C237	0.560330	0.819600	0.106090
C2381	C238	0.477730	0.847170	0.098360
C2391	C239	0.409800	0.848310	0.068390
C2401	C240	0.347700	0.793000	0.062100
N11	N1	0.138550	0.106120	0.271550
N21	N2	0.190970	0.199080	0.259430
N31	N3	0.334570	0.867000	0.228450
N41	N4	0.439650	0.931540	0.240570
N51	N5	0.165430	0.393880	0.532430
N61	N6	0.060350	0.300920	0.491890
N71	N7	0.361450	0.633000	0.967570
N81	N8	0.309030	0.568460	0.008110
N91	N9	0.032430	0.165430	0.893880
N101	N10	0.991890	0.060350	0.800920
N111	N11	0.467570	0.361450	0.133000
N121	N12	0.508110	0.309030	0.068460
N131	N13	0.771550	0.138550	0.606120
N141	N14	0.759430	0.190970	0.699080
N151	N15	0.728450	0.334570	0.367000
N161	N16	0.740570	0.439650	0.431540
N171	N17	0.867000	0.728450	0.834570
N181	N18	0.931540	0.740570	0.939650
N191	N19	0.106120	0.771550	0.638550
N201	N20	0.199080	0.759430	0.690970
N211	N21	0.633000	0.467570	0.861450
N221	N22	0.568460	0.508110	0.809030
N231	N23	0.393880	0.032430	0.665430
N241	N24	0.300920	0.991890	0.560350
N251	N25	0.393880	0.361450	0.228450
N261	N26	0.300920	0.309030	0.240570
N271	N27	0.633000	0.165430	0.271550
N281	N28	0.568460	0.060350	0.259430
N291	N29	0.106120	0.334570	0.967570
N301	N30	0.199080	0.439650	0.008110
N311	N31	0.867000	0.138550	0.532430
N321	N32	0.931540	0.190970	0.491890
N331	N33	0.334570	0.467570	0.606120
N341	N34	0.439650	0.508110	0.699080
N351	N35	0.138550	0.032430	0.367000
N361	N36	0.190970	0.991890	0.431540
N371	N37	0.361450	0.728450	0.893880
N381	N38	0.309030	0.740570	0.800920
N391	N39	0.165430	0.771550	0.133000
N401	N40	0.060350	0.759430	0.068460
N411	N41	0.771550	0.633000	0.665430
N421	N42	0.759430	0.568460	0.560350
N431	N43	0.728450	0.393880	0.861450
N441	N44	0.740570	0.300920	0.809030
N451	N45	0.032430	0.867000	0.638550
N461	N46	0.991890	0.931540	0.690970
N471	N47	0.467570	0.106120	0.834570
N481	N48	0.508110	0.199080	0.939650
N491	N49	0.861450	0.893880	0.728450
N501	N50	0.809030	0.800920	0.740570
N511	N51	0.665430	0.133000	0.771550
N521	N52	0.560350	0.068460	0.759430
N531	N53	0.834570	0.606120	0.467570
N541	N54	0.939650	0.699080	0.508110
N551	N55	0.638550	0.367000	0.032430
N561	N56	0.690970	0.431540	0.991890
N571	N57	0.967570	0.834570	0.106120
N581	N58	0.008110	0.939650	0.199080
N591	N59	0.532430	0.638550	0.867000
N601	N60	0.491890	0.690970	0.931540
N611	N61	0.228450	0.861450	0.393880
N621	N62	0.240570	0.809030	0.300920
N631	N63	0.271550	0.665430	0.633000
N641	N64	0.259430	0.560350	0.568460
N651	N65	0.133000	0.271550	0.165430
N661	N66	0.068460	0.259430	0.060350
N671	N67	0.893880	0.228450	0.361450
N681	N68	0.800920	0.240570	0.309030
N691	N69	0.367000	0.532430	0.138550
N701	N70	0.431540	0.491890	0.190970
N711	N71	0.606120	0.967570	0.334570
N721	N72	0.699080	0.008110	0.439650
N731	N73	0.606120	0.638550	0.771550
N741	N74	0.699080	0.690970	0.759430
N751	N75	0.367000	0.834570	0.728450
N761	N76	0.431540	0.939650	0.740570
N771	N77	0.893880	0.665430	0.032430
N781	N78	0.800920	0.560350	0.991890
N791	N79	0.133000	0.861450	0.467570
N801	N80	0.068460	0.809030	0.508110
N811	N81	0.665430	0.532430	0.393880
N821	N82	0.560350	0.491890	0.300920
N831	N83	0.861450	0.967570	0.633000
N841	N84	0.809030	0.008110	0.568460
N851	N85	0.638550	0.271550	0.106120
N861	N86	0.690970	0.259430	0.199080
N871	N87	0.834570	0.228450	0.867000
N881	N88	0.939650	0.240570	0.931540
N891	N89	0.228450	0.367000	0.334570
N901	N90	0.240570	0.431540	0.439650
N911	N91	0.271550	0.606120	0.138550
N921	N92	0.259430	0.699080	0.190970
N931	N93	0.967570	0.133000	0.361450
N941	N94	0.008110	0.068460	0.309030
N951	N95	0.532430	0.893880	0.165430
N961	N96	0.491890	0.800920	0.060350
