data_MEFJOY_clean_PM
_symmetry_space_group_name_H-M	'P1'
_cell_length_a	23.302400
_cell_length_b	23.302400
_cell_length_c	23.302400
_cell_angle_alpha	90.000000
_cell_angle_beta	90.000000
_cell_angle_gamma	90.000000
_symmetry_Int_Tables_number 1

loop_
_symmetry_equiv_pos_as_xyz
'x,y,z'

loop_
_atom_site_label
_atom_site_type_symbol
_atom_site_fract_x
_atom_site_fract_y
_atom_site_fract_z
Zn11	Zn1	0.178840	0.707600	0.762990
O11	O1	0.054400	0.564100	0.953400
O21	O2	0.064900	0.557900	0.047900
O31	O3	0.169000	0.695600	0.844500
O41	O4	0.242900	0.742000	0.885200
O51	O5	0.262500	0.733500	0.098600
O61	O6	0.213100	0.667900	0.143800
C11	C1	0.122200	0.622900	0.998500
C21	C2	0.137200	0.647700	0.946800
H11	H1	0.118200	0.637100	0.913300
C31	C3	0.181000	0.688700	0.944900
C41	C4	0.208000	0.706900	0.992400
H21	H2	0.235200	0.736100	0.990600
C51	C5	0.193900	0.680300	0.046100
C61	C6	0.150400	0.639900	0.048900
H31	H3	0.139900	0.624200	0.084100
C71	C7	0.076300	0.578200	0.001900
C81	C8	0.198100	0.710600	0.884700
C91	C9	0.224900	0.698500	0.100100
Zn21	Zn2	0.678840	0.207600	0.262990
O71	O7	0.554400	0.064100	0.453400
O81	O8	0.564900	0.057900	0.547900
O91	O9	0.669000	0.195600	0.344500
O101	O10	0.742900	0.242000	0.385200
O111	O11	0.762500	0.233500	0.598600
O121	O12	0.713100	0.167900	0.643800
C101	C10	0.622200	0.122900	0.498500
C111	C11	0.637200	0.147700	0.446800
H41	H4	0.618200	0.137100	0.413300
C121	C12	0.681000	0.188700	0.444900
C131	C13	0.708000	0.206900	0.492400
H51	H5	0.735200	0.236100	0.490600
C141	C14	0.693900	0.180300	0.546100
C151	C15	0.650400	0.139900	0.548900
H61	H6	0.639900	0.124200	0.584100
C161	C16	0.576300	0.078200	0.501900
C171	C17	0.698100	0.210600	0.384700
C181	C18	0.724900	0.198500	0.600100
Zn31	Zn3	0.821160	0.292400	0.762990
O131	O13	0.945600	0.435900	0.953400
O141	O14	0.935100	0.442100	0.047900
O151	O15	0.831000	0.304400	0.844500
O161	O16	0.757100	0.258000	0.885200
O171	O17	0.737500	0.266500	0.098600
O181	O18	0.786900	0.332100	0.143800
C191	C19	0.877800	0.377100	0.998500
C201	C20	0.862800	0.352300	0.946800
H71	H7	0.881800	0.362900	0.913300
C211	C21	0.819000	0.311300	0.944900
C221	C22	0.792000	0.293100	0.992400
H81	H8	0.764800	0.263900	0.990600
C231	C23	0.806100	0.319700	0.046100
C241	C24	0.849600	0.360100	0.048900
H91	H9	0.860100	0.375800	0.084100
C251	C25	0.923700	0.421800	0.001900
C261	C26	0.801900	0.289400	0.884700
C271	C27	0.775100	0.301500	0.100100
Zn41	Zn4	0.321160	0.792400	0.262990
O191	O19	0.445600	0.935900	0.453400
O201	O20	0.435100	0.942100	0.547900
O211	O21	0.331000	0.804400	0.344500
O221	O22	0.257100	0.758000	0.385200
O231	O23	0.237500	0.766500	0.598600
O241	O24	0.286900	0.832100	0.643800
C281	C28	0.377800	0.877100	0.498500
C291	C29	0.362800	0.852300	0.446800
H101	H10	0.381800	0.862900	0.413300
C301	C30	0.319000	0.811300	0.444900
C311	C31	0.292000	0.793100	0.492400
H111	H11	0.264800	0.763900	0.490600
C321	C32	0.306100	0.819700	0.546100
C331	C33	0.349600	0.860100	0.548900
H121	H12	0.360100	0.875800	0.584100
C341	C34	0.423700	0.921800	0.501900
C351	C35	0.301900	0.789400	0.384700
C361	C36	0.275100	0.801500	0.600100
Zn51	Zn5	0.821160	0.707600	0.237010
O251	O25	0.945600	0.564100	0.046600
O261	O26	0.935100	0.557900	0.952100
O271	O27	0.831000	0.695600	0.155500
O281	O28	0.757100	0.742000	0.114800
O291	O29	0.737500	0.733500	0.901400
O301	O30	0.786900	0.667900	0.856200
C371	C37	0.877800	0.622900	0.001500
C381	C38	0.862800	0.647700	0.053200
H131	H13	0.881800	0.637100	0.086700
C391	C39	0.819000	0.688700	0.055100
C401	C40	0.792000	0.706900	0.007600
H141	H14	0.764800	0.736100	0.009400
C411	C41	0.806100	0.680300	0.953900
C421	C42	0.849600	0.639900	0.951100
H151	H15	0.860100	0.624200	0.915900
C431	C43	0.923700	0.578200	0.998100
C441	C44	0.801900	0.710600	0.115300
C451	C45	0.775100	0.698500	0.899900
Zn61	Zn6	0.321160	0.207600	0.737010
O311	O31	0.445600	0.064100	0.546600
O321	O32	0.435100	0.057900	0.452100
O331	O33	0.331000	0.195600	0.655500
O341	O34	0.257100	0.242000	0.614800
O351	O35	0.237500	0.233500	0.401400
O361	O36	0.286900	0.167900	0.356200
C461	C46	0.377800	0.122900	0.501500
C471	C47	0.362800	0.147700	0.553200
H161	H16	0.381800	0.137100	0.586700
C481	C48	0.319000	0.188700	0.555100
C491	C49	0.292000	0.206900	0.507600
H171	H17	0.264800	0.236100	0.509400
C501	C50	0.306100	0.180300	0.453900
C511	C51	0.349600	0.139900	0.451100
H181	H18	0.360100	0.124200	0.415900
C521	C52	0.423700	0.078200	0.498100
C531	C53	0.301900	0.210600	0.615300
C541	C54	0.275100	0.198500	0.399900
Zn71	Zn7	0.178840	0.292400	0.237010
O371	O37	0.054400	0.435900	0.046600
O381	O38	0.064900	0.442100	0.952100
O391	O39	0.169000	0.304400	0.155500
O401	O40	0.242900	0.258000	0.114800
O411	O41	0.262500	0.266500	0.901400
O421	O42	0.213100	0.332100	0.856200
C551	C55	0.122200	0.377100	0.001500
C561	C56	0.137200	0.352300	0.053200
H191	H19	0.118200	0.362900	0.086700
C571	C57	0.181000	0.311300	0.055100
C581	C58	0.208000	0.293100	0.007600
H201	H20	0.235200	0.263900	0.009400
C591	C59	0.193900	0.319700	0.953900
C601	C60	0.150400	0.360100	0.951100
H211	H21	0.139900	0.375800	0.915900
C611	C61	0.076300	0.421800	0.998100
C621	C62	0.198100	0.289400	0.115300
C631	C63	0.224900	0.301500	0.899900
Zn81	Zn8	0.678840	0.792400	0.737010
O431	O43	0.554400	0.935900	0.546600
O441	O44	0.564900	0.942100	0.452100
O451	O45	0.669000	0.804400	0.655500
O461	O46	0.742900	0.758000	0.614800
O471	O47	0.762500	0.766500	0.401400
O481	O48	0.713100	0.832100	0.356200
C641	C64	0.622200	0.877100	0.501500
C651	C65	0.637200	0.852300	0.553200
H221	H22	0.618200	0.862900	0.586700
C661	C66	0.681000	0.811300	0.555100
C671	C67	0.708000	0.793100	0.507600
H231	H23	0.735200	0.763900	0.509400
C681	C68	0.693900	0.819700	0.453900
C691	C69	0.650400	0.860100	0.451100
H241	H24	0.639900	0.875800	0.415900
C701	C70	0.576300	0.921800	0.498100
C711	C71	0.698100	0.789400	0.615300
C721	C72	0.724900	0.801500	0.399900
Zn91	Zn9	0.762990	0.178840	0.707600
O491	O49	0.953400	0.054400	0.564100
O501	O50	0.047900	0.064900	0.557900
O511	O51	0.844500	0.169000	0.695600
O521	O52	0.885200	0.242900	0.742000
O531	O53	0.098600	0.262500	0.733500
O541	O54	0.143800	0.213100	0.667900
C731	C73	0.998500	0.122200	0.622900
C741	C74	0.946800	0.137200	0.647700
H251	H25	0.913300	0.118200	0.637100
C751	C75	0.944900	0.181000	0.688700
C761	C76	0.992400	0.208000	0.706900
H261	H26	0.990600	0.235200	0.736100
C771	C77	0.046100	0.193900	0.680300
C781	C78	0.048900	0.150400	0.639900
H271	H27	0.084100	0.139900	0.624200
C791	C79	0.001900	0.076300	0.578200
C801	C80	0.884700	0.198100	0.710600
C811	C81	0.100100	0.224900	0.698500
Zn101	Zn10	0.262990	0.678840	0.207600
O551	O55	0.453400	0.554400	0.064100
O561	O56	0.547900	0.564900	0.057900
O571	O57	0.344500	0.669000	0.195600
O581	O58	0.385200	0.742900	0.242000
O591	O59	0.598600	0.762500	0.233500
O601	O60	0.643800	0.713100	0.167900
C821	C82	0.498500	0.622200	0.122900
C831	C83	0.446800	0.637200	0.147700
H281	H28	0.413300	0.618200	0.137100
C841	C84	0.444900	0.681000	0.188700
C851	C85	0.492400	0.708000	0.206900
H291	H29	0.490600	0.735200	0.236100
C861	C86	0.546100	0.693900	0.180300
C871	C87	0.548900	0.650400	0.139900
H301	H30	0.584100	0.639900	0.124200
C881	C88	0.501900	0.576300	0.078200
C891	C89	0.384700	0.698100	0.210600
C901	C90	0.600100	0.724900	0.198500
Zn111	Zn11	0.762990	0.821160	0.292400
O611	O61	0.953400	0.945600	0.435900
O621	O62	0.047900	0.935100	0.442100
O631	O63	0.844500	0.831000	0.304400
O641	O64	0.885200	0.757100	0.258000
O651	O65	0.098600	0.737500	0.266500
O661	O66	0.143800	0.786900	0.332100
C911	C91	0.998500	0.877800	0.377100
C921	C92	0.946800	0.862800	0.352300
H311	H31	0.913300	0.881800	0.362900
C931	C93	0.944900	0.819000	0.311300
C941	C94	0.992400	0.792000	0.293100
H321	H32	0.990600	0.764800	0.263900
C951	C95	0.046100	0.806100	0.319700
C961	C96	0.048900	0.849600	0.360100
H331	H33	0.084100	0.860100	0.375800
C971	C97	0.001900	0.923700	0.421800
C981	C98	0.884700	0.801900	0.289400
C991	C99	0.100100	0.775100	0.301500
Zn121	Zn12	0.262990	0.321160	0.792400
O671	O67	0.453400	0.445600	0.935900
O681	O68	0.547900	0.435100	0.942100
O691	O69	0.344500	0.331000	0.804400
O701	O70	0.385200	0.257100	0.758000
O711	O71	0.598600	0.237500	0.766500
O721	O72	0.643800	0.286900	0.832100
C1001	C100	0.498500	0.377800	0.877100
C1011	C101	0.446800	0.362800	0.852300
H341	H34	0.413300	0.381800	0.862900
C1021	C102	0.444900	0.319000	0.811300
C1031	C103	0.492400	0.292000	0.793100
H351	H35	0.490600	0.264800	0.763900
C1041	C104	0.546100	0.306100	0.819700
C1051	C105	0.548900	0.349600	0.860100
H361	H36	0.584100	0.360100	0.875800
C1061	C106	0.501900	0.423700	0.921800
C1071	C107	0.384700	0.301900	0.789400
C1081	C108	0.600100	0.275100	0.801500
Zn131	Zn13	0.237010	0.821160	0.707600
O731	O73	0.046600	0.945600	0.564100
O741	O74	0.952100	0.935100	0.557900
O751	O75	0.155500	0.831000	0.695600
O761	O76	0.114800	0.757100	0.742000
O771	O77	0.901400	0.737500	0.733500
O781	O78	0.856200	0.786900	0.667900
C1091	C109	0.001500	0.877800	0.622900
C1101	C110	0.053200	0.862800	0.647700
H371	H37	0.086700	0.881800	0.637100
C1111	C111	0.055100	0.819000	0.688700
C1121	C112	0.007600	0.792000	0.706900
H381	H38	0.009400	0.764800	0.736100
C1131	C113	0.953900	0.806100	0.680300
C1141	C114	0.951100	0.849600	0.639900
H391	H39	0.915900	0.860100	0.624200
C1151	C115	0.998100	0.923700	0.578200
C1161	C116	0.115300	0.801900	0.710600
C1171	C117	0.899900	0.775100	0.698500
Zn141	Zn14	0.737010	0.321160	0.207600
O791	O79	0.546600	0.445600	0.064100
O801	O80	0.452100	0.435100	0.057900
O811	O81	0.655500	0.331000	0.195600
O821	O82	0.614800	0.257100	0.242000
O831	O83	0.401400	0.237500	0.233500
O841	O84	0.356200	0.286900	0.167900
C1181	C118	0.501500	0.377800	0.122900
C1191	C119	0.553200	0.362800	0.147700
H401	H40	0.586700	0.381800	0.137100
C1201	C120	0.555100	0.319000	0.188700
C1211	C121	0.507600	0.292000	0.206900
H411	H41	0.509400	0.264800	0.236100
C1221	C122	0.453900	0.306100	0.180300
C1231	C123	0.451100	0.349600	0.139900
H421	H42	0.415900	0.360100	0.124200
C1241	C124	0.498100	0.423700	0.078200
C1251	C125	0.615300	0.301900	0.210600
C1261	C126	0.399900	0.275100	0.198500
Zn151	Zn15	0.237010	0.178840	0.292400
O851	O85	0.046600	0.054400	0.435900
O861	O86	0.952100	0.064900	0.442100
O871	O87	0.155500	0.169000	0.304400
O881	O88	0.114800	0.242900	0.258000
O891	O89	0.901400	0.262500	0.266500
O901	O90	0.856200	0.213100	0.332100
C1271	C127	0.001500	0.122200	0.377100
C1281	C128	0.053200	0.137200	0.352300
H431	H43	0.086700	0.118200	0.362900
C1291	C129	0.055100	0.181000	0.311300
C1301	C130	0.007600	0.208000	0.293100
H441	H44	0.009400	0.235200	0.263900
C1311	C131	0.953900	0.193900	0.319700
C1321	C132	0.951100	0.150400	0.360100
H451	H45	0.915900	0.139900	0.375800
C1331	C133	0.998100	0.076300	0.421800
C1341	C134	0.115300	0.198100	0.289400
C1351	C135	0.899900	0.224900	0.301500
Zn161	Zn16	0.737010	0.678840	0.792400
O911	O91	0.546600	0.554400	0.935900
O921	O92	0.452100	0.564900	0.942100
O931	O93	0.655500	0.669000	0.804400
O941	O94	0.614800	0.742900	0.758000
O951	O95	0.401400	0.762500	0.766500
O961	O96	0.356200	0.713100	0.832100
C1361	C136	0.501500	0.622200	0.877100
C1371	C137	0.553200	0.637200	0.852300
H461	H46	0.586700	0.618200	0.862900
C1381	C138	0.555100	0.681000	0.811300
C1391	C139	0.507600	0.708000	0.793100
H471	H47	0.509400	0.735200	0.763900
C1401	C140	0.453900	0.693900	0.819700
C1411	C141	0.451100	0.650400	0.860100
H481	H48	0.415900	0.639900	0.875800
C1421	C142	0.498100	0.576300	0.921800
C1431	C143	0.615300	0.698100	0.789400
C1441	C144	0.399900	0.724900	0.801500
Zn171	Zn17	0.707600	0.762990	0.178840
O971	O97	0.564100	0.953400	0.054400
O981	O98	0.557900	0.047900	0.064900
O991	O99	0.695600	0.844500	0.169000
O1001	O100	0.742000	0.885200	0.242900
O1011	O101	0.733500	0.098600	0.262500
O1021	O102	0.667900	0.143800	0.213100
C1451	C145	0.622900	0.998500	0.122200
C1461	C146	0.647700	0.946800	0.137200
H491	H49	0.637100	0.913300	0.118200
C1471	C147	0.688700	0.944900	0.181000
C1481	C148	0.706900	0.992400	0.208000
H501	H50	0.736100	0.990600	0.235200
C1491	C149	0.680300	0.046100	0.193900
C1501	C150	0.639900	0.048900	0.150400
H511	H51	0.624200	0.084100	0.139900
C1511	C151	0.578200	0.001900	0.076300
C1521	C152	0.710600	0.884700	0.198100
C1531	C153	0.698500	0.100100	0.224900
Zn181	Zn18	0.207600	0.262990	0.678840
O1031	O103	0.064100	0.453400	0.554400
O1041	O104	0.057900	0.547900	0.564900
O1051	O105	0.195600	0.344500	0.669000
O1061	O106	0.242000	0.385200	0.742900
O1071	O107	0.233500	0.598600	0.762500
O1081	O108	0.167900	0.643800	0.713100
C1541	C154	0.122900	0.498500	0.622200
C1551	C155	0.147700	0.446800	0.637200
H521	H52	0.137100	0.413300	0.618200
C1561	C156	0.188700	0.444900	0.681000
C1571	C157	0.206900	0.492400	0.708000
H531	H53	0.236100	0.490600	0.735200
C1581	C158	0.180300	0.546100	0.693900
C1591	C159	0.139900	0.548900	0.650400
H541	H54	0.124200	0.584100	0.639900
C1601	C160	0.078200	0.501900	0.576300
C1611	C161	0.210600	0.384700	0.698100
C1621	C162	0.198500	0.600100	0.724900
Zn191	Zn19	0.292400	0.762990	0.821160
O1091	O109	0.435900	0.953400	0.945600
O1101	O110	0.442100	0.047900	0.935100
O1111	O111	0.304400	0.844500	0.831000
O1121	O112	0.258000	0.885200	0.757100
O1131	O113	0.266500	0.098600	0.737500
O1141	O114	0.332100	0.143800	0.786900
C1631	C163	0.377100	0.998500	0.877800
C1641	C164	0.352300	0.946800	0.862800
H551	H55	0.362900	0.913300	0.881800
C1651	C165	0.311300	0.944900	0.819000
C1661	C166	0.293100	0.992400	0.792000
H561	H56	0.263900	0.990600	0.764800
C1671	C167	0.319700	0.046100	0.806100
C1681	C168	0.360100	0.048900	0.849600
H571	H57	0.375800	0.084100	0.860100
C1691	C169	0.421800	0.001900	0.923700
C1701	C170	0.289400	0.884700	0.801900
C1711	C171	0.301500	0.100100	0.775100
Zn201	Zn20	0.792400	0.262990	0.321160
O1151	O115	0.935900	0.453400	0.445600
O1161	O116	0.942100	0.547900	0.435100
O1171	O117	0.804400	0.344500	0.331000
O1181	O118	0.758000	0.385200	0.257100
O1191	O119	0.766500	0.598600	0.237500
O1201	O120	0.832100	0.643800	0.286900
C1721	C172	0.877100	0.498500	0.377800
C1731	C173	0.852300	0.446800	0.362800
H581	H58	0.862900	0.413300	0.381800
C1741	C174	0.811300	0.444900	0.319000
C1751	C175	0.793100	0.492400	0.292000
H591	H59	0.763900	0.490600	0.264800
C1761	C176	0.819700	0.546100	0.306100
C1771	C177	0.860100	0.548900	0.349600
H601	H60	0.875800	0.584100	0.360100
C1781	C178	0.921800	0.501900	0.423700
C1791	C179	0.789400	0.384700	0.301900
C1801	C180	0.801500	0.600100	0.275100
Zn211	Zn21	0.707600	0.237010	0.821160
O1211	O121	0.564100	0.046600	0.945600
O1221	O122	0.557900	0.952100	0.935100
O1231	O123	0.695600	0.155500	0.831000
O1241	O124	0.742000	0.114800	0.757100
O1251	O125	0.733500	0.901400	0.737500
O1261	O126	0.667900	0.856200	0.786900
C1811	C181	0.622900	0.001500	0.877800
C1821	C182	0.647700	0.053200	0.862800
H611	H61	0.637100	0.086700	0.881800
C1831	C183	0.688700	0.055100	0.819000
C1841	C184	0.706900	0.007600	0.792000
H621	H62	0.736100	0.009400	0.764800
C1851	C185	0.680300	0.953900	0.806100
C1861	C186	0.639900	0.951100	0.849600
H631	H63	0.624200	0.915900	0.860100
C1871	C187	0.578200	0.998100	0.923700
C1881	C188	0.710600	0.115300	0.801900
C1891	C189	0.698500	0.899900	0.775100
Zn221	Zn22	0.207600	0.737010	0.321160
O1271	O127	0.064100	0.546600	0.445600
O1281	O128	0.057900	0.452100	0.435100
O1291	O129	0.195600	0.655500	0.331000
O1301	O130	0.242000	0.614800	0.257100
O1311	O131	0.233500	0.401400	0.237500
O1321	O132	0.167900	0.356200	0.286900
C1901	C190	0.122900	0.501500	0.377800
C1911	C191	0.147700	0.553200	0.362800
H641	H64	0.137100	0.586700	0.381800
C1921	C192	0.188700	0.555100	0.319000
C1931	C193	0.206900	0.507600	0.292000
H651	H65	0.236100	0.509400	0.264800
C1941	C194	0.180300	0.453900	0.306100
C1951	C195	0.139900	0.451100	0.349600
H661	H66	0.124200	0.415900	0.360100
C1961	C196	0.078200	0.498100	0.423700
C1971	C197	0.210600	0.615300	0.301900
C1981	C198	0.198500	0.399900	0.275100
Zn231	Zn23	0.292400	0.237010	0.178840
O1331	O133	0.435900	0.046600	0.054400
O1341	O134	0.442100	0.952100	0.064900
O1351	O135	0.304400	0.155500	0.169000
O1361	O136	0.258000	0.114800	0.242900
O1371	O137	0.266500	0.901400	0.262500
O1381	O138	0.332100	0.856200	0.213100
C1991	C199	0.377100	0.001500	0.122200
C2001	C200	0.352300	0.053200	0.137200
H671	H67	0.362900	0.086700	0.118200
C2011	C201	0.311300	0.055100	0.181000
C2021	C202	0.293100	0.007600	0.208000
H681	H68	0.263900	0.009400	0.235200
C2031	C203	0.319700	0.953900	0.193900
C2041	C204	0.360100	0.951100	0.150400
H691	H69	0.375800	0.915900	0.139900
C2051	C205	0.421800	0.998100	0.076300
C2061	C206	0.289400	0.115300	0.198100
C2071	C207	0.301500	0.899900	0.224900
Zn241	Zn24	0.792400	0.737010	0.678840
O1391	O139	0.935900	0.546600	0.554400
O1401	O140	0.942100	0.452100	0.564900
O1411	O141	0.804400	0.655500	0.669000
O1421	O142	0.758000	0.614800	0.742900
O1431	O143	0.766500	0.401400	0.762500
O1441	O144	0.832100	0.356200	0.713100
C2081	C208	0.877100	0.501500	0.622200
C2091	C209	0.852300	0.553200	0.637200
H701	H70	0.862900	0.586700	0.618200
C2101	C210	0.811300	0.555100	0.681000
C2111	C211	0.793100	0.507600	0.708000
H711	H71	0.763900	0.509400	0.735200
C2121	C212	0.819700	0.453900	0.693900
C2131	C213	0.860100	0.451100	0.650400
H721	H72	0.875800	0.415900	0.639900
C2141	C214	0.921800	0.498100	0.576300
C2151	C215	0.789400	0.615300	0.698100
C2161	C216	0.801500	0.399900	0.724900
Zn251	Zn25	0.000000	0.500000	0.936780
Zn261	Zn26	0.500000	0.000000	0.436780
Zn271	Zn27	0.000000	0.500000	0.063220
Zn281	Zn28	0.500000	0.000000	0.563220
Zn291	Zn29	0.936780	0.000000	0.500000
Zn301	Zn30	0.436780	0.500000	0.000000
Zn311	Zn31	0.063220	0.000000	0.500000
Zn321	Zn32	0.563220	0.500000	0.000000
Zn331	Zn33	0.500000	0.936780	0.000000
Zn341	Zn34	0.000000	0.436780	0.500000
Zn351	Zn35	0.500000	0.063220	0.000000
Zn361	Zn36	0.000000	0.563220	0.500000
O1451	O145	0.251100	0.748900	0.748900
O1461	O146	0.751100	0.248900	0.248900
O1471	O147	0.748900	0.251100	0.748900
O1481	O148	0.248900	0.751100	0.248900
O1491	O149	0.748900	0.748900	0.251100
O1501	O150	0.248900	0.248900	0.751100
O1511	O151	0.251100	0.251100	0.251100
O1521	O152	0.751100	0.751100	0.751100
