data_MEFJUE_clean_PM
_symmetry_space_group_name_H-M	'P1'
_cell_length_a	20.220200
_cell_length_b	20.220200
_cell_length_c	20.220200
_cell_angle_alpha	109.471000
_cell_angle_beta	109.471000
_cell_angle_gamma	109.471000
_symmetry_Int_Tables_number 1

loop_
_symmetry_equiv_pos_as_xyz
'x,y,z'

loop_
_atom_site_label
_atom_site_type_symbol
_atom_site_fract_x
_atom_site_fract_y
_atom_site_fract_z
Zn11	Zn1	0.057280	0.533650	0.111550
Zn21	Zn2	0.422100	0.945730	0.888450
Zn31	Zn3	0.577900	0.466350	0.523630
Zn41	Zn4	0.942720	0.054270	0.476370
Zn51	Zn5	0.523630	0.577900	0.466350
Zn61	Zn6	0.476370	0.942720	0.054270
Zn71	Zn7	0.111550	0.057280	0.533650
Zn81	Zn8	0.888450	0.422100	0.945730
Zn91	Zn9	0.945730	0.888450	0.422100
Zn101	Zn10	0.533650	0.111550	0.057280
Zn111	Zn11	0.054270	0.476370	0.942720
Zn121	Zn12	0.466350	0.523630	0.577900
Cu11	Cu1	0.061570	0.561570	0.500000
Cu21	Cu2	0.938430	0.438430	0.500000
Cu31	Cu3	0.500000	0.938430	0.438430
Cu41	Cu4	0.500000	0.061570	0.561570
Cu51	Cu5	0.561570	0.500000	0.061570
Cu61	Cu6	0.438430	0.500000	0.938430
H11	H1	0.969900	0.455100	0.245600
H21	H2	0.773400	0.282700	0.032700
H31	H3	0.776000	0.302100	0.236300
H41	H4	0.209500	0.724300	0.754400
H51	H5	0.250000	0.740700	0.967300
H61	H6	0.065800	0.539700	0.763700
H71	H7	0.790500	0.544900	0.514800
H81	H8	0.750000	0.717300	0.490700
H91	H9	0.934200	0.697900	0.473900
H101	H10	0.030100	0.275700	0.485200
H111	H11	0.226600	0.259300	0.509300
H121	H12	0.224000	0.460300	0.526100
H131	H13	0.514800	0.790500	0.544900
H141	H14	0.490700	0.750000	0.717300
H151	H15	0.473900	0.934200	0.697900
H161	H16	0.485200	0.030100	0.275700
H171	H17	0.509300	0.226600	0.259300
H181	H18	0.526100	0.224000	0.460300
H191	H19	0.245600	0.969900	0.455100
H201	H20	0.032700	0.773400	0.282700
H211	H21	0.236300	0.776000	0.302100
H221	H22	0.754400	0.209500	0.724300
H231	H23	0.967300	0.250000	0.740700
H241	H24	0.763700	0.065800	0.539700
H251	H25	0.724300	0.754400	0.209500
H261	H26	0.740700	0.967300	0.250000
H271	H27	0.539700	0.763700	0.065800
H281	H28	0.455100	0.245600	0.969900
H291	H29	0.282700	0.032700	0.773400
H301	H30	0.302100	0.236300	0.776000
H311	H31	0.275700	0.485200	0.030100
H321	H32	0.259300	0.509300	0.226600
H331	H33	0.460300	0.526100	0.224000
H341	H34	0.544900	0.514800	0.790500
H351	H35	0.717300	0.490700	0.750000
H361	H36	0.697900	0.473900	0.934200
C11	C1	0.880600	0.383500	0.255900
C21	C2	0.917600	0.410900	0.215700
C31	C3	0.877500	0.373300	0.132200
C41	C4	0.800400	0.308700	0.088900
C51	C5	0.761300	0.280900	0.127400
C61	C6	0.801900	0.319400	0.210100
C71	C7	0.924800	0.424900	0.346500
C81	C8	0.917600	0.409100	0.092300
C91	C9	0.677500	0.210900	0.078200
C101	C10	0.127600	0.624700	0.744100
C111	C11	0.195200	0.701900	0.784300
C121	C12	0.241100	0.745300	0.867800
C131	C13	0.219800	0.711500	0.911100
C141	C14	0.153500	0.633900	0.872600
C151	C15	0.109300	0.591800	0.789900
C161	C16	0.078400	0.578300	0.653500
C171	C17	0.316800	0.825300	0.907700
C181	C18	0.132700	0.599300	0.921800
C191	C19	0.872400	0.616500	0.497100
C201	C20	0.804800	0.589100	0.506700
C211	C21	0.758900	0.626700	0.504200
C221	C22	0.780200	0.691300	0.491700
C231	C23	0.846500	0.719100	0.480400
C241	C24	0.890700	0.680600	0.482500
C251	C25	0.921600	0.575100	0.499900
C261	C26	0.683200	0.590900	0.508500
C271	C27	0.867300	0.789100	0.466600
C281	C28	0.119400	0.375300	0.502900
C291	C29	0.082400	0.298100	0.493300
C301	C30	0.122500	0.254700	0.495800
C311	C31	0.199600	0.288500	0.508300
C321	C32	0.238700	0.366100	0.519600
C331	C33	0.198100	0.408200	0.517500
C341	C34	0.075200	0.421700	0.500100
C351	C35	0.082400	0.174700	0.491500
C361	C36	0.322500	0.400700	0.533400
C371	C37	0.497100	0.872400	0.616500
C381	C38	0.506700	0.804800	0.589100
C391	C39	0.504200	0.758900	0.626700
C401	C40	0.491700	0.780200	0.691300
C411	C41	0.480400	0.846500	0.719100
C421	C42	0.482500	0.890700	0.680600
C431	C43	0.499900	0.921600	0.575100
C441	C44	0.508500	0.683200	0.590900
C451	C45	0.466600	0.867300	0.789100
C461	C46	0.502900	0.119400	0.375300
C471	C47	0.493300	0.082400	0.298100
C481	C48	0.495800	0.122500	0.254700
C491	C49	0.508300	0.199600	0.288500
C501	C50	0.519600	0.238700	0.366100
C511	C51	0.517500	0.198100	0.408200
C521	C52	0.500100	0.075200	0.421700
C531	C53	0.491500	0.082400	0.174700
C541	C54	0.533400	0.322500	0.400700
C551	C55	0.255900	0.880600	0.383500
C561	C56	0.215700	0.917600	0.410900
C571	C57	0.132200	0.877500	0.373300
C581	C58	0.088900	0.800400	0.308700
C591	C59	0.127400	0.761300	0.280900
C601	C60	0.210100	0.801900	0.319400
C611	C61	0.346500	0.924800	0.424900
C621	C62	0.092300	0.917600	0.409100
C631	C63	0.078200	0.677500	0.210900
C641	C64	0.744100	0.127600	0.624700
C651	C65	0.784300	0.195200	0.701900
C661	C66	0.867800	0.241100	0.745300
C671	C67	0.911100	0.219800	0.711500
C681	C68	0.872600	0.153500	0.633900
C691	C69	0.789900	0.109300	0.591800
C701	C70	0.653500	0.078400	0.578300
C711	C71	0.907700	0.316800	0.825300
C721	C72	0.921800	0.132700	0.599300
C731	C73	0.624700	0.744100	0.127600
C741	C74	0.701900	0.784300	0.195200
C751	C75	0.745300	0.867800	0.241100
C761	C76	0.711500	0.911100	0.219800
C771	C77	0.633900	0.872600	0.153500
C781	C78	0.591800	0.789900	0.109300
C791	C79	0.578300	0.653500	0.078400
C801	C80	0.825300	0.907700	0.316800
C811	C81	0.599300	0.921800	0.132700
C821	C82	0.383500	0.255900	0.880600
C831	C83	0.410900	0.215700	0.917600
C841	C84	0.373300	0.132200	0.877500
C851	C85	0.308700	0.088900	0.800400
C861	C86	0.280900	0.127400	0.761300
C871	C87	0.319400	0.210100	0.801900
C881	C88	0.424900	0.346500	0.924800
C891	C89	0.409100	0.092300	0.917600
C901	C90	0.210900	0.078200	0.677500
C911	C91	0.375300	0.502900	0.119400
C921	C92	0.298100	0.493300	0.082400
C931	C93	0.254700	0.495800	0.122500
C941	C94	0.288500	0.508300	0.199600
C951	C95	0.366100	0.519600	0.238700
C961	C96	0.408200	0.517500	0.198100
C971	C97	0.421700	0.500100	0.075200
C981	C98	0.174700	0.491500	0.082400
C991	C99	0.400700	0.533400	0.322500
C1001	C100	0.616500	0.497100	0.872400
C1011	C101	0.589100	0.506700	0.804800
C1021	C102	0.626700	0.504200	0.758900
C1031	C103	0.691300	0.491700	0.780200
C1041	C104	0.719100	0.480400	0.846500
C1051	C105	0.680600	0.482500	0.890700
C1061	C106	0.575100	0.499900	0.921600
C1071	C107	0.590900	0.508500	0.683200
C1081	C108	0.789100	0.466600	0.867300
O11	O1	0.994210	0.485350	0.383060
O21	O2	0.888830	0.397740	0.378490
O31	O3	0.988840	0.462600	0.135040
O41	O4	0.874570	0.378700	0.017070
O51	O5	0.640300	0.177200	0.005900
O61	O6	0.645600	0.193700	0.119700
O71	O7	0.102290	0.611150	0.616940
O81	O8	0.019250	0.510340	0.621510
O91	O9	0.327560	0.853800	0.864960
O101	O10	0.361630	0.857500	0.982930
O111	O11	0.171300	0.634400	0.994100
O121	O12	0.074000	0.525900	0.880300
O131	O13	0.897710	0.514650	0.508860
O141	O14	0.980750	0.602260	0.491090
O151	O15	0.672440	0.537400	0.526240
O161	O16	0.638370	0.621300	0.495870
O171	O17	0.828700	0.822800	0.463100
O181	O18	0.926000	0.806300	0.451900
O191	O19	0.005790	0.388850	0.491140
O201	O20	0.111170	0.489660	0.508910
O211	O21	0.011160	0.146200	0.473760
O221	O22	0.125430	0.142500	0.504130
O231	O23	0.359700	0.365600	0.536900
O241	O24	0.354400	0.474100	0.548100
O251	O25	0.508860	0.897710	0.514650
O261	O26	0.491090	0.980750	0.602260
O271	O27	0.526240	0.672440	0.537400
O281	O28	0.495870	0.638370	0.621300
O291	O29	0.463100	0.828700	0.822800
O301	O30	0.451900	0.926000	0.806300
O311	O31	0.491140	0.005790	0.388850
O321	O32	0.508910	0.111170	0.489660
O331	O33	0.473760	0.011160	0.146200
O341	O34	0.504130	0.125430	0.142500
O351	O35	0.536900	0.359700	0.365600
O361	O36	0.548100	0.354400	0.474100
O371	O37	0.383060	0.994210	0.485350
O381	O38	0.378490	0.888830	0.397740
O391	O39	0.135040	0.988840	0.462600
O401	O40	0.017070	0.874570	0.378700
O411	O41	0.005900	0.640300	0.177200
O421	O42	0.119700	0.645600	0.193700
O431	O43	0.616940	0.102290	0.611150
O441	O44	0.621510	0.019250	0.510340
O451	O45	0.864960	0.327560	0.853800
O461	O46	0.982930	0.361630	0.857500
O471	O47	0.994100	0.171300	0.634400
O481	O48	0.880300	0.074000	0.525900
O491	O49	0.611150	0.616940	0.102290
O501	O50	0.510340	0.621510	0.019250
O511	O51	0.853800	0.864960	0.327560
O521	O52	0.857500	0.982930	0.361630
O531	O53	0.634400	0.994100	0.171300
O541	O54	0.525900	0.880300	0.074000
O551	O55	0.485350	0.383060	0.994210
O561	O56	0.397740	0.378490	0.888830
O571	O57	0.462600	0.135040	0.988840
O581	O58	0.378700	0.017070	0.874570
O591	O59	0.177200	0.005900	0.640300
O601	O60	0.193700	0.119700	0.645600
O611	O61	0.388850	0.491140	0.005790
O621	O62	0.489660	0.508910	0.111170
O631	O63	0.146200	0.473760	0.011160
O641	O64	0.142500	0.504130	0.125430
O651	O65	0.365600	0.536900	0.359700
O661	O66	0.474100	0.548100	0.354400
O671	O67	0.514650	0.508860	0.897710
O681	O68	0.602260	0.491090	0.980750
O691	O69	0.537400	0.526240	0.672440
O701	O70	0.621300	0.495870	0.638370
O711	O71	0.822800	0.463100	0.828700
O721	O72	0.806300	0.451900	0.926000
O731	O73	0.000000	0.508260	0.000000
O741	O74	0.508260	0.000000	0.000000
O751	O75	0.491740	0.491740	0.491740
O761	O76	0.000000	0.000000	0.508260
