data_MEFZUU_manual_PM
_symmetry_space_group_name_H-M	'P1'
_cell_length_a	38.142800
_cell_length_b	38.142800
_cell_length_c	39.245600
_cell_angle_alpha	66.477700
_cell_angle_beta	66.478000
_cell_angle_gamma	100.295000
_symmetry_Int_Tables_number 1

loop_
_symmetry_equiv_pos_as_xyz
'x,y,z'

loop_
_atom_site_label
_atom_site_type_symbol
_atom_site_fract_x
_atom_site_fract_y
_atom_site_fract_z
Mn11	Mn1	0.250000	0.000000	0.250000
Mn21	Mn2	0.000000	0.250000	0.250000
Mn31	Mn3	0.250000	0.250000	0.250000
Mn41	Mn4	0.000000	0.000000	0.250000
Mn51	Mn5	0.341700	0.341700	0.146170
Mn61	Mn6	0.012130	0.012130	0.146170
Mn71	Mn7	0.158300	0.158300	0.353830
Mn81	Mn8	0.487870	0.487870	0.353830
Mn91	Mn9	0.014580	0.292760	0.000000
Mn101	Mn10	0.485420	0.207250	0.000000
Mn111	Mn11	0.207250	0.485420	0.000000
Mn121	Mn12	0.292760	0.014580	0.000000
H131	H13	0.351650	0.129850	0.220700
H141	H14	0.273200	0.141900	0.135000
H151	H15	0.284100	0.167800	0.205500
H161	H16	0.386050	0.266950	0.101400
H171	H17	0.369650	0.153450	0.117800
H181	H18	0.427650	0.149450	0.220700
H191	H19	0.091800	0.223100	0.135000
H201	H20	0.010400	0.126700	0.205500
H211	H21	0.012550	0.131650	0.101400
H221	H22	0.012550	0.228750	0.117800
H231	H23	0.370150	0.148350	0.279300
H241	H24	0.358100	0.226800	0.365000
H251	H25	0.332200	0.215900	0.294500
H261	H26	0.233050	0.113950	0.398600
H271	H27	0.346550	0.130350	0.382200
H281	H28	0.350550	0.072350	0.279300
H291	H29	0.276900	0.408200	0.365000
H301	H30	0.373300	0.489600	0.294500
H311	H31	0.368350	0.487450	0.398600
H321	H32	0.271250	0.487450	0.382200
H331	H33	0.148350	0.370150	0.279300
H341	H34	0.226800	0.358100	0.365000
H351	H35	0.215900	0.332200	0.294500
H361	H36	0.113950	0.233050	0.398600
H371	H37	0.130350	0.346550	0.382200
H381	H38	0.072350	0.350550	0.279300
H391	H39	0.408200	0.276900	0.365000
H401	H40	0.489600	0.373300	0.294500
H411	H41	0.487450	0.368350	0.398600
H421	H42	0.487450	0.271250	0.382200
H431	H43	0.129850	0.351650	0.220700
H441	H44	0.141900	0.273200	0.135000
H451	H45	0.167800	0.284100	0.205500
H461	H46	0.266950	0.386050	0.101400
H471	H47	0.153450	0.369650	0.117800
H481	H48	0.149450	0.427650	0.220700
H491	H49	0.223100	0.091800	0.135000
H501	H50	0.126700	0.010400	0.205500
H511	H51	0.131650	0.012550	0.101400
H521	H52	0.228750	0.012550	0.117800
C531	C53	0.336050	0.101550	0.234000
C541	C54	0.308040	0.083660	0.224000
C551	C55	0.299530	0.107030	0.192940
C561	C56	0.271580	0.089240	0.184380
C571	C57	0.262250	0.112950	0.152400
C581	C58	0.323190	0.153080	0.166330
C591	C59	0.309450	0.179150	0.179800
C601	C60	0.332720	0.221220	0.155870
C611	C61	0.370150	0.238250	0.117700
C621	C62	0.384580	0.212980	0.103150
C631	C63	0.360530	0.170530	0.127540
C641	C64	0.317500	0.249200	0.170800
C651	C65	0.426350	0.231150	0.062500
C661	C66	0.429950	0.164450	0.234000
C671	C67	0.467960	0.192340	0.224000
C681	C68	0.007530	0.200030	0.192940
C691	C69	0.044040	0.226380	0.184380
C701	C70	0.085350	0.234650	0.152400
C711	C71	0.010480	0.180590	0.166330
C721	C72	0.010750	0.141050	0.179800
C731	C73	0.011410	0.122920	0.155870
C741	C74	0.012150	0.144050	0.117700
C751	C75	0.012270	0.183880	0.103150
C761	C76	0.011930	0.201930	0.127540
C771	C77	0.011700	0.080000	0.170800
C781	C78	0.011150	0.206350	0.062500
C791	C79	0.398450	0.163950	0.266000
C801	C80	0.416340	0.191960	0.276000
C811	C81	0.392970	0.200470	0.307060
C821	C82	0.410760	0.228420	0.315620
C831	C83	0.387050	0.237750	0.347600
C841	C84	0.346920	0.176810	0.333670
C851	C85	0.320850	0.190550	0.320200
C861	C86	0.278790	0.167290	0.344130
C871	C87	0.261750	0.129850	0.382300
C881	C88	0.287030	0.115430	0.396850
C891	C89	0.329470	0.139470	0.372460
C901	C90	0.250800	0.182500	0.329200
C911	C91	0.268850	0.073650	0.437500
C921	C92	0.335550	0.070050	0.266000
C931	C93	0.307660	0.032040	0.276000
C941	C94	0.299970	0.492470	0.307060
C951	C95	0.273620	0.455960	0.315620
C961	C96	0.265350	0.414650	0.347600
C971	C97	0.319420	0.489520	0.333670
C981	C98	0.358950	0.489250	0.320200
C991	C99	0.377090	0.488590	0.344130
C1001	C100	0.355950	0.487850	0.382300
C1011	C101	0.316120	0.487730	0.396850
C1021	C102	0.298070	0.488070	0.372460
C1031	C103	0.420000	0.488300	0.329200
C1041	C104	0.293650	0.488850	0.437500
C1051	C105	0.163950	0.398450	0.266000
C1061	C106	0.191960	0.416340	0.276000
C1071	C107	0.200470	0.392970	0.307060
C1081	C108	0.228420	0.410760	0.315620
C1091	C109	0.237750	0.387050	0.347600
C1101	C110	0.176820	0.346920	0.333670
C1111	C111	0.190550	0.320850	0.320200
C1121	C112	0.167290	0.278790	0.344130
C1131	C113	0.129850	0.261750	0.382300
C1141	C114	0.115430	0.287030	0.396850
C1151	C115	0.139470	0.329470	0.372460
C1161	C116	0.182500	0.250800	0.329200
C1171	C117	0.073650	0.268850	0.437500
C1181	C118	0.070050	0.335550	0.266000
C1191	C119	0.032040	0.307660	0.276000
C1201	C120	0.492470	0.299970	0.307060
C1211	C121	0.455960	0.273620	0.315620
C1221	C122	0.414650	0.265350	0.347600
C1231	C123	0.489520	0.319420	0.333670
C1241	C124	0.489250	0.358950	0.320200
C1251	C125	0.488590	0.377080	0.344130
C1261	C126	0.487850	0.355950	0.382300
C1271	C127	0.487730	0.316130	0.396850
C1281	C128	0.488070	0.298070	0.372460
C1291	C129	0.488300	0.420000	0.329200
C1301	C130	0.488850	0.293650	0.437500
C1311	C131	0.101550	0.336050	0.234000
C1321	C132	0.083660	0.308040	0.224000
C1331	C133	0.107030	0.299530	0.192940
C1341	C134	0.089240	0.271580	0.184380
C1351	C135	0.112950	0.262250	0.152400
C1361	C136	0.153090	0.323190	0.166330
C1371	C137	0.179150	0.309450	0.179800
C1381	C138	0.221220	0.332710	0.155870
C1391	C139	0.238250	0.370150	0.117700
C1401	C140	0.212980	0.384580	0.103150
C1411	C141	0.170530	0.360530	0.127540
C1421	C142	0.249200	0.317500	0.170800
C1431	C143	0.231150	0.426350	0.062500
C1441	C144	0.164450	0.429950	0.234000
C1451	C145	0.192340	0.467960	0.224000
C1461	C146	0.200030	0.007530	0.192940
C1471	C147	0.226380	0.044040	0.184380
C1481	C148	0.234650	0.085350	0.152400
C1491	C149	0.180590	0.010490	0.166330
C1501	C150	0.141050	0.010750	0.179800
C1511	C151	0.122920	0.011410	0.155870
C1521	C152	0.144050	0.012150	0.117700
C1531	C153	0.183880	0.012270	0.103150
C1541	C154	0.201930	0.011930	0.127540
C1551	C155	0.080000	0.011700	0.170800
C1561	C156	0.206350	0.011150	0.062500
N1571	N157	0.249180	0.047380	0.203440
N1581	N158	0.047380	0.249180	0.203440
N1591	N159	0.452620	0.250820	0.296560
N1601	N160	0.250820	0.452620	0.296560
N1611	N161	0.291200	0.041200	0.250000
N1621	N162	0.458800	0.208800	0.250000
N1631	N163	0.208800	0.458800	0.250000
N1641	N164	0.041200	0.291200	0.250000
Cl1651	Cl165	0.041500	0.352950	0.000000
Cl1661	Cl166	0.458500	0.147050	0.000000
Cl1671	Cl167	0.147050	0.458500	0.000000
Cl1681	Cl168	0.352950	0.041500	0.000000
Cl1691	Cl169	0.192190	0.001580	0.306230
Cl1701	Cl170	0.001580	0.192190	0.306230
Cl1711	Cl171	0.498420	0.307820	0.193770
Cl1721	Cl172	0.307820	0.498420	0.193770
O1731	O173	0.284920	0.232500	0.206290
O1741	O174	0.339650	0.287050	0.147000
O1751	O175	0.450330	0.267330	0.047150
O1761	O176	0.433810	0.207800	0.048090
O1771	O177	0.008790	0.061220	0.206290
O1781	O178	0.013350	0.065950	0.147000
O1791	O179	0.002520	0.185530	0.047150
O1801	O180	0.018100	0.244110	0.048090
O1811	O181	0.267510	0.215090	0.293710
O1821	O182	0.212950	0.160350	0.353000
O1831	O183	0.232680	0.049670	0.452850
O1841	O184	0.292200	0.066190	0.451910
O1851	O185	0.438790	0.491210	0.293710
O1861	O186	0.434050	0.486650	0.353000
O1871	O187	0.314480	0.497480	0.452850
O1881	O188	0.255890	0.481900	0.451910
O1891	O189	0.215090	0.267510	0.293710
O1901	O190	0.160350	0.212950	0.353000
O1911	O191	0.049680	0.232670	0.452850
O1921	O192	0.066190	0.292200	0.451910
O1931	O193	0.491210	0.438790	0.293710
O1941	O194	0.486650	0.434050	0.353000
O1951	O195	0.497480	0.314480	0.452850
O1961	O196	0.481900	0.255890	0.451910
O1971	O197	0.232500	0.284920	0.206290
O1981	O198	0.287050	0.339650	0.147000
O1991	O199	0.267330	0.450330	0.047150
O2001	O200	0.207800	0.433810	0.048090
O2011	O201	0.061220	0.008800	0.206290
O2021	O202	0.065950	0.013350	0.147000
O2031	O203	0.185530	0.002520	0.047150
O2041	O204	0.244110	0.018100	0.048090
Mn2051	Mn205	0.750000	0.000000	0.250000
Mn2061	Mn206	0.500000	0.250000	0.250000
Mn2071	Mn207	0.750000	0.250000	0.250000
Mn2081	Mn208	0.500000	0.000000	0.250000
Mn2091	Mn209	0.841700	0.341700	0.146170
Mn2101	Mn210	0.512130	0.012130	0.146170
Mn2111	Mn211	0.658300	0.158300	0.353830
Mn2121	Mn212	0.987870	0.487870	0.353830
Mn2131	Mn213	0.514590	0.292760	0.000000
Mn2141	Mn214	0.985420	0.207250	0.000000
Mn2151	Mn215	0.707250	0.485420	0.000000
Mn2161	Mn216	0.792760	0.014580	0.000000
H2171	H217	0.851650	0.129850	0.220700
H2181	H218	0.773200	0.141900	0.135000
H2191	H219	0.784100	0.167800	0.205500
H2201	H220	0.886050	0.266950	0.101400
H2211	H221	0.869650	0.153450	0.117800
H2221	H222	0.927650	0.149450	0.220700
H2231	H223	0.591800	0.223100	0.135000
H2241	H224	0.510400	0.126700	0.205500
H2251	H225	0.512550	0.131650	0.101400
H2261	H226	0.512550	0.228750	0.117800
H2271	H227	0.870150	0.148350	0.279300
H2281	H228	0.858100	0.226800	0.365000
H2291	H229	0.832200	0.215900	0.294500
H2301	H230	0.733050	0.113950	0.398600
H2311	H231	0.846550	0.130350	0.382200
H2321	H232	0.850550	0.072350	0.279300
H2331	H233	0.776900	0.408200	0.365000
H2341	H234	0.873300	0.489600	0.294500
H2351	H235	0.868350	0.487450	0.398600
H2361	H236	0.771250	0.487450	0.382200
H2371	H237	0.648350	0.370150	0.279300
H2381	H238	0.726800	0.358100	0.365000
H2391	H239	0.715900	0.332200	0.294500
H2401	H240	0.613950	0.233050	0.398600
H2411	H241	0.630350	0.346550	0.382200
H2421	H242	0.572350	0.350550	0.279300
H2431	H243	0.908200	0.276900	0.365000
H2441	H244	0.989600	0.373300	0.294500
H2451	H245	0.987450	0.368350	0.398600
H2461	H246	0.987450	0.271250	0.382200
H2471	H247	0.629850	0.351650	0.220700
H2481	H248	0.641900	0.273200	0.135000
H2491	H249	0.667800	0.284100	0.205500
H2501	H250	0.766950	0.386050	0.101400
H2511	H251	0.653450	0.369650	0.117800
H2521	H252	0.649450	0.427650	0.220700
H2531	H253	0.723100	0.091800	0.135000
H2541	H254	0.626700	0.010400	0.205500
H2551	H255	0.631650	0.012550	0.101400
H2561	H256	0.728750	0.012550	0.117800
C2571	C257	0.836050	0.101550	0.234000
C2581	C258	0.808040	0.083660	0.224000
C2591	C259	0.799530	0.107030	0.192940
C2601	C260	0.771580	0.089240	0.184380
C2611	C261	0.762250	0.112950	0.152400
C2621	C262	0.823190	0.153080	0.166330
C2631	C263	0.809450	0.179150	0.179800
C2641	C264	0.832720	0.221220	0.155870
C2651	C265	0.870150	0.238250	0.117700
C2661	C266	0.884580	0.212980	0.103150
C2671	C267	0.860530	0.170530	0.127540
C2681	C268	0.817500	0.249200	0.170800
C2691	C269	0.926350	0.231150	0.062500
C2701	C270	0.929950	0.164450	0.234000
C2711	C271	0.967960	0.192340	0.224000
C2721	C272	0.507530	0.200030	0.192940
C2731	C273	0.544040	0.226380	0.184380
C2741	C274	0.585350	0.234650	0.152400
C2751	C275	0.510490	0.180580	0.166330
C2761	C276	0.510750	0.141050	0.179800
C2771	C277	0.511420	0.122920	0.155870
C2781	C278	0.512150	0.144050	0.117700
C2791	C279	0.512280	0.183880	0.103150
C2801	C280	0.511930	0.201930	0.127540
C2811	C281	0.511700	0.080000	0.170800
C2821	C282	0.511150	0.206350	0.062500
C2831	C283	0.898450	0.163950	0.266000
C2841	C284	0.916340	0.191960	0.276000
C2851	C285	0.892970	0.200470	0.307060
C2861	C286	0.910760	0.228420	0.315620
C2871	C287	0.887050	0.237750	0.347600
C2881	C288	0.846920	0.176810	0.333670
C2891	C289	0.820850	0.190550	0.320200
C2901	C290	0.778790	0.167290	0.344130
C2911	C291	0.761750	0.129850	0.382300
C2921	C292	0.787030	0.115430	0.396850
C2931	C293	0.829470	0.139470	0.372460
C2941	C294	0.750800	0.182500	0.329200
C2951	C295	0.768850	0.073650	0.437500
C2961	C296	0.835550	0.070050	0.266000
C2971	C297	0.807660	0.032040	0.276000
C2981	C298	0.799970	0.492470	0.307060
C2991	C299	0.773620	0.455960	0.315620
C3001	C300	0.765350	0.414650	0.347600
C3011	C301	0.819420	0.489520	0.333670
C3021	C302	0.858950	0.489250	0.320200
C3031	C303	0.877090	0.488590	0.344130
C3041	C304	0.855950	0.487850	0.382300
C3051	C305	0.816130	0.487730	0.396850
C3061	C306	0.798070	0.488070	0.372460
C3071	C307	0.920000	0.488300	0.329200
C3081	C308	0.793650	0.488850	0.437500
C3091	C309	0.663950	0.398450	0.266000
C3101	C310	0.691960	0.416340	0.276000
C3111	C311	0.700470	0.392970	0.307060
C3121	C312	0.728420	0.410760	0.315620
C3131	C313	0.737750	0.387050	0.347600
C3141	C314	0.676820	0.346920	0.333670
C3151	C315	0.690550	0.320850	0.320200
C3161	C316	0.667290	0.278790	0.344130
C3171	C317	0.629850	0.261750	0.382300
C3181	C318	0.615430	0.287030	0.396850
C3191	C319	0.639470	0.329470	0.372460
C3201	C320	0.682500	0.250800	0.329200
C3211	C321	0.573650	0.268850	0.437500
C3221	C322	0.570050	0.335550	0.266000
C3231	C323	0.532040	0.307660	0.276000
C3241	C324	0.992470	0.299970	0.307060
C3251	C325	0.955960	0.273620	0.315620
C3261	C326	0.914650	0.265350	0.347600
C3271	C327	0.989520	0.319420	0.333670
C3281	C328	0.989250	0.358950	0.320200
C3291	C329	0.988590	0.377080	0.344130
C3301	C330	0.987850	0.355950	0.382300
C3311	C331	0.987730	0.316130	0.396850
C3321	C332	0.988070	0.298070	0.372460
C3331	C333	0.988300	0.420000	0.329200
C3341	C334	0.988850	0.293650	0.437500
C3351	C335	0.601550	0.336050	0.234000
C3361	C336	0.583660	0.308040	0.224000
C3371	C337	0.607030	0.299530	0.192940
C3381	C338	0.589240	0.271580	0.184380
C3391	C339	0.612950	0.262250	0.152400
C3401	C340	0.653090	0.323190	0.166330
C3411	C341	0.679150	0.309450	0.179800
C3421	C342	0.721220	0.332710	0.155870
C3431	C343	0.738250	0.370150	0.117700
C3441	C344	0.712980	0.384580	0.103150
C3451	C345	0.670530	0.360530	0.127540
C3461	C346	0.749200	0.317500	0.170800
C3471	C347	0.731150	0.426350	0.062500
C3481	C348	0.664450	0.429950	0.234000
C3491	C349	0.692340	0.467960	0.224000
C3501	C350	0.700030	0.007530	0.192940
C3511	C351	0.726380	0.044040	0.184380
C3521	C352	0.734650	0.085350	0.152400
C3531	C353	0.680590	0.010490	0.166330
C3541	C354	0.641050	0.010750	0.179800
C3551	C355	0.622920	0.011410	0.155870
C3561	C356	0.644050	0.012150	0.117700
C3571	C357	0.683880	0.012270	0.103150
C3581	C358	0.701930	0.011930	0.127540
C3591	C359	0.580000	0.011700	0.170800
C3601	C360	0.706350	0.011150	0.062500
N3611	N361	0.749180	0.047380	0.203440
N3621	N362	0.547380	0.249180	0.203440
N3631	N363	0.952620	0.250820	0.296560
N3641	N364	0.750820	0.452620	0.296560
N3651	N365	0.791200	0.041200	0.250000
N3661	N366	0.958800	0.208800	0.250000
N3671	N367	0.708800	0.458800	0.250000
N3681	N368	0.541200	0.291200	0.250000
Cl3691	Cl369	0.541500	0.352950	0.000000
Cl3701	Cl370	0.958500	0.147050	0.000000
Cl3711	Cl371	0.647050	0.458500	0.000000
Cl3721	Cl372	0.852950	0.041500	0.000000
Cl3731	Cl373	0.692190	0.001580	0.306230
Cl3741	Cl374	0.807820	0.498420	0.193770
O3751	O375	0.784920	0.232500	0.206290
O3761	O376	0.839650	0.287050	0.147000
O3771	O377	0.950330	0.267330	0.047150
O3781	O378	0.933810	0.207800	0.048090
O3791	O379	0.508790	0.061210	0.206290
O3801	O380	0.513350	0.065950	0.147000
O3811	O381	0.502530	0.185530	0.047150
O3821	O382	0.518100	0.244110	0.048090
O3831	O383	0.767510	0.215090	0.293710
O3841	O384	0.712950	0.160350	0.353000
O3851	O385	0.732680	0.049670	0.452850
O3861	O386	0.792200	0.066190	0.451910
O3871	O387	0.938790	0.491210	0.293710
O3881	O388	0.934050	0.486650	0.353000
O3891	O389	0.814480	0.497480	0.452850
O3901	O390	0.755890	0.481900	0.451910
O3911	O391	0.715090	0.267510	0.293710
O3921	O392	0.660350	0.212950	0.353000
O3931	O393	0.549680	0.232670	0.452850
O3941	O394	0.566190	0.292200	0.451910
O3951	O395	0.991210	0.438790	0.293710
O3961	O396	0.986650	0.434050	0.353000
O3971	O397	0.997480	0.314470	0.452850
O3981	O398	0.981900	0.255890	0.451910
O3991	O399	0.732500	0.284920	0.206290
O4001	O400	0.787050	0.339650	0.147000
O4011	O401	0.767330	0.450330	0.047150
O4021	O402	0.707800	0.433810	0.048090
O4031	O403	0.561220	0.008800	0.206290
O4041	O404	0.565950	0.013350	0.147000
O4051	O405	0.685530	0.002520	0.047150
O4061	O406	0.744110	0.018100	0.048090
Mn4071	Mn407	0.250000	0.500000	0.250000
Mn4081	Mn408	0.000000	0.750000	0.250000
Mn4091	Mn409	0.250000	0.750000	0.250000
Mn4101	Mn410	0.000000	0.500000	0.250000
Mn4111	Mn411	0.341700	0.841700	0.146170
Mn4121	Mn412	0.012130	0.512130	0.146170
Mn4131	Mn413	0.158300	0.658300	0.353830
Mn4141	Mn414	0.487870	0.987870	0.353830
Mn4151	Mn415	0.014580	0.792760	0.000000
Mn4161	Mn416	0.485420	0.707250	0.000000
Mn4171	Mn417	0.207250	0.985420	0.000000
Mn4181	Mn418	0.292760	0.514580	0.000000
H4191	H419	0.351650	0.629850	0.220700
H4201	H420	0.273200	0.641900	0.135000
H4211	H421	0.284100	0.667800	0.205500
H4221	H422	0.386050	0.766950	0.101400
H4231	H423	0.369650	0.653450	0.117800
H4241	H424	0.427650	0.649450	0.220700
H4251	H425	0.091800	0.723100	0.135000
H4261	H426	0.010400	0.626700	0.205500
H4271	H427	0.012550	0.631650	0.101400
H4281	H428	0.012550	0.728750	0.117800
H4291	H429	0.370150	0.648350	0.279300
H4301	H430	0.358100	0.726800	0.365000
H4311	H431	0.332200	0.715900	0.294500
H4321	H432	0.233050	0.613950	0.398600
H4331	H433	0.346550	0.630350	0.382200
H4341	H434	0.350550	0.572350	0.279300
H4351	H435	0.276900	0.908200	0.365000
H4361	H436	0.373300	0.989600	0.294500
H4371	H437	0.368350	0.987450	0.398600
H4381	H438	0.271250	0.987450	0.382200
H4391	H439	0.148350	0.870150	0.279300
H4401	H440	0.226800	0.858100	0.365000
H4411	H441	0.215900	0.832200	0.294500
H4421	H442	0.113950	0.733050	0.398600
H4431	H443	0.130350	0.846550	0.382200
H4441	H444	0.072350	0.850550	0.279300
H4451	H445	0.408200	0.776900	0.365000
H4461	H446	0.489600	0.873300	0.294500
H4471	H447	0.487450	0.868350	0.398600
H4481	H448	0.487450	0.771250	0.382200
H4491	H449	0.129850	0.851650	0.220700
H4501	H450	0.141900	0.773200	0.135000
H4511	H451	0.167800	0.784100	0.205500
H4521	H452	0.266950	0.886050	0.101400
H4531	H453	0.153450	0.869650	0.117800
H4541	H454	0.149450	0.927650	0.220700
H4551	H455	0.223100	0.591800	0.135000
H4561	H456	0.126700	0.510400	0.205500
H4571	H457	0.131650	0.512550	0.101400
H4581	H458	0.228750	0.512550	0.117800
C4591	C459	0.336050	0.601550	0.234000
C4601	C460	0.308040	0.583660	0.224000
C4611	C461	0.299530	0.607030	0.192940
C4621	C462	0.271580	0.589240	0.184380
C4631	C463	0.262250	0.612950	0.152400
C4641	C464	0.323190	0.653090	0.166330
C4651	C465	0.309450	0.679150	0.179800
C4661	C466	0.332720	0.721220	0.155870
C4671	C467	0.370150	0.738250	0.117700
C4681	C468	0.384580	0.712980	0.103150
C4691	C469	0.360530	0.670530	0.127540
C4701	C470	0.317500	0.749200	0.170800
C4711	C471	0.426350	0.731150	0.062500
C4721	C472	0.429950	0.664450	0.234000
C4731	C473	0.467960	0.692340	0.224000
C4741	C474	0.007530	0.700030	0.192940
C4751	C475	0.044040	0.726380	0.184380
C4761	C476	0.085350	0.734650	0.152400
C4771	C477	0.010480	0.680590	0.166330
C4781	C478	0.010750	0.641050	0.179800
C4791	C479	0.011410	0.622920	0.155870
C4801	C480	0.012150	0.644050	0.117700
C4811	C481	0.012270	0.683880	0.103150
C4821	C482	0.011930	0.701930	0.127540
C4831	C483	0.011700	0.580000	0.170800
C4841	C484	0.011150	0.706350	0.062500
C4851	C485	0.398450	0.663950	0.266000
C4861	C486	0.416340	0.691960	0.276000
C4871	C487	0.392970	0.700470	0.307060
C4881	C488	0.410760	0.728420	0.315620
C4891	C489	0.387050	0.737750	0.347600
C4901	C490	0.346920	0.676810	0.333670
C4911	C491	0.320850	0.690550	0.320200
C4921	C492	0.278790	0.667290	0.344130
C4931	C493	0.261750	0.629850	0.382300
C4941	C494	0.287030	0.615430	0.396850
C4951	C495	0.329470	0.639470	0.372460
C4961	C496	0.250800	0.682500	0.329200
C4971	C497	0.268850	0.573650	0.437500
C4981	C498	0.335550	0.570050	0.266000
C4991	C499	0.307660	0.532040	0.276000
C5001	C500	0.299970	0.992470	0.307060
C5011	C501	0.273620	0.955960	0.315620
C5021	C502	0.265350	0.914650	0.347600
C5031	C503	0.319420	0.989520	0.333670
C5041	C504	0.358950	0.989250	0.320200
C5051	C505	0.377090	0.988590	0.344130
C5061	C506	0.355950	0.987850	0.382300
C5071	C507	0.316120	0.987730	0.396850
C5081	C508	0.298070	0.988070	0.372460
C5091	C509	0.420000	0.988300	0.329200
C5101	C510	0.293650	0.988850	0.437500
C5111	C511	0.163950	0.898450	0.266000
C5121	C512	0.191960	0.916340	0.276000
C5131	C513	0.200470	0.892970	0.307060
C5141	C514	0.228420	0.910760	0.315620
C5151	C515	0.237750	0.887050	0.347600
C5161	C516	0.176820	0.846920	0.333670
C5171	C517	0.190550	0.820850	0.320200
C5181	C518	0.167290	0.778790	0.344130
C5191	C519	0.129850	0.761750	0.382300
C5201	C520	0.115430	0.787030	0.396850
C5211	C521	0.139470	0.829470	0.372460
C5221	C522	0.182500	0.750800	0.329200
C5231	C523	0.073650	0.768850	0.437500
C5241	C524	0.070050	0.835550	0.266000
C5251	C525	0.032040	0.807660	0.276000
C5261	C526	0.492470	0.799970	0.307060
C5271	C527	0.455960	0.773620	0.315620
C5281	C528	0.414650	0.765350	0.347600
C5291	C529	0.489520	0.819420	0.333670
C5301	C530	0.489250	0.858950	0.320200
C5311	C531	0.488590	0.877080	0.344130
C5321	C532	0.487850	0.855950	0.382300
C5331	C533	0.487730	0.816130	0.396850
C5341	C534	0.488070	0.798070	0.372460
C5351	C535	0.488300	0.920000	0.329200
C5361	C536	0.488850	0.793650	0.437500
C5371	C537	0.101550	0.836050	0.234000
C5381	C538	0.083660	0.808040	0.224000
C5391	C539	0.107030	0.799530	0.192940
C5401	C540	0.089240	0.771580	0.184380
C5411	C541	0.112950	0.762250	0.152400
C5421	C542	0.153090	0.823190	0.166330
C5431	C543	0.179150	0.809450	0.179800
C5441	C544	0.221220	0.832720	0.155870
C5451	C545	0.238250	0.870150	0.117700
C5461	C546	0.212980	0.884580	0.103150
C5471	C547	0.170530	0.860530	0.127540
C5481	C548	0.249200	0.817500	0.170800
C5491	C549	0.231150	0.926350	0.062500
C5501	C550	0.164450	0.929950	0.234000
C5511	C551	0.192340	0.967960	0.224000
C5521	C552	0.200030	0.507530	0.192940
C5531	C553	0.226380	0.544040	0.184380
C5541	C554	0.234650	0.585350	0.152400
C5551	C555	0.180590	0.510490	0.166330
C5561	C556	0.141050	0.510750	0.179800
C5571	C557	0.122920	0.511410	0.155870
C5581	C558	0.144050	0.512150	0.117700
C5591	C559	0.183880	0.512270	0.103150
C5601	C560	0.201930	0.511930	0.127540
C5611	C561	0.080000	0.511700	0.170800
C5621	C562	0.206350	0.511150	0.062500
N5631	N563	0.249180	0.547380	0.203440
N5641	N564	0.047380	0.749180	0.203440
N5651	N565	0.452620	0.750820	0.296560
N5661	N566	0.250820	0.952620	0.296560
N5671	N567	0.291200	0.541200	0.250000
N5681	N568	0.458800	0.708800	0.250000
N5691	N569	0.208800	0.958800	0.250000
N5701	N570	0.041200	0.791200	0.250000
Cl5711	Cl571	0.041500	0.852950	0.000000
Cl5721	Cl572	0.458500	0.647050	0.000000
Cl5731	Cl573	0.147050	0.958500	0.000000
Cl5741	Cl574	0.352950	0.541500	0.000000
Cl5751	Cl575	0.001580	0.692190	0.306230
Cl5761	Cl576	0.498420	0.807820	0.193770
O5771	O577	0.284920	0.732500	0.206290
O5781	O578	0.339650	0.787050	0.147000
O5791	O579	0.450330	0.767330	0.047150
O5801	O580	0.433810	0.707800	0.048090
O5811	O581	0.008790	0.561220	0.206290
O5821	O582	0.013350	0.565950	0.147000
O5831	O583	0.002520	0.685530	0.047150
O5841	O584	0.018100	0.744110	0.048090
O5851	O585	0.267510	0.715090	0.293710
O5861	O586	0.212950	0.660350	0.353000
O5871	O587	0.232680	0.549670	0.452850
O5881	O588	0.292200	0.566190	0.451910
O5891	O589	0.438790	0.991210	0.293710
O5901	O590	0.434050	0.986650	0.353000
O5911	O591	0.314480	0.997480	0.452850
O5921	O592	0.255890	0.981900	0.451910
O5931	O593	0.215090	0.767510	0.293710
O5941	O594	0.160350	0.712950	0.353000
O5951	O595	0.049680	0.732670	0.452850
O5961	O596	0.066190	0.792200	0.451910
O5971	O597	0.491210	0.938790	0.293710
O5981	O598	0.486650	0.934050	0.353000
O5991	O599	0.497480	0.814480	0.452850
O6001	O600	0.481900	0.755890	0.451910
O6011	O601	0.232500	0.784920	0.206290
O6021	O602	0.287050	0.839650	0.147000
O6031	O603	0.267330	0.950330	0.047150
O6041	O604	0.207800	0.933810	0.048090
O6051	O605	0.061220	0.508800	0.206290
O6061	O606	0.065950	0.513350	0.147000
O6071	O607	0.185530	0.502530	0.047150
O6081	O608	0.244110	0.518100	0.048090
Mn6091	Mn609	0.750000	0.500000	0.250000
Mn6101	Mn610	0.500000	0.750000	0.250000
Mn6111	Mn611	0.750000	0.750000	0.250000
Mn6121	Mn612	0.500000	0.500000	0.250000
Mn6131	Mn613	0.841700	0.841700	0.146170
Mn6141	Mn614	0.512130	0.512130	0.146170
Mn6151	Mn615	0.658300	0.658300	0.353830
Mn6161	Mn616	0.987870	0.987870	0.353830
Mn6171	Mn617	0.514590	0.792760	0.000000
Mn6181	Mn618	0.985420	0.707250	0.000000
Mn6191	Mn619	0.707250	0.985420	0.000000
Mn6201	Mn620	0.792760	0.514580	0.000000
H6211	H621	0.851650	0.629850	0.220700
H6221	H622	0.773200	0.641900	0.135000
H6231	H623	0.784100	0.667800	0.205500
H6241	H624	0.886050	0.766950	0.101400
H6251	H625	0.869650	0.653450	0.117800
H6261	H626	0.927650	0.649450	0.220700
H6271	H627	0.591800	0.723100	0.135000
H6281	H628	0.510400	0.626700	0.205500
H6291	H629	0.512550	0.631650	0.101400
H6301	H630	0.512550	0.728750	0.117800
H6311	H631	0.870150	0.648350	0.279300
H6321	H632	0.858100	0.726800	0.365000
H6331	H633	0.832200	0.715900	0.294500
H6341	H634	0.733050	0.613950	0.398600
H6351	H635	0.846550	0.630350	0.382200
H6361	H636	0.850550	0.572350	0.279300
H6371	H637	0.776900	0.908200	0.365000
H6381	H638	0.873300	0.989600	0.294500
H6391	H639	0.868350	0.987450	0.398600
H6401	H640	0.771250	0.987450	0.382200
H6411	H641	0.648350	0.870150	0.279300
H6421	H642	0.726800	0.858100	0.365000
H6431	H643	0.715900	0.832200	0.294500
H6441	H644	0.613950	0.733050	0.398600
H6451	H645	0.630350	0.846550	0.382200
H6461	H646	0.572350	0.850550	0.279300
H6471	H647	0.908200	0.776900	0.365000
H6481	H648	0.989600	0.873300	0.294500
H6491	H649	0.987450	0.868350	0.398600
H6501	H650	0.987450	0.771250	0.382200
H6511	H651	0.629850	0.851650	0.220700
H6521	H652	0.641900	0.773200	0.135000
H6531	H653	0.667800	0.784100	0.205500
H6541	H654	0.766950	0.886050	0.101400
H6551	H655	0.653450	0.869650	0.117800
H6561	H656	0.649450	0.927650	0.220700
H6571	H657	0.723100	0.591800	0.135000
H6581	H658	0.626700	0.510400	0.205500
H6591	H659	0.631650	0.512550	0.101400
H6601	H660	0.728750	0.512550	0.117800
C6611	C661	0.836050	0.601550	0.234000
C6621	C662	0.808040	0.583660	0.224000
C6631	C663	0.799530	0.607030	0.192940
C6641	C664	0.771580	0.589240	0.184380
C6651	C665	0.762250	0.612950	0.152400
C6661	C666	0.823190	0.653080	0.166330
C6671	C667	0.809450	0.679150	0.179800
C6681	C668	0.832720	0.721220	0.155870
C6691	C669	0.870150	0.738250	0.117700
C6701	C670	0.884580	0.712980	0.103150
C6711	C671	0.860530	0.670530	0.127540
C6721	C672	0.817500	0.749200	0.170800
C6731	C673	0.926350	0.731150	0.062500
C6741	C674	0.929950	0.664450	0.234000
C6751	C675	0.967960	0.692340	0.224000
C6761	C676	0.507530	0.700030	0.192940
C6771	C677	0.544040	0.726380	0.184380
C6781	C678	0.585350	0.734650	0.152400
C6791	C679	0.510490	0.680590	0.166330
C6801	C680	0.510750	0.641050	0.179800
C6811	C681	0.511420	0.622920	0.155870
C6821	C682	0.512150	0.644050	0.117700
C6831	C683	0.512280	0.683880	0.103150
C6841	C684	0.511930	0.701930	0.127540
C6851	C685	0.511700	0.580000	0.170800
C6861	C686	0.511150	0.706350	0.062500
C6871	C687	0.898450	0.663950	0.266000
C6881	C688	0.916340	0.691960	0.276000
C6891	C689	0.892970	0.700470	0.307060
C6901	C690	0.910760	0.728420	0.315620
C6911	C691	0.887050	0.737750	0.347600
C6921	C692	0.846920	0.676810	0.333670
C6931	C693	0.820850	0.690550	0.320200
C6941	C694	0.778790	0.667290	0.344130
C6951	C695	0.761750	0.629850	0.382300
C6961	C696	0.787030	0.615430	0.396850
C6971	C697	0.829470	0.639470	0.372460
C6981	C698	0.750800	0.682500	0.329200
C6991	C699	0.768850	0.573650	0.437500
C7001	C700	0.835550	0.570050	0.266000
C7011	C701	0.807660	0.532040	0.276000
C7021	C702	0.799970	0.992470	0.307060
C7031	C703	0.773620	0.955960	0.315620
C7041	C704	0.765350	0.914650	0.347600
C7051	C705	0.819420	0.989520	0.333670
C7061	C706	0.858950	0.989250	0.320200
C7071	C707	0.877090	0.988590	0.344130
C7081	C708	0.855950	0.987850	0.382300
C7091	C709	0.816130	0.987730	0.396850
C7101	C710	0.798070	0.988070	0.372460
C7111	C711	0.920000	0.988300	0.329200
C7121	C712	0.793650	0.988850	0.437500
C7131	C713	0.663950	0.898450	0.266000
C7141	C714	0.691960	0.916340	0.276000
C7151	C715	0.700470	0.892970	0.307060
C7161	C716	0.728420	0.910760	0.315620
C7171	C717	0.737750	0.887050	0.347600
C7181	C718	0.676820	0.846920	0.333670
C7191	C719	0.690550	0.820850	0.320200
C7201	C720	0.667290	0.778790	0.344130
C7211	C721	0.629850	0.761750	0.382300
C7221	C722	0.615430	0.787030	0.396850
C7231	C723	0.639470	0.829470	0.372460
C7241	C724	0.682500	0.750800	0.329200
C7251	C725	0.573650	0.768850	0.437500
C7261	C726	0.570050	0.835550	0.266000
C7271	C727	0.532040	0.807660	0.276000
C7281	C728	0.992470	0.799970	0.307060
C7291	C729	0.955960	0.773620	0.315620
C7301	C730	0.914650	0.765350	0.347600
C7311	C731	0.989520	0.819420	0.333670
C7321	C732	0.989250	0.858950	0.320200
C7331	C733	0.988590	0.877080	0.344130
C7341	C734	0.987850	0.855950	0.382300
C7351	C735	0.987730	0.816130	0.396850
C7361	C736	0.988070	0.798070	0.372460
C7371	C737	0.988300	0.920000	0.329200
C7381	C738	0.988850	0.793650	0.437500
C7391	C739	0.601550	0.836050	0.234000
C7401	C740	0.583660	0.808040	0.224000
C7411	C741	0.607030	0.799530	0.192940
C7421	C742	0.589240	0.771580	0.184380
C7431	C743	0.612950	0.762250	0.152400
C7441	C744	0.653090	0.823190	0.166330
C7451	C745	0.679150	0.809450	0.179800
C7461	C746	0.721220	0.832720	0.155870
C7471	C747	0.738250	0.870150	0.117700
C7481	C748	0.712980	0.884580	0.103150
C7491	C749	0.670530	0.860530	0.127540
C7501	C750	0.749200	0.817500	0.170800
C7511	C751	0.731150	0.926350	0.062500
C7521	C752	0.664450	0.929950	0.234000
C7531	C753	0.692340	0.967960	0.224000
C7541	C754	0.700030	0.507530	0.192940
C7551	C755	0.726380	0.544040	0.184380
C7561	C756	0.734650	0.585350	0.152400
C7571	C757	0.680590	0.510490	0.166330
C7581	C758	0.641050	0.510750	0.179800
C7591	C759	0.622920	0.511410	0.155870
C7601	C760	0.644050	0.512150	0.117700
C7611	C761	0.683880	0.512270	0.103150
C7621	C762	0.701930	0.511930	0.127540
C7631	C763	0.580000	0.511700	0.170800
C7641	C764	0.706350	0.511150	0.062500
N7651	N765	0.749180	0.547380	0.203440
N7661	N766	0.547380	0.749180	0.203440
N7671	N767	0.952620	0.750820	0.296560
N7681	N768	0.750820	0.952620	0.296560
N7691	N769	0.791200	0.541200	0.250000
N7701	N770	0.958800	0.708800	0.250000
N7711	N771	0.708800	0.958800	0.250000
N7721	N772	0.541200	0.791200	0.250000
Cl7731	Cl773	0.541500	0.852950	0.000000
Cl7741	Cl774	0.958500	0.647050	0.000000
Cl7751	Cl775	0.647050	0.958500	0.000000
Cl7761	Cl776	0.852950	0.541500	0.000000
Cl7771	Cl777	0.807820	0.998420	0.193770
O7781	O778	0.784920	0.732500	0.206290
O7791	O779	0.839650	0.787050	0.147000
O7801	O780	0.950330	0.767330	0.047150
O7811	O781	0.933810	0.707800	0.048090
O7821	O782	0.508790	0.561220	0.206290
O7831	O783	0.513350	0.565950	0.147000
O7841	O784	0.502530	0.685530	0.047150
O7851	O785	0.518100	0.744110	0.048090
O7861	O786	0.767510	0.715090	0.293710
O7871	O787	0.712950	0.660350	0.353000
O7881	O788	0.732680	0.549670	0.452850
O7891	O789	0.792200	0.566190	0.451910
O7901	O790	0.938790	0.991210	0.293710
O7911	O791	0.934050	0.986650	0.353000
O7921	O792	0.814480	0.997480	0.452850
O7931	O793	0.755890	0.981900	0.451910
O7941	O794	0.715090	0.767510	0.293710
O7951	O795	0.660350	0.712950	0.353000
O7961	O796	0.549680	0.732680	0.452850
O7971	O797	0.566190	0.792200	0.451910
O7981	O798	0.991210	0.938790	0.293710
O7991	O799	0.986650	0.934050	0.353000
O8001	O800	0.997480	0.814480	0.452850
O8011	O801	0.981900	0.755890	0.451910
O8021	O802	0.732500	0.784920	0.206290
O8031	O803	0.787050	0.839650	0.147000
O8041	O804	0.767330	0.950330	0.047150
O8051	O805	0.707800	0.933810	0.048090
O8061	O806	0.561220	0.508800	0.206290
O8071	O807	0.565950	0.513350	0.147000
O8081	O808	0.685530	0.502530	0.047150
O8091	O809	0.744110	0.518100	0.048090
Mn8101	Mn810	0.250000	0.000000	0.750000
Mn8111	Mn811	0.000000	0.250000	0.750000
Mn8121	Mn812	0.250000	0.250000	0.750000
Mn8131	Mn813	0.000000	0.000000	0.750000
Mn8141	Mn814	0.341700	0.341700	0.646170
Mn8151	Mn815	0.012130	0.012130	0.646170
Mn8161	Mn816	0.158300	0.158300	0.853830
Mn8171	Mn817	0.487870	0.487870	0.853830
Mn8181	Mn818	0.014580	0.292760	0.500000
Mn8191	Mn819	0.485420	0.207250	0.500000
Mn8201	Mn820	0.207250	0.485420	0.500000
Mn8211	Mn821	0.292760	0.014580	0.500000
H8221	H822	0.351650	0.129850	0.720700
H8231	H823	0.273200	0.141900	0.635000
H8241	H824	0.284100	0.167800	0.705500
H8251	H825	0.386050	0.266950	0.601400
H8261	H826	0.369650	0.153450	0.617800
H8271	H827	0.427650	0.149450	0.720700
H8281	H828	0.091800	0.223100	0.635000
H8291	H829	0.010400	0.126700	0.705500
H8301	H830	0.012550	0.131650	0.601400
H8311	H831	0.012550	0.228750	0.617800
H8321	H832	0.370150	0.148350	0.779300
H8331	H833	0.358100	0.226800	0.865000
H8341	H834	0.332200	0.215900	0.794500
H8351	H835	0.233050	0.113950	0.898600
H8361	H836	0.346550	0.130350	0.882200
H8371	H837	0.350550	0.072350	0.779300
H8381	H838	0.276900	0.408200	0.865000
H8391	H839	0.373300	0.489600	0.794500
H8401	H840	0.368350	0.487450	0.898600
H8411	H841	0.271250	0.487450	0.882200
H8421	H842	0.148350	0.370150	0.779300
H8431	H843	0.226800	0.358100	0.865000
H8441	H844	0.215900	0.332200	0.794500
H8451	H845	0.113950	0.233050	0.898600
H8461	H846	0.130350	0.346550	0.882200
H8471	H847	0.072350	0.350550	0.779300
H8481	H848	0.408200	0.276900	0.865000
H8491	H849	0.489600	0.373300	0.794500
H8501	H850	0.487450	0.368350	0.898600
H8511	H851	0.487450	0.271250	0.882200
H8521	H852	0.129850	0.351650	0.720700
H8531	H853	0.141900	0.273200	0.635000
H8541	H854	0.167800	0.284100	0.705500
H8551	H855	0.266950	0.386050	0.601400
H8561	H856	0.153450	0.369650	0.617800
H8571	H857	0.149450	0.427650	0.720700
H8581	H858	0.223100	0.091800	0.635000
H8591	H859	0.126700	0.010400	0.705500
H8601	H860	0.131650	0.012550	0.601400
H8611	H861	0.228750	0.012550	0.617800
C8621	C862	0.336050	0.101550	0.734000
C8631	C863	0.308040	0.083660	0.724000
C8641	C864	0.299530	0.107030	0.692940
C8651	C865	0.271580	0.089240	0.684380
C8661	C866	0.262250	0.112950	0.652400
C8671	C867	0.323190	0.153080	0.666330
C8681	C868	0.309450	0.179150	0.679800
C8691	C869	0.332720	0.221220	0.655870
C8701	C870	0.370150	0.238250	0.617700
C8711	C871	0.384580	0.212980	0.603150
C8721	C872	0.360530	0.170530	0.627540
C8731	C873	0.317500	0.249200	0.670800
C8741	C874	0.426350	0.231150	0.562500
C8751	C875	0.429950	0.164450	0.734000
C8761	C876	0.467960	0.192340	0.724000
C8771	C877	0.007530	0.200030	0.692940
C8781	C878	0.044040	0.226380	0.684380
C8791	C879	0.085350	0.234650	0.652400
C8801	C880	0.010480	0.180590	0.666330
C8811	C881	0.010750	0.141050	0.679800
C8821	C882	0.011410	0.122920	0.655870
C8831	C883	0.012150	0.144050	0.617700
C8841	C884	0.012270	0.183880	0.603150
C8851	C885	0.011930	0.201930	0.627540
C8861	C886	0.011700	0.080000	0.670800
C8871	C887	0.011150	0.206350	0.562500
C8881	C888	0.398450	0.163950	0.766000
C8891	C889	0.416340	0.191960	0.776000
C8901	C890	0.392970	0.200470	0.807060
C8911	C891	0.410760	0.228420	0.815620
C8921	C892	0.387050	0.237750	0.847600
C8931	C893	0.346920	0.176810	0.833670
C8941	C894	0.320850	0.190550	0.820200
C8951	C895	0.278790	0.167290	0.844130
C8961	C896	0.261750	0.129850	0.882300
C8971	C897	0.287030	0.115430	0.896850
C8981	C898	0.329470	0.139470	0.872460
C8991	C899	0.250800	0.182500	0.829200
C9001	C900	0.268850	0.073650	0.937500
C9011	C901	0.335550	0.070050	0.766000
C9021	C902	0.307660	0.032040	0.776000
C9031	C903	0.299970	0.492470	0.807060
C9041	C904	0.273620	0.455960	0.815620
C9051	C905	0.265350	0.414650	0.847600
C9061	C906	0.319420	0.489520	0.833670
C9071	C907	0.358950	0.489250	0.820200
C9081	C908	0.377090	0.488590	0.844130
C9091	C909	0.355950	0.487850	0.882300
C9101	C910	0.316120	0.487730	0.896850
C9111	C911	0.298070	0.488070	0.872460
C9121	C912	0.420000	0.488300	0.829200
C9131	C913	0.293650	0.488850	0.937500
C9141	C914	0.163950	0.398450	0.766000
C9151	C915	0.191960	0.416340	0.776000
C9161	C916	0.200470	0.392970	0.807060
C9171	C917	0.228420	0.410760	0.815620
C9181	C918	0.237750	0.387050	0.847600
C9191	C919	0.176820	0.346920	0.833670
C9201	C920	0.190550	0.320850	0.820200
C9211	C921	0.167290	0.278790	0.844130
C9221	C922	0.129850	0.261750	0.882300
C9231	C923	0.115430	0.287030	0.896850
C9241	C924	0.139470	0.329470	0.872460
C9251	C925	0.182500	0.250800	0.829200
C9261	C926	0.073650	0.268850	0.937500
C9271	C927	0.070050	0.335550	0.766000
C9281	C928	0.032040	0.307660	0.776000
C9291	C929	0.492470	0.299970	0.807060
C9301	C930	0.455960	0.273620	0.815620
C9311	C931	0.414650	0.265350	0.847600
C9321	C932	0.489520	0.319420	0.833670
C9331	C933	0.489250	0.358950	0.820200
C9341	C934	0.488590	0.377080	0.844130
C9351	C935	0.487850	0.355950	0.882300
C9361	C936	0.487730	0.316130	0.896850
C9371	C937	0.488070	0.298070	0.872460
C9381	C938	0.488300	0.420000	0.829200
C9391	C939	0.488850	0.293650	0.937500
C9401	C940	0.101550	0.336050	0.734000
C9411	C941	0.083660	0.308040	0.724000
C9421	C942	0.107030	0.299530	0.692940
C9431	C943	0.089240	0.271580	0.684380
C9441	C944	0.112950	0.262250	0.652400
C9451	C945	0.153090	0.323190	0.666330
C9461	C946	0.179150	0.309450	0.679800
C9471	C947	0.221220	0.332710	0.655870
C9481	C948	0.238250	0.370150	0.617700
C9491	C949	0.212980	0.384580	0.603150
C9501	C950	0.170530	0.360530	0.627540
C9511	C951	0.249200	0.317500	0.670800
C9521	C952	0.231150	0.426350	0.562500
C9531	C953	0.164450	0.429950	0.734000
C9541	C954	0.192340	0.467960	0.724000
C9551	C955	0.200030	0.007530	0.692940
C9561	C956	0.226380	0.044040	0.684380
C9571	C957	0.234650	0.085350	0.652400
C9581	C958	0.180590	0.010490	0.666330
C9591	C959	0.141050	0.010750	0.679800
C9601	C960	0.122920	0.011410	0.655870
C9611	C961	0.144050	0.012150	0.617700
C9621	C962	0.183880	0.012270	0.603150
C9631	C963	0.201930	0.011930	0.627540
C9641	C964	0.080000	0.011700	0.670800
C9651	C965	0.206350	0.011150	0.562500
N9661	N966	0.249180	0.047380	0.703440
N9671	N967	0.047380	0.249180	0.703440
N9681	N968	0.452620	0.250820	0.796560
N9691	N969	0.250820	0.452620	0.796560
N9701	N970	0.291200	0.041200	0.750000
N9711	N971	0.458800	0.208800	0.750000
N9721	N972	0.208800	0.458800	0.750000
N9731	N973	0.041200	0.291200	0.750000
Cl9741	Cl974	0.041500	0.352950	0.500000
Cl9751	Cl975	0.458500	0.147050	0.500000
Cl9761	Cl976	0.147050	0.458500	0.500000
Cl9771	Cl977	0.352950	0.041500	0.500000
O9781	O978	0.284920	0.232500	0.706290
O9791	O979	0.339650	0.287050	0.647000
O9801	O980	0.450330	0.267330	0.547150
O9811	O981	0.433810	0.207800	0.548090
O9821	O982	0.008790	0.061220	0.706290
O9831	O983	0.013350	0.065950	0.647000
O9841	O984	0.002520	0.185530	0.547150
O9851	O985	0.018100	0.244110	0.548090
O9861	O986	0.267510	0.215090	0.793710
O9871	O987	0.212950	0.160350	0.853000
O9881	O988	0.232680	0.049670	0.952850
O9891	O989	0.292200	0.066190	0.951910
O9901	O990	0.438790	0.491210	0.793710
O9911	O991	0.434050	0.486650	0.853000
O9921	O992	0.314480	0.497480	0.952850
O9931	O993	0.255890	0.481900	0.951910
O9941	O994	0.215090	0.267510	0.793710
O9951	O995	0.160350	0.212950	0.853000
O9961	O996	0.049680	0.232670	0.952850
O9971	O997	0.066190	0.292200	0.951910
O9981	O998	0.491210	0.438790	0.793710
O9991	O999	0.486650	0.434050	0.853000
O10001	O1000	0.497480	0.314480	0.952850
O10011	O1001	0.481900	0.255890	0.951910
O10021	O1002	0.232500	0.284920	0.706290
O10031	O1003	0.287050	0.339650	0.647000
O10041	O1004	0.267330	0.450330	0.547150
O10051	O1005	0.207800	0.433810	0.548090
O10061	O1006	0.061220	0.008800	0.706290
O10071	O1007	0.065950	0.013350	0.647000
O10081	O1008	0.185530	0.002520	0.547150
O10091	O1009	0.244110	0.018100	0.548090
Mn10101	Mn1010	0.750000	0.000000	0.750000
Mn10111	Mn1011	0.500000	0.250000	0.750000
Mn10121	Mn1012	0.750000	0.250000	0.750000
Mn10131	Mn1013	0.500000	0.000000	0.750000
Mn10141	Mn1014	0.841700	0.341700	0.646170
Mn10151	Mn1015	0.512130	0.012130	0.646170
Mn10161	Mn1016	0.658300	0.158300	0.853830
Mn10171	Mn1017	0.987870	0.487870	0.853830
Mn10181	Mn1018	0.514590	0.292760	0.500000
Mn10191	Mn1019	0.985420	0.207250	0.500000
Mn10201	Mn1020	0.707250	0.485420	0.500000
Mn10211	Mn1021	0.792760	0.014580	0.500000
H10221	H1022	0.851650	0.129850	0.720700
H10231	H1023	0.773200	0.141900	0.635000
H10241	H1024	0.784100	0.167800	0.705500
H10251	H1025	0.886050	0.266950	0.601400
H10261	H1026	0.869650	0.153450	0.617800
H10271	H1027	0.927650	0.149450	0.720700
H10281	H1028	0.591800	0.223100	0.635000
H10291	H1029	0.510400	0.126700	0.705500
H10301	H1030	0.512550	0.131650	0.601400
H10311	H1031	0.512550	0.228750	0.617800
H10321	H1032	0.870150	0.148350	0.779300
H10331	H1033	0.858100	0.226800	0.865000
H10341	H1034	0.832200	0.215900	0.794500
H10351	H1035	0.733050	0.113950	0.898600
H10361	H1036	0.846550	0.130350	0.882200
H10371	H1037	0.850550	0.072350	0.779300
H10381	H1038	0.776900	0.408200	0.865000
H10391	H1039	0.873300	0.489600	0.794500
H10401	H1040	0.868350	0.487450	0.898600
H10411	H1041	0.771250	0.487450	0.882200
H10421	H1042	0.648350	0.370150	0.779300
H10431	H1043	0.726800	0.358100	0.865000
H10441	H1044	0.715900	0.332200	0.794500
H10451	H1045	0.613950	0.233050	0.898600
H10461	H1046	0.630350	0.346550	0.882200
H10471	H1047	0.572350	0.350550	0.779300
H10481	H1048	0.908200	0.276900	0.865000
H10491	H1049	0.989600	0.373300	0.794500
H10501	H1050	0.987450	0.368350	0.898600
H10511	H1051	0.987450	0.271250	0.882200
H10521	H1052	0.629850	0.351650	0.720700
H10531	H1053	0.641900	0.273200	0.635000
H10541	H1054	0.667800	0.284100	0.705500
H10551	H1055	0.766950	0.386050	0.601400
H10561	H1056	0.653450	0.369650	0.617800
H10571	H1057	0.649450	0.427650	0.720700
H10581	H1058	0.723100	0.091800	0.635000
H10591	H1059	0.626700	0.010400	0.705500
H10601	H1060	0.631650	0.012550	0.601400
H10611	H1061	0.728750	0.012550	0.617800
C10621	C1062	0.836050	0.101550	0.734000
C10631	C1063	0.808040	0.083660	0.724000
C10641	C1064	0.799530	0.107030	0.692940
C10651	C1065	0.771580	0.089240	0.684380
C10661	C1066	0.762250	0.112950	0.652400
C10671	C1067	0.823190	0.153080	0.666330
C10681	C1068	0.809450	0.179150	0.679800
C10691	C1069	0.832720	0.221220	0.655870
C10701	C1070	0.870150	0.238250	0.617700
C10711	C1071	0.884580	0.212980	0.603150
C10721	C1072	0.860530	0.170530	0.627540
C10731	C1073	0.817500	0.249200	0.670800
C10741	C1074	0.926350	0.231150	0.562500
C10751	C1075	0.929950	0.164450	0.734000
C10761	C1076	0.967960	0.192340	0.724000
C10771	C1077	0.507530	0.200030	0.692940
C10781	C1078	0.544040	0.226380	0.684380
C10791	C1079	0.585350	0.234650	0.652400
C10801	C1080	0.510490	0.180580	0.666330
C10811	C1081	0.510750	0.141050	0.679800
C10821	C1082	0.511420	0.122920	0.655870
C10831	C1083	0.512150	0.144050	0.617700
C10841	C1084	0.512280	0.183880	0.603150
C10851	C1085	0.511930	0.201930	0.627540
C10861	C1086	0.511700	0.080000	0.670800
C10871	C1087	0.511150	0.206350	0.562500
C10881	C1088	0.898450	0.163950	0.766000
C10891	C1089	0.916340	0.191960	0.776000
C10901	C1090	0.892970	0.200470	0.807060
C10911	C1091	0.910760	0.228420	0.815620
C10921	C1092	0.887050	0.237750	0.847600
C10931	C1093	0.846920	0.176810	0.833670
C10941	C1094	0.820850	0.190550	0.820200
C10951	C1095	0.778790	0.167290	0.844130
C10961	C1096	0.761750	0.129850	0.882300
C10971	C1097	0.787030	0.115430	0.896850
C10981	C1098	0.829470	0.139470	0.872460
C10991	C1099	0.750800	0.182500	0.829200
C11001	C1100	0.768850	0.073650	0.937500
C11011	C1101	0.835550	0.070050	0.766000
C11021	C1102	0.807660	0.032040	0.776000
C11031	C1103	0.799970	0.492470	0.807060
C11041	C1104	0.773620	0.455960	0.815620
C11051	C1105	0.765350	0.414650	0.847600
C11061	C1106	0.819420	0.489520	0.833670
C11071	C1107	0.858950	0.489250	0.820200
C11081	C1108	0.877090	0.488590	0.844130
C11091	C1109	0.855950	0.487850	0.882300
C11101	C1110	0.816130	0.487730	0.896850
C11111	C1111	0.798070	0.488070	0.872460
C11121	C1112	0.920000	0.488300	0.829200
C11131	C1113	0.793650	0.488850	0.937500
C11141	C1114	0.663950	0.398450	0.766000
C11151	C1115	0.691960	0.416340	0.776000
C11161	C1116	0.700470	0.392970	0.807060
C11171	C1117	0.728420	0.410760	0.815620
C11181	C1118	0.737750	0.387050	0.847600
C11191	C1119	0.676820	0.346920	0.833670
C11201	C1120	0.690550	0.320850	0.820200
C11211	C1121	0.667290	0.278790	0.844130
C11221	C1122	0.629850	0.261750	0.882300
C11231	C1123	0.615430	0.287030	0.896850
C11241	C1124	0.639470	0.329470	0.872460
C11251	C1125	0.682500	0.250800	0.829200
C11261	C1126	0.573650	0.268850	0.937500
C11271	C1127	0.570050	0.335550	0.766000
C11281	C1128	0.532040	0.307660	0.776000
C11291	C1129	0.992470	0.299970	0.807060
C11301	C1130	0.955960	0.273620	0.815620
C11311	C1131	0.914650	0.265350	0.847600
C11321	C1132	0.989520	0.319420	0.833670
C11331	C1133	0.989250	0.358950	0.820200
C11341	C1134	0.988590	0.377080	0.844130
C11351	C1135	0.987850	0.355950	0.882300
C11361	C1136	0.987730	0.316130	0.896850
C11371	C1137	0.988070	0.298070	0.872460
C11381	C1138	0.988300	0.420000	0.829200
C11391	C1139	0.988850	0.293650	0.937500
C11401	C1140	0.601550	0.336050	0.734000
C11411	C1141	0.583660	0.308040	0.724000
C11421	C1142	0.607030	0.299530	0.692940
C11431	C1143	0.589240	0.271580	0.684380
C11441	C1144	0.612950	0.262250	0.652400
C11451	C1145	0.653090	0.323190	0.666330
C11461	C1146	0.679150	0.309450	0.679800
C11471	C1147	0.721220	0.332710	0.655870
C11481	C1148	0.738250	0.370150	0.617700
C11491	C1149	0.712980	0.384580	0.603150
C11501	C1150	0.670530	0.360530	0.627540
C11511	C1151	0.749200	0.317500	0.670800
C11521	C1152	0.731150	0.426350	0.562500
C11531	C1153	0.664450	0.429950	0.734000
C11541	C1154	0.692340	0.467960	0.724000
C11551	C1155	0.700030	0.007530	0.692940
C11561	C1156	0.726380	0.044040	0.684380
C11571	C1157	0.734650	0.085350	0.652400
C11581	C1158	0.680590	0.010490	0.666330
C11591	C1159	0.641050	0.010750	0.679800
C11601	C1160	0.622920	0.011410	0.655870
C11611	C1161	0.644050	0.012150	0.617700
C11621	C1162	0.683880	0.012270	0.603150
C11631	C1163	0.701930	0.011930	0.627540
C11641	C1164	0.580000	0.011700	0.670800
C11651	C1165	0.706350	0.011150	0.562500
N11661	N1166	0.749180	0.047380	0.703440
N11671	N1167	0.547380	0.249180	0.703440
N11681	N1168	0.952620	0.250820	0.796560
N11691	N1169	0.750820	0.452620	0.796560
N11701	N1170	0.791200	0.041200	0.750000
N11711	N1171	0.958800	0.208800	0.750000
N11721	N1172	0.708800	0.458800	0.750000
N11731	N1173	0.541200	0.291200	0.750000
Cl11741	Cl1174	0.541500	0.352950	0.500000
Cl11751	Cl1175	0.958500	0.147050	0.500000
Cl11761	Cl1176	0.647050	0.458500	0.500000
Cl11771	Cl1177	0.852950	0.041500	0.500000
Cl11781	Cl1178	0.501580	0.192190	0.806230
Cl11791	Cl1179	0.998420	0.307820	0.693770
Cl11801	Cl1180	0.807820	0.498420	0.693770
O11811	O1181	0.784920	0.232500	0.706290
O11821	O1182	0.839650	0.287050	0.647000
O11831	O1183	0.950330	0.267330	0.547150
O11841	O1184	0.933810	0.207800	0.548090
O11851	O1185	0.508790	0.061210	0.706290
O11861	O1186	0.513350	0.065950	0.647000
O11871	O1187	0.502530	0.185530	0.547150
O11881	O1188	0.518100	0.244110	0.548090
O11891	O1189	0.767510	0.215090	0.793710
O11901	O1190	0.712950	0.160350	0.853000
O11911	O1191	0.732680	0.049670	0.952850
O11921	O1192	0.792200	0.066190	0.951910
O11931	O1193	0.938790	0.491210	0.793710
O11941	O1194	0.934050	0.486650	0.853000
O11951	O1195	0.814480	0.497480	0.952850
O11961	O1196	0.755890	0.481900	0.951910
O11971	O1197	0.715090	0.267510	0.793710
O11981	O1198	0.660350	0.212950	0.853000
O11991	O1199	0.549680	0.232670	0.952850
O12001	O1200	0.566190	0.292200	0.951910
O12011	O1201	0.991210	0.438790	0.793710
O12021	O1202	0.986650	0.434050	0.853000
O12031	O1203	0.997480	0.314470	0.952850
O12041	O1204	0.981900	0.255890	0.951910
O12051	O1205	0.732500	0.284920	0.706290
O12061	O1206	0.787050	0.339650	0.647000
O12071	O1207	0.767330	0.450330	0.547150
O12081	O1208	0.707800	0.433810	0.548090
O12091	O1209	0.561220	0.008800	0.706290
O12101	O1210	0.565950	0.013350	0.647000
O12111	O1211	0.685530	0.002520	0.547150
O12121	O1212	0.744110	0.018100	0.548090
Mn12131	Mn1213	0.250000	0.500000	0.750000
Mn12141	Mn1214	0.000000	0.750000	0.750000
Mn12151	Mn1215	0.250000	0.750000	0.750000
Mn12161	Mn1216	0.000000	0.500000	0.750000
Mn12171	Mn1217	0.341700	0.841700	0.646170
Mn12181	Mn1218	0.012130	0.512130	0.646170
Mn12191	Mn1219	0.158300	0.658300	0.853830
Mn12201	Mn1220	0.487870	0.987870	0.853830
Mn12211	Mn1221	0.014580	0.792760	0.500000
Mn12221	Mn1222	0.485420	0.707250	0.500000
Mn12231	Mn1223	0.207250	0.985420	0.500000
Mn12241	Mn1224	0.292760	0.514580	0.500000
H12251	H1225	0.351650	0.629850	0.720700
H12261	H1226	0.273200	0.641900	0.635000
H12271	H1227	0.284100	0.667800	0.705500
H12281	H1228	0.386050	0.766950	0.601400
H12291	H1229	0.369650	0.653450	0.617800
H12301	H1230	0.427650	0.649450	0.720700
H12311	H1231	0.091800	0.723100	0.635000
H12321	H1232	0.010400	0.626700	0.705500
H12331	H1233	0.012550	0.631650	0.601400
H12341	H1234	0.012550	0.728750	0.617800
H12351	H1235	0.370150	0.648350	0.779300
H12361	H1236	0.358100	0.726800	0.865000
H12371	H1237	0.332200	0.715900	0.794500
H12381	H1238	0.233050	0.613950	0.898600
H12391	H1239	0.346550	0.630350	0.882200
H12401	H1240	0.350550	0.572350	0.779300
H12411	H1241	0.276900	0.908200	0.865000
H12421	H1242	0.373300	0.989600	0.794500
H12431	H1243	0.368350	0.987450	0.898600
H12441	H1244	0.271250	0.987450	0.882200
H12451	H1245	0.148350	0.870150	0.779300
H12461	H1246	0.226800	0.858100	0.865000
H12471	H1247	0.215900	0.832200	0.794500
H12481	H1248	0.113950	0.733050	0.898600
H12491	H1249	0.130350	0.846550	0.882200
H12501	H1250	0.072350	0.850550	0.779300
H12511	H1251	0.408200	0.776900	0.865000
H12521	H1252	0.489600	0.873300	0.794500
H12531	H1253	0.487450	0.868350	0.898600
H12541	H1254	0.487450	0.771250	0.882200
H12551	H1255	0.129850	0.851650	0.720700
H12561	H1256	0.141900	0.773200	0.635000
H12571	H1257	0.167800	0.784100	0.705500
H12581	H1258	0.266950	0.886050	0.601400
H12591	H1259	0.153450	0.869650	0.617800
H12601	H1260	0.149450	0.927650	0.720700
H12611	H1261	0.223100	0.591800	0.635000
H12621	H1262	0.126700	0.510400	0.705500
H12631	H1263	0.131650	0.512550	0.601400
H12641	H1264	0.228750	0.512550	0.617800
C12651	C1265	0.336050	0.601550	0.734000
C12661	C1266	0.308040	0.583660	0.724000
C12671	C1267	0.299530	0.607030	0.692940
C12681	C1268	0.271580	0.589240	0.684380
C12691	C1269	0.262250	0.612950	0.652400
C12701	C1270	0.323190	0.653090	0.666330
C12711	C1271	0.309450	0.679150	0.679800
C12721	C1272	0.332720	0.721220	0.655870
C12731	C1273	0.370150	0.738250	0.617700
C12741	C1274	0.384580	0.712980	0.603150
C12751	C1275	0.360530	0.670530	0.627540
C12761	C1276	0.317500	0.749200	0.670800
C12771	C1277	0.426350	0.731150	0.562500
C12781	C1278	0.429950	0.664450	0.734000
C12791	C1279	0.467960	0.692340	0.724000
C12801	C1280	0.007530	0.700030	0.692940
C12811	C1281	0.044040	0.726380	0.684380
C12821	C1282	0.085350	0.734650	0.652400
C12831	C1283	0.010480	0.680590	0.666330
C12841	C1284	0.010750	0.641050	0.679800
C12851	C1285	0.011410	0.622920	0.655870
C12861	C1286	0.012150	0.644050	0.617700
C12871	C1287	0.012270	0.683880	0.603150
C12881	C1288	0.011930	0.701930	0.627540
C12891	C1289	0.011700	0.580000	0.670800
C12901	C1290	0.011150	0.706350	0.562500
C12911	C1291	0.398450	0.663950	0.766000
C12921	C1292	0.416340	0.691960	0.776000
C12931	C1293	0.392970	0.700470	0.807060
C12941	C1294	0.410760	0.728420	0.815620
C12951	C1295	0.387050	0.737750	0.847600
C12961	C1296	0.346920	0.676810	0.833670
C12971	C1297	0.320850	0.690550	0.820200
C12981	C1298	0.278790	0.667290	0.844130
C12991	C1299	0.261750	0.629850	0.882300
C13001	C1300	0.287030	0.615430	0.896850
C13011	C1301	0.329470	0.639470	0.872460
C13021	C1302	0.250800	0.682500	0.829200
C13031	C1303	0.268850	0.573650	0.937500
C13041	C1304	0.335550	0.570050	0.766000
C13051	C1305	0.307660	0.532040	0.776000
C13061	C1306	0.299970	0.992470	0.807060
C13071	C1307	0.273620	0.955960	0.815620
C13081	C1308	0.265350	0.914650	0.847600
C13091	C1309	0.319420	0.989520	0.833670
C13101	C1310	0.358950	0.989250	0.820200
C13111	C1311	0.377090	0.988590	0.844130
C13121	C1312	0.355950	0.987850	0.882300
C13131	C1313	0.316120	0.987730	0.896850
C13141	C1314	0.298070	0.988070	0.872460
C13151	C1315	0.420000	0.988300	0.829200
C13161	C1316	0.293650	0.988850	0.937500
C13171	C1317	0.163950	0.898450	0.766000
C13181	C1318	0.191960	0.916340	0.776000
C13191	C1319	0.200470	0.892970	0.807060
C13201	C1320	0.228420	0.910760	0.815620
C13211	C1321	0.237750	0.887050	0.847600
C13221	C1322	0.176820	0.846920	0.833670
C13231	C1323	0.190550	0.820850	0.820200
C13241	C1324	0.167290	0.778790	0.844130
C13251	C1325	0.129850	0.761750	0.882300
C13261	C1326	0.115430	0.787030	0.896850
C13271	C1327	0.139470	0.829470	0.872460
C13281	C1328	0.182500	0.750800	0.829200
C13291	C1329	0.073650	0.768850	0.937500
C13301	C1330	0.070050	0.835550	0.766000
C13311	C1331	0.032040	0.807660	0.776000
C13321	C1332	0.492470	0.799970	0.807060
C13331	C1333	0.455960	0.773620	0.815620
C13341	C1334	0.414650	0.765350	0.847600
C13351	C1335	0.489520	0.819420	0.833670
C13361	C1336	0.489250	0.858950	0.820200
C13371	C1337	0.488590	0.877080	0.844130
C13381	C1338	0.487850	0.855950	0.882300
C13391	C1339	0.487730	0.816130	0.896850
C13401	C1340	0.488070	0.798070	0.872460
C13411	C1341	0.488300	0.920000	0.829200
C13421	C1342	0.488850	0.793650	0.937500
C13431	C1343	0.101550	0.836050	0.734000
C13441	C1344	0.083660	0.808040	0.724000
C13451	C1345	0.107030	0.799530	0.692940
C13461	C1346	0.089240	0.771580	0.684380
C13471	C1347	0.112950	0.762250	0.652400
C13481	C1348	0.153090	0.823190	0.666330
C13491	C1349	0.179150	0.809450	0.679800
C13501	C1350	0.221220	0.832720	0.655870
C13511	C1351	0.238250	0.870150	0.617700
C13521	C1352	0.212980	0.884580	0.603150
C13531	C1353	0.170530	0.860530	0.627540
C13541	C1354	0.249200	0.817500	0.670800
C13551	C1355	0.231150	0.926350	0.562500
C13561	C1356	0.164450	0.929950	0.734000
C13571	C1357	0.192340	0.967960	0.724000
C13581	C1358	0.200030	0.507530	0.692940
C13591	C1359	0.226380	0.544040	0.684380
C13601	C1360	0.234650	0.585350	0.652400
C13611	C1361	0.180590	0.510490	0.666330
C13621	C1362	0.141050	0.510750	0.679800
C13631	C1363	0.122920	0.511410	0.655870
C13641	C1364	0.144050	0.512150	0.617700
C13651	C1365	0.183880	0.512270	0.603150
C13661	C1366	0.201930	0.511930	0.627540
C13671	C1367	0.080000	0.511700	0.670800
C13681	C1368	0.206350	0.511150	0.562500
N13691	N1369	0.249180	0.547380	0.703440
N13701	N1370	0.047380	0.749180	0.703440
N13711	N1371	0.452620	0.750820	0.796560
N13721	N1372	0.250820	0.952620	0.796560
N13731	N1373	0.291200	0.541200	0.750000
N13741	N1374	0.458800	0.708800	0.750000
N13751	N1375	0.208800	0.958800	0.750000
N13761	N1376	0.041200	0.791200	0.750000
Cl13771	Cl1377	0.041500	0.852950	0.500000
Cl13781	Cl1378	0.458500	0.647050	0.500000
Cl13791	Cl1379	0.147050	0.958500	0.500000
Cl13801	Cl1380	0.352950	0.541500	0.500000
Cl13811	Cl1381	0.192190	0.501580	0.806230
Cl13821	Cl1382	0.307820	0.998420	0.693770
O13831	O1383	0.284920	0.732500	0.706290
O13841	O1384	0.339650	0.787050	0.647000
O13851	O1385	0.450330	0.767330	0.547150
O13861	O1386	0.433810	0.707800	0.548090
O13871	O1387	0.008790	0.561220	0.706290
O13881	O1388	0.013350	0.565950	0.647000
O13891	O1389	0.002520	0.685530	0.547150
O13901	O1390	0.018100	0.744110	0.548090
O13911	O1391	0.267510	0.715090	0.793710
O13921	O1392	0.212950	0.660350	0.853000
O13931	O1393	0.232680	0.549670	0.952850
O13941	O1394	0.292200	0.566190	0.951910
O13951	O1395	0.438790	0.991210	0.793710
O13961	O1396	0.434050	0.986650	0.853000
O13971	O1397	0.314480	0.997480	0.952850
O13981	O1398	0.255890	0.981900	0.951910
O13991	O1399	0.215090	0.767510	0.793710
O14001	O1400	0.160350	0.712950	0.853000
O14011	O1401	0.049680	0.732670	0.952850
O14021	O1402	0.066190	0.792200	0.951910
O14031	O1403	0.491210	0.938790	0.793710
O14041	O1404	0.486650	0.934050	0.853000
O14051	O1405	0.497480	0.814480	0.952850
O14061	O1406	0.481900	0.755890	0.951910
O14071	O1407	0.232500	0.784920	0.706290
O14081	O1408	0.287050	0.839650	0.647000
O14091	O1409	0.267330	0.950330	0.547150
O14101	O1410	0.207800	0.933810	0.548090
O14111	O1411	0.061220	0.508800	0.706290
O14121	O1412	0.065950	0.513350	0.647000
O14131	O1413	0.185530	0.502530	0.547150
O14141	O1414	0.244110	0.518100	0.548090
Mn14151	Mn1415	0.750000	0.500000	0.750000
Mn14161	Mn1416	0.500000	0.750000	0.750000
Mn14171	Mn1417	0.750000	0.750000	0.750000
Mn14181	Mn1418	0.500000	0.500000	0.750000
Mn14191	Mn1419	0.841700	0.841700	0.646170
Mn14201	Mn1420	0.512130	0.512130	0.646170
Mn14211	Mn1421	0.658300	0.658300	0.853830
Mn14221	Mn1422	0.987870	0.987870	0.853830
Mn14231	Mn1423	0.514590	0.792760	0.500000
Mn14241	Mn1424	0.985420	0.707250	0.500000
Mn14251	Mn1425	0.707250	0.985420	0.500000
Mn14261	Mn1426	0.792760	0.514580	0.500000
H14271	H1427	0.851650	0.629850	0.720700
H14281	H1428	0.773200	0.641900	0.635000
H14291	H1429	0.784100	0.667800	0.705500
H14301	H1430	0.886050	0.766950	0.601400
H14311	H1431	0.869650	0.653450	0.617800
H14321	H1432	0.927650	0.649450	0.720700
H14331	H1433	0.591800	0.723100	0.635000
H14341	H1434	0.510400	0.626700	0.705500
H14351	H1435	0.512550	0.631650	0.601400
H14361	H1436	0.512550	0.728750	0.617800
H14371	H1437	0.870150	0.648350	0.779300
H14381	H1438	0.858100	0.726800	0.865000
H14391	H1439	0.832200	0.715900	0.794500
H14401	H1440	0.733050	0.613950	0.898600
H14411	H1441	0.846550	0.630350	0.882200
H14421	H1442	0.850550	0.572350	0.779300
H14431	H1443	0.776900	0.908200	0.865000
H14441	H1444	0.873300	0.989600	0.794500
H14451	H1445	0.868350	0.987450	0.898600
H14461	H1446	0.771250	0.987450	0.882200
H14471	H1447	0.648350	0.870150	0.779300
H14481	H1448	0.726800	0.858100	0.865000
H14491	H1449	0.715900	0.832200	0.794500
H14501	H1450	0.613950	0.733050	0.898600
H14511	H1451	0.630350	0.846550	0.882200
H14521	H1452	0.572350	0.850550	0.779300
H14531	H1453	0.908200	0.776900	0.865000
H14541	H1454	0.989600	0.873300	0.794500
H14551	H1455	0.987450	0.868350	0.898600
H14561	H1456	0.987450	0.771250	0.882200
H14571	H1457	0.629850	0.851650	0.720700
H14581	H1458	0.641900	0.773200	0.635000
H14591	H1459	0.667800	0.784100	0.705500
H14601	H1460	0.766950	0.886050	0.601400
H14611	H1461	0.653450	0.869650	0.617800
H14621	H1462	0.649450	0.927650	0.720700
H14631	H1463	0.723100	0.591800	0.635000
H14641	H1464	0.626700	0.510400	0.705500
H14651	H1465	0.631650	0.512550	0.601400
H14661	H1466	0.728750	0.512550	0.617800
C14671	C1467	0.836050	0.601550	0.734000
C14681	C1468	0.808040	0.583660	0.724000
C14691	C1469	0.799530	0.607030	0.692940
C14701	C1470	0.771580	0.589240	0.684380
C14711	C1471	0.762250	0.612950	0.652400
C14721	C1472	0.823190	0.653080	0.666330
C14731	C1473	0.809450	0.679150	0.679800
C14741	C1474	0.832720	0.721220	0.655870
C14751	C1475	0.870150	0.738250	0.617700
C14761	C1476	0.884580	0.712980	0.603150
C14771	C1477	0.860530	0.670530	0.627540
C14781	C1478	0.817500	0.749200	0.670800
C14791	C1479	0.926350	0.731150	0.562500
C14801	C1480	0.929950	0.664450	0.734000
C14811	C1481	0.967960	0.692340	0.724000
C14821	C1482	0.507530	0.700030	0.692940
C14831	C1483	0.544040	0.726380	0.684380
C14841	C1484	0.585350	0.734650	0.652400
C14851	C1485	0.510490	0.680590	0.666330
C14861	C1486	0.510750	0.641050	0.679800
C14871	C1487	0.511420	0.622920	0.655870
C14881	C1488	0.512150	0.644050	0.617700
C14891	C1489	0.512280	0.683880	0.603150
C14901	C1490	0.511930	0.701930	0.627540
C14911	C1491	0.511700	0.580000	0.670800
C14921	C1492	0.511150	0.706350	0.562500
C14931	C1493	0.898450	0.663950	0.766000
C14941	C1494	0.916340	0.691960	0.776000
C14951	C1495	0.892970	0.700470	0.807060
C14961	C1496	0.910760	0.728420	0.815620
C14971	C1497	0.887050	0.737750	0.847600
C14981	C1498	0.846920	0.676810	0.833670
C14991	C1499	0.820850	0.690550	0.820200
C15001	C1500	0.778790	0.667290	0.844130
C15011	C1501	0.761750	0.629850	0.882300
C15021	C1502	0.787030	0.615430	0.896850
C15031	C1503	0.829470	0.639470	0.872460
C15041	C1504	0.750800	0.682500	0.829200
C15051	C1505	0.768850	0.573650	0.937500
C15061	C1506	0.835550	0.570050	0.766000
C15071	C1507	0.807660	0.532040	0.776000
C15081	C1508	0.799970	0.992470	0.807060
C15091	C1509	0.773620	0.955960	0.815620
C15101	C1510	0.765350	0.914650	0.847600
C15111	C1511	0.819420	0.989520	0.833670
C15121	C1512	0.858950	0.989250	0.820200
C15131	C1513	0.877090	0.988590	0.844130
C15141	C1514	0.855950	0.987850	0.882300
C15151	C1515	0.816130	0.987730	0.896850
C15161	C1516	0.798070	0.988070	0.872460
C15171	C1517	0.920000	0.988300	0.829200
C15181	C1518	0.793650	0.988850	0.937500
C15191	C1519	0.663950	0.898450	0.766000
C15201	C1520	0.691960	0.916340	0.776000
C15211	C1521	0.700470	0.892970	0.807060
C15221	C1522	0.728420	0.910760	0.815620
C15231	C1523	0.737750	0.887050	0.847600
C15241	C1524	0.676820	0.846920	0.833670
C15251	C1525	0.690550	0.820850	0.820200
C15261	C1526	0.667290	0.778790	0.844130
C15271	C1527	0.629850	0.761750	0.882300
C15281	C1528	0.615430	0.787030	0.896850
C15291	C1529	0.639470	0.829470	0.872460
C15301	C1530	0.682500	0.750800	0.829200
C15311	C1531	0.573650	0.768850	0.937500
C15321	C1532	0.570050	0.835550	0.766000
C15331	C1533	0.532040	0.807660	0.776000
C15341	C1534	0.992470	0.799970	0.807060
C15351	C1535	0.955960	0.773620	0.815620
C15361	C1536	0.914650	0.765350	0.847600
C15371	C1537	0.989520	0.819420	0.833670
C15381	C1538	0.989250	0.858950	0.820200
C15391	C1539	0.988590	0.877080	0.844130
C15401	C1540	0.987850	0.855950	0.882300
C15411	C1541	0.987730	0.816130	0.896850
C15421	C1542	0.988070	0.798070	0.872460
C15431	C1543	0.988300	0.920000	0.829200
C15441	C1544	0.988850	0.793650	0.937500
C15451	C1545	0.601550	0.836050	0.734000
C15461	C1546	0.583660	0.808040	0.724000
C15471	C1547	0.607030	0.799530	0.692940
C15481	C1548	0.589240	0.771580	0.684380
C15491	C1549	0.612950	0.762250	0.652400
C15501	C1550	0.653090	0.823190	0.666330
C15511	C1551	0.679150	0.809450	0.679800
C15521	C1552	0.721220	0.832720	0.655870
C15531	C1553	0.738250	0.870150	0.617700
C15541	C1554	0.712980	0.884580	0.603150
C15551	C1555	0.670530	0.860530	0.627540
C15561	C1556	0.749200	0.817500	0.670800
C15571	C1557	0.731150	0.926350	0.562500
C15581	C1558	0.664450	0.929950	0.734000
C15591	C1559	0.692340	0.967960	0.724000
C15601	C1560	0.700030	0.507530	0.692940
C15611	C1561	0.726380	0.544040	0.684380
C15621	C1562	0.734650	0.585350	0.652400
C15631	C1563	0.680590	0.510490	0.666330
C15641	C1564	0.641050	0.510750	0.679800
C15651	C1565	0.622920	0.511410	0.655870
C15661	C1566	0.644050	0.512150	0.617700
C15671	C1567	0.683880	0.512270	0.603150
C15681	C1568	0.701930	0.511930	0.627540
C15691	C1569	0.580000	0.511700	0.670800
C15701	C1570	0.706350	0.511150	0.562500
N15711	N1571	0.749180	0.547380	0.703440
N15721	N1572	0.547380	0.749180	0.703440
N15731	N1573	0.952620	0.750820	0.796560
N15741	N1574	0.750820	0.952620	0.796560
N15751	N1575	0.791200	0.541200	0.750000
N15761	N1576	0.958800	0.708800	0.750000
N15771	N1577	0.708800	0.958800	0.750000
N15781	N1578	0.541200	0.791200	0.750000
Cl15791	Cl1579	0.541500	0.852950	0.500000
Cl15801	Cl1580	0.958500	0.647050	0.500000
Cl15811	Cl1581	0.647050	0.958500	0.500000
Cl15821	Cl1582	0.852950	0.541500	0.500000
Cl15831	Cl1583	0.501580	0.692190	0.806230
Cl15841	Cl1584	0.998420	0.807820	0.693770
Cl15851	Cl1585	0.807820	0.998420	0.693770
O15861	O1586	0.784920	0.732500	0.706290
O15871	O1587	0.839650	0.787050	0.647000
O15881	O1588	0.950330	0.767330	0.547150
O15891	O1589	0.933810	0.707800	0.548090
O15901	O1590	0.508790	0.561220	0.706290
O15911	O1591	0.513350	0.565950	0.647000
O15921	O1592	0.502530	0.685530	0.547150
O15931	O1593	0.518100	0.744110	0.548090
O15941	O1594	0.767510	0.715090	0.793710
O15951	O1595	0.712950	0.660350	0.853000
O15961	O1596	0.732680	0.549670	0.952850
O15971	O1597	0.792200	0.566190	0.951910
O15981	O1598	0.938790	0.991210	0.793710
O15991	O1599	0.934050	0.986650	0.853000
O16001	O1600	0.814480	0.997480	0.952850
O16011	O1601	0.755890	0.981900	0.951910
O16021	O1602	0.715090	0.767510	0.793710
O16031	O1603	0.660350	0.712950	0.853000
O16041	O1604	0.549680	0.732680	0.952850
O16051	O1605	0.566190	0.792200	0.951910
O16061	O1606	0.991210	0.938790	0.793710
O16071	O1607	0.986650	0.934050	0.853000
O16081	O1608	0.997480	0.814480	0.952850
O16091	O1609	0.981900	0.755890	0.951910
O16101	O1610	0.732500	0.784920	0.706290
O16111	O1611	0.787050	0.839650	0.647000
O16121	O1612	0.767330	0.950330	0.547150
O16131	O1613	0.707800	0.933810	0.548090
O16141	O1614	0.561220	0.508800	0.706290
O16151	O1615	0.565950	0.513350	0.647000
O16161	O1616	0.685530	0.502530	0.547150
O16171	O1617	0.744110	0.518100	0.548090
