data_MEGBEH_manual_PM
_symmetry_space_group_name_H-M	'P1'
_cell_length_a	18.941600
_cell_length_b	18.941600
_cell_length_c	19.974000
_cell_angle_alpha	112.638000
_cell_angle_beta	112.638000
_cell_angle_gamma	100.850000
_symmetry_Int_Tables_number 1

loop_
_symmetry_equiv_pos_as_xyz
'x,y,z'

loop_
_atom_site_label
_atom_site_type_symbol
_atom_site_fract_x
_atom_site_fract_y
_atom_site_fract_z
Mn11	Mn1	0.000000	0.500000	0.500000
Mn21	Mn2	0.500000	0.000000	0.500000
Cd11	Cd1	0.529720	0.086680	0.000000
Cd21	Cd2	0.470280	0.913320	0.000000
Cd31	Cd3	0.913320	0.470280	0.000000
Cd41	Cd4	0.086680	0.529720	0.000000
Cd51	Cd5	0.000000	0.000000	0.500000
Cd61	Cd6	0.500000	0.500000	0.500000
Cd71	Cd7	0.817010	0.817010	0.308020
Cd81	Cd8	0.491010	0.491010	0.308020
Cd91	Cd9	0.182990	0.182990	0.691980
Cd101	Cd10	0.508990	0.508990	0.691980
H11	H1	0.945100	0.216500	0.268000
H21	H2	0.793100	0.238300	0.433000
H31	H3	0.752500	0.183500	0.224400
H41	H4	0.721800	0.960400	0.207600
H51	H5	0.924500	0.163300	0.404000
H61	H6	0.322900	0.051500	0.268000
H71	H7	0.639900	0.194700	0.433000
H81	H8	0.471900	0.040900	0.224400
H91	H9	0.485800	0.247200	0.207600
H101	H10	0.479500	0.240700	0.404000
H111	H11	0.783500	0.054900	0.732000
H121	H12	0.761700	0.206900	0.567000
H131	H13	0.816500	0.247500	0.775600
H141	H14	0.039600	0.278200	0.792400
H151	H15	0.836700	0.075500	0.596000
H161	H16	0.948500	0.677100	0.732000
H171	H17	0.805300	0.360100	0.567000
H181	H18	0.959100	0.528100	0.775600
H191	H19	0.752800	0.514200	0.792400
H201	H20	0.759300	0.520500	0.596000
H211	H21	0.054900	0.783500	0.732000
H221	H22	0.206900	0.761700	0.567000
H231	H23	0.247500	0.816500	0.775600
H241	H24	0.278200	0.039600	0.792400
H251	H25	0.075500	0.836700	0.596000
H261	H26	0.677100	0.948500	0.732000
H271	H27	0.360100	0.805300	0.567000
H281	H28	0.528100	0.959100	0.775600
H291	H29	0.514200	0.752800	0.792400
H301	H30	0.520500	0.759300	0.596000
H311	H31	0.216500	0.945100	0.268000
H321	H32	0.238300	0.793100	0.433000
H331	H33	0.183500	0.752500	0.224400
H341	H34	0.960400	0.721800	0.207600
H351	H35	0.163300	0.924500	0.404000
H361	H36	0.051500	0.322900	0.268000
H371	H37	0.194700	0.639900	0.433000
H381	H38	0.040900	0.471900	0.224400
H391	H39	0.247200	0.485800	0.207600
H401	H40	0.240700	0.479500	0.404000
C11	C1	0.966400	0.274000	0.301800
C21	C2	0.943600	0.321400	0.367800
C31	C3	0.894500	0.286100	0.387200
C41	C4	0.888800	0.343200	0.456200
C51	C5	0.826200	0.295000	0.464200
C61	C6	0.846200	0.187400	0.321200
C71	C7	0.771400	0.151000	0.246200
C81	C8	0.724700	0.065900	0.203600
C91	C9	0.752900	0.017300	0.236000
C101	C10	0.827800	0.053800	0.311200
C111	C11	0.874400	0.138800	0.353600
C121	C12	0.648300	0.050700	0.125400
C131	C13	0.861600	0.002600	0.349200
C141	C14	0.335400	0.027800	0.301800
C151	C15	0.424200	0.046400	0.367800
C161	C16	0.492700	0.101100	0.387200
C171	C17	0.567400	0.113000	0.456200
C181	C18	0.638000	0.169200	0.464200
C191	C19	0.475000	0.133800	0.321200
C201	C20	0.474800	0.095200	0.246200
C211	C21	0.478900	0.137700	0.203600
C221	C22	0.483100	0.218700	0.236000
C231	C23	0.483400	0.257400	0.311200
C241	C24	0.479200	0.214800	0.353600
C251	C25	0.477100	0.074700	0.125400
C261	C26	0.487600	0.346600	0.349200
C271	C27	0.726000	0.033600	0.698200
C281	C28	0.678600	0.056400	0.632200
C291	C29	0.713900	0.105500	0.612800
C301	C30	0.656800	0.111200	0.543800
C311	C31	0.705000	0.173800	0.535800
C321	C32	0.812600	0.153800	0.678800
C331	C33	0.849000	0.228600	0.753800
C341	C34	0.934100	0.275300	0.796400
C351	C35	0.982700	0.247100	0.764000
C361	C36	0.946200	0.172200	0.688800
C371	C37	0.861200	0.125600	0.646400
C381	C38	0.949300	0.351700	0.874600
C391	C39	0.997400	0.138400	0.650800
C401	C40	0.972200	0.664600	0.698200
C411	C41	0.953600	0.575800	0.632200
C421	C42	0.898900	0.507300	0.612800
C431	C43	0.887000	0.432600	0.543800
C441	C44	0.830800	0.362000	0.535800
C451	C45	0.866200	0.525000	0.678800
C461	C46	0.904800	0.525200	0.753800
C471	C47	0.862300	0.521100	0.796400
C481	C48	0.781300	0.516900	0.764000
C491	C49	0.742600	0.516600	0.688800
C501	C50	0.785200	0.520800	0.646400
C511	C51	0.925300	0.522900	0.874600
C521	C52	0.653400	0.512400	0.650800
C531	C53	0.033600	0.726000	0.698200
C541	C54	0.056400	0.678600	0.632200
C551	C55	0.105500	0.713900	0.612800
C561	C56	0.111200	0.656800	0.543800
C571	C57	0.173800	0.705000	0.535800
C581	C58	0.153800	0.812600	0.678800
C591	C59	0.228600	0.849000	0.753800
C601	C60	0.275300	0.934100	0.796400
C611	C61	0.247100	0.982700	0.764000
C621	C62	0.172200	0.946200	0.688800
C631	C63	0.125600	0.861200	0.646400
C641	C64	0.351700	0.949300	0.874600
C651	C65	0.138400	0.997400	0.650800
C661	C66	0.664600	0.972200	0.698200
C671	C67	0.575800	0.953600	0.632200
C681	C68	0.507300	0.898900	0.612800
C691	C69	0.432600	0.887000	0.543800
C701	C70	0.362000	0.830800	0.535800
C711	C71	0.525000	0.866200	0.678800
C721	C72	0.525200	0.904800	0.753800
C731	C73	0.521100	0.862300	0.796400
C741	C74	0.516900	0.781300	0.764000
C751	C75	0.516600	0.742600	0.688800
C761	C76	0.520800	0.785200	0.646400
C771	C77	0.522900	0.925300	0.874600
C781	C78	0.512400	0.653400	0.650800
C791	C79	0.274000	0.966400	0.301800
C801	C80	0.321400	0.943600	0.367800
C811	C81	0.286100	0.894500	0.387200
C821	C82	0.343200	0.888800	0.456200
C831	C83	0.295000	0.826200	0.464200
C841	C84	0.187400	0.846200	0.321200
C851	C85	0.151000	0.771400	0.246200
C861	C86	0.065900	0.724700	0.203600
C871	C87	0.017300	0.752900	0.236000
C881	C88	0.053800	0.827800	0.311200
C891	C89	0.138800	0.874400	0.353600
C901	C90	0.050700	0.648300	0.125400
C911	C91	0.002600	0.861600	0.349200
C921	C92	0.027800	0.335400	0.301800
C931	C93	0.046400	0.424200	0.367800
C941	C94	0.101100	0.492700	0.387200
C951	C95	0.113000	0.567400	0.456200
C961	C96	0.169200	0.638000	0.464200
C971	C97	0.133800	0.475000	0.321200
C981	C98	0.095200	0.474800	0.246200
C991	C99	0.137700	0.478900	0.203600
C1001	C100	0.218700	0.483100	0.236000
C1011	C101	0.257400	0.483400	0.311200
C1021	C102	0.214800	0.479200	0.353600
C1031	C103	0.074700	0.477100	0.125400
C1041	C104	0.346600	0.487600	0.349200
N11	N1	0.002900	0.409100	0.412000
N21	N2	0.409100	0.002900	0.412000
N31	N3	0.590900	0.997100	0.588000
N41	N4	0.997100	0.590900	0.588000
N51	N5	0.933300	0.433300	0.500000
N61	N6	0.566700	0.066700	0.500000
N71	N7	0.066700	0.566700	0.500000
N81	N8	0.433300	0.933300	0.500000
Cl11	Cl1	0.887700	0.887700	0.471200
Cl21	Cl2	0.583500	0.583500	0.471200
Cl31	Cl3	0.112300	0.112300	0.528800
Cl41	Cl4	0.416500	0.416500	0.528800
Cl61	Cl6	0.504700	0.886100	0.390800
Cl81	Cl8	0.113900	0.495300	0.609200
O11	O1	0.624700	0.090700	0.097200
O21	O2	0.611200	0.976000	0.093000
O31	O3	0.816900	0.927500	0.308200
O41	O4	0.928500	0.033700	0.416400
O51	O5	0.472500	0.006500	0.097200
O61	O6	0.481800	0.117000	0.093000
O71	O7	0.491300	0.380700	0.308200
O81	O8	0.487900	0.382700	0.416400
O91	O9	0.909300	0.375300	0.902800
O101	O10	0.024000	0.388800	0.907000
O111	O11	0.072500	0.183100	0.691800
O121	O12	0.966300	0.071500	0.583600
O131	O13	0.993500	0.527500	0.902800
O141	O14	0.883000	0.518200	0.907000
O151	O15	0.619300	0.508700	0.691800
O161	O16	0.617300	0.512100	0.583600
O171	O17	0.375300	0.909300	0.902800
O181	O18	0.388800	0.024000	0.907000
O191	O19	0.183100	0.072500	0.691800
O201	O20	0.071500	0.966300	0.583600
O211	O21	0.527500	0.993500	0.902800
O221	O22	0.518200	0.883000	0.907000
O231	O23	0.508700	0.619300	0.691800
O241	O24	0.512100	0.617300	0.583600
O251	O25	0.090700	0.624700	0.097200
O261	O26	0.976000	0.611200	0.093000
O271	O27	0.927500	0.816900	0.308200
O281	O28	0.033700	0.928500	0.416400
O291	O29	0.006500	0.472500	0.097200
O301	O30	0.117000	0.481800	0.093000
O311	O31	0.380700	0.491300	0.308200
O321	O32	0.382700	0.487900	0.416400
