data_MEGFIN_clean_PM
_symmetry_space_group_name_H-M	'P1'
_cell_length_a	17.813000
_cell_length_b	29.890900
_cell_length_c	29.890900
_cell_angle_alpha	84.906400
_cell_angle_beta	72.664500
_cell_angle_gamma	72.664600
_symmetry_Int_Tables_number 1

loop_
_symmetry_equiv_pos_as_xyz
'x,y,z'

loop_
_atom_site_label
_atom_site_type_symbol
_atom_site_fract_x
_atom_site_fract_y
_atom_site_fract_z
Mn11	Mn1	0.078860	0.915080	0.357660
Mn21	Mn2	0.239830	0.879810	0.469330
Mn31	Mn3	0.209120	0.005210	0.573790
Mn41	Mn4	0.851600	0.584920	0.142340
Mn51	Mn5	0.088970	0.620190	0.030670
Mn61	Mn6	0.288120	0.494790	0.926210
Mn71	Mn7	0.436520	0.642340	0.415080
Mn81	Mn8	0.709160	0.530670	0.379810
Mn91	Mn9	0.782910	0.426210	0.505210
Mn101	Mn10	0.993940	0.857660	0.084920
Mn111	Mn11	0.119640	0.969330	0.120190
Mn121	Mn12	0.214330	0.073790	0.994790
Mn131	Mn13	0.921140	0.084920	0.642340
Mn141	Mn14	0.760170	0.120190	0.530670
Mn151	Mn15	0.790880	0.994790	0.426210
Mn161	Mn16	0.148400	0.415080	0.857660
Mn171	Mn17	0.911030	0.379810	0.969330
Mn181	Mn18	0.711880	0.505210	0.073790
Mn191	Mn19	0.563480	0.357660	0.584920
Mn201	Mn20	0.290840	0.469330	0.620190
Mn211	Mn21	0.217090	0.573790	0.494790
Mn221	Mn22	0.006060	0.142340	0.915080
Mn231	Mn23	0.880360	0.030670	0.879810
Mn241	Mn24	0.785670	0.926210	0.005210
H11	H1	0.258500	0.753700	0.403500
H21	H2	0.253900	0.692600	0.363800
H31	H3	0.174000	0.707100	0.313300
H41	H4	0.096500	0.782400	0.303400
H51	H5	0.058000	0.018600	0.458400
H61	H6	0.139900	0.989600	0.469200
H71	H7	0.142600	0.021900	0.424900
H81	H8	0.404800	0.336900	0.575100
H91	H9	0.351600	0.278600	0.567800
H101	H10	0.551700	0.186600	0.587600
H111	H11	0.602100	0.247500	0.590100
H121	H12	0.419300	0.187800	0.529600
H131	H13	0.462400	0.155400	0.564400
H141	H14	0.434400	0.983200	0.464000
H151	H15	0.537600	0.975500	0.392900
H161	H16	0.539000	0.925100	0.336100
H171	H17	0.442000	0.888800	0.347600
H181	H18	0.081600	0.892000	0.617000
H191	H19	0.077800	0.944900	0.618900
H201	H20	0.022100	0.930400	0.594400
H211	H21	0.971300	0.987100	0.250300
H221	H22	0.897500	0.030900	0.201700
H231	H23	0.758800	0.071000	0.233800
H241	H24	0.698500	0.067500	0.311900
H251	H25	0.003600	0.872300	0.463100
H261	H26	0.920100	0.880000	0.502600
H271	H27	0.976400	0.912200	0.500200
H281	H28	0.228900	0.069500	0.646300
H291	H29	0.275600	0.132400	0.652200
H301	H30	0.361100	0.131400	0.514000
H311	H31	0.308800	0.070800	0.511000
H321	H32	0.351400	0.185300	0.621700
H331	H33	0.309400	0.211400	0.583800
H341	H34	0.915700	0.746300	0.096500
H351	H35	0.810300	0.807400	0.136200
H361	H36	0.694400	0.792900	0.186700
H371	H37	0.682300	0.717600	0.196600
H381	H38	0.035000	0.481400	0.041600
H391	H39	0.098700	0.510400	0.030800
H401	H40	0.089400	0.478100	0.075100
H411	H41	0.816800	0.163100	0.924900
H421	H42	0.698000	0.221400	0.932200
H431	H43	0.825900	0.313400	0.912400
H441	H44	0.939700	0.252500	0.909900
H451	H45	0.636700	0.312200	0.970400
H461	H46	0.682200	0.344600	0.935600
H471	H47	0.381600	0.516800	0.036000
H481	H48	0.406000	0.524500	0.107100
H491	H49	0.300200	0.574900	0.163900
H501	H50	0.178400	0.611200	0.152400
H511	H51	0.090600	0.608000	0.883000
H521	H52	0.141600	0.555100	0.881100
H531	H53	0.046900	0.569600	0.905600
H541	H54	0.708700	0.512900	0.249700
H551	H55	0.630100	0.469100	0.298300
H561	H56	0.563600	0.429000	0.266200
H571	H57	0.577900	0.432500	0.188100
H581	H58	0.839000	0.627700	0.036900
H591	H59	0.802700	0.620000	0.997400
H601	H60	0.888800	0.587800	0.999800
H611	H61	0.444700	0.430500	0.853700
H621	H62	0.560200	0.367600	0.847800
H631	H63	0.506500	0.368600	0.986000
H641	H64	0.390600	0.429200	0.989000
H651	H65	0.658400	0.314700	0.878300
H661	H66	0.604600	0.288600	0.916200
H671	H67	0.662000	0.596500	0.253700
H681	H68	0.617700	0.636200	0.192600
H691	H69	0.487300	0.686700	0.207100
H701	H70	0.399900	0.696600	0.282400
H711	H71	0.516400	0.541600	0.518600
H721	H72	0.609100	0.530800	0.489600
H731	H73	0.567500	0.575100	0.521900
H741	H74	0.979900	0.424900	0.836900
H751	H75	0.919400	0.432200	0.778600
H761	H76	0.139300	0.412400	0.686600
H771	H77	0.192200	0.409900	0.747500
H781	H78	0.948900	0.470400	0.687800
H791	H79	0.026800	0.435600	0.655400
H801	H80	0.898400	0.536000	0.483200
H811	H81	0.930500	0.607100	0.475500
H821	H82	0.875100	0.663900	0.425100
H831	H83	0.789600	0.652400	0.388800
H841	H84	0.698600	0.383000	0.392000
H851	H85	0.696700	0.381100	0.444900
H861	H86	0.616500	0.405600	0.430400
H871	H87	0.221600	0.749700	0.487100
H881	H88	0.099200	0.798300	0.530900
H891	H89	0.992600	0.766200	0.571000
H901	H90	0.010400	0.688100	0.567500
H911	H91	0.466700	0.536900	0.372300
H921	H92	0.422700	0.497400	0.380000
H931	H93	0.476600	0.499800	0.412200
H941	H94	0.875200	0.353700	0.569500
H951	H95	0.927800	0.347800	0.632400
H961	H96	0.875100	0.486000	0.631400
H971	H97	0.819800	0.489000	0.570800
H981	H98	0.973100	0.378300	0.685300
H991	H99	0.893200	0.416200	0.711400
H1001	H100	0.012200	0.903500	0.246300
H1011	H101	0.946500	0.863800	0.307400
H1021	H102	0.881100	0.813300	0.292900
H1031	H103	0.878900	0.803400	0.217600
H1041	H104	0.076600	0.958400	0.981400
H1051	H105	0.129500	0.969200	0.010400
H1061	H106	0.164500	0.924900	0.978100
H1071	H107	0.741700	0.075100	0.663100
H1081	H108	0.630200	0.067800	0.721400
H1091	H109	0.738300	0.087600	0.813400
H1101	H110	0.849600	0.090100	0.752500
H1111	H111	0.607100	0.029600	0.812200
H1121	H112	0.617800	0.064400	0.844600
H1131	H113	0.417600	0.964000	0.016800
H1141	H114	0.513100	0.892900	0.024500
H1151	H115	0.464100	0.836100	0.074900
H1161	H116	0.330800	0.847600	0.111200
H1171	H117	0.973600	0.117000	0.108000
H1181	H118	0.022700	0.118900	0.055100
H1191	H119	0.952500	0.094400	0.069600
H1201	H120	0.958400	0.750300	0.012900
H1211	H121	0.928400	0.701700	0.969100
H1221	H122	0.829800	0.733800	0.929000
H1231	H123	0.766000	0.811900	0.932500
H1241	H124	0.875900	0.963100	0.127700
H1251	H125	0.800100	0.002600	0.120000
H1261	H126	0.888600	0.000200	0.087800
H1271	H127	0.298400	0.146300	0.930500
H1281	H128	0.408000	0.152200	0.867600
H1291	H129	0.492500	0.014000	0.868600
H1301	H130	0.379600	0.011000	0.929200
H1311	H131	0.536700	0.121700	0.814700
H1321	H132	0.520800	0.083800	0.788600
H1331	H133	0.741500	0.246300	0.596500
H1341	H134	0.746100	0.307400	0.636200
H1351	H135	0.826000	0.292900	0.686700
H1361	H136	0.903500	0.217600	0.696600
H1371	H137	0.942000	0.981400	0.541600
H1381	H138	0.860100	0.010400	0.530800
H1391	H139	0.857400	0.978100	0.575100
H1401	H140	0.595200	0.663100	0.424900
H1411	H141	0.648400	0.721400	0.432200
H1421	H142	0.448300	0.813400	0.412400
H1431	H143	0.397900	0.752500	0.409900
H1441	H144	0.580700	0.812200	0.470400
H1451	H145	0.537600	0.844600	0.435600
H1461	H146	0.565600	0.016800	0.536000
H1471	H147	0.462400	0.024500	0.607100
H1481	H148	0.461000	0.074900	0.663900
H1491	H149	0.558000	0.111200	0.652400
H1501	H150	0.918400	0.108000	0.383000
H1511	H151	0.922200	0.055100	0.381100
H1521	H152	0.977900	0.069600	0.405600
H1531	H153	0.028700	0.012900	0.749700
H1541	H154	0.102500	0.969100	0.798300
H1551	H155	0.241200	0.929000	0.766200
H1561	H156	0.301500	0.932500	0.688100
H1571	H157	0.996400	0.127700	0.536900
H1581	H158	0.079900	0.120000	0.497400
H1591	H159	0.023600	0.087800	0.499800
H1601	H160	0.771100	0.930500	0.353700
H1611	H161	0.724400	0.867600	0.347800
H1621	H162	0.638900	0.868600	0.486000
H1631	H163	0.691200	0.929200	0.489000
H1641	H164	0.648600	0.814700	0.378300
H1651	H165	0.690600	0.788600	0.416200
H1661	H166	0.084300	0.253700	0.903500
H1671	H167	0.189700	0.192600	0.863800
H1681	H168	0.305600	0.207100	0.813300
H1691	H169	0.317700	0.282400	0.803400
H1701	H170	0.965000	0.518600	0.958400
H1711	H171	0.901300	0.489600	0.969200
H1721	H172	0.910600	0.521900	0.924900
H1731	H173	0.183200	0.836900	0.075100
H1741	H174	0.302000	0.778600	0.067800
H1751	H175	0.174100	0.686600	0.087600
H1761	H176	0.060300	0.747500	0.090100
H1771	H177	0.363300	0.687800	0.029600
H1781	H178	0.317800	0.655400	0.064400
H1791	H179	0.618400	0.483200	0.964000
H1801	H180	0.594000	0.475500	0.892900
H1811	H181	0.699800	0.425100	0.836100
H1821	H182	0.821600	0.388800	0.847600
H1831	H183	0.909400	0.392000	0.117000
H1841	H184	0.858400	0.444900	0.118900
H1851	H185	0.953100	0.430400	0.094400
H1861	H186	0.291300	0.487100	0.750300
H1871	H187	0.369900	0.530900	0.701700
H1881	H188	0.436400	0.571000	0.733800
H1891	H189	0.422100	0.567500	0.811900
H1901	H190	0.161000	0.372300	0.963100
H1911	H191	0.197300	0.380000	0.002600
H1921	H192	0.111200	0.412200	0.000200
H1931	H193	0.555300	0.569500	0.146300
H1941	H194	0.439800	0.632400	0.152200
H1951	H195	0.493500	0.631400	0.014000
H1961	H196	0.609400	0.570800	0.011000
H1971	H197	0.341600	0.685300	0.121700
H1981	H198	0.395400	0.711400	0.083800
H1991	H199	0.338000	0.403500	0.746300
H2001	H200	0.382300	0.363800	0.807400
H2011	H201	0.512700	0.313300	0.792900
H2021	H202	0.600100	0.303400	0.717600
H2031	H203	0.483600	0.458400	0.481400
H2041	H204	0.390900	0.469200	0.510400
H2051	H205	0.432500	0.424900	0.478100
H2061	H206	0.020100	0.575100	0.163100
H2071	H207	0.080600	0.567800	0.221400
H2081	H208	0.860700	0.587600	0.313400
H2091	H209	0.807800	0.590100	0.252500
H2101	H210	0.051100	0.529600	0.312200
H2111	H211	0.973200	0.564400	0.344600
H2121	H212	0.101600	0.464000	0.516800
H2131	H213	0.069500	0.392900	0.524500
H2141	H214	0.124900	0.336100	0.574900
H2151	H215	0.210400	0.347600	0.611200
H2161	H216	0.301400	0.617000	0.608000
H2171	H217	0.303300	0.618900	0.555100
H2181	H218	0.383500	0.594400	0.569600
H2191	H219	0.778400	0.250300	0.512900
H2201	H220	0.900800	0.201700	0.469100
H2211	H221	0.007400	0.233800	0.429000
H2221	H222	0.989600	0.311900	0.432500
H2231	H223	0.533300	0.463100	0.627700
H2241	H224	0.577300	0.502600	0.620000
H2251	H225	0.523400	0.500200	0.587800
H2261	H226	0.124800	0.646300	0.430500
H2271	H227	0.072200	0.652200	0.367600
H2281	H228	0.124900	0.514000	0.368600
H2291	H229	0.180200	0.511000	0.429200
H2301	H230	0.026900	0.621700	0.314700
H2311	H231	0.106800	0.583800	0.288600
H2321	H232	0.987800	0.096500	0.753700
H2331	H233	0.053500	0.136200	0.692600
H2341	H234	0.118900	0.186700	0.707100
H2351	H235	0.121100	0.196600	0.782400
H2361	H236	0.923400	0.041600	0.018600
H2371	H237	0.870500	0.030800	0.989600
H2381	H238	0.835500	0.075100	0.021900
H2391	H239	0.258300	0.924900	0.336900
H2401	H240	0.369800	0.932200	0.278600
H2411	H241	0.261700	0.912400	0.186600
H2421	H242	0.150400	0.909900	0.247500
H2431	H243	0.392900	0.970400	0.187800
H2441	H244	0.382200	0.935600	0.155400
H2451	H245	0.582400	0.036000	0.983200
H2461	H246	0.486900	0.107100	0.975500
H2471	H247	0.535900	0.163900	0.925100
H2481	H248	0.669200	0.152400	0.888800
H2491	H249	0.026400	0.883000	0.892000
H2501	H250	0.977300	0.881100	0.944900
H2511	H251	0.047500	0.905600	0.930400
H2521	H252	0.041600	0.249700	0.987100
H2531	H253	0.071600	0.298300	0.030900
H2541	H254	0.170200	0.266200	0.071000
H2551	H255	0.234000	0.188100	0.067500
H2561	H256	0.124100	0.036900	0.872300
H2571	H257	0.199900	0.997400	0.880000
H2581	H258	0.111400	0.999800	0.912200
H2591	H259	0.701600	0.853700	0.069500
H2601	H260	0.592000	0.847800	0.132400
H2611	H261	0.507500	0.986000	0.131400
H2621	H262	0.620400	0.989000	0.070800
H2631	H263	0.463300	0.878300	0.185300
H2641	H264	0.479200	0.916200	0.211400
C11	C1	0.128800	0.814100	0.347700
C21	C2	0.177800	0.805600	0.378800
C31	C3	0.225100	0.759500	0.383700
C41	C4	0.223000	0.723000	0.359800
C51	C5	0.175200	0.731700	0.329900
C61	C6	0.128500	0.777100	0.323900
C71	C7	0.182200	0.841900	0.406500
C81	C8	0.118300	0.961700	0.416700
C91	C9	0.114400	0.001400	0.444800
C101	C10	0.436000	0.306100	0.576500
C111	C11	0.403700	0.271100	0.571900
C121	C12	0.448200	0.225100	0.573300
C131	C13	0.521600	0.217000	0.583000
C141	C14	0.550200	0.254200	0.585800
C151	C15	0.421900	0.184700	0.561700
C161	C16	0.379400	0.910600	0.414600
C171	C17	0.374600	0.941500	0.448700
C181	C18	0.435600	0.964200	0.440600
C191	C19	0.498000	0.959600	0.398400
C201	C20	0.497800	0.929400	0.364400
C211	C21	0.441100	0.907100	0.371500
C221	C22	0.310700	0.950600	0.493000
C231	C23	0.142200	0.915700	0.553900
C241	C24	0.074700	0.921300	0.600300
C251	C25	0.798000	0.026000	0.331200
C261	C26	0.882200	0.000900	0.310700
C271	C27	0.916500	0.003500	0.263100
C281	C28	0.872500	0.029500	0.233700
C291	C29	0.789500	0.053600	0.253000
C301	C30	0.753800	0.051600	0.299800
C311	C31	0.931700	0.971200	0.339000
C321	C32	0.914800	0.928800	0.451000
C331	C33	0.957500	0.895300	0.482100
C341	C34	0.256900	0.081700	0.618900
C351	C35	0.284800	0.120200	0.622800
C361	C36	0.324800	0.139000	0.584000
C371	C37	0.334000	0.119400	0.541800
C381	C38	0.303900	0.082000	0.540200
C391	C39	0.350700	0.183700	0.589500
C401	C40	0.790600	0.685900	0.152300
C411	C41	0.862200	0.694400	0.121200
C421	C42	0.868300	0.740500	0.116300
C431	C43	0.805800	0.777000	0.140200
C441	C44	0.736800	0.768300	0.170100
C451	C45	0.729500	0.722900	0.176100
C461	C46	0.930600	0.658100	0.093500
C471	C47	0.996700	0.538300	0.083300
C481	C48	0.060600	0.498600	0.055200
C491	C49	0.818600	0.193900	0.923500
C501	C50	0.746700	0.228900	0.928100
C511	C51	0.746600	0.274900	0.926700
C521	C52	0.821600	0.283000	0.917000
C531	C53	0.890200	0.245800	0.914200
C541	C54	0.668300	0.315300	0.938300
C551	C55	0.204600	0.589400	0.085400
C561	C56	0.264800	0.558500	0.051300
C571	C57	0.340400	0.535800	0.059400
C581	C58	0.356000	0.540400	0.101600
C591	C59	0.291600	0.570600	0.135600
C601	C60	0.219700	0.592900	0.128500
C611	C61	0.254300	0.549400	0.007000
C621	C62	0.111800	0.584300	0.946100
C631	C63	0.096300	0.578700	0.899700
C641	C64	0.655200	0.474000	0.168800
C651	C65	0.693800	0.499100	0.189300
C661	C66	0.683100	0.496500	0.236900
C671	C67	0.635700	0.470500	0.266300
C681	C68	0.596100	0.446400	0.247000
C691	C69	0.605200	0.448400	0.200200
C701	C70	0.741900	0.528800	0.161000
C711	C71	0.794600	0.571200	0.049000
C721	C72	0.834900	0.604700	0.017900
C731	C73	0.457500	0.418300	0.881100
C741	C74	0.527800	0.379800	0.877200
C751	C75	0.547800	0.361000	0.916000
C761	C76	0.495200	0.380600	0.958200
C771	C77	0.426100	0.418000	0.959800
C781	C78	0.623900	0.316300	0.910500
C791	C79	0.476500	0.652300	0.314100
C801	C80	0.556600	0.621200	0.305600
C811	C81	0.608800	0.616300	0.259500
C821	C82	0.582800	0.640200	0.223000
C831	C83	0.505100	0.670100	0.231700
C841	C84	0.452400	0.676100	0.277100
C851	C85	0.588700	0.593500	0.341900
C861	C86	0.535000	0.583300	0.461700
C871	C87	0.559200	0.555200	0.501400
C881	C88	0.012500	0.423500	0.806100
C891	C89	0.975600	0.428100	0.771100
C901	C90	0.021500	0.426700	0.725100
C911	C91	0.104600	0.417000	0.717000
C921	C92	0.136000	0.414200	0.754200
C931	C93	0.983600	0.438300	0.684700
C941	C94	0.794000	0.585400	0.410600
C951	C95	0.823300	0.551300	0.441500
C961	C96	0.876200	0.559400	0.464200
C971	C97	0.896400	0.601600	0.459600
C981	C98	0.862200	0.635600	0.429400
C991	C99	0.812600	0.628500	0.407100
C1001	C100	0.803700	0.507000	0.450600
C1011	C101	0.696100	0.446100	0.415700
C1021	C102	0.675000	0.399700	0.421300
C1031	C103	0.129200	0.668800	0.526000
C1041	C104	0.192900	0.689300	0.500900
C1051	C105	0.179600	0.736900	0.503500
C1061	C106	0.106200	0.766300	0.529500
C1071	C107	0.042500	0.747000	0.553600
C1081	C108	0.053600	0.700200	0.551600
C1091	C109	0.270700	0.661000	0.471200
C1101	C110	0.365800	0.549000	0.428800
C1111	C111	0.439600	0.517900	0.395300
C1121	C112	0.875800	0.381100	0.581700
C1131	C113	0.907600	0.377200	0.620200
C1141	C114	0.908800	0.416000	0.639000
C1151	C115	0.875800	0.458200	0.619400
C1161	C116	0.844100	0.459800	0.582000
C1171	C117	0.940200	0.410500	0.683700
C1181	C118	0.942900	0.847700	0.185900
C1191	C119	0.983400	0.878800	0.194400
C1201	C120	0.984600	0.883700	0.240500
C1211	C121	0.946000	0.859800	0.277000
C1221	C122	0.906900	0.829900	0.268300
C1231	C123	0.905600	0.823900	0.222900
C1241	C124	0.024100	0.906500	0.158100
C1251	C125	0.080000	0.916700	0.038300
C1261	C126	0.115800	0.944800	0.998600
C1271	C127	0.742100	0.076500	0.693900
C1281	C128	0.674800	0.071900	0.728900
C1291	C129	0.673300	0.073300	0.774900
C1301	C130	0.738600	0.083000	0.783000
C1311	C131	0.804400	0.085800	0.745800
C1321	C132	0.606600	0.061700	0.815300
C1331	C133	0.290000	0.914600	0.089400
C1341	C134	0.316100	0.948700	0.058500
C1351	C135	0.399800	0.940600	0.035800
C1361	C136	0.457600	0.898400	0.040400
C1371	C137	0.427200	0.864400	0.070600
C1381	C138	0.348200	0.871500	0.092900
C1391	C139	0.261300	0.993000	0.049400
C1401	C140	0.057900	0.053900	0.084300
C1411	C141	0.996000	0.100300	0.078700
C1421	C142	0.824000	0.831200	0.974000
C1431	C143	0.883100	0.810700	0.999100
C1441	C144	0.920000	0.763100	0.996500
C1451	C145	0.902000	0.733700	0.970500
C1461	C146	0.843100	0.753000	0.946400
C1471	C147	0.805400	0.799800	0.948400
C1481	C148	0.902900	0.839000	0.028800
C1491	C149	0.843600	0.951000	0.071200
C1501	C150	0.852800	0.982100	0.104700
C1511	C151	0.338600	0.118900	0.918300
C1521	C152	0.405000	0.122800	0.879800
C1531	C153	0.463800	0.084000	0.861000
C1541	C154	0.453400	0.041800	0.880600
C1551	C155	0.385900	0.040200	0.918000
C1561	C156	0.534400	0.089500	0.816300
C1571	C157	0.871200	0.185900	0.652300
C1581	C158	0.822200	0.194400	0.621200
C1591	C159	0.774900	0.240500	0.616300
C1601	C160	0.777000	0.277000	0.640200
C1611	C161	0.824800	0.268300	0.670100
C1621	C162	0.871500	0.222900	0.676100
C1631	C163	0.817800	0.158100	0.593500
C1641	C164	0.881700	0.038300	0.583300
C1651	C165	0.885600	0.998600	0.555200
C1661	C166	0.564000	0.693900	0.423500
C1671	C167	0.596300	0.728900	0.428100
C1681	C168	0.551800	0.774900	0.426700
C1691	C169	0.478400	0.783000	0.417000
C1701	C170	0.449800	0.745800	0.414200
C1711	C171	0.578100	0.815300	0.438300
C1721	C172	0.620600	0.089400	0.585400
C1731	C173	0.625400	0.058500	0.551300
C1741	C174	0.564400	0.035800	0.559400
C1751	C175	0.502000	0.040400	0.601600
C1761	C176	0.502200	0.070600	0.635600
C1771	C177	0.558900	0.092900	0.628500
C1781	C178	0.689300	0.049400	0.507000
C1791	C179	0.857800	0.084300	0.446100
C1801	C180	0.925300	0.078700	0.399700
C1811	C181	0.202000	0.974000	0.668800
C1821	C182	0.117800	0.999100	0.689300
C1831	C183	0.083500	0.996500	0.736900
C1841	C184	0.127500	0.970500	0.766300
C1851	C185	0.210500	0.946400	0.747000
C1861	C186	0.246200	0.948400	0.700200
C1871	C187	0.068300	0.028800	0.661000
C1881	C188	0.085200	0.071200	0.549000
C1891	C189	0.042500	0.104700	0.517900
C1901	C190	0.743100	0.918300	0.381100
C1911	C191	0.715200	0.879800	0.377200
C1921	C192	0.675200	0.861000	0.416000
C1931	C193	0.666000	0.880600	0.458200
C1941	C194	0.696100	0.918000	0.459800
C1951	C195	0.649300	0.816300	0.410500
C1961	C196	0.209400	0.314100	0.847700
C1971	C197	0.137800	0.305600	0.878800
C1981	C198	0.131700	0.259500	0.883700
C1991	C199	0.194200	0.223000	0.859800
C2001	C200	0.263200	0.231700	0.829900
C2011	C201	0.270500	0.277100	0.823900
C2021	C202	0.069400	0.341900	0.906500
C2031	C203	0.003300	0.461700	0.916700
C2041	C204	0.939400	0.501400	0.944800
C2051	C205	0.181400	0.806100	0.076500
C2061	C206	0.253300	0.771100	0.071900
C2071	C207	0.253400	0.725100	0.073300
C2081	C208	0.178400	0.717000	0.083000
C2091	C209	0.109800	0.754200	0.085800
C2101	C210	0.331700	0.684700	0.061700
C2111	C211	0.795400	0.410600	0.914600
C2121	C212	0.735200	0.441500	0.948700
C2131	C213	0.659600	0.464200	0.940600
C2141	C214	0.644000	0.459600	0.898400
C2151	C215	0.708400	0.429400	0.864400
C2161	C216	0.780300	0.407100	0.871500
C2171	C217	0.745700	0.450600	0.993000
C2181	C218	0.888200	0.415700	0.053900
C2191	C219	0.903700	0.421300	0.100300
C2201	C220	0.344800	0.526000	0.831200
C2211	C221	0.306200	0.500900	0.810700
C2221	C222	0.316900	0.503500	0.763100
C2231	C223	0.364300	0.529500	0.733700
C2241	C224	0.403900	0.553600	0.753000
C2251	C225	0.394800	0.551600	0.799800
C2261	C226	0.258100	0.471200	0.839000
C2271	C227	0.205400	0.428800	0.951000
C2281	C228	0.165100	0.395300	0.982100
C2291	C229	0.542500	0.581700	0.118900
C2301	C230	0.472200	0.620200	0.122800
C2311	C231	0.452200	0.639000	0.084000
C2321	C232	0.504800	0.619400	0.041800
C2331	C233	0.573900	0.582000	0.040200
C2341	C234	0.376100	0.683700	0.089500
C2351	C235	0.523500	0.347700	0.685900
C2361	C236	0.443400	0.378800	0.694400
C2371	C237	0.391200	0.383700	0.740500
C2381	C238	0.417200	0.359800	0.777000
C2391	C239	0.494900	0.329900	0.768300
C2401	C240	0.547600	0.323900	0.722900
C2411	C241	0.411300	0.406500	0.658100
C2421	C242	0.465000	0.416700	0.538300
C2431	C243	0.440800	0.444800	0.498600
C2441	C244	0.987500	0.576500	0.193900
C2451	C245	0.024400	0.571900	0.228900
C2461	C246	0.978500	0.573300	0.274900
C2471	C247	0.895400	0.583000	0.283000
C2481	C248	0.864000	0.585800	0.245800
C2491	C249	0.016400	0.561700	0.315300
C2501	C250	0.206000	0.414600	0.589400
C2511	C251	0.176700	0.448700	0.558500
C2521	C252	0.123800	0.440600	0.535800
C2531	C253	0.103600	0.398400	0.540400
C2541	C254	0.137800	0.364400	0.570600
C2551	C255	0.187400	0.371500	0.592900
C2561	C256	0.196300	0.493000	0.549400
C2571	C257	0.303900	0.553900	0.584300
C2581	C258	0.325000	0.600300	0.578700
C2591	C259	0.870800	0.331200	0.474000
C2601	C260	0.807100	0.310700	0.499100
C2611	C261	0.820400	0.263100	0.496500
C2621	C262	0.893800	0.233700	0.470500
C2631	C263	0.957500	0.253000	0.446400
C2641	C264	0.946400	0.299800	0.448400
C2651	C265	0.729300	0.339000	0.528800
C2661	C266	0.634200	0.451000	0.571200
C2671	C267	0.560400	0.482100	0.604700
C2681	C268	0.124200	0.618900	0.418300
C2691	C269	0.092400	0.622800	0.379800
C2701	C270	0.091200	0.584000	0.361000
C2711	C271	0.124200	0.541800	0.380600
C2721	C272	0.155900	0.540200	0.418000
C2731	C273	0.059800	0.589500	0.316300
C2741	C274	0.057100	0.152300	0.814100
C2751	C275	0.016600	0.121200	0.805600
C2761	C276	0.015400	0.116300	0.759500
C2771	C277	0.054000	0.140200	0.723000
C2781	C278	0.093100	0.170100	0.731700
C2791	C279	0.094400	0.176100	0.777100
C2801	C280	0.975900	0.093500	0.841900
C2811	C281	0.920000	0.083300	0.961700
C2821	C282	0.884200	0.055200	0.001400
C2831	C283	0.257900	0.923500	0.306100
C2841	C284	0.325200	0.928100	0.271100
C2851	C285	0.326700	0.926700	0.225100
C2861	C286	0.261400	0.917000	0.217000
C2871	C287	0.195600	0.914200	0.254200
C2881	C288	0.393400	0.938300	0.184700
C2891	C289	0.710000	0.085400	0.910600
C2901	C290	0.683900	0.051300	0.941500
C2911	C291	0.600200	0.059400	0.964200
C2921	C292	0.542400	0.101600	0.959600
C2931	C293	0.572800	0.135600	0.929400
C2941	C294	0.651800	0.128500	0.907100
C2951	C295	0.738700	0.007000	0.950600
C2961	C296	0.942100	0.946100	0.915700
C2971	C297	0.004000	0.899700	0.921300
C2981	C298	0.176000	0.168800	0.026000
C2991	C299	0.116900	0.189300	0.000900
C3001	C300	0.080000	0.236900	0.003500
C3011	C301	0.098000	0.266300	0.029500
C3021	C302	0.156900	0.247000	0.053600
C3031	C303	0.194600	0.200200	0.051600
C3041	C304	0.097100	0.161000	0.971200
C3051	C305	0.156400	0.049000	0.928800
C3061	C306	0.147200	0.017900	0.895300
C3071	C307	0.661400	0.881100	0.081700
C3081	C308	0.595000	0.877200	0.120200
C3091	C309	0.536200	0.916000	0.139000
C3101	C310	0.546600	0.958200	0.119400
C3111	C311	0.614100	0.959800	0.082000
C3121	C312	0.465600	0.910500	0.183700
N11	N1	0.143940	0.886420	0.400500
N21	N2	0.151710	0.919090	0.428490
N31	N3	0.510000	0.298300	0.582900
N41	N4	0.251780	0.928530	0.502510
N51	N5	0.192900	0.941030	0.546370
N61	N6	0.898710	0.963890	0.383490
N71	N7	0.950200	0.931400	0.406200
N81	N8	0.268000	0.061700	0.578700
N91	N9	0.930860	0.613580	0.099500
N101	N10	0.999290	0.580910	0.071510
N111	N11	0.891200	0.201700	0.917100
N121	N12	0.182820	0.571470	0.997490
N131	N13	0.180300	0.558970	0.953630
N141	N14	0.746090	0.536110	0.116510
N151	N15	0.787800	0.568600	0.093800
N161	N16	0.408400	0.438300	0.921300
N171	N17	0.544440	0.599500	0.386420
N181	N18	0.580200	0.571510	0.419090
N191	N19	0.092900	0.417100	0.798300
N201	N20	0.754290	0.497490	0.428530
N211	N21	0.739270	0.453630	0.441030
N221	N22	0.282200	0.616510	0.463890
N231	N23	0.356400	0.593800	0.431400
N241	N24	0.846700	0.421300	0.561700
N251	N25	0.030360	0.900500	0.113580
N261	N26	0.070800	0.928490	0.080910
N271	N27	0.808300	0.082900	0.701700
N281	N28	0.180310	0.002510	0.071470
N291	N29	0.133930	0.046370	0.058970
N301	N30	0.862600	0.883490	0.036110
N311	N31	0.881600	0.906200	0.068600
N321	N32	0.329700	0.078700	0.938300
N331	N33	0.856060	0.113580	0.599500
N341	N34	0.848290	0.080910	0.571510
N351	N35	0.490000	0.701700	0.417100
N361	N36	0.748220	0.071470	0.497490
N371	N37	0.807100	0.058970	0.453630
N381	N38	0.101290	0.036110	0.616510
N391	N39	0.049800	0.068600	0.593800
N401	N40	0.732000	0.938300	0.421300
N411	N41	0.069140	0.386420	0.900500
N421	N42	0.000710	0.419090	0.928490
N431	N43	0.108800	0.798300	0.082900
N441	N44	0.817180	0.428530	0.002510
N451	N45	0.819700	0.441030	0.046370
N461	N46	0.253910	0.463890	0.883490
N471	N47	0.212200	0.431400	0.906200
N481	N48	0.591600	0.561700	0.078700
N491	N49	0.455560	0.400500	0.613580
N501	N50	0.419800	0.428490	0.580910
N511	N51	0.907100	0.582900	0.201700
N521	N52	0.245710	0.502510	0.571470
N531	N53	0.260730	0.546370	0.558970
N541	N54	0.717800	0.383490	0.536110
N551	N55	0.643600	0.406200	0.568600
N561	N56	0.153300	0.578700	0.438300
N571	N57	0.969640	0.099500	0.886420
N581	N58	0.929200	0.071510	0.919090
N591	N59	0.191700	0.917100	0.298300
N601	N60	0.819690	0.997490	0.928530
N611	N61	0.866070	0.953630	0.941030
N621	N62	0.137400	0.116510	0.963890
N631	N63	0.118400	0.093800	0.931400
N641	N64	0.670300	0.921300	0.061700
O11	O1	0.081980	0.856880	0.339760
O21	O2	0.222400	0.830190	0.437410
O31	O3	0.083290	0.970800	0.383620
O41	O4	0.329290	0.884270	0.419550
O51	O5	0.310760	0.979280	0.522600
O61	O6	0.149740	0.883660	0.525460
O71	O7	0.757720	0.026420	0.375940
O81	O8	0.006830	0.951260	0.319080
O91	O9	0.841270	0.955330	0.470730
O101	O10	0.778620	0.643120	0.160240
O111	O11	0.990000	0.669810	0.062590
O121	O12	0.937710	0.529200	0.116380
O131	O13	0.133110	0.615730	0.080450
O141	O14	0.312640	0.520720	0.977400
O151	O15	0.058860	0.616340	0.974540
O161	O16	0.660080	0.473580	0.124060
O171	O17	0.777170	0.548740	0.180920
O181	O18	0.767330	0.544670	0.029270
O191	O19	0.421740	0.660240	0.356880
O201	O20	0.659810	0.562590	0.330190
O211	O21	0.466910	0.616380	0.470800
O221	O22	0.748840	0.580450	0.384270
O231	O23	0.833360	0.477400	0.479280
O241	O24	0.675200	0.474540	0.383660
O251	O25	0.133660	0.624060	0.526420
O261	O26	0.325910	0.680920	0.451260
O271	O27	0.312000	0.529270	0.455330
O281	O28	0.938860	0.839760	0.143120
O291	O29	0.052590	0.937410	0.169810
O301	O30	0.054090	0.883620	0.029200
O311	O31	0.213560	0.919550	0.115730
O321	O32	0.290040	0.022600	0.020720
O331	O33	0.033400	0.025460	0.116340
O341	O34	0.784140	0.875940	0.973580
O351	O35	0.958090	0.819080	0.048740
O361	O36	0.796600	0.970730	0.044670
O371	O37	0.918020	0.143120	0.660240
O381	O38	0.777600	0.169810	0.562590
O391	O39	0.916710	0.029200	0.616380
O401	O40	0.670710	0.115730	0.580450
O411	O41	0.689240	0.020720	0.477400
O421	O42	0.850260	0.116340	0.474540
O431	O43	0.242280	0.973580	0.624060
O441	O44	0.993170	0.048740	0.680920
O451	O45	0.158730	0.044670	0.529270
O461	O46	0.221380	0.356880	0.839760
O471	O47	0.010000	0.330190	0.937410
O481	O48	0.062290	0.470800	0.883620
O491	O49	0.866890	0.384270	0.919550
O501	O50	0.687360	0.479280	0.022600
O511	O51	0.941140	0.383660	0.025460
O521	O52	0.339920	0.526420	0.875940
O531	O53	0.222830	0.451260	0.819080
O541	O54	0.232670	0.455330	0.970730
O551	O55	0.578260	0.339760	0.643120
O561	O56	0.340190	0.437410	0.669810
O571	O57	0.533090	0.383620	0.529200
O581	O58	0.251160	0.419550	0.615730
O591	O59	0.166640	0.522600	0.520720
O601	O60	0.324800	0.525460	0.616340
O611	O61	0.866340	0.375940	0.473580
O621	O62	0.674090	0.319080	0.548740
O631	O63	0.688000	0.470730	0.544670
O641	O64	0.061140	0.160240	0.856880
O651	O65	0.947410	0.062590	0.830190
O661	O66	0.945910	0.116380	0.970800
O671	O67	0.786440	0.080450	0.884270
O681	O68	0.709960	0.977400	0.979280
O691	O69	0.966600	0.974540	0.883660
O701	O70	0.215860	0.124060	0.026420
O711	O71	0.041910	0.180920	0.951260
O721	O72	0.203400	0.029270	0.955330
