data_MEHMET_clean_PM
_symmetry_space_group_name_H-M	'P1'
_cell_length_a	34.572600
_cell_length_b	34.572600
_cell_length_c	34.572600
_cell_angle_alpha	60.000000
_cell_angle_beta	60.000000
_cell_angle_gamma	60.000000
_symmetry_Int_Tables_number 1

loop_
_symmetry_equiv_pos_as_xyz
'x,y,z'

loop_
_atom_site_label
_atom_site_type_symbol
_atom_site_fract_x
_atom_site_fract_y
_atom_site_fract_z
Cu11	Cu1	0.770500	0.000000	0.000000
Cu21	Cu2	0.693600	0.000000	0.000000
Cu31	Cu3	0.000000	0.770500	0.229500
Cu41	Cu4	0.000000	0.693600	0.306400
Cu51	Cu5	0.000000	0.229500	0.770500
Cu61	Cu6	0.000000	0.306400	0.693600
Cu71	Cu7	0.229500	0.000000	0.000000
Cu81	Cu8	0.306400	0.000000	0.000000
Cu91	Cu9	0.770500	0.000000	0.229500
Cu101	Cu10	0.693600	0.000000	0.306400
Cu111	Cu11	0.000000	0.229500	0.000000
Cu121	Cu12	0.000000	0.306400	0.000000
Cu131	Cu13	0.000000	0.770500	0.000000
Cu141	Cu14	0.000000	0.693600	0.000000
Cu151	Cu15	0.229500	0.000000	0.770500
Cu161	Cu16	0.306400	0.000000	0.693600
Cu171	Cu17	0.770500	0.229500	0.000000
Cu181	Cu18	0.693600	0.306400	0.000000
Cu191	Cu19	0.000000	0.000000	0.770500
Cu201	Cu20	0.000000	0.000000	0.693600
Cu211	Cu21	0.000000	0.000000	0.229500
Cu221	Cu22	0.000000	0.000000	0.306400
Cu231	Cu23	0.229500	0.770500	0.000000
Cu241	Cu24	0.306400	0.693600	0.000000
H11	H1	0.735600	0.855600	0.024400
H21	H2	0.855600	0.735600	0.384400
H31	H3	0.024400	0.384400	0.735600
H41	H4	0.384400	0.024400	0.855600
H51	H5	0.735600	0.024400	0.384400
H61	H6	0.855600	0.384400	0.024400
H71	H7	0.024400	0.735600	0.855600
H81	H8	0.384400	0.855600	0.735600
H91	H9	0.735600	0.384400	0.855600
H101	H10	0.855600	0.024400	0.735600
H111	H11	0.024400	0.855600	0.384400
H121	H12	0.384400	0.735600	0.024400
H131	H13	0.144400	0.264400	0.975600
H141	H14	0.264400	0.144400	0.615600
H151	H15	0.615600	0.975600	0.264400
H161	H16	0.975600	0.615600	0.144400
H171	H17	0.975600	0.264400	0.615600
H181	H18	0.615600	0.144400	0.975600
H191	H19	0.264400	0.975600	0.144400
H201	H20	0.144400	0.615600	0.264400
H211	H21	0.615600	0.264400	0.144400
H221	H22	0.975600	0.144400	0.264400
H231	H23	0.144400	0.975600	0.615600
H241	H24	0.264400	0.615600	0.975600
H251	H25	0.264400	0.144400	0.975600
H261	H26	0.144400	0.264400	0.615600
H271	H27	0.975600	0.615600	0.264400
H281	H28	0.615600	0.975600	0.144400
H291	H29	0.264400	0.975600	0.615600
H301	H30	0.144400	0.615600	0.975600
H311	H31	0.975600	0.264400	0.144400
H321	H32	0.615600	0.144400	0.264400
H331	H33	0.264400	0.615600	0.144400
H341	H34	0.144400	0.975600	0.264400
H351	H35	0.975600	0.144400	0.615600
H361	H36	0.615600	0.264400	0.975600
H371	H37	0.855600	0.735600	0.024400
H381	H38	0.735600	0.855600	0.384400
H391	H39	0.384400	0.024400	0.735600
H401	H40	0.024400	0.384400	0.855600
H411	H41	0.024400	0.735600	0.384400
H421	H42	0.384400	0.855600	0.024400
H431	H43	0.735600	0.024400	0.855600
H441	H44	0.855600	0.384400	0.735600
H451	H45	0.384400	0.735600	0.855600
H461	H46	0.024400	0.855600	0.735600
H471	H47	0.855600	0.024400	0.384400
H481	H48	0.735600	0.384400	0.024400
H491	H49	0.856700	0.856700	0.010300
H501	H50	0.856700	0.856700	0.276300
H511	H51	0.010300	0.276300	0.856700
H521	H52	0.276300	0.010300	0.856700
H531	H53	0.856700	0.010300	0.276300
H541	H54	0.856700	0.276300	0.010300
H551	H55	0.010300	0.856700	0.856700
H561	H56	0.276300	0.856700	0.856700
H571	H57	0.856700	0.276300	0.856700
H581	H58	0.856700	0.010300	0.856700
H591	H59	0.010300	0.856700	0.276300
H601	H60	0.276300	0.856700	0.010300
H611	H61	0.143300	0.143300	0.989700
H621	H62	0.143300	0.143300	0.723700
H631	H63	0.723700	0.989700	0.143300
H641	H64	0.989700	0.723700	0.143300
H651	H65	0.989700	0.143300	0.723700
H661	H66	0.723700	0.143300	0.989700
H671	H67	0.143300	0.989700	0.143300
H681	H68	0.143300	0.723700	0.143300
H691	H69	0.723700	0.143300	0.143300
H701	H70	0.989700	0.143300	0.143300
H711	H71	0.143300	0.989700	0.723700
H721	H72	0.143300	0.723700	0.989700
H731	H73	0.611600	0.727800	0.049000
H741	H74	0.727800	0.611600	0.611600
H751	H75	0.049000	0.611600	0.611600
H761	H76	0.611600	0.049000	0.727800
H771	H77	0.611600	0.049000	0.611600
H781	H78	0.727800	0.611600	0.049000
H791	H79	0.049000	0.611600	0.727800
H801	H80	0.611600	0.727800	0.611600
H811	H81	0.611600	0.611600	0.727800
H821	H82	0.727800	0.049000	0.611600
H831	H83	0.049000	0.727800	0.611600
H841	H84	0.611600	0.611600	0.049000
H851	H85	0.272200	0.388400	0.951000
H861	H86	0.388400	0.272200	0.388400
H871	H87	0.388400	0.951000	0.388400
H881	H88	0.951000	0.388400	0.272200
H891	H89	0.951000	0.388400	0.388400
H901	H90	0.388400	0.272200	0.951000
H911	H91	0.388400	0.951000	0.272200
H921	H92	0.272200	0.388400	0.388400
H931	H93	0.388400	0.388400	0.272200
H941	H94	0.951000	0.272200	0.388400
H951	H95	0.272200	0.951000	0.388400
H961	H96	0.388400	0.388400	0.951000
C11	C1	0.769160	0.915620	0.011120
C21	C2	0.790890	0.859930	0.022230
C31	C3	0.766220	0.838840	0.026600
C41	C4	0.915620	0.769160	0.304100
C51	C5	0.859930	0.790890	0.326950
C61	C6	0.838840	0.766220	0.368340
C71	C7	0.011120	0.304100	0.769160
C81	C8	0.022230	0.326950	0.790890
C91	C9	0.026600	0.368340	0.766220
C101	C10	0.304100	0.011120	0.915620
C111	C11	0.326950	0.022230	0.859930
C121	C12	0.368340	0.026600	0.838840
C131	C13	0.769160	0.011120	0.304100
C141	C14	0.790890	0.022230	0.326950
C151	C15	0.766220	0.026600	0.368340
C161	C16	0.915620	0.304100	0.011120
C171	C17	0.859930	0.326950	0.022230
C181	C18	0.838840	0.368340	0.026600
C191	C19	0.011120	0.769160	0.915620
C201	C20	0.022230	0.790890	0.859930
C211	C21	0.026600	0.766220	0.838840
C221	C22	0.304100	0.915620	0.769160
C231	C23	0.326950	0.859930	0.790890
C241	C24	0.368340	0.838840	0.766220
C251	C25	0.769160	0.304100	0.915620
C261	C26	0.790890	0.326950	0.859930
C271	C27	0.766220	0.368340	0.838840
C281	C28	0.915620	0.011120	0.769160
C291	C29	0.859930	0.022230	0.790890
C301	C30	0.838840	0.026600	0.766220
C311	C31	0.011120	0.915620	0.304100
C321	C32	0.022230	0.859930	0.326950
C331	C33	0.026600	0.838840	0.368340
C341	C34	0.304100	0.769160	0.011120
C351	C35	0.326950	0.790890	0.022230
C361	C36	0.368340	0.766220	0.026600
C371	C37	0.084380	0.230840	0.988880
C381	C38	0.140070	0.209110	0.977770
C391	C39	0.161160	0.233780	0.973400
C401	C40	0.230840	0.084380	0.695900
C411	C41	0.209110	0.140070	0.673050
C421	C42	0.233780	0.161160	0.631660
C431	C43	0.695900	0.988880	0.230840
C441	C44	0.673050	0.977770	0.209110
C451	C45	0.631660	0.973400	0.233780
C461	C46	0.988880	0.695900	0.084380
C471	C47	0.977770	0.673050	0.140070
C481	C48	0.973400	0.631660	0.161160
C491	C49	0.988880	0.230840	0.695900
C501	C50	0.977770	0.209110	0.673050
C511	C51	0.973400	0.233780	0.631660
C521	C52	0.695900	0.084380	0.988880
C531	C53	0.673050	0.140070	0.977770
C541	C54	0.631660	0.161160	0.973400
C551	C55	0.230840	0.988880	0.084380
C561	C56	0.209110	0.977770	0.140070
C571	C57	0.233780	0.973400	0.161160
C581	C58	0.084380	0.695900	0.230840
C591	C59	0.140070	0.673050	0.209110
C601	C60	0.161160	0.631660	0.233780
C611	C61	0.695900	0.230840	0.084380
C621	C62	0.673050	0.209110	0.140070
C631	C63	0.631660	0.233780	0.161160
C641	C64	0.988880	0.084380	0.230840
C651	C65	0.977770	0.140070	0.209110
C661	C66	0.973400	0.161160	0.233780
C671	C67	0.084380	0.988880	0.695900
C681	C68	0.140070	0.977770	0.673050
C691	C69	0.161160	0.973400	0.631660
C701	C70	0.230840	0.695900	0.988880
C711	C71	0.209110	0.673050	0.977770
C721	C72	0.233780	0.631660	0.973400
C731	C73	0.230840	0.084380	0.988880
C741	C74	0.209110	0.140070	0.977770
C751	C75	0.233780	0.161160	0.973400
C761	C76	0.084380	0.230840	0.695900
C771	C77	0.140070	0.209110	0.673050
C781	C78	0.161160	0.233780	0.631660
C791	C79	0.988880	0.695900	0.230840
C801	C80	0.977770	0.673050	0.209110
C811	C81	0.973400	0.631660	0.233780
C821	C82	0.695900	0.988880	0.084380
C831	C83	0.673050	0.977770	0.140070
C841	C84	0.631660	0.973400	0.161160
C851	C85	0.230840	0.988880	0.695900
C861	C86	0.209110	0.977770	0.673050
C871	C87	0.233780	0.973400	0.631660
C881	C88	0.084380	0.695900	0.988880
C891	C89	0.140070	0.673050	0.977770
C901	C90	0.161160	0.631660	0.973400
C911	C91	0.988880	0.230840	0.084380
C921	C92	0.977770	0.209110	0.140070
C931	C93	0.973400	0.233780	0.161160
C941	C94	0.695900	0.084380	0.230840
C951	C95	0.673050	0.140070	0.209110
C961	C96	0.631660	0.161160	0.233780
C971	C97	0.230840	0.695900	0.084380
C981	C98	0.209110	0.673050	0.140070
C991	C99	0.233780	0.631660	0.161160
C1001	C100	0.084380	0.988880	0.230840
C1011	C101	0.140070	0.977770	0.209110
C1021	C102	0.161160	0.973400	0.233780
C1031	C103	0.988880	0.084380	0.695900
C1041	C104	0.977770	0.140070	0.673050
C1051	C105	0.973400	0.161160	0.631660
C1061	C106	0.695900	0.230840	0.988880
C1071	C107	0.673050	0.209110	0.977770
C1081	C108	0.631660	0.233780	0.973400
C1091	C109	0.915620	0.769160	0.011120
C1101	C110	0.859930	0.790890	0.022230
C1111	C111	0.838840	0.766220	0.026600
C1121	C112	0.769160	0.915620	0.304100
C1131	C113	0.790890	0.859930	0.326950
C1141	C114	0.766220	0.838840	0.368340
C1151	C115	0.304100	0.011120	0.769160
C1161	C116	0.326950	0.022230	0.790890
C1171	C117	0.368340	0.026600	0.766220
C1181	C118	0.011120	0.304100	0.915620
C1191	C119	0.022230	0.326950	0.859930
C1201	C120	0.026600	0.368340	0.838840
C1211	C121	0.011120	0.769160	0.304100
C1221	C122	0.022230	0.790890	0.326950
C1231	C123	0.026600	0.766220	0.368340
C1241	C124	0.304100	0.915620	0.011120
C1251	C125	0.326950	0.859930	0.022230
C1261	C126	0.368340	0.838840	0.026600
C1271	C127	0.769160	0.011120	0.915620
C1281	C128	0.790890	0.022230	0.859930
C1291	C129	0.766220	0.026600	0.838840
C1301	C130	0.915620	0.304100	0.769160
C1311	C131	0.859930	0.326950	0.790890
C1321	C132	0.838840	0.368340	0.766220
C1331	C133	0.304100	0.769160	0.915620
C1341	C134	0.326950	0.790890	0.859930
C1351	C135	0.368340	0.766220	0.838840
C1361	C136	0.011120	0.915620	0.769160
C1371	C137	0.022230	0.859930	0.790890
C1381	C138	0.026600	0.838840	0.766220
C1391	C139	0.915620	0.011120	0.304100
C1401	C140	0.859930	0.022230	0.326950
C1411	C141	0.838840	0.026600	0.368340
C1421	C142	0.769160	0.304100	0.011120
C1431	C143	0.790890	0.326950	0.022230
C1441	C144	0.766220	0.368340	0.026600
C1451	C145	0.839080	0.839080	0.017040
C1461	C146	0.787900	0.787900	0.035100
C1471	C147	0.762500	0.762500	0.037180
C1481	C148	0.740500	0.740500	0.045100
C1491	C149	0.717600	0.717600	0.045600
C1501	C150	0.695500	0.695500	0.053300
C1511	C151	0.670700	0.670700	0.055900
C1521	C152	0.839080	0.839080	0.304800
C1531	C153	0.787900	0.787900	0.389100
C1541	C154	0.762500	0.762500	0.437820
C1551	C155	0.740500	0.740500	0.473900
C1561	C156	0.717600	0.717600	0.519200
C1571	C157	0.695500	0.695500	0.555700
C1581	C158	0.670700	0.670700	0.602700
C1591	C159	0.017040	0.304800	0.839080
C1601	C160	0.035100	0.389100	0.787900
C1611	C161	0.037180	0.437820	0.762500
C1621	C162	0.045100	0.473900	0.740500
C1631	C163	0.045600	0.519200	0.717600
C1641	C164	0.053300	0.555700	0.695500
C1651	C165	0.055900	0.602700	0.670700
C1661	C166	0.304800	0.017040	0.839080
C1671	C167	0.389100	0.035100	0.787900
C1681	C168	0.437820	0.037180	0.762500
C1691	C169	0.473900	0.045100	0.740500
C1701	C170	0.519200	0.045600	0.717600
C1711	C171	0.555700	0.053300	0.695500
C1721	C172	0.602700	0.055900	0.670700
C1731	C173	0.839080	0.017040	0.304800
C1741	C174	0.787900	0.035100	0.389100
C1751	C175	0.762500	0.037180	0.437820
C1761	C176	0.740500	0.045100	0.473900
C1771	C177	0.717600	0.045600	0.519200
C1781	C178	0.695500	0.053300	0.555700
C1791	C179	0.670700	0.055900	0.602700
C1801	C180	0.839080	0.304800	0.017040
C1811	C181	0.787900	0.389100	0.035100
C1821	C182	0.762500	0.437820	0.037180
C1831	C183	0.740500	0.473900	0.045100
C1841	C184	0.717600	0.519200	0.045600
C1851	C185	0.695500	0.555700	0.053300
C1861	C186	0.670700	0.602700	0.055900
C1871	C187	0.017040	0.839080	0.839080
C1881	C188	0.035100	0.787900	0.787900
C1891	C189	0.037180	0.762500	0.762500
C1901	C190	0.045100	0.740500	0.740500
C1911	C191	0.045600	0.717600	0.717600
C1921	C192	0.053300	0.695500	0.695500
C1931	C193	0.055900	0.670700	0.670700
C1941	C194	0.304800	0.839080	0.839080
C1951	C195	0.389100	0.787900	0.787900
C1961	C196	0.437820	0.762500	0.762500
C1971	C197	0.473900	0.740500	0.740500
C1981	C198	0.519200	0.717600	0.717600
C1991	C199	0.555700	0.695500	0.695500
C2001	C200	0.602700	0.670700	0.670700
C2011	C201	0.839080	0.304800	0.839080
C2021	C202	0.787900	0.389100	0.787900
C2031	C203	0.762500	0.437820	0.762500
C2041	C204	0.740500	0.473900	0.740500
C2051	C205	0.717600	0.519200	0.717600
C2061	C206	0.695500	0.555700	0.695500
C2071	C207	0.670700	0.602700	0.670700
C2081	C208	0.839080	0.017040	0.839080
C2091	C209	0.787900	0.035100	0.787900
C2101	C210	0.762500	0.037180	0.762500
C2111	C211	0.740500	0.045100	0.740500
C2121	C212	0.717600	0.045600	0.717600
C2131	C213	0.695500	0.053300	0.695500
C2141	C214	0.670700	0.055900	0.670700
C2151	C215	0.017040	0.839080	0.304800
C2161	C216	0.035100	0.787900	0.389100
C2171	C217	0.037180	0.762500	0.437820
C2181	C218	0.045100	0.740500	0.473900
C2191	C219	0.045600	0.717600	0.519200
C2201	C220	0.053300	0.695500	0.555700
C2211	C221	0.055900	0.670700	0.602700
C2221	C222	0.304800	0.839080	0.017040
C2231	C223	0.389100	0.787900	0.035100
C2241	C224	0.437820	0.762500	0.037180
C2251	C225	0.473900	0.740500	0.045100
C2261	C226	0.519200	0.717600	0.045600
C2271	C227	0.555700	0.695500	0.053300
C2281	C228	0.602700	0.670700	0.055900
C2291	C229	0.160920	0.160920	0.982960
C2301	C230	0.212100	0.212100	0.964900
C2311	C231	0.237500	0.237500	0.962820
C2321	C232	0.259500	0.259500	0.954900
C2331	C233	0.282400	0.282400	0.954400
C2341	C234	0.304500	0.304500	0.946700
C2351	C235	0.329300	0.329300	0.944100
C2361	C236	0.160920	0.160920	0.695200
C2371	C237	0.212100	0.212100	0.610900
C2381	C238	0.237500	0.237500	0.562180
C2391	C239	0.259500	0.259500	0.526100
C2401	C240	0.282400	0.282400	0.480800
C2411	C241	0.304500	0.304500	0.444300
C2421	C242	0.329300	0.329300	0.397300
C2431	C243	0.695200	0.982960	0.160920
C2441	C244	0.610900	0.964900	0.212100
C2451	C245	0.562180	0.962820	0.237500
C2461	C246	0.526100	0.954900	0.259500
C2471	C247	0.480800	0.954400	0.282400
C2481	C248	0.444300	0.946700	0.304500
C2491	C249	0.397300	0.944100	0.329300
C2501	C250	0.982960	0.695200	0.160920
C2511	C251	0.964900	0.610900	0.212100
C2521	C252	0.962820	0.562180	0.237500
C2531	C253	0.954900	0.526100	0.259500
C2541	C254	0.954400	0.480800	0.282400
C2551	C255	0.946700	0.444300	0.304500
C2561	C256	0.944100	0.397300	0.329300
C2571	C257	0.982960	0.160920	0.695200
C2581	C258	0.964900	0.212100	0.610900
C2591	C259	0.962820	0.237500	0.562180
C2601	C260	0.954900	0.259500	0.526100
C2611	C261	0.954400	0.282400	0.480800
C2621	C262	0.946700	0.304500	0.444300
C2631	C263	0.944100	0.329300	0.397300
C2641	C264	0.695200	0.160920	0.982960
C2651	C265	0.610900	0.212100	0.964900
C2661	C266	0.562180	0.237500	0.962820
C2671	C267	0.526100	0.259500	0.954900
C2681	C268	0.480800	0.282400	0.954400
C2691	C269	0.444300	0.304500	0.946700
C2701	C270	0.397300	0.329300	0.944100
C2711	C271	0.160920	0.982960	0.160920
C2721	C272	0.212100	0.964900	0.212100
C2731	C273	0.237500	0.962820	0.237500
C2741	C274	0.259500	0.954900	0.259500
C2751	C275	0.282400	0.954400	0.282400
C2761	C276	0.304500	0.946700	0.304500
C2771	C277	0.329300	0.944100	0.329300
C2781	C278	0.160920	0.695200	0.160920
C2791	C279	0.212100	0.610900	0.212100
C2801	C280	0.237500	0.562180	0.237500
C2811	C281	0.259500	0.526100	0.259500
C2821	C282	0.282400	0.480800	0.282400
C2831	C283	0.304500	0.444300	0.304500
C2841	C284	0.329300	0.397300	0.329300
C2851	C285	0.695200	0.160920	0.160920
C2861	C286	0.610900	0.212100	0.212100
C2871	C287	0.562180	0.237500	0.237500
C2881	C288	0.526100	0.259500	0.259500
C2891	C289	0.480800	0.282400	0.282400
C2901	C290	0.444300	0.304500	0.304500
C2911	C291	0.397300	0.329300	0.329300
C2921	C292	0.982960	0.160920	0.160920
C2931	C293	0.964900	0.212100	0.212100
C2941	C294	0.962820	0.237500	0.237500
C2951	C295	0.954900	0.259500	0.259500
C2961	C296	0.954400	0.282400	0.282400
C2971	C297	0.946700	0.304500	0.304500
C2981	C298	0.944100	0.329300	0.329300
C2991	C299	0.160920	0.982960	0.695200
C3001	C300	0.212100	0.964900	0.610900
C3011	C301	0.237500	0.962820	0.562180
C3021	C302	0.259500	0.954900	0.526100
C3031	C303	0.282400	0.954400	0.480800
C3041	C304	0.304500	0.946700	0.444300
C3051	C305	0.329300	0.944100	0.397300
C3061	C306	0.160920	0.695200	0.982960
C3071	C307	0.212100	0.610900	0.964900
C3081	C308	0.237500	0.562180	0.962820
C3091	C309	0.259500	0.526100	0.954900
C3101	C310	0.282400	0.480800	0.954400
C3111	C311	0.304500	0.444300	0.946700
C3121	C312	0.329300	0.397300	0.944100
C3131	C313	0.625900	0.695300	0.052900
C3141	C314	0.695300	0.625900	0.625900
C3151	C315	0.052900	0.625900	0.625900
C3161	C316	0.625900	0.052900	0.695300
C3171	C317	0.625900	0.052900	0.625900
C3181	C318	0.695300	0.625900	0.052900
C3191	C319	0.052900	0.625900	0.695300
C3201	C320	0.625900	0.695300	0.625900
C3211	C321	0.625900	0.625900	0.695300
C3221	C322	0.695300	0.052900	0.625900
C3231	C323	0.052900	0.695300	0.625900
C3241	C324	0.625900	0.625900	0.052900
C3251	C325	0.304700	0.374100	0.947100
C3261	C326	0.374100	0.304700	0.374100
C3271	C327	0.374100	0.947100	0.374100
C3281	C328	0.947100	0.374100	0.304700
C3291	C329	0.947100	0.374100	0.374100
C3301	C330	0.374100	0.304700	0.947100
C3311	C331	0.374100	0.947100	0.304700
C3321	C332	0.304700	0.374100	0.374100
C3331	C333	0.374100	0.374100	0.304700
C3341	C334	0.947100	0.304700	0.374100
C3351	C335	0.304700	0.947100	0.374100
C3361	C336	0.374100	0.374100	0.947100
O11	O1	0.792380	0.932620	0.011220
O21	O2	0.727920	0.931520	0.010860
O31	O3	0.932620	0.792380	0.263780
O41	O4	0.931520	0.727920	0.329700
O51	O5	0.011220	0.263780	0.792380
O61	O6	0.010860	0.329700	0.727920
O71	O7	0.263780	0.011220	0.932620
O81	O8	0.329700	0.010860	0.931520
O91	O9	0.792380	0.011220	0.263780
O101	O10	0.727920	0.010860	0.329700
O111	O11	0.932620	0.263780	0.011220
O121	O12	0.931520	0.329700	0.010860
O131	O13	0.011220	0.792380	0.932620
O141	O14	0.010860	0.727920	0.931520
O151	O15	0.263780	0.932620	0.792380
O161	O16	0.329700	0.931520	0.727920
O171	O17	0.792380	0.263780	0.932620
O181	O18	0.727920	0.329700	0.931520
O191	O19	0.932620	0.011220	0.792380
O201	O20	0.931520	0.010860	0.727920
O211	O21	0.011220	0.932620	0.263780
O221	O22	0.010860	0.931520	0.329700
O231	O23	0.263780	0.792380	0.011220
O241	O24	0.329700	0.727920	0.010860
O251	O25	0.067380	0.207620	0.988780
O261	O26	0.068480	0.272080	0.989140
O271	O27	0.207620	0.067380	0.736220
O281	O28	0.272080	0.068480	0.670300
O291	O29	0.736220	0.988780	0.207620
O301	O30	0.670300	0.989140	0.272080
O311	O31	0.988780	0.736220	0.067380
O321	O32	0.989140	0.670300	0.068480
O331	O33	0.988780	0.207620	0.736220
O341	O34	0.989140	0.272080	0.670300
O351	O35	0.736220	0.067380	0.988780
O361	O36	0.670300	0.068480	0.989140
O371	O37	0.207620	0.988780	0.067380
O381	O38	0.272080	0.989140	0.068480
O391	O39	0.067380	0.736220	0.207620
O401	O40	0.068480	0.670300	0.272080
O411	O41	0.736220	0.207620	0.067380
O421	O42	0.670300	0.272080	0.068480
O431	O43	0.988780	0.067380	0.207620
O441	O44	0.989140	0.068480	0.272080
O451	O45	0.067380	0.988780	0.736220
O461	O46	0.068480	0.989140	0.670300
O471	O47	0.207620	0.736220	0.988780
O481	O48	0.272080	0.670300	0.989140
O491	O49	0.207620	0.067380	0.988780
O501	O50	0.272080	0.068480	0.989140
O511	O51	0.067380	0.207620	0.736220
O521	O52	0.068480	0.272080	0.670300
O531	O53	0.988780	0.736220	0.207620
O541	O54	0.989140	0.670300	0.272080
O551	O55	0.736220	0.988780	0.067380
O561	O56	0.670300	0.989140	0.068480
O571	O57	0.207620	0.988780	0.736220
O581	O58	0.272080	0.989140	0.670300
O591	O59	0.067380	0.736220	0.988780
O601	O60	0.068480	0.670300	0.989140
O611	O61	0.988780	0.207620	0.067380
O621	O62	0.989140	0.272080	0.068480
O631	O63	0.736220	0.067380	0.207620
O641	O64	0.670300	0.068480	0.272080
O651	O65	0.207620	0.736220	0.067380
O661	O66	0.272080	0.670300	0.068480
O671	O67	0.067380	0.988780	0.207620
O681	O68	0.068480	0.989140	0.272080
O691	O69	0.988780	0.067380	0.736220
O701	O70	0.989140	0.068480	0.670300
O711	O71	0.736220	0.207620	0.988780
O721	O72	0.670300	0.272080	0.989140
O731	O73	0.932620	0.792380	0.011220
O741	O74	0.931520	0.727920	0.010860
O751	O75	0.792380	0.932620	0.263780
O761	O76	0.727920	0.931520	0.329700
O771	O77	0.263780	0.011220	0.792380
O781	O78	0.329700	0.010860	0.727920
O791	O79	0.011220	0.263780	0.932620
O801	O80	0.010860	0.329700	0.931520
O811	O81	0.011220	0.792380	0.263780
O821	O82	0.010860	0.727920	0.329700
O831	O83	0.263780	0.932620	0.011220
O841	O84	0.329700	0.931520	0.010860
O851	O85	0.792380	0.011220	0.932620
O861	O86	0.727920	0.010860	0.931520
O871	O87	0.932620	0.263780	0.792380
O881	O88	0.931520	0.329700	0.727920
O891	O89	0.263780	0.792380	0.932620
O901	O90	0.329700	0.727920	0.931520
O911	O91	0.011220	0.932620	0.792380
O921	O92	0.010860	0.931520	0.727920
O931	O93	0.932620	0.011220	0.263780
O941	O94	0.931520	0.010860	0.329700
O951	O95	0.792380	0.263780	0.011220
O961	O96	0.727920	0.329700	0.010860
