data_MEHPAQ_clean_PM
_symmetry_space_group_name_H-M	'P1'
_cell_length_a	7.221400
_cell_length_b	10.295000
_cell_length_c	11.041000
_cell_angle_alpha	90.000000
_cell_angle_beta	90.000000
_cell_angle_gamma	90.000000
_symmetry_Int_Tables_number 1

loop_
_symmetry_equiv_pos_as_xyz
'x,y,z'

loop_
_atom_site_label
_atom_site_type_symbol
_atom_site_fract_x
_atom_site_fract_y
_atom_site_fract_z
Cu11	Cu1	0.399400	0.933030	0.029270
Cu21	Cu2	0.100600	0.066970	0.529270
H11	H1	0.330200	0.715200	0.770800
H21	H2	0.320100	0.964500	0.813000
H31	H3	0.183200	0.864100	0.867400
H41	H4	0.505900	0.883700	0.642700
H51	H5	0.611500	0.765400	0.673500
H61	H6	0.666100	0.977700	0.810800
H71	H7	0.770700	0.847000	0.813300
H81	H8	0.169800	0.284800	0.270800
H91	H9	0.179900	0.035500	0.313000
H101	H10	0.316800	0.135900	0.367400
H111	H11	0.994100	0.116300	0.142700
H121	H12	0.888500	0.234600	0.173500
H131	H13	0.833900	0.022300	0.310800
H141	H14	0.729300	0.153000	0.313300
C11	C1	0.528000	0.716300	0.910100
C21	C2	0.421100	0.783400	0.810100
C31	C3	0.549500	0.832200	0.712000
C41	C4	0.708000	0.918200	0.756200
C51	C5	0.827000	0.967600	0.654100
C61	C6	0.972000	0.283700	0.410100
C71	C7	0.078900	0.216600	0.310100
C81	C8	0.950500	0.167800	0.212000
C91	C9	0.792000	0.081800	0.256200
C101	C10	0.673000	0.032400	0.154100
N11	N1	0.308600	0.890900	0.862900
N21	N2	0.191400	0.109100	0.362900
O11	O1	0.518600	0.762700	0.016900
O21	O2	0.624600	0.620300	0.881400
O31	O3	0.975100	0.029100	0.684400
O41	O4	0.785100	0.949900	0.547000
O51	O5	0.981400	0.237300	0.516900
O61	O6	0.875400	0.379700	0.381400
O71	O7	0.524900	0.970900	0.184400
O81	O8	0.714900	0.050100	0.047000
Cu31	Cu3	0.600600	0.433030	0.470730
Cu41	Cu4	0.899400	0.566970	0.970730
H151	H15	0.669800	0.215200	0.729200
H161	H16	0.679900	0.464500	0.687000
H171	H17	0.816800	0.364100	0.632600
H181	H18	0.494100	0.383700	0.857300
H191	H19	0.388500	0.265400	0.826500
H201	H20	0.333900	0.477700	0.689200
H211	H21	0.229300	0.347000	0.686700
H221	H22	0.830200	0.784800	0.229200
H231	H23	0.820100	0.535500	0.187000
H241	H24	0.683200	0.635900	0.132600
H251	H25	0.005900	0.616300	0.357300
H261	H26	0.111500	0.734600	0.326500
H271	H27	0.166100	0.522300	0.189200
H281	H28	0.270700	0.653000	0.186700
C111	C11	0.472000	0.216300	0.589900
C121	C12	0.578900	0.283400	0.689900
C131	C13	0.450500	0.332200	0.788000
C141	C14	0.292000	0.418200	0.743800
C151	C15	0.173000	0.467600	0.845900
C161	C16	0.028000	0.783700	0.089900
C171	C17	0.921100	0.716600	0.189900
C181	C18	0.049500	0.667800	0.288000
C191	C19	0.208000	0.581800	0.243800
C201	C20	0.327000	0.532400	0.345900
N31	N3	0.691400	0.390900	0.637100
N41	N4	0.808600	0.609100	0.137100
O91	O9	0.481400	0.262700	0.483100
O101	O10	0.375400	0.120300	0.618600
O111	O11	0.024900	0.529100	0.815600
O121	O12	0.214900	0.449900	0.953000
O131	O13	0.018600	0.737300	0.983100
O141	O14	0.124600	0.879700	0.118600
O151	O15	0.475100	0.470900	0.315600
O161	O16	0.285100	0.550100	0.453000
