data_MEJQEZ_clean_PM
_symmetry_space_group_name_H-M	'P1'
_cell_length_a	8.799200
_cell_length_b	10.269600
_cell_length_c	18.624400
_cell_angle_alpha	90.000000
_cell_angle_beta	90.000000
_cell_angle_gamma	90.000000
_symmetry_Int_Tables_number 1

loop_
_symmetry_equiv_pos_as_xyz
'x,y,z'

loop_
_atom_site_label
_atom_site_type_symbol
_atom_site_fract_x
_atom_site_fract_y
_atom_site_fract_z
Zn11	Zn1	0.133110	0.026430	0.599170
Zn21	Zn2	0.633110	0.973570	0.400830
Zn31	Zn3	0.133110	0.473570	0.099170
Zn41	Zn4	0.633110	0.526430	0.900830
H11	H1	0.832800	0.962900	0.528000
H21	H2	0.235900	0.371000	0.387900
H31	H3	0.825100	0.296500	0.266200
H41	H4	0.737700	0.195200	0.305900
H51	H5	0.957600	0.689100	0.707600
H61	H6	0.846400	0.542500	0.784600
H71	H7	0.607200	0.818500	0.874900
H81	H8	0.708100	0.970500	0.798300
H91	H9	0.332800	0.037100	0.472000
H101	H10	0.735900	0.629000	0.612100
H111	H11	0.325100	0.703500	0.733800
H121	H12	0.237700	0.804800	0.694100
H131	H13	0.457600	0.310900	0.292400
H141	H14	0.346400	0.457500	0.215400
H151	H15	0.107200	0.181500	0.125100
H161	H16	0.208100	0.029500	0.201700
H171	H17	0.832800	0.537100	0.028000
H181	H18	0.235900	0.129000	0.887900
H191	H19	0.825100	0.203500	0.766200
H201	H20	0.737700	0.304800	0.805900
H211	H21	0.957600	0.810900	0.207600
H221	H22	0.846400	0.957500	0.284600
H231	H23	0.607200	0.681500	0.374900
H241	H24	0.708100	0.529500	0.298300
H251	H25	0.332800	0.462900	0.972000
H261	H26	0.735900	0.871000	0.112100
H271	H27	0.325100	0.796500	0.233800
H281	H28	0.237700	0.695200	0.194100
H291	H29	0.457600	0.189100	0.792400
H301	H30	0.346400	0.042500	0.715400
H311	H31	0.107200	0.318500	0.625100
H321	H32	0.208100	0.470500	0.701700
C11	C1	0.878100	0.026400	0.499500
C21	C2	0.153200	0.316600	0.396070
C31	C3	0.923400	0.242400	0.353220
C41	C4	0.919000	0.160100	0.413680
C51	C5	0.038000	0.167400	0.462190
C61	C6	0.913400	0.944200	0.693110
C71	C7	0.886100	0.717100	0.740940
C81	C8	0.844800	0.847000	0.744380
C91	C9	0.819900	0.630000	0.787660
C101	C10	0.678200	0.792700	0.840700
C111	C11	0.738500	0.883900	0.795100
C121	C12	0.378100	0.973600	0.500500
C131	C13	0.653200	0.683400	0.603930
C141	C14	0.423400	0.757600	0.646780
C151	C15	0.419000	0.839900	0.586320
C161	C16	0.538000	0.832600	0.537810
C171	C17	0.413400	0.055800	0.306890
C181	C18	0.386100	0.282900	0.259060
C191	C19	0.344800	0.153000	0.255620
C201	C20	0.319900	0.370000	0.212340
C211	C21	0.178200	0.207300	0.159300
C221	C22	0.238500	0.116100	0.204900
C231	C23	0.878100	0.473600	0.999500
C241	C24	0.153200	0.183400	0.896070
C251	C25	0.923400	0.257600	0.853220
C261	C26	0.919000	0.339900	0.913680
C271	C27	0.038000	0.332600	0.962190
C281	C28	0.913400	0.555800	0.193110
C291	C29	0.886100	0.782900	0.240940
C301	C30	0.844800	0.653000	0.244380
C311	C31	0.819900	0.870000	0.287660
C321	C32	0.678200	0.707300	0.340700
C331	C33	0.738500	0.616100	0.295100
C341	C34	0.378100	0.526400	0.000500
C351	C35	0.653200	0.816600	0.103930
C361	C36	0.423400	0.742400	0.146780
C371	C37	0.419000	0.660100	0.086320
C381	C38	0.538000	0.667400	0.037810
C391	C39	0.413400	0.444200	0.806890
C401	C40	0.386100	0.217100	0.759060
C411	C41	0.344800	0.347000	0.755620
C421	C42	0.319900	0.130000	0.712340
C431	C43	0.178200	0.292700	0.659300
C441	C44	0.238500	0.383900	0.704900
N11	N1	0.010200	0.081800	0.517050
N21	N2	0.160700	0.245300	0.455750
N31	N3	0.815500	0.068000	0.438570
N41	N4	0.044400	0.321300	0.346280
N51	N5	0.815900	0.245000	0.302400
N61	N6	0.719400	0.666500	0.837030
N71	N7	0.510200	0.918200	0.482950
N81	N8	0.660700	0.754700	0.544250
N91	N9	0.315500	0.932000	0.561430
N101	N10	0.544400	0.678700	0.653720
N111	N11	0.315900	0.755000	0.697600
N121	N12	0.219400	0.333500	0.162970
N131	N13	0.010200	0.418200	0.017050
N141	N14	0.160700	0.254700	0.955750
N151	N15	0.815500	0.432000	0.938570
N161	N16	0.044400	0.178700	0.846280
N171	N17	0.815900	0.255000	0.802400
N181	N18	0.719400	0.833500	0.337030
N191	N19	0.510200	0.581800	0.982950
N201	N20	0.660700	0.745300	0.044250
N211	N21	0.315500	0.568000	0.061430
N221	N22	0.544400	0.821300	0.153720
N231	N23	0.315900	0.745000	0.197600
N241	N24	0.219400	0.166500	0.662970
O11	O1	0.032700	0.901900	0.660770
O21	O2	0.857000	0.051400	0.685060
O31	O3	0.532700	0.098100	0.339230
O41	O4	0.357000	0.948600	0.314940
O51	O5	0.032700	0.598100	0.160770
O61	O6	0.857000	0.448600	0.185060
O71	O7	0.532700	0.401900	0.839230
O81	O8	0.357000	0.551400	0.814940
