data_MEQHUL_clean_PM
_symmetry_space_group_name_H-M	'P1'
_cell_length_a	15.123000
_cell_length_b	12.305000
_cell_length_c	19.264000
_cell_angle_alpha	90.000000
_cell_angle_beta	98.620000
_cell_angle_gamma	90.000000
_symmetry_Int_Tables_number 1

loop_
_symmetry_equiv_pos_as_xyz
'x,y,z'

loop_
_atom_site_label
_atom_site_type_symbol
_atom_site_fract_x
_atom_site_fract_y
_atom_site_fract_z
Mo11	Mo1	0.482600	0.395800	0.676600
Mo21	Mo2	0.376400	0.492700	0.576000
Mo31	Mo3	0.251400	0.341700	0.442800
Mo41	Mo4	0.262000	0.130500	0.443900
Mo51	Mo5	0.400000	0.996400	0.579000
Mo61	Mo6	0.493700	0.111000	0.680900
Mo71	Mo7	0.502300	0.392700	0.322000
Mo81	Mo8	0.593500	0.505000	0.419100
Mo91	Mo9	0.735100	0.369200	0.559100
Mo101	Mo10	0.744700	0.159400	0.561000
Mo111	Mo11	0.614900	0.000400	0.425200
Mo121	Mo12	0.515300	0.103100	0.324400
P11	P1	0.305000	0.241000	0.610000
P21	P2	0.465000	0.249000	0.823000
P31	P3	0.161000	0.514000	0.541000
P41	P4	0.183000	0.952000	0.548000
P51	P5	0.700000	0.262000	0.394000
P61	P6	0.533000	0.242000	0.178000
P71	P7	0.810000	0.556000	0.458000
P81	P8	0.838000	0.977000	0.462000
Cd11	Cd1	0.500000	0.245700	0.500000
Cd21	Cd2	0.500400	0.251000	0.000600
O11	O1	0.364000	0.470000	0.671000
O21	O2	0.479000	0.391000	0.570000
O31	O3	0.464000	0.356000	0.780000
O41	O4	0.560000	0.254000	0.683000
O51	O5	0.386000	0.249000	0.663000
O61	O6	0.344000	0.461000	0.466000
O71	O7	0.255000	0.569000	0.561000
O81	O8	0.297000	0.341000	0.566000
O91	O9	0.350000	0.248000	0.444000
O101	O10	0.171000	0.250000	0.468000
O111	O11	0.161000	0.444000	0.474000
O121	O12	0.310000	0.145000	0.560000
O131	O13	0.184000	0.007000	0.472000
O141	O14	0.361000	0.018000	0.475000
O151	O15	0.391000	0.013000	0.680000
O161	O16	0.278000	0.922000	0.581000
O171	O17	0.492000	0.116000	0.579000
O181	O18	0.474000	0.158000	0.778000
O191	O19	0.603000	0.259000	0.347000
O201	O20	0.610000	0.476000	0.324000
O211	O21	0.508000	0.392000	0.425000
O221	O22	0.430000	0.239000	0.323000
O231	O23	0.521000	0.354000	0.219000
O241	O24	0.696000	0.366000	0.441000
O251	O25	0.626000	0.482000	0.535000
O261	O26	0.714000	0.590000	0.432000
O271	O27	0.637000	0.263000	0.558000
O281	O28	0.817000	0.491000	0.523000
O291	O29	0.826000	0.266000	0.541000
O301	O30	0.646000	0.028000	0.534000
O311	O31	0.832000	0.045000	0.529000
O321	O32	0.704000	0.160000	0.446000
O331	O33	0.748000	0.943000	0.430000
O341	O34	0.524000	0.112000	0.423000
O351	O35	0.622000	0.028000	0.324000
O361	O36	0.512000	0.147000	0.221000
O371	O37	0.214000	0.225000	0.642000
O381	O38	0.531000	0.248000	0.891000
O391	O39	0.363000	0.243000	0.837000
O401	O40	0.140000	0.445000	0.605000
O411	O41	0.094000	0.609000	0.528000
O421	O42	0.121000	0.857000	0.547000
O431	O43	0.143000	0.032000	0.594000
O441	O44	0.774000	0.263000	0.355000
O451	O45	0.474000	0.236000	0.112000
O461	O46	0.634000	0.242000	0.162000
O471	O47	0.842000	0.475000	0.397000
O481	O48	0.867000	0.655000	0.467000
O491	O49	0.866000	0.070000	0.407000
O501	O50	0.916000	0.910000	0.469000
Mo131	Mo13	0.982600	0.604200	0.176600
Mo141	Mo14	0.876400	0.507300	0.076000
Mo151	Mo15	0.751400	0.658300	0.942800
Mo161	Mo16	0.762000	0.869500	0.943900
Mo171	Mo17	0.900000	0.003600	0.079000
Mo181	Mo18	0.993700	0.889000	0.180900
Mo191	Mo19	0.002300	0.607300	0.822000
Mo201	Mo20	0.093500	0.495000	0.919100
Mo211	Mo21	0.235100	0.630800	0.059100
Mo221	Mo22	0.244700	0.840600	0.061000
Mo231	Mo23	0.114900	0.999600	0.925200
Mo241	Mo24	0.015300	0.896900	0.824400
P91	P9	0.805000	0.759000	0.110000
P101	P10	0.965000	0.751000	0.323000
P111	P11	0.661000	0.486000	0.041000
P121	P12	0.683000	0.048000	0.048000
P131	P13	0.200000	0.738000	0.894000
P141	P14	0.033000	0.758000	0.678000
P151	P15	0.310000	0.444000	0.958000
P161	P16	0.338000	0.023000	0.962000
Cd31	Cd3	0.000000	0.754300	0.000000
Cd41	Cd4	0.000400	0.749000	0.500600
O511	O51	0.864000	0.530000	0.171000
O521	O52	0.979000	0.609000	0.070000
O531	O53	0.964000	0.644000	0.280000
O541	O54	0.060000	0.746000	0.183000
O551	O55	0.886000	0.751000	0.163000
O561	O56	0.844000	0.539000	0.966000
O571	O57	0.755000	0.431000	0.061000
O581	O58	0.797000	0.659000	0.066000
O591	O59	0.850000	0.752000	0.944000
O601	O60	0.671000	0.750000	0.968000
O611	O61	0.661000	0.556000	0.974000
O621	O62	0.810000	0.855000	0.060000
O631	O63	0.684000	0.993000	0.972000
O641	O64	0.861000	0.982000	0.975000
O651	O65	0.891000	0.987000	0.180000
O661	O66	0.778000	0.078000	0.081000
O671	O67	0.992000	0.884000	0.079000
O681	O68	0.974000	0.842000	0.278000
O691	O69	0.103000	0.741000	0.847000
O701	O70	0.110000	0.524000	0.824000
O711	O71	0.008000	0.608000	0.925000
O721	O72	0.930000	0.761000	0.823000
O731	O73	0.021000	0.646000	0.719000
O741	O74	0.196000	0.634000	0.941000
O751	O75	0.126000	0.518000	0.035000
O761	O76	0.214000	0.410000	0.932000
O771	O77	0.137000	0.737000	0.058000
O781	O78	0.317000	0.509000	0.023000
O791	O79	0.326000	0.734000	0.041000
O801	O80	0.146000	0.972000	0.034000
O811	O81	0.332000	0.955000	0.029000
O821	O82	0.204000	0.840000	0.946000
O831	O83	0.248000	0.057000	0.930000
O841	O84	0.024000	0.888000	0.923000
O851	O85	0.122000	0.972000	0.824000
O861	O86	0.012000	0.853000	0.721000
O871	O87	0.714000	0.775000	0.142000
O881	O88	0.031000	0.752000	0.391000
O891	O89	0.863000	0.757000	0.337000
O901	O90	0.640000	0.555000	0.105000
O911	O91	0.594000	0.391000	0.028000
O921	O92	0.621000	0.143000	0.047000
O931	O93	0.643000	0.968000	0.094000
O941	O94	0.274000	0.737000	0.855000
O951	O95	0.974000	0.764000	0.612000
O961	O96	0.134000	0.758000	0.662000
O971	O97	0.342000	0.525000	0.897000
O981	O98	0.367000	0.345000	0.967000
O991	O99	0.366000	0.930000	0.907000
O1001	O100	0.416000	0.090000	0.969000
