data_MEXDAU01_clean_PM
_symmetry_space_group_name_H-M	'P1'
_cell_length_a	8.455700
_cell_length_b	9.284400
_cell_length_c	13.859900
_cell_angle_alpha	81.114000
_cell_angle_beta	83.642000
_cell_angle_gamma	72.626000
_symmetry_Int_Tables_number 1

loop_
_symmetry_equiv_pos_as_xyz
'x,y,z'

loop_
_atom_site_label
_atom_site_type_symbol
_atom_site_fract_x
_atom_site_fract_y
_atom_site_fract_z
Zn11	Zn1	0.293670	0.918300	0.519460
Zn21	Zn2	0.745560	0.493700	0.973010
Zn31	Zn3	0.637790	0.887880	0.125870
P11	P1	0.581140	0.217100	0.019960
P21	P2	0.584700	0.864610	0.363970
P31	P3	0.904600	0.566290	0.148740
P41	P4	0.016900	0.207930	0.422670
O11	O1	0.166800	0.070300	0.423800
O21	O2	0.471800	0.799200	0.439600
O31	O3	0.596700	0.018000	0.383700
O41	O4	0.859700	0.179000	0.396800
O51	O5	0.814100	0.476700	0.103500
O61	O6	0.091100	0.498000	0.134900
O71	O7	0.709800	0.296500	0.970000
O81	O8	0.435200	0.328600	0.069700
O91	O9	0.664200	0.091800	0.101800
O101	O10	0.850000	0.736200	0.112600
O111	O11	0.531100	0.144300	0.941900
O121	O12	0.530600	0.875700	0.261400
O131	O13	0.767800	0.753800	0.369500
H11	H1	0.769000	0.669400	0.358000
O141	O14	0.857600	0.544300	0.262200
H21	H2	0.884700	0.453300	0.282900
O151	O15	0.057900	0.333600	0.349300
O161	O16	0.976500	0.259700	0.527600
H31	H3	0.056200	0.281200	0.543800
Zn41	Zn4	0.706330	0.081700	0.480540
Zn51	Zn5	0.254440	0.506300	0.026990
Zn61	Zn6	0.362210	0.112120	0.874130
P51	P5	0.418860	0.782900	0.980040
P61	P6	0.415300	0.135390	0.636030
P71	P7	0.095400	0.433710	0.851260
P81	P8	0.983100	0.792070	0.577330
O171	O17	0.833200	0.929700	0.576200
O181	O18	0.528200	0.200800	0.560400
O191	O19	0.403300	0.982000	0.616300
O201	O20	0.140300	0.821000	0.603200
O211	O21	0.185900	0.523300	0.896500
O221	O22	0.908900	0.502000	0.865100
O231	O23	0.290200	0.703500	0.030000
O241	O24	0.564800	0.671400	0.930300
O251	O25	0.335800	0.908200	0.898200
O261	O26	0.150000	0.263800	0.887400
O271	O27	0.468900	0.855700	0.058100
O281	O28	0.469400	0.124300	0.738600
O291	O29	0.232200	0.246200	0.630500
H41	H4	0.231000	0.330600	0.642000
O301	O30	0.142400	0.455700	0.737800
H51	H5	0.115300	0.546700	0.717100
O311	O31	0.942100	0.666400	0.650700
O321	O32	0.023500	0.740300	0.472400
H61	H6	0.943800	0.718800	0.456200
