data_MEXDAU_clean_PM
_symmetry_space_group_name_H-M	'P1'
_cell_length_a	8.440800
_cell_length_b	9.263000
_cell_length_c	13.843000
_cell_angle_alpha	81.119000
_cell_angle_beta	83.643000
_cell_angle_gamma	72.647000
_symmetry_Int_Tables_number 1

loop_
_symmetry_equiv_pos_as_xyz
'x,y,z'

loop_
_atom_site_label
_atom_site_type_symbol
_atom_site_fract_x
_atom_site_fract_y
_atom_site_fract_z
Zn11	Zn1	0.745560	0.493700	0.473140
Zn21	Zn2	0.706290	0.081490	0.980550
Zn31	Zn3	0.362470	0.111990	0.374060
P11	P1	0.904550	0.566460	0.648750
P21	P2	0.414960	0.135490	0.136030
P31	P3	0.983180	0.791850	0.077140
P41	P4	0.581020	0.217230	0.520060
O11	O1	0.813400	0.476700	0.603200
O21	O2	0.092100	0.497900	0.635400
O31	O3	0.710300	0.296500	0.470050
O41	O4	0.434800	0.330000	0.569700
O51	O5	0.527800	0.201600	0.060430
O61	O6	0.833000	0.930200	0.076500
O71	O7	0.402700	0.981800	0.116170
O81	O8	0.139900	0.821100	0.102730
O91	O9	0.530600	0.143800	0.442180
O101	O10	0.849300	0.736200	0.612900
O111	O11	0.665100	0.091500	0.601470
O121	O12	0.469900	0.124200	0.239290
O131	O13	0.857000	0.543600	0.762110
H11	H1	0.928100	0.471700	0.788500
O141	O14	0.231700	0.246900	0.130100
H21	H2	0.217100	0.310600	0.167700
O151	O15	0.941300	0.666900	0.151200
O161	O16	0.023300	0.739600	0.972000
H31	H3	0.936100	0.748700	0.947500
Zn41	Zn4	0.254440	0.506300	0.526860
Zn51	Zn5	0.293710	0.918510	0.019450
Zn61	Zn6	0.637530	0.888010	0.625940
P51	P5	0.095450	0.433540	0.351250
P61	P6	0.585040	0.864510	0.863970
P71	P7	0.016820	0.208150	0.922860
P81	P8	0.418980	0.782770	0.479940
O171	O17	0.186600	0.523300	0.396800
O181	O18	0.907900	0.502100	0.364600
O191	O19	0.289700	0.703500	0.529950
O201	O20	0.565200	0.670000	0.430300
O211	O21	0.472200	0.798400	0.939570
O221	O22	0.167000	0.069800	0.923500
O231	O23	0.597300	0.018200	0.883830
O241	O24	0.860100	0.178900	0.897270
O251	O25	0.469400	0.856200	0.557820
O261	O26	0.150700	0.263800	0.387100
O271	O27	0.334900	0.908500	0.398530
O281	O28	0.530100	0.875800	0.760710
O291	O29	0.143000	0.456400	0.237890
H41	H4	0.071900	0.528300	0.211500
O301	O30	0.768300	0.753100	0.869900
H51	H5	0.782900	0.689400	0.832300
O311	O31	0.058700	0.333100	0.848800
O321	O32	0.976700	0.260400	0.028000
H61	H6	0.063900	0.251300	0.052500
