data_MEYLIN_clean_PM
_symmetry_space_group_name_H-M	'P1'
_cell_length_a	7.645800
_cell_length_b	13.521900
_cell_length_c	16.384500
_cell_angle_alpha	90.000000
_cell_angle_beta	90.000000
_cell_angle_gamma	90.000000
_symmetry_Int_Tables_number 1

loop_
_symmetry_equiv_pos_as_xyz
'x,y,z'

loop_
_atom_site_label
_atom_site_type_symbol
_atom_site_fract_x
_atom_site_fract_y
_atom_site_fract_z
Cu11	Cu1	0.126560	0.785220	0.098840
N11	N1	0.960300	0.782380	0.005330
C11	C1	0.868900	0.786220	0.949690
N21	N2	0.181100	0.922660	0.127540
C21	C2	0.205500	0.004840	0.143290
Cu21	Cu2	0.801890	0.649270	0.341010
N31	N3	0.953800	0.683220	0.248060
C31	C3	0.045700	0.703250	0.194830
Cu31	Cu3	0.373440	0.214780	0.598840
N41	N4	0.539700	0.217620	0.505330
C41	C4	0.631100	0.213780	0.449690
N51	N5	0.318900	0.077340	0.627540
C51	C5	0.294500	0.995160	0.643290
Cu41	Cu4	0.698110	0.350730	0.841010
N61	N6	0.546200	0.316780	0.748060
C61	C6	0.454300	0.296750	0.694830
Cu51	Cu5	0.873440	0.285220	0.401160
N71	N7	0.039700	0.282380	0.494670
C71	C7	0.131100	0.286220	0.550310
N81	N8	0.818900	0.422660	0.372460
C81	C8	0.794500	0.504840	0.356710
Cu61	Cu6	0.198110	0.149270	0.158990
N91	N9	0.046200	0.183220	0.251940
C91	C9	0.954300	0.203250	0.305170
Cu71	Cu7	0.626560	0.714780	0.901160
N101	N10	0.460300	0.717620	0.994670
C101	C10	0.368900	0.713780	0.050310
N111	N11	0.681100	0.577340	0.872460
C111	C11	0.705500	0.495160	0.856710
Cu81	Cu8	0.301890	0.850730	0.658990
N121	N12	0.453800	0.816780	0.751940
C121	C12	0.545700	0.796750	0.805170
Cu91	Cu9	0.873440	0.214780	0.901160
N131	N13	0.039700	0.217620	0.994670
C131	C13	0.131100	0.213780	0.050310
N141	N14	0.818900	0.077340	0.872460
C141	C14	0.794500	0.995160	0.856710
Cu101	Cu10	0.198110	0.350730	0.658990
N151	N15	0.046200	0.316780	0.751940
C151	C15	0.954300	0.296750	0.805170
Cu111	Cu11	0.626560	0.785220	0.401160
N161	N16	0.460300	0.782380	0.494670
C161	C16	0.368900	0.786220	0.550310
N171	N17	0.681100	0.922660	0.372460
C171	C17	0.705500	0.004840	0.356710
Cu121	Cu12	0.301890	0.649270	0.158990
N181	N18	0.453800	0.683220	0.251940
C181	C18	0.545700	0.703250	0.305170
Cu131	Cu13	0.126560	0.714780	0.598840
N191	N19	0.960300	0.717620	0.505330
C191	C19	0.868900	0.713780	0.449690
N201	N20	0.181100	0.577340	0.627540
C201	C20	0.205500	0.495160	0.643290
Cu141	Cu14	0.801890	0.850730	0.841010
N211	N21	0.953800	0.816780	0.748060
C211	C21	0.045700	0.796750	0.694830
Cu151	Cu15	0.373440	0.285220	0.098840
N221	N22	0.539700	0.282380	0.005330
C221	C22	0.631100	0.286220	0.949690
N231	N23	0.318900	0.422660	0.127540
C231	C23	0.294500	0.504840	0.143290
Cu161	Cu16	0.698110	0.149270	0.341010
N241	N24	0.546200	0.183220	0.248060
C241	C24	0.454300	0.203250	0.194830
