data_MIBMER_clean_PM
_symmetry_space_group_name_H-M	'P1'
_cell_length_a	21.800000
_cell_length_b	21.800000
_cell_length_c	35.407000
_cell_angle_alpha	90.000000
_cell_angle_beta	90.000000
_cell_angle_gamma	90.000000
_symmetry_Int_Tables_number 1

loop_
_symmetry_equiv_pos_as_xyz
'x,y,z'

loop_
_atom_site_label
_atom_site_type_symbol
_atom_site_fract_x
_atom_site_fract_y
_atom_site_fract_z
Fe11	Fe1	0.719090	0.999800	0.901350
Fe21	Fe2	0.657110	0.002700	0.986510
Fe31	Fe3	0.807330	0.992760	0.976810
Fe41	Fe4	0.280910	0.000200	0.401350
Fe51	Fe5	0.342890	0.997300	0.486510
Fe61	Fe6	0.192670	0.007240	0.476810
Fe71	Fe7	0.780910	0.499800	0.348650
Fe81	Fe8	0.842890	0.502700	0.263490
Fe91	Fe9	0.692670	0.492760	0.273190
Fe101	Fe10	0.219090	0.500200	0.848650
Fe111	Fe11	0.157110	0.497300	0.763490
Fe121	Fe12	0.307330	0.507240	0.773190
H11	H1	0.566300	0.885300	0.861400
H21	H2	0.503300	0.805200	0.845100
H31	H3	0.491600	0.754300	0.953700
H41	H4	0.557900	0.835900	0.970800
H51	H5	0.503600	0.693200	0.842000
H61	H6	0.434200	0.621500	0.818700
H71	H7	0.326500	0.645300	0.907600
H81	H8	0.392600	0.719200	0.930400
H91	H9	0.921100	0.143400	0.947400
H101	H10	0.973300	0.227900	0.930500
H111	H11	0.891600	0.226600	0.832400
H121	H12	0.833500	0.138000	0.850200
H131	H13	0.045300	0.270700	0.907400
H141	H14	0.116300	0.349200	0.889900
H151	H15	0.006900	0.380700	0.800600
H161	H16	0.943100	0.302800	0.819500
H171	H17	0.660700	0.149000	0.062900
H181	H18	0.669500	0.214900	0.113300
H191	H19	0.850800	0.188400	0.115700
H201	H20	0.842500	0.116300	0.068300
H211	H21	0.687700	0.228800	0.176700
H221	H22	0.685000	0.315600	0.217500
H231	H23	0.846500	0.373300	0.175800
H241	H24	0.849400	0.290100	0.135400
H251	H25	0.433700	0.114700	0.361400
H261	H26	0.496700	0.194800	0.345100
H271	H27	0.508400	0.245700	0.453700
H281	H28	0.442100	0.164100	0.470800
H291	H29	0.496400	0.306800	0.342000
H301	H30	0.565800	0.378500	0.318700
H311	H31	0.673500	0.354700	0.407600
H321	H32	0.607400	0.280800	0.430400
H331	H33	0.078900	0.856600	0.447400
H341	H34	0.026700	0.772100	0.430500
H351	H35	0.108400	0.773400	0.332400
H361	H36	0.166500	0.862000	0.350200
H371	H37	0.954700	0.729300	0.407400
H381	H38	0.883700	0.650800	0.389900
H391	H39	0.993100	0.619300	0.300600
H401	H40	0.056900	0.697200	0.319500
H411	H41	0.339300	0.851000	0.562900
H421	H42	0.330500	0.785100	0.613300
H431	H43	0.149200	0.811600	0.615700
H441	H44	0.157500	0.883700	0.568300
H451	H45	0.312300	0.771200	0.676700
H461	H46	0.315000	0.684400	0.717500
H471	H47	0.153500	0.626700	0.675800
H481	H48	0.150600	0.709900	0.635400
H491	H49	0.933700	0.385300	0.388600
H501	H50	0.996700	0.305200	0.404900
H511	H51	0.008400	0.254300	0.296300
H521	H52	0.942100	0.335900	0.279200
H531	H53	0.996400	0.193200	0.408000
H541	H54	0.065800	0.121500	0.431300
H551	H55	0.173500	0.145300	0.342400
H561	H56	0.107400	0.219200	0.319600
H571	H57	0.578900	0.643400	0.302600
H581	H58	0.526700	0.727900	0.319500
H591	H59	0.608400	0.726600	0.417600
H601	H60	0.666500	0.638000	0.399800
H611	H61	0.454700	0.770700	0.342600
H621	H62	0.383700	0.849200	0.360100
H631	H63	0.493100	0.880700	0.449400
H641	H64	0.556900	0.802800	0.430500
H651	H65	0.839300	0.649000	0.187100
H661	H66	0.830500	0.714900	0.136700
H671	H67	0.649200	0.688400	0.134300
H681	H68	0.657500	0.616300	0.181700
H691	H69	0.812300	0.728800	0.073300
H701	H70	0.815000	0.815600	0.032500
H711	H71	0.653500	0.873300	0.074200
H721	H72	0.650600	0.790100	0.114600
H731	H73	0.066300	0.614700	0.888600
H741	H74	0.003300	0.694800	0.904900
H751	H75	0.991600	0.745700	0.796300
H761	H76	0.057900	0.664100	0.779200
H771	H77	0.003600	0.806800	0.908000
H781	H78	0.934200	0.878500	0.931300
H791	H79	0.826500	0.854700	0.842400
H801	H80	0.892600	0.780800	0.819600
H811	H81	0.421100	0.356600	0.802600
H821	H82	0.473300	0.272100	0.819500
H831	H83	0.391600	0.273400	0.917600
H841	H84	0.333500	0.362000	0.899800
H851	H85	0.545300	0.229300	0.842600
H861	H86	0.616300	0.150800	0.860100
H871	H87	0.506900	0.119300	0.949400
H881	H88	0.443100	0.197200	0.930500
H891	H89	0.160700	0.351000	0.687100
H901	H90	0.169500	0.285100	0.636700
H911	H91	0.350800	0.311600	0.634300
H921	H92	0.342500	0.383700	0.681700
H931	H93	0.187700	0.271200	0.573300
H941	H94	0.185000	0.184400	0.532500
H951	H95	0.346500	0.126700	0.574200
H961	H96	0.349400	0.209900	0.614600
C11	C1	0.615200	0.915300	0.928300
C21	C2	0.572100	0.865100	0.918300
C31	C3	0.552500	0.857500	0.880300
C41	C4	0.514400	0.810800	0.870800
C51	C5	0.490800	0.770300	0.898400
C61	C6	0.507400	0.780400	0.934600
C71	C7	0.548100	0.829200	0.945000
C81	C8	0.452000	0.717600	0.887100
C91	C9	0.466400	0.685400	0.855000
C101	C10	0.425600	0.641400	0.842000
C111	C11	0.373700	0.625400	0.861200
C121	C12	0.362300	0.655200	0.893600
C131	C13	0.401300	0.700100	0.906900
C141	C14	0.330100	0.581300	0.843800
C151	C15	0.828000	0.084500	0.916900
C161	C16	0.866800	0.135900	0.901800
C171	C17	0.913300	0.160800	0.923300
C181	C18	0.948300	0.208000	0.912300
C191	C19	0.949400	0.228200	0.876500
C201	C20	0.900600	0.207000	0.855700
C211	C21	0.861800	0.156100	0.867300
C221	C22	0.991200	0.275400	0.862900
C231	C23	0.039400	0.291600	0.884100
C241	C24	0.083000	0.338400	0.874000
C251	C25	0.073100	0.366500	0.839600
C261	C26	0.018300	0.355900	0.821600
C271	C27	0.979800	0.309900	0.833300
C281	C28	0.117600	0.415100	0.826700
C291	C29	0.742600	0.078800	0.030100
C301	C30	0.751600	0.126300	0.060800
C311	C31	0.699600	0.156100	0.074100
C321	C32	0.705400	0.195900	0.103600
C331	C33	0.759300	0.209300	0.119600
C341	C34	0.811700	0.179300	0.105300
C351	C35	0.807100	0.137500	0.076800
C361	C36	0.764500	0.254600	0.148700
C371	C37	0.718800	0.259200	0.175200
C381	C38	0.718500	0.310400	0.200600
C391	C39	0.766600	0.352800	0.201000
C401	C40	0.813600	0.344700	0.176100
C411	C41	0.814600	0.296000	0.151200
C421	C42	0.764400	0.407300	0.225400
C431	C43	0.384800	0.084700	0.428300
C441	C44	0.427900	0.134900	0.418300
C451	C45	0.447500	0.142500	0.380300
C461	C46	0.485600	0.189200	0.370800
C471	C47	0.509200	0.229700	0.398400
C481	C48	0.492600	0.219600	0.434600
C491	C49	0.451900	0.170800	0.445000
C501	C50	0.548000	0.282400	0.387100
C511	C51	0.533600	0.314600	0.355000
C521	C52	0.574400	0.358600	0.342000
C531	C53	0.626300	0.374600	0.361200
C541	C54	0.637700	0.344800	0.393600
C551	C55	0.598700	0.299900	0.406900
C561	C56	0.669900	0.418700	0.343800
C571	C57	0.172000	0.915500	0.416900
C581	C58	0.133200	0.864100	0.401800
C591	C59	0.086700	0.839200	0.423300
C601	C60	0.051700	0.792000	0.412300
C611	C61	0.050600	0.771800	0.376500
C621	C62	0.099400	0.793000	0.355700
C631	C63	0.138200	0.843900	0.367300
C641	C64	0.008800	0.724600	0.362900
C651	C65	0.960600	0.708400	0.384100
C661	C66	0.917000	0.661600	0.374000
C671	C67	0.926900	0.633500	0.339600
C681	C68	0.981700	0.644100	0.321600
C691	C69	0.020200	0.690100	0.333300
C701	C70	0.882400	0.584900	0.326700
C711	C71	0.257400	0.921200	0.530100
C721	C72	0.248400	0.873700	0.560800
C731	C73	0.300400	0.843900	0.574100
C741	C74	0.294600	0.804100	0.603600
C751	C75	0.240700	0.790700	0.619600
C761	C76	0.188300	0.820700	0.605300
C771	C77	0.192900	0.862500	0.576800
C781	C78	0.235500	0.745400	0.648700
C791	C79	0.281200	0.740800	0.675200
C801	C80	0.281500	0.689600	0.700600
C811	C81	0.233400	0.647200	0.701000
C821	C82	0.186400	0.655300	0.676100
C831	C83	0.185400	0.704000	0.651200
C841	C84	0.235600	0.592700	0.725400
C851	C85	0.884800	0.415300	0.321700
C861	C86	0.927900	0.365100	0.331700
C871	C87	0.947500	0.357500	0.369700
C881	C88	0.985600	0.310800	0.379200
C891	C89	0.009200	0.270300	0.351600
C901	C90	0.992600	0.280400	0.315400
C911	C91	0.951900	0.329200	0.305000
C921	C92	0.048000	0.217600	0.362900
C931	C93	0.033600	0.185400	0.395000
C941	C94	0.074400	0.141400	0.408000
C951	C95	0.126300	0.125400	0.388800
C961	C96	0.137700	0.155200	0.356400
C971	C97	0.098700	0.200100	0.343100
C981	C98	0.169900	0.081300	0.406200
C991	C99	0.672000	0.584500	0.333100
C1001	C100	0.633200	0.635900	0.348200
C1011	C101	0.586700	0.660800	0.326700
C1021	C102	0.551700	0.708000	0.337700
C1031	C103	0.550600	0.728200	0.373500
C1041	C104	0.599400	0.707000	0.394300
C1051	C105	0.638200	0.656100	0.382700
C1061	C106	0.508800	0.775400	0.387100
C1071	C107	0.460600	0.791600	0.365900
C1081	C108	0.417000	0.838400	0.376000
C1091	C109	0.426900	0.866500	0.410400
C1101	C110	0.481700	0.855900	0.428400
C1111	C111	0.520200	0.809900	0.416700
C1121	C112	0.382400	0.915100	0.423300
C1131	C113	0.757400	0.578800	0.219900
C1141	C114	0.748400	0.626300	0.189200
C1151	C115	0.800400	0.656100	0.175900
C1161	C116	0.794600	0.695900	0.146400
C1171	C117	0.740700	0.709300	0.130400
C1181	C118	0.688300	0.679300	0.144700
C1191	C119	0.692900	0.637500	0.173200
C1201	C120	0.735500	0.754600	0.101300
C1211	C121	0.781200	0.759200	0.074800
C1221	C122	0.781500	0.810400	0.049400
C1231	C123	0.733400	0.852800	0.049000
C1241	C124	0.686400	0.844700	0.073900
C1251	C125	0.685400	0.796000	0.098800
C1261	C126	0.735600	0.907300	0.024600
C1271	C127	0.115200	0.584700	0.821700
C1281	C128	0.072100	0.634900	0.831700
C1291	C129	0.052500	0.642500	0.869700
C1301	C130	0.014400	0.689200	0.879200
C1311	C131	0.990800	0.729700	0.851600
C1321	C132	0.007400	0.719600	0.815400
C1331	C133	0.048100	0.670800	0.805000
C1341	C134	0.952000	0.782400	0.862900
C1351	C135	0.966400	0.814600	0.895000
C1361	C136	0.925600	0.858600	0.908000
C1371	C137	0.873700	0.874600	0.888800
C1381	C138	0.862300	0.844800	0.856400
C1391	C139	0.901300	0.799900	0.843100
C1401	C140	0.830100	0.918700	0.906200
C1411	C141	0.328000	0.415500	0.833100
C1421	C142	0.366800	0.364100	0.848200
C1431	C143	0.413300	0.339200	0.826700
C1441	C144	0.448300	0.292000	0.837700
C1451	C145	0.449400	0.271800	0.873500
C1461	C146	0.400600	0.293000	0.894300
C1471	C147	0.361800	0.343900	0.882700
C1481	C148	0.491200	0.224600	0.887100
C1491	C149	0.539400	0.208400	0.865900
C1501	C150	0.583000	0.161600	0.876000
C1511	C151	0.573100	0.133500	0.910400
C1521	C152	0.518300	0.144100	0.928400
C1531	C153	0.479800	0.190100	0.916700
C1541	C154	0.617600	0.084900	0.923300
C1551	C155	0.242600	0.421200	0.719900
C1561	C156	0.251600	0.373700	0.689200
C1571	C157	0.199600	0.343900	0.675900
C1581	C158	0.205400	0.304100	0.646400
C1591	C159	0.259300	0.290700	0.630400
C1601	C160	0.311700	0.320700	0.644700
C1611	C161	0.307100	0.362500	0.673200
C1621	C162	0.264500	0.245400	0.601300
C1631	C163	0.218800	0.240800	0.574800
C1641	C164	0.218500	0.189600	0.549400
C1651	C165	0.266600	0.147200	0.549000
C1661	C166	0.313600	0.155300	0.573900
C1671	C167	0.314600	0.204000	0.598800
C1681	C168	0.264400	0.092700	0.524600
O11	O1	0.647600	0.939100	0.902400
O21	O2	0.614700	0.931400	0.962700
O31	O3	0.344200	0.559100	0.812800
O41	O4	0.279000	0.568800	0.861000
O51	O5	0.838400	0.067800	0.949800
O61	O6	0.788900	0.062500	0.894500
O71	O7	0.107800	0.436700	0.795300
O81	O8	0.157200	0.430100	0.848800
O91	O9	0.790400	0.048700	0.020400
O101	O10	0.689900	0.072800	0.016600
O111	O11	0.810300	0.442000	0.225100
O121	O12	0.716000	0.415900	0.243900
O131	O13	0.726800	0.997700	0.955140
O141	O14	0.352400	0.060900	0.402400
O151	O15	0.385300	0.068600	0.462700
O161	O16	0.655800	0.440900	0.312800
O171	O17	0.721000	0.431200	0.361000
O181	O18	0.161600	0.932200	0.449800
O191	O19	0.211100	0.937500	0.394500
O201	O20	0.892200	0.563300	0.295300
O211	O21	0.842800	0.569900	0.348800
O221	O22	0.209600	0.951300	0.520400
O231	O23	0.310100	0.927200	0.516600
O241	O24	0.189700	0.558000	0.725100
O251	O25	0.284000	0.584100	0.743900
O261	O26	0.273200	0.002300	0.455140
O271	O27	0.852400	0.439100	0.347600
O281	O28	0.885300	0.431400	0.287300
O291	O29	0.155800	0.059100	0.437200
O301	O30	0.221000	0.068800	0.389000
O311	O31	0.661600	0.567800	0.300200
O321	O32	0.711100	0.562500	0.355500
O331	O33	0.392200	0.936700	0.454700
O341	O34	0.342800	0.930100	0.401200
O351	O35	0.709600	0.548700	0.229600
O361	O36	0.810100	0.572800	0.233400
O371	O37	0.689700	0.942000	0.024900
O381	O38	0.784000	0.915900	0.006100
O391	O39	0.773200	0.497700	0.294860
O401	O40	0.147600	0.560900	0.847600
O411	O41	0.114700	0.568600	0.787300
O421	O42	0.844200	0.940900	0.937200
O431	O43	0.779000	0.931200	0.889000
O441	O44	0.338400	0.432200	0.800200
O451	O45	0.288900	0.437500	0.855500
O461	O46	0.607800	0.063300	0.954700
O471	O47	0.657200	0.069900	0.901200
O481	O48	0.290400	0.451300	0.729600
O491	O49	0.189900	0.427200	0.733400
O501	O50	0.310300	0.058000	0.524900
O511	O51	0.216000	0.084100	0.506100
O521	O52	0.226800	0.502300	0.794860
Fe131	Fe13	0.500200	0.219090	0.151350
Fe141	Fe14	0.497300	0.157110	0.236510
Fe151	Fe15	0.507240	0.307330	0.226810
Fe161	Fe16	0.499800	0.780910	0.651350
Fe171	Fe17	0.502700	0.842890	0.736510
Fe181	Fe18	0.492760	0.692670	0.726810
Fe191	Fe19	0.999800	0.719090	0.098650
Fe201	Fe20	0.002700	0.657110	0.013490
Fe211	Fe21	0.992760	0.807330	0.023190
Fe221	Fe22	0.000200	0.280910	0.598650
Fe231	Fe23	0.997300	0.342890	0.513490
Fe241	Fe24	0.007240	0.192670	0.523190
H971	H97	0.614700	0.066300	0.111400
H981	H98	0.694800	0.003300	0.095100
H991	H99	0.745700	0.991600	0.203700
H1001	H100	0.664100	0.057900	0.220800
H1011	H101	0.806800	0.003600	0.092000
H1021	H102	0.878500	0.934200	0.068700
H1031	H103	0.854700	0.826500	0.157600
H1041	H104	0.780800	0.892600	0.180400
H1051	H105	0.356600	0.421100	0.197400
H1061	H106	0.272100	0.473300	0.180500
H1071	H107	0.273400	0.391600	0.082400
H1081	H108	0.362000	0.333500	0.100200
H1091	H109	0.229300	0.545300	0.157400
H1101	H110	0.150800	0.616300	0.139900
H1111	H111	0.119300	0.506900	0.050600
H1121	H112	0.197200	0.443100	0.069500
H1131	H113	0.351000	0.160700	0.312900
H1141	H114	0.285100	0.169500	0.363300
H1151	H115	0.311600	0.350800	0.365700
H1161	H116	0.383700	0.342500	0.318300
H1171	H117	0.271200	0.187700	0.426700
H1181	H118	0.184400	0.185000	0.467500
H1191	H119	0.126700	0.346500	0.425800
H1201	H120	0.209900	0.349400	0.385400
H1211	H121	0.385300	0.933700	0.611400
H1221	H122	0.305200	0.996700	0.595100
H1231	H123	0.254300	0.008400	0.703700
H1241	H124	0.335900	0.942100	0.720800
H1251	H125	0.193200	0.996400	0.592000
H1261	H126	0.121500	0.065800	0.568700
H1271	H127	0.145300	0.173500	0.657600
H1281	H128	0.219200	0.107400	0.680400
H1291	H129	0.643400	0.578900	0.697400
H1301	H130	0.727900	0.526700	0.680500
H1311	H131	0.726600	0.608400	0.582400
H1321	H132	0.638000	0.666500	0.600200
H1331	H133	0.770700	0.454700	0.657400
H1341	H134	0.849200	0.383700	0.639900
H1351	H135	0.880700	0.493100	0.550600
H1361	H136	0.802800	0.556900	0.569500
H1371	H137	0.649000	0.839300	0.812900
H1381	H138	0.714900	0.830500	0.863300
H1391	H139	0.688400	0.649200	0.865700
H1401	H140	0.616300	0.657500	0.818300
H1411	H141	0.728800	0.812300	0.926700
H1421	H142	0.815600	0.815000	0.967500
H1431	H143	0.873300	0.653500	0.925800
H1441	H144	0.790100	0.650600	0.885400
H1451	H145	0.885300	0.566300	0.138600
H1461	H146	0.805200	0.503300	0.154900
H1471	H147	0.754300	0.491600	0.046300
H1481	H148	0.835900	0.557900	0.029200
H1491	H149	0.693200	0.503600	0.158000
H1501	H150	0.621500	0.434200	0.181300
H1511	H151	0.645300	0.326500	0.092400
H1521	H152	0.719200	0.392600	0.069600
H1531	H153	0.143400	0.921100	0.052600
H1541	H154	0.227900	0.973300	0.069500
H1551	H155	0.226600	0.891600	0.167600
H1561	H156	0.138000	0.833500	0.149800
H1571	H157	0.270700	0.045300	0.092600
H1581	H158	0.349200	0.116300	0.110100
H1591	H159	0.380700	0.006900	0.199400
H1601	H160	0.302800	0.943100	0.180500
H1611	H161	0.149000	0.660700	0.937100
H1621	H162	0.214900	0.669500	0.886700
H1631	H163	0.188400	0.850800	0.884300
H1641	H164	0.116300	0.842500	0.931700
H1651	H165	0.228800	0.687700	0.823300
H1661	H166	0.315600	0.685000	0.782500
H1671	H167	0.373300	0.846500	0.824200
H1681	H168	0.290100	0.849400	0.864600
H1691	H169	0.114700	0.433700	0.638600
H1701	H170	0.194800	0.496700	0.654900
H1711	H171	0.245700	0.508400	0.546300
H1721	H172	0.164100	0.442100	0.529200
H1731	H173	0.306800	0.496400	0.658000
H1741	H174	0.378500	0.565800	0.681300
H1751	H175	0.354700	0.673500	0.592400
H1761	H176	0.280800	0.607400	0.569600
H1771	H177	0.856600	0.078900	0.552600
H1781	H178	0.772100	0.026700	0.569500
H1791	H179	0.773400	0.108400	0.667600
H1801	H180	0.862000	0.166500	0.649800
H1811	H181	0.729300	0.954700	0.592600
H1821	H182	0.650800	0.883700	0.610100
H1831	H183	0.619300	0.993100	0.699400
H1841	H184	0.697200	0.056900	0.680500
H1851	H185	0.851000	0.339300	0.437100
H1861	H186	0.785100	0.330500	0.386700
H1871	H187	0.811600	0.149200	0.384300
H1881	H188	0.883700	0.157500	0.431700
H1891	H189	0.771200	0.312300	0.323300
H1901	H190	0.684400	0.315000	0.282500
H1911	H191	0.626700	0.153500	0.324200
H1921	H192	0.709900	0.150600	0.364600
C1691	C169	0.584700	0.115200	0.178300
C1701	C170	0.634900	0.072100	0.168300
C1711	C171	0.642500	0.052500	0.130300
C1721	C172	0.689200	0.014400	0.120800
C1731	C173	0.729700	0.990800	0.148400
C1741	C174	0.719600	0.007400	0.184600
C1751	C175	0.670800	0.048100	0.195000
C1761	C176	0.782400	0.952000	0.137100
C1771	C177	0.814600	0.966400	0.105000
C1781	C178	0.858600	0.925600	0.092000
C1791	C179	0.874600	0.873700	0.111200
C1801	C180	0.844800	0.862300	0.143600
C1811	C181	0.799900	0.901300	0.156900
C1821	C182	0.918700	0.830100	0.093800
C1831	C183	0.415500	0.328000	0.166900
C1841	C184	0.364100	0.366800	0.151800
C1851	C185	0.339200	0.413300	0.173300
C1861	C186	0.292000	0.448300	0.162300
C1871	C187	0.271800	0.449400	0.126500
C1881	C188	0.293000	0.400600	0.105700
C1891	C189	0.343900	0.361800	0.117300
C1901	C190	0.224600	0.491200	0.112900
C1911	C191	0.208400	0.539400	0.134100
C1921	C192	0.161600	0.583000	0.124000
C1931	C193	0.133500	0.573100	0.089600
C1941	C194	0.144100	0.518300	0.071600
C1951	C195	0.190100	0.479800	0.083300
C1961	C196	0.084900	0.617600	0.076700
C1971	C197	0.421200	0.242600	0.280100
C1981	C198	0.373700	0.251600	0.310800
C1991	C199	0.343900	0.199600	0.324100
C2001	C200	0.304100	0.205400	0.353600
C2011	C201	0.290700	0.259300	0.369600
C2021	C202	0.320700	0.311700	0.355300
C2031	C203	0.362500	0.307100	0.326800
C2041	C204	0.245400	0.264500	0.398700
C2051	C205	0.240800	0.218800	0.425200
C2061	C206	0.189600	0.218500	0.450600
C2071	C207	0.147200	0.266600	0.451000
C2081	C208	0.155300	0.313600	0.426100
C2091	C209	0.204000	0.314600	0.401200
C2101	C210	0.092700	0.264400	0.475400
C2111	C211	0.415300	0.884800	0.678300
C2121	C212	0.365100	0.927900	0.668300
C2131	C213	0.357500	0.947500	0.630300
C2141	C214	0.310800	0.985600	0.620800
C2151	C215	0.270300	0.009200	0.648400
C2161	C216	0.280400	0.992600	0.684600
C2171	C217	0.329200	0.951900	0.695000
C2181	C218	0.217600	0.048000	0.637100
C2191	C219	0.185400	0.033600	0.605000
C2201	C220	0.141400	0.074400	0.592000
C2211	C221	0.125400	0.126300	0.611200
C2221	C222	0.155200	0.137700	0.643600
C2231	C223	0.200100	0.098700	0.656900
C2241	C224	0.081300	0.169900	0.593800
C2251	C225	0.584500	0.672000	0.666900
C2261	C226	0.635900	0.633200	0.651800
C2271	C227	0.660800	0.586700	0.673300
C2281	C228	0.708000	0.551700	0.662300
C2291	C229	0.728200	0.550600	0.626500
C2301	C230	0.707000	0.599400	0.605700
C2311	C231	0.656100	0.638200	0.617300
C2321	C232	0.775400	0.508800	0.612900
C2331	C233	0.791600	0.460600	0.634100
C2341	C234	0.838400	0.417000	0.624000
C2351	C235	0.866500	0.426900	0.589600
C2361	C236	0.855900	0.481700	0.571600
C2371	C237	0.809900	0.520200	0.583300
C2381	C238	0.915100	0.382400	0.576700
C2391	C239	0.578800	0.757400	0.780100
C2401	C240	0.626300	0.748400	0.810800
C2411	C241	0.656100	0.800400	0.824100
C2421	C242	0.695900	0.794600	0.853600
C2431	C243	0.709300	0.740700	0.869600
C2441	C244	0.679300	0.688300	0.855300
C2451	C245	0.637500	0.692900	0.826800
C2461	C246	0.754600	0.735500	0.898700
C2471	C247	0.759200	0.781200	0.925200
C2481	C248	0.810400	0.781500	0.950600
C2491	C249	0.852800	0.733400	0.951000
C2501	C250	0.844700	0.686400	0.926100
C2511	C251	0.796000	0.685400	0.901200
C2521	C252	0.907300	0.735600	0.975400
C2531	C253	0.915300	0.615200	0.071700
C2541	C254	0.865100	0.572100	0.081700
C2551	C255	0.857500	0.552500	0.119700
C2561	C256	0.810800	0.514400	0.129200
C2571	C257	0.770300	0.490800	0.101600
C2581	C258	0.780400	0.507400	0.065400
C2591	C259	0.829200	0.548100	0.055000
C2601	C260	0.717600	0.452000	0.112900
C2611	C261	0.685400	0.466400	0.145000
C2621	C262	0.641400	0.425600	0.158000
C2631	C263	0.625400	0.373700	0.138800
C2641	C264	0.655200	0.362300	0.106400
C2651	C265	0.700100	0.401300	0.093100
C2661	C266	0.581300	0.330100	0.156200
C2671	C267	0.084500	0.828000	0.083100
C2681	C268	0.135900	0.866800	0.098200
C2691	C269	0.160800	0.913300	0.076700
C2701	C270	0.208000	0.948300	0.087700
C2711	C271	0.228200	0.949400	0.123500
C2721	C272	0.207000	0.900600	0.144300
C2731	C273	0.156100	0.861800	0.132700
C2741	C274	0.275400	0.991200	0.137100
C2751	C275	0.291600	0.039400	0.115900
C2761	C276	0.338400	0.083000	0.126000
C2771	C277	0.366500	0.073100	0.160400
C2781	C278	0.355900	0.018300	0.178400
C2791	C279	0.309900	0.979800	0.166700
C2801	C280	0.415100	0.117600	0.173300
C2811	C281	0.078800	0.742600	0.969900
C2821	C282	0.126300	0.751600	0.939200
C2831	C283	0.156100	0.699600	0.925900
C2841	C284	0.195900	0.705400	0.896400
C2851	C285	0.209300	0.759300	0.880400
C2861	C286	0.179300	0.811700	0.894700
C2871	C287	0.137500	0.807100	0.923200
C2881	C288	0.254600	0.764500	0.851300
C2891	C289	0.259200	0.718800	0.824800
C2901	C290	0.310400	0.718500	0.799400
C2911	C291	0.352800	0.766600	0.799000
C2921	C292	0.344700	0.813600	0.823900
C2931	C293	0.296000	0.814600	0.848800
C2941	C294	0.407300	0.764400	0.774600
C2951	C295	0.084700	0.384800	0.571700
C2961	C296	0.134900	0.427900	0.581700
C2971	C297	0.142500	0.447500	0.619700
C2981	C298	0.189200	0.485600	0.629200
C2991	C299	0.229700	0.509200	0.601600
C3001	C300	0.219600	0.492600	0.565400
C3011	C301	0.170800	0.451900	0.555000
C3021	C302	0.282400	0.548000	0.612900
C3031	C303	0.314600	0.533600	0.645000
C3041	C304	0.358600	0.574400	0.658000
C3051	C305	0.374600	0.626300	0.638800
C3061	C306	0.344800	0.637700	0.606400
C3071	C307	0.299900	0.598700	0.593100
C3081	C308	0.418700	0.669900	0.656200
C3091	C309	0.915500	0.172000	0.583100
C3101	C310	0.864100	0.133200	0.598200
C3111	C311	0.839200	0.086700	0.576700
C3121	C312	0.792000	0.051700	0.587700
C3131	C313	0.771800	0.050600	0.623500
C3141	C314	0.793000	0.099400	0.644300
C3151	C315	0.843900	0.138200	0.632700
C3161	C316	0.724600	0.008800	0.637100
C3171	C317	0.708400	0.960600	0.615900
C3181	C318	0.661600	0.917000	0.626000
C3191	C319	0.633500	0.926900	0.660400
C3201	C320	0.644100	0.981700	0.678400
C3211	C321	0.690100	0.020200	0.666700
C3221	C322	0.584900	0.882400	0.673300
C3231	C323	0.921200	0.257400	0.469900
C3241	C324	0.873700	0.248400	0.439200
C3251	C325	0.843900	0.300400	0.425900
C3261	C326	0.804100	0.294600	0.396400
C3271	C327	0.790700	0.240700	0.380400
C3281	C328	0.820700	0.188300	0.394700
C3291	C329	0.862500	0.192900	0.423200
C3301	C330	0.745400	0.235500	0.351300
C3311	C331	0.740800	0.281200	0.324800
C3321	C332	0.689600	0.281500	0.299400
C3331	C333	0.647200	0.233400	0.299000
C3341	C334	0.655300	0.186400	0.323900
C3351	C335	0.704000	0.185400	0.348800
C3361	C336	0.592700	0.235600	0.274600
O531	O53	0.560900	0.147600	0.152400
O541	O54	0.568600	0.114700	0.212700
O551	O55	0.940900	0.844200	0.062800
O561	O56	0.931200	0.779000	0.111000
O571	O57	0.432200	0.338400	0.199800
O581	O58	0.437500	0.288900	0.144500
O591	O59	0.063300	0.607800	0.045300
O601	O60	0.069900	0.657200	0.098800
O611	O61	0.451300	0.290400	0.270400
O621	O62	0.427200	0.189900	0.266600
O631	O63	0.058000	0.310300	0.475100
O641	O64	0.084100	0.216000	0.493900
O651	O65	0.502300	0.226800	0.205140
O661	O66	0.439100	0.852400	0.652400
O671	O67	0.431400	0.885300	0.712700
O681	O68	0.059100	0.155800	0.562800
O691	O69	0.068800	0.221000	0.611000
O701	O70	0.567800	0.661600	0.699800
O711	O71	0.562500	0.711100	0.644500
O721	O72	0.936700	0.392200	0.545300
O731	O73	0.930100	0.342800	0.598800
O741	O74	0.548700	0.709600	0.770400
O751	O75	0.572800	0.810100	0.766600
O761	O76	0.942000	0.689700	0.975100
O771	O77	0.915900	0.784000	0.993900
O781	O78	0.497700	0.773200	0.705140
O791	O79	0.939100	0.647600	0.097600
O801	O80	0.931400	0.614700	0.037300
O811	O81	0.559100	0.344200	0.187200
O821	O82	0.568800	0.279000	0.139000
O831	O83	0.067800	0.838400	0.050200
O841	O84	0.062500	0.788900	0.105500
O851	O85	0.436700	0.107800	0.204700
O861	O86	0.430100	0.157200	0.151200
O871	O87	0.048700	0.790400	0.979600
O881	O88	0.072800	0.689900	0.983400
O891	O89	0.442000	0.810300	0.774900
O901	O90	0.415900	0.716000	0.756100
O911	O91	0.997700	0.726800	0.044860
O921	O92	0.060900	0.352400	0.597600
O931	O93	0.068600	0.385300	0.537300
O941	O94	0.440900	0.655800	0.687200
O951	O95	0.431200	0.721000	0.639000
O961	O96	0.932200	0.161600	0.550200
O971	O97	0.937500	0.211100	0.605500
O981	O98	0.563300	0.892200	0.704700
O991	O99	0.569900	0.842800	0.651200
O1001	O100	0.951300	0.209600	0.479600
O1011	O101	0.927200	0.310100	0.483400
O1021	O102	0.558000	0.189700	0.274900
O1031	O103	0.584100	0.284000	0.256100
O1041	O104	0.002300	0.273200	0.544860
