data_MICDEJ_clean_PM
_symmetry_space_group_name_H-M	'P1'
_cell_length_a	9.379600
_cell_length_b	17.457100
_cell_length_c	17.457100
_cell_angle_alpha	103.559000
_cell_angle_beta	102.825000
_cell_angle_gamma	77.174900
_symmetry_Int_Tables_number 1

loop_
_symmetry_equiv_pos_as_xyz
'x,y,z'

loop_
_atom_site_label
_atom_site_type_symbol
_atom_site_fract_x
_atom_site_fract_y
_atom_site_fract_z
Mn11	Mn1	0.561000	0.686340	0.180470
Mn21	Mn2	0.939000	0.180470	0.686340
Mn31	Mn3	0.439000	0.313660	0.819530
Mn41	Mn4	0.061000	0.819530	0.313660
Mn51	Mn5	0.500000	0.500000	0.000000
Mn61	Mn6	0.000000	0.000000	0.500000
H11	H1	0.573800	0.626900	0.838300
H21	H2	0.573300	0.840700	0.791500
H31	H3	0.582500	0.818900	0.016500
H41	H4	0.316100	0.935200	0.849400
H51	H5	0.199000	0.031800	0.775600
H61	H6	0.560100	0.134300	0.841900
H71	H7	0.679400	0.035500	0.914100
H81	H8	0.315600	0.793900	0.718100
H91	H9	0.175800	0.844900	0.608500
H101	H10	0.484900	0.728300	0.479100
H111	H11	0.630400	0.680800	0.589600
H121	H12	0.926200	0.838300	0.626900
H131	H13	0.926700	0.791500	0.840700
H141	H14	0.917500	0.016500	0.818900
H151	H15	0.183900	0.849400	0.935200
H161	H16	0.301000	0.775600	0.031800
H171	H17	0.939900	0.841900	0.134300
H181	H18	0.820600	0.914100	0.035500
H191	H19	0.184400	0.718100	0.793900
H201	H20	0.324200	0.608500	0.844900
H211	H21	0.015100	0.479100	0.728300
H221	H22	0.869600	0.589600	0.680800
H231	H23	0.426200	0.373100	0.161700
H241	H24	0.426700	0.159300	0.208500
H251	H25	0.417500	0.181100	0.983500
H261	H26	0.683900	0.064800	0.150600
H271	H27	0.801000	0.968200	0.224400
H281	H28	0.439900	0.865700	0.158100
H291	H29	0.320600	0.964500	0.085900
H301	H30	0.684400	0.206100	0.281900
H311	H31	0.824200	0.155100	0.391500
H321	H32	0.515100	0.271700	0.520900
H331	H33	0.369600	0.319200	0.410400
H341	H34	0.073800	0.161700	0.373100
H351	H35	0.073300	0.208500	0.159300
H361	H36	0.082500	0.983500	0.181100
H371	H37	0.816100	0.150600	0.064800
H381	H38	0.699000	0.224400	0.968200
H391	H39	0.060100	0.158100	0.865700
H401	H40	0.179400	0.085900	0.964500
H411	H41	0.815600	0.281900	0.206100
H421	H42	0.675800	0.391500	0.155100
H431	H43	0.984900	0.520900	0.271700
H441	H44	0.130400	0.410400	0.319200
C11	C1	0.579700	0.664510	0.995850
C21	C2	0.580100	0.715280	0.936400
C31	C3	0.574700	0.681340	0.856140
C41	C4	0.570600	0.729390	0.802870
C51	C5	0.573000	0.809300	0.827660
C61	C6	0.574900	0.842500	0.907860
C71	C7	0.579700	0.795990	0.962590
C81	C8	0.507400	0.976930	0.888690
C91	C9	0.365000	0.975440	0.847620
C101	C10	0.295200	0.033110	0.803990
C111	C11	0.367600	0.093460	0.802060
C121	C12	0.510900	0.094010	0.843330
C131	C13	0.582300	0.035350	0.886690
C141	C14	0.287600	0.157700	0.756660
C151	C15	0.483900	0.730870	0.663270
C161	C16	0.349800	0.780450	0.669810
C171	C17	0.265800	0.810300	0.603880
C181	C18	0.313800	0.789490	0.531670
C191	C19	0.450100	0.741560	0.527320
C201	C20	0.537200	0.712390	0.593170
C211	C21	0.218900	0.814530	0.457590
C221	C22	0.920300	0.995850	0.664510
C231	C23	0.919900	0.936400	0.715280
C241	C24	0.925300	0.856140	0.681340
C251	C25	0.929400	0.802870	0.729390
C261	C26	0.927000	0.827660	0.809300
C271	C27	0.925100	0.907860	0.842500
C281	C28	0.920300	0.962590	0.795990
C291	C29	0.992600	0.888690	0.976930
C301	C30	0.135000	0.847620	0.975440
C311	C31	0.204800	0.803990	0.033110
C321	C32	0.132400	0.802060	0.093460
C331	C33	0.989100	0.843330	0.094010
C341	C34	0.917700	0.886690	0.035350
C351	C35	0.212400	0.756660	0.157700
C361	C36	0.016100	0.663270	0.730870
C371	C37	0.150200	0.669810	0.780450
C381	C38	0.234200	0.603880	0.810300
C391	C39	0.186200	0.531670	0.789490
C401	C40	0.049900	0.527320	0.741560
C411	C41	0.962800	0.593170	0.712390
C421	C42	0.281100	0.457590	0.814530
C431	C43	0.420300	0.335490	0.004150
C441	C44	0.419900	0.284720	0.063600
C451	C45	0.425300	0.318660	0.143860
C461	C46	0.429400	0.270610	0.197130
C471	C47	0.427000	0.190700	0.172340
C481	C48	0.425100	0.157500	0.092140
C491	C49	0.420300	0.204010	0.037410
C501	C50	0.492600	0.023070	0.111310
C511	C51	0.635000	0.024560	0.152380
C521	C52	0.704800	0.966890	0.196010
C531	C53	0.632400	0.906540	0.197940
C541	C54	0.489100	0.905990	0.156670
C551	C55	0.417700	0.964650	0.113310
C561	C56	0.712400	0.842300	0.243340
C571	C57	0.516100	0.269130	0.336730
C581	C58	0.650200	0.219550	0.330190
C591	C59	0.734200	0.189700	0.396120
C601	C60	0.686200	0.210510	0.468330
C611	C61	0.549900	0.258440	0.472680
C621	C62	0.462800	0.287610	0.406830
C631	C63	0.781100	0.185470	0.542410
C641	C64	0.079700	0.004150	0.335490
C651	C65	0.080100	0.063600	0.284720
C661	C66	0.074700	0.143860	0.318660
C671	C67	0.070600	0.197130	0.270610
C681	C68	0.073000	0.172340	0.190700
C691	C69	0.074900	0.092140	0.157500
C701	C70	0.079700	0.037410	0.204010
C711	C71	0.007400	0.111310	0.023070
C721	C72	0.865000	0.152380	0.024560
C731	C73	0.795200	0.196010	0.966890
C741	C74	0.867600	0.197940	0.906540
C751	C75	0.010900	0.156670	0.905990
C761	C76	0.082300	0.113310	0.964650
C771	C77	0.787600	0.243340	0.842300
C781	C78	0.983900	0.336730	0.269130
C791	C79	0.849800	0.330190	0.219550
C801	C80	0.765800	0.396120	0.189700
C811	C81	0.813800	0.468330	0.210510
C821	C82	0.950100	0.472680	0.258440
C831	C83	0.037200	0.406830	0.287610
C841	C84	0.718900	0.542410	0.185470
O11	O1	0.568900	0.593540	0.968300
O21	O2	0.591300	0.698690	0.067630
O31	O3	0.579400	0.922480	0.937640
O41	O4	0.161700	0.149980	0.717560
O51	O5	0.349900	0.213460	0.757520
O61	O6	0.570700	0.692580	0.723460
O71	O7	0.094400	0.860670	0.459810
O81	O8	0.263700	0.784830	0.392330
O91	O9	0.931100	0.968300	0.593540
O101	O10	0.908700	0.067630	0.698690
O111	O11	0.920600	0.937640	0.922480
O121	O12	0.338300	0.717560	0.149980
O131	O13	0.150100	0.757520	0.213460
O141	O14	0.929300	0.723460	0.692580
O151	O15	0.405600	0.459810	0.860670
O161	O16	0.236300	0.392330	0.784830
O171	O17	0.431100	0.406460	0.031700
O181	O18	0.408700	0.301310	0.932370
O191	O19	0.420600	0.077520	0.062360
O201	O20	0.838300	0.850020	0.282440
O211	O21	0.650100	0.786540	0.242480
O221	O22	0.429300	0.307420	0.276540
O231	O23	0.905600	0.139330	0.540190
O241	O24	0.736300	0.215170	0.607670
O251	O25	0.068900	0.031700	0.406460
O261	O26	0.091300	0.932370	0.301310
O271	O27	0.079400	0.062360	0.077520
O281	O28	0.661700	0.282440	0.850020
O291	O29	0.849900	0.242480	0.786540
O301	O30	0.070700	0.276540	0.307420
O311	O31	0.594400	0.540190	0.139330
O321	O32	0.763700	0.607670	0.215170
