data_MICNES_clean_PM
_symmetry_space_group_name_H-M	'P1'
_cell_length_a	13.458800
_cell_length_b	13.458800
_cell_length_c	17.118800
_cell_angle_alpha	111.335000
_cell_angle_beta	111.335000
_cell_angle_gamma	90.496700
_symmetry_Int_Tables_number 1

loop_
_symmetry_equiv_pos_as_xyz
'x,y,z'

loop_
_atom_site_label
_atom_site_type_symbol
_atom_site_fract_x
_atom_site_fract_y
_atom_site_fract_z
Cd11	Cd1	0.625380	0.374620	0.250000
Cd21	Cd2	0.374620	0.625380	0.750000
H11	H1	0.516400	0.154200	0.056400
H21	H2	0.821500	0.322300	0.186800
H31	H3	0.576400	0.016200	0.953900
H41	H4	0.880600	0.193800	0.087400
H51	H5	0.729600	0.938000	0.932000
H61	H6	0.732400	0.003400	0.887000
H71	H7	0.626900	0.488900	0.452300
H81	H8	0.588500	0.611100	0.275200
H91	H9	0.640200	0.662800	0.562900
H101	H10	0.606400	0.783200	0.381000
H111	H11	0.627400	0.846400	0.606800
H121	H12	0.713000	0.889400	0.580200
H131	H13	0.845800	0.483600	0.443600
H141	H14	0.677700	0.178500	0.313200
H151	H15	0.983800	0.423600	0.546100
H161	H16	0.806200	0.119400	0.412600
H171	H17	0.062000	0.270400	0.568000
H181	H18	0.996600	0.267600	0.613000
H191	H19	0.511100	0.373100	0.047700
H201	H20	0.388900	0.411500	0.224800
H211	H21	0.337200	0.359800	0.937100
H221	H22	0.216800	0.393600	0.119000
H231	H23	0.153600	0.372600	0.893200
H241	H24	0.110600	0.287000	0.919800
H251	H25	0.483600	0.845800	0.943600
H261	H26	0.178500	0.677700	0.813200
H271	H27	0.423600	0.983800	0.046100
H281	H28	0.119400	0.806200	0.912600
H291	H29	0.270400	0.062000	0.068000
H301	H30	0.267600	0.996600	0.113000
H311	H31	0.373100	0.511100	0.547700
H321	H32	0.411500	0.388900	0.724800
H331	H33	0.359800	0.337200	0.437100
H341	H34	0.393600	0.216800	0.619000
H351	H35	0.372600	0.153600	0.393200
H361	H36	0.287000	0.110600	0.419800
H371	H37	0.154200	0.516400	0.556400
H381	H38	0.322300	0.821500	0.686800
H391	H39	0.016200	0.576400	0.453900
H401	H40	0.193800	0.880600	0.587400
H411	H41	0.938000	0.729600	0.432000
H421	H42	0.003400	0.732400	0.387000
H431	H43	0.488900	0.626900	0.952300
H441	H44	0.611100	0.588500	0.775200
H451	H45	0.662800	0.640200	0.062900
H461	H46	0.783200	0.606400	0.881000
H471	H47	0.846400	0.627400	0.106800
H481	H48	0.889400	0.713000	0.080200
C11	C1	0.601250	0.162210	0.065830
C21	C2	0.769990	0.258650	0.136730
C31	C3	0.630080	0.082040	0.004070
C41	C4	0.805440	0.181780	0.077880
C51	C5	0.734820	0.089660	0.010630
C61	C6	0.766310	0.000090	0.943630
C71	C7	0.886850	0.000810	0.972550
C81	C8	0.942740	0.954820	0.032620
C91	C9	0.052320	0.954260	0.058870
C101	C10	0.621300	0.552740	0.439830
C111	C11	0.600470	0.625250	0.335160
C121	C12	0.628600	0.652720	0.505490
C131	C13	0.607730	0.727090	0.397010
C141	C14	0.625200	0.743400	0.485730
C151	C15	0.641070	0.854170	0.559320
C161	C16	0.568490	0.928490	0.527660
C171	C17	0.467110	0.931070	0.530670
C181	C18	0.401740	0.001160	0.504710
C191	C19	0.837790	0.398750	0.434170
C201	C20	0.741350	0.230010	0.363270
C211	C21	0.917960	0.369920	0.495930
C221	C22	0.818220	0.194560	0.422120
C231	C23	0.910340	0.265180	0.489370
C241	C24	0.999910	0.233690	0.556370
C251	C25	0.999190	0.113150	0.527450
C261	C26	0.045180	0.057260	0.467380
C271	C27	0.045740	0.947680	0.441130
C281	C28	0.447260	0.378700	0.060170
C291	C29	0.374750	0.399530	0.164840
C301	C30	0.347280	0.371400	0.994510
C311	C31	0.272910	0.392270	0.102990
C321	C32	0.256600	0.374800	0.014270
C331	C33	0.145830	0.358930	0.940680
C341	C34	0.071510	0.431510	0.972340
C351	C35	0.068930	0.532890	0.969330
C361	C36	0.998840	0.598260	0.995290
C371	C37	0.398750	0.837790	0.934170
C381	C38	0.230010	0.741350	0.863270
C391	C39	0.369920	0.917960	0.995930
C401	C40	0.194560	0.818220	0.922120
C411	C41	0.265180	0.910340	0.989370
C421	C42	0.233690	0.999910	0.056370
C431	C43	0.113150	0.999190	0.027450
C441	C44	0.057260	0.045180	0.967380
C451	C45	0.947680	0.045740	0.941130
C461	C46	0.378700	0.447260	0.560170
C471	C47	0.399530	0.374750	0.664840
C481	C48	0.371400	0.347280	0.494510
C491	C49	0.392270	0.272910	0.602990
C501	C50	0.374800	0.256600	0.514270
C511	C51	0.358930	0.145830	0.440680
C521	C52	0.431510	0.071510	0.472340
C531	C53	0.532890	0.068930	0.469330
C541	C54	0.598260	0.998840	0.495290
C551	C55	0.162210	0.601250	0.565830
C561	C56	0.258650	0.769990	0.636730
C571	C57	0.082040	0.630080	0.504070
C581	C58	0.181780	0.805440	0.577880
C591	C59	0.089660	0.734820	0.510630
C601	C60	0.000090	0.766310	0.443630
C611	C61	0.000810	0.886850	0.472550
C621	C62	0.954820	0.942740	0.532620
C631	C63	0.954260	0.052320	0.558870
C641	C64	0.552740	0.621300	0.939830
C651	C65	0.625250	0.600470	0.835160
C661	C66	0.652720	0.628600	0.005490
C671	C67	0.727090	0.607730	0.897010
C681	C68	0.743400	0.625200	0.985730
C691	C69	0.854170	0.641070	0.059320
C701	C70	0.928490	0.568490	0.027660
C711	C71	0.931070	0.467110	0.030670
C721	C72	0.001160	0.401740	0.004710
N11	N1	0.669460	0.248800	0.132520
N21	N2	0.609140	0.537660	0.355420
N31	N3	0.751200	0.330540	0.367480
N41	N4	0.462340	0.390860	0.144580
N51	N5	0.330540	0.751200	0.867480
N61	N6	0.390860	0.462340	0.644580
N71	N7	0.248800	0.669460	0.632520
N81	N8	0.537660	0.609140	0.855420
F11	F1	0.888520	0.909460	0.066750
F21	F2	0.100690	0.910490	0.120020
F31	F3	0.431510	0.864710	0.561100
F41	F4	0.304960	0.000340	0.511570
F51	F5	0.090540	0.111480	0.433250
F61	F6	0.089510	0.899310	0.379980
F71	F7	0.135290	0.568490	0.938900
F81	F8	0.999660	0.695040	0.988430
F91	F9	0.111480	0.090540	0.933250
F101	F10	0.899310	0.089510	0.879980
F111	F11	0.568490	0.135290	0.438900
F121	F12	0.695040	0.999660	0.488430
F131	F13	0.909460	0.888520	0.566750
F141	F14	0.910490	0.100690	0.620020
F151	F15	0.864710	0.431510	0.061100
F161	F16	0.000340	0.304960	0.011570
