data_MIDSUP_clean_PM
_symmetry_space_group_name_H-M	'P1'
_cell_length_a	9.211600
_cell_length_b	17.940200
_cell_length_c	19.158900
_cell_angle_alpha	90.101100
_cell_angle_beta	91.065600
_cell_angle_gamma	91.458300
_symmetry_Int_Tables_number 1

loop_
_symmetry_equiv_pos_as_xyz
'x,y,z'

loop_
_atom_site_label
_atom_site_type_symbol
_atom_site_fract_x
_atom_site_fract_y
_atom_site_fract_z
Ni11	Ni1	0.655480	0.308440	0.754770
Ni21	Ni2	0.511510	0.803810	0.254280
Ni31	Ni3	0.397320	0.302800	0.753870
Ni41	Ni4	0.253160	0.800280	0.251900
H11	H1	0.132930	0.373760	0.657120
H21	H2	0.140410	0.185780	0.748610
H31	H3	0.619630	0.995810	0.385510
H41	H4	0.760500	0.177280	0.573200
H51	H5	0.751970	0.714060	0.175480
H61	H6	0.895850	0.385830	0.837670
H71	H7	0.017080	0.883750	0.333600
H81	H8	0.003130	0.684230	0.283040
H91	H9	0.875330	0.188020	0.774060
H101	H10	0.142830	0.649290	0.416380
H111	H11	0.910520	0.427580	0.748360
H121	H12	0.169500	0.230310	0.836500
H131	H13	0.279560	0.476360	0.611040
H141	H14	0.136950	0.558900	0.522760
H151	H15	0.871190	0.339170	0.641740
H161	H16	0.011420	0.701090	0.186770
H171	H17	0.745120	0.595260	0.992010
H181	H18	0.141620	0.044840	0.517830
H191	H19	0.733350	0.680620	0.267760
H201	H20	0.759820	0.917000	0.220020
H211	H21	0.767370	0.564880	0.501820
H221	H22	0.761730	0.075680	0.035090
H231	H23	0.758550	0.090820	0.464810
H241	H24	0.029040	0.785070	0.366110
H251	H25	0.743190	0.845380	0.147960
H261	H26	0.282590	0.139620	0.599030
H271	H27	0.151270	0.587260	0.137090
H281	H28	0.626650	0.644580	0.412240
H291	H29	0.154760	0.928040	0.065840
H301	H30	0.904800	0.238060	0.660230
H311	H31	0.760670	0.770580	0.362830
H321	H32	0.153350	0.018480	0.960520
H331	H33	0.144420	0.951360	0.416030
H341	H34	0.297310	0.417230	0.944190
H351	H35	0.156810	0.483310	0.042880
H361	H36	0.743220	0.496420	0.890200
H371	H37	0.154660	0.364460	0.847760
H381	H38	0.026300	0.912780	0.210560
H391	H39	0.298250	0.111760	0.879910
H401	H40	0.758710	0.171820	0.931400
H411	H41	0.753750	0.873230	0.346350
H421	H42	0.606160	0.659630	0.088310
H431	H43	0.007590	0.835010	0.144880
H441	H44	0.164850	0.273260	0.637630
H451	H45	0.911880	0.251720	0.851280
H461	H46	0.179580	0.426090	0.769300
H471	H47	0.624860	0.978190	0.108730
H481	H48	0.762670	0.477780	0.610430
C11	C1	0.968850	0.855290	0.198900
C21	C2	0.249560	0.983810	0.432580
C31	C3	0.526310	0.039980	0.016620
C41	C4	0.524270	0.398420	0.853720
C51	C5	0.254150	0.578930	0.104220
C61	C6	0.257730	0.522490	0.052540
C71	C7	0.380820	0.627740	0.116720
C81	C8	0.259030	0.960650	0.049950
C91	C9	0.524390	0.213180	0.653960
C101	C10	0.382800	0.550420	0.528360
C111	C11	0.522030	0.988360	0.074680
C121	C12	0.940510	0.240800	0.793480
C131	C13	0.385480	0.893700	0.151500
C141	C14	0.390130	0.949230	0.091290
C151	C15	0.382600	0.074980	0.510490
C161	C16	0.799440	0.858940	0.201810
C171	C17	0.248420	0.626400	0.440820
C181	C18	0.260110	0.009770	0.992260
C191	C19	0.528930	0.142920	0.900970
C201	C20	0.515090	0.008300	0.415660
C211	C21	0.398920	0.101420	0.915330
C221	C22	0.393420	0.050290	0.973790
C231	C23	0.383330	0.969340	0.396220
C241	C24	0.385400	0.650940	0.410990
C251	C25	0.961660	0.721900	0.238000
C261	C26	0.654090	0.147670	0.553940
C271	C27	0.792150	0.724240	0.232370
C281	C28	0.515100	0.563220	0.023280
C291	C29	0.117480	0.373600	0.790400
C301	C30	0.384670	0.707930	0.352550
C311	C31	0.107960	0.235500	0.783540
C321	C32	0.521190	0.160800	0.591480
C331	C33	0.528540	0.201380	0.843460
C341	C34	0.659180	0.133790	0.944010
C351	C35	0.384120	0.909490	0.339980
C361	C36	0.644120	0.556670	0.980470
C371	C37	0.517590	0.061670	0.472400
C381	C38	0.658490	0.083140	0.000420
C391	C39	0.936540	0.298520	0.676680
C401	C40	0.509180	0.618900	0.077670
C411	C41	0.519830	0.624500	0.438020
C421	C42	0.248710	0.035090	0.488570
C431	C43	0.386920	0.126310	0.568930
C441	C44	0.246480	0.577310	0.498340
C451	C45	0.803400	0.818270	0.327020
C461	C46	0.520240	0.474470	0.614720
C471	C47	0.377770	0.692000	0.168850
C481	C48	0.656970	0.500010	0.585550
C491	C49	0.104740	0.313380	0.674780
C501	C50	0.948350	0.378740	0.783650
C511	C51	0.393110	0.458820	0.954980
C521	C52	0.385480	0.499520	0.586880
C531	C53	0.652180	0.100560	0.494770
C541	C54	0.522700	0.413020	0.668900
C551	C55	0.644990	0.503470	0.926190
C561	C56	0.387130	0.513920	0.010270
C571	C57	0.973360	0.823400	0.325240
C581	C58	0.521840	0.574370	0.497130
C591	C59	0.519210	0.454260	0.913460
C601	C60	0.658240	0.547620	0.527050
N11	N1	0.025890	0.799960	0.253200
N21	N2	0.740250	0.801410	0.253840
N31	N3	0.168840	0.306280	0.749050
N41	N4	0.883180	0.306860	0.751710
O11	O1	0.510820	0.877440	0.330060
O21	O2	0.258540	0.739360	0.337580
O31	O3	0.251960	0.706300	0.197640
O41	O4	0.511260	0.721900	0.322170
O51	O5	0.398120	0.243540	0.669050
O61	O6	0.509360	0.885510	0.187000
O71	O7	0.404050	0.357340	0.842010
O81	O8	0.650620	0.224480	0.687350
O91	O9	0.648400	0.378280	0.676260
O101	O10	0.400290	0.397620	0.702170
O111	O11	0.260040	0.858420	0.163470
O121	O12	0.502710	0.729410	0.179390
O131	O13	0.650920	0.241300	0.835670
O141	O14	0.646950	0.395820	0.818570
O151	O15	0.258840	0.892880	0.307340
O161	O16	0.405160	0.208750	0.807380
