data_MIFGEP_clean_PM
_symmetry_space_group_name_H-M	'P1'
_cell_length_a	8.986000
_cell_length_b	14.915000
_cell_length_c	26.759000
_cell_angle_alpha	96.272000
_cell_angle_beta	90.000000
_cell_angle_gamma	90.000000
_symmetry_Int_Tables_number 1

loop_
_symmetry_equiv_pos_as_xyz
'x,y,z'

loop_
_atom_site_label
_atom_site_type_symbol
_atom_site_fract_x
_atom_site_fract_y
_atom_site_fract_z
Cd11	Cd1	0.812280	0.558840	0.858510
Cd21	Cd2	0.687720	0.058840	0.358510
H11	H1	0.997600	0.408600	0.996100
H21	H2	0.982200	0.248500	0.865400
H31	H3	0.402400	0.682000	0.974900
H41	H4	0.257600	0.798200	0.012600
H51	H5	0.464400	0.971000	0.930700
H61	H6	0.608500	0.854300	0.893300
H71	H7	0.230900	0.921600	0.068300
H81	H8	0.031300	0.161700	0.065900
H91	H9	0.256200	0.051700	0.944900
H101	H10	0.229800	0.971200	0.156500
H111	H11	0.124300	0.965200	0.234700
H121	H12	0.758400	0.086400	0.191100
H131	H13	0.862400	0.096000	0.113100
H141	H14	0.091600	0.291300	0.035500
H151	H15	0.076300	0.130900	0.905000
H161	H16	0.502400	0.908600	0.496100
H171	H17	0.517800	0.748500	0.365400
H181	H18	0.097600	0.182000	0.474900
H191	H19	0.242400	0.298200	0.512600
H201	H20	0.035600	0.471000	0.430700
H211	H21	0.891500	0.354300	0.393300
H221	H22	0.269100	0.421600	0.568300
H231	H23	0.468700	0.661700	0.565900
H241	H24	0.243800	0.551700	0.444900
H251	H25	0.270200	0.471200	0.656500
H261	H26	0.375700	0.465200	0.734700
H271	H27	0.741600	0.586400	0.691100
H281	H28	0.637600	0.596000	0.613100
H291	H29	0.408400	0.791300	0.535500
H301	H30	0.423700	0.630900	0.405000
C11	C1	0.012400	0.352700	0.977710
C21	C2	0.977500	0.341200	0.926730
C31	C3	0.003200	0.257100	0.899670
C41	C4	0.918200	0.417100	0.901180
C51	C5	0.861200	0.023300	0.271870
C61	C6	0.522000	0.755900	0.931070
C71	C7	0.415900	0.740200	0.966280
C81	C8	0.328900	0.810100	0.989020
C91	C9	0.347600	0.898200	0.976710
C101	C10	0.452400	0.913200	0.940090
C111	C11	0.538800	0.843200	0.917590
C121	C12	0.258100	0.974200	0.002480
C131	C13	0.207400	0.971000	0.051410
C141	C14	0.121400	0.041000	0.075400
C151	C15	0.088000	0.114800	0.050010
C161	C16	0.138100	0.120100	0.000970
C171	C17	0.222800	0.049100	0.977570
C181	C18	0.058800	0.035700	0.126080
C191	C19	0.135600	0.995400	0.163230
C201	C20	0.071500	0.991300	0.210110
C211	C21	0.931400	0.025100	0.220850
C221	C22	0.853600	0.063800	0.184230
C231	C23	0.916000	0.069500	0.137360
C241	C24	0.091400	0.197700	0.974730
C251	C25	0.068600	0.282300	0.001400
C261	C26	0.059500	0.186500	0.923440
C271	C27	0.619700	0.682000	0.907120
C281	C28	0.487600	0.852700	0.477710
C291	C29	0.522500	0.841200	0.426730
C301	C30	0.496800	0.757100	0.399670
C311	C31	0.581800	0.917100	0.401180
C321	C32	0.638800	0.523300	0.771870
C331	C33	0.978000	0.255900	0.431070
C341	C34	0.084100	0.240200	0.466280
C351	C35	0.171100	0.310100	0.489020
C361	C36	0.152400	0.398200	0.476710
C371	C37	0.047600	0.413200	0.440090
C381	C38	0.961200	0.343200	0.417590
C391	C39	0.241900	0.474200	0.502480
C401	C40	0.292600	0.471000	0.551410
C411	C41	0.378600	0.541000	0.575400
C421	C42	0.412000	0.614800	0.550010
C431	C43	0.361900	0.620100	0.500970
C441	C44	0.277200	0.549100	0.477570
C451	C45	0.441200	0.535700	0.626080
C461	C46	0.364400	0.495400	0.663230
C471	C47	0.428500	0.491300	0.710110
C481	C48	0.568600	0.525100	0.720850
C491	C49	0.646400	0.563800	0.684230
C501	C50	0.584000	0.569500	0.637360
C511	C51	0.408600	0.697700	0.474730
C521	C52	0.431400	0.782300	0.501400
C531	C53	0.440500	0.686500	0.423440
C541	C54	0.880300	0.182000	0.407120
O11	O1	0.932600	0.995300	0.306550
O21	O2	0.730400	0.054000	0.276760
O31	O3	0.884200	0.405370	0.856200
O41	O4	0.903400	0.493230	0.926330
O51	O5	0.721500	0.700450	0.878290
O61	O6	0.597400	0.602200	0.917200
O71	O7	0.567400	0.495300	0.806550
O81	O8	0.769600	0.554000	0.776760
O91	O9	0.615800	0.905370	0.356200
O101	O10	0.596600	0.993230	0.426330
O111	O11	0.778500	0.200450	0.378290
O121	O12	0.902600	0.102200	0.417200
Cd31	Cd3	0.312280	0.941160	0.641490
Cd41	Cd4	0.187720	0.441160	0.141490
H311	H31	0.497600	0.091400	0.503900
H321	H32	0.482200	0.251500	0.634600
H331	H33	0.902400	0.818000	0.525100
H341	H34	0.757600	0.701800	0.487400
H351	H35	0.964400	0.529000	0.569300
H361	H36	0.108500	0.645700	0.606700
H371	H37	0.730900	0.578400	0.431700
H381	H38	0.531300	0.338300	0.434100
H391	H39	0.756200	0.448300	0.555100
H401	H40	0.729800	0.528800	0.343500
H411	H41	0.624300	0.534800	0.265300
H421	H42	0.258400	0.413600	0.308900
H431	H43	0.362400	0.404000	0.386900
H441	H44	0.591600	0.208700	0.464500
H451	H45	0.576300	0.369100	0.595000
H461	H46	0.002400	0.591400	0.003900
H471	H47	0.017800	0.751500	0.134600
H481	H48	0.597600	0.318000	0.025100
H491	H49	0.742400	0.201800	0.987400
H501	H50	0.535600	0.029000	0.069300
H511	H51	0.391500	0.145700	0.106700
H521	H52	0.769100	0.078400	0.931700
H531	H53	0.968700	0.838300	0.934100
H541	H54	0.743800	0.948300	0.055100
H551	H55	0.770200	0.028800	0.843500
H561	H56	0.875700	0.034800	0.765300
H571	H57	0.241600	0.913600	0.808900
H581	H58	0.137600	0.904000	0.886900
H591	H59	0.908400	0.708700	0.964500
H601	H60	0.923700	0.869100	0.095000
C551	C55	0.512400	0.147300	0.522290
C561	C56	0.477500	0.158800	0.573270
C571	C57	0.503200	0.242900	0.600330
C581	C58	0.418200	0.082900	0.598820
C591	C59	0.361200	0.476700	0.228130
C601	C60	0.022000	0.744100	0.568930
C611	C61	0.915900	0.759800	0.533720
C621	C62	0.828900	0.689900	0.510980
C631	C63	0.847600	0.601800	0.523290
C641	C64	0.952400	0.586800	0.559910
C651	C65	0.038800	0.656800	0.582410
C661	C66	0.758100	0.525800	0.497520
C671	C67	0.707400	0.529000	0.448590
C681	C68	0.621400	0.459000	0.424600
C691	C69	0.588000	0.385200	0.449990
C701	C70	0.638100	0.379900	0.499030
C711	C71	0.722800	0.450900	0.522430
C721	C72	0.558800	0.464300	0.373920
C731	C73	0.635600	0.504600	0.336770
C741	C74	0.571500	0.508700	0.289890
C751	C75	0.431400	0.474900	0.279150
C761	C76	0.353600	0.436200	0.315770
C771	C77	0.416000	0.430500	0.362640
C781	C78	0.591400	0.302300	0.525270
C791	C79	0.568600	0.217700	0.498600
C801	C80	0.559500	0.313500	0.576560
C811	C81	0.119700	0.818000	0.592880
C821	C82	0.987600	0.647300	0.022290
C831	C83	0.022500	0.658800	0.073270
C841	C84	0.996800	0.742900	0.100330
C851	C85	0.081800	0.582900	0.098820
C861	C86	0.138800	0.976700	0.728130
C871	C87	0.478000	0.244100	0.068930
C881	C88	0.584100	0.259800	0.033720
C891	C89	0.671100	0.189900	0.010980
C901	C90	0.652400	0.101800	0.023290
C911	C91	0.547600	0.086800	0.059910
C921	C92	0.461200	0.156800	0.082410
C931	C93	0.741900	0.025800	0.997520
C941	C94	0.792600	0.029000	0.948590
C951	C95	0.878600	0.959000	0.924600
C961	C96	0.912000	0.885200	0.949990
C971	C97	0.861900	0.879900	0.999030
C981	C98	0.777200	0.950900	0.022430
C991	C99	0.941200	0.964300	0.873920
C1001	C100	0.864400	0.004600	0.836770
C1011	C101	0.928500	0.008700	0.789890
C1021	C102	0.068600	0.974900	0.779150
C1031	C103	0.146400	0.936200	0.815770
C1041	C104	0.084000	0.930500	0.862640
C1051	C105	0.908600	0.802300	0.025270
C1061	C106	0.931400	0.717700	0.998600
C1071	C107	0.940500	0.813500	0.076560
C1081	C108	0.380300	0.318000	0.092880
O131	O13	0.432600	0.504700	0.193450
O141	O14	0.230400	0.446000	0.223240
O151	O15	0.384200	0.094630	0.643800
O161	O16	0.403400	0.006770	0.573670
O171	O17	0.221500	0.799550	0.621710
O181	O18	0.097400	0.897800	0.582800
O191	O19	0.067400	0.004700	0.693450
O201	O20	0.269600	0.946000	0.723240
O211	O21	0.115800	0.594630	0.143800
O221	O22	0.096600	0.506770	0.073670
O231	O23	0.278500	0.299550	0.121710
O241	O24	0.402600	0.397800	0.082800
