data_MIFKUJ_clean_PM
_symmetry_space_group_name_H-M	'P1'
_cell_length_a	12.023900
_cell_length_b	13.482000
_cell_length_c	14.041400
_cell_angle_alpha	70.491000
_cell_angle_beta	77.141000
_cell_angle_gamma	89.312000
_symmetry_Int_Tables_number 1

loop_
_symmetry_equiv_pos_as_xyz
'x,y,z'

loop_
_atom_site_label
_atom_site_type_symbol
_atom_site_fract_x
_atom_site_fract_y
_atom_site_fract_z
Zn11	Zn1	0.072340	0.358110	0.983870
Zn21	Zn2	0.927660	0.641890	0.016130
H11	H1	0.066700	0.308700	0.691100
H21	H2	0.052900	0.238000	0.563600
H31	H3	0.966600	0.951100	0.784900
H41	H4	0.977400	0.023600	0.911200
H51	H5	0.094600	0.918700	0.630800
H61	H6	0.775100	0.103200	0.648100
H71	H7	0.655800	0.235000	0.659000
H81	H8	0.809700	0.412400	0.353800
H91	H9	0.933700	0.269200	0.352300
H101	H10	0.747800	0.076700	0.272300
H111	H11	0.862000	0.213700	0.135700
H121	H12	0.647800	0.422300	0.217200
H131	H13	0.529400	0.284500	0.342300
H141	H14	0.695100	0.032200	0.473200
H151	H15	0.491000	0.100200	0.219700
H161	H16	0.382200	0.179600	0.100900
H171	H17	0.141600	0.227200	0.317900
H181	H18	0.243100	0.147800	0.444500
H191	H19	0.933300	0.691300	0.308900
H201	H20	0.947100	0.762000	0.436400
H211	H21	0.033400	0.048900	0.215100
H221	H22	0.022600	0.976400	0.088800
H231	H23	0.905400	0.081300	0.369200
H241	H24	0.224900	0.896800	0.351900
H251	H25	0.344200	0.765000	0.341000
H261	H26	0.190300	0.587600	0.646200
H271	H27	0.066300	0.730800	0.647700
H281	H28	0.252200	0.923300	0.727700
H291	H29	0.138000	0.786300	0.864300
H301	H30	0.352200	0.577700	0.782800
H311	H31	0.470600	0.715500	0.657700
H321	H32	0.304900	0.967800	0.526800
H331	H33	0.509000	0.899800	0.780300
H341	H34	0.617800	0.820400	0.899100
H351	H35	0.858400	0.772800	0.682100
H361	H36	0.756900	0.852200	0.555500
C11	C1	0.023700	0.173500	0.812600
C21	C2	0.045500	0.235700	0.710400
C31	C3	0.037000	0.193600	0.634400
C41	C4	0.006000	0.089200	0.659900
C51	C5	0.985600	0.024500	0.765500
C61	C6	0.993200	0.067200	0.840200
C71	C7	0.029600	0.219600	0.895300
C81	C8	0.998400	0.040600	0.579700
C91	C9	0.056000	0.952500	0.577600
C101	C10	0.941800	0.087100	0.501300
C111	C11	0.867300	0.179500	0.500700
C121	C12	0.782000	0.166500	0.590400
C131	C13	0.710100	0.241500	0.596300
C141	C14	0.716800	0.322900	0.514200
C151	C15	0.804600	0.349000	0.411100
C161	C16	0.877300	0.265400	0.413000
C171	C17	0.629400	0.167400	0.321000
C181	C18	0.727100	0.147300	0.259700
C191	C19	0.796400	0.228800	0.179300
C201	C20	0.768000	0.332400	0.164100
C211	C21	0.667800	0.351800	0.227100
C221	C22	0.598700	0.270400	0.302500
C231	C23	0.843600	0.422100	0.084700
C241	C24	0.560900	0.079900	0.409300
C251	C25	0.614900	0.019600	0.484200
C261	C26	0.443000	0.059800	0.423900
C271	C27	0.377500	0.114700	0.345200
C281	C28	0.419100	0.125200	0.242000
C291	C29	0.352800	0.173300	0.171500
C301	C30	0.254900	0.209900	0.194700
C311	C31	0.213400	0.200500	0.298300
C321	C32	0.273200	0.153300	0.374300
C331	C33	0.196200	0.257200	0.093500
C341	C34	0.976300	0.826500	0.187400
C351	C35	0.954500	0.764300	0.289600
C361	C36	0.963000	0.806400	0.365600
C371	C37	0.994000	0.910800	0.340100
C381	C38	0.014400	0.975500	0.234500
C391	C39	0.006800	0.932800	0.159800
C401	C40	0.970400	0.780400	0.104700
C411	C41	0.001600	0.959400	0.420300
C421	C42	0.944000	0.047500	0.422400
C431	C43	0.058200	0.912900	0.498700
C441	C44	0.132700	0.820500	0.499300
C451	C45	0.218000	0.833500	0.409600
C461	C46	0.289900	0.758500	0.403700
C471	C47	0.283200	0.677100	0.485800
C481	C48	0.195400	0.651000	0.588900
C491	C49	0.122700	0.734600	0.587000
C501	C50	0.370600	0.832600	0.679000
C511	C51	0.272900	0.852700	0.740300
C521	C52	0.203600	0.771200	0.820700
C531	C53	0.232000	0.667600	0.835900
C541	C54	0.332200	0.648200	0.772900
C551	C55	0.401300	0.729600	0.697500
C561	C56	0.156400	0.577900	0.915300
C571	C57	0.439100	0.920100	0.590700
C581	C58	0.385100	0.980400	0.515800
C591	C59	0.557000	0.940200	0.576100
C601	C60	0.622500	0.885300	0.654800
C611	C61	0.580900	0.874800	0.758000
C621	C62	0.647200	0.826700	0.828500
C631	C63	0.745100	0.790100	0.805300
C641	C64	0.786600	0.799500	0.701700
C651	C65	0.726800	0.846700	0.625700
C661	C66	0.803800	0.742800	0.906500
O11	O1	0.991900	0.168700	0.987600
O21	O2	0.072100	0.313700	0.863800
O31	O3	0.917200	0.405260	0.013490
O41	O4	0.827400	0.512160	0.091300
O51	O5	0.249700	0.257500	0.007900
O61	O6	0.118600	0.288100	0.119700
O71	O7	0.008100	0.831300	0.012400
O81	O8	0.927900	0.686300	0.136200
O91	O9	0.082800	0.594740	0.986510
O101	O10	0.172600	0.487840	0.908700
O111	O11	0.750300	0.742500	0.992100
O121	O12	0.881400	0.711900	0.880300
