data_MIFQEY_clean_PM
_symmetry_space_group_name_H-M	'P1'
_cell_length_a	16.163000
_cell_length_b	9.912000
_cell_length_c	27.816000
_cell_angle_alpha	90.000000
_cell_angle_beta	98.809000
_cell_angle_gamma	90.000000
_symmetry_Int_Tables_number 1

loop_
_symmetry_equiv_pos_as_xyz
'x,y,z'

loop_
_atom_site_label
_atom_site_type_symbol
_atom_site_fract_x
_atom_site_fract_y
_atom_site_fract_z
Ba11	Ba1	0.206200	0.620600	0.770300
Ba21	Ba2	0.961300	0.843900	0.820100
Na11	Na1	0.814000	0.810400	0.558200
Co11	Co1	0.065000	0.009300	0.691500
Co21	Co2	0.098800	0.455200	0.896900
O11	O1	0.279800	0.835200	0.718800
O21	O2	0.143000	0.868600	0.715100
O31	O3	0.958200	0.783200	0.584300
O41	O4	0.988400	0.887800	0.656200
O51	O5	0.864000	0.051900	0.750400
O61	O6	0.995300	0.006700	0.741300
O71	O7	0.168200	0.351700	0.740100
O81	O8	0.142700	0.133200	0.725600
O91	O9	0.884300	0.633500	0.870800
O101	O10	0.019300	0.591000	0.871500
O111	O11	0.198300	0.702500	0.999400
O121	O12	0.172900	0.582800	0.930900
O131	O13	0.302800	0.415100	0.840500
O141	O14	0.170000	0.455000	0.847300
O151	O15	0.003000	0.107800	0.848500
O161	O16	0.024100	0.327000	0.863400
N11	N1	0.123000	0.011200	0.635800
N21	N2	0.999900	0.165400	0.667800
N31	N3	0.040300	0.455700	0.952600
N41	N4	0.166100	0.303100	0.922800
C11	C1	0.103600	0.146500	0.612400
C21	C2	0.011200	0.176400	0.614800
C31	C3	0.212900	0.984100	0.656300
C41	C4	0.214100	0.889300	0.699600
C51	C5	0.088900	0.899000	0.602000
C61	C6	0.005000	0.852200	0.613200
C71	C7	0.912400	0.135800	0.677500
C81	C8	0.921500	0.061500	0.726600
C91	C9	0.034900	0.286500	0.696300
C101	C10	0.122200	0.259800	0.722600
C111	C11	0.060200	0.320800	0.976800
C121	C12	0.153800	0.295000	0.975400
C131	C13	0.950800	0.479200	0.931800
C141	C14	0.949500	0.574700	0.888200
C151	C15	0.073200	0.568900	0.985500
C161	C16	0.154100	0.623100	0.972200
C171	C17	0.252600	0.335100	0.913600
C181	C18	0.243600	0.405000	0.863200
C191	C19	0.134000	0.178400	0.895400
C201	C20	0.047000	0.201100	0.867000
Cl11	Cl1	0.182700	0.522900	0.623900
O171	O17	0.189700	0.592500	0.668800
O181	O18	0.103700	0.461300	0.610900
O191	O19	0.196100	0.617800	0.586200
O201	O20	0.246300	0.416900	0.627700
O211	O21	0.140300	0.819500	0.833600
O221	O22	0.026300	0.638700	0.756600
Ba31	Ba3	0.706200	0.120600	0.770300
Ba41	Ba4	0.461300	0.343900	0.820100
Na21	Na2	0.314000	0.310400	0.558200
Co31	Co3	0.565000	0.509300	0.691500
Co41	Co4	0.598800	0.955200	0.896900
O231	O23	0.779800	0.335200	0.718800
O241	O24	0.643000	0.368600	0.715100
O251	O25	0.458200	0.283200	0.584300
O261	O26	0.488400	0.387800	0.656200
O271	O27	0.364000	0.551900	0.750400
O281	O28	0.495300	0.506700	0.741300
O291	O29	0.668200	0.851700	0.740100
O301	O30	0.642700	0.633200	0.725600
O311	O31	0.384300	0.133500	0.870800
O321	O32	0.519300	0.091000	0.871500
O331	O33	0.698300	0.202500	0.999400
O341	O34	0.672900	0.082800	0.930900
O351	O35	0.802800	0.915100	0.840500
O361	O36	0.670000	0.955000	0.847300
O371	O37	0.503000	0.607800	0.848500
O381	O38	0.524100	0.827000	0.863400
N51	N5	0.623000	0.511200	0.635800
N61	N6	0.499900	0.665400	0.667800
N71	N7	0.540300	0.955700	0.952600
N81	N8	0.666100	0.803100	0.922800
C211	C21	0.603600	0.646500	0.612400
C221	C22	0.511200	0.676400	0.614800
C231	C23	0.712900	0.484100	0.656300
C241	C24	0.714100	0.389300	0.699600
C251	C25	0.588900	0.399000	0.602000
C261	C26	0.505000	0.352200	0.613200
C271	C27	0.412400	0.635800	0.677500
C281	C28	0.421500	0.561500	0.726600
C291	C29	0.534900	0.786500	0.696300
C301	C30	0.622200	0.759800	0.722600
C311	C31	0.560200	0.820800	0.976800
C321	C32	0.653800	0.795000	0.975400
C331	C33	0.450800	0.979200	0.931800
C341	C34	0.449500	0.074700	0.888200
C351	C35	0.573200	0.068900	0.985500
C361	C36	0.654100	0.123100	0.972200
C371	C37	0.752600	0.835100	0.913600
C381	C38	0.743600	0.905000	0.863200
C391	C39	0.634000	0.678400	0.895400
C401	C40	0.547000	0.701100	0.867000
Cl21	Cl2	0.682700	0.022900	0.623900
O391	O39	0.689700	0.092500	0.668800
O401	O40	0.603700	0.961300	0.610900
O411	O41	0.696100	0.117800	0.586200
O421	O42	0.746300	0.916900	0.627700
O431	O43	0.640300	0.319500	0.833600
O441	O44	0.526300	0.138700	0.756600
Ba51	Ba5	0.206200	0.379400	0.270300
Ba61	Ba6	0.961300	0.156100	0.320100
Na31	Na3	0.814000	0.189600	0.058200
Co51	Co5	0.065000	0.990700	0.191500
Co61	Co6	0.098800	0.544800	0.396900
O451	O45	0.279800	0.164800	0.218800
O461	O46	0.143000	0.131400	0.215100
O471	O47	0.958200	0.216800	0.084300
O481	O48	0.988400	0.112200	0.156200
O491	O49	0.864000	0.948100	0.250400
O501	O50	0.995300	0.993300	0.241300
O511	O51	0.168200	0.648300	0.240100
O521	O52	0.142700	0.866800	0.225600
O531	O53	0.884300	0.366500	0.370800
O541	O54	0.019300	0.409000	0.371500
O551	O55	0.198300	0.297500	0.499400
O561	O56	0.172900	0.417200	0.430900
O571	O57	0.302800	0.584900	0.340500
O581	O58	0.170000	0.545000	0.347300
O591	O59	0.003000	0.892200	0.348500
O601	O60	0.024100	0.673000	0.363400
N91	N9	0.123000	0.988800	0.135800
N101	N10	0.999900	0.834600	0.167800
N111	N11	0.040300	0.544300	0.452600
N121	N12	0.166100	0.696900	0.422800
C411	C41	0.103600	0.853500	0.112400
C421	C42	0.011200	0.823600	0.114800
C431	C43	0.212900	0.015900	0.156300
C441	C44	0.214100	0.110700	0.199600
C451	C45	0.088900	0.101000	0.102000
C461	C46	0.005000	0.147800	0.113200
C471	C47	0.912400	0.864200	0.177500
C481	C48	0.921500	0.938500	0.226600
C491	C49	0.034900	0.713500	0.196300
C501	C50	0.122200	0.740200	0.222600
C511	C51	0.060200	0.679200	0.476800
C521	C52	0.153800	0.705000	0.475400
C531	C53	0.950800	0.520800	0.431800
C541	C54	0.949500	0.425300	0.388200
C551	C55	0.073200	0.431100	0.485500
C561	C56	0.154100	0.376900	0.472200
C571	C57	0.252600	0.664900	0.413600
C581	C58	0.243600	0.595000	0.363200
C591	C59	0.134000	0.821600	0.395400
C601	C60	0.047000	0.798900	0.367000
Cl31	Cl3	0.182700	0.477100	0.123900
O611	O61	0.189700	0.407500	0.168800
O621	O62	0.103700	0.538700	0.110900
O631	O63	0.196100	0.382200	0.086200
O641	O64	0.246300	0.583100	0.127700
O651	O65	0.140300	0.180500	0.333600
O661	O66	0.026300	0.361300	0.256600
Ba71	Ba7	0.706200	0.879400	0.270300
Ba81	Ba8	0.461300	0.656100	0.320100
Na41	Na4	0.314000	0.689600	0.058200
Co71	Co7	0.565000	0.490700	0.191500
Co81	Co8	0.598800	0.044800	0.396900
O671	O67	0.779800	0.664800	0.218800
O681	O68	0.643000	0.631400	0.215100
O691	O69	0.458200	0.716800	0.084300
O701	O70	0.488400	0.612200	0.156200
O711	O71	0.364000	0.448100	0.250400
O721	O72	0.495300	0.493300	0.241300
O731	O73	0.668200	0.148300	0.240100
O741	O74	0.642700	0.366800	0.225600
O751	O75	0.384300	0.866500	0.370800
O761	O76	0.519300	0.909000	0.371500
O771	O77	0.698300	0.797500	0.499400
O781	O78	0.672900	0.917200	0.430900
O791	O79	0.802800	0.084900	0.340500
O801	O80	0.670000	0.045000	0.347300
O811	O81	0.503000	0.392200	0.348500
O821	O82	0.524100	0.173000	0.363400
N131	N13	0.623000	0.488800	0.135800
N141	N14	0.499900	0.334600	0.167800
N151	N15	0.540300	0.044300	0.452600
N161	N16	0.666100	0.196900	0.422800
C611	C61	0.603600	0.353500	0.112400
C621	C62	0.511200	0.323600	0.114800
C631	C63	0.712900	0.515900	0.156300
C641	C64	0.714100	0.610700	0.199600
C651	C65	0.588900	0.601000	0.102000
C661	C66	0.505000	0.647800	0.113200
C671	C67	0.412400	0.364200	0.177500
C681	C68	0.421500	0.438500	0.226600
C691	C69	0.534900	0.213500	0.196300
C701	C70	0.622200	0.240200	0.222600
C711	C71	0.560200	0.179200	0.476800
C721	C72	0.653800	0.205000	0.475400
C731	C73	0.450800	0.020800	0.431800
C741	C74	0.449500	0.925300	0.388200
C751	C75	0.573200	0.931100	0.485500
C761	C76	0.654100	0.876900	0.472200
C771	C77	0.752600	0.164900	0.413600
C781	C78	0.743600	0.095000	0.363200
C791	C79	0.634000	0.321600	0.395400
C801	C80	0.547000	0.298900	0.367000
Cl41	Cl4	0.682700	0.977100	0.123900
O831	O83	0.689700	0.907500	0.168800
O841	O84	0.603700	0.038700	0.110900
O851	O85	0.696100	0.882200	0.086200
O861	O86	0.746300	0.083100	0.127700
O871	O87	0.640300	0.680500	0.333600
O881	O88	0.526300	0.861300	0.256600
