data_MIFQOJ_clean_PM
_symmetry_space_group_name_H-M	'P1'
_cell_length_a	14.107000
_cell_length_b	17.275000
_cell_length_c	17.275000
_cell_angle_alpha	120.000000
_cell_angle_beta	90.000000
_cell_angle_gamma	90.000000
_symmetry_Int_Tables_number 1

loop_
_symmetry_equiv_pos_as_xyz
'x,y,z'

loop_
_atom_site_label
_atom_site_type_symbol
_atom_site_fract_x
_atom_site_fract_y
_atom_site_fract_z
Mn11	Mn1	0.896160	0.333330	0.666660
Mn21	Mn2	0.603840	0.333330	0.666660
Mn31	Mn3	0.103840	0.666670	0.333340
Mn41	Mn4	0.396160	0.666670	0.333340
H11	H1	0.615400	0.064700	0.570900
H21	H2	0.591400	0.785400	0.368300
H31	H3	0.352900	0.784900	0.561200
H41	H4	0.337200	0.904000	0.705200
H51	H5	0.445200	0.020200	0.762500
H61	H6	0.564200	0.027100	0.674500
H71	H7	0.615400	0.506200	0.935300
H81	H8	0.591400	0.582900	0.214600
H91	H9	0.352900	0.776300	0.215100
H101	H10	0.337200	0.801200	0.096000
H111	H11	0.445200	0.742300	0.979800
H121	H12	0.564200	0.647400	0.972900
H131	H13	0.615400	0.429100	0.493800
H141	H14	0.591400	0.631700	0.417100
H151	H15	0.352900	0.438800	0.223700
H161	H16	0.337200	0.294800	0.198800
H171	H17	0.445200	0.237500	0.257700
H181	H18	0.564200	0.325500	0.352600
H191	H19	0.884600	0.506200	0.570900
H201	H20	0.908600	0.582900	0.368300
H211	H21	0.147100	0.776300	0.561200
H221	H22	0.162800	0.801200	0.705200
H231	H23	0.054800	0.742300	0.762500
H241	H24	0.935800	0.647400	0.674500
H251	H25	0.884600	0.429100	0.935300
H261	H26	0.908600	0.631700	0.214600
H271	H27	0.147100	0.438800	0.215100
H281	H28	0.162800	0.294800	0.096000
H291	H29	0.054800	0.237500	0.979800
H301	H30	0.935800	0.325500	0.972900
H311	H31	0.884600	0.064700	0.493800
H321	H32	0.908600	0.785400	0.417100
H331	H33	0.147100	0.784900	0.223700
H341	H34	0.162800	0.904000	0.198800
H351	H35	0.054800	0.020200	0.257700
H361	H36	0.935800	0.027100	0.352600
H371	H37	0.384600	0.935300	0.429100
H381	H38	0.408600	0.214600	0.631700
H391	H39	0.647100	0.215100	0.438800
H401	H40	0.662800	0.096000	0.294800
H411	H41	0.554800	0.979800	0.237500
H421	H42	0.435800	0.972900	0.325500
H431	H43	0.384600	0.493800	0.064700
H441	H44	0.408600	0.417100	0.785400
H451	H45	0.647100	0.223700	0.784900
H461	H46	0.662800	0.198800	0.904000
H471	H47	0.554800	0.257700	0.020200
H481	H48	0.435800	0.352600	0.027100
H491	H49	0.384600	0.570900	0.506200
H501	H50	0.408600	0.368300	0.582900
H511	H51	0.647100	0.561200	0.776300
H521	H52	0.662800	0.705200	0.801200
H531	H53	0.554800	0.762500	0.742300
H541	H54	0.435800	0.674500	0.647400
H551	H55	0.115400	0.493800	0.429100
H561	H56	0.091400	0.417100	0.631700
H571	H57	0.852900	0.223700	0.438800
H581	H58	0.837200	0.198800	0.294800
H591	H59	0.945200	0.257700	0.237500
H601	H60	0.064200	0.352600	0.325500
H611	H61	0.115400	0.570900	0.064700
H621	H62	0.091400	0.368300	0.785400
H631	H63	0.852900	0.561200	0.784900
H641	H64	0.837200	0.705200	0.904000
H651	H65	0.945200	0.762500	0.020200
H661	H66	0.064200	0.674500	0.027100
H671	H67	0.115400	0.935300	0.506200
H681	H68	0.091400	0.214600	0.582900
H691	H69	0.852900	0.215100	0.776300
H701	H70	0.837200	0.096000	0.801200
H711	H71	0.945200	0.979800	0.742300
H721	H72	0.064200	0.972900	0.647400
H731	H73	0.750000	0.832400	0.416200
H741	H74	0.750000	0.583800	0.167600
H751	H75	0.750000	0.583800	0.416200
H761	H76	0.250000	0.167600	0.583800
H771	H77	0.250000	0.416200	0.832400
H781	H78	0.250000	0.416200	0.583800
C11	C1	0.669530	0.033780	0.540290
C21	C2	0.670820	0.941240	0.494480
C31	C3	0.561600	0.811800	0.423720
C41	C4	0.465430	0.836590	0.530180
C51	C5	0.394300	0.833300	0.583100
C61	C6	0.386300	0.903600	0.669000
C71	C7	0.450900	0.974900	0.703300
C81	C8	0.522000	0.979400	0.651900
C91	C9	0.528200	0.909590	0.564520
C101	C10	0.669530	0.506510	0.966220
C111	C11	0.670820	0.553240	0.058760
C121	C12	0.561600	0.611920	0.188200
C131	C13	0.465430	0.693590	0.163410
C141	C14	0.394300	0.749800	0.166700
C151	C15	0.386300	0.765400	0.096400
C161	C16	0.450900	0.728400	0.025100
C171	C17	0.522000	0.672500	0.020600
C181	C18	0.528200	0.654930	0.090410
C191	C19	0.669530	0.459710	0.493490
C201	C20	0.670820	0.505520	0.446760
C211	C21	0.561600	0.576280	0.388080
C221	C22	0.465430	0.469820	0.306410
C231	C23	0.394300	0.416900	0.250200
C241	C24	0.386300	0.331000	0.234600
C251	C25	0.450900	0.296700	0.271600
C261	C26	0.522000	0.348100	0.327500
C271	C27	0.528200	0.435480	0.345070
C281	C28	0.830470	0.506510	0.540290
C291	C29	0.829180	0.553240	0.494480
C301	C30	0.938400	0.611920	0.423720
C311	C31	0.034570	0.693590	0.530180
C321	C32	0.105700	0.749800	0.583100
C331	C33	0.113700	0.765400	0.669000
C341	C34	0.049100	0.728400	0.703300
C351	C35	0.978000	0.672500	0.651900
C361	C36	0.971800	0.654930	0.564520
C371	C37	0.830470	0.459710	0.966220
C381	C38	0.829180	0.505520	0.058760
C391	C39	0.938400	0.576280	0.188200
C401	C40	0.034570	0.469820	0.163410
C411	C41	0.105700	0.416900	0.166700
C421	C42	0.113700	0.331000	0.096400
C431	C43	0.049100	0.296700	0.025100
C441	C44	0.978000	0.348100	0.020600
C451	C45	0.971800	0.435480	0.090410
C461	C46	0.830470	0.033780	0.493490
C471	C47	0.829180	0.941240	0.446760
C481	C48	0.938400	0.811800	0.388080
C491	C49	0.034570	0.836590	0.306410
C501	C50	0.105700	0.833300	0.250200
C511	C51	0.113700	0.903600	0.234600
C521	C52	0.049100	0.974900	0.271600
C531	C53	0.978000	0.979400	0.327500
C541	C54	0.971800	0.909590	0.345070
C551	C55	0.330470	0.966220	0.459710
C561	C56	0.329180	0.058760	0.505520
C571	C57	0.438400	0.188200	0.576280
C581	C58	0.534570	0.163410	0.469820
C591	C59	0.605700	0.166700	0.416900
C601	C60	0.613700	0.096400	0.331000
C611	C61	0.549100	0.025100	0.296700
C621	C62	0.478000	0.020600	0.348100
C631	C63	0.471800	0.090410	0.435480
C641	C64	0.330470	0.493490	0.033780
C651	C65	0.329180	0.446760	0.941240
C661	C66	0.438400	0.388080	0.811800
C671	C67	0.534570	0.306410	0.836590
C681	C68	0.605700	0.250200	0.833300
C691	C69	0.613700	0.234600	0.903600
C701	C70	0.549100	0.271600	0.974900
C711	C71	0.478000	0.327500	0.979400
C721	C72	0.471800	0.345070	0.909590
C731	C73	0.330470	0.540290	0.506510
C741	C74	0.329180	0.494480	0.553240
C751	C75	0.438400	0.423720	0.611920
C761	C76	0.534570	0.530180	0.693590
C771	C77	0.605700	0.583100	0.749800
C781	C78	0.613700	0.669000	0.765400
C791	C79	0.549100	0.703300	0.728400
C801	C80	0.478000	0.651900	0.672500
C811	C81	0.471800	0.564520	0.654930
C821	C82	0.169530	0.493490	0.459710
C831	C83	0.170820	0.446760	0.505520
C841	C84	0.061600	0.388080	0.576280
C851	C85	0.965430	0.306410	0.469820
C861	C86	0.894300	0.250200	0.416900
C871	C87	0.886300	0.234600	0.331000
C881	C88	0.950900	0.271600	0.296700
C891	C89	0.022000	0.327500	0.348100
C901	C90	0.028200	0.345070	0.435480
C911	C91	0.169530	0.540290	0.033780
C921	C92	0.170820	0.494480	0.941240
C931	C93	0.061600	0.423720	0.811800
C941	C94	0.965430	0.530180	0.836590
C951	C95	0.894300	0.583100	0.833300
C961	C96	0.886300	0.669000	0.903600
C971	C97	0.950900	0.703300	0.974900
C981	C98	0.022000	0.651900	0.979400
C991	C99	0.028200	0.564520	0.909590
C1001	C100	0.169530	0.966220	0.506510
C1011	C101	0.170820	0.058760	0.553240
C1021	C102	0.061600	0.188200	0.611920
C1031	C103	0.965430	0.163410	0.693590
C1041	C104	0.894300	0.166700	0.749800
C1051	C105	0.886300	0.096400	0.765400
C1061	C106	0.950900	0.025100	0.728400
C1071	C107	0.022000	0.020600	0.672500
C1081	C108	0.028200	0.090410	0.654930
C1091	C109	0.750000	0.180000	0.590000
C1101	C110	0.750000	0.079900	0.539950
C1111	C111	0.750000	0.894600	0.447300
C1121	C112	0.750000	0.410000	0.820000
C1131	C113	0.750000	0.460050	0.920100
C1141	C114	0.750000	0.552700	0.105400
C1151	C115	0.750000	0.410000	0.590000
C1161	C116	0.750000	0.460050	0.539950
C1171	C117	0.750000	0.552700	0.447300
C1181	C118	0.250000	0.820000	0.410000
C1191	C119	0.250000	0.920100	0.460050
C1201	C120	0.250000	0.105400	0.552700
C1211	C121	0.250000	0.590000	0.180000
C1221	C122	0.250000	0.539950	0.079900
C1231	C123	0.250000	0.447300	0.894600
C1241	C124	0.250000	0.590000	0.410000
C1251	C125	0.250000	0.539950	0.460050
C1261	C126	0.250000	0.447300	0.552700
N11	N1	0.589620	0.891700	0.494250
N21	N2	0.488720	0.775570	0.441280
N31	N3	0.589620	0.602550	0.108300
N41	N4	0.488720	0.665710	0.224430
N51	N5	0.589620	0.505750	0.397450
N61	N6	0.488720	0.558720	0.334290
N71	N7	0.910380	0.602550	0.494250
N81	N8	0.011280	0.665710	0.441280
N91	N9	0.910380	0.505750	0.108300
N101	N10	0.011280	0.558720	0.224430
N111	N11	0.910380	0.891700	0.397450
N121	N12	0.011280	0.775570	0.334290
N131	N13	0.410380	0.108300	0.505750
N141	N14	0.511280	0.224430	0.558720
N151	N15	0.410380	0.397450	0.891700
N161	N16	0.511280	0.334290	0.775570
N171	N17	0.410380	0.494250	0.602550
N181	N18	0.511280	0.441280	0.665710
N191	N19	0.089620	0.397450	0.505750
N201	N20	0.988720	0.334290	0.558720
N211	N21	0.089620	0.494250	0.891700
N221	N22	0.988720	0.441280	0.775570
N231	N23	0.089620	0.108300	0.602550
N241	N24	0.988720	0.224430	0.665710
O11	O1	0.817870	0.218000	0.574930
O21	O2	0.817870	0.356930	0.782000
O31	O3	0.817870	0.425070	0.643070
O41	O4	0.682130	0.356930	0.574930
O51	O5	0.682130	0.425070	0.782000
O61	O6	0.682130	0.218000	0.643070
O71	O7	0.182130	0.782000	0.425070
O81	O8	0.182130	0.643070	0.218000
O91	O9	0.182130	0.574930	0.356930
O101	O10	0.317870	0.643070	0.425070
O111	O11	0.317870	0.574930	0.218000
O121	O12	0.317870	0.782000	0.356930
