data_MIFROK_clean_PM
_symmetry_space_group_name_H-M	'P1'
_cell_length_a	11.325400
_cell_length_b	33.042600
_cell_length_c	33.042600
_cell_angle_alpha	88.317000
_cell_angle_beta	80.132200
_cell_angle_gamma	80.132200
_symmetry_Int_Tables_number 1

loop_
_symmetry_equiv_pos_as_xyz
'x,y,z'

loop_
_atom_site_label
_atom_site_type_symbol
_atom_site_fract_x
_atom_site_fract_y
_atom_site_fract_z
La11	La1	0.459580	0.329000	0.529400
La21	La2	0.965980	0.327730	0.526190
La31	La3	0.817980	0.171000	0.970600
La41	La4	0.319900	0.172270	0.973810
La51	La5	0.988980	0.470600	0.829000
La61	La6	0.492170	0.473810	0.827730
La71	La7	0.788580	0.029400	0.671000
La81	La8	0.293710	0.026190	0.672270
La91	La9	0.540420	0.671000	0.470600
La101	La10	0.034020	0.672270	0.473810
La111	La11	0.182020	0.829000	0.029400
La121	La12	0.680100	0.827730	0.026190
La131	La13	0.011020	0.529400	0.171000
La141	La14	0.507830	0.526190	0.172270
La151	La15	0.211420	0.970600	0.329000
La161	La16	0.706290	0.973810	0.327730
Co11	Co1	0.954530	0.462810	0.370250
Co21	Co2	0.287590	0.037190	0.129750
Co31	Co3	0.324780	0.629750	0.962810
Co41	Co4	0.417340	0.870250	0.537190
Co51	Co5	0.045470	0.537190	0.629750
Co61	Co6	0.712410	0.962810	0.870250
Co71	Co7	0.675220	0.370250	0.037190
Co81	Co8	0.582660	0.129750	0.462810
H11	H1	0.740300	0.188800	0.412800
H21	H2	0.707200	0.243800	0.371200
H31	H3	0.509600	0.280200	0.374000
H41	H4	0.121300	0.208900	0.542700
H51	H5	0.151400	0.137700	0.537900
H61	H6	0.323200	0.104300	0.498500
H71	H7	0.083700	0.474700	0.702300
H81	H8	0.047500	0.407700	0.714300
H91	H9	0.032300	0.368500	0.658900
H101	H10	0.257600	0.462700	0.474300
H111	H11	0.151100	0.528400	0.473200
H121	H12	0.044200	0.558500	0.533900
H131	H13	0.672600	0.502100	0.384100
H141	H14	0.509500	0.494900	0.434300
H151	H15	0.529800	0.439300	0.478900
H161	H16	0.001100	0.289700	0.372100
H171	H17	0.174500	0.318500	0.353500
H181	H18	0.161900	0.388000	0.360400
H191	H19	0.873200	0.186900	0.544300
H201	H20	0.805500	0.129700	0.575300
H211	H21	0.686000	0.136700	0.637100
H221	H22	0.602100	0.364300	0.655900
H231	H23	0.682300	0.358700	0.717900
H241	H24	0.742700	0.293900	0.740900
H251	H25	0.841900	0.311200	0.087200
H261	H26	0.822200	0.256200	0.128800
H271	H27	0.663800	0.219800	0.126000
H281	H28	0.372900	0.291100	0.957300
H291	H29	0.327000	0.362300	0.962100
H301	H30	0.426000	0.395700	0.001500
H311	H31	0.760700	0.025300	0.797700
H321	H32	0.669500	0.092300	0.785700
H331	H33	0.559700	0.131500	0.841100
H341	H34	0.694600	0.037300	0.025700
H351	H35	0.652700	0.971600	0.026800
H361	H36	0.636600	0.941500	0.966100
H371	H37	0.058800	0.997900	0.115900
H381	H38	0.938700	0.005100	0.065700
H391	H39	0.948000	0.060700	0.021100
H401	H40	0.162900	0.210300	0.127900
H411	H41	0.346500	0.181500	0.146500
H421	H42	0.410300	0.112000	0.139600
H431	H43	0.104400	0.313100	0.955700
H441	H44	0.010500	0.370300	0.924700
H451	H45	0.959800	0.363300	0.862900
H461	H46	0.122300	0.135700	0.844100
H471	H47	0.258900	0.141300	0.782100
H481	H48	0.277500	0.206100	0.759100
H491	H49	0.153100	0.587200	0.688800
H501	H50	0.078400	0.628800	0.743800
H511	H51	0.883600	0.626000	0.780200
H521	H52	0.664000	0.457300	0.708900
H531	H53	0.689300	0.462100	0.637700
H541	H54	0.821700	0.501500	0.604300
H551	H55	0.786000	0.297700	0.974700
H561	H56	0.761800	0.285700	0.907700
H571	H57	0.691200	0.341100	0.868500
H581	H58	0.731900	0.525700	0.962700
H591	H59	0.624300	0.526800	0.028400
H601	H60	0.578100	0.466100	0.058500
H611	H61	0.056700	0.615900	0.002100
H621	H62	0.943800	0.565700	0.994900
H631	H63	0.008700	0.521100	0.939300
H641	H64	0.373200	0.627900	0.789700
H651	H65	0.528000	0.646500	0.818500
H661	H66	0.522300	0.639600	0.888000
H671	H67	0.417500	0.455700	0.686900
H681	H68	0.380800	0.424700	0.629700
H691	H69	0.323100	0.362900	0.636700
H701	H70	0.258000	0.344100	0.864300
H711	H71	0.400200	0.282100	0.858700
H721	H72	0.483600	0.259100	0.793900
H731	H73	0.929100	0.912800	0.811200
H741	H74	0.951000	0.871200	0.756200
H751	H75	0.789800	0.874000	0.719800
H761	H76	0.330200	0.042700	0.791100
H771	H77	0.289100	0.037900	0.862300
H781	H78	0.427500	0.998500	0.895700
H791	H79	0.558400	0.202300	0.525300
H801	H80	0.455200	0.214300	0.592300
H811	H81	0.400800	0.158900	0.631500
H821	H82	0.720300	0.974300	0.537300
H831	H83	0.679500	0.973200	0.471600
H841	H84	0.602700	0.033900	0.441500
H851	H85	0.174700	0.884100	0.497900
H861	H86	0.004400	0.934300	0.505100
H871	H87	0.969100	0.978900	0.560700
H881	H88	0.290800	0.872100	0.710300
H891	H89	0.493000	0.853500	0.681500
H901	H90	0.549900	0.860400	0.612000
H911	H91	0.060100	0.044300	0.813100
H921	H92	0.935200	0.075300	0.870300
H931	H93	0.822700	0.137100	0.863300
H941	H94	0.966400	0.155900	0.635700
H951	H95	0.041000	0.217900	0.641300
H961	H96	0.036600	0.240900	0.706100
H971	H97	0.259700	0.811200	0.587200
H981	H98	0.292800	0.756200	0.628800
H991	H99	0.490400	0.719800	0.626000
H1001	H100	0.878700	0.791100	0.457300
H1011	H101	0.848600	0.862300	0.462100
H1021	H102	0.676800	0.895700	0.501500
H1031	H103	0.916300	0.525300	0.297700
H1041	H104	0.952500	0.592300	0.285700
H1051	H105	0.967700	0.631500	0.341100
H1061	H106	0.742400	0.537300	0.525700
H1071	H107	0.848900	0.471600	0.526800
H1081	H108	0.955800	0.441500	0.466100
H1091	H109	0.327400	0.497900	0.615900
H1101	H110	0.490500	0.505100	0.565700
H1111	H111	0.470200	0.560700	0.521100
H1121	H112	0.998900	0.710300	0.627900
H1131	H113	0.825500	0.681500	0.646500
H1141	H114	0.838100	0.612000	0.639600
H1151	H115	0.126800	0.813100	0.455700
H1161	H116	0.194500	0.870300	0.424700
H1171	H117	0.314000	0.863300	0.362900
H1181	H118	0.397900	0.635700	0.344100
H1191	H119	0.317700	0.641300	0.282100
H1201	H120	0.257300	0.706100	0.259100
H1211	H121	0.158100	0.688800	0.912800
H1221	H122	0.177800	0.743800	0.871200
H1231	H123	0.336200	0.780200	0.874000
H1241	H124	0.627100	0.708900	0.042700
H1251	H125	0.673000	0.637700	0.037900
H1261	H126	0.574000	0.604300	0.998500
H1271	H127	0.239300	0.974700	0.202300
H1281	H128	0.330500	0.907700	0.214300
H1291	H129	0.440300	0.868500	0.158900
H1301	H130	0.305400	0.962700	0.974300
H1311	H131	0.347300	0.028400	0.973200
H1321	H132	0.363400	0.058500	0.033900
H1331	H133	0.941200	0.002100	0.884100
H1341	H134	0.061300	0.994900	0.934300
H1351	H135	0.052000	0.939300	0.978900
H1361	H136	0.837100	0.789700	0.872100
H1371	H137	0.653500	0.818500	0.853500
H1381	H138	0.589700	0.888000	0.860400
H1391	H139	0.895600	0.686900	0.044300
H1401	H140	0.989500	0.629700	0.075300
H1411	H141	0.040200	0.636700	0.137100
H1421	H142	0.877700	0.864300	0.155900
H1431	H143	0.741100	0.858700	0.217900
H1441	H144	0.722500	0.793900	0.240900
H1451	H145	0.846900	0.412800	0.311200
H1461	H146	0.921600	0.371200	0.256200
H1471	H147	0.116400	0.374000	0.219800
H1481	H148	0.336000	0.542700	0.291100
H1491	H149	0.310700	0.537900	0.362300
H1501	H150	0.178300	0.498500	0.395700
H1511	H151	0.214000	0.702300	0.025300
H1521	H152	0.238200	0.714300	0.092300
H1531	H153	0.308800	0.658900	0.131500
H1541	H154	0.268100	0.474300	0.037300
H1551	H155	0.375700	0.473200	0.971600
H1561	H156	0.421900	0.533900	0.941500
H1571	H157	0.943300	0.384100	0.997900
H1581	H158	0.056200	0.434300	0.005100
H1591	H159	0.991300	0.478900	0.060700
H1601	H160	0.626800	0.372100	0.210300
H1611	H161	0.472000	0.353500	0.181500
H1621	H162	0.477700	0.360400	0.112000
H1631	H163	0.582500	0.544300	0.313100
H1641	H164	0.619200	0.575300	0.370300
H1651	H165	0.676900	0.637100	0.363300
H1661	H166	0.742000	0.655900	0.135700
H1671	H167	0.599800	0.717900	0.141300
H1681	H168	0.516400	0.740900	0.206100
H1691	H169	0.070900	0.087200	0.188800
H1701	H170	0.049000	0.128800	0.243800
H1711	H171	0.210200	0.126000	0.280200
H1721	H172	0.669800	0.957300	0.208900
H1731	H173	0.710900	0.962100	0.137700
H1741	H174	0.572500	0.001500	0.104300
H1751	H175	0.441600	0.797700	0.474700
H1761	H176	0.544800	0.785700	0.407700
H1771	H177	0.599200	0.841100	0.368500
H1781	H178	0.279700	0.025700	0.462700
H1791	H179	0.320500	0.026800	0.528400
H1801	H180	0.397300	0.966100	0.558500
H1811	H181	0.825300	0.115900	0.502100
H1821	H182	0.995600	0.065700	0.494900
H1831	H183	0.030900	0.021100	0.439300
H1841	H184	0.709200	0.127900	0.289700
H1851	H185	0.507000	0.146500	0.318500
H1861	H186	0.450100	0.139600	0.388000
H1871	H187	0.939900	0.955700	0.186900
H1881	H188	0.064800	0.924700	0.129700
H1891	H189	0.177300	0.862900	0.136700
H1901	H190	0.033600	0.844100	0.364300
H1911	H191	0.959000	0.782100	0.358700
H1921	H192	0.963400	0.759100	0.293900
C11	C1	0.661720	0.203290	0.414470
C21	C2	0.642810	0.236030	0.389350
C31	C3	0.524900	0.257920	0.391280
C41	C4	0.430340	0.245880	0.419440
C51	C5	0.303330	0.270560	0.420980
C61	C6	0.458890	0.211960	0.444660
C71	C7	0.368010	0.193870	0.474910
C81	C8	0.272450	0.216350	0.502350
C91	C9	0.263240	0.261280	0.510640
C101	C10	0.188990	0.194860	0.525560
C111	C11	0.207420	0.152480	0.523080
C121	C12	0.308590	0.132860	0.498760
C131	C13	0.081040	0.458250	0.680270
C141	C14	0.057600	0.418260	0.687740
C151	C15	0.049920	0.394880	0.654680
C161	C16	0.068440	0.410690	0.614830
C171	C17	0.039780	0.386480	0.581360
C181	C18	0.098270	0.449670	0.609990
C191	C19	0.124900	0.469800	0.569000
C201	C20	0.201560	0.452030	0.534650
C211	C21	0.282240	0.410060	0.536060
C221	C22	0.209930	0.474490	0.498250
C231	C23	0.148550	0.513670	0.497630
C241	C24	0.081990	0.531180	0.534040
C251	C25	0.676500	0.478410	0.400190
C261	C26	0.579800	0.475170	0.431030
C271	C27	0.591260	0.441620	0.456860
C281	C28	0.694650	0.411130	0.449970
C291	C29	0.781050	0.414920	0.415380
C301	C30	0.711150	0.378190	0.481710
C311	C31	0.890520	0.383690	0.399470
C321	C32	0.890500	0.341830	0.395170
C331	C33	0.780370	0.321670	0.409190
C341	C34	0.998690	0.317550	0.376470
C351	C35	0.101220	0.334670	0.364490
C361	C36	0.093070	0.376200	0.369260
C371	C37	0.852040	0.261660	0.571860
C381	C38	0.797380	0.226410	0.591230
C391	C39	0.826200	0.188850	0.570350
C401	C40	0.785300	0.155100	0.588300
C411	C41	0.714600	0.159800	0.625400
C421	C42	0.725200	0.228900	0.629900
C431	C43	0.698100	0.266560	0.655040
C441	C44	0.640300	0.302600	0.642000
C451	C45	0.581560	0.308640	0.602840
C461	C46	0.635200	0.338700	0.665300
C471	C47	0.680300	0.335600	0.702600
C481	C48	0.720700	0.296900	0.714900
C491	C49	0.779480	0.296710	0.085530
C501	C50	0.768190	0.263970	0.110650
C511	C51	0.674100	0.242080	0.108720
C521	C52	0.595660	0.254120	0.080560
C531	C53	0.494870	0.229440	0.079020
C541	C54	0.615510	0.288040	0.055340
C551	C55	0.536790	0.306130	0.025090
C561	C56	0.491150	0.283650	0.997650
C571	C57	0.535160	0.238720	0.989360
C581	C58	0.409410	0.305140	0.974440
C591	C59	0.382980	0.347520	0.976920
C601	C60	0.440210	0.367140	0.001240
C611	C61	0.719560	0.041750	0.819730
C621	C62	0.663600	0.081740	0.812260
C631	C63	0.599480	0.105120	0.845320
C641	C64	0.593960	0.089310	0.885170
C651	C65	0.507620	0.113520	0.918640
C661	C66	0.657930	0.050330	0.890010
C671	C67	0.663700	0.030200	0.931000
C681	C68	0.688240	0.047970	0.965350
C691	C69	0.728360	0.089940	0.963940
C701	C70	0.682670	0.025510	0.001750
C711	C71	0.659850	0.986330	0.002370
C721	C72	0.647210	0.968820	0.965960
C731	C73	0.055100	0.021590	0.099810
C741	C74	0.986000	0.024830	0.068970
C751	C75	0.989740	0.058380	0.043140
C761	C76	0.055750	0.088870	0.050030
C771	C77	0.111350	0.085080	0.084620
C781	C78	0.071050	0.121810	0.018290
C791	C79	0.173680	0.116310	0.100530
C801	C80	0.127500	0.158170	0.104830
C811	C81	0.011230	0.178330	0.090810
C821	C82	0.192710	0.182450	0.123530
C831	C83	0.300380	0.165330	0.135510
C841	C84	0.338530	0.123800	0.130740
C851	C85	0.185560	0.238340	0.928140
C861	C86	0.115020	0.273590	0.908770
C871	C87	0.085400	0.311150	0.929650
C881	C88	0.028700	0.344900	0.911700
C891	C89	0.999800	0.340200	0.874600
C901	C90	0.084000	0.271100	0.870100
C911	C91	0.119700	0.233440	0.844960
C921	C92	0.084900	0.197400	0.858000
C931	C93	0.993040	0.191360	0.897160
C941	C94	0.139200	0.161300	0.834700
C951	C95	0.218500	0.164400	0.797400
C961	C96	0.232500	0.203100	0.785100
C971	C97	0.076190	0.585530	0.703290
C981	C98	0.032160	0.610650	0.736030
C991	C99	0.916180	0.608720	0.757920
C1001	C100	0.849780	0.580560	0.745880
C1011	C101	0.724310	0.579020	0.770560
C1021	C102	0.903550	0.555340	0.711960
C1031	C103	0.842920	0.525090	0.693870
C1041	C104	0.774800	0.497650	0.716350
C1051	C105	0.773880	0.489360	0.761280
C1061	C106	0.714550	0.474440	0.694860
C1071	C107	0.730500	0.476920	0.652480
C1081	C108	0.807350	0.501240	0.632860
C1091	C109	0.761310	0.319730	0.958250
C1101	C110	0.745340	0.312260	0.918260
C1111	C111	0.704600	0.345320	0.894880
C1121	C112	0.683270	0.385170	0.910690
C1131	C113	0.621140	0.418640	0.886480
C1141	C114	0.708260	0.390010	0.949670
C1151	C115	0.693900	0.431000	0.969800
C1161	C116	0.736210	0.465350	0.952030
C1171	C117	0.818300	0.463940	0.910060
C1181	C118	0.708180	0.501750	0.974490
C1191	C119	0.646180	0.502370	0.013670
C1201	C120	0.616030	0.465960	0.031180
C1211	C121	0.076690	0.599810	0.978410
C1221	C122	0.010830	0.568970	0.975170
C1231	C123	0.048120	0.543140	0.941620
C1241	C124	0.144620	0.550030	0.911130
C1251	C125	0.196430	0.584620	0.914920
C1261	C126	0.192860	0.518290	0.878190
C1271	C127	0.289990	0.600530	0.883690
C1281	C128	0.285670	0.604830	0.841830
C1291	C129	0.189560	0.590810	0.821670
C1301	C130	0.375160	0.623530	0.817550
C1311	C131	0.465710	0.635510	0.834670
C1321	C132	0.462330	0.630740	0.876200
C1331	C133	0.423900	0.428140	0.761660
C1341	C134	0.388610	0.408770	0.726410
C1351	C135	0.396550	0.429650	0.688850
C1361	C136	0.373600	0.411700	0.655100
C1371	C137	0.340000	0.374600	0.659800
C1381	C138	0.355100	0.370100	0.728900
C1391	C139	0.353140	0.344960	0.766560
C1401	C140	0.282300	0.358000	0.802600
C1411	C141	0.184400	0.397160	0.808640
C1421	C142	0.300500	0.334700	0.838700
C1431	C143	0.382900	0.297400	0.835600
C1441	C144	0.435600	0.285100	0.796900
C1451	C145	0.865010	0.914470	0.796710
C1461	C146	0.878840	0.889350	0.763970
C1471	C147	0.782820	0.891280	0.742080
C1481	C148	0.676220	0.919440	0.754120
C1491	C149	0.573890	0.920980	0.729440
C1501	C150	0.670850	0.944660	0.788040
C1511	C151	0.561880	0.974910	0.806130
C1521	C152	0.488800	0.002350	0.783650
C1531	C153	0.524520	0.010640	0.738720
C1541	C154	0.383850	0.025560	0.805140
C1551	C155	0.359900	0.023080	0.847520
C1561	C156	0.441450	0.998760	0.867140
C1571	C157	0.539290	0.180270	0.541750
C1581	C158	0.475860	0.187740	0.581740
C1591	C159	0.444800	0.154680	0.605120
C1601	C160	0.479130	0.114830	0.589310
C1611	C161	0.426260	0.081360	0.613520
C1621	C162	0.547940	0.109990	0.550330
C1631	C163	0.594700	0.069000	0.530200
C1641	C164	0.653590	0.034650	0.547970
C1651	C165	0.692300	0.036060	0.589940
C1661	C166	0.684420	0.998250	0.525510
C1671	C167	0.662220	0.997630	0.486330
C1681	C168	0.613170	0.034040	0.468820
C1691	C169	0.154910	0.900190	0.521590
C1701	C170	0.054970	0.931030	0.524830
C1711	C171	0.032880	0.956860	0.558380
C1721	C172	0.105780	0.949970	0.588870
C1731	C173	0.195970	0.915380	0.585080
C1741	C174	0.089340	0.981710	0.621810
C1751	C175	0.274210	0.899470	0.616310
C1761	C176	0.232330	0.895170	0.658170
C1771	C177	0.102040	0.909190	0.678330
C1781	C178	0.316240	0.876470	0.682450
C1791	C179	0.435890	0.864490	0.665330
C1801	C180	0.469270	0.869260	0.623800
C1811	C181	0.113700	0.071860	0.738340
C1821	C182	0.023790	0.091230	0.773590
C1831	C183	0.015050	0.070350	0.811150
C1841	C184	0.940400	0.088300	0.844900
C1851	C185	0.874400	0.125400	0.840200
C1861	C186	0.954100	0.129900	0.771100
C1871	C187	0.964660	0.155040	0.733440
C1881	C188	0.942900	0.142000	0.697400
C1891	C189	0.890200	0.102840	0.691360
C1901	C190	0.973900	0.165300	0.661300
C1911	C191	0.015900	0.202600	0.664400
C1921	C192	0.017600	0.214900	0.703100
C1931	C193	0.338280	0.796710	0.585530
C1941	C194	0.357190	0.763970	0.610650
C1951	C195	0.475100	0.742080	0.608720
C1961	C196	0.569660	0.754120	0.580560
C1971	C197	0.696670	0.729440	0.579020
C1981	C198	0.541110	0.788040	0.555340
C1991	C199	0.631990	0.806130	0.525090
C2001	C200	0.727550	0.783650	0.497650
C2011	C201	0.736760	0.738720	0.489360
C2021	C202	0.811010	0.805140	0.474440
C2031	C203	0.792580	0.847520	0.476920
C2041	C204	0.691410	0.867140	0.501240
C2051	C205	0.918960	0.541750	0.319730
C2061	C206	0.942400	0.581740	0.312260
C2071	C207	0.950080	0.605120	0.345320
C2081	C208	0.931560	0.589310	0.385170
C2091	C209	0.960220	0.613520	0.418640
C2101	C210	0.901730	0.550330	0.390010
C2111	C211	0.875100	0.530200	0.431000
C2121	C212	0.798440	0.547970	0.465350
C2131	C213	0.717760	0.589940	0.463940
C2141	C214	0.790070	0.525510	0.501750
C2151	C215	0.851450	0.486330	0.502370
C2161	C216	0.918010	0.468820	0.465960
C2171	C217	0.323500	0.521590	0.599810
C2181	C218	0.420200	0.524830	0.568970
C2191	C219	0.408740	0.558380	0.543140
C2201	C220	0.305350	0.588870	0.550030
C2211	C221	0.218950	0.585080	0.584620
C2221	C222	0.288850	0.621810	0.518290
C2231	C223	0.109480	0.616310	0.600530
C2241	C224	0.109500	0.658170	0.604830
C2251	C225	0.219630	0.678330	0.590810
C2261	C226	0.001310	0.682450	0.623530
C2271	C227	0.898780	0.665330	0.635510
C2281	C228	0.906930	0.623800	0.630740
C2291	C229	0.147960	0.738340	0.428140
C2301	C230	0.202620	0.773590	0.408770
C2311	C231	0.173800	0.811150	0.429650
C2321	C232	0.214700	0.844900	0.411700
C2331	C233	0.285400	0.840200	0.374600
C2341	C234	0.274800	0.771100	0.370100
C2351	C235	0.301900	0.733440	0.344960
C2361	C236	0.359700	0.697400	0.358000
C2371	C237	0.418440	0.691360	0.397160
C2381	C238	0.364800	0.661300	0.334700
C2391	C239	0.319700	0.664400	0.297400
C2401	C240	0.279300	0.703100	0.285100
C2411	C241	0.220520	0.703290	0.914470
C2421	C242	0.231810	0.736030	0.889350
C2431	C243	0.325900	0.757920	0.891280
C2441	C244	0.404340	0.745880	0.919440
C2451	C245	0.505130	0.770560	0.920980
C2461	C246	0.384490	0.711960	0.944660
C2471	C247	0.463210	0.693870	0.974910
C2481	C248	0.508850	0.716350	0.002350
C2491	C249	0.464840	0.761280	0.010640
C2501	C250	0.590590	0.694860	0.025560
C2511	C251	0.617020	0.652480	0.023080
C2521	C252	0.559790	0.632860	0.998760
C2531	C253	0.280440	0.958250	0.180270
C2541	C254	0.336400	0.918260	0.187740
C2551	C255	0.400520	0.894880	0.154680
C2561	C256	0.406040	0.910690	0.114830
C2571	C257	0.492380	0.886480	0.081360
C2581	C258	0.342070	0.949670	0.109990
C2591	C259	0.336300	0.969800	0.069000
C2601	C260	0.311760	0.952030	0.034650
C2611	C261	0.271640	0.910060	0.036060
C2621	C262	0.317330	0.974490	0.998250
C2631	C263	0.340150	0.013670	0.997630
C2641	C264	0.352790	0.031180	0.034040
C2651	C265	0.944900	0.978410	0.900190
C2661	C266	0.014000	0.975170	0.931030
C2671	C267	0.010260	0.941620	0.956860
C2681	C268	0.944250	0.911130	0.949970
C2691	C269	0.888650	0.914920	0.915380
C2701	C270	0.928950	0.878190	0.981710
C2711	C271	0.826320	0.883690	0.899470
C2721	C272	0.872500	0.841830	0.895170
C2731	C273	0.988770	0.821670	0.909190
C2741	C274	0.807290	0.817550	0.876470
C2751	C275	0.699620	0.834670	0.864490
C2761	C276	0.661470	0.876200	0.869260
C2771	C277	0.814440	0.761660	0.071860
C2781	C278	0.884980	0.726410	0.091230
C2791	C279	0.914600	0.688850	0.070350
C2801	C280	0.971300	0.655100	0.088300
C2811	C281	0.000200	0.659800	0.125400
C2821	C282	0.916000	0.728900	0.129900
C2831	C283	0.880300	0.766560	0.155040
C2841	C284	0.915100	0.802600	0.142000
C2851	C285	0.006960	0.808640	0.102840
C2861	C286	0.860800	0.838700	0.165300
C2871	C287	0.781500	0.835600	0.202600
C2881	C288	0.767500	0.796900	0.214900
C2891	C289	0.923810	0.414470	0.296710
C2901	C290	0.967840	0.389350	0.263970
C2911	C291	0.083820	0.391280	0.242080
C2921	C292	0.150220	0.419440	0.254120
C2931	C293	0.275690	0.420980	0.229440
C2941	C294	0.096450	0.444660	0.288040
C2951	C295	0.157080	0.474910	0.306130
C2961	C296	0.225200	0.502350	0.283650
C2971	C297	0.226120	0.510640	0.238720
C2981	C298	0.285450	0.525560	0.305140
C2991	C299	0.269500	0.523080	0.347520
C3001	C300	0.192650	0.498760	0.367140
C3011	C301	0.238690	0.680270	0.041750
C3021	C302	0.254660	0.687740	0.081740
C3031	C303	0.295400	0.654680	0.105120
C3041	C304	0.316730	0.614830	0.089310
C3051	C305	0.378860	0.581360	0.113520
C3061	C306	0.291740	0.609990	0.050330
C3071	C307	0.306100	0.569000	0.030200
C3081	C308	0.263790	0.534650	0.047970
C3091	C309	0.181700	0.536060	0.089940
C3101	C310	0.291820	0.498250	0.025510
C3111	C311	0.353820	0.497630	0.986330
C3121	C312	0.383970	0.534040	0.968820
C3131	C313	0.923310	0.400190	0.021590
C3141	C314	0.989170	0.431030	0.024830
C3151	C315	0.951880	0.456860	0.058380
C3161	C316	0.855380	0.449970	0.088870
C3171	C317	0.803570	0.415380	0.085080
C3181	C318	0.807140	0.481710	0.121810
C3191	C319	0.710010	0.399470	0.116310
C3201	C320	0.714330	0.395170	0.158170
C3211	C321	0.810440	0.409190	0.178330
C3221	C322	0.624840	0.376470	0.182450
C3231	C323	0.534290	0.364490	0.165330
C3241	C324	0.537670	0.369260	0.123800
C3251	C325	0.576100	0.571860	0.238340
C3261	C326	0.611390	0.591230	0.273590
C3271	C327	0.603450	0.570350	0.311150
C3281	C328	0.626400	0.588300	0.344900
C3291	C329	0.660000	0.625400	0.340200
C3301	C330	0.644900	0.629900	0.271100
C3311	C331	0.646860	0.655040	0.233440
C3321	C332	0.717700	0.642000	0.197400
C3331	C333	0.815600	0.602840	0.191360
C3341	C334	0.699500	0.665300	0.161300
C3351	C335	0.617100	0.702600	0.164400
C3361	C336	0.564400	0.714900	0.203100
C3371	C337	0.134990	0.085530	0.203290
C3381	C338	0.121160	0.110650	0.236030
C3391	C339	0.217180	0.108720	0.257920
C3401	C340	0.323780	0.080560	0.245880
C3411	C341	0.426110	0.079020	0.270560
C3421	C342	0.329150	0.055340	0.211960
C3431	C343	0.438120	0.025090	0.193870
C3441	C344	0.511200	0.997650	0.216350
C3451	C345	0.475480	0.989360	0.261280
C3461	C346	0.616150	0.974440	0.194860
C3471	C347	0.640100	0.976920	0.152480
C3481	C348	0.558550	0.001240	0.132860
C3491	C349	0.460710	0.819730	0.458250
C3501	C350	0.524140	0.812260	0.418260
C3511	C351	0.555200	0.845320	0.394880
C3521	C352	0.520870	0.885170	0.410690
C3531	C353	0.573740	0.918640	0.386480
C3541	C354	0.452060	0.890010	0.449670
C3551	C355	0.405300	0.931000	0.469800
C3561	C356	0.346410	0.965350	0.452030
C3571	C357	0.307700	0.963940	0.410060
C3581	C358	0.315580	0.001750	0.474490
C3591	C359	0.337780	0.002370	0.513670
C3601	C360	0.386830	0.965960	0.531180
C3611	C361	0.845090	0.099810	0.478410
C3621	C362	0.945030	0.068970	0.475170
C3631	C363	0.967120	0.043140	0.441620
C3641	C364	0.894220	0.050030	0.411130
C3651	C365	0.804030	0.084620	0.414920
C3661	C366	0.910660	0.018290	0.378190
C3671	C367	0.725790	0.100530	0.383690
C3681	C368	0.767670	0.104830	0.341830
C3691	C369	0.897960	0.090810	0.321670
C3701	C370	0.683760	0.123530	0.317550
C3711	C371	0.564110	0.135510	0.334670
C3721	C372	0.530730	0.130740	0.376200
C3731	C373	0.886300	0.928140	0.261660
C3741	C374	0.976210	0.908770	0.226410
C3751	C375	0.984950	0.929650	0.188850
C3761	C376	0.059600	0.911700	0.155100
C3771	C377	0.125600	0.874600	0.159800
C3781	C378	0.045900	0.870100	0.228900
C3791	C379	0.035340	0.844960	0.266560
C3801	C380	0.057100	0.858000	0.302600
C3811	C381	0.109800	0.897160	0.308640
C3821	C382	0.026100	0.834700	0.338700
C3831	C383	0.984100	0.797400	0.335600
C3841	C384	0.982400	0.785100	0.296900
N11	N1	0.572350	0.190620	0.441880
N21	N2	0.388980	0.153030	0.475010
N31	N3	0.099780	0.473360	0.642280
N41	N4	0.070580	0.510230	0.569010
N51	N5	0.991210	0.400380	0.386000
N61	N6	0.775620	0.449490	0.392070
N71	N7	0.731570	0.262100	0.692560
N81	N8	0.680400	0.195560	0.647840
N91	N9	0.704850	0.309380	0.058120
N101	N10	0.517020	0.346970	0.024990
N111	N11	0.715420	0.026640	0.857720
N121	N12	0.649820	0.989770	0.930990
N131	N13	0.277590	0.099620	0.114000
N141	N14	0.117180	0.050510	0.107930
N151	N15	0.186230	0.237900	0.807440
N161	N16	0.023800	0.304440	0.852160
N171	N17	0.014230	0.558120	0.690620
N181	N18	0.863990	0.524990	0.653030
N191	N19	0.742060	0.357720	0.973360
N201	N20	0.639590	0.430990	0.010230
N211	N21	0.377210	0.614000	0.900380
N221	N22	0.167690	0.607930	0.949490
N231	N23	0.424130	0.307440	0.762100
N241	N24	0.328240	0.352160	0.695560
N251	N25	0.762970	0.941880	0.809380
N261	N26	0.542010	0.975010	0.846970
N271	N27	0.573140	0.142280	0.526640
N281	N28	0.580810	0.069010	0.489770
N291	N29	0.391590	0.886000	0.599620
N301	N30	0.225110	0.892070	0.550510
N311	N31	0.993670	0.192560	0.737900
N321	N32	0.875960	0.147840	0.804440
N331	N33	0.427650	0.809380	0.558120
N341	N34	0.611020	0.846970	0.524990
N351	N35	0.900220	0.526640	0.357720
N361	N36	0.929420	0.489770	0.430990
N371	N37	0.008790	0.599620	0.614000
N381	N38	0.224380	0.550510	0.607930
N391	N39	0.268430	0.737900	0.307440
N401	N40	0.319600	0.804440	0.352160
N411	N41	0.295150	0.690620	0.941880
N421	N42	0.482980	0.653030	0.975010
N431	N43	0.284580	0.973360	0.142280
N441	N44	0.350180	0.010230	0.069010
N451	N45	0.722410	0.900380	0.886000
N461	N46	0.882820	0.949490	0.892070
N471	N47	0.813770	0.762100	0.192560
N481	N48	0.976200	0.695560	0.147840
N491	N49	0.985770	0.441880	0.309380
N501	N50	0.136010	0.475010	0.346970
N511	N51	0.257940	0.642280	0.026640
N521	N52	0.360410	0.569010	0.989770
N531	N53	0.622790	0.386000	0.099620
N541	N54	0.832310	0.392070	0.050510
N551	N55	0.575870	0.692560	0.237900
N561	N56	0.671760	0.647840	0.304440
N571	N57	0.237030	0.058120	0.190620
N581	N58	0.457990	0.024990	0.153030
N591	N59	0.426860	0.857720	0.473360
N601	N60	0.419190	0.930990	0.510230
N611	N61	0.608410	0.114000	0.400380
N621	N62	0.774890	0.107930	0.449490
N631	N63	0.006330	0.807440	0.262100
N641	N64	0.124040	0.852160	0.195560
O11	O1	0.293140	0.308660	0.422060
O21	O2	0.216960	0.250640	0.421440
O31	O3	0.363130	0.274600	0.506340
O41	O4	0.160950	0.282220	0.522480
O51	O5	0.060400	0.347380	0.585020
O61	O6	0.996180	0.403680	0.552160
O71	O7	0.361290	0.406470	0.558550
O81	O8	0.271540	0.381850	0.513070
O91	O9	0.797370	0.288860	0.428800
O101	O10	0.680700	0.339220	0.399980
O111	O11	0.541210	0.279450	0.589730
O121	O12	0.568230	0.343260	0.588280
O131	O13	0.618230	0.369410	0.503530
O141	O14	0.818940	0.363330	0.484790
O151	O15	0.933800	0.274010	0.586190
O161	O16	0.813710	0.278190	0.540590
O171	O17	0.523860	0.191340	0.077940
O181	O18	0.389040	0.249360	0.078560
O191	O19	0.644070	0.225400	0.993660
O201	O20	0.465650	0.217780	0.977520
O211	O21	0.492800	0.152620	0.914980
O221	O22	0.452020	0.096320	0.947840
O231	O23	0.826310	0.093530	0.941450
O241	O24	0.666460	0.118150	0.986930
O251	O25	0.015030	0.211140	0.071200
O261	O26	0.919900	0.160780	0.100020
O271	O27	0.910390	0.220550	0.910270
O281	O28	0.999770	0.156740	0.911720
O291	O29	0.991170	0.130590	0.996470
O301	O30	0.167060	0.136670	0.015210
O311	O31	0.294000	0.225990	0.913810
O321	O32	0.132490	0.221810	0.959410
O331	O33	0.715200	0.577940	0.808660
O341	O34	0.638400	0.578560	0.750640
O351	O35	0.869470	0.493660	0.774600
O361	O36	0.683430	0.477520	0.782220
O371	O37	0.645420	0.414980	0.847380
O381	O38	0.548340	0.447840	0.903680
O391	O39	0.919840	0.441450	0.906470
O401	O40	0.784610	0.486930	0.881850
O411	O41	0.226170	0.571200	0.788860
O421	O42	0.080680	0.600020	0.839220
O431	O43	0.130940	0.410270	0.779450
O441	O44	0.156510	0.411720	0.843260
O451	O45	0.121760	0.496470	0.869410
O461	O46	0.303730	0.515210	0.863330
O471	O47	0.519990	0.413810	0.774010
O481	O48	0.354300	0.459410	0.778190
O491	O49	0.601800	0.922060	0.691340
O501	O50	0.467600	0.921440	0.749360
O511	O51	0.637730	0.006340	0.725400
O521	O52	0.443170	0.022480	0.717780
O531	O53	0.407780	0.085020	0.652620
O541	O54	0.399860	0.052160	0.596320
O551	O55	0.767760	0.058550	0.593530
O561	O56	0.653390	0.013070	0.618150
O571	O57	0.086230	0.928800	0.711140
O581	O58	0.019920	0.899980	0.660780
O591	O59	0.820660	0.089730	0.720550
O601	O60	0.911490	0.088280	0.656740
O611	O61	0.987640	0.003530	0.630590
O621	O62	0.182270	0.984790	0.636670
O631	O63	0.207810	0.086190	0.725990
O641	O64	0.091900	0.040590	0.721810
O651	O65	0.706860	0.691340	0.577940
O661	O66	0.783040	0.749360	0.578560
O671	O67	0.636870	0.725400	0.493660
O681	O68	0.839050	0.717780	0.477520
O691	O69	0.939600	0.652620	0.414980
O701	O70	0.003820	0.596320	0.447840
O711	O71	0.638710	0.593530	0.441450
O721	O72	0.728460	0.618150	0.486930
O731	O73	0.202630	0.711140	0.571200
O741	O74	0.319300	0.660780	0.600020
O751	O75	0.458790	0.720550	0.410270
O761	O76	0.431770	0.656740	0.411720
O771	O77	0.381770	0.630590	0.496470
O781	O78	0.181060	0.636670	0.515210
O791	O79	0.066200	0.725990	0.413810
O801	O80	0.186290	0.721810	0.459410
O811	O81	0.476140	0.808660	0.922060
O821	O82	0.610960	0.750640	0.921440
O831	O83	0.355930	0.774600	0.006340
O841	O84	0.534350	0.782220	0.022480
O851	O85	0.507200	0.847380	0.085020
O861	O86	0.547980	0.903680	0.052160
O871	O87	0.173690	0.906470	0.058550
O881	O88	0.333540	0.881850	0.013070
O891	O89	0.984970	0.788860	0.928800
O901	O90	0.080100	0.839220	0.899980
O911	O91	0.089610	0.779450	0.089730
O921	O92	0.000230	0.843260	0.088280
O931	O93	0.008830	0.869410	0.003530
O941	O94	0.832940	0.863330	0.984790
O951	O95	0.706000	0.774010	0.086190
O961	O96	0.867510	0.778190	0.040590
O971	O97	0.284800	0.422060	0.191340
O981	O98	0.361600	0.421440	0.249360
O991	O99	0.130530	0.506340	0.225400
O1001	O100	0.316570	0.522480	0.217780
O1011	O101	0.354580	0.585020	0.152620
O1021	O102	0.451660	0.552160	0.096320
O1031	O103	0.080160	0.558550	0.093530
O1041	O104	0.215390	0.513070	0.118150
O1051	O105	0.773830	0.428800	0.211140
O1061	O106	0.919320	0.399980	0.160780
O1071	O107	0.869060	0.589730	0.220550
O1081	O108	0.843490	0.588280	0.156740
O1091	O109	0.878240	0.503530	0.130590
O1101	O110	0.696270	0.484790	0.136670
O1111	O111	0.480010	0.586190	0.225990
O1121	O112	0.645700	0.540590	0.221810
O1131	O113	0.398200	0.077940	0.308660
O1141	O114	0.532400	0.078560	0.250640
O1151	O115	0.362270	0.993660	0.274600
O1161	O116	0.556830	0.977520	0.282220
O1171	O117	0.592220	0.914980	0.347380
O1181	O118	0.600140	0.947840	0.403680
O1191	O119	0.232240	0.941450	0.406470
O1201	O120	0.346610	0.986930	0.381850
O1211	O121	0.913770	0.071200	0.288860
O1221	O122	0.980080	0.100020	0.339220
O1231	O123	0.179340	0.910270	0.279450
O1241	O124	0.088510	0.911720	0.343260
O1251	O125	0.012360	0.996470	0.369410
O1261	O126	0.817730	0.015210	0.363330
O1271	O127	0.792190	0.913810	0.274010
O1281	O128	0.908100	0.959410	0.278190
