data_MIFTUS_clean_PM
_symmetry_space_group_name_H-M	'P1'
_cell_length_a	10.783600
_cell_length_b	32.415600
_cell_length_c	32.415600
_cell_angle_alpha	88.414600
_cell_angle_beta	80.425300
_cell_angle_gamma	80.425300
_symmetry_Int_Tables_number 1

loop_
_symmetry_equiv_pos_as_xyz
'x,y,z'

loop_
_atom_site_label
_atom_site_type_symbol
_atom_site_fract_x
_atom_site_fract_y
_atom_site_fract_z
Gd11	Gd1	0.808210	0.171830	0.973770
Gd21	Gd2	0.305070	0.175270	0.975520
Gd31	Gd3	0.453820	0.328170	0.526220
Gd41	Gd4	0.955850	0.324730	0.524480
Gd51	Gd5	0.781990	0.026220	0.671830
Gd61	Gd6	0.280580	0.024480	0.675270
Gd71	Gd7	0.980030	0.473780	0.828180
Gd81	Gd8	0.480340	0.475520	0.824720
Gd91	Gd9	0.191800	0.828170	0.026220
Gd101	Gd10	0.694940	0.824730	0.024470
Gd111	Gd11	0.546180	0.671830	0.473780
Gd121	Gd12	0.044150	0.675270	0.475520
Gd131	Gd13	0.218010	0.973780	0.328180
Gd141	Gd14	0.719420	0.975520	0.324730
Gd151	Gd15	0.019970	0.526220	0.171830
Gd161	Gd16	0.519660	0.524480	0.175280
Co11	Co1	0.293580	0.034890	0.127590
Co21	Co2	0.956060	0.465110	0.372410
Co31	Co3	0.421170	0.872410	0.534890
Co41	Co4	0.328470	0.627590	0.965110
Co51	Co5	0.706420	0.965110	0.872410
Co61	Co6	0.043940	0.534890	0.627590
Co71	Co7	0.578830	0.127590	0.465110
Co81	Co8	0.671530	0.372410	0.034890
H11	H1	0.064800	0.084200	0.185600
H21	H2	0.043400	0.127700	0.241500
H31	H3	0.208600	0.124700	0.278300
H41	H4	0.683700	0.956000	0.209600
H51	H5	0.734500	0.962100	0.138500
H61	H6	0.589500	0.000700	0.102700
H71	H7	0.253500	0.970800	0.201000
H81	H8	0.351800	0.903800	0.211600
H91	H9	0.470700	0.867100	0.155100
H101	H10	0.301800	0.960300	0.972900
H111	H11	0.340500	0.027500	0.971500
H121	H12	0.363200	0.058000	0.031600
H131	H13	0.056200	0.995000	0.112600
H141	H14	0.938500	0.001900	0.060100
H151	H15	0.940900	0.060300	0.018500
H161	H16	0.161500	0.208400	0.128800
H171	H17	0.354400	0.179600	0.148400
H181	H18	0.424100	0.109800	0.138200
H191	H19	0.952400	0.368200	0.875400
H201	H20	0.034200	0.374000	0.929400
H211	H21	0.100700	0.311200	0.957800
H221	H22	0.120600	0.135100	0.851300
H231	H23	0.273100	0.135200	0.787400
H241	H24	0.256600	0.201800	0.759200
H251	H25	0.834600	0.415800	0.314400
H261	H26	0.912600	0.372300	0.258500
H271	H27	0.111600	0.375300	0.221700
H281	H28	0.349300	0.544000	0.290400
H291	H29	0.335100	0.537900	0.361500
H301	H30	0.192900	0.499300	0.397300
H311	H31	0.925300	0.529200	0.299000
H321	H32	0.967200	0.596200	0.288400
H331	H33	0.992900	0.632900	0.344900
H341	H34	0.735000	0.539700	0.527100
H351	H35	0.839500	0.472500	0.528500
H361	H36	0.952800	0.442000	0.468400
H371	H37	0.663800	0.505000	0.387400
H381	H38	0.500500	0.498100	0.439900
H391	H39	0.519700	0.439700	0.481500
H401	H40	0.998700	0.291600	0.371200
H411	H41	0.182400	0.320400	0.351600
H421	H42	0.172100	0.390200	0.361800
H431	H43	0.696000	0.131800	0.624600
H441	H44	0.837600	0.126000	0.570600
H451	H45	0.869700	0.188800	0.542200
H461	H46	0.607000	0.364900	0.648700
H471	H47	0.695700	0.364800	0.712600
H481	H48	0.717600	0.298200	0.740800
H491	H49	0.250400	0.814400	0.584200
H501	H50	0.284900	0.758500	0.627700
H511	H51	0.486900	0.721700	0.624700
H521	H52	0.893300	0.790400	0.456000
H531	H53	0.873000	0.861500	0.462100
H541	H54	0.692200	0.897300	0.500700
H551	H55	0.454500	0.799000	0.470800
H561	H56	0.563400	0.788400	0.403800
H571	H57	0.625800	0.844900	0.367100
H581	H58	0.274700	0.027100	0.460300
H591	H59	0.312000	0.028500	0.527500
H601	H60	0.394800	0.968400	0.558000
H611	H61	0.168800	0.887400	0.495000
H621	H62	0.998600	0.939900	0.501900
H631	H63	0.959400	0.981500	0.560300
H641	H64	0.290300	0.871200	0.708400
H651	H65	0.502800	0.851600	0.679600
H661	H66	0.562300	0.861800	0.609800
H671	H67	0.827800	0.124600	0.868200
H681	H68	0.963600	0.070600	0.874000
H691	H69	0.058500	0.042200	0.811200
H701	H70	0.971900	0.148700	0.635100
H711	H71	0.060500	0.212600	0.635200
H721	H72	0.015800	0.240800	0.701800
H731	H73	0.149000	0.685600	0.915800
H741	H74	0.171100	0.741500	0.872300
H751	H75	0.333300	0.778300	0.875300
H761	H76	0.639700	0.709600	0.044000
H771	H77	0.696600	0.638500	0.037900
H781	H78	0.590200	0.602700	0.999300
H791	H79	0.224300	0.701000	0.029200
H801	H80	0.255600	0.711600	0.096200
H811	H81	0.337800	0.655100	0.132900
H821	H82	0.262100	0.472900	0.039700
H831	H83	0.368000	0.471500	0.972500
H841	H84	0.421200	0.531600	0.942000
H851	H85	0.051200	0.612600	0.005000
H861	H86	0.940400	0.560100	0.998100
H871	H87	0.001200	0.518500	0.939700
H881	H88	0.369900	0.628800	0.791600
H891	H89	0.534000	0.648400	0.820400
H901	H90	0.533900	0.638200	0.890200
H911	H91	0.320600	0.375400	0.631800
H921	H92	0.408200	0.429400	0.626000
H931	H93	0.411900	0.457800	0.688800
H941	H94	0.255700	0.351300	0.864900
H951	H95	0.408300	0.287400	0.864800
H961	H96	0.458400	0.259200	0.798200
H971	H97	0.935200	0.915800	0.814400
H981	H98	0.956600	0.872300	0.758500
H991	H99	0.791400	0.875300	0.721700
H1001	H100	0.316300	0.044000	0.790400
H1011	H101	0.265500	0.037900	0.861500
H1021	H102	0.410500	0.999300	0.897300
H1031	H103	0.746500	0.029200	0.799000
H1041	H104	0.648200	0.096200	0.788400
H1051	H105	0.529300	0.132900	0.844900
H1061	H106	0.698200	0.039700	0.027100
H1071	H107	0.659500	0.972500	0.028500
H1081	H108	0.636800	0.942000	0.968400
H1091	H109	0.943800	0.005000	0.887400
H1101	H110	0.061500	0.998100	0.939900
H1111	H111	0.059100	0.939700	0.981500
H1121	H112	0.838500	0.791600	0.871200
H1131	H113	0.645600	0.820400	0.851600
H1141	H114	0.575900	0.890200	0.861800
H1151	H115	0.047600	0.631800	0.124600
H1161	H116	0.965800	0.626000	0.070600
H1171	H117	0.899300	0.688800	0.042200
H1181	H118	0.879400	0.864900	0.148700
H1191	H119	0.726900	0.864800	0.212600
H1201	H120	0.743400	0.798200	0.240800
H1211	H121	0.165400	0.584200	0.685600
H1221	H122	0.087400	0.627700	0.741500
H1231	H123	0.888400	0.624700	0.778300
H1241	H124	0.650700	0.456000	0.709600
H1251	H125	0.664900	0.462100	0.638500
H1261	H126	0.807100	0.500700	0.602700
H1271	H127	0.074700	0.470800	0.701000
H1281	H128	0.032800	0.403800	0.711600
H1291	H129	0.007100	0.367100	0.655100
H1301	H130	0.265000	0.460300	0.472900
H1311	H131	0.160500	0.527500	0.471500
H1321	H132	0.047200	0.558000	0.531600
H1331	H133	0.336200	0.495000	0.612600
H1341	H134	0.499500	0.501900	0.560100
H1351	H135	0.480300	0.560300	0.518500
H1361	H136	0.001300	0.708400	0.628800
H1371	H137	0.817600	0.679600	0.648400
H1381	H138	0.827900	0.609800	0.638200
H1391	H139	0.304000	0.868200	0.375400
H1401	H140	0.162400	0.874000	0.429400
H1411	H141	0.130300	0.811200	0.457800
H1421	H142	0.393000	0.635100	0.351300
H1431	H143	0.304300	0.635200	0.287400
H1441	H144	0.282400	0.701800	0.259200
H1451	H145	0.749600	0.185600	0.415800
H1461	H146	0.715100	0.241500	0.372300
H1471	H147	0.513100	0.278300	0.375300
H1481	H148	0.106700	0.209600	0.544000
H1491	H149	0.127000	0.138500	0.537900
H1501	H150	0.307800	0.102700	0.499300
H1511	H151	0.545500	0.201000	0.529200
H1521	H152	0.436600	0.211600	0.596200
H1531	H153	0.374200	0.155100	0.632900
H1541	H154	0.725300	0.972900	0.539700
H1551	H155	0.688000	0.971500	0.472500
H1561	H156	0.605200	0.031600	0.442000
H1571	H157	0.831200	0.112600	0.505000
H1581	H158	0.001400	0.060100	0.498100
H1591	H159	0.040600	0.018500	0.439700
H1601	H160	0.709700	0.128800	0.291600
H1611	H161	0.497200	0.148400	0.320400
H1621	H162	0.437700	0.138200	0.390200
H1631	H163	0.172200	0.875400	0.131800
H1641	H164	0.036400	0.929400	0.126000
H1651	H165	0.941500	0.957800	0.188800
H1661	H166	0.028100	0.851300	0.364900
H1671	H167	0.939500	0.787400	0.364800
H1681	H168	0.984200	0.759200	0.298200
H1691	H169	0.851000	0.314400	0.084200
H1701	H170	0.828900	0.258500	0.127700
H1711	H171	0.666700	0.221700	0.124700
H1721	H172	0.360300	0.290400	0.956000
H1731	H173	0.303400	0.361500	0.962100
H1741	H174	0.409800	0.397300	0.000700
H1751	H175	0.775700	0.299000	0.970800
H1761	H176	0.744400	0.288400	0.903800
H1771	H177	0.662200	0.344900	0.867100
H1781	H178	0.737900	0.527100	0.960300
H1791	H179	0.632000	0.528500	0.027500
H1801	H180	0.578800	0.468400	0.058000
H1811	H181	0.948800	0.387400	0.995000
H1821	H182	0.059600	0.439900	0.001900
H1831	H183	0.998800	0.481500	0.060300
H1841	H184	0.630100	0.371200	0.208400
H1851	H185	0.466000	0.351600	0.179600
H1861	H186	0.466100	0.361800	0.109800
H1871	H187	0.679400	0.624600	0.368200
H1881	H188	0.591800	0.570600	0.374000
H1891	H189	0.588100	0.542200	0.311200
H1901	H190	0.744300	0.648700	0.135100
H1911	H191	0.591700	0.712600	0.135200
H1921	H192	0.541600	0.740800	0.201800
C11	C1	0.131800	0.083100	0.200500
C21	C2	0.484050	0.989160	0.261540
C31	C3	0.181000	0.241100	0.929900
C41	C4	0.118500	0.109000	0.233800
C51	C5	0.216000	0.107100	0.255500
C61	C6	0.325460	0.079250	0.243830
C71	C7	0.434810	0.078390	0.267990
C81	C8	0.333880	0.053770	0.210270
C91	C9	0.446760	0.023740	0.193340
C101	C10	0.977200	0.194600	0.905200
C111	C11	0.522460	0.997140	0.215940
C121	C12	0.629710	0.973890	0.194890
C131	C13	0.658300	0.976500	0.152900
C141	C14	0.573600	0.000500	0.131900
C151	C15	0.295900	0.954700	0.178100
C161	C16	0.356700	0.915200	0.184800
C171	C17	0.424100	0.893400	0.151200
C181	C18	0.424900	0.909100	0.111700
C191	C19	0.352900	0.947400	0.107200
C201	C20	0.342700	0.968200	0.067200
C211	C21	0.317320	0.949480	0.032880
C221	C22	0.316590	0.972210	0.997010
C231	C23	0.337410	0.012240	0.996340
C241	C24	0.353500	0.030000	0.031800
C251	C25	0.275720	0.907880	0.034880
C261	C26	0.514100	0.885600	0.076600
C271	C27	0.053000	0.019200	0.096400
C281	C28	0.984700	0.022500	0.065100
C291	C29	0.985900	0.057300	0.040900
C301	C30	0.052220	0.088300	0.048460
C311	C31	0.110110	0.083690	0.083690
C321	C32	0.174510	0.114600	0.099980
C331	C33	0.128420	0.156120	0.105440
C341	C34	0.193650	0.180170	0.124130
C351	C35	0.307060	0.163180	0.136300
C361	C36	0.347400	0.121780	0.130020
C371	C37	0.005420	0.175980	0.091980
C381	C38	0.063920	0.122750	0.018210
C391	C39	0.999800	0.343700	0.883700
C401	C40	0.037700	0.348400	0.916600
C411	C41	0.083600	0.312000	0.930600
C421	C42	0.109400	0.274600	0.909200
C431	C43	0.080100	0.270300	0.871500
C441	C44	0.113900	0.232500	0.847100
C451	C45	0.074100	0.199200	0.864400
C461	C46	0.138300	0.160600	0.840000
C471	C47	0.224800	0.159000	0.800800
C481	C48	0.222000	0.199000	0.787200
C491	C49	0.915400	0.416900	0.299500
C501	C50	0.234750	0.510840	0.238460
C511	C51	0.852000	0.258900	0.570100
C521	C52	0.961300	0.391000	0.266200
C531	C53	0.078600	0.392900	0.244500
C541	C54	0.148540	0.420750	0.256170
C551	C55	0.281190	0.421610	0.232010
C561	C56	0.097920	0.446230	0.289730
C571	C57	0.163840	0.476260	0.306660
C581	C58	0.577000	0.305400	0.594800
C591	C59	0.235540	0.502860	0.284060
C601	C60	0.298490	0.526110	0.305110
C611	C61	0.287700	0.523500	0.347100
C621	C62	0.206000	0.499500	0.368100
C631	C63	0.928700	0.545300	0.321900
C641	C64	0.956700	0.584800	0.315200
C651	C65	0.968700	0.606600	0.348800
C661	C66	0.945700	0.590900	0.388300
C671	C67	0.907500	0.552600	0.392800
C681	C68	0.878100	0.531800	0.432800
C691	C69	0.799680	0.550520	0.467120
C701	C70	0.785810	0.527790	0.502990
C711	C71	0.845990	0.487760	0.503660
C721	C72	0.915300	0.470000	0.468200
C731	C73	0.718480	0.592120	0.465120
C741	C74	0.976300	0.614400	0.423400
C751	C75	0.668600	0.480800	0.403600
C761	C76	0.572300	0.477500	0.434900
C771	C77	0.584100	0.442700	0.459100
C781	C78	0.688980	0.411700	0.451540
C791	C79	0.777490	0.416310	0.416310
C801	C80	0.889090	0.385400	0.400020
C811	C81	0.889980	0.343880	0.394560
C821	C82	0.997950	0.319830	0.375870
C831	C83	0.106540	0.336820	0.363700
C841	C84	0.099200	0.378220	0.369980
C851	C85	0.773380	0.324020	0.408020
C861	C86	0.704880	0.377250	0.481790
C871	C87	0.727200	0.156300	0.616300
C881	C88	0.802700	0.151600	0.583400
C891	C89	0.826200	0.188000	0.569400
C901	C90	0.793200	0.225400	0.590800
C911	C91	0.721900	0.229700	0.628500
C921	C92	0.693500	0.267500	0.652900
C931	C93	0.637700	0.300800	0.635600
C941	C94	0.638900	0.339400	0.660000
C951	C95	0.684600	0.341000	0.699200
C961	C96	0.708200	0.301000	0.712800
C971	C97	0.332300	0.799500	0.583100
C981	C98	0.745590	0.738460	0.489160
C991	C99	0.110900	0.070100	0.741100
C1001	C100	0.352300	0.766200	0.609000
C1011	C101	0.471500	0.744500	0.607100
C1021	C102	0.569290	0.756170	0.579250
C1031	C103	0.702800	0.732010	0.578390
C1041	C104	0.544150	0.789730	0.553770
C1051	C105	0.640100	0.806660	0.523740
C1061	C106	0.882400	0.094800	0.694600
C1071	C107	0.738400	0.784060	0.497140
C1081	C108	0.824600	0.805110	0.473890
C1091	C109	0.811200	0.847100	0.476500
C1101	C110	0.705500	0.868100	0.500500
C1111	C111	0.474000	0.821900	0.454700
C1121	C112	0.541500	0.815200	0.415200
C1131	C113	0.575300	0.848800	0.393400
C1141	C114	0.536600	0.888300	0.409100
C1151	C115	0.460100	0.892800	0.447400
C1161	C116	0.409900	0.932800	0.468200
C1171	C117	0.350200	0.967120	0.449480
C1181	C118	0.313600	0.002990	0.472210
C1191	C119	0.333750	0.003660	0.512240
C1201	C120	0.385300	0.968200	0.530000
C1211	C121	0.310600	0.965120	0.407880
C1221	C122	0.590700	0.923400	0.385600
C1231	C123	0.149400	0.903600	0.519200
C1241	C124	0.049800	0.934900	0.522500
C1251	C125	0.026800	0.959100	0.557300
C1261	C126	0.100680	0.951540	0.588300
C1271	C127	0.193800	0.916310	0.583690
C1281	C128	0.274490	0.900020	0.614600
C1291	C129	0.233860	0.894560	0.656120
C1301	C130	0.317780	0.875870	0.680170
C1311	C131	0.443360	0.863700	0.663180
C1321	C132	0.477420	0.869980	0.621780
C1331	C133	0.097400	0.908020	0.675980
C1341	C134	0.082130	0.981790	0.622750
C1351	C135	0.883500	0.116300	0.843700
C1361	C136	0.954300	0.083400	0.848400
C1371	C137	0.014200	0.069400	0.812000
C1381	C138	0.018600	0.090800	0.774600
C1391	C139	0.951600	0.128500	0.770300
C1401	C140	0.961000	0.152900	0.732500
C1411	C141	0.938500	0.135600	0.699200
C1421	C142	0.978300	0.160000	0.660600
C1431	C143	0.025600	0.199200	0.659000
C1441	C144	0.009200	0.212800	0.699000
C1451	C145	0.214900	0.700500	0.916900
C1461	C146	0.473210	0.761540	0.010840
C1471	C147	0.422100	0.429900	0.758900
C1481	C148	0.227500	0.733800	0.891000
C1491	C149	0.323100	0.755500	0.892900
C1501	C150	0.404710	0.743830	0.920750
C1511	C151	0.513200	0.767990	0.921610
C1521	C152	0.387650	0.710270	0.946230
C1531	C153	0.470500	0.693340	0.976260
C1541	C154	0.171800	0.405200	0.805400
C1551	C155	0.519600	0.715940	0.002860
C1561	C156	0.603600	0.694890	0.026110
C1571	C157	0.634800	0.652900	0.023500
C1581	C158	0.574100	0.631900	0.999500
C1591	C159	0.250600	0.678100	0.045300
C1601	C160	0.271900	0.684800	0.084800
C1611	C161	0.317500	0.651200	0.106600
C1621	C162	0.334000	0.611700	0.090900
C1631	C163	0.300300	0.607200	0.052600
C1641	C164	0.310900	0.567200	0.031800
C1651	C165	0.266800	0.532880	0.050520
C1661	C166	0.288800	0.497010	0.027790
C1671	C167	0.349650	0.496340	0.987760
C1681	C168	0.383500	0.531800	0.970000
C1691	C169	0.183600	0.534880	0.092120
C1701	C170	0.399700	0.576600	0.114400
C1711	C171	0.072200	0.596400	0.980800
C1721	C172	0.007200	0.565100	0.977500
C1731	C173	0.043200	0.540900	0.942700
C1741	C174	0.140520	0.548460	0.911700
C1751	C175	0.193800	0.583690	0.916310
C1761	C176	0.289110	0.599980	0.885400
C1771	C177	0.284540	0.605440	0.843880
C1781	C178	0.373820	0.624130	0.819830
C1791	C179	0.470240	0.636300	0.836820
C1801	C180	0.469180	0.630020	0.878220
C1811	C181	0.181400	0.591980	0.824020
C1821	C182	0.186670	0.518210	0.877250
C1831	C183	0.343500	0.383700	0.656300
C1841	C184	0.386100	0.416600	0.651600
C1851	C185	0.395600	0.430600	0.688000
C1861	C186	0.384000	0.409200	0.725400
C1871	C187	0.350400	0.371500	0.729700
C1881	C188	0.346400	0.347100	0.767500
C1891	C189	0.273300	0.364400	0.800800
C1901	C190	0.298900	0.340000	0.839400
C1911	C191	0.383800	0.300800	0.841000
C1921	C192	0.421000	0.287200	0.801000
C1931	C193	0.868200	0.916900	0.799500
C1941	C194	0.515950	0.010840	0.738460
C1951	C195	0.819000	0.758900	0.070100
C1961	C196	0.881500	0.891000	0.766200
C1971	C197	0.784000	0.892900	0.744500
C1981	C198	0.674540	0.920750	0.756170
C1991	C199	0.565190	0.921610	0.732010
C2001	C200	0.666120	0.946230	0.789730
C2011	C201	0.553240	0.976260	0.806660
C2021	C202	0.022800	0.805400	0.094800
C2031	C203	0.477540	0.002860	0.784060
C2041	C204	0.370290	0.026110	0.805110
C2051	C205	0.341700	0.023500	0.847100
C2061	C206	0.426400	0.999500	0.868100
C2071	C207	0.704100	0.045300	0.821900
C2081	C208	0.643300	0.084800	0.815200
C2091	C209	0.575900	0.106600	0.848800
C2101	C210	0.575100	0.090900	0.888300
C2111	C211	0.647100	0.052600	0.892800
C2121	C212	0.657300	0.031800	0.932800
C2131	C213	0.682680	0.050520	0.967120
C2141	C214	0.683410	0.027790	0.002990
C2151	C215	0.662590	0.987760	0.003660
C2161	C216	0.646500	0.970000	0.968200
C2171	C217	0.724280	0.092120	0.965120
C2181	C218	0.485900	0.114400	0.923400
C2191	C219	0.947000	0.980800	0.903600
C2201	C220	0.015300	0.977500	0.934900
C2211	C221	0.014100	0.942700	0.959100
C2221	C222	0.947780	0.911700	0.951540
C2231	C223	0.889890	0.916310	0.916310
C2241	C224	0.825490	0.885400	0.900020
C2251	C225	0.871580	0.843880	0.894560
C2261	C226	0.806350	0.819830	0.875870
C2271	C227	0.692940	0.836820	0.863700
C2281	C228	0.652600	0.878220	0.869980
C2291	C229	0.994580	0.824020	0.908020
C2301	C230	0.936080	0.877250	0.981790
C2311	C231	0.000200	0.656300	0.116300
C2321	C232	0.962300	0.651600	0.083400
C2331	C233	0.916400	0.688000	0.069400
C2341	C234	0.890600	0.725400	0.090800
C2351	C235	0.919900	0.729700	0.128500
C2361	C236	0.886100	0.767500	0.152900
C2371	C237	0.925900	0.800800	0.135600
C2381	C238	0.861700	0.839400	0.160000
C2391	C239	0.775200	0.841000	0.199200
C2401	C240	0.778000	0.801000	0.212800
C2411	C241	0.084600	0.583100	0.700500
C2421	C242	0.765250	0.489160	0.761540
C2431	C243	0.148000	0.741100	0.429900
C2441	C244	0.038700	0.609000	0.733800
C2451	C245	0.921400	0.607100	0.755500
C2461	C246	0.851460	0.579250	0.743830
C2471	C247	0.718810	0.578390	0.767990
C2481	C248	0.902080	0.553770	0.710270
C2491	C249	0.836160	0.523740	0.693340
C2501	C250	0.423000	0.694600	0.405200
C2511	C251	0.764460	0.497140	0.715940
C2521	C252	0.701510	0.473890	0.694890
C2531	C253	0.712300	0.476500	0.652900
C2541	C254	0.794000	0.500500	0.631900
C2551	C255	0.071300	0.454700	0.678100
C2561	C256	0.043300	0.415200	0.684800
C2571	C257	0.031300	0.393400	0.651200
C2581	C258	0.054300	0.409100	0.611700
C2591	C259	0.092500	0.447400	0.607200
C2601	C260	0.121900	0.468200	0.567200
C2611	C261	0.200320	0.449480	0.532880
C2621	C262	0.214190	0.472210	0.497010
C2631	C263	0.154010	0.512240	0.496340
C2641	C264	0.084700	0.530000	0.531800
C2651	C265	0.281520	0.407880	0.534880
C2661	C266	0.023700	0.385600	0.576600
C2671	C267	0.331400	0.519200	0.596400
C2681	C268	0.427700	0.522500	0.565100
C2691	C269	0.415900	0.557300	0.540900
C2701	C270	0.311020	0.588300	0.548460
C2711	C271	0.222510	0.583690	0.583690
C2721	C272	0.110910	0.614600	0.599980
C2731	C273	0.110020	0.656120	0.605440
C2741	C274	0.002050	0.680170	0.624130
C2751	C275	0.893460	0.663180	0.636300
C2761	C276	0.900800	0.621780	0.630020
C2771	C277	0.226620	0.675980	0.591980
C2781	C278	0.295120	0.622750	0.518210
C2791	C279	0.272800	0.843700	0.383700
C2801	C280	0.197300	0.848400	0.416600
C2811	C281	0.173800	0.812000	0.430600
C2821	C282	0.206800	0.774600	0.409200
C2831	C283	0.278100	0.770300	0.371500
C2841	C284	0.306500	0.732500	0.347100
C2851	C285	0.362300	0.699200	0.364400
C2861	C286	0.361100	0.660600	0.340000
C2871	C287	0.315400	0.659000	0.300800
C2881	C288	0.291800	0.699000	0.287200
C2891	C289	0.667700	0.200500	0.416900
C2901	C290	0.254410	0.261540	0.510840
C2911	C291	0.889100	0.929900	0.258900
C2921	C292	0.647700	0.233800	0.391000
C2931	C293	0.528500	0.255500	0.392900
C2941	C294	0.430710	0.243830	0.420750
C2951	C295	0.297200	0.267990	0.421610
C2961	C296	0.455850	0.210270	0.446230
C2971	C297	0.359900	0.193340	0.476260
C2981	C298	0.117600	0.905200	0.305400
C2991	C299	0.261600	0.215940	0.502860
C3001	C300	0.175400	0.194890	0.526110
C3011	C301	0.188800	0.152900	0.523500
C3021	C302	0.294500	0.131900	0.499500
C3031	C303	0.526000	0.178100	0.545300
C3041	C304	0.458500	0.184800	0.584800
C3051	C305	0.424700	0.151200	0.606600
C3061	C306	0.463400	0.111700	0.590900
C3071	C307	0.539900	0.107200	0.552600
C3081	C308	0.590100	0.067200	0.531800
C3091	C309	0.649800	0.032880	0.550520
C3101	C310	0.686400	0.997010	0.527790
C3111	C311	0.666250	0.996340	0.487760
C3121	C312	0.614700	0.031800	0.470000
C3131	C313	0.689400	0.034880	0.592120
C3141	C314	0.409300	0.076600	0.614400
C3151	C315	0.850600	0.096400	0.480800
C3161	C316	0.950200	0.065100	0.477500
C3171	C317	0.973200	0.040900	0.442700
C3181	C318	0.899320	0.048460	0.411700
C3191	C319	0.806200	0.083690	0.416310
C3201	C320	0.725510	0.099980	0.385400
C3211	C321	0.766140	0.105440	0.343880
C3221	C322	0.682220	0.124130	0.319830
C3231	C323	0.556640	0.136300	0.336820
C3241	C324	0.522580	0.130020	0.378220
C3251	C325	0.902600	0.091980	0.324020
C3261	C326	0.917870	0.018210	0.377250
C3271	C327	0.116500	0.883700	0.156300
C3281	C328	0.045700	0.916600	0.151600
C3291	C329	0.985800	0.930600	0.188000
C3301	C330	0.981400	0.909200	0.225400
C3311	C331	0.048400	0.871500	0.229700
C3321	C332	0.039000	0.847100	0.267500
C3331	C333	0.061500	0.864400	0.300800
C3341	C334	0.021700	0.840000	0.339400
C3351	C335	0.974400	0.800800	0.341000
C3361	C336	0.990800	0.787200	0.301000
C3371	C337	0.785100	0.299500	0.083100
C3381	C338	0.526790	0.238460	0.989160
C3391	C339	0.577900	0.570100	0.241100
C3401	C340	0.772500	0.266200	0.109000
C3411	C341	0.676900	0.244500	0.107100
C3421	C342	0.595290	0.256170	0.079250
C3431	C343	0.486800	0.232010	0.078390
C3441	C344	0.612350	0.289730	0.053770
C3451	C345	0.529500	0.306660	0.023740
C3461	C346	0.828200	0.594800	0.194600
C3471	C347	0.480400	0.284060	0.997140
C3481	C348	0.396400	0.305110	0.973890
C3491	C349	0.365200	0.347100	0.976500
C3501	C350	0.425900	0.368100	0.000500
C3511	C351	0.749400	0.321900	0.954700
C3521	C352	0.728100	0.315200	0.915200
C3531	C353	0.682500	0.348800	0.893400
C3541	C354	0.666000	0.388300	0.909100
C3551	C355	0.699700	0.392800	0.947400
C3561	C356	0.689100	0.432800	0.968200
C3571	C357	0.733200	0.467120	0.949480
C3581	C358	0.711200	0.502990	0.972210
C3591	C359	0.650350	0.503660	0.012240
C3601	C360	0.616500	0.468200	0.030000
C3611	C361	0.816400	0.465120	0.907880
C3621	C362	0.600300	0.423400	0.885600
C3631	C363	0.927800	0.403600	0.019200
C3641	C364	0.992800	0.434900	0.022500
C3651	C365	0.956800	0.459100	0.057300
C3661	C366	0.859480	0.451540	0.088300
C3671	C367	0.806200	0.416310	0.083690
C3681	C368	0.710890	0.400020	0.114600
C3691	C369	0.715460	0.394560	0.156120
C3701	C370	0.626180	0.375870	0.180170
C3711	C371	0.529760	0.363700	0.163180
C3721	C372	0.530820	0.369980	0.121780
C3731	C373	0.818600	0.408020	0.175980
C3741	C374	0.813330	0.481790	0.122750
C3751	C375	0.656500	0.616300	0.343700
C3761	C376	0.613900	0.583400	0.348400
C3771	C377	0.604400	0.569400	0.312000
C3781	C378	0.616000	0.590800	0.274600
C3791	C379	0.649600	0.628500	0.270300
C3801	C380	0.653600	0.652900	0.232500
C3811	C381	0.726700	0.635600	0.199200
C3821	C382	0.701100	0.660000	0.160600
C3831	C383	0.616200	0.699200	0.159000
C3841	C384	0.579000	0.712800	0.199000
N11	N1	0.238730	0.056280	0.188860
N21	N2	0.468400	0.023790	0.151810
N31	N3	0.294590	0.970930	0.140490
N41	N4	0.355720	0.008660	0.066700
N51	N5	0.116010	0.048650	0.105530
N61	N6	0.282590	0.097440	0.112780
N71	N7	0.177900	0.234400	0.807400
N81	N8	0.008700	0.312100	0.856300
N91	N9	0.983870	0.443720	0.311140
N101	N10	0.144000	0.476210	0.348190
N111	N11	0.906010	0.529070	0.359510
N121	N12	0.931080	0.491340	0.433300
N131	N13	0.770190	0.451350	0.394470
N141	N14	0.992810	0.402560	0.387220
N151	N15	0.719700	0.265600	0.692600
N161	N16	0.677100	0.187900	0.643700
N171	N17	0.427590	0.811140	0.556280
N181	N18	0.620210	0.848190	0.523790
N191	N19	0.435080	0.859510	0.470930
N201	N20	0.422420	0.933300	0.508660
N211	N21	0.221540	0.894470	0.548650
N221	N22	0.395370	0.887220	0.597440
N231	N23	0.985300	0.192600	0.734400
N241	N24	0.865000	0.143700	0.812100
N251	N25	0.295010	0.688860	0.943720
N261	N26	0.492190	0.651810	0.976210
N271	N27	0.265520	0.640490	0.029070
N281	N28	0.364380	0.566700	0.991340
N291	N29	0.164660	0.605530	0.951350
N301	N30	0.380030	0.612780	0.902560
N311	N31	0.412300	0.307400	0.765600
N321	N32	0.320800	0.356300	0.687900
N331	N33	0.761270	0.943720	0.811140
N341	N34	0.531600	0.976210	0.848190
N351	N35	0.705410	0.029070	0.859510
N361	N36	0.644280	0.991340	0.933300
N371	N37	0.883990	0.951350	0.894470
N381	N38	0.717410	0.902560	0.887220
N391	N39	0.822100	0.765600	0.192600
N401	N40	0.991300	0.687900	0.143700
N411	N41	0.016130	0.556280	0.688860
N421	N42	0.856000	0.523790	0.651810
N431	N43	0.093990	0.470930	0.640490
N441	N44	0.068920	0.508660	0.566700
N451	N45	0.229810	0.548650	0.605530
N461	N46	0.007190	0.597440	0.612780
N471	N47	0.280300	0.734400	0.307400
N481	N48	0.322900	0.812100	0.356300
N491	N49	0.572410	0.188860	0.443720
N501	N50	0.379790	0.151810	0.476210
N511	N51	0.564920	0.140490	0.529070
N521	N52	0.577580	0.066700	0.491340
N531	N53	0.778460	0.105530	0.451350
N541	N54	0.604630	0.112780	0.402560
N551	N55	0.014700	0.807400	0.265600
N561	N56	0.135000	0.856300	0.187900
N571	N57	0.704990	0.311140	0.056280
N581	N58	0.507810	0.348190	0.023790
N591	N59	0.734480	0.359510	0.970930
N601	N60	0.635620	0.433300	0.008660
N611	N61	0.835340	0.394470	0.048650
N621	N62	0.619970	0.387220	0.097440
N631	N63	0.587700	0.692600	0.234400
N641	N64	0.679200	0.643700	0.312100
O11	O1	0.406150	0.077960	0.306340
O21	O2	0.541960	0.078200	0.247680
O31	O3	0.366700	0.992710	0.273890
O41	O4	0.567400	0.978020	0.281980
O51	O5	0.525130	0.846340	0.078200
O61	O6	0.578070	0.903740	0.049920
O71	O7	0.339420	0.878560	0.013000
O81	O8	0.172190	0.904190	0.056630
O91	O9	0.006130	0.210110	0.073430
O101	O10	0.912760	0.157050	0.099630
O111	O11	0.160750	0.138240	0.014860
O121	O12	0.978580	0.131270	0.996770
O131	O13	0.979500	0.162700	0.917700
O141	O14	0.888300	0.224600	0.915000
O151	O15	0.129260	0.227300	0.963780
O161	O16	0.292610	0.226410	0.915170
O171	O17	0.290450	0.422040	0.193660
O181	O18	0.367840	0.421800	0.252320
O191	O19	0.133300	0.507290	0.226110
O201	O20	0.327400	0.521980	0.218020
O211	O21	0.949670	0.653660	0.421800
O221	O22	0.031730	0.596260	0.450080
O231	O23	0.730980	0.621440	0.487000
O241	O24	0.633010	0.595810	0.443370
O251	O25	0.789670	0.289890	0.426570
O261	O26	0.669440	0.342950	0.400370
O271	O27	0.813850	0.361760	0.485140
O281	O28	0.606620	0.368730	0.503230
O291	O29	0.559900	0.337300	0.582300
O301	O30	0.527900	0.275400	0.585000
O311	O31	0.820340	0.272700	0.536220
O321	O32	0.934190	0.273590	0.584830
O331	O33	0.712490	0.693660	0.577960
O341	O34	0.789640	0.752320	0.578200
O351	O35	0.640590	0.726110	0.492710
O361	O36	0.849380	0.718020	0.478020
O371	O37	0.603330	0.921800	0.346340
O381	O38	0.627990	0.950080	0.403740
O391	O39	0.352420	0.987000	0.378560
O401	O40	0.228820	0.943370	0.404190
O411	O41	0.079560	0.926570	0.710110
O421	O42	0.012390	0.900370	0.657050
O431	O43	0.175610	0.985140	0.638240
O441	O44	0.975350	0.003230	0.631270
O451	O45	0.897200	0.082300	0.662700
O461	O46	0.803300	0.085000	0.724600
O471	O47	0.093040	0.036220	0.727300
O481	O48	0.207780	0.084830	0.726410
O491	O49	0.484110	0.806340	0.922040
O501	O50	0.620160	0.747680	0.921800
O511	O51	0.359410	0.773890	0.007290
O521	O52	0.545420	0.781980	0.021980
O531	O53	0.371470	0.578200	0.153660
O541	O54	0.481810	0.549920	0.096260
O551	O55	0.217980	0.513000	0.121440
O561	O56	0.076380	0.556630	0.095810
O571	O57	0.216240	0.573430	0.789890
O581	O58	0.069810	0.599630	0.842950
O591	O59	0.298990	0.514860	0.861760
O601	O60	0.109850	0.496770	0.868730
O611	O61	0.142200	0.417700	0.837300
O621	O62	0.112900	0.415000	0.775400
O631	O63	0.356560	0.463780	0.772700
O641	O64	0.519020	0.415170	0.773590
O651	O65	0.593850	0.922040	0.693660
O661	O66	0.458040	0.921800	0.752320
O671	O67	0.633300	0.007290	0.726110
O681	O68	0.432600	0.021980	0.718020
O691	O69	0.474870	0.153660	0.921800
O701	O70	0.421930	0.096260	0.950080
O711	O71	0.660580	0.121440	0.987000
O721	O72	0.827810	0.095810	0.943370
O731	O73	0.993870	0.789890	0.926570
O741	O74	0.087240	0.842950	0.900370
O751	O75	0.839250	0.861760	0.985140
O761	O76	0.021420	0.868730	0.003230
O771	O77	0.020500	0.837300	0.082300
O781	O78	0.111700	0.775400	0.085000
O791	O79	0.870740	0.772700	0.036220
O801	O80	0.707390	0.773590	0.084830
O811	O81	0.709550	0.577960	0.806340
O821	O82	0.632160	0.578200	0.747680
O831	O83	0.866700	0.492710	0.773890
O841	O84	0.672600	0.478020	0.781980
O851	O85	0.050330	0.346340	0.578200
O861	O86	0.968270	0.403740	0.549920
O871	O87	0.269020	0.378560	0.513000
O881	O88	0.366990	0.404190	0.556630
O891	O89	0.210330	0.710110	0.573430
O901	O90	0.330560	0.657050	0.599630
O911	O91	0.186150	0.638240	0.514860
O921	O92	0.393380	0.631270	0.496770
O931	O93	0.440100	0.662700	0.417700
O941	O94	0.472100	0.724600	0.415000
O951	O95	0.179660	0.727300	0.463780
O961	O96	0.065810	0.726410	0.415170
O971	O97	0.287510	0.306340	0.422040
O981	O98	0.210360	0.247680	0.421800
O991	O99	0.359410	0.273890	0.507290
O1001	O100	0.150620	0.281980	0.521980
O1011	O101	0.396670	0.078200	0.653660
O1021	O102	0.372010	0.049920	0.596260
O1031	O103	0.647580	0.013000	0.621440
O1041	O104	0.771180	0.056630	0.595810
O1051	O105	0.920440	0.073430	0.289890
O1061	O106	0.987610	0.099630	0.342950
O1071	O107	0.824390	0.014860	0.361760
O1081	O108	0.024650	0.996770	0.368730
O1091	O109	0.102800	0.917700	0.337300
O1101	O110	0.196700	0.915000	0.275400
O1111	O111	0.906960	0.963780	0.272700
O1121	O112	0.792220	0.915170	0.273590
O1131	O113	0.515890	0.193660	0.077960
O1141	O114	0.379840	0.252320	0.078200
O1151	O115	0.640590	0.226110	0.992710
O1161	O116	0.454580	0.218020	0.978020
O1171	O117	0.628530	0.421800	0.846340
O1181	O118	0.518190	0.450080	0.903740
O1191	O119	0.782020	0.487000	0.878560
O1201	O120	0.923620	0.443370	0.904190
O1211	O121	0.783760	0.426570	0.210110
O1221	O122	0.930190	0.400370	0.157050
O1231	O123	0.701010	0.485140	0.138240
O1241	O124	0.890150	0.503230	0.131270
O1251	O125	0.857800	0.582300	0.162700
O1261	O126	0.887100	0.585000	0.224600
O1271	O127	0.643440	0.536220	0.227300
O1281	O128	0.480980	0.584830	0.226410
