data_MIGVON_clean_PM
_symmetry_space_group_name_H-M	'P1'
_cell_length_a	13.699000
_cell_length_b	21.594000
_cell_length_c	22.220000
_cell_angle_alpha	90.000000
_cell_angle_beta	90.000000
_cell_angle_gamma	90.000000
_symmetry_Int_Tables_number 1

loop_
_symmetry_equiv_pos_as_xyz
'x,y,z'

loop_
_atom_site_label
_atom_site_type_symbol
_atom_site_fract_x
_atom_site_fract_y
_atom_site_fract_z
Co11	Co1	0.225670	0.152810	0.865020
Co21	Co2	0.268150	0.345950	0.631880
Co31	Co3	0.274330	0.847190	0.365020
Co41	Co4	0.231850	0.654050	0.131880
Co51	Co5	0.774330	0.652810	0.634980
Co61	Co6	0.731850	0.845950	0.868120
Co71	Co7	0.725670	0.347190	0.134980
Co81	Co8	0.768150	0.154050	0.368120
H11	H1	0.425700	0.211000	0.835500
H21	H2	0.711500	0.207600	0.104800
H31	H3	0.035400	0.181800	0.790700
H41	H4	0.777500	0.899000	0.742800
H51	H5	0.070300	0.288200	0.669800
H61	H6	0.801400	0.295400	0.393400
H71	H7	0.546000	0.821100	0.792700
H81	H8	0.294200	0.104900	0.738600
H91	H9	0.596300	0.240900	0.835200
H101	H10	0.619500	0.284400	0.889800
H111	H11	0.652300	0.214800	0.891300
H121	H12	0.251200	0.185200	0.005600
H131	H13	0.341100	0.163500	0.043900
H141	H14	0.312400	0.233700	0.042200
H151	H15	0.505700	0.368900	0.085800
H161	H16	0.486800	0.359400	0.016900
H171	H17	0.418900	0.327200	0.064200
H181	H18	0.703300	0.116100	0.041500
H191	H19	0.596200	0.102000	0.020800
H201	H20	0.669700	0.133400	0.976200
H211	H21	0.210100	0.011600	0.837200
H221	H22	0.120400	0.973500	0.860600
H231	H23	0.150700	0.969700	0.792700
H241	H24	0.868100	0.179400	0.763100
H251	H25	0.839700	0.118300	0.729200
H261	H26	0.811700	0.126800	0.797100
H271	H27	0.910500	0.917700	0.926600
H281	H28	0.007400	0.947100	0.902300
H291	H29	0.921100	0.989900	0.922800
H301	H30	0.808000	0.967400	0.661600
H311	H31	0.825800	0.035200	0.684200
H321	H32	0.914200	0.994500	0.663200
H331	H33	0.900700	0.266100	0.671900
H341	H34	0.847800	0.294100	0.615500
H351	H35	0.867500	0.222600	0.619200
H361	H36	0.246700	0.294700	0.500100
H371	H37	0.180200	0.246200	0.467400
H381	H38	0.159300	0.317200	0.460200
H391	H39	0.975500	0.121100	0.427000
H401	H40	0.065000	0.157900	0.452600
H411	H41	0.984500	0.132700	0.496500
H421	H42	0.820600	0.387900	0.453900
H431	H43	0.845300	0.371800	0.520900
H441	H44	0.928000	0.394400	0.477400
H451	H45	0.706100	0.989200	0.860200
H461	H46	0.652400	0.034600	0.816300
H471	H47	0.611300	0.023600	0.881200
H481	H48	0.381500	0.825200	0.752900
H491	H49	0.319200	0.876800	0.784400
H501	H50	0.362600	0.888300	0.720100
H511	H51	0.379300	0.074700	0.931700
H521	H52	0.390800	0.002900	0.924100
H531	H53	0.481500	0.046400	0.915800
H541	H54	0.354800	0.044300	0.656900
H551	H55	0.461200	0.021200	0.669700
H561	H56	0.373100	0.975300	0.675500
H571	H57	0.074300	0.789000	0.335500
H581	H58	0.788500	0.792400	0.604800
H591	H59	0.464600	0.818200	0.290700
H601	H60	0.722500	0.101000	0.242800
H611	H61	0.429700	0.711800	0.169800
H621	H62	0.698600	0.704600	0.893400
H631	H63	0.954000	0.178900	0.292700
H641	H64	0.205800	0.895100	0.238600
H651	H65	0.903700	0.759100	0.335200
H661	H66	0.880500	0.715600	0.389800
H671	H67	0.847700	0.785200	0.391300
H681	H68	0.248800	0.814800	0.505600
H691	H69	0.158900	0.836500	0.543900
H701	H70	0.187600	0.766300	0.542200
H711	H71	0.994300	0.631100	0.585800
H721	H72	0.013200	0.640600	0.516900
H731	H73	0.081100	0.672800	0.564200
H741	H74	0.796700	0.883900	0.541500
H751	H75	0.903800	0.898000	0.520800
H761	H76	0.830300	0.866600	0.476200
H771	H77	0.289900	0.988400	0.337200
H781	H78	0.379600	0.026500	0.360600
H791	H79	0.349300	0.030300	0.292700
H801	H80	0.631900	0.820600	0.263100
H811	H81	0.660300	0.881700	0.229200
H821	H82	0.688300	0.873200	0.297100
H831	H83	0.589500	0.082300	0.426600
H841	H84	0.492600	0.052900	0.402300
H851	H85	0.578900	0.010100	0.422800
H861	H86	0.692000	0.032600	0.161600
H871	H87	0.674200	0.964800	0.184200
H881	H88	0.585800	0.005500	0.163200
H891	H89	0.599300	0.733900	0.171900
H901	H90	0.652200	0.705900	0.115500
H911	H91	0.632500	0.777400	0.119200
H921	H92	0.253300	0.705300	0.000100
H931	H93	0.319800	0.753800	0.967400
H941	H94	0.340700	0.682800	0.960200
H951	H95	0.524500	0.878900	0.927000
H961	H96	0.435000	0.842100	0.952600
H971	H97	0.515500	0.867300	0.996500
H981	H98	0.679400	0.612100	0.953900
H991	H99	0.654700	0.628200	0.020900
H1001	H100	0.572000	0.605600	0.977400
H1011	H101	0.793900	0.010800	0.360200
H1021	H102	0.847600	0.965400	0.316300
H1031	H103	0.888700	0.976400	0.381200
H1041	H104	0.118500	0.174800	0.252900
H1051	H105	0.180800	0.123200	0.284400
H1061	H106	0.137400	0.111700	0.220100
H1071	H107	0.120700	0.925300	0.431700
H1081	H108	0.109200	0.997100	0.424100
H1091	H109	0.018500	0.953600	0.415800
H1101	H110	0.145200	0.955700	0.156900
H1111	H111	0.038800	0.978800	0.169700
H1121	H112	0.126900	0.024700	0.175500
H1131	H113	0.574300	0.711000	0.664500
H1141	H114	0.288500	0.707600	0.395200
H1151	H115	0.964600	0.681800	0.709300
H1161	H116	0.222500	0.399000	0.757200
H1171	H117	0.929700	0.788200	0.830200
H1181	H118	0.198600	0.795400	0.106600
H1191	H119	0.454000	0.321100	0.707300
H1201	H120	0.705800	0.604900	0.761400
H1211	H121	0.403700	0.740900	0.664800
H1221	H122	0.380500	0.784400	0.610200
H1231	H123	0.347700	0.714800	0.608700
H1241	H124	0.748800	0.685200	0.494400
H1251	H125	0.658900	0.663500	0.456100
H1261	H126	0.687600	0.733700	0.457800
H1271	H127	0.494300	0.868900	0.414200
H1281	H128	0.513200	0.859400	0.483100
H1291	H129	0.581100	0.827200	0.435800
H1301	H130	0.296700	0.616100	0.458500
H1311	H131	0.403800	0.602000	0.479200
H1321	H132	0.330300	0.633400	0.523800
H1331	H133	0.789900	0.511600	0.662800
H1341	H134	0.879600	0.473500	0.639400
H1351	H135	0.849300	0.469700	0.707300
H1361	H136	0.131900	0.679400	0.736900
H1371	H137	0.160300	0.618300	0.770800
H1381	H138	0.188300	0.626800	0.702900
H1391	H139	0.089500	0.417700	0.573400
H1401	H140	0.992600	0.447100	0.597700
H1411	H141	0.078900	0.489900	0.577200
H1421	H142	0.192000	0.467400	0.838400
H1431	H143	0.174200	0.535200	0.815800
H1441	H144	0.085800	0.494500	0.836800
H1451	H145	0.099300	0.766100	0.828100
H1461	H146	0.152200	0.794100	0.884500
H1471	H147	0.132500	0.722600	0.880800
H1481	H148	0.753300	0.794700	0.999900
H1491	H149	0.819800	0.746200	0.032600
H1501	H150	0.840700	0.817200	0.039800
H1511	H151	0.024500	0.621100	0.073000
H1521	H152	0.935000	0.657900	0.047400
H1531	H153	0.015500	0.632700	0.003500
H1541	H154	0.179400	0.887900	0.046100
H1551	H155	0.154700	0.871800	0.979100
H1561	H156	0.072000	0.894400	0.022600
H1571	H157	0.293900	0.489200	0.639800
H1581	H158	0.347600	0.534600	0.683700
H1591	H159	0.388700	0.523600	0.618800
H1601	H160	0.618500	0.325200	0.747100
H1611	H161	0.680800	0.376800	0.715600
H1621	H162	0.637400	0.388300	0.779900
H1631	H163	0.620700	0.574700	0.568300
H1641	H164	0.609200	0.502900	0.575900
H1651	H165	0.518500	0.546400	0.584200
H1661	H166	0.645200	0.544300	0.843100
H1671	H167	0.538800	0.521200	0.830300
H1681	H168	0.626900	0.475300	0.824500
H1691	H169	0.925700	0.289000	0.164500
H1701	H170	0.211500	0.292400	0.895200
H1711	H171	0.535400	0.318200	0.209300
H1721	H172	0.277500	0.601000	0.257200
H1731	H173	0.570300	0.211800	0.330200
H1741	H174	0.301400	0.204600	0.606600
H1751	H175	0.046000	0.678900	0.207300
H1761	H176	0.794200	0.395100	0.261400
H1771	H177	0.096300	0.259100	0.164800
H1781	H178	0.119500	0.215600	0.110200
H1791	H179	0.152300	0.285200	0.108700
H1801	H180	0.751200	0.314800	0.994400
H1811	H181	0.841100	0.336500	0.956100
H1821	H182	0.812400	0.266300	0.957800
H1831	H183	0.005700	0.131100	0.914200
H1841	H184	0.986800	0.140600	0.983100
H1851	H185	0.918900	0.172800	0.935800
H1861	H186	0.203300	0.383900	0.958500
H1871	H187	0.096200	0.398000	0.979200
H1881	H188	0.169700	0.366600	0.023800
H1891	H189	0.710100	0.488400	0.162800
H1901	H190	0.620400	0.526500	0.139400
H1911	H191	0.650700	0.530300	0.207300
H1921	H192	0.368100	0.320600	0.236900
H1931	H193	0.339700	0.381700	0.270800
H1941	H194	0.311700	0.373200	0.202900
H1951	H195	0.410500	0.582300	0.073400
H1961	H196	0.507400	0.552900	0.097700
H1971	H197	0.421100	0.510100	0.077200
H1981	H198	0.308000	0.532600	0.338400
H1991	H199	0.325800	0.464800	0.315800
H2001	H200	0.414200	0.505500	0.336800
H2011	H201	0.400700	0.233900	0.328100
H2021	H202	0.347800	0.205900	0.384500
H2031	H203	0.367500	0.277400	0.380800
H2041	H204	0.746700	0.205300	0.499900
H2051	H205	0.680200	0.253800	0.532600
H2061	H206	0.659300	0.182800	0.539800
H2071	H207	0.475500	0.378900	0.573000
H2081	H208	0.565000	0.342100	0.547400
H2091	H209	0.484500	0.367300	0.503500
H2101	H210	0.320600	0.112100	0.546100
H2111	H211	0.345300	0.128200	0.479100
H2121	H212	0.428000	0.105600	0.522600
H2131	H213	0.206100	0.510800	0.139800
H2141	H214	0.152400	0.465400	0.183700
H2151	H215	0.111300	0.476400	0.118800
H2161	H216	0.881500	0.674800	0.247100
H2171	H217	0.819200	0.623200	0.215600
H2181	H218	0.862600	0.611700	0.279900
H2191	H219	0.879300	0.425300	0.068300
H2201	H220	0.890800	0.497100	0.075900
H2211	H221	0.981500	0.453600	0.084200
H2221	H222	0.854800	0.455700	0.343100
H2231	H223	0.961200	0.478800	0.330300
H2241	H224	0.873100	0.524700	0.324500
C11	C1	0.380000	0.205400	0.966600
C21	C2	0.480000	0.221800	0.966800
C31	C3	0.506800	0.225500	0.906800
C41	C4	0.602400	0.243000	0.878200
C51	C5	0.315500	0.196100	0.019200
C61	C6	0.618100	0.193300	0.039400
C71	C7	0.544600	0.232300	0.019200
C81	C8	0.550600	0.284500	0.056100
C91	C9	0.484600	0.340000	0.055700
C101	C10	0.649700	0.130500	0.017500
C111	C11	0.954600	0.107100	0.785200
C121	C12	0.981100	0.047300	0.796400
C131	C13	0.080300	0.049700	0.813100
C141	C14	0.146300	0.996300	0.827200
C151	C15	0.860100	0.135400	0.767000
C161	C16	0.864400	0.970500	0.745700
C171	C17	0.919200	0.991900	0.794400
C181	C18	0.897500	0.950300	0.841600
C191	C19	0.937700	0.951400	0.903800
C201	C20	0.852000	0.994000	0.683100
C211	C21	0.116400	0.283600	0.540200
C221	C22	0.015400	0.271500	0.539700
C231	C23	0.988300	0.271800	0.599100
C241	C24	0.892600	0.262900	0.629100
C251	C25	0.181300	0.285600	0.487400
C261	C26	0.888600	0.305800	0.462800
C271	C27	0.952100	0.261800	0.487000
C281	C28	0.941400	0.208800	0.450700
C291	C29	0.996500	0.149900	0.457300
C301	C30	0.868900	0.370600	0.480300
C311	C31	0.463100	0.894900	0.785700
C321	C32	0.487000	0.955600	0.802100
C331	C33	0.583100	0.952300	0.824700
C341	C34	0.643600	0.004600	0.847600
C351	C35	0.373800	0.869000	0.758400
C361	C36	0.382900	0.034600	0.745800
C371	C37	0.423600	0.010200	0.797600
C381	C38	0.389600	0.048400	0.845000
C391	C39	0.412300	0.042600	0.909900
C401	C40	0.394000	0.017300	0.681200
C411	C41	0.271900	0.429400	0.515100
C421	C42	0.170900	0.073900	0.981400
C431	C43	0.120000	0.794600	0.466600
C441	C44	0.020000	0.778200	0.466800
C451	C45	0.993200	0.774500	0.406800
C461	C46	0.897600	0.757000	0.378200
C471	C47	0.184500	0.803900	0.519200
C481	C48	0.881900	0.806700	0.539400
C491	C49	0.955400	0.767700	0.519200
C501	C50	0.949400	0.715500	0.556100
C511	C51	0.015400	0.660000	0.555700
C521	C52	0.850300	0.869500	0.517500
C531	C53	0.545400	0.892900	0.285200
C541	C54	0.518900	0.952700	0.296400
C551	C55	0.419700	0.950300	0.313100
C561	C56	0.353700	0.003700	0.327200
C571	C57	0.639900	0.864600	0.267000
C581	C58	0.635600	0.029500	0.245700
C591	C59	0.580800	0.008100	0.294400
C601	C60	0.602500	0.049700	0.341600
C611	C61	0.562300	0.048600	0.403800
C621	C62	0.648000	0.006000	0.183100
C631	C63	0.383600	0.716400	0.040200
C641	C64	0.484600	0.728500	0.039700
C651	C65	0.511700	0.728200	0.099100
C661	C66	0.607400	0.737100	0.129100
C671	C67	0.318700	0.714400	0.987400
C681	C68	0.611400	0.694200	0.962800
C691	C69	0.547900	0.738200	0.987000
C701	C70	0.558600	0.791200	0.950700
C711	C71	0.503500	0.850100	0.957300
C721	C72	0.631100	0.629400	0.980300
C731	C73	0.036900	0.105100	0.285700
C741	C74	0.013000	0.044400	0.302100
C751	C75	0.916900	0.047700	0.324700
C761	C76	0.856400	0.995400	0.347600
C771	C77	0.126200	0.131000	0.258400
C781	C78	0.117100	0.965400	0.245800
C791	C79	0.076400	0.989800	0.297600
C801	C80	0.110400	0.951600	0.345000
C811	C81	0.087700	0.957400	0.409900
C821	C82	0.106000	0.982700	0.181200
C831	C83	0.228100	0.570600	0.015100
C841	C84	0.329100	0.926100	0.481400
C851	C85	0.620000	0.705400	0.533400
C861	C86	0.520000	0.721800	0.533200
C871	C87	0.493200	0.725500	0.593200
C881	C88	0.397600	0.743000	0.621800
C891	C89	0.684500	0.696100	0.480800
C901	C90	0.381900	0.693300	0.460600
C911	C91	0.455400	0.732300	0.480800
C921	C92	0.449400	0.784500	0.443900
C931	C93	0.515400	0.840000	0.444300
C941	C94	0.350300	0.630500	0.482500
C951	C95	0.045400	0.607100	0.714800
C961	C96	0.018900	0.547300	0.703600
C971	C97	0.919700	0.549700	0.686900
C981	C98	0.853700	0.496300	0.672800
C991	C99	0.139900	0.635400	0.733000
C1001	C100	0.135600	0.470500	0.754300
C1011	C101	0.080800	0.491900	0.705600
C1021	C102	0.102500	0.450300	0.658400
C1031	C103	0.062300	0.451400	0.596200
C1041	C104	0.148000	0.494000	0.816900
C1051	C105	0.883600	0.783600	0.959800
C1061	C106	0.984600	0.771500	0.960300
C1071	C107	0.011700	0.771800	0.900900
C1081	C108	0.107400	0.762900	0.870900
C1091	C109	0.818700	0.785600	0.012600
C1101	C110	0.111400	0.805800	0.037200
C1111	C111	0.047900	0.761800	0.013000
C1121	C112	0.058600	0.708800	0.049300
C1131	C113	0.003500	0.649900	0.042700
C1141	C114	0.131100	0.870600	0.019700
C1151	C115	0.536900	0.394900	0.714300
C1161	C116	0.513000	0.455600	0.697900
C1171	C117	0.416900	0.452300	0.675300
C1181	C118	0.356400	0.504600	0.652400
C1191	C119	0.626200	0.369000	0.741600
C1201	C120	0.617100	0.534600	0.754200
C1211	C121	0.576400	0.510200	0.702400
C1221	C122	0.610400	0.548400	0.655000
C1231	C123	0.587700	0.542600	0.590100
C1241	C124	0.606000	0.517300	0.818800
C1251	C125	0.728100	0.929400	0.984900
C1261	C126	0.829100	0.573900	0.518600
C1271	C127	0.880000	0.294600	0.033400
C1281	C128	0.980000	0.278200	0.033200
C1291	C129	0.006800	0.274500	0.093200
C1301	C130	0.102400	0.257000	0.121800
C1311	C131	0.815500	0.303900	0.980800
C1321	C132	0.118100	0.306700	0.960600
C1331	C133	0.044600	0.267700	0.980800
C1341	C134	0.050600	0.215500	0.943900
C1351	C135	0.984600	0.160000	0.944300
C1361	C136	0.149700	0.369500	0.982500
C1371	C137	0.454600	0.392900	0.214800
C1381	C138	0.481100	0.452700	0.203600
C1391	C139	0.580300	0.450300	0.186900
C1401	C140	0.646300	0.503700	0.172800
C1411	C141	0.360100	0.364600	0.233000
C1421	C142	0.364400	0.529500	0.254300
C1431	C143	0.419200	0.508100	0.205600
C1441	C144	0.397500	0.549700	0.158400
C1451	C145	0.437700	0.548600	0.096200
C1461	C146	0.352000	0.506000	0.316900
C1471	C147	0.616400	0.216400	0.459800
C1481	C148	0.515400	0.228500	0.460300
C1491	C149	0.488300	0.228200	0.400900
C1501	C150	0.392600	0.237100	0.370900
C1511	C151	0.681300	0.214400	0.512600
C1521	C152	0.388600	0.194200	0.537200
C1531	C153	0.452100	0.238200	0.513000
C1541	C154	0.441400	0.291200	0.549300
C1551	C155	0.496500	0.350100	0.542700
C1561	C156	0.368900	0.129400	0.519700
C1571	C157	0.963100	0.605100	0.214300
C1581	C158	0.987000	0.544400	0.197900
C1591	C159	0.083100	0.547700	0.175300
C1601	C160	0.143600	0.495400	0.152400
C1611	C161	0.873800	0.631000	0.241600
C1621	C162	0.882900	0.465400	0.254200
C1631	C163	0.923600	0.489800	0.202400
C1641	C164	0.889600	0.451600	0.155000
C1651	C165	0.912300	0.457400	0.090100
C1661	C166	0.894000	0.482700	0.318800
C1671	C167	0.771900	0.070600	0.484900
C1681	C168	0.670900	0.426100	0.018600
S11	S1	0.287450	0.235390	0.738230
S21	S2	0.133100	0.043860	0.044110
S31	S3	0.261600	0.470300	0.453310
S41	S4	0.212550	0.764610	0.238230
S51	S5	0.366900	0.956140	0.544110
S61	S6	0.238400	0.529700	0.953310
S71	S7	0.712550	0.735390	0.761770
S81	S8	0.866900	0.543860	0.455890
S91	S9	0.738400	0.970300	0.046690
S101	S10	0.787450	0.264610	0.261770
S111	S11	0.633100	0.456140	0.955890
S121	S12	0.761600	0.029700	0.546690
N11	N1	0.348200	0.198800	0.909700
N21	N2	0.427000	0.211700	0.874100
N31	N3	0.622400	0.279100	0.096000
N41	N4	0.663000	0.222600	0.085000
N51	N5	0.111900	0.108300	0.813000
N61	N6	0.034200	0.142300	0.795200
N71	N7	0.836300	0.907100	0.823200
N81	N8	0.816400	0.920400	0.764900
N91	N9	0.148500	0.291900	0.595900
N101	N10	0.069300	0.284800	0.631300
N111	N11	0.844100	0.277600	0.415900
N121	N12	0.874000	0.218200	0.408200
N131	N13	0.542300	0.860400	0.798900
N141	N14	0.614300	0.893900	0.822600
N151	N15	0.330600	0.092300	0.823500
N161	N16	0.327800	0.082600	0.763100
N171	N17	0.198500	0.095100	0.936700
N181	N18	0.275700	0.401900	0.558200
N191	N19	0.151800	0.801200	0.409700
N201	N20	0.073000	0.788300	0.374100
N211	N21	0.877600	0.720900	0.596000
N221	N22	0.837000	0.777400	0.585000
N231	N23	0.388100	0.891700	0.313000
N241	N24	0.465800	0.857700	0.295200
N251	N25	0.663700	0.092900	0.323200
N261	N26	0.683600	0.079600	0.264900
N271	N27	0.351500	0.708100	0.095900
N281	N28	0.430700	0.715200	0.131300
N291	N29	0.655900	0.722400	0.915900
N301	N30	0.626000	0.781800	0.908200
N311	N31	0.957700	0.139600	0.298900
N321	N32	0.885700	0.106100	0.322600
N331	N33	0.169400	0.907700	0.323500
N341	N34	0.172200	0.917400	0.263100
N351	N35	0.301500	0.904900	0.436700
N361	N36	0.224300	0.598100	0.058200
N371	N37	0.651800	0.698800	0.590300
N381	N38	0.573000	0.711700	0.625900
N391	N39	0.377600	0.779100	0.404000
N401	N40	0.337000	0.722600	0.415000
N411	N41	0.888100	0.608300	0.687000
N421	N42	0.965800	0.642300	0.704800
N431	N43	0.163700	0.407100	0.676800
N441	N44	0.183600	0.420400	0.735100
N451	N45	0.851500	0.791900	0.904100
N461	N46	0.930700	0.784800	0.868700
N471	N47	0.155900	0.777600	0.084100
N481	N48	0.126000	0.718200	0.091800
N491	N49	0.457700	0.360400	0.701100
N501	N50	0.385700	0.393900	0.677400
N511	N51	0.669400	0.592300	0.676500
N521	N52	0.672200	0.582600	0.736900
N531	N53	0.801500	0.595100	0.563300
N541	N54	0.724300	0.901900	0.941800
N551	N55	0.848200	0.301200	0.090300
N561	N56	0.927000	0.288300	0.125900
N571	N57	0.122400	0.220900	0.904000
N581	N58	0.163000	0.277400	0.915000
N591	N59	0.611900	0.391700	0.187000
N601	N60	0.534200	0.357700	0.204800
N611	N61	0.336300	0.592900	0.176800
N621	N62	0.316400	0.579600	0.235100
N631	N63	0.648500	0.208100	0.404100
N641	N64	0.569300	0.215200	0.368700
N651	N65	0.344100	0.222400	0.584100
N661	N66	0.374000	0.281800	0.591800
N671	N67	0.042300	0.639600	0.201100
N681	N68	0.114300	0.606100	0.177400
N691	N69	0.830600	0.407700	0.176500
N701	N70	0.827800	0.417400	0.236900
N711	N71	0.698500	0.404900	0.063300
N721	N72	0.775700	0.098100	0.441800
O11	O1	0.250100	0.294280	0.714050
O21	O2	0.235600	0.223620	0.795920
O31	O3	0.267800	0.184810	0.696120
O41	O4	0.392500	0.241900	0.750070
O51	O5	0.249900	0.705720	0.214050
O61	O6	0.264400	0.776380	0.295920
O71	O7	0.232200	0.815190	0.196120
O81	O8	0.107500	0.758100	0.250070
O91	O9	0.749900	0.794280	0.785950
O101	O10	0.764400	0.723620	0.704080
O111	O11	0.732200	0.684810	0.803880
O121	O12	0.607500	0.741900	0.749930
O131	O13	0.750100	0.205720	0.285950
O141	O14	0.735600	0.276380	0.204080
O151	O15	0.767800	0.315190	0.303880
O161	O16	0.892500	0.258100	0.249930
