data_MIHHIV_clean_PM
_symmetry_space_group_name_H-M	'P1'
_cell_length_a	32.244100
_cell_length_b	32.244100
_cell_length_c	32.244100
_cell_angle_alpha	60.000000
_cell_angle_beta	60.000000
_cell_angle_gamma	60.000000
_symmetry_Int_Tables_number 1

loop_
_symmetry_equiv_pos_as_xyz
'x,y,z'

loop_
_atom_site_label
_atom_site_type_symbol
_atom_site_fract_x
_atom_site_fract_y
_atom_site_fract_z
Zn11	Zn1	0.525930	0.342990	0.156570
Zn21	Zn2	0.342990	0.525930	0.974510
Zn31	Zn3	0.156570	0.974510	0.525930
Zn41	Zn4	0.974510	0.156570	0.342990
Zn51	Zn5	0.525930	0.156570	0.974510
Zn61	Zn6	0.342990	0.974510	0.156570
Zn71	Zn7	0.156570	0.525930	0.342990
Zn81	Zn8	0.974510	0.342990	0.525930
Zn91	Zn9	0.525930	0.974510	0.342990
Zn101	Zn10	0.342990	0.156570	0.525930
Zn111	Zn11	0.156570	0.342990	0.974510
Zn121	Zn12	0.974510	0.525930	0.156570
Zn131	Zn13	0.657010	0.474070	0.843430
Zn141	Zn14	0.474070	0.657010	0.025490
Zn151	Zn15	0.025490	0.843430	0.474070
Zn161	Zn16	0.843430	0.025490	0.657010
Zn171	Zn17	0.843430	0.474070	0.025490
Zn181	Zn18	0.025490	0.657010	0.843430
Zn191	Zn19	0.474070	0.843430	0.657010
Zn201	Zn20	0.657010	0.025490	0.474070
Zn211	Zn21	0.025490	0.474070	0.657010
Zn221	Zn22	0.843430	0.657010	0.474070
Zn231	Zn23	0.657010	0.843430	0.025490
Zn241	Zn24	0.474070	0.025490	0.843430
Zn251	Zn25	0.474070	0.657010	0.843430
Zn261	Zn26	0.657010	0.474070	0.025490
Zn271	Zn27	0.843430	0.025490	0.474070
Zn281	Zn28	0.025490	0.843430	0.657010
Zn291	Zn29	0.474070	0.843430	0.025490
Zn301	Zn30	0.657010	0.025490	0.843430
Zn311	Zn31	0.843430	0.474070	0.657010
Zn321	Zn32	0.025490	0.657010	0.474070
Zn331	Zn33	0.474070	0.025490	0.657010
Zn341	Zn34	0.657010	0.843430	0.474070
Zn351	Zn35	0.843430	0.657010	0.025490
Zn361	Zn36	0.025490	0.474070	0.843430
Zn371	Zn37	0.342990	0.525930	0.156570
Zn381	Zn38	0.525930	0.342990	0.974510
Zn391	Zn39	0.974510	0.156570	0.525930
Zn401	Zn40	0.156570	0.974510	0.342990
Zn411	Zn41	0.156570	0.525930	0.974510
Zn421	Zn42	0.974510	0.342990	0.156570
Zn431	Zn43	0.525930	0.156570	0.342990
Zn441	Zn44	0.342990	0.974510	0.525930
Zn451	Zn45	0.974510	0.525930	0.342990
Zn461	Zn46	0.156570	0.342990	0.525930
Zn471	Zn47	0.342990	0.156570	0.974510
Zn481	Zn48	0.525930	0.974510	0.156570
H11	H1	0.429700	0.300700	0.206300
H21	H2	0.368500	0.281100	0.212300
H31	H3	0.640700	0.262300	0.113900
H41	H4	0.719400	0.232600	0.068400
H51	H5	0.499600	0.357400	0.262600
H61	H6	0.462900	0.388900	0.326900
H71	H7	0.612100	0.331100	0.189300
H81	H8	0.656200	0.309400	0.236400
H91	H9	0.300700	0.429700	0.063300
H101	H10	0.281100	0.368500	0.138100
H111	H11	0.262300	0.640700	0.983100
H121	H12	0.232600	0.719400	0.979600
H131	H13	0.357400	0.499600	0.880400
H141	H14	0.388900	0.462900	0.821300
H151	H15	0.331100	0.612100	0.867500
H161	H16	0.309400	0.656200	0.798000
H171	H17	0.206300	0.063300	0.429700
H181	H18	0.212300	0.138100	0.368500
H191	H19	0.113900	0.983100	0.640700
H201	H20	0.068400	0.979600	0.719400
H211	H21	0.262600	0.880400	0.499600
H221	H22	0.326900	0.821300	0.462900
H231	H23	0.189300	0.867500	0.612100
H241	H24	0.236400	0.798000	0.656200
H251	H25	0.063300	0.206300	0.300700
H261	H26	0.138100	0.212300	0.281100
H271	H27	0.983100	0.113900	0.262300
H281	H28	0.979600	0.068400	0.232600
H291	H29	0.880400	0.262600	0.357400
H301	H30	0.821300	0.326900	0.388900
H311	H31	0.867500	0.189300	0.331100
H321	H32	0.798000	0.236400	0.309400
H331	H33	0.429700	0.206300	0.063300
H341	H34	0.368500	0.212300	0.138100
H351	H35	0.640700	0.113900	0.983100
H361	H36	0.719400	0.068400	0.979600
H371	H37	0.499600	0.262600	0.880400
H381	H38	0.462900	0.326900	0.821300
H391	H39	0.612100	0.189300	0.867500
H401	H40	0.656200	0.236400	0.798000
H411	H41	0.300700	0.063300	0.206300
H421	H42	0.281100	0.138100	0.212300
H431	H43	0.262300	0.983100	0.113900
H441	H44	0.232600	0.979600	0.068400
H451	H45	0.357400	0.880400	0.262600
H461	H46	0.388900	0.821300	0.326900
H471	H47	0.331100	0.867500	0.189300
H481	H48	0.309400	0.798000	0.236400
H491	H49	0.206300	0.429700	0.300700
H501	H50	0.212300	0.368500	0.281100
H511	H51	0.113900	0.640700	0.262300
H521	H52	0.068400	0.719400	0.232600
H531	H53	0.262600	0.499600	0.357400
H541	H54	0.326900	0.462900	0.388900
H551	H55	0.189300	0.612100	0.331100
H561	H56	0.236400	0.656200	0.309400
H571	H57	0.063300	0.300700	0.429700
H581	H58	0.138100	0.281100	0.368500
H591	H59	0.983100	0.262300	0.640700
H601	H60	0.979600	0.232600	0.719400
H611	H61	0.880400	0.357400	0.499600
H621	H62	0.821300	0.388900	0.462900
H631	H63	0.867500	0.331100	0.612100
H641	H64	0.798000	0.309400	0.656200
H651	H65	0.429700	0.063300	0.300700
H661	H66	0.368500	0.138100	0.281100
H671	H67	0.640700	0.983100	0.262300
H681	H68	0.719400	0.979600	0.232600
H691	H69	0.499600	0.880400	0.357400
H701	H70	0.462900	0.821300	0.388900
H711	H71	0.612100	0.867500	0.331100
H721	H72	0.656200	0.798000	0.309400
H731	H73	0.300700	0.206300	0.429700
H741	H74	0.281100	0.212300	0.368500
H751	H75	0.262300	0.113900	0.640700
H761	H76	0.232600	0.068400	0.719400
H771	H77	0.357400	0.262600	0.499600
H781	H78	0.388900	0.326900	0.462900
H791	H79	0.331100	0.189300	0.612100
H801	H80	0.309400	0.236400	0.656200
H811	H81	0.206300	0.300700	0.063300
H821	H82	0.212300	0.281100	0.138100
H831	H83	0.113900	0.262300	0.983100
H841	H84	0.068400	0.232600	0.979600
H851	H85	0.262600	0.357400	0.880400
H861	H86	0.326900	0.388900	0.821300
H871	H87	0.189300	0.331100	0.867500
H881	H88	0.236400	0.309400	0.798000
H891	H89	0.063300	0.429700	0.206300
H901	H90	0.138100	0.368500	0.212300
H911	H91	0.983100	0.640700	0.113900
H921	H92	0.979600	0.719400	0.068400
H931	H93	0.880400	0.499600	0.262600
H941	H94	0.821300	0.462900	0.326900
H951	H95	0.867500	0.612100	0.189300
H961	H96	0.798000	0.656200	0.236400
H971	H97	0.699300	0.570300	0.793700
H981	H98	0.718900	0.631500	0.787700
H991	H99	0.737700	0.359300	0.886100
H1001	H100	0.767400	0.280600	0.931600
H1011	H101	0.642600	0.500400	0.737400
H1021	H102	0.611100	0.537100	0.673100
H1031	H103	0.668900	0.387900	0.810700
H1041	H104	0.690600	0.343800	0.763600
H1051	H105	0.570300	0.699300	0.936700
H1061	H106	0.631500	0.718900	0.861900
H1071	H107	0.359300	0.737700	0.016900
H1081	H108	0.280600	0.767400	0.020400
H1091	H109	0.500400	0.642600	0.119600
H1101	H110	0.537100	0.611100	0.178700
H1111	H111	0.387900	0.668900	0.132500
H1121	H112	0.343800	0.690600	0.202000
H1131	H113	0.936700	0.793700	0.570300
H1141	H114	0.861900	0.787700	0.631500
H1151	H115	0.016900	0.886100	0.359300
H1161	H116	0.020400	0.931600	0.280600
H1171	H117	0.119600	0.737400	0.500400
H1181	H118	0.178700	0.673100	0.537100
H1191	H119	0.132500	0.810700	0.387900
H1201	H120	0.202000	0.763600	0.343800
H1211	H121	0.793700	0.936700	0.699300
H1221	H122	0.787700	0.861900	0.718900
H1231	H123	0.886100	0.016900	0.737700
H1241	H124	0.931600	0.020400	0.767400
H1251	H125	0.737400	0.119600	0.642600
H1261	H126	0.673100	0.178700	0.611100
H1271	H127	0.810700	0.132500	0.668900
H1281	H128	0.763600	0.202000	0.690600
H1291	H129	0.793700	0.570300	0.936700
H1301	H130	0.787700	0.631500	0.861900
H1311	H131	0.886100	0.359300	0.016900
H1321	H132	0.931600	0.280600	0.020400
H1331	H133	0.737400	0.500400	0.119600
H1341	H134	0.673100	0.537100	0.178700
H1351	H135	0.810700	0.387900	0.132500
H1361	H136	0.763600	0.343800	0.202000
H1371	H137	0.936700	0.699300	0.793700
H1381	H138	0.861900	0.718900	0.787700
H1391	H139	0.016900	0.737700	0.886100
H1401	H140	0.020400	0.767400	0.931600
H1411	H141	0.119600	0.642600	0.737400
H1421	H142	0.178700	0.611100	0.673100
H1431	H143	0.132500	0.668900	0.810700
H1441	H144	0.202000	0.690600	0.763600
H1451	H145	0.570300	0.793700	0.699300
H1461	H146	0.631500	0.787700	0.718900
H1471	H147	0.359300	0.886100	0.737700
H1481	H148	0.280600	0.931600	0.767400
H1491	H149	0.500400	0.737400	0.642600
H1501	H150	0.537100	0.673100	0.611100
H1511	H151	0.387900	0.810700	0.668900
H1521	H152	0.343800	0.763600	0.690600
H1531	H153	0.699300	0.936700	0.570300
H1541	H154	0.718900	0.861900	0.631500
H1551	H155	0.737700	0.016900	0.359300
H1561	H156	0.767400	0.020400	0.280600
H1571	H157	0.642600	0.119600	0.500400
H1581	H158	0.611100	0.178700	0.537100
H1591	H159	0.668900	0.132500	0.387900
H1601	H160	0.690600	0.202000	0.343800
H1611	H161	0.936700	0.570300	0.699300
H1621	H162	0.861900	0.631500	0.718900
H1631	H163	0.016900	0.359300	0.737700
H1641	H164	0.020400	0.280600	0.767400
H1651	H165	0.119600	0.500400	0.642600
H1661	H166	0.178700	0.537100	0.611100
H1671	H167	0.132500	0.387900	0.668900
H1681	H168	0.202000	0.343800	0.690600
H1691	H169	0.793700	0.699300	0.570300
H1701	H170	0.787700	0.718900	0.631500
H1711	H171	0.886100	0.737700	0.359300
H1721	H172	0.931600	0.767400	0.280600
H1731	H173	0.737400	0.642600	0.500400
H1741	H174	0.673100	0.611100	0.537100
H1751	H175	0.810700	0.668900	0.387900
H1761	H176	0.763600	0.690600	0.343800
H1771	H177	0.699300	0.793700	0.936700
H1781	H178	0.718900	0.787700	0.861900
H1791	H179	0.737700	0.886100	0.016900
H1801	H180	0.767400	0.931600	0.020400
H1811	H181	0.642600	0.737400	0.119600
H1821	H182	0.611100	0.673100	0.178700
H1831	H183	0.668900	0.810700	0.132500
H1841	H184	0.690600	0.763600	0.202000
H1851	H185	0.570300	0.936700	0.793700
H1861	H186	0.631500	0.861900	0.787700
H1871	H187	0.359300	0.016900	0.886100
H1881	H188	0.280600	0.020400	0.931600
H1891	H189	0.500400	0.119600	0.737400
H1901	H190	0.537100	0.178700	0.673100
H1911	H191	0.387900	0.132500	0.810700
H1921	H192	0.343800	0.202000	0.763600
H1931	H193	0.570300	0.699300	0.793700
H1941	H194	0.631500	0.718900	0.787700
H1951	H195	0.359300	0.737700	0.886100
H1961	H196	0.280600	0.767400	0.931600
H1971	H197	0.500400	0.642600	0.737400
H1981	H198	0.537100	0.611100	0.673100
H1991	H199	0.387900	0.668900	0.810700
H2001	H200	0.343800	0.690600	0.763600
H2011	H201	0.699300	0.570300	0.936700
H2021	H202	0.718900	0.631500	0.861900
H2031	H203	0.737700	0.359300	0.016900
H2041	H204	0.767400	0.280600	0.020400
H2051	H205	0.642600	0.500400	0.119600
H2061	H206	0.611100	0.537100	0.178700
H2071	H207	0.668900	0.387900	0.132500
H2081	H208	0.690600	0.343800	0.202000
H2091	H209	0.793700	0.936700	0.570300
H2101	H210	0.787700	0.861900	0.631500
H2111	H211	0.886100	0.016900	0.359300
H2121	H212	0.931600	0.020400	0.280600
H2131	H213	0.737400	0.119600	0.500400
H2141	H214	0.673100	0.178700	0.537100
H2151	H215	0.810700	0.132500	0.387900
H2161	H216	0.763600	0.202000	0.343800
H2171	H217	0.936700	0.793700	0.699300
H2181	H218	0.861900	0.787700	0.718900
H2191	H219	0.016900	0.886100	0.737700
H2201	H220	0.020400	0.931600	0.767400
H2211	H221	0.119600	0.737400	0.642600
H2221	H222	0.178700	0.673100	0.611100
H2231	H223	0.132500	0.810700	0.668900
H2241	H224	0.202000	0.763600	0.690600
H2251	H225	0.570300	0.793700	0.936700
H2261	H226	0.631500	0.787700	0.861900
H2271	H227	0.359300	0.886100	0.016900
H2281	H228	0.280600	0.931600	0.020400
H2291	H229	0.500400	0.737400	0.119600
H2301	H230	0.537100	0.673100	0.178700
H2311	H231	0.387900	0.810700	0.132500
H2321	H232	0.343800	0.763600	0.202000
H2331	H233	0.699300	0.936700	0.793700
H2341	H234	0.718900	0.861900	0.787700
H2351	H235	0.737700	0.016900	0.886100
H2361	H236	0.767400	0.020400	0.931600
H2371	H237	0.642600	0.119600	0.737400
H2381	H238	0.611100	0.178700	0.673100
H2391	H239	0.668900	0.132500	0.810700
H2401	H240	0.690600	0.202000	0.763600
H2411	H241	0.793700	0.570300	0.699300
H2421	H242	0.787700	0.631500	0.718900
H2431	H243	0.886100	0.359300	0.737700
H2441	H244	0.931600	0.280600	0.767400
H2451	H245	0.737400	0.500400	0.642600
H2461	H246	0.673100	0.537100	0.611100
H2471	H247	0.810700	0.387900	0.668900
H2481	H248	0.763600	0.343800	0.690600
H2491	H249	0.936700	0.699300	0.570300
H2501	H250	0.861900	0.718900	0.631500
H2511	H251	0.016900	0.737700	0.359300
H2521	H252	0.020400	0.767400	0.280600
H2531	H253	0.119600	0.642600	0.500400
H2541	H254	0.178700	0.611100	0.537100
H2551	H255	0.132500	0.668900	0.387900
H2561	H256	0.202000	0.690600	0.343800
H2571	H257	0.570300	0.936700	0.699300
H2581	H258	0.631500	0.861900	0.718900
H2591	H259	0.359300	0.016900	0.737700
H2601	H260	0.280600	0.020400	0.767400
H2611	H261	0.500400	0.119600	0.642600
H2621	H262	0.537100	0.178700	0.611100
H2631	H263	0.387900	0.132500	0.668900
H2641	H264	0.343800	0.202000	0.690600
H2651	H265	0.699300	0.793700	0.570300
H2661	H266	0.718900	0.787700	0.631500
H2671	H267	0.737700	0.886100	0.359300
H2681	H268	0.767400	0.931600	0.280600
H2691	H269	0.642600	0.737400	0.500400
H2701	H270	0.611100	0.673100	0.537100
H2711	H271	0.668900	0.810700	0.387900
H2721	H272	0.690600	0.763600	0.343800
H2731	H273	0.793700	0.699300	0.936700
H2741	H274	0.787700	0.718900	0.861900
H2751	H275	0.886100	0.737700	0.016900
H2761	H276	0.931600	0.767400	0.020400
H2771	H277	0.737400	0.642600	0.119600
H2781	H278	0.673100	0.611100	0.178700
H2791	H279	0.810700	0.668900	0.132500
H2801	H280	0.763600	0.690600	0.202000
H2811	H281	0.936700	0.570300	0.793700
H2821	H282	0.861900	0.631500	0.787700
H2831	H283	0.016900	0.359300	0.886100
H2841	H284	0.020400	0.280600	0.931600
H2851	H285	0.119600	0.500400	0.737400
H2861	H286	0.178700	0.537100	0.673100
H2871	H287	0.132500	0.387900	0.810700
H2881	H288	0.202000	0.343800	0.763600
H2891	H289	0.300700	0.429700	0.206300
H2901	H290	0.281100	0.368500	0.212300
H2911	H291	0.262300	0.640700	0.113900
H2921	H292	0.232600	0.719400	0.068400
H2931	H293	0.357400	0.499600	0.262600
H2941	H294	0.388900	0.462900	0.326900
H2951	H295	0.331100	0.612100	0.189300
H2961	H296	0.309400	0.656200	0.236400
H2971	H297	0.429700	0.300700	0.063300
H2981	H298	0.368500	0.281100	0.138100
H2991	H299	0.640700	0.262300	0.983100
H3001	H300	0.719400	0.232600	0.979600
H3011	H301	0.499600	0.357400	0.880400
H3021	H302	0.462900	0.388900	0.821300
H3031	H303	0.612100	0.331100	0.867500
H3041	H304	0.656200	0.309400	0.798000
H3051	H305	0.063300	0.206300	0.429700
H3061	H306	0.138100	0.212300	0.368500
H3071	H307	0.983100	0.113900	0.640700
H3081	H308	0.979600	0.068400	0.719400
H3091	H309	0.880400	0.262600	0.499600
H3101	H310	0.821300	0.326900	0.462900
H3111	H311	0.867500	0.189300	0.612100
H3121	H312	0.798000	0.236400	0.656200
H3131	H313	0.206300	0.063300	0.300700
H3141	H314	0.212300	0.138100	0.281100
H3151	H315	0.113900	0.983100	0.262300
H3161	H316	0.068400	0.979600	0.232600
H3171	H317	0.262600	0.880400	0.357400
H3181	H318	0.326900	0.821300	0.388900
H3191	H319	0.189300	0.867500	0.331100
H3201	H320	0.236400	0.798000	0.309400
H3211	H321	0.206300	0.429700	0.063300
H3221	H322	0.212300	0.368500	0.138100
H3231	H323	0.113900	0.640700	0.983100
H3241	H324	0.068400	0.719400	0.979600
H3251	H325	0.262600	0.499600	0.880400
H3261	H326	0.326900	0.462900	0.821300
H3271	H327	0.189300	0.612100	0.867500
H3281	H328	0.236400	0.656200	0.798000
H3291	H329	0.063300	0.300700	0.206300
H3301	H330	0.138100	0.281100	0.212300
H3311	H331	0.983100	0.262300	0.113900
H3321	H332	0.979600	0.232600	0.068400
H3331	H333	0.880400	0.357400	0.262600
H3341	H334	0.821300	0.388900	0.326900
H3351	H335	0.867500	0.331100	0.189300
H3361	H336	0.798000	0.309400	0.236400
H3371	H337	0.429700	0.206300	0.300700
H3381	H338	0.368500	0.212300	0.281100
H3391	H339	0.640700	0.113900	0.262300
H3401	H340	0.719400	0.068400	0.232600
H3411	H341	0.499600	0.262600	0.357400
H3421	H342	0.462900	0.326900	0.388900
H3431	H343	0.612100	0.189300	0.331100
H3441	H344	0.656200	0.236400	0.309400
H3451	H345	0.300700	0.063300	0.429700
H3461	H346	0.281100	0.138100	0.368500
H3471	H347	0.262300	0.983100	0.640700
H3481	H348	0.232600	0.979600	0.719400
H3491	H349	0.357400	0.880400	0.499600
H3501	H350	0.388900	0.821300	0.462900
H3511	H351	0.331100	0.867500	0.612100
H3521	H352	0.309400	0.798000	0.656200
H3531	H353	0.063300	0.429700	0.300700
H3541	H354	0.138100	0.368500	0.281100
H3551	H355	0.983100	0.640700	0.262300
H3561	H356	0.979600	0.719400	0.232600
H3571	H357	0.880400	0.499600	0.357400
H3581	H358	0.821300	0.462900	0.388900
H3591	H359	0.867500	0.612100	0.331100
H3601	H360	0.798000	0.656200	0.309400
H3611	H361	0.206300	0.300700	0.429700
H3621	H362	0.212300	0.281100	0.368500
H3631	H363	0.113900	0.262300	0.640700
H3641	H364	0.068400	0.232600	0.719400
H3651	H365	0.262600	0.357400	0.499600
H3661	H366	0.326900	0.388900	0.462900
H3671	H367	0.189300	0.331100	0.612100
H3681	H368	0.236400	0.309400	0.656200
H3691	H369	0.300700	0.206300	0.063300
H3701	H370	0.281100	0.212300	0.138100
H3711	H371	0.262300	0.113900	0.983100
H3721	H372	0.232600	0.068400	0.979600
H3731	H373	0.357400	0.262600	0.880400
H3741	H374	0.388900	0.326900	0.821300
H3751	H375	0.331100	0.189300	0.867500
H3761	H376	0.309400	0.236400	0.798000
H3771	H377	0.429700	0.063300	0.206300
H3781	H378	0.368500	0.138100	0.212300
H3791	H379	0.640700	0.983100	0.113900
H3801	H380	0.719400	0.979600	0.068400
H3811	H381	0.499600	0.880400	0.262600
H3821	H382	0.462900	0.821300	0.326900
H3831	H383	0.612100	0.867500	0.189300
H3841	H384	0.656200	0.798000	0.236400
H3851	H385	0.553900	0.347500	0.049300
H3861	H386	0.347500	0.553900	0.049300
H3871	H387	0.049300	0.049300	0.553900
H3881	H388	0.049300	0.049300	0.347500
H3891	H389	0.553900	0.049300	0.049300
H3901	H390	0.347500	0.049300	0.049300
H3911	H391	0.049300	0.553900	0.347500
H3921	H392	0.049300	0.347500	0.553900
H3931	H393	0.553900	0.049300	0.347500
H3941	H394	0.347500	0.049300	0.553900
H3951	H395	0.049300	0.347500	0.049300
H3961	H396	0.049300	0.553900	0.049300
H3971	H397	0.652500	0.446100	0.950700
H3981	H398	0.446100	0.652500	0.950700
H3991	H399	0.950700	0.950700	0.446100
H4001	H400	0.950700	0.950700	0.652500
H4011	H401	0.950700	0.446100	0.950700
H4021	H402	0.950700	0.652500	0.950700
H4031	H403	0.446100	0.950700	0.652500
H4041	H404	0.652500	0.950700	0.446100
H4051	H405	0.950700	0.446100	0.652500
H4061	H406	0.950700	0.652500	0.446100
H4071	H407	0.652500	0.950700	0.950700
H4081	H408	0.446100	0.950700	0.950700
H4091	H409	0.560900	0.439100	0.091700
H4101	H410	0.439100	0.560900	0.908300
H4111	H411	0.091700	0.908300	0.560900
H4121	H412	0.908300	0.091700	0.439100
H4131	H413	0.560900	0.091700	0.908300
H4141	H414	0.439100	0.908300	0.091700
H4151	H415	0.091700	0.560900	0.439100
H4161	H416	0.908300	0.439100	0.560900
H4171	H417	0.560900	0.908300	0.439100
H4181	H418	0.439100	0.091700	0.560900
H4191	H419	0.091700	0.439100	0.908300
H4201	H420	0.908300	0.560900	0.091700
H4211	H421	0.560900	0.439100	0.908300
H4221	H422	0.439100	0.560900	0.091700
H4231	H423	0.091700	0.908300	0.439100
H4241	H424	0.908300	0.091700	0.560900
H4251	H425	0.908300	0.439100	0.091700
H4261	H426	0.091700	0.560900	0.908300
H4271	H427	0.439100	0.908300	0.560900
H4281	H428	0.560900	0.091700	0.439100
H4291	H429	0.091700	0.439100	0.560900
H4301	H430	0.908300	0.560900	0.439100
H4311	H431	0.560900	0.908300	0.091700
H4321	H432	0.439100	0.091700	0.908300
H4331	H433	0.435400	0.435400	0.129600
H4341	H434	0.435400	0.435400	0.999600
H4351	H435	0.129600	0.999600	0.435400
H4361	H436	0.999600	0.129600	0.435400
H4371	H437	0.435400	0.129600	0.999600
H4381	H438	0.435400	0.999600	0.129600
H4391	H439	0.129600	0.435400	0.435400
H4401	H440	0.999600	0.435400	0.435400
H4411	H441	0.435400	0.999600	0.435400
H4421	H442	0.435400	0.129600	0.435400
H4431	H443	0.129600	0.435400	0.999600
H4441	H444	0.999600	0.435400	0.129600
H4451	H445	0.564600	0.564600	0.870400
H4461	H446	0.564600	0.564600	0.000400
H4471	H447	0.000400	0.870400	0.564600
H4481	H448	0.870400	0.000400	0.564600
H4491	H449	0.870400	0.564600	0.000400
H4501	H450	0.000400	0.564600	0.870400
H4511	H451	0.564600	0.870400	0.564600
H4521	H452	0.564600	0.000400	0.564600
H4531	H453	0.000400	0.564600	0.564600
H4541	H454	0.870400	0.564600	0.564600
H4551	H455	0.564600	0.870400	0.000400
H4561	H456	0.564600	0.000400	0.870400
H4571	H457	0.506400	0.240600	0.240600
H4581	H458	0.240600	0.506400	0.012400
H4591	H459	0.240600	0.012400	0.506400
H4601	H460	0.012400	0.240600	0.240600
H4611	H461	0.506400	0.240600	0.012400
H4621	H462	0.240600	0.012400	0.240600
H4631	H463	0.240600	0.506400	0.240600
H4641	H464	0.012400	0.240600	0.506400
H4651	H465	0.506400	0.012400	0.240600
H4661	H466	0.240600	0.240600	0.506400
H4671	H467	0.240600	0.240600	0.012400
H4681	H468	0.012400	0.506400	0.240600
H4691	H469	0.759400	0.493600	0.759400
H4701	H470	0.493600	0.759400	0.987600
H4711	H471	0.987600	0.759400	0.493600
H4721	H472	0.759400	0.987600	0.759400
H4731	H473	0.759400	0.493600	0.987600
H4741	H474	0.987600	0.759400	0.759400
H4751	H475	0.493600	0.759400	0.759400
H4761	H476	0.759400	0.987600	0.493600
H4771	H477	0.987600	0.493600	0.759400
H4781	H478	0.759400	0.759400	0.493600
H4791	H479	0.759400	0.759400	0.987600
H4801	H480	0.493600	0.987600	0.759400
C11	C1	0.463900	0.315300	0.132300
C21	C2	0.429000	0.301600	0.177400
C31	C3	0.393400	0.289600	0.181000
C41	C4	0.635200	0.334200	0.087600
C51	C5	0.659200	0.284400	0.091600
C61	C6	0.705800	0.266400	0.066400
C71	C7	0.453400	0.410800	0.223800
C81	C8	0.471500	0.386900	0.262300
C91	C9	0.449400	0.405000	0.300800
C101	C10	0.580700	0.275700	0.233700
C111	C11	0.610800	0.303000	0.219000
C121	C12	0.637300	0.289900	0.245900
C131	C13	0.315300	0.463900	0.088500
C141	C14	0.301600	0.429000	0.092000
C151	C15	0.289600	0.393400	0.136000
C161	C16	0.334200	0.635200	0.943000
C171	C17	0.284400	0.659200	0.964800
C181	C18	0.266400	0.705800	0.961400
C191	C19	0.410800	0.453400	0.912000
C201	C20	0.386900	0.471500	0.879300
C211	C21	0.405000	0.449400	0.844800
C221	C22	0.275700	0.580700	0.909900
C231	C23	0.303000	0.610800	0.867200
C241	C24	0.289900	0.637300	0.826900
C251	C25	0.132300	0.088500	0.463900
C261	C26	0.177400	0.092000	0.429000
C271	C27	0.181000	0.136000	0.393400
C281	C28	0.087600	0.943000	0.635200
C291	C29	0.091600	0.964800	0.659200
C301	C30	0.066400	0.961400	0.705800
C311	C31	0.223800	0.912000	0.453400
C321	C32	0.262300	0.879300	0.471500
C331	C33	0.300800	0.844800	0.449400
C341	C34	0.233700	0.909900	0.580700
C351	C35	0.219000	0.867200	0.610800
C361	C36	0.245900	0.826900	0.637300
C371	C37	0.088500	0.132300	0.315300
C381	C38	0.092000	0.177400	0.301600
C391	C39	0.136000	0.181000	0.289600
C401	C40	0.943000	0.087600	0.334200
C411	C41	0.964800	0.091600	0.284400
C421	C42	0.961400	0.066400	0.266400
C431	C43	0.912000	0.223800	0.410800
C441	C44	0.879300	0.262300	0.386900
C451	C45	0.844800	0.300800	0.405000
C461	C46	0.909900	0.233700	0.275700
C471	C47	0.867200	0.219000	0.303000
C481	C48	0.826900	0.245900	0.289900
C491	C49	0.463900	0.132300	0.088500
C501	C50	0.429000	0.177400	0.092000
C511	C51	0.393400	0.181000	0.136000
C521	C52	0.635200	0.087600	0.943000
C531	C53	0.659200	0.091600	0.964800
C541	C54	0.705800	0.066400	0.961400
C551	C55	0.453400	0.223800	0.912000
C561	C56	0.471500	0.262300	0.879300
C571	C57	0.449400	0.300800	0.844800
C581	C58	0.580700	0.233700	0.909900
C591	C59	0.610800	0.219000	0.867200
C601	C60	0.637300	0.245900	0.826900
C611	C61	0.315300	0.088500	0.132300
C621	C62	0.301600	0.092000	0.177400
C631	C63	0.289600	0.136000	0.181000
C641	C64	0.334200	0.943000	0.087600
C651	C65	0.284400	0.964800	0.091600
C661	C66	0.266400	0.961400	0.066400
C671	C67	0.410800	0.912000	0.223800
C681	C68	0.386900	0.879300	0.262300
C691	C69	0.405000	0.844800	0.300800
C701	C70	0.275700	0.909900	0.233700
C711	C71	0.303000	0.867200	0.219000
C721	C72	0.289900	0.826900	0.245900
C731	C73	0.132300	0.463900	0.315300
C741	C74	0.177400	0.429000	0.301600
C751	C75	0.181000	0.393400	0.289600
C761	C76	0.087600	0.635200	0.334200
C771	C77	0.091600	0.659200	0.284400
C781	C78	0.066400	0.705800	0.266400
C791	C79	0.223800	0.453400	0.410800
C801	C80	0.262300	0.471500	0.386900
C811	C81	0.300800	0.449400	0.405000
C821	C82	0.233700	0.580700	0.275700
C831	C83	0.219000	0.610800	0.303000
C841	C84	0.245900	0.637300	0.289900
C851	C85	0.088500	0.315300	0.463900
C861	C86	0.092000	0.301600	0.429000
C871	C87	0.136000	0.289600	0.393400
C881	C88	0.943000	0.334200	0.635200
C891	C89	0.964800	0.284400	0.659200
C901	C90	0.961400	0.266400	0.705800
C911	C91	0.912000	0.410800	0.453400
C921	C92	0.879300	0.386900	0.471500
C931	C93	0.844800	0.405000	0.449400
C941	C94	0.909900	0.275700	0.580700
C951	C95	0.867200	0.303000	0.610800
C961	C96	0.826900	0.289900	0.637300
C971	C97	0.463900	0.088500	0.315300
C981	C98	0.429000	0.092000	0.301600
C991	C99	0.393400	0.136000	0.289600
C1001	C100	0.635200	0.943000	0.334200
C1011	C101	0.659200	0.964800	0.284400
C1021	C102	0.705800	0.961400	0.266400
C1031	C103	0.453400	0.912000	0.410800
C1041	C104	0.471500	0.879300	0.386900
C1051	C105	0.449400	0.844800	0.405000
C1061	C106	0.580700	0.909900	0.275700
C1071	C107	0.610800	0.867200	0.303000
C1081	C108	0.637300	0.826900	0.289900
C1091	C109	0.315300	0.132300	0.463900
C1101	C110	0.301600	0.177400	0.429000
C1111	C111	0.289600	0.181000	0.393400
C1121	C112	0.334200	0.087600	0.635200
C1131	C113	0.284400	0.091600	0.659200
C1141	C114	0.266400	0.066400	0.705800
C1151	C115	0.410800	0.223800	0.453400
C1161	C116	0.386900	0.262300	0.471500
C1171	C117	0.405000	0.300800	0.449400
C1181	C118	0.275700	0.233700	0.580700
C1191	C119	0.303000	0.219000	0.610800
C1201	C120	0.289900	0.245900	0.637300
C1211	C121	0.132300	0.315300	0.088500
C1221	C122	0.177400	0.301600	0.092000
C1231	C123	0.181000	0.289600	0.136000
C1241	C124	0.087600	0.334200	0.943000
C1251	C125	0.091600	0.284400	0.964800
C1261	C126	0.066400	0.266400	0.961400
C1271	C127	0.223800	0.410800	0.912000
C1281	C128	0.262300	0.386900	0.879300
C1291	C129	0.300800	0.405000	0.844800
C1301	C130	0.233700	0.275700	0.909900
C1311	C131	0.219000	0.303000	0.867200
C1321	C132	0.245900	0.289900	0.826900
C1331	C133	0.088500	0.463900	0.132300
C1341	C134	0.092000	0.429000	0.177400
C1351	C135	0.136000	0.393400	0.181000
C1361	C136	0.943000	0.635200	0.087600
C1371	C137	0.964800	0.659200	0.091600
C1381	C138	0.961400	0.705800	0.066400
C1391	C139	0.912000	0.453400	0.223800
C1401	C140	0.879300	0.471500	0.262300
C1411	C141	0.844800	0.449400	0.300800
C1421	C142	0.909900	0.580700	0.233700
C1431	C143	0.867200	0.610800	0.219000
C1441	C144	0.826900	0.637300	0.245900
C1451	C145	0.684700	0.536100	0.867700
C1461	C146	0.698400	0.571000	0.822600
C1471	C147	0.710400	0.606600	0.819000
C1481	C148	0.665800	0.364800	0.912400
C1491	C149	0.715600	0.340800	0.908400
C1501	C150	0.733600	0.294200	0.933600
C1511	C151	0.589200	0.546600	0.776200
C1521	C152	0.613100	0.528500	0.737700
C1531	C153	0.595000	0.550600	0.699200
C1541	C154	0.724300	0.419300	0.766300
C1551	C155	0.697000	0.389200	0.781000
C1561	C156	0.710100	0.362700	0.754100
C1571	C157	0.536100	0.684700	0.911500
C1581	C158	0.571000	0.698400	0.908000
C1591	C159	0.606600	0.710400	0.864000
C1601	C160	0.364800	0.665800	0.057000
C1611	C161	0.340800	0.715600	0.035200
C1621	C162	0.294200	0.733600	0.038600
C1631	C163	0.546600	0.589200	0.088000
C1641	C164	0.528500	0.613100	0.120700
C1651	C165	0.550600	0.595000	0.155200
C1661	C166	0.419300	0.724300	0.090100
C1671	C167	0.389200	0.697000	0.132800
C1681	C168	0.362700	0.710100	0.173100
C1691	C169	0.911500	0.867700	0.536100
C1701	C170	0.908000	0.822600	0.571000
C1711	C171	0.864000	0.819000	0.606600
C1721	C172	0.057000	0.912400	0.364800
C1731	C173	0.035200	0.908400	0.340800
C1741	C174	0.038600	0.933600	0.294200
C1751	C175	0.088000	0.776200	0.546600
C1761	C176	0.120700	0.737700	0.528500
C1771	C177	0.155200	0.699200	0.550600
C1781	C178	0.090100	0.766300	0.419300
C1791	C179	0.132800	0.781000	0.389200
C1801	C180	0.173100	0.754100	0.362700
C1811	C181	0.867700	0.911500	0.684700
C1821	C182	0.822600	0.908000	0.698400
C1831	C183	0.819000	0.864000	0.710400
C1841	C184	0.912400	0.057000	0.665800
C1851	C185	0.908400	0.035200	0.715600
C1861	C186	0.933600	0.038600	0.733600
C1871	C187	0.776200	0.088000	0.589200
C1881	C188	0.737700	0.120700	0.613100
C1891	C189	0.699200	0.155200	0.595000
C1901	C190	0.766300	0.090100	0.724300
C1911	C191	0.781000	0.132800	0.697000
C1921	C192	0.754100	0.173100	0.710100
C1931	C193	0.867700	0.536100	0.911500
C1941	C194	0.822600	0.571000	0.908000
C1951	C195	0.819000	0.606600	0.864000
C1961	C196	0.912400	0.364800	0.057000
C1971	C197	0.908400	0.340800	0.035200
C1981	C198	0.933600	0.294200	0.038600
C1991	C199	0.776200	0.546600	0.088000
C2001	C200	0.737700	0.528500	0.120700
C2011	C201	0.699200	0.550600	0.155200
C2021	C202	0.766300	0.419300	0.090100
C2031	C203	0.781000	0.389200	0.132800
C2041	C204	0.754100	0.362700	0.173100
C2051	C205	0.911500	0.684700	0.867700
C2061	C206	0.908000	0.698400	0.822600
C2071	C207	0.864000	0.710400	0.819000
C2081	C208	0.057000	0.665800	0.912400
C2091	C209	0.035200	0.715600	0.908400
C2101	C210	0.038600	0.733600	0.933600
C2111	C211	0.088000	0.589200	0.776200
C2121	C212	0.120700	0.613100	0.737700
C2131	C213	0.155200	0.595000	0.699200
C2141	C214	0.090100	0.724300	0.766300
C2151	C215	0.132800	0.697000	0.781000
C2161	C216	0.173100	0.710100	0.754100
C2171	C217	0.536100	0.867700	0.684700
C2181	C218	0.571000	0.822600	0.698400
C2191	C219	0.606600	0.819000	0.710400
C2201	C220	0.364800	0.912400	0.665800
C2211	C221	0.340800	0.908400	0.715600
C2221	C222	0.294200	0.933600	0.733600
C2231	C223	0.546600	0.776200	0.589200
C2241	C224	0.528500	0.737700	0.613100
C2251	C225	0.550600	0.699200	0.595000
C2261	C226	0.419300	0.766300	0.724300
C2271	C227	0.389200	0.781000	0.697000
C2281	C228	0.362700	0.754100	0.710100
C2291	C229	0.684700	0.911500	0.536100
C2301	C230	0.698400	0.908000	0.571000
C2311	C231	0.710400	0.864000	0.606600
C2321	C232	0.665800	0.057000	0.364800
C2331	C233	0.715600	0.035200	0.340800
C2341	C234	0.733600	0.038600	0.294200
C2351	C235	0.589200	0.088000	0.546600
C2361	C236	0.613100	0.120700	0.528500
C2371	C237	0.595000	0.155200	0.550600
C2381	C238	0.724300	0.090100	0.419300
C2391	C239	0.697000	0.132800	0.389200
C2401	C240	0.710100	0.173100	0.362700
C2411	C241	0.911500	0.536100	0.684700
C2421	C242	0.908000	0.571000	0.698400
C2431	C243	0.864000	0.606600	0.710400
C2441	C244	0.057000	0.364800	0.665800
C2451	C245	0.035200	0.340800	0.715600
C2461	C246	0.038600	0.294200	0.733600
C2471	C247	0.088000	0.546600	0.589200
C2481	C248	0.120700	0.528500	0.613100
C2491	C249	0.155200	0.550600	0.595000
C2501	C250	0.090100	0.419300	0.724300
C2511	C251	0.132800	0.389200	0.697000
C2521	C252	0.173100	0.362700	0.710100
C2531	C253	0.867700	0.684700	0.536100
C2541	C254	0.822600	0.698400	0.571000
C2551	C255	0.819000	0.710400	0.606600
C2561	C256	0.912400	0.665800	0.364800
C2571	C257	0.908400	0.715600	0.340800
C2581	C258	0.933600	0.733600	0.294200
C2591	C259	0.776200	0.589200	0.546600
C2601	C260	0.737700	0.613100	0.528500
C2611	C261	0.699200	0.595000	0.550600
C2621	C262	0.766300	0.724300	0.419300
C2631	C263	0.781000	0.697000	0.389200
C2641	C264	0.754100	0.710100	0.362700
C2651	C265	0.684700	0.867700	0.911500
C2661	C266	0.698400	0.822600	0.908000
C2671	C267	0.710400	0.819000	0.864000
C2681	C268	0.665800	0.912400	0.057000
C2691	C269	0.715600	0.908400	0.035200
C2701	C270	0.733600	0.933600	0.038600
C2711	C271	0.589200	0.776200	0.088000
C2721	C272	0.613100	0.737700	0.120700
C2731	C273	0.595000	0.699200	0.155200
C2741	C274	0.724300	0.766300	0.090100
C2751	C275	0.697000	0.781000	0.132800
C2761	C276	0.710100	0.754100	0.173100
C2771	C277	0.536100	0.911500	0.867700
C2781	C278	0.571000	0.908000	0.822600
C2791	C279	0.606600	0.864000	0.819000
C2801	C280	0.364800	0.057000	0.912400
C2811	C281	0.340800	0.035200	0.908400
C2821	C282	0.294200	0.038600	0.933600
C2831	C283	0.546600	0.088000	0.776200
C2841	C284	0.528500	0.120700	0.737700
C2851	C285	0.550600	0.155200	0.699200
C2861	C286	0.419300	0.090100	0.766300
C2871	C287	0.389200	0.132800	0.781000
C2881	C288	0.362700	0.173100	0.754100
C2891	C289	0.536100	0.684700	0.867700
C2901	C290	0.571000	0.698400	0.822600
C2911	C291	0.606600	0.710400	0.819000
C2921	C292	0.364800	0.665800	0.912400
C2931	C293	0.340800	0.715600	0.908400
C2941	C294	0.294200	0.733600	0.933600
C2951	C295	0.546600	0.589200	0.776200
C2961	C296	0.528500	0.613100	0.737700
C2971	C297	0.550600	0.595000	0.699200
C2981	C298	0.419300	0.724300	0.766300
C2991	C299	0.389200	0.697000	0.781000
C3001	C300	0.362700	0.710100	0.754100
C3011	C301	0.684700	0.536100	0.911500
C3021	C302	0.698400	0.571000	0.908000
C3031	C303	0.710400	0.606600	0.864000
C3041	C304	0.665800	0.364800	0.057000
C3051	C305	0.715600	0.340800	0.035200
C3061	C306	0.733600	0.294200	0.038600
C3071	C307	0.589200	0.546600	0.088000
C3081	C308	0.613100	0.528500	0.120700
C3091	C309	0.595000	0.550600	0.155200
C3101	C310	0.724300	0.419300	0.090100
C3111	C311	0.697000	0.389200	0.132800
C3121	C312	0.710100	0.362700	0.173100
C3131	C313	0.867700	0.911500	0.536100
C3141	C314	0.822600	0.908000	0.571000
C3151	C315	0.819000	0.864000	0.606600
C3161	C316	0.912400	0.057000	0.364800
C3171	C317	0.908400	0.035200	0.340800
C3181	C318	0.933600	0.038600	0.294200
C3191	C319	0.776200	0.088000	0.546600
C3201	C320	0.737700	0.120700	0.528500
C3211	C321	0.699200	0.155200	0.550600
C3221	C322	0.766300	0.090100	0.419300
C3231	C323	0.781000	0.132800	0.389200
C3241	C324	0.754100	0.173100	0.362700
C3251	C325	0.911500	0.867700	0.684700
C3261	C326	0.908000	0.822600	0.698400
C3271	C327	0.864000	0.819000	0.710400
C3281	C328	0.057000	0.912400	0.665800
C3291	C329	0.035200	0.908400	0.715600
C3301	C330	0.038600	0.933600	0.733600
C3311	C331	0.088000	0.776200	0.589200
C3321	C332	0.120700	0.737700	0.613100
C3331	C333	0.155200	0.699200	0.595000
C3341	C334	0.090100	0.766300	0.724300
C3351	C335	0.132800	0.781000	0.697000
C3361	C336	0.173100	0.754100	0.710100
C3371	C337	0.536100	0.867700	0.911500
C3381	C338	0.571000	0.822600	0.908000
C3391	C339	0.606600	0.819000	0.864000
C3401	C340	0.364800	0.912400	0.057000
C3411	C341	0.340800	0.908400	0.035200
C3421	C342	0.294200	0.933600	0.038600
C3431	C343	0.546600	0.776200	0.088000
C3441	C344	0.528500	0.737700	0.120700
C3451	C345	0.550600	0.699200	0.155200
C3461	C346	0.419300	0.766300	0.090100
C3471	C347	0.389200	0.781000	0.132800
C3481	C348	0.362700	0.754100	0.173100
C3491	C349	0.684700	0.911500	0.867700
C3501	C350	0.698400	0.908000	0.822600
C3511	C351	0.710400	0.864000	0.819000
C3521	C352	0.665800	0.057000	0.912400
C3531	C353	0.715600	0.035200	0.908400
C3541	C354	0.733600	0.038600	0.933600
C3551	C355	0.589200	0.088000	0.776200
C3561	C356	0.613100	0.120700	0.737700
C3571	C357	0.595000	0.155200	0.699200
C3581	C358	0.724300	0.090100	0.766300
C3591	C359	0.697000	0.132800	0.781000
C3601	C360	0.710100	0.173100	0.754100
C3611	C361	0.867700	0.536100	0.684700
C3621	C362	0.822600	0.571000	0.698400
C3631	C363	0.819000	0.606600	0.710400
C3641	C364	0.912400	0.364800	0.665800
C3651	C365	0.908400	0.340800	0.715600
C3661	C366	0.933600	0.294200	0.733600
C3671	C367	0.776200	0.546600	0.589200
C3681	C368	0.737700	0.528500	0.613100
C3691	C369	0.699200	0.550600	0.595000
C3701	C370	0.766300	0.419300	0.724300
C3711	C371	0.781000	0.389200	0.697000
C3721	C372	0.754100	0.362700	0.710100
C3731	C373	0.911500	0.684700	0.536100
C3741	C374	0.908000	0.698400	0.571000
C3751	C375	0.864000	0.710400	0.606600
C3761	C376	0.057000	0.665800	0.364800
C3771	C377	0.035200	0.715600	0.340800
C3781	C378	0.038600	0.733600	0.294200
C3791	C379	0.088000	0.589200	0.546600
C3801	C380	0.120700	0.613100	0.528500
C3811	C381	0.155200	0.595000	0.550600
C3821	C382	0.090100	0.724300	0.419300
C3831	C383	0.132800	0.697000	0.389200
C3841	C384	0.173100	0.710100	0.362700
C3851	C385	0.536100	0.911500	0.684700
C3861	C386	0.571000	0.908000	0.698400
C3871	C387	0.606600	0.864000	0.710400
C3881	C388	0.364800	0.057000	0.665800
C3891	C389	0.340800	0.035200	0.715600
C3901	C390	0.294200	0.038600	0.733600
C3911	C391	0.546600	0.088000	0.589200
C3921	C392	0.528500	0.120700	0.613100
C3931	C393	0.550600	0.155200	0.595000
C3941	C394	0.419300	0.090100	0.724300
C3951	C395	0.389200	0.132800	0.697000
C3961	C396	0.362700	0.173100	0.710100
C3971	C397	0.684700	0.867700	0.536100
C3981	C398	0.698400	0.822600	0.571000
C3991	C399	0.710400	0.819000	0.606600
C4001	C400	0.665800	0.912400	0.364800
C4011	C401	0.715600	0.908400	0.340800
C4021	C402	0.733600	0.933600	0.294200
C4031	C403	0.589200	0.776200	0.546600
C4041	C404	0.613100	0.737700	0.528500
C4051	C405	0.595000	0.699200	0.550600
C4061	C406	0.724300	0.766300	0.419300
C4071	C407	0.697000	0.781000	0.389200
C4081	C408	0.710100	0.754100	0.362700
C4091	C409	0.867700	0.684700	0.911500
C4101	C410	0.822600	0.698400	0.908000
C4111	C411	0.819000	0.710400	0.864000
C4121	C412	0.912400	0.665800	0.057000
C4131	C413	0.908400	0.715600	0.035200
C4141	C414	0.933600	0.733600	0.038600
C4151	C415	0.776200	0.589200	0.088000
C4161	C416	0.737700	0.613100	0.120700
C4171	C417	0.699200	0.595000	0.155200
C4181	C418	0.766300	0.724300	0.090100
C4191	C419	0.781000	0.697000	0.132800
C4201	C420	0.754100	0.710100	0.173100
C4211	C421	0.911500	0.536100	0.867700
C4221	C422	0.908000	0.571000	0.822600
C4231	C423	0.864000	0.606600	0.819000
C4241	C424	0.057000	0.364800	0.912400
C4251	C425	0.035200	0.340800	0.908400
C4261	C426	0.038600	0.294200	0.933600
C4271	C427	0.088000	0.546600	0.776200
C4281	C428	0.120700	0.528500	0.737700
C4291	C429	0.155200	0.550600	0.699200
C4301	C430	0.090100	0.419300	0.766300
C4311	C431	0.132800	0.389200	0.781000
C4321	C432	0.173100	0.362700	0.754100
C4331	C433	0.315300	0.463900	0.132300
C4341	C434	0.301600	0.429000	0.177400
C4351	C435	0.289600	0.393400	0.181000
C4361	C436	0.334200	0.635200	0.087600
C4371	C437	0.284400	0.659200	0.091600
C4381	C438	0.266400	0.705800	0.066400
C4391	C439	0.410800	0.453400	0.223800
C4401	C440	0.386900	0.471500	0.262300
C4411	C441	0.405000	0.449400	0.300800
C4421	C442	0.275700	0.580700	0.233700
C4431	C443	0.303000	0.610800	0.219000
C4441	C444	0.289900	0.637300	0.245900
C4451	C445	0.463900	0.315300	0.088500
C4461	C446	0.429000	0.301600	0.092000
C4471	C447	0.393400	0.289600	0.136000
C4481	C448	0.635200	0.334200	0.943000
C4491	C449	0.659200	0.284400	0.964800
C4501	C450	0.705800	0.266400	0.961400
C4511	C451	0.453400	0.410800	0.912000
C4521	C452	0.471500	0.386900	0.879300
C4531	C453	0.449400	0.405000	0.844800
C4541	C454	0.580700	0.275700	0.909900
C4551	C455	0.610800	0.303000	0.867200
C4561	C456	0.637300	0.289900	0.826900
C4571	C457	0.088500	0.132300	0.463900
C4581	C458	0.092000	0.177400	0.429000
C4591	C459	0.136000	0.181000	0.393400
C4601	C460	0.943000	0.087600	0.635200
C4611	C461	0.964800	0.091600	0.659200
C4621	C462	0.961400	0.066400	0.705800
C4631	C463	0.912000	0.223800	0.453400
C4641	C464	0.879300	0.262300	0.471500
C4651	C465	0.844800	0.300800	0.449400
C4661	C466	0.909900	0.233700	0.580700
C4671	C467	0.867200	0.219000	0.610800
C4681	C468	0.826900	0.245900	0.637300
C4691	C469	0.132300	0.088500	0.315300
C4701	C470	0.177400	0.092000	0.301600
C4711	C471	0.181000	0.136000	0.289600
C4721	C472	0.087600	0.943000	0.334200
C4731	C473	0.091600	0.964800	0.284400
C4741	C474	0.066400	0.961400	0.266400
C4751	C475	0.223800	0.912000	0.410800
C4761	C476	0.262300	0.879300	0.386900
C4771	C477	0.300800	0.844800	0.405000
C4781	C478	0.233700	0.909900	0.275700
C4791	C479	0.219000	0.867200	0.303000
C4801	C480	0.245900	0.826900	0.289900
C4811	C481	0.132300	0.463900	0.088500
C4821	C482	0.177400	0.429000	0.092000
C4831	C483	0.181000	0.393400	0.136000
C4841	C484	0.087600	0.635200	0.943000
C4851	C485	0.091600	0.659200	0.964800
C4861	C486	0.066400	0.705800	0.961400
C4871	C487	0.223800	0.453400	0.912000
C4881	C488	0.262300	0.471500	0.879300
C4891	C489	0.300800	0.449400	0.844800
C4901	C490	0.233700	0.580700	0.909900
C4911	C491	0.219000	0.610800	0.867200
C4921	C492	0.245900	0.637300	0.826900
C4931	C493	0.088500	0.315300	0.132300
C4941	C494	0.092000	0.301600	0.177400
C4951	C495	0.136000	0.289600	0.181000
C4961	C496	0.943000	0.334200	0.087600
C4971	C497	0.964800	0.284400	0.091600
C4981	C498	0.961400	0.266400	0.066400
C4991	C499	0.912000	0.410800	0.223800
C5001	C500	0.879300	0.386900	0.262300
C5011	C501	0.844800	0.405000	0.300800
C5021	C502	0.909900	0.275700	0.233700
C5031	C503	0.867200	0.303000	0.219000
C5041	C504	0.826900	0.289900	0.245900
C5051	C505	0.463900	0.132300	0.315300
C5061	C506	0.429000	0.177400	0.301600
C5071	C507	0.393400	0.181000	0.289600
C5081	C508	0.635200	0.087600	0.334200
C5091	C509	0.659200	0.091600	0.284400
C5101	C510	0.705800	0.066400	0.266400
C5111	C511	0.453400	0.223800	0.410800
C5121	C512	0.471500	0.262300	0.386900
C5131	C513	0.449400	0.300800	0.405000
C5141	C514	0.580700	0.233700	0.275700
C5151	C515	0.610800	0.219000	0.303000
C5161	C516	0.637300	0.245900	0.289900
C5171	C517	0.315300	0.088500	0.463900
C5181	C518	0.301600	0.092000	0.429000
C5191	C519	0.289600	0.136000	0.393400
C5201	C520	0.334200	0.943000	0.635200
C5211	C521	0.284400	0.964800	0.659200
C5221	C522	0.266400	0.961400	0.705800
C5231	C523	0.410800	0.912000	0.453400
C5241	C524	0.386900	0.879300	0.471500
C5251	C525	0.405000	0.844800	0.449400
C5261	C526	0.275700	0.909900	0.580700
C5271	C527	0.303000	0.867200	0.610800
C5281	C528	0.289900	0.826900	0.637300
C5291	C529	0.088500	0.463900	0.315300
C5301	C530	0.092000	0.429000	0.301600
C5311	C531	0.136000	0.393400	0.289600
C5321	C532	0.943000	0.635200	0.334200
C5331	C533	0.964800	0.659200	0.284400
C5341	C534	0.961400	0.705800	0.266400
C5351	C535	0.912000	0.453400	0.410800
C5361	C536	0.879300	0.471500	0.386900
C5371	C537	0.844800	0.449400	0.405000
C5381	C538	0.909900	0.580700	0.275700
C5391	C539	0.867200	0.610800	0.303000
C5401	C540	0.826900	0.637300	0.289900
C5411	C541	0.132300	0.315300	0.463900
C5421	C542	0.177400	0.301600	0.429000
C5431	C543	0.181000	0.289600	0.393400
C5441	C544	0.087600	0.334200	0.635200
C5451	C545	0.091600	0.284400	0.659200
C5461	C546	0.066400	0.266400	0.705800
C5471	C547	0.223800	0.410800	0.453400
C5481	C548	0.262300	0.386900	0.471500
C5491	C549	0.300800	0.405000	0.449400
C5501	C550	0.233700	0.275700	0.580700
C5511	C551	0.219000	0.303000	0.610800
C5521	C552	0.245900	0.289900	0.637300
C5531	C553	0.315300	0.132300	0.088500
C5541	C554	0.301600	0.177400	0.092000
C5551	C555	0.289600	0.181000	0.136000
C5561	C556	0.334200	0.087600	0.943000
C5571	C557	0.284400	0.091600	0.964800
C5581	C558	0.266400	0.066400	0.961400
C5591	C559	0.410800	0.223800	0.912000
C5601	C560	0.386900	0.262300	0.879300
C5611	C561	0.405000	0.300800	0.844800
C5621	C562	0.275700	0.233700	0.909900
C5631	C563	0.303000	0.219000	0.867200
C5641	C564	0.289900	0.245900	0.826900
C5651	C565	0.463900	0.088500	0.132300
C5661	C566	0.429000	0.092000	0.177400
C5671	C567	0.393400	0.136000	0.181000
C5681	C568	0.635200	0.943000	0.087600
C5691	C569	0.659200	0.964800	0.091600
C5701	C570	0.705800	0.961400	0.066400
C5711	C571	0.453400	0.912000	0.223800
C5721	C572	0.471500	0.879300	0.262300
C5731	C573	0.449400	0.844800	0.300800
C5741	C574	0.580700	0.909900	0.233700
C5751	C575	0.610800	0.867200	0.219000
C5761	C576	0.637300	0.826900	0.245900
C5771	C577	0.525300	0.337300	0.068700
C5781	C578	0.337300	0.525300	0.068700
C5791	C579	0.068700	0.068700	0.525300
C5801	C580	0.068700	0.068700	0.337300
C5811	C581	0.525300	0.068700	0.068700
C5821	C582	0.337300	0.068700	0.068700
C5831	C583	0.068700	0.525300	0.337300
C5841	C584	0.068700	0.337300	0.525300
C5851	C585	0.525300	0.068700	0.337300
C5861	C586	0.337300	0.068700	0.525300
C5871	C587	0.068700	0.337300	0.068700
C5881	C588	0.068700	0.525300	0.068700
C5891	C589	0.662700	0.474700	0.931300
C5901	C590	0.474700	0.662700	0.931300
C5911	C591	0.931300	0.931300	0.474700
C5921	C592	0.931300	0.931300	0.662700
C5931	C593	0.931300	0.474700	0.931300
C5941	C594	0.931300	0.662700	0.931300
C5951	C595	0.474700	0.931300	0.662700
C5961	C596	0.662700	0.931300	0.474700
C5971	C597	0.931300	0.474700	0.662700
C5981	C598	0.931300	0.662700	0.474700
C5991	C599	0.662700	0.931300	0.931300
C6001	C600	0.474700	0.931300	0.931300
C6011	C601	0.589200	0.410800	0.085800
C6021	C602	0.410800	0.589200	0.914200
C6031	C603	0.085800	0.914200	0.589200
C6041	C604	0.914200	0.085800	0.410800
C6051	C605	0.589200	0.085800	0.914200
C6061	C606	0.410800	0.914200	0.085800
C6071	C607	0.085800	0.589200	0.410800
C6081	C608	0.914200	0.410800	0.589200
C6091	C609	0.589200	0.914200	0.410800
C6101	C610	0.410800	0.085800	0.589200
C6111	C611	0.085800	0.410800	0.914200
C6121	C612	0.914200	0.589200	0.085800
C6131	C613	0.589200	0.410800	0.914200
C6141	C614	0.410800	0.589200	0.085800
C6151	C615	0.085800	0.914200	0.410800
C6161	C616	0.914200	0.085800	0.589200
C6171	C617	0.914200	0.410800	0.085800
C6181	C618	0.085800	0.589200	0.914200
C6191	C619	0.410800	0.914200	0.589200
C6201	C620	0.589200	0.085800	0.410800
C6211	C621	0.085800	0.410800	0.589200
C6221	C622	0.914200	0.589200	0.410800
C6231	C623	0.589200	0.914200	0.085800
C6241	C624	0.410800	0.085800	0.914200
C6251	C625	0.434400	0.434400	0.159400
C6261	C626	0.434400	0.434400	0.971800
C6271	C627	0.159400	0.971800	0.434400
C6281	C628	0.971800	0.159400	0.434400
C6291	C629	0.434400	0.159400	0.971800
C6301	C630	0.434400	0.971800	0.159400
C6311	C631	0.159400	0.434400	0.434400
C6321	C632	0.971800	0.434400	0.434400
C6331	C633	0.434400	0.971800	0.434400
C6341	C634	0.434400	0.159400	0.434400
C6351	C635	0.159400	0.434400	0.971800
C6361	C636	0.971800	0.434400	0.159400
C6371	C637	0.565600	0.565600	0.840600
C6381	C638	0.565600	0.565600	0.028200
C6391	C639	0.028200	0.840600	0.565600
C6401	C640	0.840600	0.028200	0.565600
C6411	C641	0.840600	0.565600	0.028200
C6421	C642	0.028200	0.565600	0.840600
C6431	C643	0.565600	0.840600	0.565600
C6441	C644	0.565600	0.028200	0.565600
C6451	C645	0.028200	0.565600	0.565600
C6461	C646	0.840600	0.565600	0.565600
C6471	C647	0.565600	0.840600	0.028200
C6481	C648	0.565600	0.028200	0.840600
C6491	C649	0.530700	0.244700	0.244700
C6501	C650	0.244700	0.530700	0.979900
C6511	C651	0.244700	0.979900	0.530700
C6521	C652	0.979900	0.244700	0.244700
C6531	C653	0.530700	0.244700	0.979900
C6541	C654	0.244700	0.979900	0.244700
C6551	C655	0.244700	0.530700	0.244700
C6561	C656	0.979900	0.244700	0.530700
C6571	C657	0.530700	0.979900	0.244700
C6581	C658	0.244700	0.244700	0.530700
C6591	C659	0.244700	0.244700	0.979900
C6601	C660	0.979900	0.530700	0.244700
C6611	C661	0.755300	0.469300	0.755300
C6621	C662	0.469300	0.755300	0.020100
C6631	C663	0.020100	0.755300	0.469300
C6641	C664	0.755300	0.020100	0.755300
C6651	C665	0.755300	0.469300	0.020100
C6661	C666	0.020100	0.755300	0.755300
C6671	C667	0.469300	0.755300	0.755300
C6681	C668	0.755300	0.020100	0.469300
C6691	C669	0.020100	0.469300	0.755300
C6701	C670	0.755300	0.755300	0.469300
C6711	C671	0.755300	0.755300	0.020100
C6721	C672	0.469300	0.020100	0.755300
N11	N1	0.504160	0.329840	0.117640
N21	N2	0.586630	0.363710	0.105950
N31	N3	0.469140	0.398200	0.181360
N41	N4	0.548450	0.282250	0.212970
N51	N5	0.329840	0.504160	0.048360
N61	N6	0.363710	0.586630	0.943710
N71	N7	0.398200	0.469140	0.951300
N81	N8	0.282250	0.548450	0.956330
N91	N9	0.117640	0.048360	0.504160
N101	N10	0.105950	0.943710	0.586630
N111	N11	0.181360	0.951300	0.469140
N121	N12	0.212970	0.956330	0.548450
N131	N13	0.048360	0.117640	0.329840
N141	N14	0.943710	0.105950	0.363710
N151	N15	0.951300	0.181360	0.398200
N161	N16	0.956330	0.212970	0.282250
N171	N17	0.504160	0.117640	0.048360
N181	N18	0.586630	0.105950	0.943710
N191	N19	0.469140	0.181360	0.951300
N201	N20	0.548450	0.212970	0.956330
N211	N21	0.329840	0.048360	0.117640
N221	N22	0.363710	0.943710	0.105950
N231	N23	0.398200	0.951300	0.181360
N241	N24	0.282250	0.956330	0.212970
N251	N25	0.117640	0.504160	0.329840
N261	N26	0.105950	0.586630	0.363710
N271	N27	0.181360	0.469140	0.398200
N281	N28	0.212970	0.548450	0.282250
N291	N29	0.048360	0.329840	0.504160
N301	N30	0.943710	0.363710	0.586630
N311	N31	0.951300	0.398200	0.469140
N321	N32	0.956330	0.282250	0.548450
N331	N33	0.504160	0.048360	0.329840
N341	N34	0.586630	0.943710	0.363710
N351	N35	0.469140	0.951300	0.398200
N361	N36	0.548450	0.956330	0.282250
N371	N37	0.329840	0.117640	0.504160
N381	N38	0.363710	0.105950	0.586630
N391	N39	0.398200	0.181360	0.469140
N401	N40	0.282250	0.212970	0.548450
N411	N41	0.117640	0.329840	0.048360
N421	N42	0.105950	0.363710	0.943710
N431	N43	0.181360	0.398200	0.951300
N441	N44	0.212970	0.282250	0.956330
N451	N45	0.048360	0.504160	0.117640
N461	N46	0.943710	0.586630	0.105950
N471	N47	0.951300	0.469140	0.181360
N481	N48	0.956330	0.548450	0.212970
N491	N49	0.670160	0.495840	0.882360
N501	N50	0.636290	0.413370	0.894050
N511	N51	0.601800	0.530860	0.818640
N521	N52	0.717750	0.451550	0.787030
N531	N53	0.495840	0.670160	0.951640
N541	N54	0.413370	0.636290	0.056290
N551	N55	0.530860	0.601800	0.048700
N561	N56	0.451550	0.717750	0.043670
N571	N57	0.951640	0.882360	0.495840
N581	N58	0.056290	0.894050	0.413370
N591	N59	0.048700	0.818640	0.530860
N601	N60	0.043670	0.787030	0.451550
N611	N61	0.882360	0.951640	0.670160
N621	N62	0.894050	0.056290	0.636290
N631	N63	0.818640	0.048700	0.601800
N641	N64	0.787030	0.043670	0.717750
N651	N65	0.882360	0.495840	0.951640
N661	N66	0.894050	0.413370	0.056290
N671	N67	0.818640	0.530860	0.048700
N681	N68	0.787030	0.451550	0.043670
N691	N69	0.951640	0.670160	0.882360
N701	N70	0.056290	0.636290	0.894050
N711	N71	0.048700	0.601800	0.818640
N721	N72	0.043670	0.717750	0.787030
N731	N73	0.495840	0.882360	0.670160
N741	N74	0.413370	0.894050	0.636290
N751	N75	0.530860	0.818640	0.601800
N761	N76	0.451550	0.787030	0.717750
N771	N77	0.670160	0.951640	0.495840
N781	N78	0.636290	0.056290	0.413370
N791	N79	0.601800	0.048700	0.530860
N801	N80	0.717750	0.043670	0.451550
N811	N81	0.951640	0.495840	0.670160
N821	N82	0.056290	0.413370	0.636290
N831	N83	0.048700	0.530860	0.601800
N841	N84	0.043670	0.451550	0.717750
N851	N85	0.882360	0.670160	0.495840
N861	N86	0.894050	0.636290	0.413370
N871	N87	0.818640	0.601800	0.530860
N881	N88	0.787030	0.717750	0.451550
N891	N89	0.670160	0.882360	0.951640
N901	N90	0.636290	0.894050	0.056290
N911	N91	0.601800	0.818640	0.048700
N921	N92	0.717750	0.787030	0.043670
N931	N93	0.495840	0.951640	0.882360
N941	N94	0.413370	0.056290	0.894050
N951	N95	0.530860	0.048700	0.818640
N961	N96	0.451550	0.043670	0.787030
N971	N97	0.495840	0.670160	0.882360
N981	N98	0.413370	0.636290	0.894050
N991	N99	0.530860	0.601800	0.818640
N1001	N100	0.451550	0.717750	0.787030
N1011	N101	0.670160	0.495840	0.951640
N1021	N102	0.636290	0.413370	0.056290
N1031	N103	0.601800	0.530860	0.048700
N1041	N104	0.717750	0.451550	0.043670
N1051	N105	0.882360	0.951640	0.495840
N1061	N106	0.894050	0.056290	0.413370
N1071	N107	0.818640	0.048700	0.530860
N1081	N108	0.787030	0.043670	0.451550
N1091	N109	0.951640	0.882360	0.670160
N1101	N110	0.056290	0.894050	0.636290
N1111	N111	0.048700	0.818640	0.601800
N1121	N112	0.043670	0.787030	0.717750
N1131	N113	0.495840	0.882360	0.951640
N1141	N114	0.413370	0.894050	0.056290
N1151	N115	0.530860	0.818640	0.048700
N1161	N116	0.451550	0.787030	0.043670
N1171	N117	0.670160	0.951640	0.882360
N1181	N118	0.636290	0.056290	0.894050
N1191	N119	0.601800	0.048700	0.818640
N1201	N120	0.717750	0.043670	0.787030
N1211	N121	0.882360	0.495840	0.670160
N1221	N122	0.894050	0.413370	0.636290
N1231	N123	0.818640	0.530860	0.601800
N1241	N124	0.787030	0.451550	0.717750
N1251	N125	0.951640	0.670160	0.495840
N1261	N126	0.056290	0.636290	0.413370
N1271	N127	0.048700	0.601800	0.530860
N1281	N128	0.043670	0.717750	0.451550
N1291	N129	0.495840	0.951640	0.670160
N1301	N130	0.413370	0.056290	0.636290
N1311	N131	0.530860	0.048700	0.601800
N1321	N132	0.451550	0.043670	0.717750
N1331	N133	0.670160	0.882360	0.495840
N1341	N134	0.636290	0.894050	0.413370
N1351	N135	0.601800	0.818640	0.530860
N1361	N136	0.717750	0.787030	0.451550
N1371	N137	0.882360	0.670160	0.951640
N1381	N138	0.894050	0.636290	0.056290
N1391	N139	0.818640	0.601800	0.048700
N1401	N140	0.787030	0.717750	0.043670
N1411	N141	0.951640	0.495840	0.882360
N1421	N142	0.056290	0.413370	0.894050
N1431	N143	0.048700	0.530860	0.818640
N1441	N144	0.043670	0.451550	0.787030
N1451	N145	0.329840	0.504160	0.117640
N1461	N146	0.363710	0.586630	0.105950
N1471	N147	0.398200	0.469140	0.181360
N1481	N148	0.282250	0.548450	0.212970
N1491	N149	0.504160	0.329840	0.048360
N1501	N150	0.586630	0.363710	0.943710
N1511	N151	0.469140	0.398200	0.951300
N1521	N152	0.548450	0.282250	0.956330
N1531	N153	0.048360	0.117640	0.504160
N1541	N154	0.943710	0.105950	0.586630
N1551	N155	0.951300	0.181360	0.469140
N1561	N156	0.956330	0.212970	0.548450
N1571	N157	0.117640	0.048360	0.329840
N1581	N158	0.105950	0.943710	0.363710
N1591	N159	0.181360	0.951300	0.398200
N1601	N160	0.212970	0.956330	0.282250
N1611	N161	0.117640	0.504160	0.048360
N1621	N162	0.105950	0.586630	0.943710
N1631	N163	0.181360	0.469140	0.951300
N1641	N164	0.212970	0.548450	0.956330
N1651	N165	0.048360	0.329840	0.117640
N1661	N166	0.943710	0.363710	0.105950
N1671	N167	0.951300	0.398200	0.181360
N1681	N168	0.956330	0.282250	0.212970
N1691	N169	0.504160	0.117640	0.329840
N1701	N170	0.586630	0.105950	0.363710
N1711	N171	0.469140	0.181360	0.398200
N1721	N172	0.548450	0.212970	0.282250
N1731	N173	0.329840	0.048360	0.504160
N1741	N174	0.363710	0.943710	0.586630
N1751	N175	0.398200	0.951300	0.469140
N1761	N176	0.282250	0.956330	0.548450
N1771	N177	0.048360	0.504160	0.329840
N1781	N178	0.943710	0.586630	0.363710
N1791	N179	0.951300	0.469140	0.398200
N1801	N180	0.956330	0.548450	0.282250
N1811	N181	0.117640	0.329840	0.504160
N1821	N182	0.105950	0.363710	0.586630
N1831	N183	0.181360	0.398200	0.469140
N1841	N184	0.212970	0.282250	0.548450
N1851	N185	0.329840	0.117640	0.048360
N1861	N186	0.363710	0.105950	0.943710
N1871	N187	0.398200	0.181360	0.951300
N1881	N188	0.282250	0.212970	0.956330
N1891	N189	0.504160	0.048360	0.117640
N1901	N190	0.586630	0.943710	0.105950
N1911	N191	0.469140	0.951300	0.181360
N1921	N192	0.548450	0.956330	0.212970
