data_MIHLUL_clean_PM
_symmetry_space_group_name_H-M	'P1'
_cell_length_a	11.773500
_cell_length_b	18.614400
_cell_length_c	27.902200
_cell_angle_alpha	90.000000
_cell_angle_beta	90.000000
_cell_angle_gamma	100.085000
_symmetry_Int_Tables_number 1

loop_
_symmetry_equiv_pos_as_xyz
'x,y,z'

loop_
_atom_site_label
_atom_site_type_symbol
_atom_site_fract_x
_atom_site_fract_y
_atom_site_fract_z
Dy11	Dy1	0.455070	0.955370	0.717010
Dy21	Dy2	0.751110	0.000990	0.032440
Dy31	Dy3	0.044930	0.044630	0.217010
Dy41	Dy4	0.748890	0.999010	0.532440
Dy51	Dy5	0.544930	0.044630	0.282990
Dy61	Dy6	0.248890	0.999010	0.967560
Dy71	Dy7	0.955070	0.955370	0.782990
Dy81	Dy8	0.251110	0.000990	0.467560
H11	H1	0.445000	0.404100	0.708000
H21	H2	0.353800	0.509900	0.728900
H31	H3	0.337600	0.671000	0.884500
H41	H4	0.440300	0.689100	0.961400
H51	H5	0.745300	0.548100	0.048700
H61	H6	0.837300	0.443300	0.029800
H71	H7	0.858400	0.281700	0.872700
H81	H8	0.754800	0.267600	0.795800
H91	H9	0.552200	0.471100	0.840200
H101	H10	0.655100	0.486000	0.915200
H111	H11	0.465300	0.707100	0.791200
H121	H12	0.178300	0.730600	0.716600
H131	H13	0.091800	0.615200	0.741400
H141	H14	0.190400	0.543200	0.787100
H151	H15	0.672200	0.736400	0.977400
H161	H16	0.603000	0.777300	0.116600
H171	H17	0.557300	0.654800	0.133200
H181	H18	0.546100	0.570400	0.068900
H191	H19	0.734500	0.250200	0.968600
H201	H20	0.040000	0.221200	0.024400
H211	H21	0.122500	0.338400	0.002000
H221	H22	0.012400	0.413100	0.960800
H231	H23	0.518600	0.220600	0.770800
H241	H24	0.611200	0.181700	0.636800
H251	H25	0.675200	0.307800	0.626300
H261	H26	0.668000	0.389900	0.686700
H271	H27	0.055000	0.595900	0.208000
H281	H28	0.146200	0.490100	0.228900
H291	H29	0.162400	0.329000	0.384500
H301	H30	0.059700	0.310900	0.461400
H311	H31	0.754700	0.451900	0.548700
H321	H32	0.662700	0.556700	0.529800
H331	H33	0.641600	0.718300	0.372700
H341	H34	0.745200	0.732400	0.295800
H351	H35	0.947800	0.528900	0.340200
H361	H36	0.844900	0.514000	0.415200
H371	H37	0.034700	0.292900	0.291200
H381	H38	0.321700	0.269400	0.216600
H391	H39	0.408200	0.384800	0.241400
H401	H40	0.309600	0.456800	0.287100
H411	H41	0.827800	0.263600	0.477400
H421	H42	0.897000	0.222700	0.616600
H431	H43	0.942700	0.345200	0.633200
H441	H44	0.953900	0.429600	0.568900
H451	H45	0.765500	0.749800	0.468600
H461	H46	0.460000	0.778800	0.524400
H471	H47	0.377500	0.661600	0.502000
H481	H48	0.487600	0.586900	0.460800
H491	H49	0.981400	0.779400	0.270800
H501	H50	0.888800	0.818300	0.136800
H511	H51	0.824800	0.692200	0.126300
H521	H52	0.832000	0.610100	0.186700
H531	H53	0.555000	0.595900	0.292000
H541	H54	0.646200	0.490100	0.271100
H551	H55	0.662400	0.329000	0.115500
H561	H56	0.559700	0.310900	0.038600
H571	H57	0.254700	0.451900	0.951300
H581	H58	0.162700	0.556700	0.970200
H591	H59	0.141600	0.718300	0.127300
H601	H60	0.245200	0.732400	0.204200
H611	H61	0.447800	0.528900	0.159800
H621	H62	0.344900	0.514000	0.084800
H631	H63	0.534700	0.292900	0.208800
H641	H64	0.821700	0.269400	0.283400
H651	H65	0.908200	0.384800	0.258600
H661	H66	0.809600	0.456800	0.212900
H671	H67	0.327800	0.263600	0.022600
H681	H68	0.397000	0.222700	0.883400
H691	H69	0.442700	0.345200	0.866800
H701	H70	0.453900	0.429600	0.931100
H711	H71	0.265500	0.749800	0.031400
H721	H72	0.960000	0.778800	0.975600
H731	H73	0.877500	0.661600	0.998000
H741	H74	0.987600	0.586900	0.039200
H751	H75	0.481400	0.779400	0.229200
H761	H76	0.388800	0.818300	0.363200
H771	H77	0.324800	0.692200	0.373700
H781	H78	0.332000	0.610100	0.313300
H791	H79	0.945000	0.404100	0.792000
H801	H80	0.853800	0.509900	0.771100
H811	H81	0.837600	0.671000	0.615500
H821	H82	0.940300	0.689100	0.538600
H831	H83	0.245300	0.548100	0.451300
H841	H84	0.337300	0.443300	0.470200
H851	H85	0.358400	0.281700	0.627300
H861	H86	0.254800	0.267600	0.704200
H871	H87	0.052200	0.471100	0.659800
H881	H88	0.155100	0.486000	0.584800
H891	H89	0.965300	0.707100	0.708800
H901	H90	0.678300	0.730600	0.783400
H911	H91	0.591800	0.615200	0.758600
H921	H92	0.690400	0.543200	0.712900
H931	H93	0.172200	0.736400	0.522600
H941	H94	0.103000	0.777300	0.383400
H951	H95	0.057300	0.654800	0.366800
H961	H96	0.046100	0.570400	0.431100
H971	H97	0.234500	0.250200	0.531400
H981	H98	0.540000	0.221200	0.475600
H991	H99	0.622500	0.338400	0.498000
H1001	H100	0.512400	0.413100	0.539200
H1011	H101	0.018600	0.220600	0.729200
H1021	H102	0.111200	0.181700	0.863200
H1031	H103	0.175200	0.307800	0.873700
H1041	H104	0.168000	0.389900	0.813300
C11	C1	0.529600	0.417000	0.776000
C21	C2	0.456200	0.431100	0.737000
C31	C3	0.405600	0.488900	0.748400
C41	C4	0.444400	0.511900	0.794600
C51	C5	0.412200	0.571100	0.819300
C61	C6	0.445800	0.592600	0.867000
C71	C7	0.397700	0.646600	0.894800
C81	C8	0.451500	0.655900	0.936700
C91	C9	0.533400	0.603300	0.936700
C101	C10	0.607400	0.594600	0.976200
C111	C11	0.671500	0.538000	0.979200
C121	C12	0.738100	0.522100	0.019300
C131	C13	0.789100	0.464800	0.008900
C141	C14	0.758700	0.442000	0.961700
C151	C15	0.788600	0.385500	0.934400
C161	C16	0.758500	0.366300	0.887300
C171	C17	0.802200	0.308800	0.861800
C181	C18	0.747300	0.302100	0.820200
C191	C19	0.674500	0.356400	0.818400
C201	C20	0.601300	0.365300	0.779100
C211	C21	0.339900	0.616100	0.793500
C221	C22	0.389600	0.687600	0.780400
C231	C23	0.329600	0.731500	0.751500
C241	C24	0.219400	0.702800	0.736600
C251	C25	0.168900	0.633700	0.750900
C261	C26	0.227500	0.590900	0.778300
C271	C27	0.383900	0.806300	0.737900
C281	C28	0.608500	0.645600	0.017800
C291	C29	0.646100	0.719900	0.008300
C301	C30	0.643600	0.769300	0.046800
C311	C31	0.606800	0.743200	0.091600
C321	C32	0.576100	0.671100	0.101400
C331	C33	0.572700	0.620900	0.063500
C341	C34	0.681000	0.850400	0.037500
C351	C35	0.861200	0.340400	0.960400
C361	C36	0.813200	0.269100	0.975300
C371	C37	0.880200	0.225700	0.000000
C381	C38	0.994500	0.251500	0.008700
C391	C39	0.043700	0.320500	0.995000
C401	C40	0.977400	0.365400	0.970500
C411	C41	0.822000	0.149400	0.014100
C421	C42	0.597800	0.313400	0.738200
C431	C43	0.554700	0.239300	0.741900
C441	C44	0.563300	0.192500	0.704400
C451	C45	0.606500	0.215000	0.662200
C461	C46	0.645200	0.290400	0.656500
C471	C47	0.641800	0.339300	0.692100
C481	C48	0.522700	0.110700	0.713200
C491	C49	0.982000	0.010000	0.974700
C501	C50	0.516700	0.984800	0.974700
C511	C51	0.222600	0.943500	0.774000
C521	C52	0.188900	0.973800	0.723800
C531	C53	0.970400	0.583000	0.276000
C541	C54	0.043800	0.568900	0.237000
C551	C55	0.094400	0.511100	0.248400
C561	C56	0.055600	0.488100	0.294600
C571	C57	0.087800	0.428900	0.319300
C581	C58	0.054200	0.407400	0.367000
C591	C59	0.102300	0.353400	0.394800
C601	C60	0.048500	0.344100	0.436700
C611	C61	0.966600	0.396700	0.436700
C621	C62	0.892600	0.405400	0.476200
C631	C63	0.828500	0.462000	0.479200
C641	C64	0.761900	0.477900	0.519300
C651	C65	0.710900	0.535200	0.508900
C661	C66	0.741300	0.558000	0.461700
C671	C67	0.711400	0.614500	0.434400
C681	C68	0.741500	0.633700	0.387300
C691	C69	0.697800	0.691200	0.361800
C701	C70	0.752700	0.697900	0.320200
C711	C71	0.825500	0.643600	0.318400
C721	C72	0.898700	0.634700	0.279100
C731	C73	0.160100	0.383900	0.293500
C741	C74	0.110400	0.312400	0.280400
C751	C75	0.170400	0.268500	0.251500
C761	C76	0.280600	0.297200	0.236600
C771	C77	0.331100	0.366300	0.250900
C781	C78	0.272500	0.409100	0.278300
C791	C79	0.116100	0.193700	0.237900
C801	C80	0.891500	0.354400	0.517800
C811	C81	0.853900	0.280100	0.508300
C821	C82	0.856400	0.230700	0.546800
C831	C83	0.893200	0.256800	0.591600
C841	C84	0.923900	0.328900	0.601400
C851	C85	0.927300	0.379100	0.563500
C861	C86	0.819000	0.149600	0.537500
C871	C87	0.638800	0.659600	0.460400
C881	C88	0.686800	0.730900	0.475300
C891	C89	0.619800	0.774300	0.500000
C901	C90	0.505500	0.748500	0.508700
C911	C91	0.456300	0.679500	0.495000
C921	C92	0.522600	0.634600	0.470500
C931	C93	0.678000	0.850600	0.514100
C941	C94	0.902200	0.686600	0.238200
C951	C95	0.945300	0.760700	0.241900
C961	C96	0.936700	0.807500	0.204400
C971	C97	0.893500	0.785000	0.162200
C981	C98	0.854800	0.709600	0.156500
C991	C99	0.858200	0.660700	0.192100
C1001	C100	0.977300	0.889300	0.213200
C1011	C101	0.518000	0.990000	0.474700
C1021	C102	0.983300	0.015200	0.474700
C1031	C103	0.277400	0.056500	0.274000
C1041	C104	0.311100	0.026200	0.223800
C1051	C105	0.470400	0.583000	0.224000
C1061	C106	0.543800	0.568900	0.263000
C1071	C107	0.594400	0.511100	0.251600
C1081	C108	0.555600	0.488100	0.205400
C1091	C109	0.587800	0.428900	0.180700
C1101	C110	0.554200	0.407400	0.133000
C1111	C111	0.602300	0.353400	0.105200
C1121	C112	0.548500	0.344100	0.063300
C1131	C113	0.466600	0.396700	0.063300
C1141	C114	0.392600	0.405400	0.023800
C1151	C115	0.328500	0.462000	0.020800
C1161	C116	0.261900	0.477900	0.980700
C1171	C117	0.210900	0.535200	0.991100
C1181	C118	0.241300	0.558000	0.038300
C1191	C119	0.211400	0.614500	0.065600
C1201	C120	0.241500	0.633700	0.112700
C1211	C121	0.197800	0.691200	0.138200
C1221	C122	0.252700	0.697900	0.179800
C1231	C123	0.325500	0.643600	0.181600
C1241	C124	0.398700	0.634700	0.220900
C1251	C125	0.660100	0.383900	0.206500
C1261	C126	0.610400	0.312400	0.219600
C1271	C127	0.670400	0.268500	0.248500
C1281	C128	0.780600	0.297200	0.263400
C1291	C129	0.831100	0.366300	0.249100
C1301	C130	0.772500	0.409100	0.221700
C1311	C131	0.616100	0.193700	0.262100
C1321	C132	0.391500	0.354400	0.982200
C1331	C133	0.353900	0.280100	0.991700
C1341	C134	0.356400	0.230700	0.953200
C1351	C135	0.393200	0.256800	0.908400
C1361	C136	0.423900	0.328900	0.898600
C1371	C137	0.427300	0.379100	0.936500
C1381	C138	0.319000	0.149600	0.962500
C1391	C139	0.138800	0.659600	0.039600
C1401	C140	0.186800	0.730900	0.024700
C1411	C141	0.119800	0.774300	0.000000
C1421	C142	0.005500	0.748500	0.991300
C1431	C143	0.956300	0.679500	0.005000
C1441	C144	0.022600	0.634600	0.029500
C1451	C145	0.178000	0.850600	0.985900
C1461	C146	0.402200	0.686600	0.261800
C1471	C147	0.445300	0.760700	0.258100
C1481	C148	0.436700	0.807500	0.295600
C1491	C149	0.393500	0.785000	0.337800
C1501	C150	0.354800	0.709600	0.343500
C1511	C151	0.358200	0.660700	0.307900
C1521	C152	0.477300	0.889300	0.286800
C1531	C153	0.018000	0.990000	0.025300
C1541	C154	0.483300	0.015200	0.025300
C1551	C155	0.777400	0.056500	0.226000
C1561	C156	0.811100	0.026200	0.276200
C1571	C157	0.029600	0.417000	0.724000
C1581	C158	0.956200	0.431100	0.763000
C1591	C159	0.905600	0.488900	0.751600
C1601	C160	0.944400	0.511900	0.705400
C1611	C161	0.912200	0.571100	0.680700
C1621	C162	0.945800	0.592600	0.633000
C1631	C163	0.897700	0.646600	0.605200
C1641	C164	0.951500	0.655900	0.563300
C1651	C165	0.033400	0.603300	0.563300
C1661	C166	0.107400	0.594600	0.523800
C1671	C167	0.171500	0.538000	0.520800
C1681	C168	0.238100	0.522100	0.480700
C1691	C169	0.289100	0.464800	0.491100
C1701	C170	0.258700	0.442000	0.538300
C1711	C171	0.288600	0.385500	0.565600
C1721	C172	0.258500	0.366300	0.612700
C1731	C173	0.302200	0.308800	0.638200
C1741	C174	0.247300	0.302100	0.679800
C1751	C175	0.174500	0.356400	0.681600
C1761	C176	0.101300	0.365300	0.720900
C1771	C177	0.839900	0.616100	0.706500
C1781	C178	0.889600	0.687600	0.719600
C1791	C179	0.829600	0.731500	0.748500
C1801	C180	0.719400	0.702800	0.763400
C1811	C181	0.668900	0.633700	0.749100
C1821	C182	0.727500	0.590900	0.721700
C1831	C183	0.883900	0.806300	0.762100
C1841	C184	0.108500	0.645600	0.482200
C1851	C185	0.146100	0.719900	0.491700
C1861	C186	0.143600	0.769300	0.453200
C1871	C187	0.106800	0.743200	0.408400
C1881	C188	0.076100	0.671100	0.398600
C1891	C189	0.072700	0.620900	0.436500
C1901	C190	0.181000	0.850400	0.462500
C1911	C191	0.361200	0.340400	0.539600
C1921	C192	0.313200	0.269100	0.524700
C1931	C193	0.380200	0.225700	0.500000
C1941	C194	0.494500	0.251500	0.491300
C1951	C195	0.543700	0.320500	0.505000
C1961	C196	0.477400	0.365400	0.529500
C1971	C197	0.322000	0.149400	0.485900
C1981	C198	0.097800	0.313400	0.761800
C1991	C199	0.054700	0.239300	0.758100
C2001	C200	0.063300	0.192500	0.795600
C2011	C201	0.106500	0.215000	0.837800
C2021	C202	0.145200	0.290400	0.843500
C2031	C203	0.141800	0.339300	0.807900
C2041	C204	0.022700	0.110700	0.786800
C2051	C205	0.482000	0.010000	0.525300
C2061	C206	0.016700	0.984800	0.525300
C2071	C207	0.722600	0.943500	0.726000
C2081	C208	0.688900	0.973800	0.776200
N11	N1	0.518500	0.467800	0.811900
N21	N2	0.524800	0.566600	0.894000
N31	N3	0.686100	0.488300	0.944000
N41	N4	0.683900	0.396000	0.859400
N51	N5	0.981500	0.532200	0.311900
N61	N6	0.975200	0.433400	0.394000
N71	N7	0.813900	0.511700	0.444000
N81	N8	0.816100	0.604000	0.359400
N91	N9	0.481500	0.532200	0.188100
N101	N10	0.475200	0.433400	0.106000
N111	N11	0.313900	0.511700	0.056000
N121	N12	0.316100	0.604000	0.140600
N131	N13	0.018500	0.467800	0.688100
N141	N14	0.024800	0.566600	0.606000
N151	N15	0.186100	0.488300	0.556000
N161	N16	0.183900	0.396000	0.640600
O11	O1	0.339000	0.837000	0.703100
O21	O2	0.470900	0.838200	0.759600
O31	O3	0.755700	0.872600	0.005200
O41	O4	0.637700	0.892900	0.063600
O51	O5	0.866600	0.118600	0.049200
O61	O6	0.738700	0.117200	0.992000
O71	O7	0.569900	0.068800	0.686400
O81	O8	0.445800	0.086600	0.742800
O91	O9	0.878700	0.013300	0.966700
O101	O10	0.063300	0.021100	0.943700
O111	O11	0.617700	0.975700	0.967700
O121	O12	0.433100	0.968200	0.945400
O131	O13	0.324400	0.939600	0.781300
O141	O14	0.137700	0.927100	0.804100
O151	O15	0.089800	0.982800	0.718100
O161	O16	0.267700	0.981900	0.693800
O171	O17	0.161000	0.163000	0.203100
O181	O18	0.029100	0.161800	0.259600
O191	O19	0.744300	0.127400	0.505200
O201	O20	0.862300	0.107100	0.563600
O211	O21	0.633400	0.881400	0.549200
O221	O22	0.761300	0.882800	0.492000
O231	O23	0.930100	0.931200	0.186400
O241	O24	0.054200	0.913400	0.242800
O251	O25	0.621300	0.986700	0.466700
O261	O26	0.436700	0.978900	0.443700
O271	O27	0.882300	0.024300	0.467700
O281	O28	0.066900	0.031800	0.445400
O291	O29	0.175600	0.060400	0.281300
O301	O30	0.362300	0.072900	0.304100
O311	O31	0.410200	0.017200	0.218100
O321	O32	0.232300	0.018100	0.193800
O331	O33	0.661000	0.163000	0.296900
O341	O34	0.529100	0.161800	0.240400
O351	O35	0.244300	0.127400	0.994800
O361	O36	0.362300	0.107100	0.936400
O371	O37	0.133400	0.881400	0.950800
O381	O38	0.261300	0.882800	0.008000
O391	O39	0.430100	0.931200	0.313600
O401	O40	0.554200	0.913400	0.257200
O411	O41	0.121300	0.986700	0.033300
O421	O42	0.936700	0.978900	0.056300
O431	O43	0.382300	0.024300	0.032300
O441	O44	0.566900	0.031800	0.054600
O451	O45	0.675600	0.060400	0.218700
O461	O46	0.862300	0.072900	0.195900
O471	O47	0.910200	0.017200	0.281900
O481	O48	0.732300	0.018100	0.306200
O491	O49	0.839000	0.837000	0.796900
O501	O50	0.970900	0.838200	0.740400
O511	O51	0.255700	0.872600	0.494800
O521	O52	0.137700	0.892900	0.436400
O531	O53	0.366600	0.118600	0.450800
O541	O54	0.238700	0.117200	0.508000
O551	O55	0.069900	0.068800	0.813600
O561	O56	0.945800	0.086600	0.757200
O571	O57	0.378700	0.013300	0.533300
O581	O58	0.563300	0.021100	0.556300
O591	O59	0.117700	0.975700	0.532300
O601	O60	0.933100	0.968200	0.554600
O611	O61	0.824400	0.939600	0.718700
O621	O62	0.637700	0.927100	0.695900
O631	O63	0.589800	0.982800	0.781900
O641	O64	0.767700	0.981900	0.806200
