data_MIJFIU_clean_PM
_symmetry_space_group_name_H-M	'P1'
_cell_length_a	17.221000
_cell_length_b	17.221000
_cell_length_c	40.964900
_cell_angle_alpha	90.000000
_cell_angle_beta	90.000000
_cell_angle_gamma	90.000000
_symmetry_Int_Tables_number 1

loop_
_symmetry_equiv_pos_as_xyz
'x,y,z'

loop_
_atom_site_label
_atom_site_type_symbol
_atom_site_fract_x
_atom_site_fract_y
_atom_site_fract_z
N11	N1	0.939100	0.810200	0.129710
C11	C1	0.861400	0.816200	0.130700
H11	H1	0.835200	0.791600	0.147700
C21	C2	0.818700	0.856200	0.108400
H21	H2	0.765000	0.858500	0.110400
C31	C3	0.855600	0.893500	0.082610
C41	C4	0.935500	0.890300	0.081800
H31	H3	0.962500	0.916900	0.065600
C51	C5	0.975900	0.848300	0.104860
H41	H4	0.029700	0.845700	0.103500
C61	C6	0.808200	0.939500	0.057500
H51	H5	0.780600	0.980600	0.068800
H61	H6	0.843700	0.963600	0.042200
C71	C7	0.750200	0.891500	0.038600
H71	H7	0.714800	0.866600	0.053700
H81	H8	0.777400	0.851100	0.026700
C81	C8	0.703900	0.940500	0.014700
H91	H9	0.671200	0.975900	0.026900
H101	H10	0.739700	0.971400	0.001800
N21	N2	0.563000	0.806400	0.948870
C91	C9	0.640900	0.804000	0.947700
H111	H11	0.664600	0.772700	0.932100
C101	C10	0.687300	0.846500	0.968900
H121	H12	0.741100	0.843000	0.967400
C111	C11	0.654000	0.893700	0.992100
C121	C12	0.573600	0.895100	0.993300
H131	H13	0.548500	0.926600	0.008500
C131	C13	0.530400	0.849600	0.972000
H141	H14	0.476600	0.849300	0.973900
N31	N3	0.439100	0.310200	0.629710
C141	C14	0.361400	0.316200	0.630700
H151	H15	0.335200	0.291600	0.647700
C151	C15	0.318700	0.356200	0.608400
H161	H16	0.265000	0.358500	0.610400
C161	C16	0.355600	0.393500	0.582610
C171	C17	0.435500	0.390300	0.581800
H171	H17	0.462500	0.416900	0.565600
C181	C18	0.475900	0.348300	0.604860
H181	H18	0.529700	0.345700	0.603500
C191	C19	0.308200	0.439500	0.557500
H191	H19	0.280600	0.480600	0.568800
H201	H20	0.343700	0.463600	0.542200
C201	C20	0.250200	0.391500	0.538600
H211	H21	0.214800	0.366600	0.553700
H221	H22	0.277400	0.351100	0.526700
C211	C21	0.203900	0.440500	0.514700
H231	H23	0.171200	0.475900	0.526900
H241	H24	0.239700	0.471400	0.501800
N41	N4	0.063000	0.306400	0.448870
C221	C22	0.140900	0.304000	0.447700
H251	H25	0.164600	0.272700	0.432100
C231	C23	0.187300	0.346500	0.468900
H261	H26	0.241100	0.343000	0.467400
C241	C24	0.154000	0.393700	0.492100
C251	C25	0.073600	0.395100	0.493300
H271	H27	0.048500	0.426600	0.508500
C261	C26	0.030400	0.349600	0.472000
H281	H28	0.976600	0.349300	0.473900
N51	N5	0.560900	0.189800	0.629710
C271	C27	0.638600	0.183800	0.630700
H291	H29	0.664800	0.208400	0.647700
C281	C28	0.681300	0.143800	0.608400
H301	H30	0.735000	0.141500	0.610400
C291	C29	0.644400	0.106500	0.582610
C301	C30	0.564500	0.109700	0.581800
H311	H31	0.537500	0.083100	0.565600
C311	C31	0.524100	0.151700	0.604860
H321	H32	0.470300	0.154300	0.603500
C321	C32	0.691800	0.060500	0.557500
H331	H33	0.719400	0.019400	0.568800
H341	H34	0.656300	0.036400	0.542200
C331	C33	0.749800	0.108500	0.538600
H351	H35	0.785200	0.133400	0.553700
H361	H36	0.722600	0.148900	0.526700
C341	C34	0.796100	0.059500	0.514700
H371	H37	0.828800	0.024100	0.526900
H381	H38	0.760300	0.028600	0.501800
N61	N6	0.937000	0.193600	0.448870
C351	C35	0.859100	0.196000	0.447700
H391	H39	0.835400	0.227300	0.432100
C361	C36	0.812700	0.153500	0.468900
H401	H40	0.758900	0.157000	0.467400
C371	C37	0.846000	0.106300	0.492100
C381	C38	0.926400	0.104900	0.493300
H411	H41	0.951500	0.073400	0.508500
C391	C39	0.969600	0.150400	0.472000
H421	H42	0.023400	0.150700	0.473900
N71	N7	0.060900	0.689800	0.129710
C401	C40	0.138600	0.683800	0.130700
H431	H43	0.164800	0.708400	0.147700
C411	C41	0.181300	0.643800	0.108400
H441	H44	0.235000	0.641500	0.110400
C421	C42	0.144400	0.606500	0.082610
C431	C43	0.064500	0.609700	0.081800
H451	H45	0.037500	0.583100	0.065600
C441	C44	0.024100	0.651700	0.104860
H461	H46	0.970300	0.654300	0.103500
C451	C45	0.191800	0.560500	0.057500
H471	H47	0.219400	0.519400	0.068800
H481	H48	0.156300	0.536400	0.042200
C461	C46	0.249800	0.608500	0.038600
H491	H49	0.285200	0.633400	0.053700
H501	H50	0.222600	0.648900	0.026700
C471	C47	0.296100	0.559500	0.014700
H511	H51	0.328800	0.524100	0.026900
H521	H52	0.260300	0.528600	0.001800
N81	N8	0.437000	0.693600	0.948870
C481	C48	0.359100	0.696000	0.947700
H531	H53	0.335400	0.727300	0.932100
C491	C49	0.312700	0.653500	0.968900
H541	H54	0.258900	0.657000	0.967400
C501	C50	0.346000	0.606300	0.992100
C511	C51	0.426400	0.604900	0.993300
H551	H55	0.451500	0.573400	0.008500
C521	C52	0.469600	0.650400	0.972000
H561	H56	0.523400	0.650700	0.973900
N91	N9	0.939800	0.189100	0.379710
C531	C53	0.933800	0.111400	0.380700
H571	H57	0.958400	0.085200	0.397700
C541	C54	0.893800	0.068700	0.358400
H581	H58	0.891500	0.015000	0.360400
C551	C55	0.856500	0.105600	0.332610
C561	C56	0.859700	0.185500	0.331800
H591	H59	0.833100	0.212500	0.315600
C571	C57	0.901700	0.225900	0.354860
H601	H60	0.904300	0.279700	0.353500
C581	C58	0.810500	0.058200	0.307500
H611	H61	0.769400	0.030600	0.318800
H621	H62	0.786400	0.093700	0.292200
C591	C59	0.858500	0.000200	0.288600
H631	H63	0.883400	0.964800	0.303700
H641	H64	0.898900	0.027400	0.276700
C601	C60	0.809500	0.953900	0.264700
H651	H65	0.774100	0.921200	0.276900
H661	H66	0.778600	0.989700	0.251800
N101	N10	0.943600	0.813000	0.198870
C611	C61	0.946000	0.890900	0.197700
H671	H67	0.977300	0.914600	0.182100
C621	C62	0.903500	0.937300	0.218900
H681	H68	0.907000	0.991100	0.217400
C631	C63	0.856300	0.904000	0.242100
C641	C64	0.854900	0.823600	0.243300
H691	H69	0.823400	0.798500	0.258500
C651	C65	0.900400	0.780400	0.222000
H701	H70	0.900700	0.726600	0.223900
N111	N11	0.439800	0.689100	0.879710
C661	C66	0.433800	0.611400	0.880700
H711	H71	0.458400	0.585200	0.897700
C671	C67	0.393800	0.568700	0.858400
H721	H72	0.391500	0.515000	0.860400
C681	C68	0.356500	0.605600	0.832610
C691	C69	0.359700	0.685500	0.831800
H731	H73	0.333100	0.712500	0.815600
C701	C70	0.401700	0.725900	0.854860
H741	H74	0.404300	0.779700	0.853500
C711	C71	0.310500	0.558200	0.807500
H751	H75	0.269400	0.530600	0.818800
H761	H76	0.286400	0.593700	0.792200
C721	C72	0.358500	0.500200	0.788600
H771	H77	0.383400	0.464800	0.803700
H781	H78	0.398900	0.527400	0.776700
C731	C73	0.309500	0.453900	0.764700
H791	H79	0.274100	0.421200	0.776900
H801	H80	0.278600	0.489700	0.751800
N121	N12	0.443600	0.313000	0.698870
C741	C74	0.446000	0.390900	0.697700
H811	H81	0.477300	0.414600	0.682100
C751	C75	0.403500	0.437300	0.718900
H821	H82	0.407000	0.491100	0.717400
C761	C76	0.356300	0.404000	0.742100
C771	C77	0.354900	0.323600	0.743300
H831	H83	0.323400	0.298500	0.758500
C781	C78	0.400400	0.280400	0.722000
H841	H84	0.400700	0.226600	0.723900
N131	N13	0.560200	0.810900	0.879710
C791	C79	0.566200	0.888600	0.880700
H851	H85	0.541600	0.914800	0.897700
C801	C80	0.606200	0.931300	0.858400
H861	H86	0.608500	0.985000	0.860400
C811	C81	0.643500	0.894400	0.832610
C821	C82	0.640300	0.814500	0.831800
H871	H87	0.666900	0.787500	0.815600
C831	C83	0.598300	0.774100	0.854860
H881	H88	0.595700	0.720300	0.853500
C841	C84	0.689500	0.941800	0.807500
H891	H89	0.730600	0.969400	0.818800
H901	H90	0.713600	0.906300	0.792200
C851	C85	0.641500	0.999800	0.788600
H911	H91	0.616600	0.035200	0.803700
H921	H92	0.601100	0.972600	0.776700
C861	C86	0.690500	0.046100	0.764700
H931	H93	0.725900	0.078800	0.776900
H941	H94	0.721400	0.010300	0.751800
N141	N14	0.556400	0.187000	0.698870
C871	C87	0.554000	0.109100	0.697700
H951	H95	0.522700	0.085400	0.682100
C881	C88	0.596500	0.062700	0.718900
H961	H96	0.593000	0.008900	0.717400
C891	C89	0.643700	0.096000	0.742100
C901	C90	0.645100	0.176400	0.743300
H971	H97	0.676600	0.201500	0.758500
C911	C91	0.599600	0.219600	0.722000
H981	H98	0.599300	0.273400	0.723900
N151	N15	0.060200	0.310900	0.379710
C921	C92	0.066200	0.388600	0.380700
H991	H99	0.041600	0.414800	0.397700
C931	C93	0.106200	0.431300	0.358400
H1001	H100	0.108500	0.485000	0.360400
C941	C94	0.143500	0.394400	0.332610
C951	C95	0.140300	0.314500	0.331800
H1011	H101	0.166900	0.287500	0.315600
C961	C96	0.098300	0.274100	0.354860
H1021	H102	0.095700	0.220300	0.353500
C971	C97	0.189500	0.441800	0.307500
H1031	H103	0.230600	0.469400	0.318800
H1041	H104	0.213600	0.406300	0.292200
C981	C98	0.141500	0.499800	0.288600
H1051	H105	0.116600	0.535200	0.303700
H1061	H106	0.101100	0.472600	0.276700
C991	C99	0.190500	0.546100	0.264700
H1071	H107	0.225900	0.578800	0.276900
H1081	H108	0.221400	0.510300	0.251800
N161	N16	0.056400	0.687000	0.198870
C1001	C100	0.054000	0.609100	0.197700
H1091	H109	0.022700	0.585400	0.182100
C1011	C101	0.096500	0.562700	0.218900
H1101	H110	0.093000	0.508900	0.217400
C1021	C102	0.143700	0.596000	0.242100
C1031	C103	0.145100	0.676400	0.243300
H1111	H111	0.176600	0.701500	0.258500
C1041	C104	0.099600	0.719600	0.222000
H1121	H112	0.099300	0.773400	0.223900
Cu11	Cu1	0.000000	0.750000	0.164120
Cu21	Cu2	0.500000	0.250000	0.664120
Cu31	Cu3	0.000000	0.250000	0.414120
Cu41	Cu4	0.500000	0.750000	0.914120
N171	N17	0.936900	0.308000	0.255610
C1051	C105	0.859400	0.311600	0.253790
H1131	H113	0.834700	0.283600	0.237400
C1061	C106	0.814200	0.354400	0.274860
H1141	H114	0.760500	0.355000	0.272400
C1071	C107	0.848600	0.396200	0.299580
C1081	C108	0.928600	0.392500	0.302220
H1151	H115	0.954100	0.419000	0.318900
C1091	C109	0.970400	0.348900	0.279780
H1161	H116	0.024200	0.347900	0.281600
C1101	C110	0.798900	0.443100	0.323000
H1171	H117	0.765100	0.477000	0.310500
H1181	H118	0.832300	0.475500	0.336300
C1111	C111	0.749100	0.391700	0.345400
H1191	H119	0.719800	0.355000	0.332300
H1201	H120	0.782500	0.362400	0.360000
C1121	C112	0.693800	0.441200	0.365230
H1211	H121	0.723400	0.481400	0.376200
H1221	H122	0.657800	0.466600	0.350500
N181	N18	0.562000	0.309100	0.435740
C1131	C113	0.640000	0.313500	0.437570
H1231	H123	0.665400	0.287100	0.454200
C1141	C114	0.683600	0.356200	0.415430
H1241	H124	0.737400	0.357800	0.417600
C1151	C115	0.648300	0.396400	0.390240
C1161	C116	0.567300	0.391200	0.388750
H1251	H125	0.540200	0.416500	0.372200
C1171	C117	0.527200	0.348200	0.411970
H1261	H126	0.473300	0.346600	0.410800
N191	N19	0.436900	0.808000	0.755610
C1181	C118	0.359400	0.811600	0.753790
H1271	H127	0.334700	0.783600	0.737400
C1191	C119	0.314200	0.854400	0.774860
H1281	H128	0.260500	0.855000	0.772400
C1201	C120	0.348600	0.896200	0.799580
C1211	C121	0.428600	0.892500	0.802220
H1291	H129	0.454100	0.919000	0.818900
C1221	C122	0.470400	0.848900	0.779780
H1301	H130	0.524200	0.847900	0.781600
C1231	C123	0.298900	0.943100	0.823000
H1311	H131	0.265100	0.977000	0.810500
H1321	H132	0.332300	0.975500	0.836300
C1241	C124	0.249100	0.891700	0.845400
H1331	H133	0.219800	0.855000	0.832300
H1341	H134	0.282500	0.862400	0.860000
C1251	C125	0.193800	0.941200	0.865230
H1351	H135	0.223400	0.981400	0.876200
H1361	H136	0.157800	0.966600	0.850500
N201	N20	0.062000	0.809100	0.935740
C1261	C126	0.140000	0.813500	0.937570
H1371	H137	0.165400	0.787100	0.954200
C1271	C127	0.183600	0.856200	0.915430
H1381	H138	0.237400	0.857800	0.917600
C1281	C128	0.148300	0.896400	0.890240
C1291	C129	0.067300	0.891200	0.888750
H1391	H139	0.040200	0.916500	0.872200
C1301	C130	0.027200	0.848200	0.911970
H1401	H140	0.973300	0.846600	0.910800
N211	N21	0.563100	0.692000	0.755610
C1311	C131	0.640600	0.688400	0.753790
H1411	H141	0.665300	0.716400	0.737400
C1321	C132	0.685800	0.645600	0.774860
H1421	H142	0.739500	0.645000	0.772400
C1331	C133	0.651400	0.603800	0.799580
C1341	C134	0.571400	0.607500	0.802220
H1431	H143	0.545900	0.581000	0.818900
C1351	C135	0.529600	0.651100	0.779780
H1441	H144	0.475800	0.652100	0.781600
C1361	C136	0.701100	0.556900	0.823000
H1451	H145	0.734900	0.523000	0.810500
H1461	H146	0.667700	0.524500	0.836300
C1371	C137	0.750900	0.608300	0.845400
H1471	H147	0.780200	0.645000	0.832300
H1481	H148	0.717500	0.637600	0.860000
C1381	C138	0.806200	0.558800	0.865230
H1491	H149	0.776600	0.518600	0.876200
H1501	H150	0.842200	0.533400	0.850500
N221	N22	0.938000	0.690900	0.935740
C1391	C139	0.860000	0.686500	0.937570
H1511	H151	0.834600	0.712900	0.954200
C1401	C140	0.816400	0.643800	0.915430
H1521	H152	0.762600	0.642200	0.917600
C1411	C141	0.851700	0.603600	0.890240
C1421	C142	0.932700	0.608800	0.888750
H1531	H153	0.959800	0.583500	0.872200
C1431	C143	0.972800	0.651800	0.911970
H1541	H154	0.026700	0.653400	0.910800
N231	N23	0.063100	0.192000	0.255610
C1441	C144	0.140600	0.188400	0.253790
H1551	H155	0.165300	0.216400	0.237400
C1451	C145	0.185800	0.145600	0.274860
H1561	H156	0.239500	0.145000	0.272400
C1461	C146	0.151400	0.103800	0.299580
C1471	C147	0.071400	0.107500	0.302220
H1571	H157	0.045900	0.081000	0.318900
C1481	C148	0.029600	0.151100	0.279780
H1581	H158	0.975800	0.152100	0.281600
C1491	C149	0.201100	0.056900	0.323000
H1591	H159	0.234900	0.023000	0.310500
H1601	H160	0.167700	0.024500	0.336300
C1501	C150	0.250900	0.108300	0.345400
H1611	H161	0.280200	0.145000	0.332300
H1621	H162	0.217500	0.137600	0.360000
C1511	C151	0.306200	0.058800	0.365230
H1631	H163	0.276600	0.018600	0.376200
H1641	H164	0.342200	0.033400	0.350500
N241	N24	0.438000	0.190900	0.435740
C1521	C152	0.360000	0.186500	0.437570
H1651	H165	0.334600	0.212900	0.454200
C1531	C153	0.316400	0.143800	0.415430
H1661	H166	0.262600	0.142200	0.417600
C1541	C154	0.351700	0.103600	0.390240
C1551	C155	0.432700	0.108800	0.388750
H1671	H167	0.459800	0.083500	0.372200
C1561	C156	0.472800	0.151800	0.411970
H1681	H168	0.526700	0.153400	0.410800
N251	N25	0.442000	0.186900	0.505610
C1571	C157	0.438400	0.109400	0.503790
H1691	H169	0.466400	0.084700	0.487400
C1581	C158	0.395600	0.064200	0.524860
H1701	H170	0.395000	0.010500	0.522400
C1591	C159	0.353800	0.098600	0.549580
C1601	C160	0.357500	0.178600	0.552220
H1711	H171	0.331000	0.204100	0.568900
C1611	C161	0.401100	0.220400	0.529780
H1721	H172	0.402100	0.274200	0.531600
C1621	C162	0.306900	0.048900	0.573000
H1731	H173	0.273000	0.015100	0.560500
H1741	H174	0.274500	0.082300	0.586300
C1631	C163	0.358300	0.999100	0.595400
H1751	H175	0.395000	0.969800	0.582300
H1761	H176	0.387600	0.032500	0.610000
C1641	C164	0.308800	0.943800	0.615230
H1771	H177	0.268600	0.973400	0.626200
H1781	H178	0.283400	0.907800	0.600500
N261	N26	0.440900	0.812000	0.685740
C1651	C165	0.436500	0.890000	0.687570
H1791	H179	0.462900	0.915400	0.704200
C1661	C166	0.393800	0.933600	0.665430
H1801	H180	0.392200	0.987400	0.667600
C1671	C167	0.353600	0.898300	0.640240
C1681	C168	0.358800	0.817300	0.638750
H1811	H181	0.333500	0.790200	0.622200
C1691	C169	0.401800	0.777200	0.661970
H1821	H182	0.403400	0.723300	0.660800
N271	N27	0.942000	0.686900	0.005610
C1701	C170	0.938400	0.609400	0.003790
H1831	H183	0.966400	0.584700	0.987400
C1711	C171	0.895600	0.564200	0.024860
H1841	H184	0.895000	0.510500	0.022400
C1721	C172	0.853800	0.598600	0.049580
C1731	C173	0.857500	0.678600	0.052220
H1851	H185	0.831000	0.704100	0.068900
C1741	C174	0.901100	0.720400	0.029780
H1861	H186	0.902100	0.774200	0.031600
C1751	C175	0.806900	0.548900	0.073000
H1871	H187	0.773000	0.515100	0.060500
H1881	H188	0.774500	0.582300	0.086300
C1761	C176	0.858300	0.499100	0.095400
H1891	H189	0.895000	0.469800	0.082300
H1901	H190	0.887600	0.532500	0.110000
C1771	C177	0.808800	0.443800	0.115230
H1911	H191	0.768600	0.473400	0.126200
H1921	H192	0.783400	0.407800	0.100500
N281	N28	0.940900	0.312000	0.185740
C1781	C178	0.936500	0.390000	0.187570
H1931	H193	0.962900	0.415400	0.204200
C1791	C179	0.893800	0.433600	0.165430
H1941	H194	0.892200	0.487400	0.167600
C1801	C180	0.853600	0.398300	0.140240
C1811	C181	0.858800	0.317300	0.138750
H1951	H195	0.833500	0.290200	0.122200
C1821	C182	0.901800	0.277200	0.161970
H1961	H196	0.903400	0.223300	0.160800
N291	N29	0.058000	0.813100	0.005610
C1831	C183	0.061600	0.890600	0.003790
H1971	H197	0.033600	0.915300	0.987400
C1841	C184	0.104400	0.935800	0.024860
H1981	H198	0.105000	0.989500	0.022400
C1851	C185	0.146200	0.901400	0.049580
C1861	C186	0.142500	0.821400	0.052220
H1991	H199	0.169000	0.795900	0.068900
C1871	C187	0.098900	0.779600	0.029780
H2001	H200	0.097900	0.725800	0.031600
C1881	C188	0.193100	0.951100	0.073000
H2011	H201	0.227000	0.984900	0.060500
H2021	H202	0.225500	0.917700	0.086300
C1891	C189	0.141700	0.000900	0.095400
H2031	H203	0.105000	0.030200	0.082300
H2041	H204	0.112400	0.967500	0.110000
C1901	C190	0.191200	0.056200	0.115230
H2051	H205	0.231400	0.026600	0.126200
H2061	H206	0.216600	0.092200	0.100500
N301	N30	0.059100	0.188000	0.185740
C1911	C191	0.063500	0.110000	0.187570
H2071	H207	0.037100	0.084600	0.204200
C1921	C192	0.106200	0.066400	0.165430
H2081	H208	0.107800	0.012600	0.167600
C1931	C193	0.146400	0.101700	0.140240
C1941	C194	0.141200	0.182700	0.138750
H2091	H209	0.166500	0.209800	0.122200
C1951	C195	0.098200	0.222800	0.161970
H2101	H210	0.096600	0.276700	0.160800
N311	N31	0.558000	0.313100	0.505610
C1961	C196	0.561600	0.390600	0.503790
H2111	H211	0.533600	0.415300	0.487400
C1971	C197	0.604400	0.435800	0.524860
H2121	H212	0.605000	0.489500	0.522400
C1981	C198	0.646200	0.401400	0.549580
C1991	C199	0.642500	0.321400	0.552220
H2131	H213	0.669000	0.295900	0.568900
C2001	C200	0.598900	0.279600	0.529780
H2141	H214	0.597900	0.225800	0.531600
C2011	C201	0.693100	0.451100	0.573000
H2151	H215	0.727000	0.484900	0.560500
H2161	H216	0.725500	0.417700	0.586300
C2021	C202	0.641700	0.500900	0.595400
H2171	H217	0.605000	0.530200	0.582300
H2181	H218	0.612400	0.467500	0.610000
C2031	C203	0.691200	0.556200	0.615230
H2191	H219	0.731400	0.526600	0.626200
H2201	H220	0.716600	0.592200	0.600500
N321	N32	0.559100	0.688000	0.685740
C2041	C204	0.563500	0.610000	0.687570
H2211	H221	0.537100	0.584600	0.704200
C2051	C205	0.606200	0.566400	0.665430
H2221	H222	0.607800	0.512600	0.667600
C2061	C206	0.646400	0.601700	0.640240
C2071	C207	0.641200	0.682700	0.638750
H2231	H223	0.666500	0.709800	0.622200
C2081	C208	0.598200	0.722800	0.661970
H2241	H224	0.596600	0.776700	0.660800
Cu51	Cu5	0.000000	0.250000	0.221140
Cu61	Cu6	0.500000	0.750000	0.721140
Cu71	Cu7	0.500000	0.250000	0.471140
Cu81	Cu8	0.000000	0.750000	0.971140
N331	N33	0.060900	0.189800	0.870290
C2091	C209	0.138600	0.183800	0.869300
H2251	H225	0.164800	0.208400	0.852300
C2101	C210	0.181300	0.143800	0.891600
H2261	H226	0.235000	0.141500	0.889600
C2111	C211	0.144400	0.106500	0.917390
C2121	C212	0.064500	0.109700	0.918200
H2271	H227	0.037500	0.083100	0.934400
C2131	C213	0.024100	0.151700	0.895140
H2281	H228	0.970300	0.154300	0.896500
C2141	C214	0.191800	0.060500	0.942500
H2291	H229	0.219400	0.019400	0.931200
H2301	H230	0.156300	0.036400	0.957800
C2151	C215	0.249800	0.108500	0.961400
H2311	H231	0.285200	0.133400	0.946300
H2321	H232	0.222600	0.148900	0.973300
C2161	C216	0.296100	0.059500	0.985300
H2331	H233	0.328800	0.024100	0.973100
H2341	H234	0.260300	0.028600	0.998200
N341	N34	0.437000	0.193600	0.051130
C2171	C217	0.359100	0.196000	0.052300
H2351	H235	0.335400	0.227300	0.067900
C2181	C218	0.312700	0.153500	0.031100
H2361	H236	0.258900	0.157000	0.032600
C2191	C219	0.346000	0.106300	0.007900
C2201	C220	0.426400	0.104900	0.006700
H2371	H237	0.451500	0.073400	0.991500
C2211	C221	0.469600	0.150400	0.028000
H2381	H238	0.523400	0.150700	0.026100
N351	N35	0.560900	0.689800	0.370290
C2221	C222	0.638600	0.683800	0.369300
H2391	H239	0.664800	0.708400	0.352300
C2231	C223	0.681300	0.643800	0.391600
H2401	H240	0.735000	0.641500	0.389600
C2241	C224	0.644400	0.606500	0.417390
C2251	C225	0.564500	0.609700	0.418200
H2411	H241	0.537500	0.583100	0.434400
C2261	C226	0.524100	0.651700	0.395140
H2421	H242	0.470300	0.654300	0.396500
C2271	C227	0.691800	0.560500	0.442500
H2431	H243	0.719400	0.519400	0.431200
H2441	H244	0.656300	0.536400	0.457800
C2281	C228	0.749800	0.608500	0.461400
H2451	H245	0.785200	0.633400	0.446300
H2461	H246	0.722600	0.648900	0.473300
C2291	C229	0.796100	0.559500	0.485300
H2471	H247	0.828800	0.524100	0.473100
H2481	H248	0.760300	0.528600	0.498200
N361	N36	0.937000	0.693600	0.551130
C2301	C230	0.859100	0.696000	0.552300
H2491	H249	0.835400	0.727300	0.567900
C2311	C231	0.812700	0.653500	0.531100
H2501	H250	0.758900	0.657000	0.532600
C2321	C232	0.846000	0.606300	0.507900
C2331	C233	0.926400	0.604900	0.506700
H2511	H251	0.951500	0.573400	0.491500
C2341	C234	0.969600	0.650400	0.528000
H2521	H252	0.023400	0.650700	0.526100
N371	N37	0.439100	0.810200	0.370290
C2351	C235	0.361400	0.816200	0.369300
H2531	H253	0.335200	0.791600	0.352300
C2361	C236	0.318700	0.856200	0.391600
H2541	H254	0.265000	0.858500	0.389600
C2371	C237	0.355600	0.893500	0.417390
C2381	C238	0.435500	0.890300	0.418200
H2551	H255	0.462500	0.916900	0.434400
C2391	C239	0.475900	0.848300	0.395140
H2561	H256	0.529700	0.845700	0.396500
C2401	C240	0.308200	0.939500	0.442500
H2571	H257	0.280600	0.980600	0.431200
H2581	H258	0.343700	0.963600	0.457800
C2411	C241	0.250200	0.891500	0.461400
H2591	H259	0.214800	0.866600	0.446300
H2601	H260	0.277400	0.851100	0.473300
C2421	C242	0.203900	0.940500	0.485300
H2611	H261	0.171200	0.975900	0.473100
H2621	H262	0.239700	0.971400	0.498200
N381	N38	0.063000	0.806400	0.551130
C2431	C243	0.140900	0.804000	0.552300
H2631	H263	0.164600	0.772700	0.567900
C2441	C244	0.187300	0.846500	0.531100
H2641	H264	0.241100	0.843000	0.532600
C2451	C245	0.154000	0.893700	0.507900
C2461	C246	0.073600	0.895100	0.506700
H2651	H265	0.048500	0.926600	0.491500
C2471	C247	0.030400	0.849600	0.528000
H2661	H266	0.976600	0.849300	0.526100
N391	N39	0.939100	0.310200	0.870290
C2481	C248	0.861400	0.316200	0.869300
H2671	H267	0.835200	0.291600	0.852300
C2491	C249	0.818700	0.356200	0.891600
H2681	H268	0.765000	0.358500	0.889600
C2501	C250	0.855600	0.393500	0.917390
C2511	C251	0.935500	0.390300	0.918200
H2691	H269	0.962500	0.416900	0.934400
C2521	C252	0.975900	0.348300	0.895140
H2701	H270	0.029700	0.345700	0.896500
C2531	C253	0.808200	0.439500	0.942500
H2711	H271	0.780600	0.480600	0.931200
H2721	H272	0.843700	0.463600	0.957800
C2541	C254	0.750200	0.391500	0.961400
H2731	H273	0.714800	0.366600	0.946300
H2741	H274	0.777400	0.351100	0.973300
C2551	C255	0.703900	0.440500	0.985300
H2751	H275	0.671200	0.475900	0.973100
H2761	H276	0.739700	0.471400	0.998200
N401	N40	0.563000	0.306400	0.051130
C2561	C256	0.640900	0.304000	0.052300
H2771	H277	0.664600	0.272700	0.067900
C2571	C257	0.687300	0.346500	0.031100
H2781	H278	0.741100	0.343000	0.032600
C2581	C258	0.654000	0.393700	0.007900
C2591	C259	0.573600	0.395100	0.006700
H2791	H279	0.548500	0.426600	0.991500
C2601	C260	0.530400	0.349600	0.028000
H2801	H280	0.476600	0.349300	0.026100
N411	N41	0.060200	0.810900	0.620290
C2611	C261	0.066200	0.888600	0.619300
H2811	H281	0.041600	0.914800	0.602300
C2621	C262	0.106200	0.931300	0.641600
H2821	H282	0.108500	0.985000	0.639600
C2631	C263	0.143500	0.894400	0.667390
C2641	C264	0.140300	0.814500	0.668200
H2831	H283	0.166900	0.787500	0.684400
C2651	C265	0.098300	0.774100	0.645140
H2841	H284	0.095700	0.720300	0.646500
C2661	C266	0.189500	0.941800	0.692500
H2851	H285	0.230600	0.969400	0.681200
H2861	H286	0.213600	0.906300	0.707800
C2671	C267	0.141500	0.999800	0.711400
H2871	H287	0.116600	0.035200	0.696300
H2881	H288	0.101100	0.972600	0.723300
C2681	C268	0.190500	0.046100	0.735300
H2891	H289	0.225900	0.078800	0.723100
H2901	H290	0.221400	0.010300	0.748200
N421	N42	0.056400	0.187000	0.801130
C2691	C269	0.054000	0.109100	0.802300
H2911	H291	0.022700	0.085400	0.817900
C2701	C270	0.096500	0.062700	0.781100
H2921	H292	0.093000	0.008900	0.782600
C2711	C271	0.143700	0.096000	0.757900
C2721	C272	0.145100	0.176400	0.756700
H2931	H293	0.176600	0.201500	0.741500
C2731	C273	0.099600	0.219600	0.778000
H2941	H294	0.099300	0.273400	0.776100
N431	N43	0.560200	0.310900	0.120290
C2741	C274	0.566200	0.388600	0.119300
H2951	H295	0.541600	0.414800	0.102300
C2751	C275	0.606200	0.431300	0.141600
H2961	H296	0.608500	0.485000	0.139600
C2761	C276	0.643500	0.394400	0.167390
C2771	C277	0.640300	0.314500	0.168200
H2971	H297	0.666900	0.287500	0.184400
C2781	C278	0.598300	0.274100	0.145140
H2981	H298	0.595700	0.220300	0.146500
C2791	C279	0.689500	0.441800	0.192500
H2991	H299	0.730600	0.469400	0.181200
H3001	H300	0.713600	0.406300	0.207800
C2801	C280	0.641500	0.499800	0.211400
H3011	H301	0.616600	0.535200	0.196300
H3021	H302	0.601100	0.472600	0.223300
C2811	C281	0.690500	0.546100	0.235300
H3031	H303	0.725900	0.578800	0.223100
H3041	H304	0.721400	0.510300	0.248200
N441	N44	0.556400	0.687000	0.301130
C2821	C282	0.554000	0.609100	0.302300
H3051	H305	0.522700	0.585400	0.317900
C2831	C283	0.596500	0.562700	0.281100
H3061	H306	0.593000	0.508900	0.282600
C2841	C284	0.643700	0.596000	0.257900
C2851	C285	0.645100	0.676400	0.256700
H3071	H307	0.676600	0.701500	0.241500
C2861	C286	0.599600	0.719600	0.278000
H3081	H308	0.599300	0.773400	0.276100
N451	N45	0.439800	0.189100	0.120290
C2871	C287	0.433800	0.111400	0.119300
H3091	H309	0.458400	0.085200	0.102300
C2881	C288	0.393800	0.068700	0.141600
H3101	H310	0.391500	0.015000	0.139600
C2891	C289	0.356500	0.105600	0.167390
C2901	C290	0.359700	0.185500	0.168200
H3111	H311	0.333100	0.212500	0.184400
C2911	C291	0.401700	0.225900	0.145140
H3121	H312	0.404300	0.279700	0.146500
C2921	C292	0.310500	0.058200	0.192500
H3131	H313	0.269400	0.030600	0.181200
H3141	H314	0.286400	0.093700	0.207800
C2931	C293	0.358500	0.000200	0.211400
H3151	H315	0.383400	0.964800	0.196300
H3161	H316	0.398900	0.027400	0.223300
C2941	C294	0.309500	0.953900	0.235300
H3171	H317	0.274100	0.921200	0.223100
H3181	H318	0.278600	0.989700	0.248200
N461	N46	0.443600	0.813000	0.301130
C2951	C295	0.446000	0.890900	0.302300
H3191	H319	0.477300	0.914600	0.317900
C2961	C296	0.403500	0.937300	0.281100
H3201	H320	0.407000	0.991100	0.282600
C2971	C297	0.356300	0.904000	0.257900
C2981	C298	0.354900	0.823600	0.256700
H3211	H321	0.323400	0.798500	0.241500
C2991	C299	0.400400	0.780400	0.278000
H3221	H322	0.400700	0.726600	0.276100
N471	N47	0.939800	0.689100	0.620290
C3001	C300	0.933800	0.611400	0.619300
H3231	H323	0.958400	0.585200	0.602300
C3011	C301	0.893800	0.568700	0.641600
H3241	H324	0.891500	0.515000	0.639600
C3021	C302	0.856500	0.605600	0.667390
C3031	C303	0.859700	0.685500	0.668200
H3251	H325	0.833100	0.712500	0.684400
C3041	C304	0.901700	0.725900	0.645140
H3261	H326	0.904300	0.779700	0.646500
C3051	C305	0.810500	0.558200	0.692500
H3271	H327	0.769400	0.530600	0.681200
H3281	H328	0.786400	0.593700	0.707800
C3061	C306	0.858500	0.500200	0.711400
H3291	H329	0.883400	0.464800	0.696300
H3301	H330	0.898900	0.527400	0.723300
C3071	C307	0.809500	0.453900	0.735300
H3311	H331	0.774100	0.421200	0.723100
H3321	H332	0.778600	0.489700	0.748200
N481	N48	0.943600	0.313000	0.801130
C3081	C308	0.946000	0.390900	0.802300
H3331	H333	0.977300	0.414600	0.817900
C3091	C309	0.903500	0.437300	0.781100
H3341	H334	0.907000	0.491100	0.782600
C3101	C310	0.856300	0.404000	0.757900
C3111	C311	0.854900	0.323600	0.756700
H3351	H335	0.823400	0.298500	0.741500
C3121	C312	0.900400	0.280400	0.778000
H3361	H336	0.900700	0.226600	0.776100
Cu91	Cu9	0.000000	0.250000	0.835880
Cu101	Cu10	0.500000	0.750000	0.335880
Cu111	Cu11	0.000000	0.750000	0.585880
Cu121	Cu12	0.500000	0.250000	0.085880
N491	N49	0.063100	0.692000	0.744390
C3131	C313	0.140600	0.688400	0.746210
H3371	H337	0.165300	0.716400	0.762600
C3141	C314	0.185800	0.645600	0.725140
H3381	H338	0.239500	0.645000	0.727600
C3151	C315	0.151400	0.603800	0.700420
C3161	C316	0.071400	0.607500	0.697780
H3391	H339	0.045900	0.581000	0.681100
C3171	C317	0.029600	0.651100	0.720220
H3401	H340	0.975800	0.652100	0.718400
C3181	C318	0.201100	0.556900	0.677000
H3411	H341	0.234900	0.523000	0.689500
H3421	H342	0.167700	0.524500	0.663700
C3191	C319	0.250900	0.608300	0.654600
H3431	H343	0.280200	0.645000	0.667700
H3441	H344	0.217500	0.637600	0.640000
C3201	C320	0.306200	0.558800	0.634770
H3451	H345	0.276600	0.518600	0.623800
H3461	H346	0.342200	0.533400	0.649500
N501	N50	0.438000	0.690900	0.564260
C3211	C321	0.360000	0.686500	0.562430
H3471	H347	0.334600	0.712900	0.545800
C3221	C322	0.316400	0.643800	0.584570
H3481	H348	0.262600	0.642200	0.582400
C3231	C323	0.351700	0.603600	0.609760
C3241	C324	0.432700	0.608800	0.611250
H3491	H349	0.459800	0.583500	0.627800
C3251	C325	0.472800	0.651800	0.588030
H3501	H350	0.526700	0.653400	0.589200
N511	N51	0.563100	0.192000	0.244390
C3261	C326	0.640600	0.188400	0.246210
H3511	H351	0.665300	0.216400	0.262600
C3271	C327	0.685800	0.145600	0.225140
H3521	H352	0.739500	0.145000	0.227600
C3281	C328	0.651400	0.103800	0.200420
C3291	C329	0.571400	0.107500	0.197780
H3531	H353	0.545900	0.081000	0.181100
C3301	C330	0.529600	0.151100	0.220220
H3541	H354	0.475800	0.152100	0.218400
C3311	C331	0.701100	0.056900	0.177000
H3551	H355	0.734900	0.023000	0.189500
H3561	H356	0.667700	0.024500	0.163700
C3321	C332	0.750900	0.108300	0.154600
H3571	H357	0.780200	0.145000	0.167700
H3581	H358	0.717500	0.137600	0.140000
C3331	C333	0.806200	0.058800	0.134770
H3591	H359	0.776600	0.018600	0.123800
H3601	H360	0.842200	0.033400	0.149500
N521	N52	0.938000	0.190900	0.064260
C3341	C334	0.860000	0.186500	0.062430
H3611	H361	0.834600	0.212900	0.045800
C3351	C335	0.816400	0.143800	0.084570
H3621	H362	0.762600	0.142200	0.082400
C3361	C336	0.851700	0.103600	0.109760
C3371	C337	0.932700	0.108800	0.111250
H3631	H363	0.959800	0.083500	0.127800
C3381	C338	0.972800	0.151800	0.088030
H3641	H364	0.026700	0.153400	0.089200
N531	N53	0.436900	0.308000	0.244390
C3391	C339	0.359400	0.311600	0.246210
H3651	H365	0.334700	0.283600	0.262600
C3401	C340	0.314200	0.354400	0.225140
H3661	H366	0.260500	0.355000	0.227600
C3411	C341	0.348600	0.396200	0.200420
C3421	C342	0.428600	0.392500	0.197780
H3671	H367	0.454100	0.419000	0.181100
C3431	C343	0.470400	0.348900	0.220220
H3681	H368	0.524200	0.347900	0.218400
C3441	C344	0.298900	0.443100	0.177000
H3691	H369	0.265100	0.477000	0.189500
H3701	H370	0.332300	0.475500	0.163700
C3451	C345	0.249100	0.391700	0.154600
H3711	H371	0.219800	0.355000	0.167700
H3721	H372	0.282500	0.362400	0.140000
C3461	C346	0.193800	0.441200	0.134770
H3731	H373	0.223400	0.481400	0.123800
H3741	H374	0.157800	0.466600	0.149500
N541	N54	0.062000	0.309100	0.064260
C3471	C347	0.140000	0.313500	0.062430
H3751	H375	0.165400	0.287100	0.045800
C3481	C348	0.183600	0.356200	0.084570
H3761	H376	0.237400	0.357800	0.082400
C3491	C349	0.148300	0.396400	0.109760
C3501	C350	0.067300	0.391200	0.111250
H3771	H377	0.040200	0.416500	0.127800
C3511	C351	0.027200	0.348200	0.088030
H3781	H378	0.973300	0.346600	0.089200
N551	N55	0.936900	0.808000	0.744390
C3521	C352	0.859400	0.811600	0.746210
H3791	H379	0.834700	0.783600	0.762600
C3531	C353	0.814200	0.854400	0.725140
H3801	H380	0.760500	0.855000	0.727600
C3541	C354	0.848600	0.896200	0.700420
C3551	C355	0.928600	0.892500	0.697780
H3811	H381	0.954100	0.919000	0.681100
C3561	C356	0.970400	0.848900	0.720220
H3821	H382	0.024200	0.847900	0.718400
C3571	C357	0.798900	0.943100	0.677000
H3831	H383	0.765100	0.977000	0.689500
H3841	H384	0.832300	0.975500	0.663700
C3581	C358	0.749100	0.891700	0.654600
H3851	H385	0.719800	0.855000	0.667700
H3861	H386	0.782500	0.862400	0.640000
C3591	C359	0.693800	0.941200	0.634770
H3871	H387	0.723400	0.981400	0.623800
H3881	H388	0.657800	0.966600	0.649500
N561	N56	0.562000	0.809100	0.564260
C3601	C360	0.640000	0.813500	0.562430
H3891	H389	0.665400	0.787100	0.545800
C3611	C361	0.683600	0.856200	0.584570
H3901	H390	0.737400	0.857800	0.582400
C3621	C362	0.648300	0.896400	0.609760
C3631	C363	0.567300	0.891200	0.611250
H3911	H391	0.540200	0.916500	0.627800
C3641	C364	0.527200	0.848200	0.588030
H3921	H392	0.473300	0.846600	0.589200
N571	N57	0.558000	0.813100	0.494390
C3651	C365	0.561600	0.890600	0.496210
H3931	H393	0.533600	0.915300	0.512600
C3661	C366	0.604400	0.935800	0.475140
H3941	H394	0.605000	0.989500	0.477600
C3671	C367	0.646200	0.901400	0.450420
C3681	C368	0.642500	0.821400	0.447780
H3951	H395	0.669000	0.795900	0.431100
C3691	C369	0.598900	0.779600	0.470220
H3961	H396	0.597900	0.725800	0.468400
C3701	C370	0.693100	0.951100	0.427000
H3971	H397	0.727000	0.984900	0.439500
H3981	H398	0.725500	0.917700	0.413700
C3711	C371	0.641700	0.000900	0.404600
H3991	H399	0.605000	0.030200	0.417700
H4001	H400	0.612400	0.967500	0.390000
C3721	C372	0.691200	0.056200	0.384770
H4011	H401	0.731400	0.026600	0.373800
H4021	H402	0.716600	0.092200	0.399500
N581	N58	0.559100	0.188000	0.314260
C3731	C373	0.563500	0.110000	0.312430
H4031	H403	0.537100	0.084600	0.295800
C3741	C374	0.606200	0.066400	0.334570
H4041	H404	0.607800	0.012600	0.332400
C3751	C375	0.646400	0.101700	0.359760
C3761	C376	0.641200	0.182700	0.361250
H4051	H405	0.666500	0.209800	0.377800
C3771	C377	0.598200	0.222800	0.338030
H4061	H406	0.596600	0.276700	0.339200
N591	N59	0.058000	0.313100	0.994390
C3781	C378	0.061600	0.390600	0.996210
H4071	H407	0.033600	0.415300	0.012600
C3791	C379	0.104400	0.435800	0.975140
H4081	H408	0.105000	0.489500	0.977600
C3801	C380	0.146200	0.401400	0.950420
C3811	C381	0.142500	0.321400	0.947780
H4091	H409	0.169000	0.295900	0.931100
C3821	C382	0.098900	0.279600	0.970220
H4101	H410	0.097900	0.225800	0.968400
C3831	C383	0.193100	0.451100	0.927000
H4111	H411	0.227000	0.484900	0.939500
H4121	H412	0.225500	0.417700	0.913700
C3841	C384	0.141700	0.500900	0.904600
H4131	H413	0.105000	0.530200	0.917700
H4141	H414	0.112400	0.467500	0.890000
C3851	C385	0.191200	0.556200	0.884770
H4151	H415	0.231400	0.526600	0.873800
H4161	H416	0.216600	0.592200	0.899500
N601	N60	0.059100	0.688000	0.814260
C3861	C386	0.063500	0.610000	0.812430
H4171	H417	0.037100	0.584600	0.795800
C3871	C387	0.106200	0.566400	0.834570
H4181	H418	0.107800	0.512600	0.832400
C3881	C388	0.146400	0.601700	0.859760
C3891	C389	0.141200	0.682700	0.861250
H4191	H419	0.166500	0.709800	0.877800
C3901	C390	0.098200	0.722800	0.838030
H4201	H420	0.096600	0.776700	0.839200
N611	N61	0.942000	0.186900	0.994390
C3911	C391	0.938400	0.109400	0.996210
H4211	H421	0.966400	0.084700	0.012600
C3921	C392	0.895600	0.064200	0.975140
H4221	H422	0.895000	0.010500	0.977600
C3931	C393	0.853800	0.098600	0.950420
C3941	C394	0.857500	0.178600	0.947780
H4231	H423	0.831000	0.204100	0.931100
C3951	C395	0.901100	0.220400	0.970220
H4241	H424	0.902100	0.274200	0.968400
C3961	C396	0.806900	0.048900	0.927000
H4251	H425	0.773000	0.015100	0.939500
H4261	H426	0.774500	0.082300	0.913700
C3971	C397	0.858300	0.999100	0.904600
H4271	H427	0.895000	0.969800	0.917700
H4281	H428	0.887600	0.032500	0.890000
C3981	C398	0.808800	0.943800	0.884770
H4291	H429	0.768600	0.973400	0.873800
H4301	H430	0.783400	0.907800	0.899500
N621	N62	0.940900	0.812000	0.814260
C3991	C399	0.936500	0.890000	0.812430
H4311	H431	0.962900	0.915400	0.795800
C4001	C400	0.893800	0.933600	0.834570
H4321	H432	0.892200	0.987400	0.832400
C4011	C401	0.853600	0.898300	0.859760
C4021	C402	0.858800	0.817300	0.861250
H4331	H433	0.833500	0.790200	0.877800
C4031	C403	0.901800	0.777200	0.838030
H4341	H434	0.903400	0.723300	0.839200
N631	N63	0.442000	0.686900	0.494390
C4041	C404	0.438400	0.609400	0.496210
H4351	H435	0.466400	0.584700	0.512600
C4051	C405	0.395600	0.564200	0.475140
H4361	H436	0.395000	0.510500	0.477600
C4061	C406	0.353800	0.598600	0.450420
C4071	C407	0.357500	0.678600	0.447780
H4371	H437	0.331000	0.704100	0.431100
C4081	C408	0.401100	0.720400	0.470220
H4381	H438	0.402100	0.774200	0.468400
C4091	C409	0.306900	0.548900	0.427000
H4391	H439	0.273000	0.515100	0.439500
H4401	H440	0.274500	0.582300	0.413700
C4101	C410	0.358300	0.499100	0.404600
H4411	H441	0.395000	0.469800	0.417700
H4421	H442	0.387600	0.532500	0.390000
C4111	C411	0.308800	0.443800	0.384770
H4431	H443	0.268600	0.473400	0.373800
H4441	H444	0.283400	0.407800	0.399500
N641	N64	0.440900	0.312000	0.314260
C4121	C412	0.436500	0.390000	0.312430
H4451	H445	0.462900	0.415400	0.295800
C4131	C413	0.393800	0.433600	0.334570
H4461	H446	0.392200	0.487400	0.332400
C4141	C414	0.353600	0.398300	0.359760
C4151	C415	0.358800	0.317300	0.361250
H4471	H447	0.333500	0.290200	0.377800
C4161	C416	0.401800	0.277200	0.338030
H4481	H448	0.403400	0.223300	0.339200
Cu131	Cu13	0.000000	0.750000	0.778860
Cu141	Cu14	0.500000	0.250000	0.278860
Cu151	Cu15	0.500000	0.750000	0.528860
Cu161	Cu16	0.000000	0.250000	0.028860
