data_MILROQ_clean_PM
_symmetry_space_group_name_H-M	'P1'
_cell_length_a	27.201000
_cell_length_b	39.705000
_cell_length_c	39.705000
_cell_angle_alpha	90.000000
_cell_angle_beta	90.000000
_cell_angle_gamma	90.000000
_symmetry_Int_Tables_number 1

loop_
_symmetry_equiv_pos_as_xyz
'x,y,z'

loop_
_atom_site_label
_atom_site_type_symbol
_atom_site_fract_x
_atom_site_fract_y
_atom_site_fract_z
Cu11	Cu1	0.031440	0.440710	0.015730
Cu21	Cu2	0.574170	0.988290	0.509630
Cu31	Cu3	0.822700	0.079820	0.750000
Cu41	Cu4	0.605110	0.439200	0.012890
Cu51	Cu5	0.031440	0.440710	0.484270
Cu61	Cu6	0.531440	0.484270	0.059290
Cu71	Cu7	0.531440	0.015730	0.440710
Cu81	Cu8	0.574170	0.511710	0.990370
Cu91	Cu9	0.574170	0.988290	0.990370
Cu101	Cu10	0.605110	0.439200	0.487110
Cu111	Cu11	0.827660	0.012770	0.750000
Cu121	Cu12	0.822700	0.420180	0.750000
Cu131	Cu13	0.105110	0.012890	0.439200
Cu141	Cu14	0.105110	0.012890	0.060800
Cu151	Cu15	0.327660	0.750000	0.012770
Cu161	Cu16	0.605110	0.060800	0.012890
Cu171	Cu17	0.105110	0.487110	0.060800
Cu181	Cu18	0.120830	0.250000	0.250000
Cu191	Cu19	0.531440	0.484270	0.440710
Cu201	Cu20	0.605110	0.060800	0.487110
Cu211	Cu21	0.523580	0.250000	0.250000
Cu221	Cu22	0.074170	0.509630	0.511710
Cu231	Cu23	0.023580	0.250000	0.250000
Cu241	Cu24	0.074170	0.990370	0.988290
Cu251	Cu25	0.620830	0.250000	0.250000
Cu261	Cu26	0.531440	0.015730	0.059290
Cu271	Cu27	0.031440	0.059290	0.015730
Cu281	Cu28	0.322700	0.750000	0.079820
Cu291	Cu29	0.574170	0.511710	0.509630
Cu301	Cu30	0.827660	0.487230	0.750000
Cu311	Cu31	0.074170	0.990370	0.511710
Cu321	Cu32	0.105110	0.487110	0.439200
Cu331	Cu33	0.322700	0.750000	0.420180
Cu341	Cu34	0.074170	0.509630	0.988290
Cu351	Cu35	0.327660	0.750000	0.487230
Cu361	Cu36	0.031440	0.059290	0.484270
H11	H1	0.666300	0.377900	0.432800
H21	H2	0.702700	0.404300	0.565600
H31	H3	0.467500	0.881800	0.405900
H41	H4	0.508100	0.038700	0.129400
H51	H5	0.751300	0.509900	0.661500
H61	H6	0.655100	0.540700	0.920300
H71	H7	0.427600	0.669500	0.099700
H81	H8	0.119300	0.606900	0.523900
H91	H9	0.425800	0.671600	0.501800
H101	H10	0.166300	0.432800	0.377900
H111	H11	0.751300	0.990100	0.838500
H121	H12	0.951100	0.092600	0.527200
H131	H13	0.458900	0.881800	0.993000
H141	H14	0.993900	0.111200	0.952400
H151	H15	0.469000	0.065900	0.116500
H161	H16	0.702700	0.095700	0.934400
H171	H17	0.845000	0.893600	0.801000
H181	H18	0.845000	0.893600	0.699000
H191	H19	0.684100	0.098500	0.527500
H201	H20	0.634900	0.374600	0.466800
H211	H21	0.496100	0.366500	0.365700
H221	H22	0.644500	0.363200	0.128600
H231	H23	0.925800	0.501800	0.828400
H241	H24	0.562900	0.889100	0.987900
H251	H25	0.996100	0.134300	0.133500
H261	H26	0.498100	0.175800	0.324700
H271	H27	0.702700	0.095700	0.565600
H281	H28	0.458900	0.618200	0.993000
H291	H29	0.710400	0.411100	0.831700
H301	H30	0.504700	0.074800	0.352700
H311	H31	0.625400	0.349100	0.436300
H321	H32	0.166300	0.067200	0.377900
H331	H33	0.951100	0.092600	0.972800
H341	H34	0.451100	0.527200	0.407400
H351	H35	0.446100	0.933000	0.098000
H361	H36	0.662200	0.082900	0.881000
H371	H37	0.562900	0.610900	0.987900
H381	H38	0.145800	0.327000	0.176000
H391	H39	0.425800	0.828400	0.501800
H401	H40	0.946100	0.402000	0.933000
H411	H41	0.064300	0.534100	0.922900
H421	H42	0.645800	0.176000	0.327000
H431	H43	0.184100	0.527500	0.098500
H441	H44	0.834200	0.952100	0.801000
H451	H45	0.958900	0.993000	0.881800
H461	H46	0.446100	0.567000	0.402000
H471	H47	0.710400	0.411100	0.668300
H481	H48	0.119300	0.893100	0.976100
H491	H49	0.969000	0.383500	0.434100
H501	H50	0.597400	0.961700	0.927700
H511	H51	0.251300	0.661500	0.509900
H521	H52	0.925800	0.998200	0.828400
H531	H53	0.144500	0.371400	0.363200
H541	H54	0.145800	0.173000	0.324000
H551	H55	0.345000	0.699000	0.893600
H561	H56	0.202700	0.565600	0.404300
H571	H57	0.097400	0.927700	0.961700
H581	H58	0.004700	0.147300	0.074800
H591	H59	0.498100	0.175800	0.175300
H601	H60	0.202700	0.565600	0.095700
H611	H61	0.927600	0.099700	0.669500
H621	H62	0.467500	0.881800	0.094100
H631	H63	0.597400	0.538300	0.572300
H641	H64	0.251300	0.838500	0.990100
H651	H65	0.967500	0.094100	0.618200
H661	H66	0.648800	0.390200	0.557700
H671	H67	0.119300	0.606900	0.976100
H681	H68	0.451100	0.527200	0.092600
H691	H69	0.125400	0.436300	0.150900
H701	H70	0.134900	0.033200	0.125400
H711	H71	0.427600	0.669500	0.400300
H721	H72	0.062900	0.512100	0.610900
H731	H73	0.184100	0.972500	0.401500
H741	H74	0.004700	0.352700	0.425200
H751	H75	0.712000	0.986400	0.608600
H761	H76	0.125400	0.063700	0.349100
H771	H77	0.625400	0.349100	0.063700
H781	H78	0.993900	0.388800	0.952400
H791	H79	0.148800	0.942300	0.390200
H801	H80	0.597400	0.961700	0.572300
H811	H81	0.508100	0.038700	0.370600
H821	H82	0.251300	0.661500	0.990100
H831	H83	0.993900	0.388800	0.547600
H841	H84	0.564300	0.922900	0.965900
H851	H85	0.210400	0.831700	0.411100
H861	H86	0.251300	0.838500	0.509900
H871	H87	0.625400	0.150900	0.436300
H881	H88	0.751300	0.509900	0.838500
H891	H89	0.644500	0.363200	0.371400
H901	H90	0.751300	0.990100	0.661500
H911	H91	0.845000	0.606400	0.801000
H921	H92	0.493900	0.952400	0.111200
H931	H93	0.998100	0.175300	0.324200
H941	H94	0.958900	0.507000	0.881800
H951	H95	0.425800	0.828400	0.998200
H961	H96	0.666300	0.377900	0.067200
H971	H97	0.619300	0.523900	0.893100
H981	H98	0.202700	0.934400	0.095700
H991	H99	0.162200	0.619000	0.082900
H1001	H100	0.446100	0.567000	0.098000
H1011	H101	0.062900	0.987900	0.889100
H1021	H102	0.334200	0.801000	0.547900
H1031	H103	0.850500	0.635700	0.750000
H1041	H104	0.212000	0.608600	0.513600
H1051	H105	0.662200	0.417100	0.881000
H1061	H106	0.345000	0.699000	0.606400
H1071	H107	0.562900	0.610900	0.512100
H1081	H108	0.334200	0.801000	0.952100
H1091	H109	0.508100	0.461300	0.370600
H1101	H110	0.451100	0.972800	0.092600
H1111	H111	0.148800	0.557700	0.109800
H1121	H112	0.996100	0.134300	0.366500
H1131	H113	0.202700	0.934400	0.404300
H1141	H114	0.498100	0.324200	0.324700
H1151	H115	0.015000	0.967800	0.598900
H1161	H116	0.951100	0.407400	0.972800
H1171	H117	0.496100	0.133500	0.365700
H1181	H118	0.458900	0.618200	0.507000
H1191	H119	0.155100	0.920300	0.540700
H1201	H120	0.008100	0.129400	0.038700
H1211	H121	0.645800	0.176000	0.173000
H1221	H122	0.712000	0.986400	0.891400
H1231	H123	0.619300	0.976100	0.893100
H1241	H124	0.097400	0.572300	0.961700
H1251	H125	0.634900	0.125400	0.466800
H1261	H126	0.467500	0.618200	0.405900
H1271	H127	0.451100	0.972800	0.407400
H1281	H128	0.946100	0.402000	0.567000
H1291	H129	0.625400	0.150900	0.063700
H1301	H130	0.144500	0.128600	0.363200
H1311	H131	0.655100	0.959300	0.579700
H1321	H132	0.125400	0.063700	0.150900
H1331	H133	0.648800	0.390200	0.942300
H1341	H134	0.148800	0.557700	0.390200
H1351	H135	0.684100	0.098500	0.972500
H1361	H136	0.666300	0.122100	0.432800
H1371	H137	0.996100	0.365700	0.133500
H1381	H138	0.515000	0.901100	0.532200
H1391	H139	0.619300	0.976100	0.606900
H1401	H140	0.064300	0.534100	0.577100
H1411	H141	0.015000	0.532200	0.901100
H1421	H142	0.162200	0.881000	0.417100
H1431	H143	0.008100	0.370600	0.038700
H1441	H144	0.350500	0.750000	0.635700
H1451	H145	0.210400	0.831700	0.088900
H1461	H146	0.634900	0.125400	0.033200
H1471	H147	0.155100	0.579700	0.540700
H1481	H148	0.927600	0.400300	0.669500
H1491	H149	0.712000	0.513600	0.891400
H1501	H150	0.469000	0.065900	0.383500
H1511	H151	0.350500	0.750000	0.864300
H1521	H152	0.684100	0.401500	0.527500
H1531	H153	0.644500	0.136800	0.371400
H1541	H154	0.597400	0.538300	0.927700
H1551	H155	0.004700	0.147300	0.425200
H1561	H156	0.345000	0.801000	0.606400
H1571	H157	0.958900	0.993000	0.618200
H1581	H158	0.925800	0.501800	0.671600
H1591	H159	0.648800	0.109800	0.942300
H1601	H160	0.967500	0.405900	0.881800
H1611	H161	0.998100	0.324700	0.175800
H1621	H162	0.662200	0.417100	0.619000
H1631	H163	0.008100	0.370600	0.461300
H1641	H164	0.969000	0.383500	0.065900
H1651	H165	0.210400	0.668300	0.411100
H1661	H166	0.064300	0.965900	0.922900
H1671	H167	0.845000	0.606400	0.699000
H1681	H168	0.162200	0.881000	0.082900
H1691	H169	0.969000	0.116500	0.434100
H1701	H170	0.064300	0.965900	0.577100
H1711	H171	0.645800	0.324000	0.173000
H1721	H172	0.834200	0.547900	0.699000
H1731	H173	0.655100	0.540700	0.579700
H1741	H174	0.134900	0.466800	0.125400
H1751	H175	0.145800	0.173000	0.176000
H1761	H176	0.927600	0.400300	0.830500
H1771	H177	0.515000	0.598900	0.532200
H1781	H178	0.425800	0.671600	0.998200
H1791	H179	0.927600	0.099700	0.830500
H1801	H180	0.504700	0.425200	0.147300
H1811	H181	0.119300	0.893100	0.523900
H1821	H182	0.097400	0.927700	0.538300
H1831	H183	0.166300	0.067200	0.122100
H1841	H184	0.996100	0.365700	0.366500
H1851	H185	0.334200	0.699000	0.547900
H1861	H186	0.998100	0.175300	0.175800
H1871	H187	0.008100	0.129400	0.461300
H1881	H188	0.967500	0.094100	0.881800
H1891	H189	0.504700	0.074800	0.147300
H1901	H190	0.702700	0.404300	0.934400
H1911	H191	0.148800	0.942300	0.109800
H1921	H192	0.834200	0.952100	0.699000
H1931	H193	0.850500	0.864300	0.750000
H1941	H194	0.469000	0.434100	0.116500
H1951	H195	0.515000	0.598900	0.967800
H1961	H196	0.648800	0.109800	0.557700
H1971	H197	0.062900	0.512100	0.889100
H1981	H198	0.666300	0.122100	0.067200
H1991	H199	0.134900	0.033200	0.374600
H2001	H200	0.015000	0.967800	0.901100
H2011	H201	0.145800	0.327000	0.324000
H2021	H202	0.515000	0.901100	0.967800
H2031	H203	0.097400	0.572300	0.538300
H2041	H204	0.210400	0.668300	0.088900
H2051	H205	0.710400	0.088900	0.668300
H2061	H206	0.662200	0.082900	0.619000
H2071	H207	0.493900	0.952400	0.388800
H2081	H208	0.508100	0.461300	0.129400
H2091	H209	0.958900	0.507000	0.618200
H2101	H210	0.998100	0.324700	0.324200
H2111	H211	0.458900	0.881800	0.507000
H2121	H212	0.004700	0.352700	0.074800
H2131	H213	0.564300	0.577100	0.534100
H2141	H214	0.951100	0.407400	0.527200
H2151	H215	0.184100	0.972500	0.098500
H2161	H216	0.493900	0.547600	0.111200
H2171	H217	0.467500	0.618200	0.094100
H2181	H218	0.684100	0.401500	0.972500
H2191	H219	0.619300	0.523900	0.606900
H2201	H220	0.644500	0.136800	0.128600
H2211	H221	0.493900	0.547600	0.388800
H2221	H222	0.564300	0.922900	0.534100
H2231	H223	0.166300	0.432800	0.122100
H2241	H224	0.969000	0.116500	0.065900
H2251	H225	0.562900	0.889100	0.512100
H2261	H226	0.496100	0.133500	0.134300
H2271	H227	0.469000	0.434100	0.383500
H2281	H228	0.212000	0.891400	0.513600
H2291	H229	0.427600	0.830500	0.099700
H2301	H230	0.710400	0.088900	0.831700
H2311	H231	0.946100	0.098000	0.933000
H2321	H232	0.184100	0.527500	0.401500
H2331	H233	0.834200	0.547900	0.801000
H2341	H234	0.062900	0.987900	0.610900
H2351	H235	0.155100	0.579700	0.959300
H2361	H236	0.134900	0.466800	0.374600
H2371	H237	0.162200	0.619000	0.417100
H2381	H238	0.212000	0.608600	0.986400
H2391	H239	0.345000	0.801000	0.893600
H2401	H240	0.496100	0.366500	0.134300
H2411	H241	0.655100	0.959300	0.920300
H2421	H242	0.634900	0.374600	0.033200
H2431	H243	0.446100	0.933000	0.402000
H2441	H244	0.155100	0.920300	0.959300
H2451	H245	0.993900	0.111200	0.547600
H2461	H246	0.144500	0.128600	0.136800
H2471	H247	0.498100	0.324200	0.175300
H2481	H248	0.645800	0.324000	0.327000
H2491	H249	0.967500	0.405900	0.618200
H2501	H250	0.334200	0.699000	0.952100
H2511	H251	0.427600	0.830500	0.400300
H2521	H252	0.564300	0.577100	0.965900
H2531	H253	0.144500	0.371400	0.136800
H2541	H254	0.212000	0.891400	0.986400
H2551	H255	0.946100	0.098000	0.567000
H2561	H256	0.015000	0.532200	0.598900
H2571	H257	0.504700	0.425200	0.352700
H2581	H258	0.712000	0.513600	0.608600
H2591	H259	0.125400	0.436300	0.349100
H2601	H260	0.925800	0.998200	0.671600
C11	C1	0.494000	0.554600	0.059800
C21	C2	0.595800	0.103800	0.427900
C31	C3	0.114500	0.361700	0.144300
C41	C4	0.189000	0.609400	0.035500
C51	C5	0.969000	0.093300	0.951400
C61	C6	0.068500	0.100900	0.395700
C71	C7	0.734600	0.460000	0.831000
C81	C8	0.174100	0.949300	0.093700
C91	C9	0.174100	0.949300	0.406300
C101	C10	0.386600	0.795900	0.450400
C111	C11	0.234600	0.831000	0.040000
C121	C12	0.235200	0.848000	0.009100
C131	C13	0.043900	0.519600	0.591300
C141	C14	0.919100	0.451600	0.824900
C151	C15	0.342800	0.780220	0.594400
C161	C16	0.125600	0.917200	0.527000
C171	C17	0.002100	0.125800	0.437200
C181	C18	0.528200	0.332400	0.333800
C191	C19	0.836400	0.940200	0.780190
C201	C20	0.919100	0.048400	0.675100
C211	C21	0.028200	0.333800	0.167600
C221	C22	0.027300	0.011200	0.570900
C231	C23	0.336400	0.719810	0.559800
C241	C24	0.614500	0.355700	0.361700
C251	C25	0.266000	0.796900	0.459500
C261	C26	0.836400	0.559800	0.780190
C271	C27	0.766000	0.459500	0.796900
C281	C28	0.919100	0.451600	0.675100
C291	C29	0.528200	0.332400	0.166200
C301	C30	0.502100	0.437200	0.374200
C311	C31	0.568500	0.395700	0.100900
C321	C32	0.576700	0.206100	0.295700
C331	C33	0.027300	0.488800	0.929100
C341	C34	0.471700	0.887000	0.044200
C351	C35	0.000100	0.038100	0.918300
C361	C36	0.133000	0.933500	0.493200
C371	C37	0.572100	0.319500	0.178200
C381	C38	0.842800	0.905600	0.780220
C391	C39	0.494000	0.554600	0.440200
C401	C40	0.709400	0.068100	0.656500
C411	C41	0.469000	0.951400	0.093300
C421	C42	0.235200	0.848000	0.490900
C431	C43	0.526700	0.142700	0.141300
C441	C44	0.342800	0.719780	0.594400
C451	C45	0.958400	0.426100	0.870600
C461	C46	0.028200	0.166200	0.167600
C471	C47	0.994000	0.440200	0.945400
C481	C48	0.432700	0.840400	0.481700
C491	C49	0.174100	0.550700	0.093700
C501	C50	0.572100	0.180500	0.178200
C511	C51	0.543900	0.591300	0.519600
C521	C52	0.659000	0.466100	0.577400
C531	C53	0.432700	0.659600	0.481700
C541	C54	0.095800	0.427900	0.396200
C551	C55	0.709400	0.068100	0.843500
C561	C56	0.683000	0.434600	0.873100
C571	C57	0.133000	0.566500	0.006800
C581	C58	0.125600	0.582800	0.973000
C591	C59	0.502100	0.062800	0.125800
C601	C60	0.002100	0.374200	0.437200
C611	C61	0.526700	0.357300	0.358700
C621	C62	0.842800	0.594400	0.780220
C631	C63	0.653700	0.058200	0.552800
C641	C64	0.659000	0.033900	0.577400
C651	C65	0.689000	0.464500	0.890600
C661	C66	0.095800	0.072100	0.103800
C671	C67	0.419100	0.675100	0.451600
C681	C68	0.994000	0.440200	0.554600
C691	C69	0.712100	0.493200	0.878800
C701	C70	0.433800	0.840100	0.078200
C711	C71	0.526700	0.142700	0.358700
C721	C72	0.735200	0.490900	0.652000
C731	C73	0.526700	0.357300	0.141300
C741	C74	0.153700	0.947200	0.058200
C751	C75	0.846200	0.611900	0.750000
C761	C76	0.712100	0.006800	0.878800
C771	C77	0.183000	0.626900	0.434600
C781	C78	0.919100	0.048400	0.824900
C791	C79	0.209400	0.843500	0.068100
C801	C80	0.153700	0.947200	0.441800
C811	C81	0.494000	0.945400	0.440200
C821	C82	0.346200	0.750000	0.888100
C831	C83	0.068500	0.100900	0.104300
C841	C84	0.070200	0.373300	0.131600
C851	C85	0.653700	0.441800	0.552800
C861	C86	0.625600	0.527000	0.917200
C871	C87	0.115100	0.164500	0.331800
C881	C88	0.527300	0.929100	0.011200
C891	C89	0.572100	0.180500	0.321800
C901	C90	0.543900	0.908700	0.519600
C911	C91	0.734600	0.460000	0.669000
C921	C92	0.209400	0.843500	0.431900
C931	C93	0.955000	0.485500	0.871600
C941	C94	0.568500	0.104300	0.100900
C951	C95	0.234600	0.669000	0.040000
C961	C96	0.994000	0.059800	0.945400
C971	C97	0.266000	0.796900	0.040500
C981	C98	0.971700	0.455800	0.613000
C991	C99	0.683000	0.065400	0.626900
C1001	C100	0.766000	0.040500	0.703100
C1011	C101	0.674100	0.406300	0.949300
C1021	C102	0.633000	0.006800	0.933500
C1031	C103	0.576700	0.293900	0.295700
C1041	C104	0.153700	0.552800	0.058200
C1051	C105	0.689000	0.464500	0.609400
C1061	C106	0.633000	0.493200	0.933500
C1071	C107	0.955000	0.014500	0.628400
C1081	C108	0.955000	0.014500	0.871600
C1091	C109	0.469000	0.951400	0.406700
C1101	C110	0.500100	0.918300	0.038100
C1111	C111	0.735200	0.009100	0.848000
C1121	C112	0.027300	0.488800	0.570900
C1131	C113	0.076700	0.295700	0.206100
C1141	C114	0.674100	0.093700	0.949300
C1151	C115	0.576700	0.206100	0.204300
C1161	C116	0.159000	0.922600	0.466100
C1171	C117	0.209400	0.656500	0.068100
C1181	C118	0.539900	0.423400	0.398700
C1191	C119	0.212100	0.878800	0.493200
C1201	C120	0.528200	0.167600	0.166200
C1211	C121	0.039900	0.101300	0.076600
C1221	C122	0.342800	0.719780	0.905600
C1231	C123	0.615100	0.168200	0.335500
C1241	C124	0.159000	0.577400	0.466100
C1251	C125	0.432700	0.659600	0.018300
C1261	C126	0.683000	0.065400	0.873100
C1271	C127	0.634000	0.372400	0.442200
C1281	C128	0.455000	0.871600	0.485500
C1291	C129	0.432700	0.840400	0.018300
C1301	C130	0.633000	0.006800	0.566500
C1311	C131	0.500100	0.581700	0.038100
C1321	C132	0.625600	0.527000	0.582800
C1331	C133	0.159000	0.577400	0.033900
C1341	C134	0.712100	0.006800	0.621200
C1351	C135	0.527300	0.570900	0.488800
C1361	C136	0.955000	0.485500	0.628400
C1371	C137	0.212100	0.621200	0.493200
C1381	C138	0.634000	0.127600	0.057800
C1391	C139	0.234600	0.831000	0.460000
C1401	C140	0.543900	0.591300	0.980400
C1411	C141	0.568500	0.104300	0.399100
C1421	C142	0.842800	0.905600	0.719780
C1431	C143	0.433800	0.659900	0.421800
C1441	C144	0.153700	0.552800	0.441800
C1451	C145	0.002100	0.125800	0.062800
C1461	C146	0.336400	0.780190	0.559800
C1471	C147	0.471700	0.613000	0.455800
C1481	C148	0.886600	0.450400	0.704100
C1491	C149	0.183000	0.873100	0.434600
C1501	C150	0.043900	0.519600	0.908700
C1511	C151	0.527300	0.929100	0.488800
C1521	C152	0.933800	0.421800	0.659900
C1531	C153	0.026700	0.358700	0.142700
C1541	C154	0.419100	0.824900	0.048400
C1551	C155	0.336400	0.719810	0.940200
C1561	C156	0.070200	0.373300	0.368400
C1571	C157	0.027300	0.011200	0.929100
C1581	C158	0.595800	0.396200	0.072100
C1591	C159	0.969000	0.093300	0.548600
C1601	C160	0.734600	0.040000	0.831000
C1611	C161	0.183000	0.873100	0.065400
C1621	C162	0.836400	0.559800	0.719810
C1631	C163	0.528200	0.167600	0.333800
C1641	C164	0.076700	0.204300	0.206100
C1651	C165	0.572100	0.319500	0.321800
C1661	C166	0.114500	0.138300	0.355700
C1671	C167	0.735200	0.490900	0.848000
C1681	C168	0.614500	0.144300	0.361700
C1691	C169	0.458400	0.629400	0.426100
C1701	C170	0.932700	0.481700	0.840400
C1711	C171	0.028200	0.166200	0.332400
C1721	C172	0.002100	0.374200	0.062800
C1731	C173	0.766000	0.040500	0.796900
C1741	C174	0.674100	0.406300	0.550700
C1751	C175	0.458400	0.629400	0.073900
C1761	C176	0.689000	0.035500	0.609400
C1771	C177	0.125600	0.917200	0.973000
C1781	C178	0.133000	0.566500	0.493200
C1791	C179	0.209400	0.656500	0.431900
C1801	C180	0.471700	0.613000	0.044200
C1811	C181	0.615100	0.331800	0.164500
C1821	C182	0.932700	0.018300	0.840400
C1831	C183	0.266000	0.703100	0.040500
C1841	C184	0.133000	0.933500	0.006800
C1851	C185	0.659000	0.033900	0.922600
C1861	C186	0.026700	0.141300	0.142700
C1871	C187	0.114500	0.361700	0.355700
C1881	C188	0.039900	0.398700	0.076600
C1891	C189	0.043900	0.980400	0.908700
C1901	C190	0.115100	0.164500	0.168200
C1911	C191	0.958400	0.426100	0.629400
C1921	C192	0.836400	0.940200	0.719810
C1931	C193	0.072100	0.321800	0.319500
C1941	C194	0.469000	0.548600	0.093300
C1951	C195	0.634000	0.127600	0.442200
C1961	C196	0.539900	0.423400	0.101300
C1971	C197	0.494000	0.945400	0.059800
C1981	C198	0.072100	0.321800	0.180500
C1991	C199	0.615100	0.331800	0.335500
C2001	C200	0.000100	0.461900	0.918300
C2011	C201	0.028200	0.333800	0.332400
C2021	C202	0.342800	0.780220	0.905600
C2031	C203	0.189000	0.609400	0.464500
C2041	C204	0.933800	0.421800	0.840100
C2051	C205	0.039900	0.398700	0.423400
C2061	C206	0.570200	0.368400	0.373300
C2071	C207	0.386600	0.704100	0.049600
C2081	C208	0.634000	0.372400	0.057800
C2091	C209	0.070200	0.126700	0.368400
C2101	C210	0.386600	0.704100	0.450400
C2111	C211	0.000100	0.038100	0.581700
C2121	C212	0.068500	0.399100	0.104300
C2131	C213	0.134000	0.057800	0.127600
C2141	C214	0.419100	0.824900	0.451600
C2151	C215	0.189000	0.890600	0.464500
C2161	C216	0.633000	0.493200	0.566500
C2171	C217	0.458400	0.870600	0.426100
C2181	C218	0.026700	0.358700	0.357300
C2191	C219	0.189000	0.890600	0.035500
C2201	C220	0.527300	0.570900	0.011200
C2211	C221	0.932700	0.481700	0.659600
C2221	C222	0.994000	0.059800	0.554600
C2231	C223	0.958400	0.073900	0.629400
C2241	C224	0.471700	0.887000	0.455800
C2251	C225	0.570200	0.368400	0.126700
C2261	C226	0.070200	0.126700	0.131600
C2271	C227	0.595800	0.396200	0.427900
C2281	C228	0.653700	0.058200	0.947200
C2291	C229	0.134000	0.442200	0.127600
C2301	C230	0.971700	0.044200	0.887000
C2311	C231	0.455000	0.871600	0.014500
C2321	C232	0.709400	0.431900	0.656500
C2331	C233	0.455000	0.628400	0.014500
C2341	C234	0.614500	0.355700	0.138300
C2351	C235	0.234600	0.669000	0.460000
C2361	C236	0.095800	0.072100	0.396200
C2371	C237	0.502100	0.062800	0.374200
C2381	C238	0.235200	0.652000	0.490900
C2391	C239	0.971700	0.455800	0.887000
C2401	C240	0.212100	0.621200	0.006800
C2411	C241	0.886600	0.049600	0.795900
C2421	C242	0.846200	0.888100	0.750000
C2431	C243	0.072100	0.178200	0.319500
C2441	C244	0.183000	0.626900	0.065400
C2451	C245	0.235200	0.652000	0.009100
C2461	C246	0.614500	0.144300	0.138300
C2471	C247	0.072100	0.178200	0.180500
C2481	C248	0.346200	0.750000	0.611900
C2491	C249	0.615100	0.168200	0.164500
C2501	C250	0.076700	0.204300	0.293900
C2511	C251	0.174100	0.550700	0.406300
C2521	C252	0.212100	0.878800	0.006800
C2531	C253	0.766000	0.459500	0.703100
C2541	C254	0.735200	0.009100	0.652000
C2551	C255	0.709400	0.431900	0.843500
C2561	C256	0.266000	0.703100	0.459500
C2571	C257	0.683000	0.434600	0.626900
C2581	C258	0.114500	0.138300	0.144300
C2591	C259	0.712100	0.493200	0.621200
C2601	C260	0.932700	0.018300	0.659600
C2611	C261	0.625600	0.973000	0.917200
C2621	C262	0.595800	0.103800	0.072100
C2631	C263	0.068500	0.399100	0.395700
C2641	C264	0.455000	0.628400	0.485500
C2651	C265	0.933800	0.078200	0.659900
C2661	C266	0.969000	0.406700	0.548600
C2671	C267	0.842800	0.594400	0.719780
C2681	C268	0.000100	0.461900	0.581700
C2691	C269	0.026700	0.141300	0.357300
C2701	C270	0.543900	0.908700	0.980400
C2711	C271	0.502100	0.437200	0.125800
C2721	C272	0.039900	0.101300	0.423400
C2731	C273	0.419100	0.675100	0.048400
C2741	C274	0.539900	0.076600	0.101300
C2751	C275	0.689000	0.035500	0.890600
C2761	C276	0.674100	0.093700	0.550700
C2771	C277	0.043900	0.980400	0.591300
C2781	C278	0.469000	0.548600	0.406700
C2791	C279	0.734600	0.040000	0.669000
C2801	C280	0.500100	0.918300	0.461900
C2811	C281	0.159000	0.922600	0.033900
C2821	C282	0.653700	0.441800	0.947200
C2831	C283	0.969000	0.406700	0.951400
C2841	C284	0.971700	0.044200	0.613000
C2851	C285	0.125600	0.582800	0.527000
C2861	C286	0.570200	0.131600	0.373300
C2871	C287	0.568500	0.395700	0.399100
C2881	C288	0.076700	0.295700	0.293900
C2891	C289	0.386600	0.795900	0.049600
C2901	C290	0.134000	0.442200	0.372400
C2911	C291	0.134000	0.057800	0.372400
C2921	C292	0.115100	0.335500	0.331800
C2931	C293	0.659000	0.466100	0.922600
C2941	C294	0.886600	0.450400	0.795900
C2951	C295	0.500100	0.581700	0.461900
C2961	C296	0.458400	0.870600	0.073900
C2971	C297	0.336400	0.780190	0.940200
C2981	C298	0.115100	0.335500	0.168200
C2991	C299	0.539900	0.076600	0.398700
C3001	C300	0.570200	0.131600	0.126700
C3011	C301	0.625600	0.973000	0.582800
C3021	C302	0.576700	0.293900	0.204300
C3031	C303	0.433800	0.659900	0.078200
C3041	C304	0.886600	0.049600	0.704100
C3051	C305	0.433800	0.840100	0.421800
C3061	C306	0.095800	0.427900	0.103800
C3071	C307	0.958400	0.073900	0.870600
C3081	C308	0.933800	0.078200	0.840100
N11	N1	0.125500	0.528200	0.454900
N21	N2	0.583700	0.076000	0.445000
N31	N3	0.517400	0.972900	0.453500
N41	N4	0.833100	0.957700	0.750000
N51	N5	0.036700	0.482400	0.962400
N61	N6	0.017400	0.453500	0.527100
N71	N7	0.036700	0.482400	0.537600
N81	N8	0.583700	0.424000	0.445000
N91	N9	0.625500	0.045100	0.971800
N101	N10	0.112000	0.963800	0.486100
N111	N11	0.083700	0.445000	0.424000
N121	N12	0.536700	0.962400	0.482400
N131	N13	0.112000	0.536200	0.486100
N141	N14	0.125500	0.971800	0.045100
N151	N15	0.549900	0.440800	0.072500
N161	N16	0.612000	0.013900	0.536200
N171	N17	0.517400	0.527100	0.046500
N181	N18	0.612000	0.486100	0.536200
N191	N19	0.049900	0.427500	0.440800
N201	N20	0.049900	0.072500	0.440800
N211	N21	0.017400	0.046500	0.972900
N221	N22	0.625500	0.454900	0.971800
N231	N23	0.583700	0.076000	0.055000
N241	N24	0.049900	0.072500	0.059200
N251	N25	0.833100	0.542300	0.750000
N261	N26	0.612000	0.486100	0.963800
N271	N27	0.549900	0.440800	0.427500
N281	N28	0.125500	0.971800	0.454900
N291	N29	0.625500	0.045100	0.528200
N301	N30	0.112000	0.536200	0.013900
N311	N31	0.536700	0.537600	0.017600
N321	N32	0.612000	0.013900	0.963800
N331	N33	0.333100	0.750000	0.957700
N341	N34	0.517400	0.972900	0.046500
N351	N35	0.125500	0.528200	0.045100
N361	N36	0.549900	0.059200	0.072500
N371	N37	0.536700	0.962400	0.017600
N381	N38	0.036700	0.017600	0.962400
N391	N39	0.083700	0.445000	0.076000
N401	N40	0.517400	0.527100	0.453500
N411	N41	0.536700	0.537600	0.482400
N421	N42	0.625500	0.454900	0.528200
N431	N43	0.017400	0.453500	0.972900
N441	N44	0.583700	0.424000	0.055000
N451	N45	0.049900	0.427500	0.059200
N461	N46	0.083700	0.055000	0.076000
N471	N47	0.549900	0.059200	0.427500
N481	N48	0.333100	0.750000	0.542300
N491	N49	0.036700	0.017600	0.537600
N501	N50	0.083700	0.055000	0.424000
N511	N51	0.017400	0.046500	0.527100
N521	N52	0.112000	0.963800	0.013900
O11	O1	0.033300	0.214930	0.284750
O21	O2	0.113900	0.284950	0.215370
O31	O3	0.279700	0.785160	0.014280
O41	O4	0.273600	0.713870	0.070430
O51	O5	0.372500	0.714950	0.077290
O61	O6	0.613900	0.215370	0.215050
O71	O7	0.113900	0.284950	0.284630
O81	O8	0.613900	0.284630	0.284950
O91	O9	0.533300	0.284750	0.214930
O101	O10	0.113900	0.215050	0.284630
O111	O11	0.273600	0.786130	0.429570
O121	O12	0.874900	0.477870	0.715620
O131	O13	0.273600	0.786130	0.070430
O141	O14	0.374900	0.784380	0.022130
O151	O15	0.773600	0.429570	0.786130
O161	O16	0.872500	0.422710	0.785050
O171	O17	0.533300	0.215250	0.285070
O181	O18	0.372500	0.785050	0.422710
O191	O19	0.613900	0.284630	0.215050
O201	O20	0.372500	0.785050	0.077290
O211	O21	0.874900	0.022130	0.715620
O221	O22	0.374900	0.715620	0.022130
O231	O23	0.779700	0.485720	0.785160
O241	O24	0.279700	0.714840	0.014280
O251	O25	0.872500	0.077290	0.714950
O261	O26	0.874900	0.477870	0.784380
O271	O27	0.779700	0.014280	0.785160
O281	O28	0.779700	0.485720	0.714840
O291	O29	0.773600	0.070430	0.713870
O301	O30	0.872500	0.077290	0.785050
O311	O31	0.033300	0.285070	0.215250
O321	O32	0.279700	0.785160	0.485720
O331	O33	0.372500	0.714950	0.422710
O341	O34	0.872500	0.422710	0.714950
O351	O35	0.773600	0.070430	0.786130
O361	O36	0.033300	0.285070	0.284750
O371	O37	0.033300	0.214930	0.215250
O381	O38	0.279700	0.714840	0.485720
O391	O39	0.374900	0.784380	0.477870
O401	O40	0.874900	0.022130	0.784380
O411	O41	0.113900	0.215050	0.215370
O421	O42	0.773600	0.429570	0.713870
O431	O43	0.533300	0.284750	0.285070
O441	O44	0.273600	0.713870	0.429570
O451	O45	0.533300	0.215250	0.214930
O461	O46	0.613900	0.215370	0.284950
O471	O47	0.374900	0.715620	0.477870
O481	O48	0.779700	0.014280	0.714840
Cu371	Cu37	0.476420	0.750000	0.750000
Cu381	Cu38	0.976420	0.750000	0.750000
Cu391	Cu39	0.468560	0.515730	0.940710
Cu401	Cu40	0.894890	0.987110	0.939200
Cu411	Cu41	0.425830	0.488290	0.490370
Cu421	Cu42	0.894890	0.987110	0.560800
Cu431	Cu43	0.425830	0.488290	0.009630
Cu441	Cu44	0.394890	0.939200	0.987110
Cu451	Cu45	0.172340	0.512770	0.250000
Cu461	Cu46	0.177300	0.920180	0.250000
Cu471	Cu47	0.672340	0.250000	0.512770
Cu481	Cu48	0.968560	0.940710	0.515730
Cu491	Cu49	0.394890	0.560800	0.512890
Cu501	Cu50	0.894890	0.512890	0.560800
Cu511	Cu51	0.425830	0.011710	0.009630
Cu521	Cu52	0.672340	0.250000	0.987230
Cu531	Cu53	0.177300	0.579820	0.250000
Cu541	Cu54	0.925830	0.009630	0.488290
Cu551	Cu55	0.968560	0.559290	0.515730
Cu561	Cu56	0.394890	0.939200	0.512890
Cu571	Cu57	0.925830	0.490370	0.011710
Cu581	Cu58	0.925830	0.490370	0.488290
Cu591	Cu59	0.925830	0.009630	0.011710
Cu601	Cu60	0.468560	0.984270	0.559290
Cu611	Cu61	0.677300	0.250000	0.579820
Cu621	Cu62	0.879170	0.750000	0.750000
Cu631	Cu63	0.968560	0.559290	0.984270
Cu641	Cu64	0.968560	0.940710	0.984270
Cu651	Cu65	0.677300	0.250000	0.920180
Cu661	Cu66	0.379170	0.750000	0.750000
Cu671	Cu67	0.394890	0.560800	0.987110
Cu681	Cu68	0.468560	0.984270	0.940710
Cu691	Cu69	0.894890	0.512890	0.939200
Cu701	Cu70	0.468560	0.515730	0.559290
Cu711	Cu71	0.425830	0.011710	0.490370
Cu721	Cu72	0.172340	0.987230	0.250000
H2611	H261	0.854200	0.673000	0.676000
H2621	H262	0.402600	0.461700	0.072300
H2631	H263	0.074200	0.001800	0.171600
H2641	H264	0.532500	0.381800	0.905900
H2651	H265	0.155000	0.106400	0.199000
H2661	H266	0.548900	0.472800	0.592600
H2671	H267	0.501900	0.675800	0.824700
H2681	H268	0.380700	0.476100	0.393100
H2691	H269	0.991900	0.870600	0.961300
H2701	H270	0.072400	0.599700	0.330500
H2711	H271	0.491900	0.538700	0.629400
H2721	H272	0.491900	0.538700	0.870600
H2731	H273	0.031000	0.616500	0.934100
H2741	H274	0.485000	0.401100	0.032200
H2751	H275	0.355500	0.863200	0.628600
H2761	H276	0.072400	0.900300	0.330500
H2771	H277	0.374600	0.849100	0.936300
H2781	H278	0.491900	0.961300	0.629400
H2791	H279	0.995300	0.647300	0.574800
H2801	H280	0.485000	0.098900	0.467800
H2811	H281	0.531000	0.934100	0.616500
H2821	H282	0.365100	0.625400	0.966800
H2831	H283	0.541100	0.118200	0.493000
H2841	H284	0.031000	0.616500	0.565900
H2851	H285	0.248700	0.009900	0.338500
H2861	H286	0.854200	0.673000	0.824000
H2871	H287	0.655000	0.301000	0.393600
H2881	H288	0.365100	0.625400	0.533200
H2891	H289	0.541100	0.381800	0.007000
H2901	H290	0.991900	0.629400	0.538700
H2911	H291	0.155000	0.393600	0.301000
H2921	H292	0.495300	0.925200	0.852700
H2931	H293	0.541100	0.118200	0.007000
H2941	H294	0.865100	0.966800	0.625400
H2951	H295	0.837800	0.381000	0.917100
H2961	H296	0.048900	0.907400	0.472800
H2971	H297	0.351200	0.609800	0.057700
H2981	H298	0.553900	0.067000	0.598000
H2991	H299	0.165800	0.452100	0.199000
H3001	H300	0.315900	0.901500	0.027500
H3011	H301	0.991900	0.629400	0.961300
H3021	H302	0.402600	0.461700	0.427700
H3031	H303	0.748700	0.161500	0.009900
H3041	H304	0.337800	0.582900	0.381000
H3051	H305	0.435700	0.077100	0.034100
H3061	H306	0.995300	0.647300	0.925200
H3071	H307	0.365100	0.874600	0.533200
H3081	H308	0.874600	0.563700	0.650900
H3091	H309	0.797300	0.065600	0.595700
H3101	H310	0.355500	0.636800	0.871400
H3111	H311	0.574200	0.328400	0.001800
H3121	H312	0.572400	0.169500	0.900300
H3131	H313	0.844900	0.079700	0.459300
H3141	H314	0.435700	0.077100	0.465900
H3151	H315	0.248700	0.490100	0.338500
H3161	H316	0.041100	0.493000	0.118200
H3171	H317	0.789600	0.331700	0.588900
H3181	H318	0.355500	0.863200	0.871400
H3191	H319	0.374600	0.650900	0.936300
H3201	H320	0.344900	0.040700	0.079700
H3211	H321	0.748700	0.338500	0.009900
H3221	H322	0.532500	0.118200	0.594100
H3231	H323	0.865100	0.966800	0.874600
H3241	H324	0.351200	0.890200	0.442300
H3251	H325	0.548900	0.027200	0.907400
H3261	H326	0.854200	0.827000	0.824000
H3271	H327	0.649500	0.250000	0.364300
H3281	H328	0.788000	0.391400	0.486400
H3291	H329	0.288000	0.486400	0.391400
H3301	H330	0.003900	0.634300	0.866500
H3311	H331	0.985000	0.467800	0.401100
H3321	H332	0.655000	0.199000	0.106400
H3331	H333	0.074200	0.498200	0.328400
H3341	H334	0.041100	0.007000	0.381800
H3351	H335	0.937100	0.487900	0.110900
H3361	H336	0.506100	0.047600	0.888800
H3371	H337	0.789600	0.168300	0.588900
H3381	H338	0.574200	0.171600	0.001800
H3391	H339	0.935700	0.465900	0.077100
H3401	H340	0.337800	0.917100	0.119000
H3411	H341	0.855500	0.871400	0.863200
H3421	H342	0.380700	0.023900	0.106900
H3431	H343	0.053900	0.902000	0.433000
H3441	H344	0.053900	0.598000	0.067000
H3451	H345	0.855500	0.628600	0.863200
H3461	H346	0.003900	0.865700	0.866500
H3471	H347	0.788000	0.108600	0.486400
H3481	H348	0.649500	0.250000	0.135700
H3491	H349	0.844900	0.420300	0.040700
H3501	H350	0.501900	0.675800	0.675300
H3511	H351	0.001900	0.675300	0.675800
H3521	H352	0.149500	0.364300	0.250000
H3531	H353	0.851200	0.057700	0.890200
H3541	H354	0.815900	0.472500	0.598500
H3551	H355	0.532500	0.118200	0.905900
H3561	H356	0.506100	0.452400	0.888800
H3571	H357	0.833700	0.932800	0.877900
H3581	H358	0.344900	0.040700	0.420300
H3591	H359	0.541100	0.381800	0.493000
H3601	H360	0.495300	0.574800	0.852700
H3611	H361	0.665800	0.301000	0.452100
H3621	H362	0.437100	0.389100	0.012100
H3631	H363	0.149500	0.135700	0.250000
H3641	H364	0.865100	0.533200	0.874600
H3651	H365	0.288000	0.486400	0.108600
H3661	H366	0.665800	0.199000	0.452100
H3671	H367	0.985000	0.032200	0.401100
H3681	H368	0.006100	0.611200	0.047600
H3691	H369	0.072400	0.599700	0.169500
H3701	H370	0.815900	0.027500	0.901500
H3711	H371	0.165800	0.047900	0.199000
H3721	H372	0.006100	0.888800	0.047600
H3731	H373	0.874600	0.563700	0.849100
H3741	H374	0.665800	0.301000	0.047900
H3751	H375	0.297300	0.904300	0.434400
H3761	H376	0.874600	0.936300	0.650900
H3771	H377	0.354200	0.824000	0.827000
H3781	H378	0.837800	0.381000	0.582900
H3791	H379	0.333700	0.877900	0.567200
H3801	H380	0.354200	0.676000	0.827000
H3811	H381	0.315900	0.598500	0.027500
H3821	H382	0.351200	0.890200	0.057700
H3831	H383	0.354200	0.824000	0.673000
H3841	H384	0.333700	0.622100	0.932800
H3851	H385	0.380700	0.023900	0.393100
H3861	H386	0.553900	0.067000	0.902000
H3871	H387	0.789600	0.168300	0.911100
H3881	H388	0.289600	0.911100	0.168300
H3891	H389	0.655000	0.199000	0.393600
H3901	H390	0.865100	0.533200	0.625400
H3911	H391	0.032500	0.905900	0.381800
H3921	H392	0.995300	0.852700	0.925200
H3931	H393	0.532500	0.381800	0.594100
H3941	H394	0.935700	0.034100	0.422900
H3951	H395	0.297300	0.595700	0.434400
H3961	H396	0.031000	0.883500	0.565900
H3971	H397	0.531000	0.934100	0.883500
H3981	H398	0.495300	0.925200	0.647300
H3991	H399	0.851200	0.057700	0.609800
H4001	H400	0.495300	0.574800	0.647300
H4011	H401	0.288000	0.013600	0.391400
H4021	H402	0.902600	0.427700	0.461700
H4031	H403	0.333700	0.877900	0.932800
H4041	H404	0.001900	0.675300	0.824200
H4051	H405	0.880700	0.393100	0.476100
H4061	H406	0.789600	0.331700	0.911100
H4071	H407	0.437100	0.389100	0.487900
H4081	H408	0.506100	0.047600	0.611200
H4091	H409	0.574200	0.171600	0.498200
H4101	H410	0.833700	0.567200	0.622100
H4111	H411	0.995300	0.852700	0.574800
H4121	H412	0.854200	0.827000	0.676000
H4131	H413	0.991900	0.870600	0.538700
H4141	H414	0.003900	0.865700	0.633500
H4151	H415	0.485000	0.098900	0.032200
H4161	H416	0.074200	0.498200	0.171600
H4171	H417	0.048900	0.592600	0.027200
H4181	H418	0.815900	0.472500	0.901500
H4191	H419	0.833700	0.567200	0.877900
H4201	H420	0.503900	0.633500	0.865700
H4211	H421	0.503900	0.866500	0.634300
H4221	H422	0.333700	0.622100	0.567200
H4231	H423	0.031000	0.883500	0.934100
H4241	H424	0.155000	0.106400	0.301000
H4251	H425	0.797300	0.434400	0.595700
H4261	H426	0.797300	0.434400	0.904300
H4271	H427	0.437100	0.110900	0.487900
H4281	H428	0.003900	0.634300	0.633500
H4291	H429	0.833700	0.932800	0.622100
H4301	H430	0.355500	0.636800	0.628600
H4311	H431	0.248700	0.490100	0.161500
H4321	H432	0.985000	0.032200	0.098900
H4331	H433	0.655000	0.301000	0.106400
H4341	H434	0.155000	0.393600	0.199000
H4351	H435	0.902600	0.072300	0.461700
H4361	H436	0.553900	0.433000	0.598000
H4371	H437	0.572400	0.169500	0.599700
H4381	H438	0.501900	0.824200	0.824700
H4391	H439	0.902600	0.427700	0.038300
H4401	H440	0.548900	0.027200	0.592600
H4411	H441	0.935700	0.034100	0.077100
H4421	H442	0.315900	0.598500	0.472500
H4431	H443	0.351200	0.609800	0.442300
H4441	H444	0.365100	0.874600	0.966800
H4451	H445	0.402600	0.038300	0.072300
H4461	H446	0.748700	0.338500	0.490100
H4471	H447	0.985000	0.467800	0.098900
H4481	H448	0.506100	0.452400	0.611200
H4491	H449	0.937100	0.487900	0.389100
H4501	H450	0.001900	0.824700	0.824200
H4511	H451	0.665800	0.199000	0.047900
H4521	H452	0.902600	0.072300	0.038300
H4531	H453	0.837800	0.119000	0.582900
H4541	H454	0.572400	0.330500	0.900300
H4551	H455	0.006100	0.888800	0.452400
H4561	H456	0.851200	0.442300	0.609800
H4571	H457	0.315900	0.901500	0.472500
H4581	H458	0.855500	0.871400	0.636800
H4591	H459	0.006100	0.611200	0.452400
H4601	H460	0.935700	0.465900	0.422900
H4611	H461	0.788000	0.391400	0.013600
H4621	H462	0.248700	0.009900	0.161500
H4631	H463	0.297300	0.595700	0.065600
H4641	H464	0.437100	0.110900	0.012100
H4651	H465	0.855500	0.628600	0.636800
H4661	H466	0.380700	0.476100	0.106900
H4671	H467	0.374600	0.650900	0.563700
H4681	H468	0.337800	0.917100	0.381000
H4691	H469	0.501900	0.824200	0.675300
H4701	H470	0.402600	0.038300	0.427700
H4711	H471	0.344900	0.459300	0.079700
H4721	H472	0.032500	0.594100	0.118200
H4731	H473	0.354200	0.676000	0.673000
H4741	H474	0.165800	0.047900	0.301000
H4751	H475	0.748700	0.161500	0.490100
H4761	H476	0.837800	0.119000	0.917100
H4771	H477	0.374600	0.849100	0.563700
H4781	H478	0.053900	0.598000	0.433000
H4791	H479	0.053900	0.902000	0.067000
H4801	H480	0.503900	0.633500	0.634300
H4811	H481	0.032500	0.594100	0.381800
H4821	H482	0.041100	0.493000	0.381800
H4831	H483	0.289600	0.588900	0.168300
H4841	H484	0.503900	0.866500	0.865700
H4851	H485	0.531000	0.565900	0.883500
H4861	H486	0.531000	0.565900	0.616500
H4871	H487	0.880700	0.393100	0.023900
H4881	H488	0.874600	0.936300	0.849100
H4891	H489	0.048900	0.907400	0.027200
H4901	H490	0.041100	0.007000	0.118200
H4911	H491	0.072400	0.900300	0.169500
H4921	H492	0.289600	0.911100	0.331700
H4931	H493	0.880700	0.106900	0.023900
H4941	H494	0.001900	0.824700	0.675800
H4951	H495	0.844900	0.420300	0.459300
H4961	H496	0.344900	0.459300	0.420300
H4971	H497	0.851200	0.442300	0.890200
H4981	H498	0.937100	0.012100	0.110900
H4991	H499	0.880700	0.106900	0.476100
H5001	H500	0.797300	0.065600	0.904300
H5011	H501	0.032500	0.905900	0.118200
H5021	H502	0.572400	0.330500	0.599700
H5031	H503	0.844900	0.079700	0.040700
H5041	H504	0.937100	0.012100	0.389100
H5051	H505	0.074200	0.001800	0.328400
H5061	H506	0.435700	0.422900	0.465900
H5071	H507	0.485000	0.401100	0.467800
H5081	H508	0.553900	0.433000	0.902000
H5091	H509	0.297300	0.904300	0.065600
H5101	H510	0.435700	0.422900	0.034100
H5111	H511	0.288000	0.013600	0.108600
H5121	H512	0.548900	0.472800	0.907400
H5131	H513	0.337800	0.582900	0.119000
H5141	H514	0.491900	0.961300	0.870600
H5151	H515	0.165800	0.452100	0.301000
H5161	H516	0.815900	0.027500	0.598500
H5171	H517	0.048900	0.592600	0.472800
H5181	H518	0.574200	0.328400	0.498200
H5191	H519	0.289600	0.588900	0.331700
H5201	H520	0.788000	0.108600	0.013600
C3091	C309	0.499900	0.081700	0.961900
C3101	C310	0.385500	0.855700	0.861700
C3111	C311	0.787900	0.121200	0.993200
C3121	C312	0.366000	0.627600	0.557800
C3131	C313	0.367000	0.506800	0.433500
C3141	C314	0.904200	0.572100	0.603800
C3151	C315	0.841000	0.077400	0.533900
C3161	C316	0.497900	0.937200	0.625800
C3171	C317	0.264800	0.509100	0.152000
C3181	C318	0.531000	0.451400	0.593300
C3191	C319	0.067300	0.981700	0.340400
C3201	C320	0.287900	0.993200	0.378800
C3211	C321	0.567300	0.340400	0.518300
C3221	C322	0.006000	0.940200	0.054600
C3231	C323	0.972700	0.988800	0.070900
C3241	C324	0.499900	0.418300	0.961900
C3251	C325	0.423300	0.793900	0.704300
C3261	C326	0.067300	0.518300	0.159600
C3271	C327	0.234000	0.959500	0.296900
C3281	C328	0.971800	0.666200	0.832400
C3291	C329	0.066200	0.578200	0.159900
C3301	C330	0.790600	0.343500	0.568100
C3311	C331	0.884900	0.835500	0.668200
C3321	C332	0.113400	0.549600	0.204100
C3331	C333	0.153800	0.388100	0.250000
C3341	C334	0.031000	0.906700	0.048600
C3351	C335	0.841000	0.422600	0.533900
C3361	C336	0.580900	0.175100	0.951600
C3371	C337	0.545000	0.371600	0.985500
C3381	C338	0.427900	0.680500	0.678200
C3391	C339	0.041600	0.573900	0.129400
C3401	C340	0.317000	0.934600	0.126900
C3411	C341	0.473300	0.642700	0.641300
C3421	C342	0.929800	0.626700	0.631600
C3431	C343	0.653800	0.250000	0.388100
C3441	C344	0.290600	0.568100	0.343500
C3451	C345	0.528300	0.113000	0.544200
C3461	C346	0.846300	0.052800	0.558200
C3471	C347	0.045000	0.985500	0.128400
C3481	C348	0.471800	0.667600	0.833800
C3491	C349	0.374400	0.027000	0.082800
C3501	C350	0.431500	0.604300	0.899100
C3511	C351	0.765400	0.331000	0.540000
C3521	C352	0.384900	0.668200	0.664500
C3531	C353	0.960100	0.898700	0.923400
C3541	C354	0.657200	0.219780	0.094400
C3551	C355	0.404200	0.896200	0.927900
C3561	C356	0.999900	0.538100	0.418300
C3571	C357	0.528300	0.387000	0.955800
C3581	C358	0.734000	0.203100	0.959500
C3591	C359	0.153800	0.111900	0.250000
C3601	C360	0.163600	0.059800	0.280190
C3611	C361	0.157200	0.405600	0.219780
C3621	C362	0.499900	0.081700	0.538100
C3631	C363	0.867000	0.066500	0.993200
C3641	C364	0.429800	0.868400	0.873300
C3651	C365	0.506000	0.445400	0.940200
C3661	C366	0.566200	0.340100	0.578200
C3671	C367	0.846300	0.447200	0.941800
C3681	C368	0.384900	0.831800	0.664500
C3691	C369	0.927900	0.821800	0.819500
C3701	C370	0.790600	0.343500	0.931900
C3711	C371	0.971800	0.833800	0.667600
C3721	C372	0.960100	0.601300	0.923400
C3731	C373	0.431500	0.895700	0.600900
C3741	C374	0.997900	0.874200	0.937200
C3751	C375	0.825900	0.449300	0.906300
C3761	C376	0.923300	0.704300	0.706100
C3771	C377	0.817000	0.126900	0.934600
C3781	C378	0.825900	0.449300	0.593700
C3791	C379	0.580900	0.324900	0.548400
C3801	C380	0.456100	0.091300	0.480400
C3811	C381	0.290600	0.931900	0.343500
C3821	C382	0.163600	0.440200	0.280190
C3831	C383	0.531000	0.451400	0.906700
C3841	C384	0.956100	0.480400	0.408700
C3851	C385	0.456100	0.091300	0.019600
C3861	C386	0.264800	0.509100	0.348000
C3871	C387	0.341000	0.533900	0.422600
C3881	C388	0.787900	0.121200	0.506800
C3891	C389	0.471800	0.832400	0.666200
C3901	C390	0.404200	0.896200	0.572100
C3911	C391	0.423300	0.706100	0.704300
C3921	C392	0.734000	0.203100	0.540500
C3931	C393	0.472700	0.070900	0.988800
C3941	C394	0.341000	0.966100	0.077400
C3951	C395	0.566200	0.159900	0.578200
C3961	C396	0.346300	0.558200	0.052800
C3971	C397	0.531000	0.048600	0.593300
C3981	C398	0.031000	0.593300	0.048600
C3991	C399	0.885500	0.861700	0.855700
C4001	C400	0.473300	0.642700	0.858700
C4011	C401	0.290600	0.568100	0.156500
C4021	C402	0.927900	0.678200	0.680500
C4031	C403	0.657200	0.280220	0.094400
C4041	C404	0.423300	0.706100	0.795700
C4051	C405	0.904200	0.927900	0.896200
C4061	C406	0.885500	0.861700	0.644300
C4071	C407	0.163600	0.059800	0.219810
C4081	C408	0.811000	0.390600	0.535500
C4091	C409	0.931500	0.899100	0.604300
C4101	C410	0.613400	0.204100	0.549600
C4111	C411	0.427900	0.819500	0.678200
C4121	C412	0.972700	0.988800	0.429100
C4131	C413	0.028300	0.544200	0.387000
C4141	C414	0.972700	0.511200	0.070900
C4151	C415	0.613400	0.295900	0.950400
C4161	C416	0.287900	0.506800	0.378800
C4171	C417	0.545000	0.371600	0.514500
C4181	C418	0.541600	0.129400	0.573900
C4191	C419	0.041600	0.926100	0.129400
C4201	C420	0.265400	0.540000	0.331000
C4211	C421	0.499900	0.418300	0.538100
C4221	C422	0.506000	0.445400	0.559800
C4231	C423	0.580900	0.324900	0.951600
C4241	C424	0.265400	0.960000	0.169000
C4251	C425	0.931500	0.600900	0.895700
C4261	C426	0.999900	0.961900	0.081700
C4271	C427	0.956100	0.019600	0.408700
C4281	C428	0.385500	0.644300	0.861700
C4291	C429	0.325900	0.906300	0.050700
C4301	C430	0.404200	0.603800	0.927900
C4311	C431	0.264800	0.990900	0.348000
C4321	C432	0.066200	0.578200	0.340100
C4331	C433	0.866000	0.557800	0.627600
C4341	C434	0.567300	0.340400	0.981700
C4351	C435	0.290600	0.931900	0.156500
C4361	C436	0.765400	0.169000	0.540000
C4371	C437	0.884900	0.664500	0.831800
C4381	C438	0.374400	0.473000	0.417200
C4391	C439	0.811000	0.390600	0.964500
C4401	C440	0.113400	0.950400	0.204100
C4411	C441	0.311000	0.964500	0.109400
C4421	C442	0.367000	0.993200	0.066500
C4431	C443	0.157200	0.094400	0.280220
C4441	C444	0.311000	0.535500	0.109400
C4451	C445	0.734000	0.296900	0.959500
C4461	C446	0.031000	0.906700	0.451400
C4471	C447	0.456100	0.408700	0.480400
C4481	C448	0.045000	0.514500	0.371600
C4491	C449	0.427900	0.680500	0.821800
C4501	C450	0.866000	0.942200	0.627600
C4511	C451	0.960100	0.898700	0.576600
C4521	C452	0.580900	0.175100	0.548400
C4531	C453	0.874400	0.417200	0.027000
C4541	C454	0.384900	0.668200	0.835500
C4551	C455	0.006000	0.559800	0.445400
C4561	C456	0.653800	0.250000	0.111900
C4571	C457	0.765400	0.169000	0.960000
C4581	C458	0.472700	0.429100	0.988800
C4591	C459	0.874400	0.082800	0.473000
C4601	C460	0.567300	0.159600	0.981700
C4611	C461	0.931500	0.899100	0.895700
C4621	C462	0.385500	0.644300	0.638300
C4631	C463	0.613400	0.295900	0.549600
C4641	C464	0.113400	0.950400	0.295900
C4651	C465	0.460100	0.923400	0.898700
C4661	C466	0.999900	0.961900	0.418300
C4671	C467	0.066200	0.921800	0.159900
C4681	C468	0.006000	0.940200	0.445400
C4691	C469	0.163600	0.440200	0.219810
C4701	C470	0.067300	0.981700	0.159600
C4711	C471	0.080900	0.951600	0.324900
C4721	C472	0.346300	0.558200	0.447200
C4731	C473	0.234000	0.959500	0.203100
C4741	C474	0.346300	0.941800	0.052800
C4751	C475	0.866000	0.557800	0.872400
C4761	C476	0.460100	0.923400	0.601300
C4771	C477	0.311000	0.535500	0.390600
C4781	C478	0.817000	0.126900	0.565400
C4791	C479	0.866000	0.942200	0.872400
C4801	C480	0.541600	0.129400	0.926100
C4811	C481	0.080900	0.548400	0.175100
C4821	C482	0.384900	0.831800	0.835500
C4831	C483	0.999900	0.538100	0.081700
C4841	C484	0.825900	0.050700	0.906300
C4851	C485	0.287900	0.506800	0.121200
C4861	C486	0.867000	0.066500	0.506800
C4871	C487	0.566200	0.159900	0.921800
C4881	C488	0.846300	0.052800	0.941800
C4891	C489	0.811000	0.109400	0.964500
C4901	C490	0.904200	0.572100	0.896200
C4911	C491	0.931500	0.600900	0.604300
C4921	C492	0.790600	0.156500	0.568100
C4931	C493	0.929800	0.873300	0.631600
C4941	C494	0.884900	0.664500	0.668200
C4951	C495	0.234000	0.540500	0.296900
C4961	C496	0.374400	0.027000	0.417200
C4971	C497	0.790600	0.156500	0.931900
C4981	C498	0.080900	0.548400	0.324900
C4991	C499	0.528300	0.113000	0.955800
C5001	C500	0.041600	0.926100	0.370600
C5011	C501	0.545000	0.128400	0.514500
C5021	C502	0.460100	0.576600	0.601300
C5031	C503	0.374400	0.473000	0.082800
C5041	C504	0.341000	0.533900	0.077400
C5051	C505	0.311000	0.964500	0.390600
C5061	C506	0.663600	0.280190	0.440200
C5071	C507	0.867000	0.433500	0.993200
C5081	C508	0.265400	0.960000	0.331000
C5091	C509	0.429800	0.631600	0.626700
C5101	C510	0.956100	0.019600	0.091300
C5111	C511	0.997900	0.625800	0.562800
C5121	C512	0.427900	0.819500	0.821800
C5131	C513	0.787900	0.378800	0.993200
C5141	C514	0.904200	0.927900	0.603800
C5151	C515	0.028300	0.955800	0.387000
C5161	C516	0.663600	0.280190	0.059800
C5171	C517	0.006000	0.559800	0.054600
C5181	C518	0.497900	0.562800	0.625800
C5191	C519	0.045000	0.514500	0.128400
C5201	C520	0.429800	0.868400	0.626700
C5211	C521	0.929800	0.626700	0.868400
C5221	C522	0.825900	0.050700	0.593700
C5231	C523	0.663600	0.219810	0.059800
C5241	C524	0.884900	0.835500	0.831800
C5251	C525	0.764800	0.152000	0.509100
C5261	C526	0.613400	0.204100	0.950400
C5271	C527	0.385500	0.855700	0.638300
C5281	C528	0.923300	0.704300	0.793900
C5291	C529	0.765400	0.331000	0.960000
C5301	C530	0.787900	0.378800	0.506800
C5311	C531	0.973300	0.641300	0.857300
C5321	C532	0.429800	0.631600	0.873300
C5331	C533	0.067300	0.518300	0.340400
C5341	C534	0.045000	0.985500	0.371600
C5351	C535	0.923300	0.795700	0.793900
C5361	C536	0.923300	0.795700	0.706100
C5371	C537	0.885500	0.638300	0.644300
C5381	C538	0.846300	0.447200	0.558200
C5391	C539	0.472700	0.429100	0.511200
C5401	C540	0.317000	0.565400	0.126900
C5411	C541	0.028300	0.955800	0.113000
C5421	C542	0.028300	0.544200	0.113000
C5431	C543	0.874400	0.082800	0.027000
C5441	C544	0.473300	0.857300	0.858700
C5451	C545	0.506000	0.054600	0.559800
C5461	C546	0.471800	0.832400	0.833800
C5471	C547	0.545000	0.128400	0.985500
C5481	C548	0.764800	0.348000	0.509100
C5491	C549	0.541600	0.370600	0.573900
C5501	C550	0.971800	0.833800	0.832400
C5511	C551	0.528300	0.387000	0.544200
C5521	C552	0.867000	0.433500	0.506800
C5531	C553	0.506000	0.054600	0.940200
C5541	C554	0.366000	0.872400	0.557800
C5551	C555	0.325900	0.906300	0.449300
C5561	C556	0.929800	0.873300	0.868400
C5571	C557	0.997900	0.625800	0.937200
C5581	C558	0.265400	0.540000	0.169000
C5591	C559	0.157200	0.405600	0.280220
C5601	C560	0.874400	0.417200	0.473000
C5611	C561	0.973300	0.641300	0.642700
C5621	C562	0.325900	0.593700	0.050700
C5631	C563	0.367000	0.506800	0.066500
C5641	C564	0.366000	0.627600	0.942200
C5651	C565	0.456100	0.408700	0.019600
C5661	C566	0.460100	0.576600	0.898700
C5671	C567	0.811000	0.109400	0.535500
C5681	C568	0.817000	0.373100	0.934600
C5691	C569	0.066200	0.921800	0.340100
C5701	C570	0.341000	0.966100	0.422600
C5711	C571	0.431500	0.895700	0.899100
C5721	C572	0.960100	0.601300	0.576600
C5731	C573	0.657200	0.219780	0.405600
C5741	C574	0.567300	0.159600	0.518300
C5751	C575	0.497900	0.562800	0.874200
C5761	C576	0.080900	0.951600	0.175100
C5771	C577	0.317000	0.934600	0.373100
C5781	C578	0.366000	0.872400	0.942200
C5791	C579	0.113400	0.549600	0.295900
C5801	C580	0.973300	0.858700	0.642700
C5811	C581	0.817000	0.373100	0.565400
C5821	C582	0.234000	0.540500	0.203100
C5831	C583	0.287900	0.993200	0.121200
C5841	C584	0.404200	0.603800	0.572100
C5851	C585	0.472700	0.070900	0.511200
C5861	C586	0.473300	0.857300	0.641300
C5871	C587	0.972700	0.511200	0.429100
C5881	C588	0.346300	0.941800	0.447200
C5891	C589	0.566200	0.340100	0.921800
C5901	C590	0.841000	0.077400	0.966100
C5911	C591	0.041600	0.573900	0.370600
C5921	C592	0.531000	0.048600	0.906700
C5931	C593	0.885500	0.638300	0.855700
C5941	C594	0.031000	0.593300	0.451400
C5951	C595	0.734000	0.296900	0.540500
C5961	C596	0.927900	0.678200	0.819500
C5971	C597	0.956100	0.480400	0.091300
C5981	C598	0.325900	0.593700	0.449300
C5991	C599	0.841000	0.422600	0.966100
C6001	C600	0.497900	0.937200	0.874200
C6011	C601	0.423300	0.793900	0.795700
C6021	C602	0.663600	0.219810	0.440200
C6031	C603	0.657200	0.280220	0.405600
C6041	C604	0.973300	0.858700	0.857300
C6051	C605	0.927900	0.821800	0.680500
C6061	C606	0.317000	0.565400	0.373100
C6071	C607	0.541600	0.370600	0.926100
C6081	C608	0.764800	0.152000	0.990900
C6091	C609	0.367000	0.993200	0.433500
C6101	C610	0.471800	0.667600	0.666200
C6111	C611	0.431500	0.604300	0.600900
C6121	C612	0.264800	0.990900	0.152000
C6131	C613	0.764800	0.348000	0.990900
C6141	C614	0.997900	0.874200	0.562800
C6151	C615	0.157200	0.094400	0.219780
C6161	C616	0.971800	0.666200	0.667600
N531	N53	0.874500	0.028200	0.545100
N541	N54	0.482600	0.472900	0.953500
N551	N55	0.666900	0.250000	0.457700
N561	N56	0.950100	0.572500	0.940800
N571	N57	0.450100	0.940800	0.572500
N581	N58	0.166900	0.042300	0.250000
N591	N59	0.450100	0.559200	0.927500
N601	N60	0.388000	0.513900	0.463800
N611	N61	0.982600	0.546500	0.027100
N621	N62	0.916300	0.555000	0.576000
N631	N63	0.482600	0.027100	0.546500
N641	N64	0.982600	0.953500	0.027100
N651	N65	0.388000	0.986100	0.036200
N661	N66	0.374500	0.954900	0.471800
N671	N67	0.666900	0.250000	0.042300
N681	N68	0.374500	0.545100	0.471800
N691	N69	0.374500	0.954900	0.028200
N701	N70	0.888000	0.463800	0.986100
N711	N71	0.950100	0.927500	0.559200
N721	N72	0.963300	0.517600	0.037600
N731	N73	0.963300	0.517600	0.462400
N741	N74	0.416300	0.924000	0.945000
N751	N75	0.916300	0.945000	0.924000
N761	N76	0.374500	0.545100	0.028200
N771	N77	0.916300	0.555000	0.924000
N781	N78	0.463300	0.462400	0.517600
N791	N79	0.950100	0.927500	0.940800
N801	N80	0.450100	0.940800	0.927500
N811	N81	0.388000	0.986100	0.463800
N821	N82	0.416300	0.924000	0.555000
N831	N83	0.888000	0.463800	0.513900
N841	N84	0.950100	0.572500	0.559200
N851	N85	0.463300	0.037600	0.517600
N861	N86	0.874500	0.028200	0.954900
N871	N87	0.874500	0.471800	0.545100
N881	N88	0.982600	0.546500	0.472900
N891	N89	0.463300	0.037600	0.982400
N901	N90	0.416300	0.576000	0.945000
N911	N91	0.482600	0.472900	0.546500
N921	N92	0.963300	0.982400	0.037600
N931	N93	0.888000	0.036200	0.986100
N941	N94	0.166900	0.457700	0.250000
N951	N95	0.463300	0.462400	0.982400
N961	N96	0.963300	0.982400	0.462400
N971	N97	0.388000	0.513900	0.036200
N981	N98	0.916300	0.945000	0.576000
N991	N99	0.874500	0.471800	0.954900
N1001	N100	0.982600	0.953500	0.472900
N1011	N101	0.888000	0.036200	0.513900
N1021	N102	0.482600	0.027100	0.953500
N1031	N103	0.450100	0.559200	0.572500
N1041	N104	0.416300	0.576000	0.555000
O491	O49	0.125100	0.977870	0.215620
O501	O50	0.966700	0.785070	0.784750
O511	O51	0.720300	0.285160	0.514280
O521	O52	0.226400	0.929570	0.213870
O531	O53	0.886100	0.715050	0.784630
O541	O54	0.466700	0.784750	0.714930
O551	O55	0.625100	0.215620	0.522130
O561	O56	0.220300	0.985720	0.214840
O571	O57	0.226400	0.929570	0.286130
O581	O58	0.966700	0.785070	0.715250
O591	O59	0.386100	0.715370	0.784950
O601	O60	0.886100	0.784950	0.715370
O611	O61	0.627500	0.214950	0.577290
O621	O62	0.220300	0.985720	0.285160
O631	O63	0.627500	0.285050	0.922710
O641	O64	0.625100	0.284380	0.977870
O651	O65	0.625100	0.215620	0.977870
O661	O66	0.720300	0.214840	0.514280
O671	O67	0.386100	0.784630	0.715050
O681	O68	0.127500	0.922710	0.285050
O691	O69	0.966700	0.714930	0.784750
O701	O70	0.720300	0.285160	0.985720
O711	O71	0.625100	0.284380	0.522130
O721	O72	0.127500	0.577290	0.285050
O731	O73	0.627500	0.214950	0.922710
O741	O74	0.220300	0.514280	0.214840
O751	O75	0.125100	0.522130	0.215620
O761	O76	0.726400	0.213870	0.570430
O771	O77	0.966700	0.714930	0.715250
O781	O78	0.127500	0.922710	0.214950
O791	O79	0.726400	0.286130	0.570430
O801	O80	0.226400	0.570430	0.286130
O811	O81	0.386100	0.715370	0.715050
O821	O82	0.220300	0.514280	0.285160
O831	O83	0.125100	0.977870	0.284380
O841	O84	0.466700	0.715250	0.714930
O851	O85	0.226400	0.570430	0.213870
O861	O86	0.726400	0.286130	0.929570
O871	O87	0.726400	0.213870	0.929570
O881	O88	0.720300	0.214840	0.985720
O891	O89	0.886100	0.715050	0.715370
O901	O90	0.466700	0.784750	0.785070
O911	O91	0.466700	0.715250	0.785070
O921	O92	0.886100	0.784950	0.784630
O931	O93	0.125100	0.522130	0.284380
O941	O94	0.386100	0.784630	0.784950
O951	O95	0.627500	0.285050	0.577290
O961	O96	0.127500	0.577290	0.214950
