data_MIMFOF_clean_PM
_symmetry_space_group_name_H-M	'P1'
_cell_length_a	9.216400
_cell_length_b	10.224800
_cell_length_c	12.609400
_cell_angle_alpha	98.098000
_cell_angle_beta	106.227000
_cell_angle_gamma	106.147000
_symmetry_Int_Tables_number 1

loop_
_symmetry_equiv_pos_as_xyz
'x,y,z'

loop_
_atom_site_label
_atom_site_type_symbol
_atom_site_fract_x
_atom_site_fract_y
_atom_site_fract_z
Al11	Al1	0.513090	0.199750	0.219890
Al21	Al2	0.212720	0.900050	0.481370
Al31	Al3	0.501070	0.707580	0.226390
Al41	Al4	0.782070	0.597300	0.515140
O11	O1	0.479900	0.190500	0.075160
O21	O2	0.335200	0.333500	0.981540
H11	H1	0.341000	0.401000	0.951000
O31	O3	0.630900	0.445900	0.100150
O41	O4	0.276600	0.953300	0.366840
O51	O5	0.433400	0.821700	0.298890
O61	O6	0.577900	0.062300	0.428910
O71	O7	0.724400	0.575300	0.637650
O81	O8	0.406900	0.034500	0.230940
O91	O9	0.546300	0.275900	0.913580
O101	O10	0.161900	0.724300	0.498980
O111	O11	0.707700	0.749100	0.284350
O121	O12	0.828500	0.772900	0.494650
O131	O13	0.283100	0.757200	0.711280
O141	O14	0.993700	0.647000	0.621480
O151	O15	0.000100	0.849900	0.373740
O161	O16	0.568100	0.683000	0.726790
O171	O17	0.174600	0.519400	0.581650
O181	O18	0.827900	0.984900	0.418580
O191	O19	0.426200	0.454400	0.577990
O201	O20	0.604700	0.460600	0.767820
P11	P1	0.504130	0.315590	0.019930
P21	P2	0.152300	0.661540	0.600880
P31	P3	0.575820	0.541450	0.674390
P41	P4	0.428420	0.968690	0.334470
P51	P5	0.842080	0.839390	0.394870
Al51	Al5	0.486910	0.800250	0.780110
Al61	Al6	0.787280	0.099950	0.518630
Al71	Al7	0.498930	0.292420	0.773610
Al81	Al8	0.217930	0.402700	0.484860
O211	O21	0.520100	0.809500	0.924840
O221	O22	0.664800	0.666500	0.018460
H21	H2	0.659000	0.599000	0.049000
O231	O23	0.369100	0.554100	0.899850
O241	O24	0.723400	0.046700	0.633160
O251	O25	0.566600	0.178300	0.701110
O261	O26	0.422100	0.937700	0.571090
O271	O27	0.275600	0.424700	0.362350
O281	O28	0.593100	0.965500	0.769060
O291	O29	0.453700	0.724100	0.086420
O301	O30	0.838100	0.275700	0.501020
O311	O31	0.292300	0.250900	0.715650
O321	O32	0.171500	0.227100	0.505350
O331	O33	0.716900	0.242800	0.288720
O341	O34	0.006300	0.353000	0.378520
O351	O35	0.999900	0.150100	0.626260
O361	O36	0.431900	0.317000	0.273210
O371	O37	0.825400	0.480600	0.418350
O381	O38	0.172100	0.015100	0.581420
O391	O39	0.573800	0.545600	0.422010
O401	O40	0.395300	0.539400	0.232180
P61	P6	0.495870	0.684410	0.980070
P71	P7	0.847700	0.338460	0.399120
P81	P8	0.424180	0.458550	0.325610
P91	P9	0.571580	0.031310	0.665530
P101	P10	0.157920	0.160610	0.605130
