data_MIMKIE_clean_PM
_symmetry_space_group_name_H-M	'P1'
_cell_length_a	9.538700
_cell_length_b	10.425000
_cell_length_c	11.590000
_cell_angle_alpha	75.020000
_cell_angle_beta	84.800000
_cell_angle_gamma	80.990000
_symmetry_Int_Tables_number 1

loop_
_symmetry_equiv_pos_as_xyz
'x,y,z'

loop_
_atom_site_label
_atom_site_type_symbol
_atom_site_fract_x
_atom_site_fract_y
_atom_site_fract_z
Ca11	Ca1	0.457910	0.413040	0.360610
O11	O1	0.292000	0.603000	0.075000
O21	O2	0.242300	0.484200	0.260000
O31	O3	0.961000	0.519600	0.214550
O41	O4	0.716500	0.438700	0.340420
O51	O5	0.599500	0.505700	0.174380
O61	O6	0.473000	0.778800	0.482320
O71	O7	0.441000	0.624900	0.390600
O81	O8	0.445400	0.972300	0.298130
O91	O9	0.471200	0.213600	0.296180
O101	O10	0.438400	0.289700	0.099220
C11	C1	0.208500	0.554100	0.159400
C21	C2	0.055700	0.583900	0.132800
C31	C3	0.988400	0.660000	0.035400
H11	H1	0.029300	0.714000	0.968100
C41	C4	0.843900	0.641600	0.055900
H21	H2	0.771000	0.681200	0.004600
C51	C5	0.831900	0.555700	0.163800
C61	C6	0.709400	0.495300	0.231400
C71	C7	0.447600	0.742500	0.391700
C81	C8	0.423900	0.850800	0.282300
C91	C9	0.385400	0.866900	0.170300
H31	H3	0.364400	0.800400	0.137000
C101	C10	0.382800	0.005200	0.112500
H41	H4	0.359300	0.046300	0.034100
C111	C11	0.420800	0.065600	0.192400
C121	C12	0.445400	0.201400	0.194800
Ca21	Ca2	0.542090	0.586960	0.639390
O111	O11	0.708000	0.397000	0.925000
O121	O12	0.757700	0.515800	0.740000
O131	O13	0.039000	0.480400	0.785450
O141	O14	0.283500	0.561300	0.659580
O151	O15	0.400500	0.494300	0.825620
O161	O16	0.527000	0.221200	0.517680
O171	O17	0.559000	0.375100	0.609400
O181	O18	0.554600	0.027700	0.701870
O191	O19	0.528800	0.786400	0.703820
O201	O20	0.561600	0.710300	0.900780
C131	C13	0.791500	0.445900	0.840600
C141	C14	0.944300	0.416100	0.867200
C151	C15	0.011600	0.340000	0.964600
H51	H5	0.970700	0.286000	0.031900
C161	C16	0.156100	0.358400	0.944100
H61	H6	0.229000	0.318800	0.995400
C171	C17	0.168100	0.444300	0.836200
C181	C18	0.290600	0.504700	0.768600
C191	C19	0.552400	0.257500	0.608300
C201	C20	0.576100	0.149200	0.717700
C211	C21	0.614600	0.133100	0.829700
H71	H7	0.635600	0.199600	0.863000
C221	C22	0.617200	0.994800	0.887500
H81	H8	0.640700	0.953700	0.965900
C231	C23	0.579200	0.934400	0.807600
C241	C24	0.554600	0.798600	0.805200
Ca31	Ca3	0.500000	0.000000	0.500000
Ca41	Ca4	0.500000	0.500000	0.000000
