data_MINCER_clean_PM
_symmetry_space_group_name_H-M	'P1'
_cell_length_a	8.588600
_cell_length_b	9.408600
_cell_length_c	9.428200
_cell_angle_alpha	119.931000
_cell_angle_beta	116.514000
_cell_angle_gamma	90.000000
_symmetry_Int_Tables_number 1

loop_
_symmetry_equiv_pos_as_xyz
'x,y,z'

loop_
_atom_site_label
_atom_site_type_symbol
_atom_site_fract_x
_atom_site_fract_y
_atom_site_fract_z
Ba11	Ba1	0.750000	0.919200	0.000000
Ba21	Ba2	0.250000	0.080800	0.000000
H11	H1	0.425000	0.783000	0.024000
H21	H2	0.348000	0.710700	0.839400
H31	H3	0.075000	0.759000	0.976000
H41	H4	0.152000	0.871300	0.160600
H51	H5	0.575000	0.217000	0.976000
H61	H6	0.652000	0.289300	0.160600
H71	H7	0.925000	0.241000	0.024000
H81	H8	0.848000	0.128700	0.839400
C11	C1	0.313600	0.423200	0.499600
C21	C2	0.186400	0.923600	0.500400
C31	C3	0.686400	0.576800	0.500400
C41	C4	0.813600	0.076400	0.499600
N11	N1	0.480300	0.526200	0.563600
N21	N2	0.243200	0.475100	0.610800
N31	N3	0.089800	0.351100	0.511600
N41	N4	0.070400	0.231200	0.347800
N51	N5	0.211300	0.273200	0.335400
N61	N6	0.019700	0.962600	0.436400
N71	N7	0.256800	0.864300	0.389200
N81	N8	0.410200	0.839500	0.488400
N91	N9	0.429600	0.883400	0.652200
N101	N10	0.288700	0.937800	0.664600
N111	N11	0.519700	0.473800	0.436400
N121	N12	0.756800	0.524900	0.389200
N131	N13	0.910200	0.648900	0.488400
N141	N14	0.929600	0.768800	0.652200
N151	N15	0.788700	0.726800	0.664600
N161	N16	0.980300	0.037400	0.563600
N171	N17	0.743200	0.135700	0.610800
N181	N18	0.589800	0.160500	0.511600
N191	N19	0.570400	0.116600	0.347800
N201	N20	0.711300	0.062200	0.335400
O11	O1	0.405500	0.804700	0.943600
O21	O2	0.094500	0.861100	0.056400
O31	O3	0.594500	0.195300	0.056400
O41	O4	0.905500	0.138900	0.943600
