data_MIRLAB_clean_PM
_symmetry_space_group_name_H-M	'P1'
_cell_length_a	16.254000
_cell_length_b	13.508000
_cell_length_c	7.683000
_cell_angle_alpha	90.000000
_cell_angle_beta	90.910000
_cell_angle_gamma	90.000000
_symmetry_Int_Tables_number 1

loop_
_symmetry_equiv_pos_as_xyz
'x,y,z'

loop_
_atom_site_label
_atom_site_type_symbol
_atom_site_fract_x
_atom_site_fract_y
_atom_site_fract_z
O11	O1	0.440500	0.266300	0.441800
O21	O2	0.621400	0.193100	0.378900
O31	O3	0.602100	0.207300	0.661300
O41	O4	0.930000	0.101800	0.625100
O51	O5	0.865300	0.960300	0.656600
C11	C1	0.642100	0.182700	0.536000
C21	C2	0.720800	0.134900	0.566300
C31	C3	0.786800	0.098400	0.596000
C41	C4	0.866400	0.048900	0.629100
O61	O6	0.940500	0.766300	0.441800
O71	O7	0.121400	0.693100	0.378900
O81	O8	0.102100	0.707300	0.661300
O91	O9	0.430000	0.601800	0.625100
O101	O10	0.365300	0.460300	0.656600
C51	C5	0.142100	0.682700	0.536000
C61	C6	0.220800	0.634900	0.566300
C71	C7	0.286800	0.598400	0.596000
C81	C8	0.366400	0.548900	0.629100
O111	O11	0.559500	0.266300	0.058200
O121	O12	0.378600	0.193100	0.121100
O131	O13	0.397900	0.207300	0.838700
O141	O14	0.070000	0.101800	0.874900
O151	O15	0.134700	0.960300	0.843400
C91	C9	0.357900	0.182700	0.964000
C101	C10	0.279200	0.134900	0.933700
C111	C11	0.213200	0.098400	0.904000
C121	C12	0.133600	0.048900	0.870900
O161	O16	0.059500	0.766300	0.058200
O171	O17	0.878600	0.693100	0.121100
O181	O18	0.897900	0.707300	0.838700
O191	O19	0.570000	0.601800	0.874900
O201	O20	0.634700	0.460300	0.843400
C131	C13	0.857900	0.682700	0.964000
C141	C14	0.779200	0.634900	0.933700
C151	C15	0.713200	0.598400	0.904000
C161	C16	0.633600	0.548900	0.870900
O211	O21	0.559500	0.733700	0.558200
O221	O22	0.378600	0.806900	0.621100
O231	O23	0.397900	0.792700	0.338700
O241	O24	0.070000	0.898200	0.374900
O251	O25	0.134700	0.039700	0.343400
C171	C17	0.357900	0.817300	0.464000
C181	C18	0.279200	0.865100	0.433700
C191	C19	0.213200	0.901600	0.404000
C201	C20	0.133600	0.951100	0.370900
O261	O26	0.059500	0.233700	0.558200
O271	O27	0.878600	0.306900	0.621100
O281	O28	0.897900	0.292700	0.338700
O291	O29	0.570000	0.398200	0.374900
O301	O30	0.634700	0.539700	0.343400
C211	C21	0.857900	0.317300	0.464000
C221	C22	0.779200	0.365100	0.433700
C231	C23	0.713200	0.401600	0.404000
C241	C24	0.633600	0.451100	0.370900
O311	O31	0.440500	0.733700	0.941800
O321	O32	0.621400	0.806900	0.878900
O331	O33	0.602100	0.792700	0.161300
O341	O34	0.930000	0.898200	0.125100
O351	O35	0.865300	0.039700	0.156600
C251	C25	0.642100	0.817300	0.036000
C261	C26	0.720800	0.865100	0.066300
C271	C27	0.786800	0.901600	0.096000
C281	C28	0.866400	0.951100	0.129100
O361	O36	0.940500	0.233700	0.941800
O371	O37	0.121400	0.306900	0.878900
O381	O38	0.102100	0.292700	0.161300
O391	O39	0.430000	0.398200	0.125100
O401	O40	0.365300	0.539700	0.156600
C291	C29	0.142100	0.317300	0.036000
C301	C30	0.220800	0.365100	0.066300
C311	C31	0.286800	0.401600	0.096000
C321	C32	0.366400	0.451100	0.129100
U11	U1	0.500000	0.265530	0.250000
U21	U2	0.000000	0.765530	0.250000
U31	U3	0.500000	0.734470	0.750000
U41	U4	0.000000	0.234470	0.750000
K11	K1	0.500000	0.360370	0.750000
K21	K2	0.000000	0.860370	0.750000
K31	K3	0.500000	0.639630	0.250000
K41	K4	0.000000	0.139630	0.250000
