data_MISQIQ04_clean_PM
_symmetry_space_group_name_H-M	'P1'
_cell_length_a	9.342500
_cell_length_b	9.342500
_cell_length_c	6.994000
_cell_angle_alpha	90.000000
_cell_angle_beta	90.000000
_cell_angle_gamma	120.000000
_symmetry_Int_Tables_number 1

loop_
_symmetry_equiv_pos_as_xyz
'x,y,z'

loop_
_atom_site_label
_atom_site_type_symbol
_atom_site_fract_x
_atom_site_fract_y
_atom_site_fract_z
Al11	Al1	0.162180	0.521180	0.056220
O11	O1	0.301400	0.730330	0.960300
H11	H1	0.357700	0.820600	0.051200
O21	O2	0.278400	0.427000	0.959500
O31	O3	0.533140	0.565800	0.169600
Al21	Al2	0.478820	0.641000	0.389550
O41	O4	0.269670	0.571070	0.293630
H21	H2	0.179400	0.537100	0.384530
O51	O5	0.573000	0.851400	0.292830
O61	O6	0.434200	0.967340	0.502930
Al31	Al3	0.359000	0.837820	0.722890
O71	O7	0.428930	0.698600	0.626970
H31	H3	0.462900	0.642300	0.717870
O81	O8	0.148600	0.721600	0.626170
O91	O9	0.032660	0.466860	0.836270
Al41	Al4	0.521180	0.162180	0.943780
O101	O10	0.730330	0.301400	0.039700
H41	H4	0.820600	0.357700	0.948800
O111	O11	0.427000	0.278400	0.040500
O121	O12	0.565800	0.533140	0.830400
Al51	Al5	0.641000	0.478820	0.610450
O131	O13	0.571070	0.269670	0.706370
H51	H5	0.537100	0.179400	0.615470
O141	O14	0.851400	0.573000	0.707170
O151	O15	0.967340	0.434200	0.497070
Al61	Al6	0.837820	0.359000	0.277110
O161	O16	0.698600	0.428930	0.373030
H61	H6	0.642300	0.462900	0.282130
O171	O17	0.721600	0.148600	0.373830
O181	O18	0.466860	0.032660	0.163730
P11	P1	0.449400	0.449400	0.000000
P21	P2	0.550600	0.000000	0.333330
P31	P3	0.000000	0.550600	0.666670
F11	F1	0.000000	0.317900	0.166670
F21	F2	0.000000	0.568300	0.166670
F31	F3	0.682100	0.682100	0.500000
F41	F4	0.431700	0.431700	0.500000
F51	F5	0.317900	0.000000	0.833330
F61	F6	0.568300	0.000000	0.833330
