data_MISQIQ01_clean_PM
_symmetry_space_group_name_H-M	'P1'
_cell_length_a	9.341100
_cell_length_b	9.341100
_cell_length_c	6.993200
_cell_angle_alpha	90.000000
_cell_angle_beta	90.000000
_cell_angle_gamma	120.000000
_symmetry_Int_Tables_number 1

loop_
_symmetry_equiv_pos_as_xyz
'x,y,z'

loop_
_atom_site_label
_atom_site_type_symbol
_atom_site_fract_x
_atom_site_fract_y
_atom_site_fract_z
Al11	Al1	0.640750	0.161990	0.223070
O11	O1	0.571100	0.301400	0.127100
H11	H1	0.553500	0.367900	0.198200
O21	O2	0.851500	0.278500	0.126000
O31	O3	0.032900	0.565600	0.997000
Al21	Al2	0.838010	0.478760	0.556400
O41	O4	0.698600	0.269700	0.460430
H21	H2	0.632100	0.185600	0.531530
O51	O5	0.721500	0.573000	0.459330
O61	O6	0.434400	0.467300	0.330330
Al31	Al3	0.521240	0.359250	0.889740
O71	O7	0.730300	0.428900	0.793770
H31	H3	0.814400	0.446500	0.864870
O81	O8	0.427000	0.148500	0.792670
O91	O9	0.532700	0.967100	0.663670
Al41	Al4	0.161990	0.640750	0.776930
O101	O10	0.301400	0.571100	0.872900
H41	H4	0.367900	0.553500	0.801800
O111	O11	0.278500	0.851500	0.874000
O121	O12	0.565600	0.032900	0.003000
Al51	Al5	0.478760	0.838010	0.443600
O131	O13	0.269700	0.698600	0.539570
H51	H5	0.185600	0.632100	0.468470
O141	O14	0.573000	0.721500	0.540670
O151	O15	0.467300	0.434400	0.669670
Al61	Al6	0.359250	0.521240	0.110260
O161	O16	0.428900	0.730300	0.206230
H61	H6	0.446500	0.814400	0.135130
O171	O17	0.148500	0.427000	0.207330
O181	O18	0.967100	0.532700	0.336330
P11	P1	0.000000	0.449360	0.166670
P21	P2	0.550640	0.550640	0.500000
P31	P3	0.449360	0.000000	0.833330
F11	F1	0.682200	0.000000	0.333330
F21	F2	0.431700	0.000000	0.333330
F31	F3	0.000000	0.682200	0.666670
F41	F4	0.000000	0.431700	0.666670
F51	F5	0.317800	0.317800	0.000000
F61	F6	0.568300	0.568300	0.000000
