data_MITTAL_charged_PM
_symmetry_space_group_name_H-M	'P1'
_cell_length_a	10.223500
_cell_length_b	12.989400
_cell_length_c	30.487000
_cell_angle_alpha	90.000000
_cell_angle_beta	91.993000
_cell_angle_gamma	90.000000
_symmetry_Int_Tables_number 1

loop_
_symmetry_equiv_pos_as_xyz
'x,y,z'

loop_
_atom_site_label
_atom_site_type_symbol
_atom_site_fract_x
_atom_site_fract_y
_atom_site_fract_z
Cd11	Cd1	0.229190	0.619500	0.815610
Cd21	Cd2	0.455170	0.476760	0.870200
Cd31	Cd3	0.770810	0.119500	0.684390
Cd41	Cd4	0.544830	0.976760	0.629800
Cd51	Cd5	0.770810	0.380500	0.184390
Cd61	Cd6	0.544830	0.523240	0.129800
Cd71	Cd7	0.229190	0.880500	0.315610
Cd81	Cd8	0.455170	0.023240	0.370200
H11	H1	0.169200	0.795800	0.938900
H21	H2	0.282200	0.762700	0.064800
H31	H3	0.361000	0.541300	0.977700
H41	H4	0.078800	0.321500	0.759800
H51	H5	0.228000	0.111500	0.678800
H61	H6	0.470100	0.285800	0.755200
H71	H7	0.830800	0.295800	0.561100
H81	H8	0.717800	0.262700	0.435200
H91	H9	0.639000	0.041300	0.522300
H101	H10	0.921200	0.821500	0.740200
H111	H11	0.772000	0.611500	0.821200
H121	H12	0.529900	0.785800	0.744800
H131	H13	0.830800	0.204200	0.061100
H141	H14	0.717800	0.237300	0.935200
H151	H15	0.639000	0.458700	0.022300
H161	H16	0.921200	0.678500	0.240200
H171	H17	0.772000	0.888500	0.321200
H181	H18	0.529900	0.714200	0.244800
H191	H19	0.169200	0.704200	0.438900
H201	H20	0.282200	0.737300	0.564800
H211	H21	0.361000	0.958700	0.477700
H221	H22	0.078800	0.178500	0.259800
H231	H23	0.228000	0.388500	0.178800
H241	H24	0.470100	0.214200	0.255200
C11	C1	0.272400	0.623800	0.904830
C21	C2	0.271100	0.664300	0.951620
C31	C3	0.210500	0.757600	0.961130
C41	C4	0.212600	0.792400	0.003630
C51	C5	0.277000	0.736900	0.036360
C61	C6	0.334400	0.642300	0.027020
C71	C7	0.327300	0.605800	0.984170
C81	C8	0.143000	0.889400	0.016340
C91	C9	0.400900	0.577200	0.061840
C101	C10	0.297900	0.402400	0.795080
C111	C11	0.279000	0.316600	0.761350
C121	C12	0.150800	0.288600	0.748360
C131	C13	0.134800	0.208200	0.717110
C141	C14	0.240400	0.163200	0.699680
C151	C15	0.369500	0.193100	0.712530
C161	C16	0.386400	0.268400	0.744860
C171	C17	0.999100	0.171400	0.703270
C181	C18	0.483600	0.144500	0.690870
C191	C19	0.727600	0.123800	0.595170
C201	C20	0.728900	0.164300	0.548380
C211	C21	0.789500	0.257600	0.538870
C221	C22	0.787400	0.292400	0.496370
C231	C23	0.723000	0.236900	0.463640
C241	C24	0.665600	0.142300	0.472980
C251	C25	0.672700	0.105800	0.515830
C261	C26	0.857000	0.389400	0.483660
C271	C27	0.599100	0.077200	0.438160
C281	C28	0.702100	0.902400	0.704920
C291	C29	0.721000	0.816600	0.738650
C301	C30	0.849200	0.788600	0.751640
C311	C31	0.865200	0.708200	0.782890
C321	C32	0.759600	0.663200	0.800320
C331	C33	0.630500	0.693100	0.787470
C341	C34	0.613600	0.768400	0.755140
C351	C35	0.000900	0.671400	0.796730
C361	C36	0.516400	0.644500	0.809130
C371	C37	0.727600	0.376200	0.095170
C381	C38	0.728900	0.335700	0.048380
C391	C39	0.789500	0.242400	0.038870
C401	C40	0.787400	0.207600	0.996370
C411	C41	0.723000	0.263100	0.963640
C421	C42	0.665600	0.357700	0.972980
C431	C43	0.672700	0.394200	0.015830
C441	C44	0.857000	0.110600	0.983660
C451	C45	0.599100	0.422800	0.938160
C461	C46	0.702100	0.597600	0.204920
C471	C47	0.721000	0.683400	0.238650
C481	C48	0.849200	0.711400	0.251640
C491	C49	0.865200	0.791800	0.282890
C501	C50	0.759600	0.836800	0.300320
C511	C51	0.630500	0.806900	0.287470
C521	C52	0.613600	0.731600	0.255140
C531	C53	0.000900	0.828600	0.296730
C541	C54	0.516400	0.855500	0.309130
C551	C55	0.272400	0.876200	0.404830
C561	C56	0.271100	0.835700	0.451620
C571	C57	0.210500	0.742400	0.461130
C581	C58	0.212600	0.707600	0.503630
C591	C59	0.277000	0.763100	0.536360
C601	C60	0.334400	0.857700	0.527020
C611	C61	0.327300	0.894200	0.484170
C621	C62	0.143000	0.610600	0.516340
C631	C63	0.400900	0.922800	0.561840
C641	C64	0.297900	0.097600	0.295080
C651	C65	0.279000	0.183400	0.261350
C661	C66	0.150800	0.211400	0.248360
C671	C67	0.134800	0.291800	0.217110
C681	C68	0.240400	0.336800	0.199680
C691	C69	0.369500	0.306900	0.212530
C701	C70	0.386400	0.231600	0.244860
C711	C71	0.999100	0.328600	0.203270
C721	C72	0.483600	0.355500	0.190870
O11	O1	0.245300	0.685400	0.875340
O21	O2	0.302900	0.532820	0.899390
O31	O3	0.068000	0.928700	0.986080
O41	O4	0.122800	0.898500	0.058100
O51	O5	0.411100	0.482800	0.056530
O61	O6	0.445500	0.626300	0.095300
O71	O7	0.220900	0.475250	0.793270
O81	O8	0.395900	0.391250	0.820980
O91	O9	0.901500	0.205300	0.721180
O101	O10	0.991600	0.105300	0.673110
O111	O11	0.455900	0.088300	0.658490
O121	O12	0.596700	0.161180	0.707310
O131	O13	0.754700	0.185400	0.624660
O141	O14	0.697100	0.032820	0.600610
O151	O15	0.932000	0.428700	0.513920
O161	O16	0.877200	0.398500	0.441900
O171	O17	0.588900	0.982800	0.443470
O181	O18	0.554500	0.126300	0.404700
O191	O19	0.779100	0.975250	0.706730
O201	O20	0.604100	0.891250	0.679020
O211	O21	0.098500	0.705300	0.778820
O221	O22	0.008400	0.605300	0.826890
O231	O23	0.544100	0.588300	0.841510
O241	O24	0.403300	0.661180	0.792690
O251	O25	0.754700	0.314600	0.124660
O261	O26	0.697100	0.467180	0.100610
O271	O27	0.932000	0.071300	0.013920
O281	O28	0.877200	0.101500	0.941900
O291	O29	0.588900	0.517200	0.943470
O301	O30	0.554500	0.373700	0.904700
O311	O31	0.779100	0.524750	0.206730
O321	O32	0.604100	0.608750	0.179020
O331	O33	0.098500	0.794700	0.278820
O341	O34	0.008400	0.894700	0.326890
O351	O35	0.544100	0.911700	0.341510
O361	O36	0.403300	0.838820	0.292690
O371	O37	0.245300	0.814600	0.375340
O381	O38	0.302900	0.967180	0.399390
O391	O39	0.068000	0.571300	0.486080
O401	O40	0.122800	0.601500	0.558100
O411	O41	0.411100	0.017200	0.556530
O421	O42	0.445500	0.873700	0.595300
O431	O43	0.220900	0.024750	0.293270
O441	O44	0.395900	0.108750	0.320980
O451	O45	0.901500	0.294700	0.221180
O461	O46	0.991600	0.394700	0.173110
O471	O47	0.455900	0.411700	0.158490
O481	O48	0.596700	0.338820	0.207310
H251	H25	0.063600	0.053900	0.879500
H261	H26	0.077000	0.940100	0.864300
H271	H27	0.027000	0.009900	0.792300
H281	H28	0.073200	0.113600	0.814200
H291	H29	0.244500	0.028700	0.840400
H301	H30	0.238300	0.069900	0.793700
H311	H31	0.412000	0.990500	0.816900
H321	H32	0.336000	0.886100	0.811700
H331	H33	0.354500	0.957000	0.770700
H341	H34	0.908700	0.043700	0.803500
H351	H35	0.766700	0.010600	0.814100
H361	H36	0.886500	0.189200	0.822100
H371	H37	0.811800	0.161300	0.863100
H381	H38	0.657700	0.246000	0.846600
H391	H39	0.657700	0.217600	0.796900
H401	H40	0.689500	0.386200	0.802100
H411	H41	0.804000	0.372400	0.837100
H421	H42	0.823100	0.338900	0.788400
H431	H43	0.916500	0.853200	0.895200
H441	H44	0.851800	0.841900	0.848500
H451	H45	0.695900	0.927400	0.906900
H461	H46	0.663000	0.847500	0.870300
H471	H47	0.630100	0.816300	0.945700
H481	H48	0.652300	0.730000	0.911900
H491	H49	0.732600	0.674400	0.972900
H501	H50	0.855900	0.703400	0.946400
H511	H51	0.808300	0.776900	0.983400
C731	C73	0.033200	0.004600	0.857500
C741	C74	0.080700	0.039300	0.816000
C751	C75	0.217200	0.009400	0.810700
C761	C76	0.340700	0.956100	0.801700
C771	C77	0.843400	0.046700	0.825800
C781	C78	0.806600	0.156600	0.831300
C791	C79	0.713300	0.239700	0.821600
C801	C80	0.761700	0.343300	0.811400
C811	C81	0.850100	0.882000	0.875300
C821	C82	0.723400	0.862100	0.894800
C831	C83	0.696600	0.784700	0.928200
C841	C84	0.781000	0.730000	0.960500
N11	N1	0.894400	0.988400	0.864100
H521	H52	0.936400	0.553900	0.620500
H531	H53	0.923000	0.440100	0.635700
H541	H54	0.973000	0.509900	0.707700
H551	H55	0.926800	0.613600	0.685800
H561	H56	0.755500	0.528700	0.659600
H571	H57	0.761700	0.569900	0.706300
H581	H58	0.588000	0.490500	0.683100
H591	H59	0.664000	0.386100	0.688300
H601	H60	0.645500	0.457000	0.729300
H611	H61	0.091300	0.543700	0.696500
H621	H62	0.233300	0.510600	0.685900
H631	H63	0.113500	0.689200	0.677900
H641	H64	0.188200	0.661300	0.636900
H651	H65	0.342300	0.746000	0.653400
H661	H66	0.342300	0.717600	0.703100
H671	H67	0.310500	0.886200	0.697900
H681	H68	0.196000	0.872400	0.662900
H691	H69	0.176900	0.838900	0.711600
H701	H70	0.083500	0.353200	0.604800
H711	H71	0.148200	0.341900	0.651500
H721	H72	0.304100	0.427400	0.593100
H731	H73	0.337000	0.347500	0.629700
H741	H74	0.369900	0.316300	0.554300
H751	H75	0.347700	0.230000	0.588100
H761	H76	0.267400	0.174400	0.527100
H771	H77	0.144100	0.203400	0.553600
H781	H78	0.191700	0.276900	0.516600
C851	C85	0.966800	0.504600	0.642500
C861	C86	0.919300	0.539300	0.684000
C871	C87	0.782800	0.509400	0.689300
C881	C88	0.659300	0.456100	0.698300
C891	C89	0.156600	0.546700	0.674200
C901	C90	0.193400	0.656600	0.668700
C911	C91	0.286700	0.739700	0.678400
C921	C92	0.238300	0.843300	0.688600
C931	C93	0.149900	0.382000	0.624700
C941	C94	0.276600	0.362100	0.605200
C951	C95	0.303400	0.284700	0.571800
C961	C96	0.219000	0.230000	0.539500
N21	N2	0.105600	0.488400	0.635900
H791	H79	0.936400	0.946100	0.120500
H801	H80	0.923000	0.059900	0.135700
H811	H81	0.973000	0.990100	0.207700
H821	H82	0.926800	0.886400	0.185800
H831	H83	0.755500	0.971300	0.159600
H841	H84	0.761700	0.930100	0.206300
H851	H85	0.588000	0.009500	0.183100
H861	H86	0.664000	0.113900	0.188300
H871	H87	0.645500	0.043000	0.229300
H881	H88	0.091300	0.956300	0.196500
H891	H89	0.233300	0.989400	0.185900
H901	H90	0.113500	0.810800	0.177900
H911	H91	0.188200	0.838700	0.136900
H921	H92	0.342300	0.754000	0.153400
H931	H93	0.342300	0.782400	0.203100
H941	H94	0.310500	0.613800	0.197900
H951	H95	0.196000	0.627600	0.162900
H961	H96	0.176900	0.661100	0.211600
H971	H97	0.083500	0.146800	0.104800
H981	H98	0.148200	0.158100	0.151500
H991	H99	0.304100	0.072600	0.093100
H1001	H100	0.337000	0.152500	0.129700
H1011	H101	0.369900	0.183700	0.054300
H1021	H102	0.347700	0.270000	0.088100
H1031	H103	0.267400	0.325600	0.027100
H1041	H104	0.144100	0.296600	0.053600
H1051	H105	0.191700	0.223100	0.016600
C971	C97	0.966800	0.995400	0.142500
C981	C98	0.919300	0.960700	0.184000
C991	C99	0.782800	0.990600	0.189300
C1001	C100	0.659300	0.043900	0.198300
C1011	C101	0.156600	0.953300	0.174200
C1021	C102	0.193400	0.843400	0.168700
C1031	C103	0.286700	0.760300	0.178400
C1041	C104	0.238300	0.656700	0.188600
C1051	C105	0.149900	0.118000	0.124700
C1061	C106	0.276600	0.137900	0.105200
C1071	C107	0.303400	0.215300	0.071800
C1081	C108	0.219000	0.270000	0.039500
N31	N3	0.105600	0.011600	0.135900
H1061	H106	0.063600	0.446100	0.379500
H1071	H107	0.077000	0.559900	0.364300
H1081	H108	0.027000	0.490100	0.292300
H1091	H109	0.073200	0.386400	0.314200
H1101	H110	0.244500	0.471300	0.340400
H1111	H111	0.238300	0.430100	0.293700
H1121	H112	0.412000	0.509500	0.316900
H1131	H113	0.336000	0.613900	0.311700
H1141	H114	0.354500	0.543000	0.270700
H1151	H115	0.908700	0.456300	0.303500
H1161	H116	0.766700	0.489400	0.314100
H1171	H117	0.886500	0.310800	0.322100
H1181	H118	0.811800	0.338700	0.363100
H1191	H119	0.657700	0.254000	0.346600
H1201	H120	0.657700	0.282400	0.296900
H1211	H121	0.689500	0.113800	0.302100
H1221	H122	0.804000	0.127600	0.337100
H1231	H123	0.823100	0.161100	0.288400
H1241	H124	0.916500	0.646800	0.395200
H1251	H125	0.851800	0.658100	0.348500
H1261	H126	0.695900	0.572600	0.406900
H1271	H127	0.663000	0.652500	0.370300
H1281	H128	0.630100	0.683700	0.445700
H1291	H129	0.652300	0.770000	0.411900
H1301	H130	0.732600	0.825600	0.472900
H1311	H131	0.855900	0.796600	0.446400
H1321	H132	0.808300	0.723100	0.483400
C1091	C109	0.033200	0.495400	0.357500
C1101	C110	0.080700	0.460700	0.316000
C1111	C111	0.217200	0.490600	0.310700
C1121	C112	0.340700	0.543900	0.301700
C1131	C113	0.843400	0.453300	0.325800
C1141	C114	0.806600	0.343400	0.331300
C1151	C115	0.713300	0.260300	0.321600
C1161	C116	0.761700	0.156700	0.311400
C1171	C117	0.850100	0.618000	0.375300
C1181	C118	0.723400	0.637900	0.394800
C1191	C119	0.696600	0.715300	0.428200
C1201	C120	0.781000	0.770000	0.460500
N41	N4	0.894400	0.511600	0.364100
