data_MIVFEE_clean_PM
_symmetry_space_group_name_H-M	'P1'
_cell_length_a	18.485200
_cell_length_b	18.485200
_cell_length_c	18.485200
_cell_angle_alpha	90.000000
_cell_angle_beta	90.000000
_cell_angle_gamma	90.000000
_symmetry_Int_Tables_number 1

loop_
_symmetry_equiv_pos_as_xyz
'x,y,z'

loop_
_atom_site_label
_atom_site_type_symbol
_atom_site_fract_x
_atom_site_fract_y
_atom_site_fract_z
N11	N1	0.420300	0.369700	0.075000
N21	N2	0.409500	0.324700	0.130400
N31	N3	0.579700	0.630300	0.075000
N41	N4	0.590500	0.675300	0.130400
N51	N5	0.579700	0.369700	0.925000
N61	N6	0.590500	0.324700	0.869600
N71	N7	0.420300	0.630300	0.925000
N81	N8	0.409500	0.675300	0.869600
N91	N9	0.075000	0.420300	0.369700
N101	N10	0.130400	0.409500	0.324700
N111	N11	0.075000	0.579700	0.630300
N121	N12	0.130400	0.590500	0.675300
N131	N13	0.925000	0.579700	0.369700
N141	N14	0.869600	0.590500	0.324700
N151	N15	0.925000	0.420300	0.630300
N161	N16	0.869600	0.409500	0.675300
N171	N17	0.369700	0.075000	0.420300
N181	N18	0.324700	0.130400	0.409500
N191	N19	0.630300	0.075000	0.579700
N201	N20	0.675300	0.130400	0.590500
N211	N21	0.369700	0.925000	0.579700
N221	N22	0.324700	0.869600	0.590500
N231	N23	0.630300	0.925000	0.420300
N241	N24	0.675300	0.869600	0.409500
N251	N25	0.369700	0.420300	0.925000
N261	N26	0.324700	0.409500	0.869600
N271	N27	0.630300	0.579700	0.925000
N281	N28	0.675300	0.590500	0.869600
N291	N29	0.369700	0.579700	0.075000
N301	N30	0.324700	0.590500	0.130400
N311	N31	0.630300	0.420300	0.075000
N321	N32	0.675300	0.409500	0.130400
N331	N33	0.420300	0.075000	0.630300
N341	N34	0.409500	0.130400	0.675300
N351	N35	0.579700	0.075000	0.369700
N361	N36	0.590500	0.130400	0.324700
N371	N37	0.579700	0.925000	0.630300
N381	N38	0.590500	0.869600	0.675300
N391	N39	0.420300	0.925000	0.369700
N401	N40	0.409500	0.869600	0.324700
N411	N41	0.075000	0.369700	0.579700
N421	N42	0.130400	0.324700	0.590500
N431	N43	0.075000	0.630300	0.420300
N441	N44	0.130400	0.675300	0.409500
N451	N45	0.925000	0.369700	0.420300
N461	N46	0.869600	0.324700	0.409500
N471	N47	0.925000	0.630300	0.579700
N481	N48	0.869600	0.675300	0.590500
N491	N49	0.579700	0.630300	0.925000
N501	N50	0.590500	0.675300	0.869600
N511	N51	0.420300	0.369700	0.925000
N521	N52	0.409500	0.324700	0.869600
N531	N53	0.420300	0.630300	0.075000
N541	N54	0.409500	0.675300	0.130400
N551	N55	0.579700	0.369700	0.075000
N561	N56	0.590500	0.324700	0.130400
N571	N57	0.925000	0.579700	0.630300
N581	N58	0.869600	0.590500	0.675300
N591	N59	0.925000	0.420300	0.369700
N601	N60	0.869600	0.409500	0.324700
N611	N61	0.075000	0.420300	0.630300
N621	N62	0.130400	0.409500	0.675300
N631	N63	0.075000	0.579700	0.369700
N641	N64	0.130400	0.590500	0.324700
N651	N65	0.630300	0.925000	0.579700
N661	N66	0.675300	0.869600	0.590500
N671	N67	0.369700	0.925000	0.420300
N681	N68	0.324700	0.869600	0.409500
N691	N69	0.630300	0.075000	0.420300
N701	N70	0.675300	0.130400	0.409500
N711	N71	0.369700	0.075000	0.579700
N721	N72	0.324700	0.130400	0.590500
N731	N73	0.630300	0.579700	0.075000
N741	N74	0.675300	0.590500	0.130400
N751	N75	0.369700	0.420300	0.075000
N761	N76	0.324700	0.409500	0.130400
N771	N77	0.630300	0.420300	0.925000
N781	N78	0.675300	0.409500	0.869600
N791	N79	0.369700	0.579700	0.925000
N801	N80	0.324700	0.590500	0.869600
N811	N81	0.579700	0.925000	0.369700
N821	N82	0.590500	0.869600	0.324700
N831	N83	0.420300	0.925000	0.630300
N841	N84	0.409500	0.869600	0.675300
N851	N85	0.420300	0.075000	0.369700
N861	N86	0.409500	0.130400	0.324700
N871	N87	0.579700	0.075000	0.630300
N881	N88	0.590500	0.130400	0.675300
N891	N89	0.925000	0.630300	0.420300
N901	N90	0.869600	0.675300	0.409500
N911	N91	0.925000	0.369700	0.579700
N921	N92	0.869600	0.324700	0.590500
N931	N93	0.075000	0.630300	0.579700
N941	N94	0.130400	0.675300	0.590500
N951	N95	0.075000	0.369700	0.420300
N961	N96	0.130400	0.324700	0.409500
Cu11	Cu1	0.500000	0.363600	0.000000
Mn11	Mn1	0.500000	0.348000	0.000000
Cu21	Cu2	0.500000	0.636400	0.000000
Mn21	Mn2	0.500000	0.652000	0.000000
Cu31	Cu3	0.000000	0.500000	0.363600
Mn31	Mn3	0.000000	0.500000	0.348000
Cu41	Cu4	0.000000	0.500000	0.636400
Mn41	Mn4	0.000000	0.500000	0.652000
Cu51	Cu5	0.363600	0.000000	0.500000
Mn51	Mn5	0.348000	0.000000	0.500000
Cu61	Cu6	0.636400	0.000000	0.500000
Mn61	Mn6	0.652000	0.000000	0.500000
Cu71	Cu7	0.363600	0.500000	0.000000
Mn71	Mn7	0.348000	0.500000	0.000000
Cu81	Cu8	0.636400	0.500000	0.000000
Mn81	Mn8	0.652000	0.500000	0.000000
Cu91	Cu9	0.500000	0.000000	0.636400
Mn91	Mn9	0.500000	0.000000	0.652000
Cu101	Cu10	0.500000	0.000000	0.363600
Mn101	Mn10	0.500000	0.000000	0.348000
Cu111	Cu11	0.000000	0.363600	0.500000
Mn111	Mn11	0.000000	0.348000	0.500000
Cu121	Cu12	0.000000	0.636400	0.500000
Mn121	Mn12	0.000000	0.652000	0.500000
Cl11	Cl1	0.500000	0.500000	0.000000
Cl21	Cl2	0.000000	0.500000	0.500000
Cl31	Cl3	0.500000	0.000000	0.500000
Cu131	Cu13	0.500000	0.256500	0.137000
Cu141	Cu14	0.500000	0.743500	0.137000
Cu151	Cu15	0.500000	0.256500	0.863000
Cu161	Cu16	0.500000	0.743500	0.863000
Cu171	Cu17	0.137000	0.500000	0.256500
Cu181	Cu18	0.137000	0.500000	0.743500
Cu191	Cu19	0.863000	0.500000	0.256500
Cu201	Cu20	0.863000	0.500000	0.743500
Cu211	Cu21	0.256500	0.137000	0.500000
Cu221	Cu22	0.743500	0.137000	0.500000
Cu231	Cu23	0.256500	0.863000	0.500000
Cu241	Cu24	0.743500	0.863000	0.500000
Cu251	Cu25	0.256500	0.500000	0.863000
Cu261	Cu26	0.743500	0.500000	0.863000
Cu271	Cu27	0.256500	0.500000	0.137000
Cu281	Cu28	0.743500	0.500000	0.137000
Cu291	Cu29	0.500000	0.137000	0.743500
Cu301	Cu30	0.500000	0.137000	0.256500
Cu311	Cu31	0.500000	0.863000	0.743500
Cu321	Cu32	0.500000	0.863000	0.256500
Cu331	Cu33	0.137000	0.256500	0.500000
Cu341	Cu34	0.137000	0.743500	0.500000
Cu351	Cu35	0.863000	0.256500	0.500000
Cu361	Cu36	0.863000	0.743500	0.500000
C11	C1	0.350800	0.350800	0.162300
C21	C2	0.319100	0.319100	0.227600
C31	C3	0.649200	0.649200	0.162300
C41	C4	0.680900	0.680900	0.227600
C51	C5	0.649200	0.350800	0.837700
C61	C6	0.680900	0.319100	0.772400
C71	C7	0.350800	0.649200	0.837700
C81	C8	0.319100	0.680900	0.772400
C91	C9	0.162300	0.350800	0.350800
C101	C10	0.227600	0.319100	0.319100
C111	C11	0.162300	0.649200	0.649200
C121	C12	0.227600	0.680900	0.680900
C131	C13	0.837700	0.649200	0.350800
C141	C14	0.772400	0.680900	0.319100
C151	C15	0.837700	0.350800	0.649200
C161	C16	0.772400	0.319100	0.680900
C171	C17	0.350800	0.162300	0.350800
C181	C18	0.319100	0.227600	0.319100
C191	C19	0.649200	0.162300	0.649200
C201	C20	0.680900	0.227600	0.680900
C211	C21	0.350800	0.837700	0.649200
C221	C22	0.319100	0.772400	0.680900
C231	C23	0.649200	0.837700	0.350800
C241	C24	0.680900	0.772400	0.319100
C251	C25	0.350800	0.350800	0.837700
C261	C26	0.319100	0.319100	0.772400
C271	C27	0.649200	0.649200	0.837700
C281	C28	0.680900	0.680900	0.772400
C291	C29	0.350800	0.649200	0.162300
C301	C30	0.319100	0.680900	0.227600
C311	C31	0.649200	0.350800	0.162300
C321	C32	0.680900	0.319100	0.227600
C331	C33	0.350800	0.162300	0.649200
C341	C34	0.319100	0.227600	0.680900
C351	C35	0.649200	0.162300	0.350800
C361	C36	0.680900	0.227600	0.319100
C371	C37	0.649200	0.837700	0.649200
C381	C38	0.680900	0.772400	0.680900
C391	C39	0.350800	0.837700	0.350800
C401	C40	0.319100	0.772400	0.319100
C411	C41	0.162300	0.350800	0.649200
C421	C42	0.227600	0.319100	0.680900
C431	C43	0.162300	0.649200	0.350800
C441	C44	0.227600	0.680900	0.319100
C451	C45	0.837700	0.350800	0.350800
C461	C46	0.772400	0.319100	0.319100
C471	C47	0.837700	0.649200	0.649200
C481	C48	0.772400	0.680900	0.680900
C491	C49	0.348400	0.257700	0.257700
H11	H1	0.388500	0.236150	0.236150
C501	C50	0.651600	0.742300	0.257700
H21	H2	0.611500	0.763850	0.236150
C511	C51	0.651600	0.257700	0.742300
H31	H3	0.611500	0.236150	0.763850
C521	C52	0.348400	0.742300	0.742300
H41	H4	0.388500	0.763850	0.763850
C531	C53	0.257700	0.348400	0.257700
H51	H5	0.236150	0.388500	0.236150
C541	C54	0.257700	0.651600	0.742300
H61	H6	0.236150	0.611500	0.763850
C551	C55	0.742300	0.651600	0.257700
H71	H7	0.763850	0.611500	0.236150
C561	C56	0.742300	0.348400	0.742300
H81	H8	0.763850	0.388500	0.763850
C571	C57	0.257700	0.257700	0.348400
H91	H9	0.236150	0.236150	0.388500
C581	C58	0.742300	0.257700	0.651600
H101	H10	0.763850	0.236150	0.611500
C591	C59	0.257700	0.742300	0.651600
H111	H11	0.236150	0.763850	0.611500
C601	C60	0.742300	0.742300	0.348400
H121	H12	0.763850	0.763850	0.388500
C611	C61	0.257700	0.348400	0.742300
H131	H13	0.236150	0.388500	0.763850
C621	C62	0.742300	0.651600	0.742300
H141	H14	0.763850	0.611500	0.763850
C631	C63	0.257700	0.651600	0.257700
H151	H15	0.236150	0.611500	0.236150
C641	C64	0.742300	0.348400	0.257700
H161	H16	0.763850	0.388500	0.236150
C651	C65	0.348400	0.257700	0.742300
H171	H17	0.388500	0.236150	0.763850
C661	C66	0.651600	0.257700	0.257700
H181	H18	0.611500	0.236150	0.236150
C671	C67	0.651600	0.742300	0.742300
H191	H19	0.611500	0.763850	0.763850
C681	C68	0.348400	0.742300	0.257700
H201	H20	0.388500	0.763850	0.236150
C691	C69	0.257700	0.257700	0.651600
H211	H21	0.236150	0.236150	0.611500
C701	C70	0.257700	0.742300	0.348400
H221	H22	0.236150	0.763850	0.388500
C711	C71	0.742300	0.257700	0.348400
H231	H23	0.763850	0.236150	0.388500
C721	C72	0.742300	0.742300	0.651600
H241	H24	0.763850	0.763850	0.611500
