data_MIVNUB_clean_PM
_symmetry_space_group_name_H-M	'P1'
_cell_length_a	6.600800
_cell_length_b	12.825000
_cell_length_c	13.310000
_cell_angle_alpha	90.000000
_cell_angle_beta	103.630000
_cell_angle_gamma	90.000000
_symmetry_Int_Tables_number 1

loop_
_symmetry_equiv_pos_as_xyz
'x,y,z'

loop_
_atom_site_label
_atom_site_type_symbol
_atom_site_fract_x
_atom_site_fract_y
_atom_site_fract_z
Lu11	Lu1	0.260930	0.076190	0.705520
Lu21	Lu2	0.239070	0.576190	0.294480
Lu31	Lu3	0.739070	0.923810	0.294480
Lu41	Lu4	0.760930	0.423810	0.705520
H11	H1	0.124500	0.057700	0.971200
H21	H2	0.094100	0.367400	0.988700
H31	H3	0.252800	0.190900	0.241300
H41	H4	0.375500	0.557700	0.028800
H51	H5	0.405900	0.867400	0.011300
H61	H6	0.247200	0.690900	0.758700
H71	H7	0.875500	0.942300	0.028800
H81	H8	0.905900	0.632600	0.011300
H91	H9	0.747200	0.809100	0.758700
H101	H10	0.624500	0.442300	0.971200
H111	H11	0.594100	0.132600	0.988700
H121	H12	0.752800	0.309100	0.241300
C11	C1	0.137200	0.117900	0.011100
C21	C2	0.097000	0.213400	0.961000
C31	C3	0.120300	0.302300	0.019900
C41	C4	0.183300	0.293800	0.126300
C51	C5	0.214700	0.196000	0.169600
C61	C6	0.024800	0.223100	0.846000
C71	C7	0.212000	0.390500	0.190400
C81	C8	0.899100	0.005900	0.519500
C91	C9	0.362800	0.617900	0.988900
C101	C10	0.403000	0.713400	0.039000
C111	C11	0.379700	0.802300	0.980100
C121	C12	0.316700	0.793800	0.873700
C131	C13	0.285300	0.696000	0.830400
C141	C14	0.475200	0.723100	0.154000
C151	C15	0.288000	0.890500	0.809600
C161	C16	0.600900	0.505900	0.480500
C171	C17	0.862800	0.882100	0.988900
C181	C18	0.903000	0.786600	0.039000
C191	C19	0.879700	0.697700	0.980100
C201	C20	0.816700	0.706200	0.873700
C211	C21	0.785300	0.804000	0.830400
C221	C22	0.975200	0.776900	0.154000
C231	C23	0.788000	0.609500	0.809600
C241	C24	0.100900	0.994100	0.480500
C251	C25	0.637200	0.382100	0.011100
C261	C26	0.597000	0.286600	0.961000
C271	C27	0.620300	0.197700	0.019900
C281	C28	0.683300	0.206200	0.126300
C291	C29	0.714700	0.304000	0.169600
C301	C30	0.524800	0.276900	0.846000
C311	C31	0.712000	0.109500	0.190400
C321	C32	0.399100	0.494100	0.519500
N11	N1	0.193400	0.108300	0.114500
N21	N2	0.306600	0.608300	0.885500
N31	N3	0.806600	0.891700	0.885500
N41	N4	0.693400	0.391700	0.114500
O11	O1	0.029100	0.143700	0.788300
O21	O2	0.957500	0.309600	0.813800
O31	O3	0.167000	0.478300	0.145500
O41	O4	0.277900	0.386800	0.287400
O51	O5	0.920900	0.045200	0.607900
O61	O6	0.734700	0.976700	0.461200
O71	O7	0.470900	0.643700	0.211700
O81	O8	0.542500	0.809600	0.186200
O91	O9	0.333000	0.978300	0.854500
O101	O10	0.222100	0.886800	0.712600
O111	O11	0.579100	0.545200	0.392100
O121	O12	0.765300	0.476700	0.538800
O131	O13	0.970900	0.856300	0.211700
O141	O14	0.042500	0.690400	0.186200
O151	O15	0.833000	0.521700	0.854500
O161	O16	0.722100	0.613200	0.712600
O171	O17	0.079100	0.954800	0.392100
O181	O18	0.265300	0.023300	0.538800
O191	O19	0.529100	0.356300	0.788300
O201	O20	0.457500	0.190400	0.813800
O211	O21	0.667000	0.021700	0.145500
O221	O22	0.777900	0.113200	0.287400
O231	O23	0.420900	0.454800	0.607900
O241	O24	0.234700	0.523300	0.461200
