data_MIVPAJ_clean_PM
_symmetry_space_group_name_H-M	'P1'
_cell_length_a	7.643500
_cell_length_b	9.840000
_cell_length_c	14.785000
_cell_angle_alpha	90.000000
_cell_angle_beta	98.270000
_cell_angle_gamma	90.000000
_symmetry_Int_Tables_number 1

loop_
_symmetry_equiv_pos_as_xyz
'x,y,z'

loop_
_atom_site_label
_atom_site_type_symbol
_atom_site_fract_x
_atom_site_fract_y
_atom_site_fract_z
Gd11	Gd1	0.852000	0.045040	0.639220
Gd21	Gd2	0.648000	0.545040	0.860780
Gd31	Gd3	0.148000	0.954960	0.360790
Gd41	Gd4	0.352000	0.454960	0.139220
H11	H1	0.615200	0.301700	0.484700
H21	H2	0.826000	0.613700	0.635500
H31	H3	0.796800	0.610200	0.363100
H41	H4	0.884800	0.801700	0.015300
H51	H5	0.674000	0.113700	0.864500
H61	H6	0.703200	0.110200	0.136900
H71	H7	0.384800	0.698300	0.515300
H81	H8	0.174000	0.386300	0.364500
H91	H9	0.203200	0.389800	0.636900
H101	H10	0.115200	0.198300	0.984700
H111	H11	0.326000	0.886300	0.135500
H121	H12	0.296800	0.889800	0.863100
C11	C1	0.669200	0.386600	0.488130
C21	C2	0.721100	0.442100	0.573890
C31	C3	0.796300	0.570700	0.579360
C41	C4	0.826200	0.633500	0.499040
C51	C5	0.774000	0.568300	0.416560
C61	C6	0.692000	0.362700	0.656930
C71	C7	0.911300	0.771500	0.500670
C81	C8	0.456800	0.968400	0.539020
C91	C9	0.830800	0.886600	0.011870
C101	C10	0.778900	0.942100	0.926110
C111	C11	0.703700	0.070700	0.920640
C121	C12	0.673800	0.133500	0.000960
C131	C13	0.726000	0.068300	0.083440
C141	C14	0.808000	0.862700	0.843070
C151	C15	0.588700	0.271500	0.999330
C161	C16	0.043200	0.468400	0.960980
C171	C17	0.330800	0.613400	0.511870
C181	C18	0.278900	0.557900	0.426110
C191	C19	0.203700	0.429300	0.420640
C201	C20	0.173800	0.366500	0.500960
C211	C21	0.226000	0.431700	0.583440
C221	C22	0.308000	0.637300	0.343070
C231	C23	0.088700	0.228500	0.499330
C241	C24	0.543200	0.031600	0.460980
C251	C25	0.169200	0.113400	0.988130
C261	C26	0.221100	0.057900	0.073890
C271	C27	0.296300	0.929300	0.079360
C281	C28	0.326200	0.866500	0.999040
C291	C29	0.274000	0.931700	0.916560
C301	C30	0.192000	0.137300	0.156930
C311	C31	0.411300	0.728500	0.000670
C321	C32	0.956800	0.531600	0.039020
N11	N1	0.692100	0.447460	0.410370
N21	N2	0.807900	0.947460	0.089630
N31	N3	0.307900	0.552540	0.589630
N41	N4	0.192100	0.052540	0.910370
O11	O1	0.666190	0.235980	0.646870
O21	O2	0.695200	0.423320	0.730850
O31	O3	0.908800	0.841900	0.570800
O41	O4	0.978700	0.805870	0.432430
O51	O5	0.552700	0.951980	0.614230
O61	O6	0.296530	0.936870	0.520670
O71	O7	0.833810	0.735980	0.853130
O81	O8	0.804800	0.923320	0.769150
O91	O9	0.591200	0.341900	0.929200
O101	O10	0.521300	0.305870	0.067570
O111	O11	0.947300	0.451980	0.885770
O121	O12	0.203470	0.436870	0.979330
O131	O13	0.333810	0.764020	0.353130
O141	O14	0.304800	0.576680	0.269150
O151	O15	0.091200	0.158100	0.429200
O161	O16	0.021300	0.194130	0.567570
O171	O17	0.447300	0.048020	0.385770
O181	O18	0.703470	0.063130	0.479330
O191	O19	0.166190	0.264020	0.146870
O201	O20	0.195200	0.076680	0.230850
O211	O21	0.408800	0.658100	0.070800
O221	O22	0.478700	0.694130	0.932430
O231	O23	0.052700	0.548020	0.114230
O241	O24	0.796530	0.563130	0.020670
