data_MIVWEU_manual_PM
_symmetry_space_group_name_H-M	'P1'
_cell_length_a	45.673600
_cell_length_b	45.673600
_cell_length_c	45.673600
_cell_angle_alpha	94.981900
_cell_angle_beta	94.981900
_cell_angle_gamma	145.722000
_symmetry_Int_Tables_number 1

loop_
_symmetry_equiv_pos_as_xyz
'x,y,z'

loop_
_atom_site_label
_atom_site_type_symbol
_atom_site_fract_x
_atom_site_fract_y
_atom_site_fract_z
Ag11	Ag1	0.042660	0.476380	0.981580
Ag21	Ag2	0.926810	0.410470	0.988640
Ag31	Ag3	0.020230	0.473370	0.477140
Ag41	Ag4	0.607930	0.813450	0.434660
Ag51	Ag5	0.600280	0.767990	0.367910
Ag61	Ag6	0.389560	0.505640	0.223420
Ag71	Ag7	0.439470	0.033280	0.712730
Ag81	Ag8	0.337750	0.987180	0.727530
Ag91	Ag9	0.391400	0.973580	0.770280
Ag101	Ag10	0.799620	0.630470	0.610430
Ag111	Ag11	0.914340	0.720370	0.663730
Ag121	Ag12	0.879950	0.760240	0.636050
Ag131	Ag13	0.388670	0.707810	0.062620
Ag141	Ag14	0.340530	0.642530	0.114540
Ag151	Ag15	0.438100	0.683740	0.087120
Ag161	Ag16	0.873390	0.149690	0.572020
Ag171	Ag17	0.944920	0.271900	0.592240
Ag181	Ag18	0.818170	0.165230	0.539840
Ag191	Ag19	0.224180	0.359510	0.623290
Ag201	Ag20	0.239080	0.405090	0.694050
Ag211	Ag21	0.350190	0.469350	0.678940
Ag221	Ag22	0.532640	0.800160	0.898980
Ag231	Ag23	0.513950	0.747640	0.831510
Ag241	Ag24	0.449260	0.668030	0.880870
Ag251	Ag25	0.644250	0.031350	0.788360
Ag261	Ag26	0.733770	0.159290	0.808620
Ag271	Ag27	0.767450	0.121690	0.841060
Ag281	Ag28	0.462390	0.529960	0.497490
Ag291	Ag29	0.517330	0.522190	0.541420
Ag301	Ag30	0.583060	0.600320	0.492240
N11	N1	0.971240	0.405040	0.947880
N21	N2	0.925980	0.381760	0.950740
N31	N3	0.932100	0.403890	0.508590
N41	N4	0.975380	0.423660	0.505640
N51	N5	0.114690	0.560390	0.043680
N61	N6	0.113250	0.541840	0.017490
N71	N7	0.576990	0.745460	0.428050
N81	N8	0.574100	0.726720	0.400620
N91	N9	0.314700	0.477260	0.176360
N101	N10	0.365990	0.520630	0.196020
N111	N11	0.672160	0.918170	0.425530
N121	N12	0.648070	0.886980	0.445450
N131	N13	0.413310	0.047820	0.688930
N141	N14	0.370350	0.027590	0.694540
N151	N15	0.451960	0.189410	0.643770
N161	N16	0.447780	0.167380	0.617560
N171	N17	0.455950	0.004440	0.761590
N181	N18	0.475700	0.030380	0.739080
N191	N19	0.821100	0.607230	0.624730
N201	N20	0.867660	0.644010	0.648070
N211	N21	0.780860	0.462040	0.665300
N221	N22	0.779390	0.450790	0.635980
N231	N23	0.804640	0.700000	0.603440
N241	N24	0.774910	0.650000	0.594510
N251	N25	0.323850	0.675000	0.072450
N261	N26	0.302590	0.646990	0.093980
N271	N27	0.371330	0.629310	0.131440
N281	N28	0.409360	0.644670	0.121830
N291	N29	0.456820	0.713820	0.048840
N301	N30	0.442250	0.729750	0.043000
N311	N31	0.953480	0.215090	0.598170
N321	N32	0.982640	0.265070	0.607310
N331	N33	0.914750	0.284240	0.571390
N341	N34	0.865820	0.243020	0.549040
N351	N35	0.776420	0.090460	0.525080
N361	N36	0.797630	0.084340	0.539770
N371	N37	0.158260	0.326560	0.632420
N381	N38	0.166330	0.347360	0.661090
N391	N39	0.312460	0.471030	0.727090
N401	N40	0.357850	0.496690	0.721940
N411	N41	0.342980	0.445220	0.635000
N421	N42	0.294160	0.402040	0.613200
N431	N43	0.570360	0.847260	0.868820
N441	N44	0.559850	0.823470	0.840320
N451	N45	0.465130	0.670420	0.819150
N461	N46	0.439660	0.637640	0.838300
N471	N47	0.459650	0.701160	0.922610
N481	N48	0.495790	0.754520	0.929710
N491	N49	0.619210	0.051720	0.774730
N501	N50	0.656670	0.105210	0.783480
N511	N51	0.807170	0.215910	0.841680
N521	N52	0.819740	0.200980	0.856920
N531	N53	0.707950	0.039530	0.829280
N541	N54	0.660350	0.004720	0.807470
N551	N55	0.425260	0.487640	0.529900
N561	N56	0.447030	0.482960	0.546990
N571	N57	0.593220	0.569190	0.542210
N581	N58	0.620320	0.601920	0.523440
N591	N59	0.550220	0.606750	0.465570
N601	N60	0.504350	0.581880	0.469830
C11	C1	0.998390	0.385750	0.917140
C21	C2	0.957090	0.371680	0.925370
C31	C3	0.901070	0.325120	0.912390
C41	C4	0.883170	0.333190	0.929160
C51	C5	0.827030	0.296590	0.926820
C61	C6	0.856790	0.338610	0.531800
C71	C7	0.905030	0.366410	0.523440
C81	C8	0.930860	0.360770	0.530430
C91	C9	0.975660	0.398590	0.518650
C101	C10	0.018440	0.412530	0.519170
C111	C11	0.175380	0.621840	0.095620
C121	C12	0.161690	0.594160	0.064450
C131	C13	0.190450	0.597370	0.052020
C141	C14	0.158680	0.563950	0.022030
C151	C15	0.167700	0.550300	0.997400
C161	C16	0.566440	0.730610	0.479050
C171	C17	0.565800	0.718290	0.447090
C181	C18	0.555170	0.681240	0.433010
C191	C19	0.561530	0.688230	0.403760
C201	C20	0.553150	0.658430	0.377180
C211	C21	0.261520	0.458830	0.132750
C221	C22	0.311990	0.496400	0.157190
C231	C23	0.362040	0.552540	0.165180
C241	C24	0.394550	0.566010	0.189360
C251	C25	0.451690	0.620800	0.206890
C261	C26	0.737020	0.010760	0.424780
C271	C27	0.705110	0.967780	0.440690
C281	C28	0.703550	0.969720	0.471070
C291	C29	0.666720	0.917690	0.473210
C301	C30	0.647610	0.894980	0.499590
C311	C31	0.482540	0.109310	0.662050
C321	C32	0.434630	0.081140	0.671770
C331	C33	0.406710	0.083590	0.665900
C341	C34	0.366200	0.049040	0.680440
C351	C35	0.322490	0.033750	0.681840
C361	C36	0.437230	0.175920	0.694550
C371	C37	0.435830	0.160870	0.663500
C381	C38	0.421110	0.119960	0.650470
C391	C39	0.429670	0.126480	0.621550
C401	C40	0.419560	0.093680	0.596240
C411	C41	0.479750	0.989910	0.801660
C421	C42	0.488930	0.011070	0.775000
C431	C43	0.530410	0.041310	0.761320
C441	C44	0.521340	0.053600	0.739140
C451	C45	0.552230	0.084970	0.717200
C461	C46	0.742450	0.511550	0.594400
C471	C47	0.795190	0.559800	0.619190
C481	C48	0.824950	0.564750	0.639100
C491	C49	0.870490	0.619230	0.656920
C501	C50	0.917750	0.649520	0.681470
C511	C51	0.802020	0.525210	0.699630
C521	C52	0.798480	0.504810	0.670290
C531	C53	0.808870	0.521930	0.643600
C541	C54	0.795960	0.486150	0.622910
C551	C55	0.798960	0.484390	0.590750
C561	C56	0.796620	0.746160	0.596180
C571	C57	0.774450	0.696790	0.590440
C581	C58	0.723970	0.644210	0.572780
C591	C59	0.726570	0.616220	0.576190
C601	C60	0.684530	0.557610	0.563140
C611	C61	0.301190	0.689520	0.031510
C621	C62	0.288190	0.663330	0.055920
C631	C63	0.242420	0.626620	0.066440
C641	C64	0.253160	0.617560	0.090720
C651	C65	0.219060	0.582140	0.110800
C661	C66	0.308210	0.571910	0.162920
C671	C67	0.350540	0.595390	0.148330
C681	C68	0.374980	0.588200	0.149980
C691	C69	0.411800	0.620700	0.132900
C701	C70	0.450410	0.629910	0.126320
C711	C71	0.487660	0.695110	0.023970
C721	C72	0.469890	0.710830	0.024920
C731	C73	0.462200	0.724500	0.002100
C741	C74	0.445320	0.735860	0.014580
C751	C75	0.429090	0.751050	0.000940
C761	C76	0.967940	0.173560	0.599900
C771	C77	0.987520	0.220710	0.605630
C781	C78	0.039560	0.275430	0.619790
C791	C79	0.034810	0.301830	0.620440
C801	C80	0.076920	0.360860	0.632180
C811	C81	0.997850	0.384340	0.590590
C821	C82	0.942670	0.331200	0.568470
C831	C83	0.913490	0.321650	0.544140
C841	C84	0.864900	0.265060	0.532560
C851	C85	0.816090	0.230060	0.506950
C861	C86	0.708020	0.045040	0.477660
C871	C87	0.739470	0.050500	0.498770
C881	C88	0.736760	0.017660	0.496420
C891	C89	0.773900	0.040270	0.522770
C901	C90	0.788660	0.022390	0.532850
C911	C91	0.092610	0.270610	0.581220
C921	C92	0.111600	0.297640	0.614040
C931	C93	0.089960	0.300620	0.631180
C941	C94	0.124910	0.331210	0.660320
C951	C95	0.122890	0.348530	0.688620
C961	C96	0.285350	0.481750	0.765300
C971	C97	0.326750	0.499290	0.753840
C981	C98	0.382900	0.544990	0.766290
C991	C99	0.400920	0.541820	0.745340
C1001	C100	0.456920	0.578330	0.746450
C1011	C101	0.439880	0.517330	0.640410
C1021	C102	0.381700	0.468350	0.622050
C1031	C103	0.358140	0.440450	0.590990
C1041	C104	0.302600	0.398590	0.586390
C1051	C105	0.256440	0.353800	0.558640
C1061	C106	0.619440	0.932240	0.897480
C1071	C107	0.603520	0.897350	0.869870
C1081	C108	0.615050	0.906490	0.841740
C1091	C109	0.587030	0.859210	0.824040
C1101	C110	0.584390	0.844800	0.792390
C1111	C111	0.470990	0.667690	0.766280
C1121	C112	0.450030	0.641860	0.792090
C1131	C113	0.413940	0.589780	0.793120
C1141	C114	0.408900	0.589280	0.822780
C1151	C115	0.377100	0.545570	0.838070
C1161	C116	0.400830	0.625410	0.945640
C1171	C117	0.444160	0.684310	0.947470
C1181	C118	0.470160	0.726380	0.971140
C1191	C119	0.501370	0.769210	0.958580
C1201	C120	0.538310	0.825900	0.972610
C1211	C121	0.520140	0.961740	0.753680
C1221	C122	0.569430	0.021730	0.765560
C1231	C123	0.574410	0.056810	0.768620
C1241	C124	0.629940	0.108410	0.780150
C1251	C125	0.659800	0.162080	0.787880
C1261	C126	0.831390	0.288500	0.848490
C1271	C127	0.835330	0.261830	0.859560
C1281	C128	0.867450	0.278540	0.886390
C1291	C129	0.856700	0.239540	0.883440
C1301	C130	0.880840	0.236770	0.905410
C1311	C131	0.743320	0.034800	0.869120
C1321	C132	0.699330	0.009620	0.844150
C1331	C133	0.645530	0.954730	0.832060
C1341	C134	0.622990	0.953900	0.808690
C1351	C135	0.567310	0.907350	0.787460
C1361	C136	0.357990	0.470320	0.529310
C1371	C137	0.389260	0.471150	0.542610
C1381	C138	0.388090	0.456280	0.568370
C1391	C139	0.425020	0.463950	0.570170
C1401	C140	0.439650	0.453120	0.591970
C1411	C141	0.607600	0.550730	0.585930
C1421	C142	0.625990	0.579840	0.561830
C1431	C143	0.676600	0.620980	0.556180
C1441	C144	0.671080	0.633480	0.531960
C1451	C145	0.710560	0.672290	0.514650
C1461	C146	0.625660	0.680030	0.443890
C1471	C147	0.574140	0.645010	0.451550
C1481	C148	0.543390	0.645040	0.446230
C1491	C149	0.500330	0.604910	0.458440
C1501	C150	0.454530	0.586510	0.459840
H11	H1	0.034700	0.422000	0.929900
H21	H2	0.996400	0.385100	0.895500
H31	H3	0.990800	0.359300	0.920700
H41	H4	0.828300	0.314900	0.941400
H51	H5	0.806100	0.263400	0.931500
H61	H6	0.809800	0.287500	0.905900
H71	H7	0.865500	0.365700	0.542000
H81	H8	0.846600	0.317500	0.545700
H91	H9	0.826500	0.314300	0.513200
H101	H10	0.031200	0.424200	0.501000
H111	H11	0.003900	0.380700	0.519200
H121	H12	0.048600	0.441900	0.537700
H131	H13	0.152500	0.620200	0.095100
H141	H14	0.213600	0.659800	0.101800
H151	H15	0.169000	0.603600	0.110400
H161	H16	0.132800	0.515600	0.982600
H171	H17	0.185400	0.547500	0.006300
H181	H18	0.190800	0.578700	0.986900
H191	H19	0.591900	0.768500	0.485800
H201	H20	0.577800	0.724600	0.493000
H211	H21	0.530000	0.706700	0.479100
H221	H22	0.530000	0.647100	0.358700
H231	H23	0.535800	0.626500	0.381500
H241	H24	0.588300	0.682300	0.374000
H251	H25	0.239600	0.422500	0.128100
H261	H26	0.270600	0.471400	0.114400
H271	H27	0.241000	0.457800	0.139600
H281	H28	0.464300	0.617500	0.222600
H291	H29	0.453900	0.642800	0.216700
H301	H30	0.474600	0.638300	0.192900
H311	H31	0.747600	0.006100	0.409700
H321	H32	0.769600	0.046400	0.439800
H331	H33	0.714800	0.008000	0.414400
H341	H34	0.610200	0.856300	0.492100
H351	H35	0.648900	0.914000	0.513300
H361	H36	0.670900	0.899500	0.510800
H371	H37	0.503800	0.114600	0.677400
H381	H38	0.469900	0.087000	0.642300
H391	H39	0.505100	0.144500	0.660000
H401	H40	0.289500	0.995500	0.681400
H411	H41	0.334000	0.056300	0.700900
H421	H42	0.315200	0.039500	0.664300
H431	H43	0.466300	0.215000	0.701100
H441	H44	0.402400	0.156200	0.693800
H451	H45	0.444000	0.166500	0.709100
H461	H46	0.401200	0.086300	0.576700
H471	H47	0.454300	0.114100	0.595200
H481	H48	0.396700	0.059400	0.600300
H491	H49	0.446900	0.970600	0.805900
H501	H50	0.475500	0.965100	0.797000
H511	H51	0.510900	0.020200	0.819700
H521	H52	0.530300	0.078500	0.701400
H531	H53	0.585800	0.123700	0.728100
H541	H54	0.560900	0.073500	0.707600
H551	H55	0.719800	0.510000	0.595000
H561	H56	0.749600	0.514800	0.574400
H571	H57	0.723500	0.478300	0.597600
H581	H58	0.951300	0.684300	0.678000
H591	H59	0.915100	0.655900	0.701400
H601	H60	0.918000	0.628200	0.681200
H611	H61	0.816000	0.524600	0.716600
H621	H62	0.826600	0.562600	0.702000
H631	H63	0.765900	0.502200	0.699700
H641	H64	0.809400	0.472800	0.586400
H651	H65	0.763500	0.458700	0.576800
H661	H66	0.825900	0.520400	0.587900
H671	H67	0.819000	0.768200	0.617400
H681	H68	0.818700	0.767400	0.582300
H691	H69	0.766600	0.735000	0.592600
H701	H70	0.701600	0.554200	0.556600
H711	H71	0.667200	0.538600	0.578800
H721	H72	0.657100	0.541600	0.545500
H731	H73	0.338000	0.728500	0.039100
H741	H74	0.275300	0.683700	0.025600
H751	H75	0.298900	0.673600	0.013700
H761	H76	0.223800	0.565400	0.115200
H771	H77	0.180800	0.553700	0.100300
H781	H78	0.230100	0.603900	0.130000
H791	H79	0.313100	0.597300	0.167600
H801	H80	0.311600	0.565300	0.181900
H811	H81	0.272100	0.537600	0.148700
H821	H82	0.455500	0.636300	0.106200
H831	H83	0.435500	0.597800	0.126500
H841	H84	0.485300	0.661500	0.142000
H851	H85	0.492700	0.692000	0.044100
H861	H86	0.522100	0.722800	0.018700
H871	H87	0.460200	0.660200	0.008600
H881	H88	0.407400	0.744100	0.012500
H891	H89	0.407700	0.729400	0.979500
H901	H90	0.461700	0.789700	0.002000
H911	H91	0.934900	0.144400	0.606300
H921	H92	0.995800	0.184200	0.611600
H931	H93	0.960000	0.160800	0.578000
H941	H94	0.067700	0.369600	0.619300
H951	H95	0.112500	0.382800	0.631700
H961	H96	0.078000	0.368600	0.653200
H971	H97	0.000300	0.378200	0.610100
H981	H98	0.003000	0.410000	0.594000
H991	H99	0.026000	0.399200	0.582000
H1001	H100	0.791900	0.192600	0.502100
H1011	H101	0.827300	0.243300	0.488800
H1021	H102	0.797000	0.231300	0.513100
H1031	H103	0.721200	0.076100	0.485100
H1041	H104	0.669600	0.011500	0.476700
H1051	H105	0.712300	0.043800	0.457100
H1061	H106	0.826000	0.053700	0.546100
H1071	H107	0.785400	0.005800	0.514800
H1081	H108	0.764000	0.995800	0.544200
H1091	H109	0.123900	0.293300	0.573200
H1101	H110	0.072500	0.235400	0.579300
H1111	H111	0.069100	0.265500	0.569600
H1121	H112	0.132900	0.345200	0.706300
H1131	H113	0.148300	0.386300	0.692000
H1141	H114	0.086100	0.325300	0.686000
H1151	H115	0.255900	0.462800	0.747900
H1161	H116	0.270700	0.457300	0.777800
H1171	H117	0.302300	0.513700	0.777800
H1181	H118	0.455500	0.556500	0.738400
H1191	H119	0.472100	0.602900	0.734000
H1201	H120	0.479800	0.599500	0.767700
H1211	H121	0.446100	0.538600	0.656700
H1221	H122	0.448800	0.506000	0.649400
H1231	H123	0.462900	0.539600	0.627100
H1241	H124	0.225500	0.320800	0.564500
H1251	H125	0.246400	0.363500	0.548300
H1261	H126	0.266900	0.347600	0.544700
H1271	H127	0.623200	0.925200	0.916000
H1281	H128	0.654100	0.970500	0.898600
H1291	H129	0.591500	0.923900	0.896000
H1301	H130	0.588400	0.826700	0.791900
H1311	H131	0.549300	0.820300	0.778400
H1321	H132	0.613600	0.877700	0.785900
H1331	H133	0.471900	0.689900	0.766400
H1341	H134	0.507700	0.690600	0.768900
H1351	H135	0.447100	0.639400	0.746700
H1361	H136	0.398600	0.561200	0.859200
H1371	H137	0.343600	0.528000	0.838200
H1381	H138	0.368200	0.518700	0.826900
H1391	H139	0.394300	0.607600	0.926300
H1401	H140	0.412900	0.623200	0.962900
H1411	H141	0.367200	0.607300	0.946500
H1421	H142	0.572900	0.851900	0.967800
H1431	H143	0.521300	0.829700	0.964200
H1441	H144	0.544700	0.833000	0.994900
H1451	H145	0.530000	0.950700	0.745900
H1461	H146	0.494100	0.949200	0.737100
H1471	H147	0.503700	0.945600	0.770300
H1481	H148	0.692200	0.187400	0.805200
H1491	H149	0.636300	0.157700	0.793400
H1501	H150	0.670700	0.176400	0.770100
H1511	H151	0.825200	0.281600	0.826200
H1521	H152	0.865300	0.327700	0.858400
H1531	H153	0.801200	0.273800	0.853600
H1541	H154	0.854000	0.198800	0.903400
H1551	H155	0.891200	0.254700	0.926500
H1561	H156	0.913000	0.255200	0.900600
H1571	H157	0.776800	0.061000	0.862800
H1581	H158	0.732800	0.006700	0.873300
H1591	H159	0.749600	0.053500	0.887700
H1601	H160	0.557100	0.919000	0.782700
H1611	H161	0.541900	0.878100	0.797200
H1621	H162	0.566300	0.894400	0.768500
H1631	H163	0.378600	0.497800	0.518200
H1641	H164	0.351400	0.478300	0.545700
H1651	H165	0.323300	0.434500	0.515200
H1661	H166	0.447200	0.441000	0.581200
H1671	H167	0.409500	0.424800	0.600500
H1681	H168	0.472000	0.486400	0.608600
H1691	H169	0.583100	0.543700	0.593400
H1701	H170	0.639200	0.573200	0.603000
H1711	H171	0.588600	0.516300	0.577100
H1721	H172	0.690900	0.658600	0.493300
H1731	H173	0.735100	0.676100	0.515200
H1741	H174	0.731700	0.707700	0.524000
H1751	H175	0.643700	0.679400	0.456300
H1761	H176	0.649500	0.717200	0.448100
H1771	H177	0.617400	0.666300	0.422100
H1781	H178	0.425100	0.550600	0.463300
H1791	H179	0.441400	0.584700	0.440500
H1801	H180	0.467000	0.612300	0.476700
Ag311	Ag31	0.994800	0.061080	0.518420
Ag321	Ag32	0.921830	0.938170	0.511360
Ag331	Ag33	0.496230	0.543090	0.022860
Ag341	Ag34	0.878790	0.173270	0.065340
Ag351	Ag35	0.900080	0.232370	0.132090
Ag361	Ag36	0.782220	0.166140	0.276580
Ag371	Ag37	0.820550	0.726740	0.787270
Ag381	Ag38	0.759650	0.610220	0.772470
Ag391	Ag39	0.703300	0.621120	0.729720
Ag401	Ag40	0.520040	0.189190	0.889570
Ag411	Ag41	0.556640	0.250610	0.836270
Ag421	Ag42	0.624190	0.243900	0.863950
Ag431	Ag43	0.145190	0.326050	0.437380
Ag441	Ag44	0.027990	0.225990	0.385460
Ag451	Ag45	0.096620	0.350980	0.412880
Ag461	Ag46	0.077670	0.301370	0.927980
Ag471	Ag47	0.179660	0.352680	0.907760
Ag481	Ag48	0.125390	0.278330	0.960160
Ag491	Ag49	0.236220	0.600890	0.876710
Ag501	Ag50	0.211040	0.545030	0.805950
Ag511	Ag51	0.290410	0.671250	0.821060
Ag521	Ag52	0.401180	0.633660	0.601020
Ag531	Ag53	0.416130	0.682440	0.668490
Ag541	Ag54	0.287160	0.568390	0.619130
Ag551	Ag55	0.742990	0.855890	0.711640
Ag561	Ag56	0.850670	0.925150	0.691380
Ag571	Ag57	0.780630	0.926390	0.658940
Ag581	Ag58	0.532470	0.964900	0.002510
Ag591	Ag59	0.480770	0.975910	0.958580
Ag601	Ag60	0.608080	0.090820	0.007760
N611	N61	0.957160	0.023360	0.552120
N621	N62	0.931020	0.975240	0.549260
N631	N63	0.395300	0.423510	0.991410
N641	N64	0.418020	0.469740	0.994360
N651	N65	0.016710	0.071010	0.456320
N661	N66	0.024350	0.095760	0.482510
N671	N67	0.817410	0.148940	0.071950
N681	N68	0.826100	0.173480	0.099380
N691	N69	0.800900	0.138340	0.323640
N701	N70	0.824610	0.169970	0.303980
N711	N71	0.992640	0.246630	0.074470
N721	N72	0.941530	0.202620	0.054550
N731	N73	0.858890	0.724380	0.811070
N741	N74	0.833050	0.675810	0.805460
N751	N75	0.045640	0.808190	0.856230
N761	N76	0.049820	0.830220	0.882440
N771	N77	0.742850	0.694360	0.738410
N781	N78	0.791300	0.736620	0.760920
N791	N79	0.482500	0.196370	0.875270
N801	N80	0.495940	0.219590	0.851930
N811	N81	0.296740	0.115560	0.834700
N821	N82	0.314810	0.143410	0.864020
N831	N83	0.596560	0.201200	0.896560
N841	N84	0.555490	0.180400	0.905490
N851	N85	0.102550	0.251400	0.427550
N861	N86	0.053010	0.208610	0.406020
N871	N87	0.997870	0.239890	0.368560
N881	N88	0.022840	0.287530	0.378170
N891	N89	0.164980	0.407980	0.451160
N901	N90	0.186750	0.399250	0.457000
N911	N91	0.116920	0.355310	0.901830
N921	N92	0.157760	0.375330	0.892690
N931	N93	0.212850	0.343360	0.928610
N941	N94	0.193980	0.316780	0.950960
N951	N95	0.065380	0.251340	0.974920
N961	N96	0.044570	0.257860	0.960230
N971	N97	0.194140	0.525840	0.867580
N981	N98	0.186270	0.505240	0.838910
N991	N99	0.243940	0.585370	0.772910
N1001	N100	0.274750	0.635910	0.778060
N1011	N101	0.310220	0.707980	0.865000
N1021	N102	0.288840	0.680960	0.886800
N1031	N103	0.478440	0.701540	0.631180
N1041	N104	0.483150	0.719530	0.659680
N1051	N105	0.351270	0.645980	0.680850
N1061	N106	0.299340	0.601360	0.661700
N1071	N107	0.278550	0.537040	0.577390
N1081	N108	0.324810	0.566080	0.570290
N1091	N109	0.776990	0.844480	0.725270
N1101	N110	0.821730	0.873190	0.716520
N1111	N111	0.874230	0.965490	0.658320
N1121	N112	0.844060	0.962820	0.643080
N1131	N113	0.710250	0.878670	0.670720
N1141	N114	0.697250	0.852880	0.692530
N1151	N115	0.457740	0.895360	0.970100
N1161	N116	0.435970	0.900040	0.953010
N1171	N117	0.526980	0.051010	0.957790
N1181	N118	0.578480	0.096880	0.976560
N1191	N119	0.641180	0.084650	0.034430
N1201	N120	0.612050	0.034520	0.030170
C1511	C151	0.968610	0.081250	0.582860
C1521	C152	0.946310	0.031720	0.574630
C1531	C153	0.912730	0.988680	0.587610
C1541	C154	0.904030	0.954010	0.570840
C1551	C155	0.869770	0.900210	0.573180
C1561	C156	0.306810	0.324990	0.968200
C1571	C157	0.342970	0.381590	0.976560
C1581	C158	0.330340	0.400430	0.969570
C1591	C159	0.379940	0.457010	0.981350
C1601	C160	0.393360	0.499270	0.980830
C1611	C161	0.026220	0.079760	0.404380
C1621	C162	0.029710	0.097240	0.435550
C1631	C163	0.045350	0.138430	0.447980
C1641	C164	0.041920	0.136650	0.477970
C1651	C165	0.052900	0.170300	0.502600
C1661	C166	0.751560	0.087390	0.020950
C1671	C167	0.771200	0.118710	0.052910
C1681	C168	0.748230	0.122160	0.066990
C1691	C169	0.784470	0.157770	0.096240
C1701	C170	0.781250	0.175970	0.122820
C1711	C171	0.826080	0.128770	0.367250
C1721	C172	0.839210	0.154800	0.342810
C1731	C173	0.887360	0.196860	0.334820
C1741	C174	0.876650	0.205190	0.310640
C1751	C175	0.913910	0.244800	0.293110
C1761	C176	0.085980	0.312240	0.075220
C1771	C177	0.027090	0.264420	0.059310
C1781	C178	0.998650	0.232480	0.028930
C1791	C179	0.944480	0.193510	0.026790
C1801	C180	0.895390	0.148020	0.000410
C1811	C181	0.947260	0.820490	0.837950
C1821	C182	0.909370	0.762860	0.828230
C1831	C183	0.917690	0.740810	0.834100
C1841	C184	0.868600	0.685760	0.819560
C1851	C185	0.851910	0.640650	0.818160
C1861	C186	0.981370	0.742680	0.805450
C1871	C187	0.997370	0.772330	0.836500
C1881	C188	0.969490	0.770640	0.849530
C1891	C189	0.004930	0.808120	0.878450
C1901	C190	0.997440	0.823320	0.903760
C1911	C191	0.688250	0.678090	0.698340
C1921	C192	0.736070	0.713930	0.725000
C1931	C193	0.779990	0.769090	0.738680
C1941	C194	0.814460	0.782200	0.760860
C1951	C195	0.867770	0.835030	0.782800
C1961	C196	0.417150	0.148050	0.905600
C1971	C197	0.440610	0.176000	0.880810
C1981	C198	0.425650	0.185850	0.860900
C1991	C199	0.462310	0.213570	0.843080
C2001	C200	0.468050	0.236280	0.818530
C2011	C201	0.325580	0.102390	0.800370
C2021	C202	0.334520	0.128190	0.829710
C2031	C203	0.378330	0.165270	0.856400
C2041	C204	0.363240	0.173050	0.877090
C2051	C205	0.393640	0.208210	0.909250
C2061	C206	0.649980	0.200440	0.903820
C2071	C207	0.606350	0.184010	0.909560
C2081	C208	0.571430	0.151190	0.927220
C2091	C209	0.540030	0.150380	0.923810
C2101	C210	0.494470	0.121390	0.936860
C2111	C211	0.158010	0.269680	0.468490
C2121	C212	0.107410	0.232270	0.444080
C2131	C213	0.060180	0.175980	0.433560
C2141	C214	0.026840	0.162440	0.409280
C2151	C215	0.971340	0.108260	0.389200
C2161	C216	0.908990	0.145290	0.337080
C2171	C217	0.947060	0.202210	0.351670
C2181	C218	0.938220	0.225000	0.350020
C2191	C219	0.987800	0.278900	0.367100
C2201	C220	0.003590	0.324090	0.373680
C2211	C221	0.171140	0.463690	0.476030
C2221	C222	0.185910	0.444970	0.475080
C2231	C223	0.222400	0.460100	0.497900
C2241	C224	0.221280	0.430740	0.485420
C2251	C225	0.250110	0.428150	0.499060
C2261	C226	0.073660	0.368040	0.900100
C2271	C227	0.115080	0.381890	0.894370
C2281	C228	0.155640	0.419770	0.880210
C2291	C229	0.181390	0.414370	0.879560
C2301	C230	0.228680	0.444740	0.867820
C2311	C231	0.293750	0.407260	0.909410
C2321	C232	0.262730	0.374200	0.931530
C2331	C233	0.277510	0.369350	0.955860
C2341	C234	0.232500	0.332340	0.967440
C2351	C235	0.223110	0.309140	0.993050
C2361	C236	0.067380	0.230360	0.022340
C2371	C237	0.051730	0.240700	0.001230
C2381	C238	0.021240	0.240340	0.003580
C2391	C239	0.017500	0.251130	0.977230
C2401	C240	0.989540	0.255810	0.967150
C2411	C241	0.189390	0.511390	0.918780
C2421	C242	0.183600	0.497560	0.885960
C2431	C243	0.169440	0.458780	0.868820
C2441	C244	0.170890	0.464590	0.839680
C2451	C245	0.159910	0.434270	0.811380
C2461	C246	0.216450	0.520050	0.734700
C2471	C247	0.245450	0.572910	0.746160
C2481	C248	0.278700	0.616610	0.733710
C2491	C249	0.296480	0.655580	0.754660
C2501	C250	0.331880	0.710470	0.753550
C2511	C251	0.376920	0.799470	0.859590
C2521	C252	0.346300	0.759650	0.877950
C2531	C253	0.349460	0.767150	0.909010
C2541	C254	0.312200	0.716210	0.913610
C2551	C255	0.295160	0.697800	0.941360
C2561	C256	0.534760	0.721960	0.602520
C2571	C257	0.527480	0.733650	0.630130
C2581	C258	0.564750	0.773310	0.658260
C2591	C259	0.535170	0.762990	0.675960
C2601	C260	0.552410	0.792000	0.707610
C2611	C261	0.401410	0.704710	0.733720
C2621	C262	0.349770	0.657940	0.707910
C2631	C263	0.296660	0.620820	0.706880
C2641	C264	0.266500	0.586120	0.677220
C2651	C265	0.207500	0.539030	0.661930
C2661	C266	0.179770	0.455190	0.554360
C2671	C267	0.236840	0.496690	0.552530
C2681	C268	0.255240	0.499020	0.528860
C2691	C269	0.310630	0.542790	0.541420
C2701	C270	0.353290	0.565700	0.527390
C2711	C271	0.708060	0.766460	0.746320
C2721	C272	0.756170	0.803870	0.734440
C2731	C273	0.788190	0.805790	0.731380
C2741	C274	0.828260	0.849790	0.719850
C2751	C275	0.874200	0.871920	0.712120
C2761	C276	0.940010	0.982900	0.651510
C2771	C277	0.902270	0.975770	0.640440
C2781	C278	0.892150	0.981060	0.613610
C2791	C279	0.856100	0.973260	0.616560
C2801	C280	0.831360	0.975430	0.594590
C2811	C281	0.665680	0.874200	0.630880
C2821	C282	0.665470	0.855180	0.655850
C2831	C283	0.622670	0.813470	0.667940
C2841	C284	0.645210	0.814300	0.691310
C2851	C285	0.619890	0.779850	0.712540
C2861	C286	0.441010	0.828680	0.970690
C2871	C287	0.428540	0.846650	0.957390
C2881	C288	0.387910	0.819720	0.931630
C2891	C289	0.393780	0.854850	0.929830
C2901	C290	0.361150	0.847680	0.908030
C2911	C291	0.464800	0.021670	0.914070
C2921	C292	0.518010	0.064160	0.938170
C2931	C293	0.564800	0.120420	0.943820
C2941	C294	0.601520	0.139120	0.968040
C2951	C295	0.657640	0.195910	0.985350
C2961	C296	0.736140	0.181770	0.056110
C2971	C297	0.693460	0.122590	0.048450
C2981	C298	0.698810	0.097160	0.053770
C2991	C299	0.646470	0.041890	0.041560
C3001	C300	0.626670	0.994690	0.040160
H1811	H181	0.992100	0.104800	0.570100
H1821	H182	0.989600	0.100900	0.604500
H1831	H183	0.938600	0.070100	0.579300
H1841	H184	0.873500	0.886900	0.558600
H1851	H185	0.831900	0.874600	0.568500
H1861	H186	0.881600	0.903900	0.594100
H1871	H187	0.323700	0.323500	0.958000
H1881	H188	0.271800	0.300900	0.954300
H1891	H189	0.301100	0.313300	0.986800
H1901	H190	0.423200	0.530200	0.999000
H1911	H191	0.361500	0.484700	0.980800
H1921	H192	0.404200	0.510900	0.962300
H1931	H193	0.025100	0.057400	0.404900
H1941	H194	0.058000	0.111800	0.398200
H1951	H195	0.993200	0.058600	0.389600
H1961	H196	0.033000	0.150200	0.517400
H1971	H197	0.041200	0.179100	0.493700
H1981	H198	0.091800	0.203900	0.513100
H1991	H199	0.782700	0.106100	0.014200
H2001	H200	0.731600	0.084800	0.007000
H2011	H201	0.727600	0.050900	0.020900
H2021	H202	0.788400	0.171300	0.141300
H2031	H203	0.745000	0.154300	0.118500
H2041	H204	0.808300	0.214300	0.126000
H2051	H205	0.794400	0.111500	0.371900
H2061	H206	0.857000	0.156200	0.385600
H2071	H207	0.818200	0.101400	0.360400
H2081	H208	0.894900	0.241700	0.277400
H2091	H209	0.926100	0.237200	0.283300
H2101	H210	0.945400	0.281700	0.307100
H2111	H211	0.096400	0.337900	0.090300
H2121	H212	0.106600	0.329800	0.060200
H2131	H213	0.093600	0.300400	0.085600
H2141	H214	0.864200	0.118100	0.007900
H2151	H215	0.900700	0.135600	0.986700
H2161	H216	0.888700	0.160100	0.989200
H2171	H217	0.937200	0.826400	0.822600
H2181	H218	0.944700	0.827600	0.857700
H2191	H219	0.984500	0.845100	0.840000
H2201	H220	0.814100	0.608100	0.818600
H2211	H221	0.855400	0.633100	0.799100
H2221	H222	0.875200	0.650900	0.835700
H2231	H223	0.013900	0.765200	0.798900
H2241	H224	0.962400	0.708600	0.806200
H2251	H225	0.957400	0.734900	0.790900
H2261	H226	0.009600	0.824500	0.923300
H2271	H227	0.018900	0.859100	0.904800
H2281	H228	0.959100	0.796400	0.899700
H2291	H229	0.664700	0.641000	0.694100
H2301	H230	0.668100	0.678500	0.703000
H2311	H231	0.700500	0.691200	0.680300
H2321	H232	0.877100	0.828900	0.798600
H2331	H233	0.895600	0.857700	0.771900
H2341	H234	0.865900	0.853300	0.792400
H2351	H235	0.415000	0.124800	0.905000
H2361	H236	0.440400	0.175200	0.925600
H2371	H237	0.380700	0.125900	0.902400
H2381	H238	0.506300	0.273300	0.822000
H2391	H239	0.454500	0.213700	0.798600
H2401	H240	0.447000	0.236800	0.818800
H2411	H241	0.308000	0.099400	0.783400
H2421	H242	0.360600	0.124600	0.798000
H2431	H243	0.302500	0.066200	0.800300
H2441	H244	0.386400	0.223000	0.913600
H2451	H245	0.381900	0.186700	0.923200
H2461	H246	0.432500	0.238000	0.912100
H2471	H247	0.650800	0.201600	0.882600
H2481	H248	0.685100	0.236400	0.917700
H2491	H249	0.642400	0.174000	0.907400
H2501	H250	0.497600	0.145000	0.943400
H2511	H251	0.459800	0.088400	0.921200
H2521	H252	0.496100	0.111600	0.954500
H2531	H253	0.189400	0.298900	0.460900
H2541	H254	0.158100	0.249700	0.474400
H2551	H255	0.159900	0.285200	0.486300
H2561	H256	0.950200	0.108600	0.384800
H2571	H257	0.953400	0.080500	0.399700
H2581	H258	0.973900	0.100100	0.370000
H2591	H259	0.929700	0.145500	0.332400
H2601	H260	0.883400	0.129700	0.318100
H2611	H261	0.888900	0.123400	0.351300
H2621	H262	0.030100	0.349300	0.393800
H2631	H263	0.971300	0.309000	0.373500
H2641	H264	0.019500	0.343300	0.358000
H2651	H265	0.147900	0.448600	0.455900
H2661	H266	0.204100	0.503400	0.481300
H2671	H267	0.151600	0.451600	0.491400
H2681	H268	0.231600	0.394900	0.487500
H2691	H269	0.249900	0.428200	0.520500
H2701	H270	0.287700	0.459700	0.498000
H2711	H271	0.038100	0.328600	0.893700
H2721	H272	0.072600	0.384200	0.888400
H2731	H273	0.082800	0.382000	0.922000
H2741	H274	0.250300	0.448400	0.880700
H2751	H275	0.251100	0.480800	0.868300
H2761	H276	0.215400	0.424800	0.846800
H2771	H277	0.268100	0.390200	0.889900
H2781	H278	0.316000	0.409000	0.906000
H2791	H279	0.317200	0.444000	0.918000
H2801	H280	0.190500	0.289800	0.997900
H2811	H281	0.254500	0.338500	0.011200
H2821	H282	0.218200	0.283900	0.986900
H2831	H283	0.091000	0.236100	0.014900
H2841	H284	0.034800	0.192900	0.023300
H2851	H285	0.086700	0.255200	0.042900
H2861	H286	0.007600	0.279900	0.953900
H2871	H287	0.991000	0.270600	0.985200
H2881	H288	0.951600	0.219800	0.955800
H2891	H289	0.220100	0.550700	0.926800
H2901	H290	0.156100	0.493200	0.920700
H2911	H291	0.195900	0.499500	0.930400
H2921	H292	0.138900	0.426600	0.793700
H2931	H293	0.194300	0.456300	0.808000
H2941	H294	0.139300	0.400100	0.814000
H2951	H295	0.214900	0.508000	0.752100
H2961	H296	0.179500	0.492900	0.722200
H2971	H297	0.235900	0.524500	0.722200
H2981	H298	0.318100	0.717100	0.761600
H2991	H299	0.368900	0.738100	0.766000
H3001	H300	0.331800	0.712100	0.732300
H3011	H301	0.381900	0.789400	0.843300
H3021	H302	0.356600	0.799400	0.850600
H3031	H303	0.412500	0.835800	0.872900
H3041	H304	0.256300	0.661000	0.935500
H3051	H305	0.315200	0.698100	0.951700
H3061	H306	0.302900	0.722200	0.955300
H3071	H307	0.509200	0.707200	0.584000
H3081	H308	0.571900	0.755500	0.601400
H3091	H309	0.527900	0.695500	0.604000
H3101	H310	0.534800	0.796500	0.708100
H3111	H311	0.541900	0.770900	0.721600
H3121	H312	0.591800	0.827700	0.714100
H3131	H313	0.423500	0.705500	0.733600
H3141	H314	0.421700	0.738800	0.731100
H3151	H315	0.392700	0.700400	0.753300
H3161	H316	0.202000	0.539400	0.640800
H3171	H317	0.189800	0.505400	0.661800
H3181	H318	0.191800	0.541300	0.673100
H3191	H319	0.181300	0.468000	0.573700
H3201	H320	0.160300	0.450000	0.537100
H3211	H321	0.160800	0.420700	0.553500
H3221	H322	0.384100	0.605100	0.532200
H3231	H323	0.365500	0.557100	0.535800
H3241	H324	0.338100	0.549800	0.505100
H3251	H325	0.704800	0.784100	0.754100
H3261	H326	0.712100	0.757000	0.762900
H3271	H327	0.675300	0.733400	0.729700
H3281	H328	0.882200	0.887000	0.694800
H3291	H329	0.864300	0.842900	0.706600
H3301	H330	0.906300	0.900600	0.729900
H3311	H331	0.955400	0.999000	0.673800
H3321	H332	0.969300	0.006900	0.641600
H3331	H333	0.920200	0.947600	0.646400
H3341	H334	0.795400	0.950600	0.596600
H3351	H335	0.828200	0.964700	0.573500
H3361	H336	0.854600	0.012400	0.599400
H3371	H337	0.698200	0.914000	0.637200
H3381	H338	0.633400	0.859500	0.626700
H3391	H339	0.665800	0.861900	0.612300
H3401	H340	0.636300	0.774400	0.717300
H3411	H341	0.580900	0.744700	0.702800
H3421	H342	0.625900	0.797800	0.731500
H3431	H343	0.479600	0.860400	0.981800
H3441	H344	0.432600	0.805700	0.954300
H3451	H345	0.419300	0.808100	0.984800
H3461	H346	0.359800	0.866000	0.918800
H3471	H347	0.324300	0.809000	0.899500
H3481	H348	0.377800	0.863400	0.891400
H3491	H349	0.450300	0.989700	0.906600
H3501	H350	0.470200	0.036200	0.897000
H3511	H351	0.439200	0.011500	0.922900
H3521	H352	0.665300	0.197600	0.006700
H3531	H353	0.660900	0.219900	0.984800
H3541	H354	0.683700	0.207700	0.976000
H3551	H355	0.723100	0.187400	0.043700
H3561	H356	0.769100	0.201400	0.051900
H3571	H357	0.744200	0.195300	0.077900
H3581	H358	0.587300	0.961800	0.036700
H3591	H359	0.644200	0.000900	0.059500
H3601	H360	0.635600	0.990300	0.023300
Ag611	Ag61	0.976380	0.494800	0.433720
Ag621	Ag62	0.910470	0.421830	0.483660
Ag631	Ag63	0.973370	0.996230	0.453140
Ag641	Ag64	0.313450	0.378790	0.205520
Ag651	Ag65	0.267990	0.400080	0.167710
Ag661	Ag66	0.005640	0.282220	0.116080
Ag671	Ag67	0.533280	0.320550	0.593810
Ag681	Ag68	0.487180	0.259650	0.649430
Ag691	Ag69	0.473580	0.203300	0.582180
Ag701	Ag70	0.130470	0.020040	0.830850
Ag711	Ag71	0.220370	0.056640	0.806030
Ag721	Ag72	0.260240	0.124190	0.880290
Ag731	Ag73	0.207810	0.645190	0.319140
Ag741	Ag74	0.142530	0.527990	0.302000
Ag751	Ag75	0.183740	0.596620	0.245640
Ag761	Ag76	0.649690	0.577670	0.276300
Ag771	Ag77	0.771900	0.679660	0.326980
Ag781	Ag78	0.665230	0.625390	0.347060
Ag791	Ag79	0.859510	0.736220	0.135330
Ag801	Ag80	0.905090	0.711040	0.166010
Ag811	Ag81	0.969350	0.790410	0.119160
Ag821	Ag82	0.300160	0.901180	0.267520
Ag831	Ag83	0.247640	0.916130	0.233690
Ag841	Ag84	0.168030	0.787160	0.218770
Ag851	Ag85	0.531350	0.242990	0.387100
Ag861	Ag86	0.659290	0.350670	0.425520
Ag871	Ag87	0.621690	0.280630	0.354240
Ag881	Ag88	0.029960	0.032470	0.067570
Ag891	Ag89	0.022190	0.980770	0.004860
Ag901	Ag90	0.100320	0.108080	0.017260
N1211	N121	0.905040	0.457160	0.433800
N1221	N122	0.881760	0.431020	0.455780
N1231	N123	0.903890	0.895300	0.471790
N1241	N124	0.923660	0.918020	0.448280
N1251	N125	0.060390	0.516710	0.445700
N1261	N126	0.041840	0.524350	0.428590
N1271	N127	0.245460	0.317410	0.168470
N1281	N128	0.226720	0.326100	0.152620
N1291	N129	0.977260	0.300900	0.162560
N1301	N130	0.020630	0.324610	0.154640
N1311	N131	0.418170	0.492640	0.246010
N1321	N132	0.386980	0.441530	0.238910
N1331	N133	0.547820	0.358890	0.634510
N1341	N134	0.527590	0.333050	0.657240
N1351	N135	0.689410	0.545640	0.737450
N1361	N136	0.667380	0.549820	0.719600
N1371	N137	0.504440	0.242850	0.548490
N1381	N138	0.530380	0.291300	0.554680
N1391	N139	0.107230	0.982500	0.786130
N1401	N140	0.144010	0.995940	0.776350
N1411	N141	0.962040	0.796740	0.681180
N1421	N142	0.950790	0.814810	0.671400
N1431	N143	0.200000	0.096560	0.895360
N1441	N144	0.150000	0.055490	0.875090
N1451	N145	0.175000	0.602550	0.351150
N1461	N146	0.146990	0.553010	0.344400
N1471	N147	0.129310	0.497870	0.257980
N1481	N148	0.144670	0.522840	0.235310
N1491	N149	0.213820	0.664980	0.257000
N1501	N150	0.229750	0.686750	0.287500
N1511	N151	0.715090	0.616920	0.261610
N1521	N152	0.765070	0.657760	0.282430
N1531	N153	0.784240	0.712850	0.369490
N1541	N154	0.743020	0.693980	0.377200
N1551	N155	0.590460	0.565380	0.314040
N1561	N156	0.584340	0.544570	0.286710
N1571	N157	0.826560	0.694140	0.168300
N1581	N158	0.847360	0.686270	0.181030
N1591	N159	0.971030	0.743940	0.158570
N1601	N160	0.996690	0.774750	0.138840
N1611	N161	0.945220	0.810220	0.102240
N1621	N162	0.902040	0.788840	0.107880
N1631	N163	0.347260	0.978440	0.276900
N1641	N164	0.323470	0.983150	0.263620
N1651	N165	0.170420	0.851270	0.205290
N1661	N166	0.137640	0.799340	0.197980
N1671	N167	0.201160	0.778550	0.241510
N1681	N168	0.254520	0.824810	0.258730
N1691	N169	0.551720	0.276990	0.432510
N1701	N170	0.605210	0.321730	0.448540
N1711	N171	0.715910	0.374230	0.408740
N1721	N172	0.700980	0.344060	0.381240
N1731	N173	0.539530	0.210250	0.331580
N1741	N174	0.504720	0.197250	0.344370
N1751	N175	0.987640	0.957740	0.062380
N1761	N176	0.982960	0.935970	0.035930
N1771	N177	0.069190	0.026980	0.975970
N1781	N178	0.101920	0.078480	0.981600
N1791	N179	0.106750	0.141180	0.056530
N1801	N180	0.081880	0.112050	0.077530
C3011	C301	0.885750	0.468610	0.387360
C3021	C302	0.871680	0.446310	0.414590
C3031	C303	0.825120	0.412730	0.424050
C3041	C304	0.833190	0.404030	0.450020
C3051	C305	0.796590	0.369770	0.469560
C3061	C306	0.838610	0.806810	0.481820
C3071	C307	0.866410	0.842970	0.461380
C3081	C308	0.860770	0.830340	0.429910
C3091	C309	0.898590	0.879940	0.422930
C3101	C310	0.912530	0.893360	0.394090
C3111	C311	0.121840	0.526220	0.446460
C3121	C312	0.094160	0.529710	0.432470
C3131	C313	0.097370	0.545350	0.406920
C3141	C314	0.063950	0.541920	0.405270
C3151	C315	0.050300	0.552900	0.382600
C3161	C316	0.230610	0.251560	0.164170
C3171	C317	0.218290	0.271200	0.152490
C3181	C318	0.181240	0.248230	0.126070
C3191	C319	0.188230	0.284470	0.126700
C3201	C320	0.158430	0.281250	0.105280
C3211	C321	0.958830	0.326080	0.197310
C3221	C322	0.996400	0.339210	0.184410
C3231	C323	0.052540	0.387360	0.190500
C3241	C324	0.066010	0.376650	0.171460
C3251	C325	0.120800	0.413910	0.169110
C3261	C326	0.510760	0.585980	0.273740
C3271	C327	0.467780	0.527090	0.262670
C3281	C328	0.469720	0.498650	0.266170
C3291	C329	0.417690	0.444480	0.250970
C3301	C330	0.394980	0.395390	0.247370
C3311	C331	0.609310	0.447260	0.626770
C3321	C332	0.581140	0.409370	0.646510
C3331	C333	0.583590	0.417690	0.676880
C3341	C334	0.549040	0.368600	0.682840
C3351	C335	0.533750	0.351910	0.711260
C3361	C336	0.675920	0.481370	0.738690
C3371	C337	0.660870	0.497370	0.725040
C3381	C338	0.619960	0.469490	0.698850
C3391	C339	0.626480	0.504930	0.696810
C3401	C340	0.593680	0.497440	0.674120
C3411	C341	0.489910	0.188250	0.510160
C3421	C342	0.511070	0.236070	0.522140
C3431	C343	0.541310	0.279990	0.510900
C3441	C344	0.553600	0.314460	0.532260
C3451	C345	0.584970	0.367770	0.532740
C3461	C346	0.011550	0.917150	0.769100
C3471	C347	0.059800	0.940610	0.764610
C3481	C348	0.064750	0.925650	0.739800
C3491	C349	0.119230	0.962310	0.748740
C3501	C350	0.149520	0.968050	0.731770
C3511	C351	0.025210	0.825580	0.723190
C3521	C352	0.004810	0.834520	0.706330
C3531	C353	0.021930	0.878330	0.713060
C3541	C354	0.986150	0.863240	0.690190
C3551	C355	0.984390	0.893640	0.685430
C3561	C356	0.246160	0.149980	0.949540
C3571	C357	0.196790	0.106350	0.922340
C3581	C358	0.144210	0.071430	0.920240
C3591	C359	0.116220	0.040030	0.889650
C3601	C360	0.057610	0.994470	0.873080
C3611	C361	0.189520	0.658010	0.388330
C3621	C362	0.163330	0.607410	0.375140
C3631	C363	0.126620	0.560180	0.384200
C3641	C364	0.117560	0.526840	0.364400
C3651	C365	0.082140	0.471340	0.363080
C3661	C366	0.071910	0.408990	0.263700
C3671	C367	0.095390	0.447060	0.244850
C3681	C368	0.088200	0.438220	0.213220
C3691	C369	0.120700	0.487800	0.208900
C3701	C370	0.129910	0.503590	0.179500
C3711	C371	0.195110	0.671140	0.207450
C3721	C372	0.210830	0.685910	0.240940
C3731	C373	0.224500	0.722400	0.262300
C3741	C374	0.235860	0.721280	0.290540
C3751	C375	0.251050	0.750110	0.321960
C3761	C376	0.673560	0.573660	0.205620
C3771	C377	0.720710	0.615080	0.233190
C3781	C378	0.775430	0.655640	0.235870
C3791	C379	0.801830	0.681390	0.267020
C3801	C380	0.860860	0.728680	0.283940
C3811	C381	0.884340	0.793750	0.386490
C3821	C382	0.831200	0.762730	0.388530
C3831	C383	0.821650	0.777510	0.408160
C3841	C384	0.765060	0.732500	0.400160
C3851	C385	0.730060	0.723110	0.413970
C3861	C386	0.545040	0.567380	0.337020
C3871	C387	0.550500	0.551730	0.311030
C3881	C388	0.517660	0.521240	0.280900
C3891	C389	0.540270	0.517500	0.266370
C3901	C390	0.522390	0.489540	0.233730
C3911	C391	0.770610	0.689390	0.178000
C3921	C392	0.797640	0.683600	0.186040
C3931	C393	0.800620	0.669440	0.210660
C3941	C394	0.831210	0.670890	0.206300
C3951	C395	0.848530	0.659910	0.225640
C3961	C396	0.981750	0.716450	0.196400
C3971	C397	0.999290	0.745450	0.172540
C3981	C398	0.044990	0.778700	0.162090
C3991	C399	0.041820	0.796480	0.140900
C4001	C400	0.078330	0.831880	0.121410
C4011	C401	0.017330	0.876920	0.077450
C4021	C402	0.968350	0.846300	0.086650
C4031	C403	0.940450	0.849460	0.082310
C4041	C404	0.898590	0.812200	0.095990
C4051	C405	0.853800	0.795160	0.097360
C4061	C406	0.432240	0.034760	0.312800
C4071	C407	0.397350	0.027480	0.293830
C4081	C408	0.406490	0.064750	0.291440
C4091	C409	0.359210	0.035170	0.272180
C4101	C410	0.344800	0.052410	0.260410
C4111	C411	0.167690	0.901410	0.196700
C4121	C412	0.141860	0.849770	0.191830
C4131	C413	0.089780	0.796660	0.175840
C4141	C414	0.089280	0.766500	0.180380
C4151	C415	0.045570	0.707500	0.168470
C4161	C416	0.125410	0.679770	0.224580
C4171	C417	0.184310	0.736840	0.240150
C4181	C418	0.226380	0.755240	0.256220
C4191	C419	0.269210	0.810630	0.267840
C4201	C420	0.325900	0.853290	0.287590
C4211	C421	0.461740	0.208060	0.441600
C4221	C422	0.521730	0.256170	0.452300
C4231	C423	0.556810	0.288190	0.482400
C4241	C424	0.608410	0.328260	0.478470
C4251	C425	0.662080	0.374200	0.502280
C4261	C426	0.788500	0.440010	0.457110
C4271	C427	0.761830	0.402270	0.426500
C4281	C428	0.778540	0.392150	0.411090
C4291	C429	0.739540	0.356100	0.382840
C4301	C430	0.736770	0.331360	0.355930
C4311	C431	0.534800	0.165680	0.291480
C4321	C432	0.509620	0.165470	0.310290
C4331	C433	0.454730	0.122670	0.309200
C4341	C434	0.453900	0.145210	0.330910
C4351	C435	0.407350	0.119890	0.340040
C4361	C436	0.970320	0.941010	0.112330
C4371	C437	0.971150	0.928540	0.081890
C4381	C438	0.956280	0.887910	0.068190
C4391	C439	0.963950	0.893780	0.038930
C4401	C440	0.953120	0.861150	0.013470
C4411	C441	0.050730	0.964800	0.943130
C4421	C442	0.079840	0.018010	0.953850
C4431	C443	0.120980	0.064800	0.944380
C4441	C444	0.133480	0.101520	0.962400
C4451	C445	0.172290	0.157640	0.961730
C4461	C446	0.180030	0.236140	0.054370
C4471	C447	0.145010	0.193460	0.070870
C4481	C448	0.145040	0.198810	0.101650
C4491	C449	0.104910	0.146470	0.104580
C4501	C450	0.086510	0.126670	0.131980
H3611	H361	0.922000	0.492100	0.387300
H3621	H362	0.885100	0.489600	0.388700
H3631	H363	0.859300	0.438600	0.368500
H3641	H364	0.814900	0.373500	0.486600
H3651	H365	0.763400	0.331900	0.457300
H3661	H366	0.787500	0.381600	0.477700
H3671	H367	0.865700	0.823700	0.500200
H3681	H368	0.817500	0.771800	0.470900
H3691	H369	0.814300	0.801100	0.487800
H3701	H370	0.924200	0.923200	0.393000
H3711	H371	0.880700	0.861500	0.376800
H3721	H372	0.941900	0.904200	0.393300
H3731	H373	0.120200	0.525100	0.467700
H3741	H374	0.159800	0.558000	0.446200
H3751	H375	0.103600	0.493200	0.434600
H3761	H376	0.015600	0.533000	0.382800
H3771	H377	0.047500	0.541200	0.362100
H3781	H378	0.078700	0.591800	0.387900
H3791	H379	0.268500	0.282700	0.176600
H3801	H380	0.224600	0.231600	0.146800
H3811	H381	0.206700	0.227600	0.176700
H3821	H382	0.147100	0.288400	0.117100
H3831	H383	0.126500	0.245000	0.090700
H3841	H384	0.182300	0.308300	0.094000
H3851	H385	0.922500	0.294400	0.182900
H3861	H386	0.971400	0.357000	0.200800
H3871	H387	0.957800	0.318200	0.216800
H3881	H388	0.117500	0.394900	0.153200
H3891	H389	0.142800	0.426100	0.188900
H3901	H390	0.138300	0.445400	0.163700
H3911	H391	0.506100	0.596400	0.258500
H3921	H392	0.546400	0.606600	0.276800
H3931	H393	0.508000	0.593600	0.293200
H3941	H394	0.356300	0.364200	0.246100
H3951	H395	0.414000	0.400700	0.265100
H3961	H396	0.399500	0.388700	0.228600
H3971	H397	0.614600	0.437200	0.610800
H3981	H398	0.587000	0.444700	0.617100
H3991	H399	0.644500	0.484500	0.639400
H4001	H400	0.495500	0.314100	0.706000
H4011	H401	0.556300	0.355400	0.722300
H4021	H402	0.539500	0.375200	0.724300
H4031	H403	0.715000	0.513900	0.748700
H4041	H404	0.656200	0.462400	0.753800
H4051	H405	0.666500	0.457400	0.722500
H4061	H406	0.586300	0.509600	0.685100
H4071	H407	0.614100	0.518900	0.659800
H4081	H408	0.559400	0.459100	0.662700
H4091	H409	0.470600	0.164700	0.523700
H4101	H410	0.465100	0.168100	0.489600
H4111	H411	0.520200	0.200500	0.509300
H4121	H412	0.578500	0.377100	0.548200
H4131	H413	0.623700	0.395600	0.537900
H4141	H414	0.573500	0.365900	0.512600
H4151	H415	0.010000	0.915000	0.790200
H4161	H416	0.014800	0.940400	0.765200
H4171	H417	0.978300	0.880700	0.754800
H4181	H418	0.184300	0.006300	0.733000
H4191	H419	0.155900	0.954500	0.740800
H4201	H420	0.128200	0.947000	0.710200
H4211	H421	0.024600	0.808000	0.708600
H4221	H422	0.062600	0.860600	0.736000
H4231	H423	0.002200	0.802500	0.736300
H4241	H424	0.972800	0.886400	0.663400
H4251	H425	0.958700	0.881900	0.695200
H4261	H426	0.020400	0.932500	0.694500
H4271	H427	0.268200	0.150800	0.949200
H4281	H428	0.267400	0.185100	0.948700
H4291	H429	0.235000	0.142400	0.968400
H4301	H430	0.054200	0.997600	0.852600
H4311	H431	0.038600	0.959800	0.871400
H4321	H432	0.041600	0.996100	0.884500
H4331	H433	0.228500	0.689400	0.390500
H4341	H434	0.183700	0.658100	0.408400
H4351	H435	0.173600	0.659900	0.374700
H4361	H436	0.065400	0.450200	0.341600
H4371	H437	0.053700	0.453400	0.372900
H4381	H438	0.103900	0.473900	0.373800
H4391	H439	0.097300	0.429700	0.284200
H4401	H440	0.065300	0.383400	0.253700
H4411	H441	0.037600	0.388900	0.265500
H4421	H442	0.136300	0.530100	0.180800
H4431	H443	0.097800	0.471300	0.162300
H4441	H444	0.161500	0.519500	0.176200
H4451	H445	0.192000	0.647900	0.199300
H4461	H446	0.222800	0.704100	0.200700
H4471	H447	0.160200	0.651600	0.200000
H4481	H448	0.244100	0.731600	0.336700
H4491	H449	0.229400	0.749900	0.321700
H4501	H450	0.289700	0.787700	0.328000
H4511	H451	0.644400	0.538100	0.209500
H4521	H452	0.684200	0.572600	0.188400
H4531	H453	0.660800	0.582800	0.200800
H4541	H454	0.869600	0.750300	0.301900
H4551	H455	0.882800	0.751100	0.270300
H4561	H456	0.868600	0.715400	0.290600
H4571	H457	0.878200	0.768100	0.377900
H4581	H458	0.910000	0.816000	0.407000
H4591	H459	0.899200	0.817200	0.373200
H4601	H460	0.692600	0.690500	0.400700
H4611	H461	0.743300	0.754500	0.416000
H4621	H462	0.731300	0.718200	0.434300
H4631	H463	0.576100	0.591000	0.354900
H4641	H464	0.511500	0.534800	0.341900
H4651	H465	0.543800	0.586700	0.331500
H4661	H466	0.553700	0.507600	0.227700
H4671	H467	0.505800	0.491000	0.220400
H4681	H468	0.495800	0.451600	0.231800
H4691	H469	0.793300	0.720100	0.169400
H4701	H470	0.735400	0.656100	0.162900
H4711	H471	0.765500	0.695900	0.196400
H4721	H472	0.845200	0.638900	0.212300
H4731	H473	0.886300	0.694300	0.238000
H4741	H474	0.825300	0.639300	0.239200
H4751	H475	0.962800	0.714900	0.206900
H4761	H476	0.957300	0.679500	0.186600
H4771	H477	0.013700	0.735900	0.211400
H4781	H478	0.056500	0.818100	0.101000
H4791	H479	0.102900	0.868900	0.130800
H4801	H480	0.099500	0.831800	0.119700
H4811	H481	0.038600	0.881900	0.092500
H4821	H482	0.006000	0.856600	0.057200
H4831	H483	0.039600	0.912500	0.076700
H4841	H484	0.820800	0.756300	0.095300
H4851	H485	0.863500	0.815200	0.117100
H4861	H486	0.847600	0.802900	0.080700
H4871	H487	0.425200	0.009200	0.302000
H4881	H488	0.470500	0.071900	0.316400
H4891	H489	0.423900	0.027900	0.332400
H4901	H490	0.326700	0.034800	0.238300
H4911	H491	0.320300	0.041900	0.271000
H4921	H492	0.377700	0.091800	0.264100
H4931	H493	0.189900	0.923500	0.218000
H4941	H494	0.190600	0.921700	0.182900
H4951	H495	0.139400	0.892700	0.192300
H4961	H496	0.061200	0.702000	0.162600
H4971	H497	0.028000	0.689800	0.184400
H4981	H498	0.018700	0.691800	0.150500
H4991	H499	0.107600	0.681300	0.213300
H5001	H500	0.123200	0.660300	0.210300
H5011	H501	0.107300	0.660800	0.240100
H5021	H502	0.351900	0.884100	0.279000
H5031	H503	0.329700	0.865500	0.308400
H5041	H504	0.333000	0.838100	0.288300
H5051	H505	0.450700	0.204800	0.420700
H5061	H506	0.449200	0.212100	0.455100
H5071	H507	0.445600	0.175300	0.441900
H5081	H508	0.687400	0.382200	0.495200
H5091	H509	0.657700	0.364300	0.521400
H5101	H510	0.676400	0.406300	0.505700
H5111	H511	0.781600	0.455400	0.456400
H5121	H512	0.827700	0.469300	0.462400
H5131	H513	0.773800	0.420200	0.472600
H5141	H514	0.698800	0.295400	0.344800
H5151	H515	0.754700	0.328200	0.363500
H5161	H516	0.755200	0.354600	0.342200
H5171	H517	0.561000	0.198200	0.284200
H5181	H518	0.506700	0.133400	0.273900
H5191	H519	0.553500	0.165800	0.303900
H5201	H520	0.419000	0.136300	0.361900
H5211	H521	0.378100	0.080900	0.336200
H5221	H522	0.394400	0.125900	0.328100
H5231	H523	0.997800	0.979600	0.119200
H5241	H524	0.978300	0.932600	0.126900
H5251	H525	0.934500	0.919300	0.111200
H5261	H526	0.941000	0.859800	0.993800
H5271	H527	0.924800	0.824300	0.015300
H5281	H528	0.986400	0.877800	0.014400
H5291	H529	0.043700	0.950300	0.960600
H5301	H530	0.073200	0.970200	0.934000
H5311	H531	0.016300	0.939200	0.927700
H5321	H532	0.158600	0.165300	0.967700
H5331	H533	0.176100	0.160900	0.941000
H5341	H534	0.207700	0.183700	0.976000
H5351	H535	0.179400	0.223100	0.035700
H5361	H536	0.217200	0.269100	0.067700
H5371	H537	0.166300	0.244200	0.048900
H5381	H538	0.050600	0.087300	0.125500
H5391	H539	0.084700	0.144200	0.143300
H5401	H540	0.112300	0.135600	0.145300
Ag911	Ag91	0.561080	0.542660	0.066280
Ag921	Ag92	0.438170	0.426810	0.016340
Ag931	Ag93	0.043090	0.520230	0.046860
Ag941	Ag94	0.673270	0.107930	0.294480
Ag951	Ag95	0.732370	0.100280	0.332290
Ag961	Ag96	0.666140	0.889560	0.383920
Ag971	Ag97	0.226740	0.939470	0.906190
Ag981	Ag98	0.110220	0.837750	0.850570
Ag991	Ag99	0.121120	0.891400	0.917820
Ag1001	Ag100	0.689190	0.299620	0.669150
Ag1011	Ag101	0.750610	0.414340	0.693970
Ag1021	Ag102	0.743900	0.379950	0.619710
Ag1031	Ag103	0.826050	0.888670	0.180860
Ag1041	Ag104	0.725990	0.840530	0.198000
Ag1051	Ag105	0.850980	0.938100	0.254360
Ag1061	Ag106	0.801370	0.373390	0.223700
Ag1071	Ag107	0.852680	0.444920	0.173020
Ag1081	Ag108	0.778330	0.318170	0.152940
Ag1091	Ag109	0.100890	0.724180	0.364670
Ag1101	Ag110	0.045030	0.739080	0.333990
Ag1111	Ag111	0.171250	0.850190	0.380840
Ag1121	Ag112	0.133660	0.032640	0.232480
Ag1131	Ag113	0.182440	0.013950	0.266310
Ag1141	Ag114	0.068390	0.949260	0.281230
Ag1151	Ag115	0.355890	0.144250	0.112900
Ag1161	Ag116	0.425150	0.233770	0.074480
Ag1171	Ag117	0.426390	0.267450	0.145760
Ag1181	Ag118	0.464900	0.962390	0.432430
Ag1191	Ag119	0.475910	0.017330	0.495140
Ag1201	Ag120	0.590820	0.083060	0.482740
N1811	N181	0.523360	0.471240	0.066200
N1821	N182	0.475240	0.425980	0.044220
N1831	N183	0.923510	0.432100	0.028210
N1841	N184	0.969740	0.475380	0.051720
N1851	N185	0.571010	0.614690	0.054300
N1861	N186	0.595760	0.613250	0.071410
N1871	N187	0.648940	0.076990	0.331530
N1881	N188	0.673480	0.074100	0.347380
N1891	N189	0.638340	0.814700	0.337440
N1901	N190	0.669970	0.865990	0.345360
N1911	N191	0.746630	0.172160	0.253990
N1921	N192	0.702620	0.148070	0.261090
N1931	N193	0.224380	0.913310	0.865490
N1941	N194	0.175810	0.870350	0.842760
N1951	N195	0.308190	0.951960	0.762550
N1961	N196	0.330220	0.947780	0.780400
N1971	N197	0.194360	0.955950	0.951510
N1981	N198	0.236620	0.975700	0.945320
N1991	N199	0.696370	0.321100	0.713870
N2001	N200	0.719590	0.367660	0.723650
N2011	N201	0.615560	0.280860	0.818820
N2021	N202	0.643410	0.279390	0.828600
N2031	N203	0.701200	0.304640	0.604640
N2041	N204	0.680400	0.274910	0.624910
N2051	N205	0.751400	0.823850	0.148850
N2061	N206	0.708610	0.802590	0.155600
N2071	N207	0.739890	0.871330	0.242020
N2081	N208	0.787530	0.909360	0.264690
N2091	N209	0.907980	0.956820	0.243000
N2101	N210	0.899250	0.942250	0.212500
N2111	N211	0.855310	0.453480	0.238390
N2121	N212	0.875330	0.482640	0.217570
N2131	N213	0.843360	0.414750	0.130510
N2141	N214	0.816780	0.365820	0.122800
N2151	N215	0.751340	0.276420	0.185960
N2161	N216	0.757860	0.297630	0.213290
N2171	N217	0.025840	0.658260	0.331700
N2181	N218	0.005240	0.666330	0.318970
N2191	N219	0.085370	0.812460	0.341430
N2201	N220	0.135910	0.857850	0.361160
N2211	N221	0.207980	0.842980	0.397760
N2221	N222	0.180960	0.794160	0.392120
N2231	N223	0.201540	0.070360	0.223100
N2241	N224	0.219530	0.059850	0.236380
N2251	N225	0.145980	0.965130	0.294710
N2261	N226	0.101360	0.939660	0.302020
N2271	N227	0.037040	0.959650	0.258490
N2281	N228	0.066080	0.995790	0.241270
N2291	N229	0.344480	0.119210	0.067490
N2301	N230	0.373190	0.156670	0.051460
N2311	N231	0.465490	0.307170	0.091260
N2321	N232	0.462820	0.319740	0.118760
N2331	N233	0.378670	0.207950	0.168420
N2341	N234	0.352880	0.160350	0.155630
N2351	N235	0.395360	0.925260	0.437620
N2361	N236	0.400040	0.947030	0.464070
N2371	N237	0.551010	0.093220	0.524030
N2381	N238	0.596880	0.120320	0.518400
N2391	N239	0.584650	0.050220	0.443470
N2401	N240	0.534520	0.004350	0.422470
C4511	C451	0.581250	0.498390	0.112640
C4521	C452	0.531720	0.457090	0.085410
C4531	C453	0.488680	0.401070	0.075950
C4541	C454	0.454010	0.383170	0.049980
C4551	C455	0.400210	0.327030	0.030440
C4561	C456	0.824990	0.356790	0.018180
C4571	C457	0.881590	0.405030	0.038620
C4581	C458	0.900430	0.430860	0.070090
C4591	C459	0.957010	0.475660	0.077070
C4601	C460	0.999270	0.518440	0.105910
C4611	C461	0.579760	0.675380	0.053540
C4621	C462	0.597240	0.661690	0.067530
C4631	C463	0.638430	0.690450	0.093080
C4641	C464	0.636650	0.658680	0.094730
C4651	C465	0.670300	0.667700	0.117400
C4661	C466	0.587390	0.066440	0.335830
C4671	C467	0.618710	0.065800	0.347510
C4681	C468	0.622160	0.055170	0.373930
C4691	C469	0.657770	0.061530	0.373300
C4701	C470	0.675970	0.053150	0.394720
C4711	C471	0.628770	0.761520	0.302690
C4721	C472	0.654800	0.811990	0.315590
C4731	C473	0.696860	0.862040	0.309500
C4741	C474	0.705190	0.894550	0.328540
C4751	C475	0.744800	0.951690	0.330890
C4761	C476	0.812240	0.237020	0.226260
C4771	C477	0.764420	0.205110	0.237330
C4781	C478	0.732480	0.203550	0.233830
C4791	C479	0.693510	0.166720	0.249030
C4801	C480	0.648020	0.147610	0.252630
C4811	C481	0.320490	0.982540	0.873230
C4821	C482	0.262860	0.934630	0.853490
C4831	C483	0.240810	0.906710	0.823120
C4841	C484	0.185760	0.866200	0.817160
C4851	C485	0.140650	0.822490	0.788740
C4861	C486	0.242680	0.937230	0.761310
C4871	C487	0.272330	0.935830	0.774960
C4881	C488	0.270640	0.921110	0.801150
C4891	C489	0.308120	0.929670	0.803190
C4901	C490	0.323320	0.919560	0.825880
C4911	C491	0.178090	0.979750	0.989840
C4921	C492	0.213930	0.988930	0.977860
C4931	C493	0.269090	0.030410	0.989100
C4941	C494	0.282200	0.021340	0.967740
C4951	C495	0.335030	0.052230	0.967260
C4961	C496	0.648050	0.242450	0.730900
C4971	C497	0.676000	0.295190	0.735390
C4981	C498	0.685850	0.324950	0.760200
C4991	C499	0.713570	0.370490	0.751260
C5001	C500	0.736280	0.417750	0.768230
C5011	C501	0.602390	0.302020	0.776810
C5021	C502	0.628190	0.298480	0.793670
C5031	C503	0.665270	0.308870	0.786940
C5041	C504	0.673050	0.295960	0.809810
C5051	C505	0.708210	0.298960	0.814570
C5061	C506	0.700440	0.296620	0.550460
C5071	C507	0.684010	0.274450	0.577660
C5081	C508	0.651190	0.223970	0.579760
C5091	C509	0.650380	0.226570	0.610350
C5101	C510	0.621390	0.184530	0.626920
C5111	C511	0.769680	0.801190	0.111670
C5121	C512	0.732270	0.788190	0.124860
C5131	C513	0.675980	0.742420	0.115800
C5141	C514	0.662440	0.753160	0.135600
C5151	C515	0.608260	0.719060	0.136920
C5161	C516	0.645290	0.808210	0.236300
C5171	C517	0.702210	0.850540	0.255150
C5181	C518	0.725000	0.874980	0.286780
C5191	C519	0.778900	0.911800	0.291100
C5201	C520	0.824090	0.950410	0.320500
C5211	C521	0.963690	0.987660	0.292550
C5221	C522	0.944970	0.969890	0.259060
C5231	C523	0.960100	0.962200	0.237700
C5241	C524	0.930740	0.945320	0.209460
C5251	C525	0.928150	0.929090	0.178040
C5261	C526	0.868040	0.467940	0.294380
C5271	C527	0.881890	0.487520	0.266810
C5281	C528	0.919770	0.539560	0.264130
C5291	C529	0.914370	0.534810	0.232980
C5301	C530	0.944740	0.576920	0.216060
C5311	C531	0.907260	0.497850	0.113510
C5321	C532	0.874200	0.442670	0.111470
C5331	C533	0.869350	0.413490	0.091840
C5341	C534	0.832340	0.364900	0.099840
C5351	C535	0.809140	0.316090	0.086030
C5361	C536	0.730360	0.208020	0.162980
C5371	C537	0.740700	0.239470	0.188970
C5381	C538	0.740340	0.236760	0.219100
C5391	C539	0.751130	0.273900	0.233630
C5401	C540	0.755810	0.288660	0.266270
C5411	C541	0.011390	0.592610	0.322000
C5421	C542	0.997560	0.611600	0.313960
C5431	C543	0.958780	0.589960	0.289340
C5441	C544	0.964590	0.624910	0.293700
C5451	C545	0.934270	0.622890	0.274360
C5461	C546	0.020050	0.785350	0.303600
C5471	C547	0.072910	0.826750	0.327460
C5481	C548	0.116610	0.882900	0.337910
C5491	C549	0.155580	0.900920	0.359100
C5501	C550	0.210470	0.956920	0.378590
C5511	C551	0.299470	0.939880	0.422550
C5521	C552	0.259650	0.881700	0.413350
C5531	C553	0.267150	0.858140	0.417690
C5541	C554	0.216210	0.802600	0.404010
C5551	C555	0.197800	0.756440	0.402640
C5561	C556	0.221960	0.119440	0.187200
C5571	C557	0.233650	0.103520	0.206170
C5581	C558	0.273310	0.115050	0.208560
C5591	C559	0.262990	0.087030	0.227820
C5601	C560	0.292000	0.084390	0.239590
C5611	C561	0.204710	0.970990	0.303300
C5621	C562	0.157940	0.950030	0.308170
C5631	C563	0.120820	0.913940	0.324160
C5641	C564	0.086120	0.908900	0.319620
C5651	C565	0.039030	0.877100	0.331530
C5661	C566	0.955190	0.900830	0.275420
C5671	C567	0.996690	0.944160	0.259850
C5681	C568	0.999020	0.970160	0.243780
C5691	C569	0.042790	0.001370	0.232160
C5701	C570	0.065700	0.038310	0.212410
C5711	C571	0.266460	0.020140	0.058400
C5721	C572	0.303870	0.069430	0.047700
C5731	C573	0.305790	0.074410	0.017600
C5741	C574	0.349790	0.129940	0.021530
C5751	C575	0.371920	0.159800	0.997720
C5761	C576	0.482900	0.331390	0.042890
C5771	C577	0.475770	0.335330	0.073500
C5781	C578	0.481060	0.367450	0.088910
C5791	C579	0.473260	0.356700	0.117160
C5801	C580	0.475430	0.380840	0.144070
C5811	C581	0.374200	0.243320	0.208520
C5821	C582	0.355180	0.199330	0.189710
C5831	C583	0.313470	0.145530	0.190800
C5841	C584	0.314300	0.122990	0.169090
C5851	C585	0.279850	0.067310	0.159960
C5861	C586	0.328680	0.857990	0.387670
C5871	C587	0.346650	0.889260	0.418110
C5881	C588	0.319720	0.888090	0.431810
C5891	C589	0.354850	0.925020	0.461070
C5901	C590	0.347680	0.939650	0.486530
C5911	C591	0.521670	0.107600	0.556870
C5921	C592	0.564160	0.125990	0.546150
C5931	C593	0.620420	0.176600	0.555620
C5941	C594	0.639120	0.171080	0.537600
C5951	C595	0.695910	0.210560	0.538270
C5961	C596	0.681770	0.125660	0.445630
C5971	C597	0.622590	0.074140	0.429130
C5981	C598	0.597160	0.043390	0.398350
C5991	C599	0.541890	0.000330	0.395420
C6001	C600	0.494690	0.954530	0.368020
H5411	H541	0.604800	0.534700	0.112700
H5421	H542	0.600900	0.496400	0.111300
H5431	H543	0.570100	0.490800	0.131500
H5441	H544	0.386900	0.328300	0.013400
H5451	H545	0.374600	0.306100	0.042700
H5461	H546	0.403900	0.309800	0.022300
H5471	H547	0.823500	0.365500	0.999800
H5481	H548	0.800900	0.346600	0.029100
H5491	H549	0.813300	0.326500	0.012200
H5501	H550	0.030200	0.531200	0.107000
H5511	H551	0.984700	0.503900	0.123200
H5521	H552	0.010900	0.548600	0.106700
H5531	H553	0.557400	0.652500	0.032300
H5541	H554	0.611800	0.713600	0.053800
H5551	H555	0.558600	0.669000	0.065400
H5561	H556	0.650200	0.632800	0.117200
H5571	H557	0.679100	0.685400	0.137900
H5581	H558	0.703900	0.690800	0.112100
H5591	H559	0.606100	0.091900	0.323400
H5601	H560	0.584800	0.077800	0.353200
H5611	H561	0.550900	0.030000	0.323300
H5621	H562	0.671300	0.030000	0.382900
H5631	H563	0.654300	0.035800	0.409300
H5641	H564	0.714300	0.088300	0.406000
H5651	H565	0.611500	0.739600	0.317100
H5661	H566	0.656200	0.770600	0.299200
H5671	H567	0.601400	0.741000	0.283200
H5681	H568	0.741700	0.964300	0.346800
H5691	H569	0.737200	0.953900	0.311100
H5701	H570	0.781700	0.974600	0.336300
H5711	H571	0.837900	0.247600	0.241500
H5721	H572	0.829800	0.269600	0.223200
H5731	H573	0.800400	0.214800	0.206800
H5741	H574	0.618100	0.110200	0.253900
H5751	H575	0.635600	0.148900	0.234900
H5761	H576	0.660100	0.170900	0.271400
H5771	H577	0.326400	0.003800	0.889200
H5781	H578	0.327600	0.969900	0.882900
H5791	H579	0.345100	0.005100	0.860600
H5801	H580	0.108100	0.789500	0.794000
H5811	H581	0.133100	0.834000	0.777700
H5821	H582	0.150900	0.815200	0.775700
H5831	H583	0.265200	0.966300	0.751300
H5841	H584	0.208600	0.902400	0.746200
H5851	H585	0.234900	0.944000	0.777500
H5861	H586	0.324500	0.901200	0.814900
H5871	H587	0.359100	0.954300	0.840200
H5881	H588	0.296400	0.896700	0.837300
H5891	H589	0.141000	0.946900	0.976300
H5901	H590	0.178500	0.975500	0.010400
H5911	H591	0.191200	0.010900	0.990700
H5921	H592	0.328900	0.030300	0.951800
H5931	H593	0.357700	0.085800	0.962100
H5941	H594	0.353300	0.060900	0.987400
H5951	H595	0.624800	0.219800	0.709800
H5961	H596	0.675200	0.249600	0.734800
H5971	H597	0.625900	0.223500	0.745200
H5981	H598	0.773300	0.451300	0.767000
H5991	H599	0.713700	0.415100	0.759200
H6001	H600	0.736800	0.418000	0.789800
H6011	H601	0.599400	0.316000	0.791400
H6021	H602	0.624600	0.326600	0.764000
H6031	H603	0.566200	0.265900	0.763700
H6041	H604	0.723000	0.309400	0.836600
H6051	H605	0.686700	0.263500	0.804800
H6061	H606	0.738000	0.325900	0.805500
H6071	H607	0.701600	0.319000	0.550800
H6081	H608	0.736400	0.318700	0.551300
H6091	H609	0.674000	0.266600	0.531600
H6101	H610	0.645000	0.201600	0.647400
H6111	H611	0.588400	0.167200	0.628600
H6121	H612	0.611600	0.157100	0.615500
H6131	H613	0.798900	0.838000	0.109500
H6141	H614	0.749700	0.775300	0.091600
H6151	H615	0.785200	0.798900	0.125300
H6161	H616	0.608600	0.723800	0.158400
H6171	H617	0.580500	0.680800	0.127100
H6181	H618	0.600100	0.730100	0.126200
H6191	H619	0.645500	0.813100	0.215800
H6201	H620	0.629700	0.811600	0.246300
H6211	H621	0.623400	0.772100	0.234500
H6221	H622	0.849300	0.955500	0.319200
H6231	H623	0.809000	0.935500	0.337700
H6241	H624	0.843300	0.985300	0.323800
H6251	H625	0.948600	0.992700	0.300700
H6261	H626	0.003400	0.022100	0.299300
H6271	H627	0.951600	0.960200	0.300000
H6281	H628	0.894900	0.907400	0.163300
H6291	H629	0.928200	0.907700	0.178300
H6301	H630	0.959700	0.961700	0.172000
H6311	H631	0.828600	0.434900	0.290500
H6321	H632	0.884200	0.495800	0.311600
H6331	H633	0.882000	0.460000	0.299200
H6341	H634	0.948400	0.567700	0.198100
H6351	H635	0.980800	0.612500	0.229700
H6361	H636	0.924800	0.578000	0.209400
H6371	H637	0.890200	0.500300	0.122100
H6381	H638	0.909000	0.503000	0.093000
H6391	H639	0.944000	0.526000	0.126800
H6401	H640	0.789800	0.291900	0.099300
H6411	H641	0.838500	0.327300	0.084000
H6421	H642	0.783900	0.297000	0.065700
H6431	H643	0.736100	0.221200	0.145100
H6441	H644	0.692900	0.169600	0.158100
H6451	H645	0.755200	0.212300	0.168500
H6461	H646	0.779900	0.326000	0.272300
H6471	H647	0.770600	0.285400	0.279600
H6481	H648	0.719800	0.264000	0.268200
H6491	H649	0.050700	0.623900	0.330600
H6501	H650	0.993200	0.572500	0.337100
H6511	H651	0.999500	0.569100	0.303600
H6521	H652	0.926600	0.632900	0.287700
H6531	H653	0.956300	0.648300	0.262000
H6541	H654	0.900100	0.586100	0.260800
H6551	H655	0.008000	0.755900	0.293100
H6561	H656	0.992900	0.770700	0.313400
H6571	H657	0.024500	0.802300	0.288600
H6581	H658	0.217100	0.955500	0.399000
H6591	H659	0.238100	0.972100	0.369200
H6601	H660	0.212100	0.979800	0.380300
H6611	H661	0.289400	0.946100	0.407500
H6621	H662	0.299400	0.948800	0.442800
H6631	H663	0.335800	0.962900	0.423300
H6641	H664	0.161000	0.725500	0.404700
H6651	H665	0.198100	0.746400	0.382900
H6661	H666	0.222200	0.766900	0.419300
H6671	H667	0.207200	0.123200	0.198000
H6681	H668	0.255500	0.154100	0.183600
H6691	H669	0.195500	0.091500	0.167600
H6701	H670	0.296500	0.088400	0.261700
H6711	H671	0.270900	0.049300	0.229000
H6721	H672	0.327700	0.113600	0.235900
H6731	H673	0.205500	0.971900	0.282000
H6741	H674	0.238800	0.007700	0.317100
H6751	H675	0.200400	0.947100	0.307700
H6761	H676	0.039400	0.898600	0.337400
H6771	H677	0.005400	0.843600	0.315600
H6781	H678	0.041300	0.868200	0.349500
H6791	H679	0.968000	0.894300	0.286700
H6801	H680	0.950000	0.912900	0.289700
H6811	H681	0.920700	0.867200	0.259900
H6821	H682	0.105100	0.072900	0.221000
H6831	H683	0.057100	0.021300	0.191600
H6841	H684	0.049800	0.044700	0.211700
H6851	H685	0.284100	0.030000	0.079300
H6861	H686	0.257000	0.994100	0.044900
H6871	H687	0.233400	0.003700	0.058100
H6881	H688	0.387000	0.192200	0.004800
H6891	H689	0.342900	0.136300	0.978600
H6901	H690	0.400600	0.170700	0.994300
H6911	H691	0.499000	0.325200	0.043600
H6921	H692	0.506900	0.365300	0.037600
H6931	H693	0.447600	0.301200	0.027400
H6941	H694	0.450600	0.354000	0.155200
H6951	H695	0.464700	0.391200	0.136500
H6961	H696	0.512400	0.413000	0.157800
H6971	H697	0.414000	0.276800	0.215800
H6981	H698	0.359500	0.232800	0.226100
H6991	H699	0.361900	0.249600	0.196100
H7001	H700	0.274400	0.057100	0.138100
H7011	H701	0.244700	0.041900	0.163800
H7021	H702	0.297800	0.066300	0.171900
H7031	H703	0.360400	0.878600	0.380800
H7041	H704	0.305700	0.851400	0.373100
H7051	H705	0.308100	0.823300	0.388800
H7061	H706	0.366000	0.947200	0.506200
H7071	H707	0.309000	0.909500	0.484700
H7081	H708	0.363400	0.972000	0.485600
H7091	H709	0.489700	0.083100	0.539400
H7101	H710	0.536200	0.139200	0.566000
H7111	H711	0.511500	0.088600	0.572300
H7121	H712	0.697600	0.190900	0.532300
H7131	H713	0.719900	0.235100	0.559000
H7141	H714	0.707700	0.231700	0.524000
H7151	H715	0.687400	0.143700	0.464300
H7161	H716	0.701400	0.149500	0.432300
H7171	H717	0.695300	0.117400	0.451100
H7181	H718	0.461800	0.925100	0.374500
H7191	H719	0.500900	0.941400	0.356700
H7201	H720	0.490300	0.967000	0.354700
Ag1211	Ag121	0.957340	0.523620	0.018420
Ag1221	Ag122	0.073190	0.589530	0.011360
Ag1231	Ag123	0.979770	0.526630	0.522860
Ag1241	Ag124	0.392070	0.186550	0.565340
Ag1251	Ag125	0.399720	0.232010	0.632090
Ag1261	Ag126	0.610440	0.494360	0.776580
Ag1271	Ag127	0.560530	0.966720	0.287270
Ag1281	Ag128	0.662250	0.012820	0.272470
Ag1291	Ag129	0.608600	0.026420	0.229720
Ag1301	Ag130	0.200380	0.369530	0.389570
Ag1311	Ag131	0.085660	0.279630	0.336270
Ag1321	Ag132	0.120050	0.239760	0.363950
Ag1331	Ag133	0.611330	0.292190	0.937380
Ag1341	Ag134	0.659470	0.357470	0.885460
Ag1351	Ag135	0.561900	0.316260	0.912880
Ag1361	Ag136	0.126610	0.850310	0.427980
Ag1371	Ag137	0.055080	0.728100	0.407760
Ag1381	Ag138	0.181830	0.834770	0.460160
Ag1391	Ag139	0.775820	0.640490	0.376710
Ag1401	Ag140	0.760920	0.594910	0.305950
Ag1411	Ag141	0.649810	0.530650	0.321060
Ag1421	Ag142	0.467360	0.199840	0.101020
Ag1431	Ag143	0.486050	0.252360	0.168490
Ag1441	Ag144	0.550740	0.331970	0.119130
Ag1451	Ag145	0.355750	0.968650	0.211640
Ag1461	Ag146	0.266230	0.840710	0.191380
Ag1471	Ag147	0.232550	0.878310	0.158940
Ag1481	Ag148	0.537610	0.470040	0.502510
Ag1491	Ag149	0.482670	0.477810	0.458580
Ag1501	Ag150	0.416940	0.399680	0.507760
N2411	N241	0.028760	0.594960	0.052120
N2421	N242	0.074020	0.618240	0.049260
N2431	N243	0.067900	0.596110	0.491410
N2441	N244	0.024620	0.576340	0.494360
N2451	N245	0.885310	0.439610	0.956320
N2461	N246	0.886750	0.458160	0.982510
N2471	N247	0.423010	0.254540	0.571950
N2481	N248	0.425900	0.273280	0.599380
N2491	N249	0.685300	0.522740	0.823640
N2501	N250	0.634010	0.479370	0.803980
N2511	N251	0.327840	0.081830	0.574470
N2521	N252	0.351930	0.113020	0.554550
N2531	N253	0.586690	0.952180	0.311070
N2541	N254	0.629650	0.972410	0.305460
N2551	N255	0.548040	0.810590	0.356230
N2561	N256	0.552220	0.832620	0.382440
N2571	N257	0.544050	0.995560	0.238410
N2581	N258	0.524300	0.969620	0.260920
N2591	N259	0.178900	0.392770	0.375270
N2601	N260	0.132340	0.355990	0.351930
N2611	N261	0.219140	0.537960	0.334700
N2621	N262	0.220610	0.549210	0.364020
N2631	N263	0.195360	0.300000	0.396560
N2641	N264	0.225090	0.350000	0.405490
N2651	N265	0.676150	0.325000	0.927550
N2661	N266	0.697410	0.353010	0.906020
N2671	N267	0.628670	0.370690	0.868560
N2681	N268	0.590640	0.355330	0.878170
N2691	N269	0.543180	0.286180	0.951160
N2701	N270	0.557750	0.270250	0.957000
N2711	N271	0.046520	0.784910	0.401830
N2721	N272	0.017360	0.734930	0.392690
N2731	N273	0.085250	0.715760	0.428610
N2741	N274	0.134180	0.756980	0.450960
N2751	N275	0.223580	0.909540	0.474920
N2761	N276	0.202370	0.915660	0.460230
N2771	N277	0.841740	0.673440	0.367580
N2781	N278	0.833670	0.652640	0.338910
N2791	N279	0.687540	0.528970	0.272910
N2801	N280	0.642150	0.503310	0.278060
N2811	N281	0.657020	0.554780	0.365000
N2821	N282	0.705840	0.597960	0.386800
N2831	N283	0.429640	0.152740	0.131180
N2841	N284	0.440150	0.176530	0.159680
N2851	N285	0.534870	0.329580	0.180850
N2861	N286	0.560340	0.362360	0.161700
N2871	N287	0.540350	0.298840	0.077390
N2881	N288	0.504210	0.245480	0.070290
N2891	N289	0.380790	0.948280	0.225270
N2901	N290	0.343330	0.894790	0.216520
N2911	N291	0.192830	0.784090	0.158320
N2921	N292	0.180260	0.799020	0.143080
N2931	N293	0.292050	0.960470	0.170720
N2941	N294	0.339650	0.995280	0.192530
N2951	N295	0.574740	0.512360	0.470100
N2961	N296	0.552970	0.517040	0.453010
N2971	N297	0.406780	0.430810	0.457790
N2981	N298	0.379680	0.398080	0.476560
N2991	N299	0.449780	0.393250	0.534430
N3001	N300	0.495650	0.418120	0.530170
C6011	C601	0.001610	0.614250	0.082860
C6021	C602	0.042910	0.628320	0.074630
C6031	C603	0.098930	0.674880	0.087610
C6041	C604	0.116830	0.666810	0.070840
C6051	C605	0.172970	0.703410	0.073180
C6061	C606	0.143210	0.661390	0.468200
C6071	C607	0.094970	0.633590	0.476560
C6081	C608	0.069140	0.639230	0.469570
C6091	C609	0.024340	0.601410	0.481350
C6101	C610	0.981560	0.587470	0.480830
C6111	C611	0.824620	0.378160	0.904380
C6121	C612	0.838310	0.405840	0.935550
C6131	C613	0.809550	0.402630	0.947980
C6141	C614	0.841320	0.436050	0.977970
C6151	C615	0.832300	0.449700	0.002600
C6161	C616	0.433560	0.269390	0.520950
C6171	C617	0.434200	0.281710	0.552910
C6181	C618	0.444830	0.318760	0.566990
C6191	C619	0.438470	0.311770	0.596240
C6201	C620	0.446850	0.341570	0.622820
C6211	C621	0.738480	0.541170	0.867250
C6221	C622	0.688010	0.503600	0.842810
C6231	C623	0.637960	0.447460	0.834820
C6241	C624	0.605450	0.433990	0.810640
C6251	C625	0.548310	0.379200	0.793110
C6261	C626	0.262980	0.989240	0.575220
C6271	C627	0.294890	0.032220	0.559310
C6281	C628	0.296450	0.030280	0.528930
C6291	C629	0.333280	0.082310	0.526790
C6301	C630	0.352390	0.105020	0.500410
C6311	C631	0.517460	0.890690	0.337950
C6321	C632	0.565370	0.918860	0.328230
C6331	C633	0.593290	0.916410	0.334100
C6341	C634	0.633800	0.950960	0.319560
C6351	C635	0.677510	0.966250	0.318160
C6361	C636	0.562770	0.824080	0.305450
C6371	C637	0.564170	0.839130	0.336500
C6381	C638	0.578890	0.880040	0.349530
C6391	C639	0.570330	0.873520	0.378450
C6401	C640	0.580440	0.906320	0.403760
C6411	C641	0.520250	0.010090	0.198340
C6421	C642	0.511070	0.988930	0.225000
C6431	C643	0.469590	0.958690	0.238680
C6441	C644	0.478660	0.946400	0.260860
C6451	C645	0.447770	0.915030	0.282800
C6461	C646	0.257550	0.488450	0.405600
C6471	C647	0.204810	0.440200	0.380810
C6481	C648	0.175050	0.435250	0.360900
C6491	C649	0.129510	0.380770	0.343080
C6501	C650	0.082250	0.350480	0.318530
C6511	C651	0.197980	0.474790	0.300370
C6521	C652	0.201520	0.495190	0.329710
C6531	C653	0.191130	0.478070	0.356400
C6541	C654	0.204040	0.513850	0.377090
C6551	C655	0.201040	0.515610	0.409250
C6561	C656	0.203380	0.253840	0.403820
C6571	C657	0.225550	0.303210	0.409560
C6581	C658	0.276030	0.355790	0.427220
C6591	C659	0.273430	0.383780	0.423810
C6601	C660	0.315470	0.442390	0.436860
C6611	C661	0.698810	0.310480	0.968490
C6621	C662	0.711810	0.336670	0.944080
C6631	C663	0.757580	0.373380	0.933560
C6641	C664	0.746840	0.382440	0.909280
C6651	C665	0.780940	0.417860	0.889200
C6661	C666	0.691790	0.428090	0.837080
C6671	C667	0.649460	0.404610	0.851670
C6681	C668	0.625020	0.411800	0.850020
C6691	C669	0.588200	0.379300	0.867100
C6701	C670	0.549590	0.370090	0.873680
C6711	C671	0.512340	0.304890	0.976030
C6721	C672	0.530110	0.289170	0.975080
C6731	C673	0.537800	0.275500	0.997900
C6741	C674	0.554680	0.264140	0.985420
C6751	C675	0.570910	0.248950	0.999060
C6761	C676	0.032060	0.826440	0.400100
C6771	C677	0.012480	0.779290	0.394370
C6781	C678	0.960440	0.724570	0.380210
C6791	C679	0.965190	0.698170	0.379560
C6801	C680	0.923080	0.639140	0.367820
C6811	C681	0.002150	0.615660	0.409410
C6821	C682	0.057330	0.668800	0.431530
C6831	C683	0.086510	0.678350	0.455860
C6841	C684	0.135100	0.734940	0.467440
C6851	C685	0.183910	0.769940	0.493050
C6861	C686	0.291980	0.954960	0.522340
C6871	C687	0.260530	0.949500	0.501230
C6881	C688	0.263240	0.982340	0.503580
C6891	C689	0.226100	0.959730	0.477230
C6901	C690	0.211340	0.977610	0.467150
C6911	C691	0.907390	0.729390	0.418780
C6921	C692	0.888400	0.702360	0.385960
C6931	C693	0.910040	0.699380	0.368820
C6941	C694	0.875090	0.668790	0.339680
C6951	C695	0.877110	0.651470	0.311380
C6961	C696	0.714650	0.518250	0.234700
C6971	C697	0.673250	0.500710	0.246160
C6981	C698	0.617100	0.455010	0.233710
C6991	C699	0.599080	0.458180	0.254660
C7001	C700	0.543080	0.421670	0.253550
C7011	C701	0.560120	0.482670	0.359590
C7021	C702	0.618300	0.531650	0.377950
C7031	C703	0.641860	0.559550	0.409010
C7041	C704	0.697400	0.601410	0.413610
C7051	C705	0.743560	0.646200	0.441360
C7061	C706	0.380560	0.067760	0.102520
C7071	C707	0.396480	0.102650	0.130130
C7081	C708	0.384950	0.093510	0.158260
C7091	C709	0.412970	0.140790	0.175960
C7101	C710	0.415610	0.155200	0.207610
C7111	C711	0.529010	0.332310	0.233720
C7121	C712	0.549970	0.358140	0.207910
C7131	C713	0.586060	0.410220	0.206880
C7141	C714	0.591100	0.410720	0.177220
C7151	C715	0.622900	0.454430	0.161930
C7161	C716	0.599170	0.374590	0.054360
C7171	C717	0.555840	0.315690	0.052530
C7181	C718	0.529840	0.273620	0.028860
C7191	C719	0.498630	0.230790	0.041420
C7201	C720	0.461690	0.174100	0.027390
C7211	C721	0.479860	0.038260	0.246320
C7221	C722	0.430570	0.978270	0.234440
C7231	C723	0.425590	0.943190	0.231380
C7241	C724	0.370060	0.891590	0.219850
C7251	C725	0.340200	0.837920	0.212120
C7261	C726	0.168610	0.711500	0.151510
C7271	C727	0.164670	0.738170	0.140440
C7281	C728	0.132550	0.721460	0.113610
C7291	C729	0.143300	0.760460	0.116560
C7301	C730	0.119160	0.763230	0.094590
C7311	C731	0.256680	0.965200	0.130880
C7321	C732	0.300670	0.990380	0.155850
C7331	C733	0.354470	0.045270	0.167940
C7341	C734	0.377010	0.046100	0.191310
C7351	C735	0.432690	0.092650	0.212540
C7361	C736	0.642010	0.529680	0.470690
C7371	C737	0.610740	0.528850	0.457390
C7381	C738	0.611910	0.543720	0.431630
C7391	C739	0.574980	0.536050	0.429830
C7401	C740	0.560350	0.546880	0.408030
C7411	C741	0.392400	0.449270	0.414070
C7421	C742	0.374010	0.420160	0.438170
C7431	C743	0.323400	0.379020	0.443820
C7441	C744	0.328920	0.366520	0.468040
C7451	C745	0.289440	0.327710	0.485350
C7461	C746	0.374340	0.319970	0.556110
C7471	C747	0.425860	0.354990	0.548450
C7481	C748	0.456610	0.354960	0.553770
C7491	C749	0.499670	0.395090	0.541560
C7501	C750	0.545470	0.413490	0.540160
H7211	H721	0.965300	0.578000	0.070100
H7221	H722	0.003600	0.614900	0.104500
H7231	H723	0.009200	0.640700	0.079300
H7241	H724	0.171700	0.685100	0.058600
H7251	H725	0.193900	0.736600	0.068500
H7261	H726	0.190200	0.712500	0.094100
H7271	H727	0.134500	0.634300	0.458000
H7281	H728	0.153400	0.682500	0.454300
H7291	H729	0.173500	0.685700	0.486800
H7301	H730	0.968800	0.575800	0.499000
H7311	H731	0.996100	0.619300	0.480800
H7321	H732	0.951400	0.558100	0.462300
H7331	H733	0.847500	0.379800	0.904900
H7341	H734	0.786400	0.340200	0.898200
H7351	H735	0.831000	0.396400	0.889600
H7361	H736	0.867200	0.484400	0.017400
H7371	H737	0.814600	0.452500	0.993700
H7381	H738	0.809200	0.421300	0.013100
H7391	H739	0.408100	0.231500	0.514200
H7401	H740	0.422200	0.275400	0.507000
H7411	H741	0.470000	0.293300	0.520900
H7421	H742	0.470000	0.352900	0.641300
H7431	H743	0.464200	0.373500	0.618500
H7441	H744	0.411700	0.317700	0.626000
H7451	H745	0.760400	0.577500	0.871900
H7461	H746	0.729400	0.528600	0.885600
H7471	H747	0.759000	0.542200	0.860400
H7481	H748	0.535700	0.382500	0.777400
H7491	H749	0.546100	0.357200	0.783300
H7501	H750	0.525400	0.361700	0.807100
H7511	H751	0.252400	0.993900	0.590300
H7521	H752	0.230400	0.953600	0.560200
H7531	H753	0.285200	0.992000	0.585600
H7541	H754	0.389800	0.143700	0.507900
H7551	H755	0.351100	0.086000	0.486700
H7561	H756	0.329100	0.100500	0.489200
H7571	H757	0.496200	0.885400	0.322600
H7581	H758	0.530100	0.913000	0.357700
H7591	H759	0.494900	0.855500	0.340000
H7601	H760	0.710500	0.004500	0.318600
H7611	H761	0.666000	0.943700	0.299100
H7621	H762	0.684800	0.960500	0.335700
H7631	H763	0.533700	0.785000	0.298900
H7641	H764	0.597600	0.843800	0.306200
H7651	H765	0.556000	0.833500	0.290900
H7661	H766	0.598800	0.913700	0.423300
H7671	H767	0.545700	0.885900	0.404800
H7681	H768	0.603300	0.940600	0.399700
H7691	H769	0.553100	0.029400	0.194100
H7701	H770	0.524500	0.034900	0.203000
H7711	H771	0.489100	0.979800	0.180300
H7721	H772	0.469700	0.921500	0.298600
H7731	H773	0.414200	0.876300	0.271900
H7741	H774	0.439100	0.926500	0.292400
H7751	H775	0.280200	0.490000	0.405000
H7761	H776	0.250400	0.485200	0.425600
H7771	H777	0.276500	0.521700	0.402400
H7781	H778	0.048700	0.315700	0.322000
H7791	H779	0.084900	0.344100	0.298600
H7801	H780	0.082000	0.371800	0.318800
H7811	H781	0.184000	0.475400	0.283400
H7821	H782	0.173400	0.437400	0.298000
H7831	H783	0.234100	0.497800	0.300300
H7841	H784	0.190600	0.527200	0.413600
H7851	H785	0.236500	0.541300	0.423200
H7861	H786	0.174100	0.479600	0.412100
H7871	H787	0.181000	0.231800	0.382600
H7881	H788	0.181300	0.232600	0.417700
H7891	H789	0.233400	0.265000	0.407400
H7901	H790	0.298400	0.445800	0.443400
H7911	H791	0.332800	0.461400	0.421200
H7921	H792	0.342900	0.458400	0.454500
H7931	H793	0.662000	0.271500	0.960900
H7941	H794	0.724700	0.316300	0.974400
H7951	H795	0.701100	0.326400	0.986300
H7961	H796	0.776200	0.434600	0.884800
H7971	H797	0.819200	0.446300	0.899700
H7981	H798	0.769900	0.396100	0.870000
H7991	H799	0.686900	0.402700	0.832400
H8001	H800	0.688400	0.434700	0.818100
H8011	H801	0.727900	0.462400	0.851300
H8021	H802	0.544500	0.363700	0.893800
H8031	H803	0.564500	0.402200	0.873500
H8041	H804	0.514700	0.338500	0.858000
H8051	H805	0.507300	0.308000	0.955900
H8061	H806	0.477900	0.277200	0.981300
H8071	H807	0.539800	0.339800	0.991400
H8081	H808	0.592600	0.255900	0.987500
H8091	H809	0.592300	0.270600	0.020500
H8101	H810	0.538300	0.210300	0.998000
H8111	H811	0.065100	0.855600	0.393700
H8121	H812	0.004200	0.815800	0.388400
H8131	H813	0.040000	0.839200	0.422000
H8141	H814	0.932300	0.630400	0.380700
H8151	H815	0.887500	0.617200	0.368300
H8161	H816	0.922000	0.631400	0.346800
H8171	H817	0.999700	0.621800	0.389900
H8181	H818	0.997000	0.590000	0.406000
H8191	H819	0.974000	0.600800	0.418000
H8201	H820	0.208100	0.807400	0.497900
H8211	H821	0.172700	0.756700	0.511200
H8221	H822	0.203000	0.768700	0.486900
H8231	H823	0.278800	0.923900	0.514900
H8241	H824	0.330400	0.988500	0.523300
H8251	H825	0.287700	0.956200	0.542900
H8261	H826	0.174000	0.946300	0.453900
H8271	H827	0.214600	0.994200	0.485200
H8281	H828	0.236000	0.004200	0.455800
H8291	H829	0.876100	0.706700	0.426800
H8301	H830	0.927500	0.764600	0.420700
H8311	H831	0.930900	0.734500	0.430400
H8321	H832	0.867100	0.654800	0.293700
H8331	H833	0.851700	0.613700	0.308000
H8341	H834	0.913900	0.674700	0.314000
H8351	H835	0.744100	0.537200	0.252100
H8361	H836	0.729300	0.542700	0.222200
H8371	H837	0.697700	0.486300	0.222200
H8381	H838	0.544500	0.443500	0.261600
H8391	H839	0.527900	0.397100	0.266000
H8401	H840	0.520200	0.400500	0.232300
H8411	H841	0.553900	0.461400	0.343300
H8421	H842	0.551200	0.494000	0.350600
H8431	H843	0.537100	0.460400	0.372900
H8441	H844	0.774500	0.679200	0.435500
H8451	H845	0.753600	0.636500	0.451700
H8461	H846	0.733100	0.652400	0.455300
H8471	H847	0.376800	0.074800	0.084000
H8481	H848	0.345900	0.029500	0.101400
H8491	H849	0.408500	0.076100	0.104000
H8501	H850	0.411600	0.173300	0.208100
H8511	H851	0.450700	0.179700	0.221600
H8521	H852	0.386400	0.122300	0.214100
H8531	H853	0.528100	0.310100	0.233600
H8541	H854	0.492300	0.309400	0.231100
H8551	H855	0.552900	0.360600	0.253300
H8561	H856	0.601400	0.438800	0.140800
H8571	H857	0.656400	0.472000	0.161800
H8581	H858	0.631800	0.481300	0.173100
H8591	H859	0.605700	0.392400	0.073700
H8601	H860	0.587100	0.376800	0.037100
H8611	H861	0.632800	0.392700	0.053500
H8621	H862	0.427100	0.148100	0.032200
H8631	H863	0.478700	0.170300	0.035800
H8641	H864	0.455300	0.167000	0.005100
H8651	H865	0.470000	0.049300	0.254100
H8661	H866	0.505900	0.050800	0.262900
H8671	H867	0.496300	0.054400	0.229700
H8681	H868	0.307800	0.812600	0.194800
H8691	H869	0.363700	0.842300	0.206600
H8701	H870	0.329300	0.823600	0.229900
H8711	H871	0.174800	0.718400	0.173800
H8721	H872	0.134700	0.672300	0.141600
H8731	H873	0.198800	0.726200	0.146400
H8741	H874	0.146000	0.801200	0.096600
H8751	H875	0.108800	0.745300	0.073500
H8761	H876	0.087000	0.744800	0.099400
H8771	H877	0.223200	0.939000	0.137200
H8781	H878	0.267200	0.993300	0.126700
H8791	H879	0.250400	0.946500	0.112300
H8801	H880	0.442900	0.081000	0.217300
H8811	H881	0.458100	0.121900	0.202800
H8821	H882	0.433700	0.105600	0.231500
H8831	H883	0.621400	0.502200	0.481800
H8841	H884	0.648600	0.521700	0.454300
H8851	H885	0.676700	0.565500	0.484800
H8861	H886	0.552800	0.559000	0.418800
H8871	H887	0.590500	0.575200	0.399500
H8881	H888	0.528000	0.513600	0.391400
H8891	H889	0.416900	0.456300	0.406600
H8901	H890	0.360800	0.426800	0.397000
H8911	H891	0.411400	0.483700	0.422900
H8921	H892	0.309100	0.341400	0.506700
H8931	H893	0.264900	0.323900	0.484800
H8941	H894	0.268300	0.292300	0.476000
H8951	H895	0.356300	0.320600	0.543700
H8961	H896	0.350500	0.282800	0.551900
H8971	H897	0.382600	0.333700	0.577900
H8981	H898	0.574900	0.449400	0.536700
H8991	H899	0.558600	0.415300	0.559500
H9001	H900	0.533000	0.387700	0.523300
Ag1511	Ag151	0.005200	0.938920	0.481580
Ag1521	Ag152	0.078170	0.061830	0.488640
Ag1531	Ag153	0.503770	0.456910	0.977140
Ag1541	Ag154	0.121210	0.826730	0.934660
Ag1551	Ag155	0.099920	0.767630	0.867910
Ag1561	Ag156	0.217780	0.833860	0.723420
Ag1571	Ag157	0.179450	0.273260	0.212730
Ag1581	Ag158	0.240350	0.389780	0.227530
Ag1591	Ag159	0.296700	0.378880	0.270280
Ag1601	Ag160	0.479960	0.810810	0.110430
Ag1611	Ag161	0.443360	0.749390	0.163730
Ag1621	Ag162	0.375810	0.756100	0.136050
Ag1631	Ag163	0.854810	0.673950	0.562620
Ag1641	Ag164	0.972010	0.774010	0.614540
Ag1651	Ag165	0.903380	0.649020	0.587120
Ag1661	Ag166	0.922330	0.698630	0.072020
Ag1671	Ag167	0.820340	0.647320	0.092240
Ag1681	Ag168	0.874610	0.721670	0.039840
Ag1691	Ag169	0.763780	0.399110	0.123290
Ag1701	Ag170	0.788960	0.454970	0.194050
Ag1711	Ag171	0.709590	0.328750	0.178940
Ag1721	Ag172	0.598820	0.366340	0.398980
Ag1731	Ag173	0.583870	0.317560	0.331510
Ag1741	Ag174	0.712840	0.431610	0.380870
Ag1751	Ag175	0.257010	0.144110	0.288360
Ag1761	Ag176	0.149330	0.074850	0.308620
Ag1771	Ag177	0.219370	0.073610	0.341060
Ag1781	Ag178	0.467530	0.035100	0.997490
Ag1791	Ag179	0.519230	0.024090	0.041420
Ag1801	Ag180	0.391920	0.909180	0.992240
N3011	N301	0.042840	0.976640	0.447880
N3021	N302	0.068980	0.024760	0.450740
N3031	N303	0.604700	0.576490	0.008590
N3041	N304	0.581980	0.530260	0.005640
N3051	N305	0.983290	0.928990	0.543680
N3061	N306	0.975650	0.904240	0.517490
N3071	N307	0.182590	0.851060	0.928050
N3081	N308	0.173900	0.826520	0.900620
N3091	N309	0.199100	0.861660	0.676360
N3101	N310	0.175390	0.830030	0.696020
N3111	N311	0.007360	0.753370	0.925530
N3121	N312	0.058470	0.797380	0.945450
N3131	N313	0.141110	0.275620	0.188930
N3141	N314	0.166950	0.324190	0.194540
N3151	N315	0.954360	0.191810	0.143770
N3161	N316	0.950180	0.169780	0.117560
N3171	N317	0.257150	0.305640	0.261590
N3181	N318	0.208700	0.263380	0.239080
N3191	N319	0.517500	0.803630	0.124730
N3201	N320	0.504060	0.780410	0.148070
N3211	N321	0.703260	0.884440	0.165300
N3221	N322	0.685190	0.856590	0.135980
N3231	N323	0.403440	0.798800	0.103440
N3241	N324	0.444510	0.819600	0.094510
N3251	N325	0.897450	0.748600	0.572450
N3261	N326	0.946990	0.791390	0.593980
N3271	N327	0.002130	0.760110	0.631440
N3281	N328	0.977160	0.712470	0.621830
N3291	N329	0.835020	0.592020	0.548840
N3301	N330	0.813250	0.600750	0.543000
N3311	N331	0.883080	0.644690	0.098170
N3321	N332	0.842240	0.624670	0.107310
N3331	N333	0.787150	0.656640	0.071390
N3341	N334	0.806020	0.683220	0.049040
N3351	N335	0.934620	0.748660	0.025080
N3361	N336	0.955430	0.742140	0.039770
N3371	N337	0.805860	0.474160	0.132420
N3381	N338	0.813730	0.494760	0.161090
N3391	N339	0.756060	0.414630	0.227090
N3401	N340	0.725250	0.364090	0.221940
N3411	N341	0.689780	0.292020	0.135000
N3421	N342	0.711160	0.319040	0.113200
N3431	N343	0.521560	0.298460	0.368820
N3441	N344	0.516850	0.280470	0.340320
N3451	N345	0.648730	0.354020	0.319150
N3461	N346	0.700660	0.398640	0.338300
N3471	N347	0.721450	0.462960	0.422610
N3481	N348	0.675190	0.433920	0.429710
N3491	N349	0.223010	0.155520	0.274730
N3501	N350	0.178270	0.126810	0.283480
N3511	N351	0.125770	0.034510	0.341680
N3521	N352	0.155940	0.037180	0.356920
N3531	N353	0.289750	0.121330	0.329280
N3541	N354	0.302750	0.147120	0.307470
N3551	N355	0.542260	0.104640	0.029900
N3561	N356	0.564030	0.099960	0.046990
N3571	N357	0.473020	0.948990	0.042210
N3581	N358	0.421520	0.903120	0.023440
N3591	N359	0.358820	0.915350	0.965570
N3601	N360	0.387950	0.965480	0.969830
C7511	C751	0.031390	0.918750	0.417140
C7521	C752	0.053690	0.968280	0.425370
C7531	C753	0.087270	0.011320	0.412390
C7541	C754	0.095970	0.045990	0.429160
C7551	C755	0.130230	0.099790	0.426820
C7561	C756	0.693190	0.675010	0.031800
C7571	C757	0.657030	0.618410	0.023440
C7581	C758	0.669660	0.599570	0.030430
C7591	C759	0.620060	0.542990	0.018650
C7601	C760	0.606640	0.500730	0.019170
C7611	C761	0.973780	0.920240	0.595620
C7621	C762	0.970290	0.902760	0.564450
C7631	C763	0.954650	0.861570	0.552020
C7641	C764	0.958080	0.863350	0.522030
C7651	C765	0.947100	0.829700	0.497400
C7661	C766	0.248440	0.912610	0.979050
C7671	C767	0.228800	0.881290	0.947090
C7681	C768	0.251770	0.877840	0.933010
C7691	C769	0.215530	0.842230	0.903760
C7701	C770	0.218750	0.824030	0.877180
C7711	C771	0.173920	0.871230	0.632750
C7721	C772	0.160790	0.845200	0.657190
C7731	C773	0.112640	0.803140	0.665180
C7741	C774	0.123350	0.794810	0.689360
C7751	C775	0.086090	0.755200	0.706890
C7761	C776	0.914020	0.687760	0.924780
C7771	C777	0.972910	0.735580	0.940690
C7781	C778	0.001350	0.767520	0.971070
C7791	C779	0.055520	0.806490	0.973210
C7801	C780	0.104610	0.851980	0.999590
C7811	C781	0.052740	0.179510	0.162050
C7821	C782	0.090630	0.237140	0.171770
C7831	C783	0.082310	0.259190	0.165900
C7841	C784	0.131400	0.314240	0.180440
C7851	C785	0.148090	0.359350	0.181840
C7861	C786	0.018630	0.257320	0.194550
C7871	C787	0.002630	0.227670	0.163500
C7881	C788	0.030510	0.229360	0.150470
C7891	C789	0.995070	0.191880	0.121550
C7901	C790	0.002560	0.176680	0.096240
C7911	C791	0.311750	0.321910	0.301660
C7921	C792	0.263930	0.286070	0.275000
C7931	C793	0.220010	0.230910	0.261320
C7941	C794	0.185540	0.217800	0.239140
C7951	C795	0.132230	0.164970	0.217200
C7961	C796	0.582850	0.851950	0.094400
C7971	C797	0.559390	0.824000	0.119190
C7981	C798	0.574350	0.814150	0.139100
C7991	C799	0.537690	0.786430	0.156920
C8001	C800	0.531950	0.763720	0.181470
C8011	C801	0.674420	0.897610	0.199630
C8021	C802	0.665480	0.871810	0.170290
C8031	C803	0.621670	0.834730	0.143600
C8041	C804	0.636760	0.826950	0.122910
C8051	C805	0.606360	0.791790	0.090750
C8061	C806	0.350020	0.799560	0.096180
C8071	C807	0.393650	0.815990	0.090440
C8081	C808	0.428570	0.848810	0.072780
C8091	C809	0.459970	0.849620	0.076190
C8101	C810	0.505530	0.878610	0.063140
C8111	C811	0.841990	0.730320	0.531510
C8121	C812	0.892590	0.767730	0.555920
C8131	C813	0.939820	0.824020	0.566440
C8141	C814	0.973160	0.837560	0.590720
C8151	C815	0.028660	0.891740	0.610800
C8161	C816	0.091010	0.854710	0.662920
C8171	C817	0.052940	0.797790	0.648330
C8181	C818	0.061780	0.775000	0.649980
C8191	C819	0.012200	0.721100	0.632900
C8201	C820	0.996410	0.675910	0.626320
C8211	C821	0.828860	0.536310	0.523970
C8221	C822	0.814090	0.555030	0.524920
C8231	C823	0.777600	0.539900	0.502100
C8241	C824	0.778720	0.569260	0.514580
C8251	C825	0.749890	0.571850	0.500940
C8261	C826	0.926340	0.631960	0.099900
C8271	C827	0.884920	0.618110	0.105630
C8281	C828	0.844360	0.580230	0.119790
C8291	C829	0.818610	0.585630	0.120440
C8301	C830	0.771320	0.555260	0.132180
C8311	C831	0.706250	0.592740	0.090590
C8321	C832	0.737270	0.625800	0.068470
C8331	C833	0.722490	0.630650	0.044140
C8341	C834	0.767500	0.667660	0.032560
C8351	C835	0.776890	0.690860	0.006950
C8361	C836	0.932620	0.769640	0.977660
C8371	C837	0.948270	0.759300	0.998770
C8381	C838	0.978760	0.759660	0.996420
C8391	C839	0.982500	0.748870	0.022770
C8401	C840	0.010460	0.744190	0.032850
C8411	C841	0.810610	0.488610	0.081220
C8421	C842	0.816400	0.502440	0.114040
C8431	C843	0.830560	0.541220	0.131180
C8441	C844	0.829110	0.535410	0.160320
C8451	C845	0.840090	0.565730	0.188620
C8461	C846	0.783550	0.479950	0.265300
C8471	C847	0.754550	0.427090	0.253840
C8481	C848	0.721300	0.383390	0.266290
C8491	C849	0.703520	0.344420	0.245340
C8501	C850	0.668120	0.289530	0.246450
C8511	C851	0.623080	0.200530	0.140410
C8521	C852	0.653700	0.240350	0.122050
C8531	C853	0.650540	0.232850	0.090990
C8541	C854	0.687800	0.283790	0.086390
C8551	C855	0.704840	0.302200	0.058640
C8561	C856	0.465240	0.278040	0.397480
C8571	C857	0.472520	0.266350	0.369870
C8581	C858	0.435250	0.226690	0.341740
C8591	C859	0.464830	0.237010	0.324040
C8601	C860	0.447590	0.208000	0.292390
C8611	C861	0.598590	0.295290	0.266280
C8621	C862	0.650230	0.342060	0.292090
C8631	C863	0.703340	0.379180	0.293120
C8641	C864	0.733500	0.413880	0.322780
C8651	C865	0.792500	0.460970	0.338070
C8661	C866	0.820230	0.544810	0.445640
C8671	C867	0.763160	0.503310	0.447470
C8681	C868	0.744760	0.500980	0.471140
C8691	C869	0.689370	0.457210	0.458580
C8701	C870	0.646710	0.434300	0.472610
C8711	C871	0.291940	0.233540	0.253680
C8721	C872	0.243830	0.196130	0.265560
C8731	C873	0.211810	0.194210	0.268620
C8741	C874	0.171740	0.150210	0.280150
C8751	C875	0.125800	0.128080	0.287880
C8761	C876	0.059990	0.017100	0.348490
C8771	C877	0.097730	0.024230	0.359560
C8781	C878	0.107850	0.018940	0.386390
C8791	C879	0.143900	0.026740	0.383440
C8801	C880	0.168640	0.024570	0.405410
C8811	C881	0.334320	0.125800	0.369120
C8821	C882	0.334530	0.144820	0.344150
C8831	C883	0.377330	0.186530	0.332060
C8841	C884	0.354790	0.185700	0.308690
C8851	C885	0.380110	0.220150	0.287460
C8861	C886	0.558990	0.171320	0.029310
C8871	C887	0.571460	0.153350	0.042610
C8881	C888	0.612090	0.180280	0.068370
C8891	C889	0.606220	0.145150	0.070170
C8901	C890	0.638850	0.152320	0.091970
C8911	C891	0.535200	0.978330	0.085930
C8921	C892	0.481990	0.935840	0.061830
C8931	C893	0.435200	0.879580	0.056180
C8941	C894	0.398480	0.860880	0.031960
C8951	C895	0.342360	0.804090	0.014650
C8961	C896	0.263860	0.818230	0.943890
C8971	C897	0.306540	0.877410	0.951550
C8981	C898	0.301190	0.902840	0.946230
C8991	C899	0.353530	0.958110	0.958440
C9001	C900	0.373330	0.005310	0.959840
H9011	H901	0.007900	0.895200	0.429900
H9021	H902	0.010400	0.899100	0.395500
H9031	H903	0.061400	0.929900	0.420700
H9041	H904	0.126500	0.113100	0.441400
H9051	H905	0.168100	0.125400	0.431500
H9061	H906	0.118400	0.096100	0.405900
H9071	H907	0.676300	0.676500	0.042000
H9081	H908	0.728200	0.699100	0.045700
H9091	H909	0.698900	0.686700	0.013200
H9101	H910	0.576800	0.469800	0.001000
H9111	H911	0.638500	0.515300	0.019200
H9121	H912	0.595800	0.489100	0.037700
H9131	H913	0.974900	0.942600	0.595100
H9141	H914	0.942000	0.888200	0.601800
H9151	H915	0.006800	0.941400	0.610400
H9161	H916	0.967000	0.849800	0.482600
H9171	H917	0.958800	0.820900	0.506300
H9181	H918	0.908200	0.796100	0.486900
H9191	H919	0.217300	0.893900	0.985800
H9201	H920	0.268400	0.915200	0.993000
H9211	H921	0.272400	0.949100	0.979100
H9221	H922	0.211600	0.828700	0.858700
H9231	H923	0.255000	0.845700	0.881500
H9241	H924	0.191700	0.785700	0.874000
H9251	H925	0.205600	0.888500	0.628100
H9261	H926	0.143000	0.843800	0.614400
H9271	H927	0.181800	0.898600	0.639600
H9281	H928	0.105100	0.758300	0.722600
H9291	H929	0.073900	0.762800	0.716700
H9301	H930	0.054600	0.718300	0.692900
H9311	H931	0.903600	0.662100	0.909700
H9321	H932	0.893400	0.670200	0.939800
H9331	H933	0.906400	0.699600	0.914400
H9341	H934	0.135800	0.881900	0.992100
H9351	H935	0.099300	0.864400	0.013300
H9361	H936	0.111300	0.839900	0.010800
H9371	H937	0.062800	0.173600	0.177400
H9381	H938	0.055300	0.172400	0.142300
H9391	H939	0.015500	0.154900	0.160000
H9401	H940	0.185900	0.391900	0.181400
H9411	H941	0.144600	0.366900	0.200900
H9421	H942	0.124800	0.349100	0.164300
H9431	H943	0.986100	0.234800	0.201100
H9441	H944	0.037600	0.291400	0.193800
H9451	H945	0.042600	0.265100	0.209100
H9461	H946	0.990400	0.175500	0.076700
H9471	H947	0.981100	0.140900	0.095200
H9481	H948	0.040900	0.203600	0.100300
H9491	H949	0.335300	0.359000	0.305900
H9501	H950	0.331900	0.321500	0.297000
H9511	H951	0.299500	0.308800	0.319700
H9521	H952	0.122900	0.171100	0.201400
H9531	H953	0.104400	0.142300	0.228100
H9541	H954	0.134100	0.146700	0.207600
H9551	H955	0.585000	0.875200	0.095000
H9561	H956	0.559600	0.824800	0.074400
H9571	H957	0.619300	0.874100	0.097600
H9581	H958	0.493700	0.726700	0.178000
H9591	H959	0.545500	0.786300	0.201400
H9601	H960	0.553000	0.763200	0.181200
H9611	H961	0.692000	0.900600	0.216600
H9621	H962	0.639400	0.875400	0.202000
H9631	H963	0.697500	0.933800	0.199700
H9641	H964	0.613600	0.777000	0.086400
H9651	H965	0.618100	0.813300	0.076800
H9661	H966	0.567500	0.762000	0.087900
H9671	H967	0.349200	0.798400	0.117400
H9681	H968	0.314900	0.763600	0.082300
H9691	H969	0.357600	0.826000	0.092600
H9701	H970	0.502400	0.855000	0.056600
H9711	H971	0.540200	0.911600	0.078800
H9721	H972	0.503900	0.888400	0.045500
H9731	H973	0.810600	0.701100	0.539100
H9741	H974	0.841900	0.750300	0.525600
H9751	H975	0.840100	0.714800	0.513700
H9761	H976	0.049800	0.891400	0.615200
H9771	H977	0.046600	0.919500	0.600300
H9781	H978	0.026100	0.899900	0.630000
H9791	H979	0.070300	0.854500	0.667600
H9801	H980	0.116600	0.870300	0.681900
H9811	H981	0.111100	0.876600	0.648700
H9821	H982	0.969900	0.650700	0.606200
H9831	H983	0.028700	0.691000	0.626500
H9841	H984	0.980500	0.656700	0.642000
H9851	H985	0.852100	0.551400	0.544100
H9861	H986	0.795900	0.496600	0.518700
H9871	H987	0.848400	0.548400	0.508600
H9881	H988	0.768400	0.605100	0.512500
H9891	H989	0.750100	0.571800	0.479500
H9901	H990	0.712300	0.540300	0.502000
H9911	H991	0.961900	0.671400	0.106300
H9921	H992	0.927400	0.615800	0.111600
H9931	H993	0.917200	0.618000	0.078000
H9941	H994	0.749700	0.551600	0.119300
H9951	H995	0.748900	0.519200	0.131700
H9961	H996	0.784600	0.575200	0.153200
H9971	H997	0.731900	0.609800	0.110100
H9981	H998	0.684000	0.591000	0.094000
H9991	H999	0.682800	0.556000	0.082000
H10001	H1000	0.809500	0.710200	0.002100
H10011	H1001	0.745500	0.661500	0.988800
H10021	H1002	0.781800	0.716100	0.013100
H10031	H1003	0.909000	0.763900	0.985100
H10041	H1004	0.965200	0.807100	0.976700
H10051	H1005	0.913300	0.744800	0.957100
H10061	H1006	0.992400	0.720100	0.046100
H10071	H1007	0.009000	0.729400	0.014800
H10081	H1008	0.048400	0.780200	0.044200
H10091	H1009	0.779900	0.449300	0.073200
H10101	H1010	0.843900	0.506800	0.079300
H10111	H1011	0.804100	0.500500	0.069600
H10121	H1012	0.861100	0.573400	0.206300
H10131	H1013	0.805700	0.543700	0.192000
H10141	H1014	0.860700	0.599900	0.186000
H10151	H1015	0.785100	0.492000	0.247900
H10161	H1016	0.820500	0.507100	0.277800
H10171	H1017	0.764100	0.475500	0.277800
H10181	H1018	0.681900	0.282900	0.238400
H10191	H1019	0.631100	0.261900	0.234000
H10201	H1020	0.668200	0.287900	0.267700
H10211	H1021	0.618100	0.210600	0.156700
H10221	H1022	0.643400	0.200600	0.149400
H10231	H1023	0.587500	0.164200	0.127100
H10241	H1024	0.743700	0.339000	0.064500
H10251	H1025	0.684800	0.301900	0.048300
H10261	H1026	0.697100	0.277800	0.044700
H10271	H1027	0.490800	0.292800	0.416000
H10281	H1028	0.428100	0.244500	0.398600
H10291	H1029	0.472100	0.304500	0.396000
H10301	H1030	0.465200	0.203500	0.291900
H10311	H1031	0.458100	0.229100	0.278400
H10321	H1032	0.408200	0.172300	0.285900
H10331	H1033	0.576500	0.294500	0.266400
H10341	H1034	0.578300	0.261200	0.268900
H10351	H1035	0.607300	0.299600	0.246700
H10361	H1036	0.798000	0.460600	0.359200
H10371	H1037	0.810200	0.494600	0.338200
H10381	H1038	0.808200	0.458700	0.326900
H10391	H1039	0.818700	0.532000	0.426300
H10401	H1040	0.839700	0.550000	0.462900
H10411	H1041	0.839200	0.579300	0.446500
H10421	H1042	0.615900	0.394900	0.467800
H10431	H1043	0.634500	0.442900	0.464200
H10441	H1044	0.661900	0.450200	0.494900
H10451	H1045	0.295200	0.215900	0.245900
H10461	H1046	0.287900	0.243000	0.237100
H10471	H1047	0.324700	0.266600	0.270300
H10481	H1048	0.117800	0.113000	0.305200
H10491	H1049	0.135700	0.157100	0.293400
H10501	H1050	0.093700	0.099400	0.270100
H10511	H1051	0.044600	0.001000	0.326200
H10521	H1052	0.030700	0.993100	0.358400
H10531	H1053	0.079800	0.052400	0.353600
H10541	H1054	0.204600	0.049400	0.403400
H10551	H1055	0.171800	0.035300	0.426500
H10561	H1056	0.145400	0.987600	0.400600
H10571	H1057	0.301800	0.086000	0.362800
H10581	H1058	0.366600	0.140500	0.373300
H10591	H1059	0.334200	0.138100	0.387700
H10601	H1060	0.363700	0.225600	0.282700
H10611	H1061	0.419100	0.255300	0.297200
H10621	H1062	0.374100	0.202200	0.268500
H10631	H1063	0.520400	0.139600	0.018200
H10641	H1064	0.567400	0.194300	0.045700
H10651	H1065	0.580700	0.191900	0.015200
H10661	H1066	0.640200	0.134000	0.081200
H10671	H1067	0.675700	0.191000	0.100500
H10681	H1068	0.622200	0.136600	0.108600
H10691	H1069	0.549700	0.010300	0.093400
H10701	H1070	0.529800	0.963800	0.103000
H10711	H1071	0.560800	0.988500	0.077100
H10721	H1072	0.334700	0.802400	0.993300
H10731	H1073	0.339100	0.780100	0.015200
H10741	H1074	0.316300	0.792300	0.024000
H10751	H1075	0.276900	0.812600	0.956300
H10761	H1076	0.230900	0.798600	0.948100
H10771	H1077	0.255800	0.804700	0.922100
H10781	H1078	0.412700	0.038200	0.963300
H10791	H1079	0.355800	0.999100	0.940500
H10801	H1080	0.364400	0.009700	0.976700
Ag1811	Ag181	0.023620	0.505200	0.566280
Ag1821	Ag182	0.089530	0.578170	0.516340
Ag1831	Ag183	0.026630	0.003770	0.546860
Ag1841	Ag184	0.686550	0.621210	0.794480
Ag1851	Ag185	0.732010	0.599920	0.832290
Ag1861	Ag186	0.994360	0.717780	0.883920
Ag1871	Ag187	0.466720	0.679450	0.406190
Ag1881	Ag188	0.512820	0.740350	0.350570
Ag1891	Ag189	0.526420	0.796700	0.417820
Ag1901	Ag190	0.869530	0.979960	0.169150
Ag1911	Ag191	0.779630	0.943360	0.193970
Ag1921	Ag192	0.739760	0.875810	0.119710
Ag1931	Ag193	0.792190	0.354810	0.680860
Ag1941	Ag194	0.857470	0.472010	0.698000
Ag1951	Ag195	0.816260	0.403380	0.754360
Ag1961	Ag196	0.350310	0.422330	0.723700
Ag1971	Ag197	0.228100	0.320340	0.673020
Ag1981	Ag198	0.334770	0.374610	0.652940
Ag1991	Ag199	0.140490	0.263780	0.864670
Ag2001	Ag200	0.094910	0.288960	0.833990
Ag2011	Ag201	0.030650	0.209590	0.880840
Ag2021	Ag202	0.699840	0.098820	0.732480
Ag2031	Ag203	0.752360	0.083870	0.766310
Ag2041	Ag204	0.831970	0.212840	0.781230
Ag2051	Ag205	0.468650	0.757010	0.612900
Ag2061	Ag206	0.340710	0.649330	0.574480
Ag2071	Ag207	0.378310	0.719370	0.645760
Ag2081	Ag208	0.970040	0.967530	0.932430
Ag2091	Ag209	0.977810	0.019230	0.995140
Ag2101	Ag210	0.899680	0.891920	0.982740
N3611	N361	0.094960	0.542840	0.566200
N3621	N362	0.118240	0.568980	0.544220
N3631	N363	0.096110	0.104700	0.528210
N3641	N364	0.076340	0.081980	0.551720
N3651	N365	0.939610	0.483290	0.554300
N3661	N366	0.958160	0.475650	0.571410
N3671	N367	0.754540	0.682590	0.831530
N3681	N368	0.773280	0.673900	0.847380
N3691	N369	0.022740	0.699100	0.837440
N3701	N370	0.979370	0.675390	0.845360
N3711	N371	0.581830	0.507360	0.753990
N3721	N372	0.613020	0.558470	0.761090
N3731	N373	0.452180	0.641110	0.365490
N3741	N374	0.472410	0.666950	0.342760
N3751	N375	0.310590	0.454360	0.262550
N3761	N376	0.332620	0.450180	0.280400
N3771	N377	0.495560	0.757150	0.451510
N3781	N378	0.469620	0.708700	0.445320
N3791	N379	0.892770	0.017500	0.213870
N3801	N380	0.855990	0.004060	0.223650
N3811	N381	0.037960	0.203260	0.318820
N3821	N382	0.049210	0.185190	0.328600
N3831	N383	0.800000	0.903440	0.104640
N3841	N384	0.850000	0.944510	0.124910
N3851	N385	0.825000	0.397450	0.648850
N3861	N386	0.853010	0.446990	0.655600
N3871	N387	0.870690	0.502130	0.742020
N3881	N388	0.855330	0.477160	0.764690
N3891	N389	0.786180	0.335020	0.743000
N3901	N390	0.770250	0.313250	0.712500
N3911	N391	0.284910	0.383080	0.738390
N3921	N392	0.234930	0.342240	0.717570
N3931	N393	0.215760	0.287150	0.630510
N3941	N394	0.256980	0.306020	0.622800
N3951	N395	0.409540	0.434620	0.685960
N3961	N396	0.415660	0.455430	0.713290
N3971	N397	0.173440	0.305860	0.831700
N3981	N398	0.152640	0.313730	0.818970
N3991	N399	0.028970	0.256060	0.841430
N4001	N400	0.003310	0.225250	0.861160
N4011	N401	0.054780	0.189780	0.897760
N4021	N402	0.097960	0.211160	0.892120
N4031	N403	0.652740	0.021560	0.723100
N4041	N404	0.676530	0.016850	0.736380
N4051	N405	0.829580	0.148730	0.794710
N4061	N406	0.862360	0.200660	0.802020
N4071	N407	0.798840	0.221450	0.758490
N4081	N408	0.745480	0.175190	0.741270
N4091	N409	0.448280	0.723010	0.567490
N4101	N410	0.394790	0.678270	0.551460
N4111	N411	0.284090	0.625770	0.591260
N4121	N412	0.299020	0.655940	0.618760
N4131	N413	0.460470	0.789750	0.668420
N4141	N414	0.495280	0.802750	0.655630
N4151	N415	0.012360	0.042260	0.937620
N4161	N416	0.017040	0.064030	0.964070
N4171	N417	0.930810	0.973020	0.024030
N4181	N418	0.898080	0.921520	0.018400
N4191	N419	0.893250	0.858820	0.943470
N4201	N420	0.918120	0.887950	0.922470
C9011	C901	0.114250	0.531390	0.612640
C9021	C902	0.128320	0.553690	0.585410
C9031	C903	0.174880	0.587270	0.575950
C9041	C904	0.166810	0.595970	0.549980
C9051	C905	0.203410	0.630230	0.530440
C9061	C906	0.161390	0.193190	0.518180
C9071	C907	0.133590	0.157030	0.538620
C9081	C908	0.139230	0.169660	0.570090
C9091	C909	0.101410	0.120060	0.577070
C9101	C910	0.087470	0.106640	0.605910
C9111	C911	0.878160	0.473780	0.553540
C9121	C912	0.905840	0.470290	0.567530
C9131	C913	0.902630	0.454650	0.593080
C9141	C914	0.936050	0.458080	0.594730
C9151	C915	0.949700	0.447100	0.617400
C9161	C916	0.769390	0.748440	0.835830
C9171	C917	0.781710	0.728800	0.847510
C9181	C918	0.818760	0.751770	0.873930
C9191	C919	0.811770	0.715530	0.873300
C9201	C920	0.841570	0.718750	0.894720
C9211	C921	0.041170	0.673920	0.802690
C9221	C922	0.003600	0.660790	0.815590
C9231	C923	0.947460	0.612640	0.809500
C9241	C924	0.933990	0.623350	0.828540
C9251	C925	0.879200	0.586090	0.830890
C9261	C926	0.489240	0.414020	0.726260
C9271	C927	0.532220	0.472910	0.737330
C9281	C928	0.530280	0.501350	0.733830
C9291	C929	0.582310	0.555520	0.749030
C9301	C930	0.605020	0.604610	0.752630
C9311	C931	0.390690	0.552740	0.373230
C9321	C932	0.418860	0.590630	0.353490
C9331	C933	0.416410	0.582310	0.323120
C9341	C934	0.450960	0.631400	0.317160
C9351	C935	0.466250	0.648090	0.288740
C9361	C936	0.324080	0.518630	0.261310
C9371	C937	0.339130	0.502630	0.274960
C9381	C938	0.380040	0.530510	0.301150
C9391	C939	0.373520	0.495070	0.303190
C9401	C940	0.406320	0.502560	0.325880
C9411	C941	0.510090	0.811750	0.489840
C9421	C942	0.488930	0.763930	0.477860
C9431	C943	0.458690	0.720010	0.489100
C9441	C944	0.446400	0.685540	0.467740
C9451	C945	0.415030	0.632230	0.467260
C9461	C946	0.988450	0.082850	0.230900
C9471	C947	0.940200	0.059390	0.235390
C9481	C948	0.935250	0.074350	0.260200
C9491	C949	0.880770	0.037690	0.251260
C9501	C950	0.850480	0.031950	0.268230
C9511	C951	0.974790	0.174420	0.276810
C9521	C952	0.995190	0.165480	0.293670
C9531	C953	0.978070	0.121670	0.286940
C9541	C954	0.013850	0.136760	0.309810
C9551	C955	0.015610	0.106360	0.314570
C9561	C956	0.753840	0.850020	0.050460
C9571	C957	0.803210	0.893650	0.077660
C9581	C958	0.855790	0.928570	0.079760
C9591	C959	0.883780	0.959970	0.110350
C9601	C960	0.942390	0.005530	0.126920
C9611	C961	0.810480	0.341990	0.611670
C9621	C962	0.836670	0.392590	0.624860
C9631	C963	0.873380	0.439820	0.615800
C9641	C964	0.882440	0.473160	0.635600
C9651	C965	0.917860	0.528660	0.636920
C9661	C966	0.928090	0.591010	0.736300
C9671	C967	0.904610	0.552940	0.755150
C9681	C968	0.911800	0.561780	0.786780
C9691	C969	0.879300	0.512200	0.791100
C9701	C970	0.870090	0.496410	0.820500
C9711	C971	0.804890	0.328860	0.792550
C9721	C972	0.789170	0.314090	0.759060
C9731	C973	0.775500	0.277600	0.737700
C9741	C974	0.764140	0.278720	0.709460
C9751	C975	0.748950	0.249890	0.678040
C9761	C976	0.326440	0.426340	0.794380
C9771	C977	0.279290	0.384920	0.766810
C9781	C978	0.224570	0.344360	0.764130
C9791	C979	0.198170	0.318610	0.732980
C9801	C980	0.139140	0.271320	0.716060
C9811	C981	0.115660	0.206250	0.613510
C9821	C982	0.168800	0.237270	0.611470
C9831	C983	0.178350	0.222490	0.591840
C9841	C984	0.234940	0.267500	0.599840
C9851	C985	0.269940	0.276890	0.586030
C9861	C986	0.454960	0.432620	0.662980
C9871	C987	0.449500	0.448270	0.688970
C9881	C988	0.482340	0.478760	0.719100
C9891	C989	0.459730	0.482500	0.733630
C9901	C990	0.477610	0.510460	0.766270
C9911	C991	0.229390	0.310610	0.822000
C9921	C992	0.202360	0.316400	0.813960
C9931	C993	0.199380	0.330560	0.789340
C9941	C994	0.168790	0.329110	0.793700
C9951	C995	0.151470	0.340090	0.774360
C9961	C996	0.018250	0.283550	0.803600
C9971	C997	0.000710	0.254550	0.827460
C9981	C998	0.955010	0.221300	0.837910
C9991	C999	0.958180	0.203520	0.859100
C10001	C1000	0.921670	0.168120	0.878590
C10011	C1001	0.982670	0.123080	0.922550
C10021	C1002	0.031650	0.153700	0.913350
C10031	C1003	0.059550	0.150540	0.917690
C10041	C1004	0.101410	0.187800	0.904010
C10051	C1005	0.146200	0.204840	0.902640
C10061	C1006	0.567760	0.965240	0.687200
C10071	C1007	0.602650	0.972520	0.706170
C10081	C1008	0.593510	0.935250	0.708560
C10091	C1009	0.640790	0.964830	0.727820
C10101	C1010	0.655200	0.947590	0.739590
C10111	C1011	0.832310	0.098590	0.803300
C10121	C1012	0.858140	0.150230	0.808170
C10131	C1013	0.910220	0.203340	0.824160
C10141	C1014	0.910720	0.233500	0.819620
C10151	C1015	0.954430	0.292500	0.831530
C10161	C1016	0.874590	0.320230	0.775420
C10171	C1017	0.815690	0.263160	0.759850
C10181	C1018	0.773620	0.244760	0.743780
C10191	C1019	0.730790	0.189370	0.732160
C10201	C1020	0.674100	0.146710	0.712410
C10211	C1021	0.538260	0.791940	0.558400
C10221	C1022	0.478270	0.743830	0.547700
C10231	C1023	0.443190	0.711810	0.517600
C10241	C1024	0.391590	0.671740	0.521530
C10251	C1025	0.337920	0.625800	0.497720
C10261	C1026	0.211500	0.559990	0.542890
C10271	C1027	0.238170	0.597730	0.573500
C10281	C1028	0.221460	0.607850	0.588910
C10291	C1029	0.260460	0.643900	0.617160
C10301	C1030	0.263230	0.668640	0.644070
C10311	C1031	0.465200	0.834320	0.708520
C10321	C1032	0.490380	0.834530	0.689710
C10331	C1033	0.545270	0.877330	0.690800
C10341	C1034	0.546100	0.854790	0.669090
C10351	C1035	0.592650	0.880110	0.659960
C10361	C1036	0.029680	0.058990	0.887670
C10371	C1037	0.028850	0.071460	0.918110
C10381	C1038	0.043720	0.112090	0.931810
C10391	C1039	0.036050	0.106220	0.961070
C10401	C1040	0.046880	0.138850	0.986530
C10411	C1041	0.949270	0.035200	0.056870
C10421	C1042	0.920160	0.981990	0.046150
C10431	C1043	0.879020	0.935200	0.055620
C10441	C1044	0.866520	0.898480	0.037600
C10451	C1045	0.827710	0.842360	0.038270
C10461	C1046	0.819970	0.763860	0.945630
C10471	C1047	0.854990	0.806540	0.929130
C10481	C1048	0.854960	0.801190	0.898350
C10491	C1049	0.895090	0.853530	0.895420
C10501	C1050	0.913490	0.873330	0.868020
H10811	H1081	0.078000	0.507900	0.612700
H10821	H1082	0.114900	0.510400	0.611300
H10831	H1083	0.140700	0.561400	0.631500
H10841	H1084	0.185100	0.626500	0.513400
H10851	H1085	0.236600	0.668100	0.542700
H10861	H1086	0.212500	0.618400	0.522300
H10871	H1087	0.134300	0.176300	0.499800
H10881	H1088	0.182500	0.228200	0.529100
H10891	H1089	0.185700	0.198900	0.512200
H10901	H1090	0.075800	0.076800	0.607000
H10911	H1091	0.119300	0.138500	0.623200
H10921	H1092	0.058100	0.095800	0.606700
H10931	H1093	0.879800	0.474900	0.532300
H10941	H1094	0.840200	0.442000	0.553800
H10951	H1095	0.896400	0.506800	0.565400
H10961	H1096	0.984400	0.467000	0.617200
H10971	H1097	0.952500	0.458800	0.637900
H10981	H1098	0.921300	0.408200	0.612100
H10991	H1099	0.731500	0.717300	0.823400
H11001	H1100	0.775400	0.768400	0.853200
H11011	H1101	0.793300	0.772400	0.823300
H11021	H1102	0.852900	0.711600	0.882900
H11031	H1103	0.873500	0.755000	0.909300
H11041	H1104	0.817700	0.691700	0.906000
H11051	H1105	0.077500	0.705600	0.817100
H11061	H1106	0.028600	0.643000	0.799200
H11071	H1107	0.042200	0.681800	0.783200
H11081	H1108	0.882500	0.605100	0.846800
H11091	H1109	0.857200	0.573900	0.811100
H11101	H1110	0.861700	0.554600	0.836300
H11111	H1111	0.493900	0.403600	0.741500
H11121	H1112	0.453600	0.393400	0.723200
H11131	H1113	0.492000	0.406400	0.706800
H11141	H1114	0.643700	0.635800	0.753900
H11151	H1115	0.586000	0.599300	0.734900
H11161	H1116	0.600500	0.611300	0.771400
H11171	H1117	0.385400	0.562800	0.389200
H11181	H1118	0.413000	0.555300	0.382900
H11191	H1119	0.355500	0.515500	0.360600
H11201	H1120	0.504500	0.685900	0.294000
H11211	H1121	0.443700	0.644600	0.277700
H11221	H1122	0.460500	0.624800	0.275700
H11231	H1123	0.285000	0.486100	0.251300
H11241	H1124	0.343800	0.537600	0.246200
H11251	H1125	0.333500	0.542600	0.277500
H11261	H1126	0.413700	0.490400	0.314900
H11271	H1127	0.385900	0.481100	0.340200
H11281	H1128	0.440600	0.540900	0.337300
H11291	H1129	0.529400	0.835300	0.476300
H11301	H1130	0.534900	0.831900	0.510400
H11311	H1131	0.479800	0.799500	0.490700
H11321	H1132	0.421500	0.622900	0.451800
H11331	H1133	0.376300	0.604400	0.462100
H11341	H1134	0.426500	0.634100	0.487400
H11351	H1135	0.990000	0.085000	0.209800
H11361	H1136	0.985200	0.059600	0.234800
H11371	H1137	0.021700	0.119300	0.245200
H11381	H1138	0.815700	0.993700	0.267000
H11391	H1139	0.844100	0.045500	0.259200
H11401	H1140	0.871800	0.053000	0.289800
H11411	H1141	0.975400	0.192000	0.291400
H11421	H1142	0.937400	0.139400	0.264000
H11431	H1143	0.997800	0.197500	0.263700
H11441	H1144	0.027200	0.113600	0.336600
H11451	H1145	0.041300	0.118100	0.304800
H11461	H1146	0.979600	0.067500	0.305500
H11471	H1147	0.731800	0.849200	0.050800
H11481	H1148	0.732600	0.814900	0.051300
H11491	H1149	0.765000	0.857600	0.031600
H11501	H1150	0.945800	0.002400	0.147400
H11511	H1151	0.961400	0.040200	0.128600
H11521	H1152	0.958400	0.003900	0.115500
H11531	H1153	0.771500	0.310600	0.609500
H11541	H1154	0.816300	0.341900	0.591600
H11551	H1155	0.826400	0.340100	0.625300
H11561	H1156	0.934600	0.549800	0.658400
H11571	H1157	0.946300	0.546600	0.627100
H11581	H1158	0.896100	0.526100	0.626200
H11591	H1159	0.902700	0.570300	0.715800
H11601	H1160	0.934700	0.616600	0.746300
H11611	H1161	0.962400	0.611100	0.734500
H11621	H1162	0.863700	0.469900	0.819200
H11631	H1163	0.902200	0.528700	0.837700
H11641	H1164	0.838500	0.480500	0.823800
H11651	H1165	0.808000	0.352100	0.800700
H11661	H1166	0.777200	0.295900	0.799300
H11671	H1167	0.839800	0.348400	0.800000
H11681	H1168	0.755900	0.268400	0.663300
H11691	H1169	0.770600	0.250100	0.678300
H11701	H1170	0.710300	0.212300	0.672000
H11711	H1171	0.355600	0.461900	0.790500
H11721	H1172	0.315800	0.427400	0.811600
H11731	H1173	0.339200	0.417200	0.799200
H11741	H1174	0.130400	0.249700	0.698100
H11751	H1175	0.117200	0.248900	0.729700
H11761	H1176	0.131400	0.284600	0.709400
H11771	H1177	0.121800	0.231900	0.622100
H11781	H1178	0.090000	0.184000	0.593000
H11791	H1179	0.100800	0.182800	0.626800
H11801	H1180	0.307400	0.309500	0.599300
H11811	H1181	0.256700	0.245500	0.584000
H11821	H1182	0.268700	0.281800	0.565700
H11831	H1183	0.423900	0.409000	0.645100
H11841	H1184	0.488500	0.465200	0.658100
H11851	H1185	0.456200	0.413300	0.668500
H11861	H1186	0.446300	0.492400	0.772300
H11871	H1187	0.494200	0.509000	0.779600
H11881	H1188	0.504200	0.548400	0.768200
H11891	H1189	0.206700	0.279900	0.830600
H11901	H1190	0.264600	0.343900	0.837100
H11911	H1191	0.234500	0.304100	0.803600
H11921	H1192	0.154800	0.361100	0.787700
H11931	H1193	0.113700	0.305700	0.762000
H11941	H1194	0.174700	0.360700	0.760800
H11951	H1195	0.037200	0.285100	0.793100
H11961	H1196	0.042700	0.320500	0.813400
H11971	H1197	0.986300	0.264100	0.788600
H11981	H1198	0.943500	0.181900	0.899000
H11991	H1199	0.897100	0.131100	0.869200
H12001	H1200	0.900500	0.168200	0.880300
H12011	H1201	0.961400	0.118100	0.907500
H12021	H1202	0.994000	0.143400	0.942800
H12031	H1203	0.960400	0.087500	0.923300
H12041	H1204	0.179200	0.243700	0.904700
H12051	H1205	0.136500	0.184800	0.882900
H12061	H1206	0.152400	0.197100	0.919300
H12071	H1207	0.574800	0.990800	0.698000
H12081	H1208	0.529500	0.928100	0.683600
H12091	H1209	0.576100	0.972100	0.667600
H12101	H1210	0.673300	0.965200	0.761700
H12111	H1211	0.679700	0.958100	0.729000
H12121	H1212	0.622300	0.908200	0.735900
H12131	H1213	0.810100	0.076500	0.782000
H12141	H1214	0.809400	0.078300	0.817100
H12151	H1215	0.860600	0.107300	0.807700
H12161	H1216	0.938800	0.298000	0.837400
H12171	H1217	0.972000	0.310200	0.815600
H12181	H1218	0.981300	0.308200	0.849500
H12191	H1219	0.892400	0.318700	0.786700
H12201	H1220	0.876800	0.339700	0.789700
H12211	H1221	0.892700	0.339200	0.759900
H12221	H1222	0.648100	0.115900	0.721000
H12231	H1223	0.670300	0.134500	0.691600
H12241	H1224	0.667000	0.161900	0.711700
H12251	H1225	0.549300	0.795200	0.579300
H12261	H1226	0.550800	0.787900	0.544900
H12271	H1227	0.554400	0.824700	0.558100
H12281	H1228	0.312600	0.617800	0.504800
H12291	H1229	0.342300	0.635700	0.478600
H12301	H1230	0.323600	0.593700	0.494300
H12311	H1231	0.218400	0.544600	0.543600
H12321	H1232	0.172300	0.530700	0.537600
H12331	H1233	0.226200	0.579800	0.527400
H12341	H1234	0.301200	0.704600	0.655200
H12351	H1235	0.245300	0.671800	0.636500
H12361	H1236	0.244800	0.645400	0.657800
H12371	H1237	0.439000	0.801800	0.715800
H12381	H1238	0.493300	0.866600	0.726100
H12391	H1239	0.446500	0.834200	0.696100
H12401	H1240	0.581000	0.863700	0.638100
H12411	H1241	0.621900	0.919100	0.663800
H12421	H1242	0.605600	0.874100	0.671900
H12431	H1243	0.002200	0.020400	0.880800
H12441	H1244	0.021700	0.067400	0.873100
H12451	H1245	0.065500	0.080700	0.888800
H12461	H1246	0.059000	0.140200	0.006200
H12471	H1247	0.075200	0.175700	0.984700
H12481	H1248	0.013600	0.122200	0.985600
H12491	H1249	0.956300	0.049700	0.039400
H12501	H1250	0.926800	0.029800	0.066000
H12511	H1251	0.983700	0.060800	0.072300
H12521	H1252	0.841400	0.834700	0.032300
H12531	H1253	0.823900	0.839100	0.059000
H12541	H1254	0.792300	0.816300	0.024000
H12551	H1255	0.820600	0.776900	0.964300
H12561	H1256	0.782800	0.730900	0.932300
H12571	H1257	0.833700	0.755800	0.951100
H12581	H1258	0.949400	0.912700	0.874500
H12591	H1259	0.915300	0.855800	0.856700
H12601	H1260	0.887700	0.864400	0.854700
Ag2111	Ag211	0.438920	0.457340	0.933720
Ag2121	Ag212	0.561830	0.573190	0.983660
Ag2131	Ag213	0.956910	0.479770	0.953140
Ag2141	Ag214	0.326730	0.892070	0.705520
Ag2151	Ag215	0.267630	0.899720	0.667710
Ag2161	Ag216	0.333860	0.110440	0.616080
Ag2171	Ag217	0.773260	0.060530	0.093810
Ag2181	Ag218	0.889780	0.162250	0.149430
Ag2191	Ag219	0.878880	0.108600	0.082180
Ag2201	Ag220	0.310810	0.700380	0.330850
Ag2211	Ag221	0.249390	0.585660	0.306030
Ag2221	Ag222	0.256100	0.620050	0.380290
Ag2231	Ag223	0.173950	0.111330	0.819140
Ag2241	Ag224	0.274010	0.159470	0.802000
Ag2251	Ag225	0.149020	0.061900	0.745640
Ag2261	Ag226	0.198630	0.626610	0.776300
Ag2271	Ag227	0.147320	0.555080	0.826980
Ag2281	Ag228	0.221670	0.681830	0.847060
Ag2291	Ag229	0.899110	0.275820	0.635330
Ag2301	Ag230	0.954970	0.260920	0.666010
Ag2311	Ag231	0.828750	0.149810	0.619160
Ag2321	Ag232	0.866340	0.967360	0.767520
Ag2331	Ag233	0.817560	0.986050	0.733690
Ag2341	Ag234	0.931610	0.050740	0.718770
Ag2351	Ag235	0.644110	0.855750	0.887100
Ag2361	Ag236	0.574850	0.766230	0.925520
Ag2371	Ag237	0.573610	0.732550	0.854240
Ag2381	Ag238	0.535100	0.037610	0.567570
Ag2391	Ag239	0.524090	0.982670	0.504860
Ag2401	Ag240	0.409180	0.916940	0.517260
N4211	N421	0.476640	0.528760	0.933800
N4221	N422	0.524760	0.574020	0.955780
N4231	N423	0.076490	0.567900	0.971790
N4241	N424	0.030260	0.524620	0.948280
N4251	N425	0.428990	0.385310	0.945700
N4261	N426	0.404240	0.386750	0.928590
N4271	N427	0.351060	0.923010	0.668470
N4281	N428	0.326520	0.925900	0.652620
N4291	N429	0.361660	0.185300	0.662560
N4301	N430	0.330030	0.134010	0.654640
N4311	N431	0.253370	0.827840	0.746010
N4321	N432	0.297380	0.851930	0.738910
N4331	N433	0.775620	0.086690	0.134510
N4341	N434	0.824190	0.129650	0.157240
N4351	N435	0.691810	0.048040	0.237450
N4361	N436	0.669780	0.052220	0.219600
N4371	N437	0.805640	0.044050	0.048490
N4381	N438	0.763380	0.024300	0.054680
N4391	N439	0.303630	0.678900	0.286130
N4401	N440	0.280410	0.632340	0.276350
N4411	N441	0.384440	0.719140	0.181180
N4421	N442	0.356590	0.720610	0.171400
N4431	N443	0.298800	0.695360	0.395360
N4441	N444	0.319600	0.725090	0.375090
N4451	N445	0.248600	0.176150	0.851150
N4461	N446	0.291390	0.197410	0.844400
N4471	N447	0.260110	0.128670	0.757980
N4481	N448	0.212470	0.090640	0.735310
N4491	N449	0.092020	0.043180	0.757000
N4501	N450	0.100750	0.057750	0.787500
N4511	N451	0.144690	0.546520	0.761610
N4521	N452	0.124670	0.517360	0.782430
N4531	N453	0.156640	0.585250	0.869490
N4541	N454	0.183220	0.634180	0.877200
N4551	N455	0.248660	0.723580	0.814040
N4561	N456	0.242140	0.702370	0.786710
N4571	N457	0.974160	0.341740	0.668300
N4581	N458	0.994760	0.333670	0.681030
N4591	N459	0.914630	0.187540	0.658570
N4601	N460	0.864090	0.142150	0.638840
N4611	N461	0.792020	0.157020	0.602240
N4621	N462	0.819040	0.205840	0.607880
N4631	N463	0.798460	0.929640	0.776900
N4641	N464	0.780470	0.940150	0.763620
N4651	N465	0.854020	0.034870	0.705290
N4661	N466	0.898640	0.060340	0.697980
N4671	N467	0.962960	0.040350	0.741510
N4681	N468	0.933920	0.004210	0.758730
N4691	N469	0.655520	0.880790	0.932510
N4701	N470	0.626810	0.843330	0.948540
N4711	N471	0.534510	0.692830	0.908740
N4721	N472	0.537180	0.680260	0.881240
N4731	N473	0.621330	0.792050	0.831580
N4741	N474	0.647120	0.839650	0.844370
N4751	N475	0.604640	0.074740	0.562380
N4761	N476	0.599960	0.052970	0.535930
N4771	N477	0.448990	0.906780	0.475970
N4781	N478	0.403120	0.879680	0.481600
N4791	N479	0.415350	0.949780	0.556530
N4801	N480	0.465480	0.995650	0.577530
C10511	C1051	0.418750	0.501610	0.887360
C10521	C1052	0.468280	0.542910	0.914590
C10531	C1053	0.511320	0.598930	0.924050
C10541	C1054	0.545990	0.616830	0.950020
C10551	C1055	0.599790	0.672970	0.969560
C10561	C1056	0.175010	0.643210	0.981820
C10571	C1057	0.118410	0.594970	0.961380
C10581	C1058	0.099570	0.569140	0.929910
C10591	C1059	0.042990	0.524340	0.922930
C10601	C1060	0.000730	0.481560	0.894090
C10611	C1061	0.420240	0.324620	0.946460
C10621	C1062	0.402760	0.338310	0.932470
C10631	C1063	0.361570	0.309550	0.906920
C10641	C1064	0.363350	0.341320	0.905270
C10651	C1065	0.329700	0.332300	0.882600
C10661	C1066	0.412610	0.933560	0.664170
C10671	C1067	0.381290	0.934200	0.652490
C10681	C1068	0.377840	0.944830	0.626070
C10691	C1069	0.342230	0.938470	0.626700
C10701	C1070	0.324030	0.946850	0.605280
C10711	C1071	0.371230	0.238480	0.697310
C10721	C1072	0.345200	0.188010	0.684410
C10731	C1073	0.303140	0.137960	0.690500
C10741	C1074	0.294810	0.105450	0.671460
C10751	C1075	0.255200	0.048310	0.669110
C10761	C1076	0.187760	0.762980	0.773740
C10771	C1077	0.235580	0.794890	0.762670
C10781	C1078	0.267520	0.796450	0.766170
C10791	C1079	0.306490	0.833280	0.750970
C10801	C1080	0.351980	0.852390	0.747370
C10811	C1081	0.679510	0.017460	0.126770
C10821	C1082	0.737140	0.065370	0.146510
C10831	C1083	0.759190	0.093290	0.176880
C10841	C1084	0.814240	0.133800	0.182840
C10851	C1085	0.859350	0.177510	0.211260
C10861	C1086	0.757320	0.062770	0.238690
C10871	C1087	0.727670	0.064170	0.225040
C10881	C1088	0.729360	0.078890	0.198850
C10891	C1089	0.691880	0.070330	0.196810
C10901	C1090	0.676680	0.080440	0.174120
C10911	C1091	0.821910	0.020250	0.010160
C10921	C1092	0.786070	0.011070	0.022140
C10931	C1093	0.730910	0.969590	0.010900
C10941	C1094	0.717800	0.978660	0.032260
C10951	C1095	0.664970	0.947770	0.032740
C10961	C1096	0.351950	0.757550	0.269100
C10971	C1097	0.324000	0.704810	0.264610
C10981	C1098	0.314150	0.675050	0.239800
C10991	C1099	0.286430	0.629510	0.248740
C11001	C1100	0.263720	0.582250	0.231770
C11011	C1101	0.397610	0.697980	0.223190
C11021	C1102	0.371810	0.701520	0.206330
C11031	C1103	0.334730	0.691130	0.213060
C11041	C1104	0.326950	0.704040	0.190190
C11051	C1105	0.291790	0.701040	0.185430
C11061	C1106	0.299560	0.703380	0.449540
C11071	C1107	0.315990	0.725550	0.422340
C11081	C1108	0.348810	0.776030	0.420240
C11091	C1109	0.349620	0.773430	0.389650
C11101	C1110	0.378610	0.815470	0.373080
C11111	C1111	0.230320	0.198810	0.888330
C11121	C1112	0.267730	0.211810	0.875140
C11131	C1113	0.324020	0.257580	0.884200
C11141	C1114	0.337560	0.246840	0.864400
C11151	C1115	0.391740	0.280940	0.863080
C11161	C1116	0.354710	0.191790	0.763700
C11171	C1117	0.297790	0.149460	0.744850
C11181	C1118	0.275000	0.125020	0.713220
C11191	C1119	0.221100	0.088200	0.708900
C11201	C1120	0.175910	0.049590	0.679500
C11211	C1121	0.036310	0.012340	0.707450
C11221	C1122	0.055030	0.030110	0.740940
C11231	C1123	0.039900	0.037800	0.762300
C11241	C1124	0.069260	0.054680	0.790540
C11251	C1125	0.071850	0.070910	0.821960
C11261	C1126	0.131960	0.532060	0.705620
C11271	C1127	0.118110	0.512480	0.733190
C11281	C1128	0.080230	0.460440	0.735870
C11291	C1129	0.085630	0.465190	0.767020
C11301	C1130	0.055260	0.423080	0.783940
C11311	C1131	0.092740	0.502150	0.886490
C11321	C1132	0.125800	0.557330	0.888530
C11331	C1133	0.130650	0.586510	0.908160
C11341	C1134	0.167660	0.635100	0.900160
C11351	C1135	0.190860	0.683910	0.913970
C11361	C1136	0.269640	0.791980	0.837020
C11371	C1137	0.259300	0.760530	0.811030
C11381	C1138	0.259660	0.763240	0.780900
C11391	C1139	0.248870	0.726100	0.766370
C11401	C1140	0.244190	0.711340	0.733730
C11411	C1141	0.988610	0.407390	0.678000
C11421	C1142	0.002440	0.388400	0.686040
C11431	C1143	0.041220	0.410040	0.710660
C11441	C1144	0.035410	0.375090	0.706300
C11451	C1145	0.065730	0.377110	0.725640
C11461	C1146	0.979950	0.214650	0.696400
C11471	C1147	0.927090	0.173250	0.672540
C11481	C1148	0.883390	0.117100	0.662090
C11491	C1149	0.844420	0.099080	0.640900
C11501	C1150	0.789530	0.043080	0.621410
C11511	C1151	0.700530	0.060120	0.577450
C11521	C1152	0.740350	0.118300	0.586650
C11531	C1153	0.732850	0.141860	0.582310
C11541	C1154	0.783790	0.197400	0.595990
C11551	C1155	0.802200	0.243560	0.597360
C11561	C1156	0.778040	0.880560	0.812800
C11571	C1157	0.766350	0.896480	0.793830
C11581	C1158	0.726690	0.884950	0.791440
C11591	C1159	0.737010	0.912970	0.772180
C11601	C1160	0.708000	0.915610	0.760410
C11611	C1161	0.795290	0.029010	0.696700
C11621	C1162	0.842060	0.049970	0.691830
C11631	C1163	0.879180	0.086060	0.675840
C11641	C1164	0.913880	0.091100	0.680380
C11651	C1165	0.960970	0.122900	0.668470
C11661	C1166	0.044810	0.099170	0.724580
C11671	C1167	0.003310	0.055840	0.740150
C11681	C1168	0.000980	0.029840	0.756220
C11691	C1169	0.957210	0.998630	0.767840
C11701	C1170	0.934300	0.961690	0.787590
C11711	C1171	0.733540	0.979860	0.941600
C11721	C1172	0.696130	0.930570	0.952300
C11731	C1173	0.694210	0.925590	0.982400
C11741	C1174	0.650210	0.870060	0.978470
C11751	C1175	0.628080	0.840200	0.002280
C11761	C1176	0.517100	0.668610	0.957110
C11771	C1177	0.524230	0.664670	0.926500
C11781	C1178	0.518940	0.632550	0.911090
C11791	C1179	0.526740	0.643300	0.882840
C11801	C1180	0.524570	0.619160	0.855930
C11811	C1181	0.625800	0.756680	0.791480
C11821	C1182	0.644820	0.800670	0.810290
C11831	C1183	0.686530	0.854470	0.809200
C11841	C1184	0.685700	0.877010	0.830910
C11851	C1185	0.720150	0.932690	0.840040
C11861	C1186	0.671320	0.142010	0.612330
C11871	C1187	0.653350	0.110740	0.581890
C11881	C1188	0.680280	0.111910	0.568190
C11891	C1189	0.645150	0.074980	0.538930
C11901	C1190	0.652320	0.060350	0.513470
C11911	C1191	0.478330	0.892400	0.443130
C11921	C1192	0.435840	0.874010	0.453850
C11931	C1193	0.379580	0.823400	0.444380
C11941	C1194	0.360880	0.828920	0.462400
C11951	C1195	0.304090	0.789440	0.461730
C11961	C1196	0.318230	0.874340	0.554370
C11971	C1197	0.377410	0.925860	0.570870
C11981	C1198	0.402840	0.956610	0.601650
C11991	C1199	0.458110	0.999670	0.604580
C12001	C1200	0.505310	0.045470	0.631980
H12611	H1261	0.395200	0.465300	0.887300
H12621	H1262	0.399100	0.503600	0.888700
H12631	H1263	0.429900	0.509200	0.868500
H12641	H1264	0.613100	0.671700	0.986600
H12651	H1265	0.625400	0.693900	0.957300
H12661	H1266	0.596100	0.690200	0.977700
H12671	H1267	0.176500	0.634500	0.000200
H12681	H1268	0.199100	0.653400	0.970900
H12691	H1269	0.186700	0.673500	0.987800
H12701	H1270	0.969800	0.468800	0.893000
H12711	H1271	0.015300	0.496100	0.876800
H12721	H1272	0.989100	0.451400	0.893300
H12731	H1273	0.442600	0.347500	0.967700
H12741	H1274	0.388200	0.286400	0.946200
H12751	H1275	0.441400	0.331000	0.934600
H12761	H1276	0.349800	0.367200	0.882800
H12771	H1277	0.320900	0.314600	0.862100
H12781	H1278	0.296100	0.309200	0.887900
H12791	H1279	0.393900	0.908100	0.676600
H12801	H1280	0.415200	0.922200	0.646800
H12811	H1281	0.449100	0.970000	0.676700
H12821	H1282	0.328700	0.970000	0.617100
H12831	H1283	0.345700	0.964200	0.590700
H12841	H1284	0.285700	0.911700	0.594000
H12851	H1285	0.388500	0.260400	0.682900
H12861	H1286	0.343800	0.229400	0.700800
H12871	H1287	0.398600	0.259000	0.716800
H12881	H1288	0.258300	0.035700	0.653200
H12891	H1289	0.262800	0.046100	0.688900
H12901	H1290	0.218300	0.025400	0.663700
H12911	H1291	0.162100	0.752400	0.758500
H12921	H1292	0.170200	0.730400	0.776800
H12931	H1293	0.199600	0.785200	0.793200
H12941	H1294	0.381900	0.889800	0.746100
H12951	H1295	0.364400	0.851100	0.765100
H12961	H1296	0.339900	0.829100	0.728600
H12971	H1297	0.673600	0.996200	0.110800
H12981	H1298	0.672400	0.030100	0.117100
H12991	H1299	0.654900	0.994900	0.139400
H13001	H1300	0.891900	0.210500	0.206000
H13011	H1301	0.866900	0.166000	0.222300
H13021	H1302	0.849100	0.184800	0.224300
H13031	H1303	0.734800	0.033700	0.248700
H13041	H1304	0.791400	0.097600	0.253800
H13051	H1305	0.765100	0.056000	0.222500
H13061	H1306	0.675500	0.098800	0.185100
H13071	H1307	0.640900	0.045700	0.159800
H13081	H1308	0.703600	0.103300	0.162700
H13091	H1309	0.859000	0.053100	0.023700
H13101	H1310	0.821500	0.024500	0.989600
H13111	H1311	0.808800	0.989100	0.009300
H13121	H1312	0.671100	0.969700	0.048200
H13131	H1313	0.642300	0.914200	0.037900
H13141	H1314	0.646700	0.939100	0.012600
H13151	H1315	0.375200	0.780200	0.290200
H13161	H1316	0.324800	0.750400	0.265200
H13171	H1317	0.374100	0.776500	0.254800
H13181	H1318	0.226700	0.548700	0.233000
H13191	H1319	0.286300	0.584900	0.240800
H13201	H1320	0.263200	0.582000	0.210200
H13211	H1321	0.400600	0.684000	0.208600
H13221	H1322	0.375400	0.673400	0.236000
H13231	H1323	0.433800	0.734100	0.236300
H13241	H1324	0.277000	0.690600	0.163400
H13251	H1325	0.313300	0.736500	0.195200
H13261	H1326	0.262000	0.674100	0.194500
H13271	H1327	0.298400	0.681000	0.449200
H13281	H1328	0.263600	0.681300	0.448700
H13291	H1329	0.326000	0.733400	0.468400
H13301	H1330	0.355000	0.798400	0.352600
H13311	H1331	0.411600	0.832800	0.371400
H13321	H1332	0.388400	0.842900	0.384500
H13331	H1333	0.201100	0.162000	0.890500
H13341	H1334	0.250300	0.224700	0.908400
H13351	H1335	0.214800	0.201100	0.874700
H13361	H1336	0.391400	0.276200	0.841600
H13371	H1337	0.419500	0.319200	0.872900
H13381	H1338	0.399900	0.269900	0.873800
H13391	H1339	0.354500	0.186900	0.784200
H13401	H1340	0.370300	0.188400	0.753700
H13411	H1341	0.376600	0.227900	0.765500
H13421	H1342	0.150700	0.044500	0.680800
H13431	H1343	0.191000	0.064500	0.662300
H13441	H1344	0.156700	0.014700	0.676200
H13451	H1345	0.051400	0.007300	0.699300
H13461	H1346	0.996600	0.977900	0.700700
H13471	H1347	0.048400	0.039800	0.700000
H13481	H1348	0.105100	0.092600	0.836700
H13491	H1349	0.071800	0.092300	0.821700
H13501	H1350	0.040300	0.038300	0.828000
H13511	H1351	0.171400	0.565100	0.709500
H13521	H1352	0.115800	0.504200	0.688400
H13531	H1353	0.118000	0.540000	0.700800
H13541	H1354	0.051600	0.432300	0.801900
H13551	H1355	0.019200	0.387500	0.770300
H13561	H1356	0.075200	0.422000	0.790600
H13571	H1357	0.109800	0.499700	0.877900
H13581	H1358	0.091000	0.497000	0.907000
H13591	H1359	0.056000	0.474000	0.873200
H13601	H1360	0.210200	0.708100	0.900700
H13611	H1361	0.161500	0.672700	0.916000
H13621	H1362	0.216100	0.703000	0.934300
H13631	H1363	0.263900	0.778800	0.854900
H13641	H1364	0.307100	0.830400	0.841900
H13651	H1365	0.244800	0.787700	0.831500
H13661	H1366	0.220100	0.674000	0.727700
H13671	H1367	0.229400	0.714600	0.720400
H13681	H1368	0.280200	0.736000	0.731800
H13691	H1369	0.949300	0.376100	0.669400
H13701	H1370	0.006800	0.427500	0.662900
H13711	H1371	0.000500	0.430900	0.696400
H13721	H1372	0.073400	0.367100	0.712300
H13731	H1373	0.043700	0.351700	0.738000
H13741	H1374	0.099900	0.413900	0.739200
H13751	H1375	0.992000	0.244100	0.706900
H13761	H1376	0.007100	0.229300	0.686600
H13771	H1377	0.975500	0.197700	0.711400
H13781	H1378	0.782900	0.044500	0.601000
H13791	H1379	0.761900	0.027900	0.630800
H13801	H1380	0.787900	0.020200	0.619700
H13811	H1381	0.710600	0.053900	0.592500
H13821	H1382	0.700600	0.051200	0.557200
H13831	H1383	0.664200	0.037100	0.576700
H13841	H1384	0.839000	0.274500	0.595300
H13851	H1385	0.801900	0.253600	0.617100
H13861	H1386	0.777800	0.233100	0.580700
H13871	H1387	0.792800	0.876800	0.802000
H13881	H1388	0.744500	0.845900	0.816400
H13891	H1389	0.804500	0.908500	0.832400
H13901	H1390	0.703500	0.911600	0.738300
H13911	H1391	0.729100	0.950700	0.771000
H13921	H1392	0.672300	0.886400	0.764100
H13931	H1393	0.794500	0.028100	0.718000
H13941	H1394	0.761200	0.992300	0.682900
H13951	H1395	0.799600	0.052900	0.692300
H13961	H1396	0.960600	0.101400	0.662600
H13971	H1397	0.994600	0.156400	0.684400
H13981	H1398	0.958700	0.131800	0.650500
H13991	H1399	0.032000	0.105700	0.713300
H14001	H1400	0.050000	0.087100	0.710300
H14011	H1401	0.079300	0.132800	0.740100
H14021	H1402	0.894900	0.927100	0.779000
H14031	H1403	0.942900	0.978700	0.808400
H14041	H1404	0.950200	0.955300	0.788300
H14051	H1405	0.715900	0.970000	0.920700
H14061	H1406	0.743000	0.005900	0.955100
H14071	H1407	0.766600	0.996300	0.941900
H14081	H1408	0.613000	0.807800	0.995200
H14091	H1409	0.657100	0.863700	0.021400
H14101	H1410	0.599400	0.829300	0.005700
H14111	H1411	0.501000	0.674800	0.956400
H14121	H1412	0.493100	0.634700	0.962400
H14131	H1413	0.552400	0.698800	0.972600
H14141	H1414	0.549400	0.646000	0.844800
H14151	H1415	0.535300	0.608800	0.863500
H14161	H1416	0.487600	0.587000	0.842200
H14171	H1417	0.586000	0.723200	0.784200
H14181	H1418	0.640500	0.767200	0.773900
H14191	H1419	0.638100	0.750400	0.803900
H14201	H1420	0.725600	0.942900	0.861900
H14211	H1421	0.755300	0.958100	0.836200
H14221	H1422	0.702200	0.933700	0.828100
H14231	H1423	0.639600	0.121400	0.619200
H14241	H1424	0.694300	0.148600	0.626900
H14251	H1425	0.691900	0.176700	0.611200
H14261	H1426	0.634000	0.052800	0.493800
H14271	H1427	0.691000	0.090500	0.515300
H14281	H1428	0.636600	0.028000	0.514400
H14291	H1429	0.510300	0.916900	0.460600
H14301	H1430	0.463800	0.860800	0.434000
H14311	H1431	0.488500	0.911400	0.427700
H14321	H1432	0.302400	0.809100	0.467700
H14331	H1433	0.280100	0.764900	0.441000
H14341	H1434	0.292300	0.768300	0.476000
H14351	H1435	0.312600	0.856300	0.535700
H14361	H1436	0.298600	0.850500	0.567700
H14371	H1437	0.304700	0.882600	0.548900
H14381	H1438	0.538200	0.074900	0.625500
H14391	H1439	0.499100	0.058600	0.643300
H14401	H1440	0.509700	0.033000	0.645300
