data_MIXBEC_clean_PM
_symmetry_space_group_name_H-M	'P1'
_cell_length_a	24.993300
_cell_length_b	28.207800
_cell_length_c	38.873300
_cell_angle_alpha	90.000000
_cell_angle_beta	90.000000
_cell_angle_gamma	90.000000
_symmetry_Int_Tables_number 1

loop_
_symmetry_equiv_pos_as_xyz
'x,y,z'

loop_
_atom_site_label
_atom_site_type_symbol
_atom_site_fract_x
_atom_site_fract_y
_atom_site_fract_z
O11	O1	0.240530	0.048880	0.205140
O21	O2	0.054620	0.237200	0.205260
C11	C1	0.200370	0.063910	0.219330
C21	C2	0.070570	0.201190	0.220650
C31	C3	0.110350	0.169980	0.202100
C41	C4	0.122400	0.179950	0.168130
H11	H1	0.106300	0.205300	0.156900
C51	C5	0.158920	0.151410	0.151220
C61	C6	0.134220	0.132140	0.218380
H21	H2	0.125300	0.125100	0.241000
C71	C7	0.171090	0.104680	0.201300
C81	C8	0.183880	0.114160	0.167490
H31	H3	0.208900	0.095700	0.155900
C91	C9	0.160400	0.197500	0.095870
H41	H4	0.145000	0.225900	0.102900
C101	C10	0.176500	0.186040	0.063510
C111	C11	0.177200	0.213500	0.031270
N11	N1	0.170960	0.160100	0.115520
N21	N2	0.195300	0.127640	0.096630
N31	N3	0.196600	0.143500	0.064640
O31	O3	0.179160	0.049700	0.246810
O41	O4	0.055190	0.186700	0.249370
C121	C12	0.169700	0.261000	0.031410
H51	H5	0.167600	0.277200	0.052200
O51	O5	0.240530	0.548880	0.705140
O61	O6	0.054620	0.737200	0.705260
C131	C13	0.200370	0.563910	0.719330
C141	C14	0.070570	0.701190	0.720650
C151	C15	0.110350	0.669980	0.702100
C161	C16	0.122400	0.679950	0.668130
H61	H6	0.106300	0.705300	0.656900
C171	C17	0.158920	0.651410	0.651220
C181	C18	0.134220	0.632140	0.718380
H71	H7	0.125300	0.625100	0.741000
C191	C19	0.171090	0.604680	0.701300
C201	C20	0.183880	0.614160	0.667490
H81	H8	0.208900	0.595700	0.655900
C211	C21	0.160400	0.697500	0.595870
H91	H9	0.145000	0.725900	0.602900
C221	C22	0.176500	0.686040	0.563510
C231	C23	0.177200	0.713500	0.531270
N41	N4	0.170960	0.660100	0.615520
N51	N5	0.195300	0.627640	0.596630
N61	N6	0.196600	0.643500	0.564640
O71	O7	0.179160	0.549700	0.746810
O81	O8	0.055190	0.686700	0.749370
C241	C24	0.169700	0.761000	0.531410
H101	H10	0.167600	0.777200	0.552200
O91	O9	0.740530	0.048880	0.705140
O101	O10	0.554620	0.237200	0.705260
C251	C25	0.700370	0.063910	0.719330
C261	C26	0.570570	0.201190	0.720650
C271	C27	0.610350	0.169980	0.702100
C281	C28	0.622400	0.179950	0.668130
H111	H11	0.606300	0.205300	0.656900
C291	C29	0.658920	0.151410	0.651220
C301	C30	0.634220	0.132140	0.718380
H121	H12	0.625300	0.125100	0.741000
C311	C31	0.671090	0.104680	0.701300
C321	C32	0.683880	0.114160	0.667490
H131	H13	0.708900	0.095700	0.655900
C331	C33	0.660400	0.197500	0.595870
H141	H14	0.645000	0.225900	0.602900
C341	C34	0.676500	0.186040	0.563510
C351	C35	0.677200	0.213500	0.531270
N71	N7	0.670960	0.160100	0.615520
N81	N8	0.695300	0.127640	0.596630
N91	N9	0.696600	0.143500	0.564640
O111	O11	0.679160	0.049700	0.746810
O121	O12	0.555190	0.186700	0.749370
C361	C36	0.669700	0.261000	0.531410
H151	H15	0.667600	0.277200	0.552200
O131	O13	0.740530	0.548880	0.205140
O141	O14	0.554620	0.737200	0.205260
C371	C37	0.700370	0.563910	0.219330
C381	C38	0.570570	0.701190	0.220650
C391	C39	0.610350	0.669980	0.202100
C401	C40	0.622400	0.679950	0.168130
H161	H16	0.606300	0.705300	0.156900
C411	C41	0.658920	0.651410	0.151220
C421	C42	0.634220	0.632140	0.218380
H171	H17	0.625300	0.625100	0.241000
C431	C43	0.671090	0.604680	0.201300
C441	C44	0.683880	0.614160	0.167490
H181	H18	0.708900	0.595700	0.155900
C451	C45	0.660400	0.697500	0.095870
H191	H19	0.645000	0.725900	0.102900
C461	C46	0.676500	0.686040	0.063510
C471	C47	0.677200	0.713500	0.031270
N101	N10	0.670960	0.660100	0.115520
N111	N11	0.695300	0.627640	0.096630
N121	N12	0.696600	0.643500	0.064640
O151	O15	0.679160	0.549700	0.246810
O161	O16	0.555190	0.686700	0.249370
C481	C48	0.669700	0.761000	0.031410
H201	H20	0.667600	0.777200	0.052200
O171	O17	0.759470	0.951120	0.205140
O181	O18	0.945380	0.762800	0.205260
C491	C49	0.799630	0.936090	0.219330
C501	C50	0.929430	0.798810	0.220650
C511	C51	0.889650	0.830020	0.202100
C521	C52	0.877600	0.820050	0.168130
H211	H21	0.893700	0.794700	0.156900
C531	C53	0.841080	0.848590	0.151220
C541	C54	0.865780	0.867860	0.218380
H221	H22	0.874700	0.874900	0.241000
C551	C55	0.828910	0.895320	0.201300
C561	C56	0.816120	0.885840	0.167490
H231	H23	0.791100	0.904300	0.155900
C571	C57	0.839600	0.802500	0.095870
H241	H24	0.855000	0.774100	0.102900
C581	C58	0.823500	0.813960	0.063510
C591	C59	0.822800	0.786500	0.031270
N131	N13	0.829040	0.839900	0.115520
N141	N14	0.804700	0.872360	0.096630
N151	N15	0.803400	0.856500	0.064640
O191	O19	0.820840	0.950300	0.246810
O201	O20	0.944810	0.813300	0.249370
C601	C60	0.830300	0.739000	0.031410
H251	H25	0.832400	0.722800	0.052200
O211	O21	0.759470	0.451120	0.705140
O221	O22	0.945380	0.262800	0.705260
C611	C61	0.799630	0.436090	0.719330
C621	C62	0.929430	0.298810	0.720650
C631	C63	0.889650	0.330020	0.702100
C641	C64	0.877600	0.320050	0.668130
H261	H26	0.893700	0.294700	0.656900
C651	C65	0.841080	0.348590	0.651220
C661	C66	0.865780	0.367860	0.718380
H271	H27	0.874700	0.374900	0.741000
C671	C67	0.828910	0.395320	0.701300
C681	C68	0.816120	0.385840	0.667490
H281	H28	0.791100	0.404300	0.655900
C691	C69	0.839600	0.302500	0.595870
H291	H29	0.855000	0.274100	0.602900
C701	C70	0.823500	0.313960	0.563510
C711	C71	0.822800	0.286500	0.531270
N161	N16	0.829040	0.339900	0.615520
N171	N17	0.804700	0.372360	0.596630
N181	N18	0.803400	0.356500	0.564640
O231	O23	0.820840	0.450300	0.746810
O241	O24	0.944810	0.313300	0.749370
C721	C72	0.830300	0.239000	0.531410
H301	H30	0.832400	0.222800	0.552200
O251	O25	0.259470	0.951120	0.705140
O261	O26	0.445380	0.762800	0.705260
C731	C73	0.299630	0.936090	0.719330
C741	C74	0.429430	0.798810	0.720650
C751	C75	0.389650	0.830020	0.702100
C761	C76	0.377600	0.820050	0.668130
H311	H31	0.393700	0.794700	0.656900
C771	C77	0.341080	0.848590	0.651220
C781	C78	0.365780	0.867860	0.718380
H321	H32	0.374700	0.874900	0.741000
C791	C79	0.328910	0.895320	0.701300
C801	C80	0.316120	0.885840	0.667490
H331	H33	0.291100	0.904300	0.655900
C811	C81	0.339600	0.802500	0.595870
H341	H34	0.355000	0.774100	0.602900
C821	C82	0.323500	0.813960	0.563510
C831	C83	0.322800	0.786500	0.531270
N191	N19	0.329040	0.839900	0.615520
N201	N20	0.304700	0.872360	0.596630
N211	N21	0.303400	0.856500	0.564640
O271	O27	0.320840	0.950300	0.746810
O281	O28	0.444810	0.813300	0.749370
C841	C84	0.330300	0.739000	0.531410
H351	H35	0.332400	0.722800	0.552200
O291	O29	0.259470	0.451120	0.205140
O301	O30	0.445380	0.262800	0.205260
C851	C85	0.299630	0.436090	0.219330
C861	C86	0.429430	0.298810	0.220650
C871	C87	0.389650	0.330020	0.202100
C881	C88	0.377600	0.320050	0.168130
H361	H36	0.393700	0.294700	0.156900
C891	C89	0.341080	0.348590	0.151220
C901	C90	0.365780	0.367860	0.218380
H371	H37	0.374700	0.374900	0.241000
C911	C91	0.328910	0.395320	0.201300
C921	C92	0.316120	0.385840	0.167490
H381	H38	0.291100	0.404300	0.155900
C931	C93	0.339600	0.302500	0.095870
H391	H39	0.355000	0.274100	0.102900
C941	C94	0.323500	0.313960	0.063510
C951	C95	0.322800	0.286500	0.031270
N221	N22	0.329040	0.339900	0.115520
N231	N23	0.304700	0.372360	0.096630
N241	N24	0.303400	0.356500	0.064640
O311	O31	0.320840	0.450300	0.246810
O321	O32	0.444810	0.313300	0.249370
C961	C96	0.330300	0.239000	0.031410
H401	H40	0.332400	0.222800	0.052200
O331	O33	0.759470	0.048880	0.794860
O341	O34	0.945380	0.237200	0.794740
C971	C97	0.799630	0.063910	0.780670
C981	C98	0.929430	0.201190	0.779350
C991	C99	0.889650	0.169980	0.797900
C1001	C100	0.877600	0.179950	0.831870
H411	H41	0.893700	0.205300	0.843100
C1011	C101	0.841080	0.151410	0.848780
C1021	C102	0.865780	0.132140	0.781620
H421	H42	0.874700	0.125100	0.759000
C1031	C103	0.828910	0.104680	0.798700
C1041	C104	0.816120	0.114160	0.832510
H431	H43	0.791100	0.095700	0.844100
C1051	C105	0.839600	0.197500	0.904130
H441	H44	0.855000	0.225900	0.897100
C1061	C106	0.823500	0.186040	0.936490
C1071	C107	0.822800	0.213500	0.968730
N251	N25	0.829040	0.160100	0.884480
N261	N26	0.804700	0.127640	0.903370
N271	N27	0.803400	0.143500	0.935360
O351	O35	0.820840	0.049700	0.753190
O361	O36	0.944810	0.186700	0.750630
C1081	C108	0.830300	0.261000	0.968590
H451	H45	0.832400	0.277200	0.947800
O371	O37	0.759470	0.548880	0.294860
O381	O38	0.945380	0.737200	0.294740
C1091	C109	0.799630	0.563910	0.280670
C1101	C110	0.929430	0.701190	0.279350
C1111	C111	0.889650	0.669980	0.297900
C1121	C112	0.877600	0.679950	0.331870
H461	H46	0.893700	0.705300	0.343100
C1131	C113	0.841080	0.651410	0.348780
C1141	C114	0.865780	0.632140	0.281620
H471	H47	0.874700	0.625100	0.259000
C1151	C115	0.828910	0.604680	0.298700
C1161	C116	0.816120	0.614160	0.332510
H481	H48	0.791100	0.595700	0.344100
C1171	C117	0.839600	0.697500	0.404130
H491	H49	0.855000	0.725900	0.397100
C1181	C118	0.823500	0.686040	0.436490
C1191	C119	0.822800	0.713500	0.468730
N281	N28	0.829040	0.660100	0.384480
N291	N29	0.804700	0.627640	0.403370
N301	N30	0.803400	0.643500	0.435360
O391	O39	0.820840	0.549700	0.253190
O401	O40	0.944810	0.686700	0.250630
C1201	C120	0.830300	0.761000	0.468590
H501	H50	0.832400	0.777200	0.447800
O411	O41	0.259470	0.048880	0.294860
O421	O42	0.445380	0.237200	0.294740
C1211	C121	0.299630	0.063910	0.280670
C1221	C122	0.429430	0.201190	0.279350
C1231	C123	0.389650	0.169980	0.297900
C1241	C124	0.377600	0.179950	0.331870
H511	H51	0.393700	0.205300	0.343100
C1251	C125	0.341080	0.151410	0.348780
C1261	C126	0.365780	0.132140	0.281620
H521	H52	0.374700	0.125100	0.259000
C1271	C127	0.328910	0.104680	0.298700
C1281	C128	0.316120	0.114160	0.332510
H531	H53	0.291100	0.095700	0.344100
C1291	C129	0.339600	0.197500	0.404130
H541	H54	0.355000	0.225900	0.397100
C1301	C130	0.323500	0.186040	0.436490
C1311	C131	0.322800	0.213500	0.468730
N311	N31	0.329040	0.160100	0.384480
N321	N32	0.304700	0.127640	0.403370
N331	N33	0.303400	0.143500	0.435360
O431	O43	0.320840	0.049700	0.253190
O441	O44	0.444810	0.186700	0.250630
C1321	C132	0.330300	0.261000	0.468590
H551	H55	0.332400	0.277200	0.447800
O451	O45	0.259470	0.548880	0.794860
O461	O46	0.445380	0.737200	0.794740
C1331	C133	0.299630	0.563910	0.780670
C1341	C134	0.429430	0.701190	0.779350
C1351	C135	0.389650	0.669980	0.797900
C1361	C136	0.377600	0.679950	0.831870
H561	H56	0.393700	0.705300	0.843100
C1371	C137	0.341080	0.651410	0.848780
C1381	C138	0.365780	0.632140	0.781620
H571	H57	0.374700	0.625100	0.759000
C1391	C139	0.328910	0.604680	0.798700
C1401	C140	0.316120	0.614160	0.832510
H581	H58	0.291100	0.595700	0.844100
C1411	C141	0.339600	0.697500	0.904130
H591	H59	0.355000	0.725900	0.897100
C1421	C142	0.323500	0.686040	0.936490
C1431	C143	0.322800	0.713500	0.968730
N341	N34	0.329040	0.660100	0.884480
N351	N35	0.304700	0.627640	0.903370
N361	N36	0.303400	0.643500	0.935360
O471	O47	0.320840	0.549700	0.753190
O481	O48	0.444810	0.686700	0.750630
C1441	C144	0.330300	0.761000	0.968590
H601	H60	0.332400	0.777200	0.947800
O491	O49	0.240530	0.951120	0.794860
O501	O50	0.054620	0.762800	0.794740
C1451	C145	0.200370	0.936090	0.780670
C1461	C146	0.070570	0.798810	0.779350
C1471	C147	0.110350	0.830020	0.797900
C1481	C148	0.122400	0.820050	0.831870
H611	H61	0.106300	0.794700	0.843100
C1491	C149	0.158920	0.848590	0.848780
C1501	C150	0.134220	0.867860	0.781620
H621	H62	0.125300	0.874900	0.759000
C1511	C151	0.171090	0.895320	0.798700
C1521	C152	0.183880	0.885840	0.832510
H631	H63	0.208900	0.904300	0.844100
C1531	C153	0.160400	0.802500	0.904130
H641	H64	0.145000	0.774100	0.897100
C1541	C154	0.176500	0.813960	0.936490
C1551	C155	0.177200	0.786500	0.968730
N371	N37	0.170960	0.839900	0.884480
N381	N38	0.195300	0.872360	0.903370
N391	N39	0.196600	0.856500	0.935360
O511	O51	0.179160	0.950300	0.753190
O521	O52	0.055190	0.813300	0.750630
C1561	C156	0.169700	0.739000	0.968590
H651	H65	0.167600	0.722800	0.947800
O531	O53	0.240530	0.451120	0.294860
O541	O54	0.054620	0.262800	0.294740
C1571	C157	0.200370	0.436090	0.280670
C1581	C158	0.070570	0.298810	0.279350
C1591	C159	0.110350	0.330020	0.297900
C1601	C160	0.122400	0.320050	0.331870
H661	H66	0.106300	0.294700	0.343100
C1611	C161	0.158920	0.348590	0.348780
C1621	C162	0.134220	0.367860	0.281620
H671	H67	0.125300	0.374900	0.259000
C1631	C163	0.171090	0.395320	0.298700
C1641	C164	0.183880	0.385840	0.332510
H681	H68	0.208900	0.404300	0.344100
C1651	C165	0.160400	0.302500	0.404130
H691	H69	0.145000	0.274100	0.397100
C1661	C166	0.176500	0.313960	0.436490
C1671	C167	0.177200	0.286500	0.468730
N401	N40	0.170960	0.339900	0.384480
N411	N41	0.195300	0.372360	0.403370
N421	N42	0.196600	0.356500	0.435360
O551	O55	0.179160	0.450300	0.253190
O561	O56	0.055190	0.313300	0.250630
C1681	C168	0.169700	0.239000	0.468590
H701	H70	0.167600	0.222800	0.447800
O571	O57	0.740530	0.951120	0.294860
O581	O58	0.554620	0.762800	0.294740
C1691	C169	0.700370	0.936090	0.280670
C1701	C170	0.570570	0.798810	0.279350
C1711	C171	0.610350	0.830020	0.297900
C1721	C172	0.622400	0.820050	0.331870
H711	H71	0.606300	0.794700	0.343100
C1731	C173	0.658920	0.848590	0.348780
C1741	C174	0.634220	0.867860	0.281620
H721	H72	0.625300	0.874900	0.259000
C1751	C175	0.671090	0.895320	0.298700
C1761	C176	0.683880	0.885840	0.332510
H731	H73	0.708900	0.904300	0.344100
C1771	C177	0.660400	0.802500	0.404130
H741	H74	0.645000	0.774100	0.397100
C1781	C178	0.676500	0.813960	0.436490
C1791	C179	0.677200	0.786500	0.468730
N431	N43	0.670960	0.839900	0.384480
N441	N44	0.695300	0.872360	0.403370
N451	N45	0.696600	0.856500	0.435360
O591	O59	0.679160	0.950300	0.253190
O601	O60	0.555190	0.813300	0.250630
C1801	C180	0.669700	0.739000	0.468590
H751	H75	0.667600	0.722800	0.447800
O611	O61	0.740530	0.451120	0.794860
O621	O62	0.554620	0.262800	0.794740
C1811	C181	0.700370	0.436090	0.780670
C1821	C182	0.570570	0.298810	0.779350
C1831	C183	0.610350	0.330020	0.797900
C1841	C184	0.622400	0.320050	0.831870
H761	H76	0.606300	0.294700	0.843100
C1851	C185	0.658920	0.348590	0.848780
C1861	C186	0.634220	0.367860	0.781620
H771	H77	0.625300	0.374900	0.759000
C1871	C187	0.671090	0.395320	0.798700
C1881	C188	0.683880	0.385840	0.832510
H781	H78	0.708900	0.404300	0.844100
C1891	C189	0.660400	0.302500	0.904130
H791	H79	0.645000	0.274100	0.897100
C1901	C190	0.676500	0.313960	0.936490
C1911	C191	0.677200	0.286500	0.968730
N461	N46	0.670960	0.339900	0.884480
N471	N47	0.695300	0.372360	0.903370
N481	N48	0.696600	0.356500	0.935360
O631	O63	0.679160	0.450300	0.753190
O641	O64	0.555190	0.313300	0.750630
C1921	C192	0.669700	0.239000	0.968590
H801	H80	0.667600	0.222800	0.947800
O651	O65	0.759470	0.951120	0.794860
O661	O66	0.945380	0.762800	0.794740
C1931	C193	0.799630	0.936090	0.780670
C1941	C194	0.929430	0.798810	0.779350
C1951	C195	0.889650	0.830020	0.797900
C1961	C196	0.877600	0.820050	0.831870
H811	H81	0.893700	0.794700	0.843100
C1971	C197	0.841080	0.848590	0.848780
C1981	C198	0.865780	0.867860	0.781620
H821	H82	0.874700	0.874900	0.759000
C1991	C199	0.828910	0.895320	0.798700
C2001	C200	0.816120	0.885840	0.832510
H831	H83	0.791100	0.904300	0.844100
C2011	C201	0.839600	0.802500	0.904130
H841	H84	0.855000	0.774100	0.897100
C2021	C202	0.823500	0.813960	0.936490
C2031	C203	0.822800	0.786500	0.968730
N491	N49	0.829040	0.839900	0.884480
N501	N50	0.804700	0.872360	0.903370
N511	N51	0.803400	0.856500	0.935360
O671	O67	0.820840	0.950300	0.753190
O681	O68	0.944810	0.813300	0.750630
C2041	C204	0.830300	0.739000	0.968590
H851	H85	0.832400	0.722800	0.947800
O691	O69	0.759470	0.451120	0.294860
O701	O70	0.945380	0.262800	0.294740
C2051	C205	0.799630	0.436090	0.280670
C2061	C206	0.929430	0.298810	0.279350
C2071	C207	0.889650	0.330020	0.297900
C2081	C208	0.877600	0.320050	0.331870
H861	H86	0.893700	0.294700	0.343100
C2091	C209	0.841080	0.348590	0.348780
C2101	C210	0.865780	0.367860	0.281620
H871	H87	0.874700	0.374900	0.259000
C2111	C211	0.828910	0.395320	0.298700
C2121	C212	0.816120	0.385840	0.332510
H881	H88	0.791100	0.404300	0.344100
C2131	C213	0.839600	0.302500	0.404130
H891	H89	0.855000	0.274100	0.397100
C2141	C214	0.823500	0.313960	0.436490
C2151	C215	0.822800	0.286500	0.468730
N521	N52	0.829040	0.339900	0.384480
N531	N53	0.804700	0.372360	0.403370
N541	N54	0.803400	0.356500	0.435360
O711	O71	0.820840	0.450300	0.253190
O721	O72	0.944810	0.313300	0.250630
C2161	C216	0.830300	0.239000	0.468590
H901	H90	0.832400	0.222800	0.447800
O731	O73	0.259470	0.951120	0.294860
O741	O74	0.445380	0.762800	0.294740
C2171	C217	0.299630	0.936090	0.280670
C2181	C218	0.429430	0.798810	0.279350
C2191	C219	0.389650	0.830020	0.297900
C2201	C220	0.377600	0.820050	0.331870
H911	H91	0.393700	0.794700	0.343100
C2211	C221	0.341080	0.848590	0.348780
C2221	C222	0.365780	0.867860	0.281620
H921	H92	0.374700	0.874900	0.259000
C2231	C223	0.328910	0.895320	0.298700
C2241	C224	0.316120	0.885840	0.332510
H931	H93	0.291100	0.904300	0.344100
C2251	C225	0.339600	0.802500	0.404130
H941	H94	0.355000	0.774100	0.397100
C2261	C226	0.323500	0.813960	0.436490
C2271	C227	0.322800	0.786500	0.468730
N551	N55	0.329040	0.839900	0.384480
N561	N56	0.304700	0.872360	0.403370
N571	N57	0.303400	0.856500	0.435360
O751	O75	0.320840	0.950300	0.253190
O761	O76	0.444810	0.813300	0.250630
C2281	C228	0.330300	0.739000	0.468590
H951	H95	0.332400	0.722800	0.447800
O771	O77	0.259470	0.451120	0.794860
O781	O78	0.445380	0.262800	0.794740
C2291	C229	0.299630	0.436090	0.780670
C2301	C230	0.429430	0.298810	0.779350
C2311	C231	0.389650	0.330020	0.797900
C2321	C232	0.377600	0.320050	0.831870
H961	H96	0.393700	0.294700	0.843100
C2331	C233	0.341080	0.348590	0.848780
C2341	C234	0.365780	0.367860	0.781620
H971	H97	0.374700	0.374900	0.759000
C2351	C235	0.328910	0.395320	0.798700
C2361	C236	0.316120	0.385840	0.832510
H981	H98	0.291100	0.404300	0.844100
C2371	C237	0.339600	0.302500	0.904130
H991	H99	0.355000	0.274100	0.897100
C2381	C238	0.323500	0.313960	0.936490
C2391	C239	0.322800	0.286500	0.968730
N581	N58	0.329040	0.339900	0.884480
N591	N59	0.304700	0.372360	0.903370
N601	N60	0.303400	0.356500	0.935360
O791	O79	0.320840	0.450300	0.753190
O801	O80	0.444810	0.313300	0.750630
C2401	C240	0.330300	0.239000	0.968590
H1001	H100	0.332400	0.222800	0.947800
O811	O81	0.240530	0.048880	0.794860
O821	O82	0.054620	0.237200	0.794740
C2411	C241	0.200370	0.063910	0.780670
C2421	C242	0.070570	0.201190	0.779350
C2431	C243	0.110350	0.169980	0.797900
C2441	C244	0.122400	0.179950	0.831870
H1011	H101	0.106300	0.205300	0.843100
C2451	C245	0.158920	0.151410	0.848780
C2461	C246	0.134220	0.132140	0.781620
H1021	H102	0.125300	0.125100	0.759000
C2471	C247	0.171090	0.104680	0.798700
C2481	C248	0.183880	0.114160	0.832510
H1031	H103	0.208900	0.095700	0.844100
C2491	C249	0.160400	0.197500	0.904130
H1041	H104	0.145000	0.225900	0.897100
C2501	C250	0.176500	0.186040	0.936490
C2511	C251	0.177200	0.213500	0.968730
N611	N61	0.170960	0.160100	0.884480
N621	N62	0.195300	0.127640	0.903370
N631	N63	0.196600	0.143500	0.935360
O831	O83	0.179160	0.049700	0.753190
O841	O84	0.055190	0.186700	0.750630
C2521	C252	0.169700	0.261000	0.968590
H1051	H105	0.167600	0.277200	0.947800
O851	O85	0.240530	0.548880	0.294860
O861	O86	0.054620	0.737200	0.294740
C2531	C253	0.200370	0.563910	0.280670
C2541	C254	0.070570	0.701190	0.279350
C2551	C255	0.110350	0.669980	0.297900
C2561	C256	0.122400	0.679950	0.331870
H1061	H106	0.106300	0.705300	0.343100
C2571	C257	0.158920	0.651410	0.348780
C2581	C258	0.134220	0.632140	0.281620
H1071	H107	0.125300	0.625100	0.259000
C2591	C259	0.171090	0.604680	0.298700
C2601	C260	0.183880	0.614160	0.332510
H1081	H108	0.208900	0.595700	0.344100
C2611	C261	0.160400	0.697500	0.404130
H1091	H109	0.145000	0.725900	0.397100
C2621	C262	0.176500	0.686040	0.436490
C2631	C263	0.177200	0.713500	0.468730
N641	N64	0.170960	0.660100	0.384480
N651	N65	0.195300	0.627640	0.403370
N661	N66	0.196600	0.643500	0.435360
O871	O87	0.179160	0.549700	0.253190
O881	O88	0.055190	0.686700	0.250630
C2641	C264	0.169700	0.761000	0.468590
H1101	H110	0.167600	0.777200	0.447800
O891	O89	0.740530	0.048880	0.294860
O901	O90	0.554620	0.237200	0.294740
C2651	C265	0.700370	0.063910	0.280670
C2661	C266	0.570570	0.201190	0.279350
C2671	C267	0.610350	0.169980	0.297900
C2681	C268	0.622400	0.179950	0.331870
H1111	H111	0.606300	0.205300	0.343100
C2691	C269	0.658920	0.151410	0.348780
C2701	C270	0.634220	0.132140	0.281620
H1121	H112	0.625300	0.125100	0.259000
C2711	C271	0.671090	0.104680	0.298700
C2721	C272	0.683880	0.114160	0.332510
H1131	H113	0.708900	0.095700	0.344100
C2731	C273	0.660400	0.197500	0.404130
H1141	H114	0.645000	0.225900	0.397100
C2741	C274	0.676500	0.186040	0.436490
C2751	C275	0.677200	0.213500	0.468730
N671	N67	0.670960	0.160100	0.384480
N681	N68	0.695300	0.127640	0.403370
N691	N69	0.696600	0.143500	0.435360
O911	O91	0.679160	0.049700	0.253190
O921	O92	0.555190	0.186700	0.250630
C2761	C276	0.669700	0.261000	0.468590
H1151	H115	0.667600	0.277200	0.447800
O931	O93	0.740530	0.548880	0.794860
O941	O94	0.554620	0.737200	0.794740
C2771	C277	0.700370	0.563910	0.780670
C2781	C278	0.570570	0.701190	0.779350
C2791	C279	0.610350	0.669980	0.797900
C2801	C280	0.622400	0.679950	0.831870
H1161	H116	0.606300	0.705300	0.843100
C2811	C281	0.658920	0.651410	0.848780
C2821	C282	0.634220	0.632140	0.781620
H1171	H117	0.625300	0.625100	0.759000
C2831	C283	0.671090	0.604680	0.798700
C2841	C284	0.683880	0.614160	0.832510
H1181	H118	0.708900	0.595700	0.844100
C2851	C285	0.660400	0.697500	0.904130
H1191	H119	0.645000	0.725900	0.897100
C2861	C286	0.676500	0.686040	0.936490
C2871	C287	0.677200	0.713500	0.968730
N701	N70	0.670960	0.660100	0.884480
N711	N71	0.695300	0.627640	0.903370
N721	N72	0.696600	0.643500	0.935360
O951	O95	0.679160	0.549700	0.753190
O961	O96	0.555190	0.686700	0.750630
C2881	C288	0.669700	0.761000	0.968590
H1201	H120	0.667600	0.777200	0.947800
O971	O97	0.240530	0.951120	0.205140
O981	O98	0.054620	0.762800	0.205260
C2891	C289	0.200370	0.936090	0.219330
C2901	C290	0.070570	0.798810	0.220650
C2911	C291	0.110350	0.830020	0.202100
C2921	C292	0.122400	0.820050	0.168130
H1211	H121	0.106300	0.794700	0.156900
C2931	C293	0.158920	0.848590	0.151220
C2941	C294	0.134220	0.867860	0.218380
H1221	H122	0.125300	0.874900	0.241000
C2951	C295	0.171090	0.895320	0.201300
C2961	C296	0.183880	0.885840	0.167490
H1231	H123	0.208900	0.904300	0.155900
C2971	C297	0.160400	0.802500	0.095870
H1241	H124	0.145000	0.774100	0.102900
C2981	C298	0.176500	0.813960	0.063510
C2991	C299	0.177200	0.786500	0.031270
N731	N73	0.170960	0.839900	0.115520
N741	N74	0.195300	0.872360	0.096630
N751	N75	0.196600	0.856500	0.064640
O991	O99	0.179160	0.950300	0.246810
O1001	O100	0.055190	0.813300	0.249370
C3001	C300	0.169700	0.739000	0.031410
H1251	H125	0.167600	0.722800	0.052200
O1011	O101	0.240530	0.451120	0.705140
O1021	O102	0.054620	0.262800	0.705260
C3011	C301	0.200370	0.436090	0.719330
C3021	C302	0.070570	0.298810	0.720650
C3031	C303	0.110350	0.330020	0.702100
C3041	C304	0.122400	0.320050	0.668130
H1261	H126	0.106300	0.294700	0.656900
C3051	C305	0.158920	0.348590	0.651220
C3061	C306	0.134220	0.367860	0.718380
H1271	H127	0.125300	0.374900	0.741000
C3071	C307	0.171090	0.395320	0.701300
C3081	C308	0.183880	0.385840	0.667490
H1281	H128	0.208900	0.404300	0.655900
C3091	C309	0.160400	0.302500	0.595870
H1291	H129	0.145000	0.274100	0.602900
C3101	C310	0.176500	0.313960	0.563510
C3111	C311	0.177200	0.286500	0.531270
N761	N76	0.170960	0.339900	0.615520
N771	N77	0.195300	0.372360	0.596630
N781	N78	0.196600	0.356500	0.564640
O1031	O103	0.179160	0.450300	0.746810
O1041	O104	0.055190	0.313300	0.749370
C3121	C312	0.169700	0.239000	0.531410
H1301	H130	0.167600	0.222800	0.552200
O1051	O105	0.740530	0.951120	0.705140
O1061	O106	0.554620	0.762800	0.705260
C3131	C313	0.700370	0.936090	0.719330
C3141	C314	0.570570	0.798810	0.720650
C3151	C315	0.610350	0.830020	0.702100
C3161	C316	0.622400	0.820050	0.668130
H1311	H131	0.606300	0.794700	0.656900
C3171	C317	0.658920	0.848590	0.651220
C3181	C318	0.634220	0.867860	0.718380
H1321	H132	0.625300	0.874900	0.741000
C3191	C319	0.671090	0.895320	0.701300
C3201	C320	0.683880	0.885840	0.667490
H1331	H133	0.708900	0.904300	0.655900
C3211	C321	0.660400	0.802500	0.595870
H1341	H134	0.645000	0.774100	0.602900
C3221	C322	0.676500	0.813960	0.563510
C3231	C323	0.677200	0.786500	0.531270
N791	N79	0.670960	0.839900	0.615520
N801	N80	0.695300	0.872360	0.596630
N811	N81	0.696600	0.856500	0.564640
O1071	O107	0.679160	0.950300	0.746810
O1081	O108	0.555190	0.813300	0.749370
C3241	C324	0.669700	0.739000	0.531410
H1351	H135	0.667600	0.722800	0.552200
O1091	O109	0.740530	0.451120	0.205140
O1101	O110	0.554620	0.262800	0.205260
C3251	C325	0.700370	0.436090	0.219330
C3261	C326	0.570570	0.298810	0.220650
C3271	C327	0.610350	0.330020	0.202100
C3281	C328	0.622400	0.320050	0.168130
H1361	H136	0.606300	0.294700	0.156900
C3291	C329	0.658920	0.348590	0.151220
C3301	C330	0.634220	0.367860	0.218380
H1371	H137	0.625300	0.374900	0.241000
C3311	C331	0.671090	0.395320	0.201300
C3321	C332	0.683880	0.385840	0.167490
H1381	H138	0.708900	0.404300	0.155900
C3331	C333	0.660400	0.302500	0.095870
H1391	H139	0.645000	0.274100	0.102900
C3341	C334	0.676500	0.313960	0.063510
C3351	C335	0.677200	0.286500	0.031270
N821	N82	0.670960	0.339900	0.115520
N831	N83	0.695300	0.372360	0.096630
N841	N84	0.696600	0.356500	0.064640
O1111	O111	0.679160	0.450300	0.246810
O1121	O112	0.555190	0.313300	0.249370
C3361	C336	0.669700	0.239000	0.031410
H1401	H140	0.667600	0.222800	0.052200
O1131	O113	0.759470	0.048880	0.205140
O1141	O114	0.945380	0.237200	0.205260
C3371	C337	0.799630	0.063910	0.219330
C3381	C338	0.929430	0.201190	0.220650
C3391	C339	0.889650	0.169980	0.202100
C3401	C340	0.877600	0.179950	0.168130
H1411	H141	0.893700	0.205300	0.156900
C3411	C341	0.841080	0.151410	0.151220
C3421	C342	0.865780	0.132140	0.218380
H1421	H142	0.874700	0.125100	0.241000
C3431	C343	0.828910	0.104680	0.201300
C3441	C344	0.816120	0.114160	0.167490
H1431	H143	0.791100	0.095700	0.155900
C3451	C345	0.839600	0.197500	0.095870
H1441	H144	0.855000	0.225900	0.102900
C3461	C346	0.823500	0.186040	0.063510
C3471	C347	0.822800	0.213500	0.031270
N851	N85	0.829040	0.160100	0.115520
N861	N86	0.804700	0.127640	0.096630
N871	N87	0.803400	0.143500	0.064640
O1151	O115	0.820840	0.049700	0.246810
O1161	O116	0.944810	0.186700	0.249370
C3481	C348	0.830300	0.261000	0.031410
H1451	H145	0.832400	0.277200	0.052200
O1171	O117	0.759470	0.548880	0.705140
O1181	O118	0.945380	0.737200	0.705260
C3491	C349	0.799630	0.563910	0.719330
C3501	C350	0.929430	0.701190	0.720650
C3511	C351	0.889650	0.669980	0.702100
C3521	C352	0.877600	0.679950	0.668130
H1461	H146	0.893700	0.705300	0.656900
C3531	C353	0.841080	0.651410	0.651220
C3541	C354	0.865780	0.632140	0.718380
H1471	H147	0.874700	0.625100	0.741000
C3551	C355	0.828910	0.604680	0.701300
C3561	C356	0.816120	0.614160	0.667490
H1481	H148	0.791100	0.595700	0.655900
C3571	C357	0.839600	0.697500	0.595870
H1491	H149	0.855000	0.725900	0.602900
C3581	C358	0.823500	0.686040	0.563510
C3591	C359	0.822800	0.713500	0.531270
N881	N88	0.829040	0.660100	0.615520
N891	N89	0.804700	0.627640	0.596630
N901	N90	0.803400	0.643500	0.564640
O1191	O119	0.820840	0.549700	0.746810
O1201	O120	0.944810	0.686700	0.749370
C3601	C360	0.830300	0.761000	0.531410
H1501	H150	0.832400	0.777200	0.552200
O1211	O121	0.259470	0.048880	0.705140
O1221	O122	0.445380	0.237200	0.705260
C3611	C361	0.299630	0.063910	0.719330
C3621	C362	0.429430	0.201190	0.720650
C3631	C363	0.389650	0.169980	0.702100
C3641	C364	0.377600	0.179950	0.668130
H1511	H151	0.393700	0.205300	0.656900
C3651	C365	0.341080	0.151410	0.651220
C3661	C366	0.365780	0.132140	0.718380
H1521	H152	0.374700	0.125100	0.741000
C3671	C367	0.328910	0.104680	0.701300
C3681	C368	0.316120	0.114160	0.667490
H1531	H153	0.291100	0.095700	0.655900
C3691	C369	0.339600	0.197500	0.595870
H1541	H154	0.355000	0.225900	0.602900
C3701	C370	0.323500	0.186040	0.563510
C3711	C371	0.322800	0.213500	0.531270
N911	N91	0.329040	0.160100	0.615520
N921	N92	0.304700	0.127640	0.596630
N931	N93	0.303400	0.143500	0.564640
O1231	O123	0.320840	0.049700	0.746810
O1241	O124	0.444810	0.186700	0.749370
C3721	C372	0.330300	0.261000	0.531410
H1551	H155	0.332400	0.277200	0.552200
O1251	O125	0.259470	0.548880	0.205140
O1261	O126	0.445380	0.737200	0.205260
C3731	C373	0.299630	0.563910	0.219330
C3741	C374	0.429430	0.701190	0.220650
C3751	C375	0.389650	0.669980	0.202100
C3761	C376	0.377600	0.679950	0.168130
H1561	H156	0.393700	0.705300	0.156900
C3771	C377	0.341080	0.651410	0.151220
C3781	C378	0.365780	0.632140	0.218380
H1571	H157	0.374700	0.625100	0.241000
C3791	C379	0.328910	0.604680	0.201300
C3801	C380	0.316120	0.614160	0.167490
H1581	H158	0.291100	0.595700	0.155900
C3811	C381	0.339600	0.697500	0.095870
H1591	H159	0.355000	0.725900	0.102900
C3821	C382	0.323500	0.686040	0.063510
C3831	C383	0.322800	0.713500	0.031270
N941	N94	0.329040	0.660100	0.115520
N951	N95	0.304700	0.627640	0.096630
N961	N96	0.303400	0.643500	0.064640
O1271	O127	0.320840	0.549700	0.246810
O1281	O128	0.444810	0.686700	0.249370
C3841	C384	0.330300	0.761000	0.031410
H1601	H160	0.332400	0.777200	0.052200
Cu11	Cu1	0.000000	0.279810	0.223910
Cu21	Cu2	0.000000	0.779810	0.723910
Cu31	Cu3	0.500000	0.279810	0.723910
Cu41	Cu4	0.500000	0.779810	0.223910
Cu51	Cu5	0.000000	0.720190	0.223910
Cu61	Cu6	0.000000	0.220190	0.723910
Cu71	Cu7	0.500000	0.720190	0.723910
Cu81	Cu8	0.500000	0.220190	0.223910
Cu91	Cu9	0.000000	0.279810	0.776090
Cu101	Cu10	0.000000	0.779810	0.276090
Cu111	Cu11	0.500000	0.279810	0.276090
Cu121	Cu12	0.500000	0.779810	0.776090
Cu131	Cu13	0.000000	0.720190	0.776090
Cu141	Cu14	0.000000	0.220190	0.276090
Cu151	Cu15	0.500000	0.720190	0.276090
Cu161	Cu16	0.500000	0.220190	0.776090
Cu171	Cu17	0.286570	0.000000	0.225310
Cu181	Cu18	0.286570	0.500000	0.725310
Cu191	Cu19	0.786570	0.000000	0.725310
Cu201	Cu20	0.786570	0.500000	0.225310
Cu211	Cu21	0.713430	0.000000	0.225310
Cu221	Cu22	0.713430	0.500000	0.725310
Cu231	Cu23	0.213430	0.000000	0.725310
Cu241	Cu24	0.213430	0.500000	0.225310
Cu251	Cu25	0.713430	0.000000	0.774690
Cu261	Cu26	0.713430	0.500000	0.274690
Cu271	Cu27	0.213430	0.000000	0.274690
Cu281	Cu28	0.213430	0.500000	0.774690
Cu291	Cu29	0.286570	0.000000	0.774690
Cu301	Cu30	0.286570	0.500000	0.274690
Cu311	Cu31	0.786570	0.000000	0.274690
Cu321	Cu32	0.786570	0.500000	0.774690
C3851	C385	0.180600	0.187700	0.000000
H1611	H161	0.184900	0.155000	0.000000
C3861	C386	0.165100	0.286200	0.000000
H1621	H162	0.159100	0.318700	0.000000
C3871	C387	0.180600	0.687700	0.500000
H1631	H163	0.184900	0.655000	0.500000
C3881	C388	0.165100	0.786200	0.500000
H1641	H164	0.159100	0.818700	0.500000
C3891	C389	0.680600	0.187700	0.500000
H1651	H165	0.684900	0.155000	0.500000
C3901	C390	0.665100	0.286200	0.500000
H1661	H166	0.659100	0.318700	0.500000
C3911	C391	0.680600	0.687700	0.000000
H1671	H167	0.684900	0.655000	0.000000
C3921	C392	0.665100	0.786200	0.000000
H1681	H168	0.659100	0.818700	0.000000
C3931	C393	0.819400	0.812300	0.000000
H1691	H169	0.815100	0.845000	0.000000
C3941	C394	0.834900	0.713800	0.000000
H1701	H170	0.840900	0.681300	0.000000
C3951	C395	0.819400	0.312300	0.500000
H1711	H171	0.815100	0.345000	0.500000
C3961	C396	0.834900	0.213800	0.500000
H1721	H172	0.840900	0.181300	0.500000
C3971	C397	0.319400	0.812300	0.500000
H1731	H173	0.315100	0.845000	0.500000
C3981	C398	0.334900	0.713800	0.500000
H1741	H174	0.340900	0.681300	0.500000
C3991	C399	0.319400	0.312300	0.000000
H1751	H175	0.315100	0.345000	0.000000
C4001	C400	0.334900	0.213800	0.000000
H1761	H176	0.340900	0.181300	0.000000
C4011	C401	0.819400	0.187700	0.000000
H1771	H177	0.815100	0.155000	0.000000
C4021	C402	0.834900	0.286200	0.000000
H1781	H178	0.840900	0.318700	0.000000
C4031	C403	0.819400	0.687700	0.500000
H1791	H179	0.815100	0.655000	0.500000
C4041	C404	0.834900	0.786200	0.500000
H1801	H180	0.840900	0.818700	0.500000
C4051	C405	0.319400	0.187700	0.500000
H1811	H181	0.315100	0.155000	0.500000
C4061	C406	0.334900	0.286200	0.500000
H1821	H182	0.340900	0.318700	0.500000
C4071	C407	0.319400	0.687700	0.000000
H1831	H183	0.315100	0.655000	0.000000
C4081	C408	0.334900	0.786200	0.000000
H1841	H184	0.340900	0.818700	0.000000
C4091	C409	0.180600	0.812300	0.000000
H1851	H185	0.184900	0.845000	0.000000
C4101	C410	0.165100	0.713800	0.000000
H1861	H186	0.159100	0.681300	0.000000
C4111	C411	0.180600	0.312300	0.500000
H1871	H187	0.184900	0.345000	0.500000
C4121	C412	0.165100	0.213800	0.500000
H1881	H188	0.159100	0.181300	0.500000
C4131	C413	0.680600	0.812300	0.500000
H1891	H189	0.684900	0.845000	0.500000
C4141	C414	0.665100	0.713800	0.500000
H1901	H190	0.659100	0.681300	0.500000
C4151	C415	0.680600	0.312300	0.000000
H1911	H191	0.684900	0.345000	0.000000
C4161	C416	0.665100	0.213800	0.000000
H1921	H192	0.659100	0.181300	0.000000
