data_MIXYID_clean_PM
_symmetry_space_group_name_H-M	'P1'
_cell_length_a	16.634000
_cell_length_b	16.634000
_cell_length_c	18.194000
_cell_angle_alpha	90.000000
_cell_angle_beta	90.000000
_cell_angle_gamma	120.000000
_symmetry_Int_Tables_number 1

loop_
_symmetry_equiv_pos_as_xyz
'x,y,z'

loop_
_atom_site_label
_atom_site_type_symbol
_atom_site_fract_x
_atom_site_fract_y
_atom_site_fract_z
Ni11	Ni1	0.000080	0.320660	0.149510
Ni21	Ni2	0.320580	0.999920	0.149510
Ni31	Ni3	0.679050	0.679100	0.768300
Ni41	Ni4	0.320900	0.999950	0.768300
Ni51	Ni5	0.679340	0.679420	0.149510
Ni61	Ni6	0.000050	0.320950	0.768300
H11	H1	0.452300	0.107900	0.645700
H21	H2	0.459600	0.056500	0.015100
H31	H3	0.194800	0.888500	0.646300
H41	H4	0.366400	0.136800	0.405600
H51	H5	0.140900	0.138200	0.763200
H61	H6	0.761700	0.622700	0.016500
H71	H7	0.491200	0.776800	0.755500
H81	H8	0.655600	0.547700	0.645700
H91	H9	0.544500	0.600900	0.902100
H101	H10	0.886400	0.345300	0.517100
H111	H11	0.133100	0.425800	0.405600
H121	H12	0.266500	0.084500	0.901000
H131	H13	0.864400	0.227800	0.278100
H141	H14	0.195400	0.888000	0.515400
H151	H15	0.399100	0.943600	0.902100
H161	H16	0.181200	0.908800	0.901500
H171	H17	0.111500	0.306300	0.646300
H181	H18	0.540200	0.594700	0.016000
H191	H19	0.577200	0.709800	0.280400
H201	H20	0.817000	0.733700	0.016800
H211	H21	0.616700	0.757600	0.901900
H221	H22	0.861800	0.002700	0.763200
H231	H23	0.242400	0.859100	0.901900
H241	H24	0.693700	0.805200	0.646300
H251	H25	0.132600	0.422800	0.280400
H261	H26	0.599700	0.545400	0.901200
H271	H27	0.692600	0.804600	0.515400
H281	H28	0.945700	0.400300	0.901200
H291	H29	0.377300	0.139000	0.016500
H301	H30	0.729400	0.816900	0.017800
H311	H31	0.377700	0.138000	0.900700
H321	H32	0.091200	0.272400	0.901500
H331	H33	0.223200	0.714400	0.755500
H341	H34	0.770400	0.633600	0.405600
H351	H35	0.774800	0.489500	0.156600
H361	H36	0.862000	0.239700	0.900700
H371	H37	0.490200	0.776900	0.158800
H381	H38	0.996800	0.858400	0.155800
H391	H39	0.266300	0.083300	0.016800
H401	H40	0.112000	0.307400	0.515400
H411	H41	0.596900	0.540400	0.015100
H421	H42	0.241100	0.859700	0.018200
H431	H43	0.286700	0.509800	0.158800
H441	H44	0.714700	0.225200	0.156600
H451	H45	0.714700	0.224800	0.759600
H461	H46	0.574200	0.707300	0.405600
H471	H47	0.292700	0.866900	0.405600
H481	H48	0.772200	0.636600	0.278100
H491	H49	0.054500	0.459800	0.016000
H501	H50	0.943500	0.403100	0.015100
H511	H51	0.775200	0.489900	0.759600
H521	H52	0.223100	0.713300	0.158800
H531	H53	0.654700	0.541100	0.517100
H541	H54	0.618600	0.758900	0.018200
H551	H55	0.405300	0.945500	0.016000
H561	H56	0.363400	0.135600	0.278100
H571	H57	0.140900	0.383300	0.901900
H581	H58	0.290200	0.867400	0.280400
H591	H59	0.861600	0.003200	0.155800
H601	H60	0.760300	0.622300	0.900700
H611	H61	0.141600	0.138400	0.155800
H621	H62	0.892100	0.344400	0.645700
H631	H63	0.510500	0.285300	0.156600
H641	H64	0.458900	0.113600	0.517100
H651	H65	0.510100	0.285300	0.759600
H661	H66	0.861000	0.238300	0.016500
H671	H67	0.916700	0.183000	0.016800
H681	H68	0.997300	0.859100	0.763200
H691	H69	0.727600	0.818800	0.901500
H701	H70	0.285600	0.508800	0.755500
H711	H71	0.140300	0.381400	0.018200
H721	H72	0.454600	0.054300	0.901200
H731	H73	0.863200	0.229600	0.405600
H741	H74	0.818000	0.733500	0.901000
H751	H75	0.087500	0.270600	0.017800
H761	H76	0.056400	0.455500	0.902100
H771	H77	0.915500	0.182000	0.901000
H781	H78	0.183100	0.912500	0.017800
C11	C1	0.306200	0.574200	0.158500
C21	C2	0.084100	0.081600	0.156500
C31	C3	0.468200	0.605700	0.762300
C41	C4	0.321800	0.081600	0.999200
C51	C5	0.238700	0.601700	0.759600
C61	C6	0.000200	0.328800	0.423100
C71	C7	0.731100	0.425500	0.762100
C81	C8	0.392400	0.861100	0.151900
C91	C9	0.267800	0.694700	0.757900
C101	C10	0.598300	0.598000	0.999000
C111	C11	0.731800	0.651200	0.304400
C121	C12	0.468700	0.607600	0.151900
C131	C13	0.241000	0.915800	0.000300
C141	C14	0.240100	0.914300	0.919200
C151	C15	0.605500	0.465100	0.764800
C161	C16	0.997500	0.915900	0.156500
C171	C17	0.398800	0.636900	0.158300
C181	C18	0.601600	0.238500	0.154700
C191	C19	0.636900	0.398400	0.154700
C201	C20	0.305300	0.573100	0.757900
C211	C21	0.363100	0.761900	0.158300
C221	C22	0.915800	0.915800	0.762000
C231	C23	0.918400	0.240200	0.999200
C241	C24	0.919400	0.269700	0.380500
C251	C25	0.138900	0.531300	0.151900
C261	C26	0.083500	0.081500	0.762500
C271	C27	0.398300	0.637000	0.759600
C281	C28	0.350300	0.080600	0.380500
C291	C29	0.172800	0.999600	0.763900
C301	C30	0.615800	0.692800	0.381100
C311	C31	0.826400	0.826500	0.155800
C321	C32	0.397700	0.999200	0.919700
C331	C33	0.759700	0.364000	0.763800
C341	C34	0.067100	0.314300	0.542600
C351	C35	0.000100	0.173600	0.155800
C361	C36	0.918400	0.002500	0.156500
C371	C37	0.931500	0.337300	0.543000
C381	C38	0.998000	0.916500	0.762500
C391	C39	0.574500	0.305600	0.762100
C401	C40	0.238100	0.601200	0.158300
C411	C41	0.066800	0.314200	0.619800
C421	C42	0.605700	0.466300	0.153100
C431	C43	0.084200	0.000000	0.762000
C441	C44	0.685800	0.752600	0.619800
C451	C45	0.173500	0.999900	0.155800
C461	C46	0.247400	0.933200	0.619800
C471	C47	0.402000	0.000300	0.999000
C481	C48	0.675200	0.674700	0.508500
C491	C49	0.076900	0.382800	0.306100
C501	C50	0.574900	0.305300	0.155400
C511	C51	0.999600	0.084800	0.156900
C521	C52	0.674200	0.759900	0.919200
C531	C53	0.534900	0.140400	0.764800
C541	C54	0.533700	0.139400	0.153100
C551	C55	0.363000	0.761300	0.759600
C561	C56	0.694700	0.269600	0.155400
C571	C57	0.671200	0.671400	0.423100
C581	C58	0.999500	0.324800	0.508500
C591	C59	0.405800	0.068500	0.543000
C601	C60	0.000400	0.173200	0.763900
C611	C61	0.860600	0.394300	0.153100
C621	C62	0.348800	0.080600	0.304400
C631	C63	0.325300	0.000500	0.508500
C641	C64	0.759800	0.678200	0.999200
C651	C65	0.084200	0.325200	0.000300
C661	C66	0.305900	0.923100	0.306100
C671	C67	0.601500	0.602300	0.919700
C681	C68	0.663300	0.599700	0.618400
C691	C69	0.137500	0.531800	0.762300
C701	C70	0.085700	0.325800	0.919200
C711	C71	0.674800	0.759000	0.000300
C721	C72	0.915200	0.914800	0.156900
C731	C73	0.307200	0.923000	0.381100
C741	C74	0.919400	0.268200	0.304400
C751	C75	0.918500	0.002000	0.762500
C761	C76	0.617200	0.694100	0.306100
C771	C77	0.999700	0.401700	0.999000
C781	C78	0.000800	0.398500	0.919700
C791	C79	0.826800	0.827200	0.763900
C801	C80	0.730300	0.649700	0.380500
C811	C81	0.685700	0.752800	0.542600
C821	C82	0.247200	0.932900	0.542600
C831	C83	0.328600	0.999800	0.423100
C841	C84	0.936400	0.336700	0.618400
C851	C85	0.268000	0.693800	0.158500
C861	C86	0.400300	0.063600	0.618400
C871	C87	0.730400	0.425100	0.155400
C881	C88	0.077000	0.384200	0.381100
C891	C89	0.918300	0.239700	0.918500
C901	C90	0.000000	0.084200	0.762000
C911	C91	0.085200	0.000400	0.156900
C921	C92	0.859600	0.394500	0.764800
C931	C93	0.321400	0.081700	0.918500
C941	C94	0.662700	0.594200	0.543000
C951	C95	0.694400	0.268900	0.762100
C961	C96	0.636000	0.395700	0.763800
C971	C97	0.761500	0.363100	0.154700
C981	C98	0.426900	0.732200	0.757900
C991	C99	0.604300	0.240300	0.763800
C1001	C100	0.760300	0.678600	0.918500
C1011	C101	0.425800	0.732000	0.158500
C1021	C102	0.394300	0.862500	0.762300
N11	N1	0.674000	0.673800	0.267600
N21	N2	0.677600	0.677900	0.033700
N31	N3	0.326200	0.000200	0.267600
N41	N4	0.674300	0.675300	0.656400
N51	N5	0.679700	0.680700	0.887200
N61	N6	0.001000	0.320300	0.887200
N71	N7	0.000300	0.322400	0.033700
N81	N8	0.001000	0.325700	0.656400
N91	N9	0.999800	0.326000	0.267600
N101	N10	0.324700	0.999000	0.656400
N111	N11	0.319300	0.999000	0.887200
N121	N12	0.322100	0.999700	0.033700
O11	O1	0.081700	0.562600	0.160900
O21	O2	0.748900	0.827100	0.154700
O31	O3	0.921900	0.172000	0.764900
O41	O4	0.550900	0.665900	0.768900
O51	O5	0.749300	0.828600	0.762600
O61	O6	0.666100	0.551100	0.769900
O71	O7	0.334100	0.885000	0.768900
O81	O8	0.919200	0.481200	0.759900
O91	O9	0.333700	0.885500	0.149000
O101	O10	0.082400	0.562700	0.756800
O111	O11	0.437400	0.519100	0.160900
O121	O12	0.665700	0.551200	0.147400
O131	O13	0.480300	0.917600	0.756800
O141	O14	0.114500	0.448200	0.149000
O151	O15	0.480900	0.918300	0.160900
O161	O16	0.826100	0.748600	0.155400
O171	O17	0.885000	0.333900	0.769900
O181	O18	0.551800	0.666300	0.149000
O191	O19	0.922500	0.173900	0.155400
O201	O20	0.885500	0.334300	0.147400
O211	O21	0.115000	0.449100	0.768900
O221	O22	0.079300	0.250700	0.762600
O231	O23	0.437300	0.519700	0.756800
O241	O24	0.562000	0.080800	0.759900
O251	O25	0.172900	0.921800	0.154700
O261	O26	0.448800	0.114500	0.147400
O271	O27	0.560300	0.078600	0.158000
O281	O28	0.518300	0.439700	0.158000
O291	O29	0.448900	0.115000	0.769900
O301	O30	0.171400	0.920700	0.762600
O311	O31	0.518800	0.438000	0.759900
O321	O32	0.078200	0.251100	0.154700
O331	O33	0.250100	0.078100	0.764900
O341	O34	0.828000	0.749900	0.764900
O351	O35	0.921400	0.481700	0.158000
O361	O36	0.251400	0.077500	0.155400
