data_MIYGIL_clean_PM
_symmetry_space_group_name_H-M	'P1'
_cell_length_a	7.871900
_cell_length_b	7.965700
_cell_length_c	10.475400
_cell_angle_alpha	70.163500
_cell_angle_beta	67.930400
_cell_angle_gamma	60.388700
_symmetry_Int_Tables_number 1

loop_
_symmetry_equiv_pos_as_xyz
'x,y,z'

loop_
_atom_site_label
_atom_site_type_symbol
_atom_site_fract_x
_atom_site_fract_y
_atom_site_fract_z
Th11	Th1	0.237580	0.250000	0.750000
Th21	Th2	0.762420	0.750000	0.250000
C11	C1	0.075000	0.420700	0.043700
C21	C2	0.101300	0.916900	0.012100
C31	C3	0.539400	0.079300	0.456300
C41	C4	0.030300	0.583100	0.487900
C51	C5	0.925000	0.579300	0.956300
C61	C6	0.898700	0.083100	0.987900
C71	C7	0.460600	0.920700	0.543700
C81	C8	0.969700	0.416900	0.512100
O11	O1	0.256900	0.938600	0.938200
O21	O2	0.220460	0.283880	0.984200
O31	O3	0.089010	0.771780	0.106000
O41	O4	0.040670	0.441860	0.164400
O51	O5	0.133700	0.561400	0.561800
O61	O6	0.488540	0.216120	0.515800
O71	O7	0.966790	0.728220	0.394000
O81	O8	0.646930	0.058140	0.335600
O91	O9	0.743100	0.061400	0.061800
O101	O10	0.779540	0.716120	0.015800
O111	O11	0.910990	0.228220	0.894000
O121	O12	0.959330	0.558140	0.835600
O131	O13	0.866300	0.438600	0.438200
O141	O14	0.511460	0.783880	0.484200
O151	O15	0.033210	0.271780	0.606000
O161	O16	0.353070	0.941860	0.664400
