data_MOBBIO_clean_PM
_symmetry_space_group_name_H-M	'P1'
_cell_length_a	11.578000
_cell_length_b	11.578000
_cell_length_c	15.106300
_cell_angle_alpha	112.533000
_cell_angle_beta	112.533000
_cell_angle_gamma	90.000000
_symmetry_Int_Tables_number 1

loop_
_symmetry_equiv_pos_as_xyz
'x,y,z'

loop_
_atom_site_label
_atom_site_type_symbol
_atom_site_fract_x
_atom_site_fract_y
_atom_site_fract_z
Y11	Y1	0.375000	0.125000	0.250000
Y21	Y2	0.625000	0.875000	0.750000
C11	C1	0.575000	0.528800	0.452000
C21	C2	0.501300	0.414500	0.403000
C31	C3	0.580300	0.620100	0.547200
C41	C4	0.377000	0.923200	0.452000
C51	C5	0.401700	0.988500	0.403000
C61	C6	0.466900	0.927100	0.547200
C71	C7	0.028800	0.877000	0.952000
C81	C8	0.914500	0.901700	0.903000
C91	C9	0.120100	0.966900	0.047200
C101	C10	0.423200	0.075000	0.952000
C111	C11	0.488500	0.001300	0.903000
C121	C12	0.427100	0.080300	0.047200
C131	C13	0.425000	0.471200	0.548000
C141	C14	0.498700	0.585500	0.597000
C151	C15	0.419700	0.379900	0.452800
C161	C16	0.623000	0.076800	0.548000
C171	C17	0.598300	0.011500	0.597000
C181	C18	0.533100	0.072900	0.452800
C191	C19	0.971200	0.123000	0.048000
C201	C20	0.085500	0.098300	0.097000
C211	C21	0.879900	0.033100	0.952800
C221	C22	0.576800	0.925000	0.048000
C231	C23	0.511500	0.998700	0.097000
C241	C24	0.572900	0.919700	0.952800
Cl11	Cl1	0.664440	0.568240	0.395080
Cl21	Cl2	0.230640	0.826840	0.395080
Cl31	Cl3	0.068240	0.730640	0.895080
Cl41	Cl4	0.326840	0.164440	0.895080
Cl51	Cl5	0.335560	0.431760	0.604920
Cl61	Cl6	0.769360	0.173160	0.604920
Cl71	Cl7	0.931760	0.269360	0.104920
Cl81	Cl8	0.673160	0.835560	0.104920
O11	O1	0.487000	0.325600	0.314800
O21	O2	0.648800	0.727000	0.598200
O31	O3	0.327800	0.989200	0.314800
O41	O4	0.449400	0.871200	0.598200
O51	O5	0.825600	0.827800	0.814800
O61	O6	0.227000	0.949400	0.098200
O71	O7	0.489200	0.987000	0.814800
O81	O8	0.371200	0.148800	0.098200
O91	O9	0.513000	0.674400	0.685200
O101	O10	0.351200	0.273000	0.401800
O111	O11	0.672200	0.010800	0.685200
O121	O12	0.550600	0.128800	0.401800
O131	O13	0.174400	0.172200	0.185200
O141	O14	0.773000	0.050600	0.901800
O151	O15	0.510800	0.013000	0.185200
O161	O16	0.628800	0.851200	0.901800
