data_MOCJIY_clean_PM
_symmetry_space_group_name_H-M	'P1'
_cell_length_a	6.407500
_cell_length_b	6.805000
_cell_length_c	7.664700
_cell_angle_alpha	111.753000
_cell_angle_beta	95.858000
_cell_angle_gamma	91.204000
_symmetry_Int_Tables_number 1

loop_
_symmetry_equiv_pos_as_xyz
'x,y,z'

loop_
_atom_site_label
_atom_site_type_symbol
_atom_site_fract_x
_atom_site_fract_y
_atom_site_fract_z
Yb11	Yb1	0.877510	0.781470	0.068620
Yb21	Yb2	0.122490	0.218530	0.931380
P11	P1	0.331100	0.747400	0.979300
P21	P2	0.668900	0.252600	0.020700
H11	H1	0.362200	0.720400	0.797800
H21	H2	0.637800	0.279600	0.202200
C11	C1	0.057100	0.901800	0.500500
C21	C2	0.942900	0.098200	0.499500
O11	O1	0.196900	0.942100	0.035300
O21	O2	0.536000	0.780000	0.106800
O31	O3	0.181600	0.567800	0.975700
O41	O4	0.049400	0.754300	0.345100
O51	O5	0.854500	0.088400	0.344700
O61	O6	0.803100	0.057900	0.964700
O71	O7	0.464000	0.220000	0.893200
O81	O8	0.818400	0.432200	0.024300
O91	O9	0.950600	0.245700	0.654900
O101	O10	0.145500	0.911600	0.655300
