data_MODJOG_clean_PM
_symmetry_space_group_name_H-M	'P1'
_cell_length_a	10.786400
_cell_length_b	12.205300
_cell_length_c	19.000000
_cell_angle_alpha	90.000000
_cell_angle_beta	92.239000
_cell_angle_gamma	90.000000
_symmetry_Int_Tables_number 1

loop_
_symmetry_equiv_pos_as_xyz
'x,y,z'

loop_
_atom_site_label
_atom_site_type_symbol
_atom_site_fract_x
_atom_site_fract_y
_atom_site_fract_z
U11	U1	0.407740	0.040860	0.123880
U21	U2	0.033270	0.316010	0.187610
O11	O1	0.352400	0.119900	0.233800
O21	O2	0.153000	0.166000	0.223100
O31	O3	0.122600	0.962700	0.298300
O41	O4	0.032200	0.956600	0.399500
O51	O5	0.136000	0.220000	0.584100
O61	O6	0.330300	0.279100	0.593500
O71	O7	0.361000	0.439000	0.500600
O81	O8	0.502900	0.383000	0.426500
C11	C1	0.249500	0.161200	0.338000
C21	C2	0.323300	0.245600	0.364600
H11	H1	0.373600	0.283800	0.334400
C31	C3	0.323800	0.274800	0.435900
C41	C4	0.245700	0.217600	0.481400
C51	C5	0.176500	0.130000	0.453900
H21	H2	0.126900	0.090200	0.483600
C61	C6	0.179500	0.100300	0.383500
C71	C7	0.106300	0.001800	0.359300
C81	C8	0.249800	0.146000	0.258300
C91	C9	0.401800	0.373400	0.457400
C101	C10	0.239000	0.242400	0.559000
U31	U3	0.592260	0.540860	0.376120
U41	U4	0.966730	0.816010	0.312390
O91	O9	0.647600	0.619900	0.266200
O101	O10	0.847000	0.666000	0.276900
O111	O11	0.877400	0.462700	0.201700
O121	O12	0.967800	0.456600	0.100500
O131	O13	0.864000	0.720000	0.915900
O141	O14	0.669700	0.779100	0.906500
O151	O15	0.639000	0.939000	0.999400
O161	O16	0.497100	0.883000	0.073500
C111	C11	0.750500	0.661200	0.162000
C121	C12	0.676700	0.745600	0.135400
H31	H3	0.626400	0.783800	0.165600
C131	C13	0.676200	0.774800	0.064100
C141	C14	0.754300	0.717600	0.018600
C151	C15	0.823500	0.630000	0.046100
H41	H4	0.873100	0.590200	0.016400
C161	C16	0.820500	0.600300	0.116500
C171	C17	0.893700	0.501800	0.140700
C181	C18	0.750200	0.646000	0.241700
C191	C19	0.598200	0.873400	0.042600
C201	C20	0.761000	0.742400	0.941000
U51	U5	0.592260	0.959140	0.876120
U61	U6	0.966730	0.683990	0.812390
O171	O17	0.647600	0.880100	0.766200
O181	O18	0.847000	0.834000	0.776900
O191	O19	0.877400	0.037300	0.701700
O201	O20	0.967800	0.043400	0.600500
O211	O21	0.864000	0.780000	0.415900
O221	O22	0.669700	0.720900	0.406500
O231	O23	0.639000	0.561000	0.499400
O241	O24	0.497100	0.617000	0.573500
C211	C21	0.750500	0.838800	0.662000
C221	C22	0.676700	0.754400	0.635400
H51	H5	0.626400	0.716200	0.665600
C231	C23	0.676200	0.725200	0.564100
C241	C24	0.754300	0.782400	0.518600
C251	C25	0.823500	0.870000	0.546100
H61	H6	0.873100	0.909800	0.516400
C261	C26	0.820500	0.899700	0.616500
C271	C27	0.893700	0.998200	0.640700
C281	C28	0.750200	0.854000	0.741700
C291	C29	0.598200	0.626600	0.542600
C301	C30	0.761000	0.757600	0.441000
U71	U7	0.407740	0.459140	0.623880
U81	U8	0.033270	0.183990	0.687610
O251	O25	0.352400	0.380100	0.733800
O261	O26	0.153000	0.334000	0.723100
O271	O27	0.122600	0.537300	0.798300
O281	O28	0.032200	0.543400	0.899500
O291	O29	0.136000	0.280000	0.084100
O301	O30	0.330300	0.220900	0.093500
O311	O31	0.361000	0.061000	0.000600
O321	O32	0.502900	0.117000	0.926500
C311	C31	0.249500	0.338800	0.838000
C321	C32	0.323300	0.254400	0.864600
H71	H7	0.373600	0.216200	0.834400
C331	C33	0.323800	0.225200	0.935900
C341	C34	0.245700	0.282400	0.981400
C351	C35	0.176500	0.370000	0.953900
H81	H8	0.126900	0.409800	0.983600
C361	C36	0.179500	0.399700	0.883500
C371	C37	0.106300	0.498200	0.859300
C381	C38	0.249800	0.354000	0.758300
C391	C39	0.401800	0.126600	0.957400
C401	C40	0.239000	0.257600	0.059000
