data_MODNAU_charged_PM
_symmetry_space_group_name_H-M	'P1'
_cell_length_a	13.549700
_cell_length_b	13.645400
_cell_length_c	27.203700
_cell_angle_alpha	90.000000
_cell_angle_beta	90.000000
_cell_angle_gamma	90.000000
_symmetry_Int_Tables_number 1

loop_
_symmetry_equiv_pos_as_xyz
'x,y,z'

loop_
_atom_site_label
_atom_site_type_symbol
_atom_site_fract_x
_atom_site_fract_y
_atom_site_fract_z
Cd11	Cd1	0.986580	0.174330	0.124280
Cd21	Cd2	0.883260	0.552310	0.191930
Cd31	Cd3	0.124800	0.794450	0.076870
Cd41	Cd4	0.486580	0.325670	0.875720
Cd51	Cd5	0.383260	0.947690	0.808070
Cd61	Cd6	0.624800	0.705550	0.923130
Cd71	Cd7	0.513420	0.825670	0.624280
Cd81	Cd8	0.616740	0.447690	0.691930
Cd91	Cd9	0.375200	0.205550	0.576870
Cd101	Cd10	0.013420	0.674330	0.375720
Cd111	Cd11	0.116740	0.052310	0.308070
Cd121	Cd12	0.875200	0.294450	0.423130
Cd131	Cd13	0.013420	0.825670	0.875720
Cd141	Cd14	0.116740	0.447690	0.808070
Cd151	Cd15	0.875200	0.205550	0.923130
Cd161	Cd16	0.513420	0.674330	0.124280
Cd171	Cd17	0.616740	0.052310	0.191930
Cd181	Cd18	0.375200	0.294450	0.076870
Cd191	Cd19	0.486580	0.174330	0.375720
Cd201	Cd20	0.383260	0.552310	0.308070
Cd211	Cd21	0.624800	0.794450	0.423130
Cd221	Cd22	0.986580	0.325670	0.624280
Cd231	Cd23	0.883260	0.947690	0.691930
Cd241	Cd24	0.124800	0.705550	0.576870
C11	C1	0.923800	0.402000	0.169200
C21	C2	0.760600	0.089700	0.159700
C31	C3	0.075700	0.944300	0.094000
C41	C4	0.218000	0.263700	0.088900
C51	C5	0.030800	0.688700	0.116200
C61	C6	0.906500	0.211800	0.004000
C71	C7	0.074700	0.107400	0.236700
C81	C8	0.423800	0.098000	0.830800
C91	C9	0.260600	0.410300	0.840300
C101	C10	0.575700	0.555700	0.906000
C111	C11	0.718000	0.236300	0.911100
C121	C12	0.530800	0.811300	0.883800
C131	C13	0.406500	0.288200	0.996000
C141	C14	0.574700	0.392600	0.763300
C151	C15	0.576200	0.598000	0.669200
C161	C16	0.739400	0.910300	0.659700
C171	C17	0.424300	0.055700	0.594000
C181	C18	0.282000	0.736300	0.588900
C191	C19	0.469200	0.311300	0.616200
C201	C20	0.593500	0.788200	0.504000
C211	C21	0.425300	0.892600	0.736700
C221	C22	0.076200	0.902000	0.330800
C231	C23	0.239400	0.589700	0.340300
C241	C24	0.924300	0.444300	0.406000
C251	C25	0.782000	0.763700	0.411100
C261	C26	0.969200	0.188700	0.383800
C271	C27	0.093500	0.711800	0.496000
C281	C28	0.925300	0.607400	0.263300
C291	C29	0.076200	0.598000	0.830800
C301	C30	0.239400	0.910300	0.840300
C311	C31	0.924300	0.055700	0.906000
C321	C32	0.782000	0.736300	0.911100
C331	C33	0.969200	0.311300	0.883800
C341	C34	0.093500	0.788200	0.996000
C351	C35	0.925300	0.892600	0.763300
C361	C36	0.576200	0.902000	0.169200
C371	C37	0.739400	0.589700	0.159700
C381	C38	0.424300	0.444300	0.094000
C391	C39	0.282000	0.763700	0.088900
C401	C40	0.469200	0.188700	0.116200
C411	C41	0.593500	0.711800	0.004000
C421	C42	0.425300	0.607400	0.236700
C431	C43	0.423800	0.402000	0.330800
C441	C44	0.260600	0.089700	0.340300
C451	C45	0.575700	0.944300	0.406000
C461	C46	0.718000	0.263700	0.411100
C471	C47	0.530800	0.688700	0.383800
C481	C48	0.406500	0.211800	0.496000
C491	C49	0.574700	0.107400	0.263300
C501	C50	0.923800	0.098000	0.669200
C511	C51	0.760600	0.410300	0.659700
C521	C52	0.075700	0.555700	0.594000
C531	C53	0.218000	0.236300	0.588900
C541	C54	0.030800	0.811300	0.616200
C551	C55	0.906500	0.288200	0.504000
C561	C56	0.074700	0.392600	0.736700
N11	N1	0.943900	0.328600	0.153240
N21	N2	0.833500	0.110600	0.142700
N31	N3	0.046400	0.021100	0.098090
N41	N4	0.138300	0.242500	0.096900
N51	N5	0.981300	0.636800	0.138200
N61	N6	0.926600	0.205600	0.044010
N71	N7	0.051500	0.138200	0.199800
N81	N8	0.443900	0.171400	0.846760
N91	N9	0.333500	0.389400	0.857300
N101	N10	0.546400	0.478900	0.901910
N111	N11	0.638300	0.257500	0.903100
N121	N12	0.481300	0.863200	0.861800
N131	N13	0.426600	0.294400	0.955990
N141	N14	0.551500	0.361800	0.800200
N151	N15	0.556100	0.671400	0.653240
N161	N16	0.666500	0.889400	0.642700
N171	N17	0.453600	0.978900	0.598090
N181	N18	0.361700	0.757500	0.596900
N191	N19	0.518700	0.363200	0.638200
N201	N20	0.573400	0.794400	0.544010
N211	N21	0.448500	0.861800	0.699800
N221	N22	0.056100	0.828600	0.346760
N231	N23	0.166500	0.610600	0.357300
N241	N24	0.953600	0.521100	0.401910
N251	N25	0.861700	0.742500	0.403100
N261	N26	0.018700	0.136800	0.361800
N271	N27	0.073400	0.705600	0.455990
N281	N28	0.948500	0.638200	0.300200
N291	N29	0.056100	0.671400	0.846760
N301	N30	0.166500	0.889400	0.857300
N311	N31	0.953600	0.978900	0.901910
N321	N32	0.861700	0.757500	0.903100
N331	N33	0.018700	0.363200	0.861800
N341	N34	0.073400	0.794400	0.955990
N351	N35	0.948500	0.861800	0.800200
N361	N36	0.556100	0.828600	0.153240
N371	N37	0.666500	0.610600	0.142700
N381	N38	0.453600	0.521100	0.098090
N391	N39	0.361700	0.742500	0.096900
N401	N40	0.518700	0.136800	0.138200
N411	N41	0.573400	0.705600	0.044010
N421	N42	0.448500	0.638200	0.199800
N431	N43	0.443900	0.328600	0.346760
N441	N44	0.333500	0.110600	0.357300
N451	N45	0.546400	0.021100	0.401910
N461	N46	0.638300	0.242500	0.403100
N471	N47	0.481300	0.636800	0.361800
N481	N48	0.426600	0.205600	0.455990
N491	N49	0.551500	0.138200	0.300200
N501	N50	0.943900	0.171400	0.653240
N511	N51	0.833500	0.389400	0.642700
N521	N52	0.046400	0.478900	0.598090
N531	N53	0.138300	0.257500	0.596900
N541	N54	0.981300	0.863200	0.638200
N551	N55	0.926600	0.294400	0.544010
N561	N56	0.051500	0.361800	0.699800
H11	H1	0.793600	0.414000	0.084900
H21	H2	0.954800	0.454500	0.074800
H31	H3	0.900400	0.509700	0.934500
H41	H4	0.740600	0.468400	0.946800
H51	H5	0.611800	0.469100	0.038600
H61	H6	0.617600	0.394000	0.995100
H71	H7	0.643300	0.360400	0.048700
H81	H8	0.206400	0.586000	0.915100
H91	H9	0.045200	0.545500	0.925200
H101	H10	0.099600	0.490300	0.065500
H111	H11	0.259400	0.531600	0.053200
H121	H12	0.388200	0.530900	0.961400
H131	H13	0.382400	0.606000	0.004900
H141	H14	0.356700	0.639600	0.951300
C571	C57	0.815500	0.434700	0.054200
C581	C58	0.912000	0.458300	0.048100
C591	C59	0.947300	0.487400	0.003700
C601	C60	0.879800	0.490700	0.965700
C611	C61	0.784500	0.466700	0.973100
C621	C62	0.646800	0.413600	0.025700
C631	C63	0.184500	0.565300	0.945800
C641	C64	0.088000	0.541700	0.951900
C651	C65	0.052700	0.512600	0.996300
C661	C66	0.120200	0.509300	0.034300
C671	C67	0.215500	0.533300	0.026900
C681	C68	0.353200	0.586400	0.974300
N571	N57	0.751800	0.440600	0.017500
N581	N58	0.248200	0.559400	0.982500
H151	H15	0.293600	0.086000	0.915100
H161	H16	0.454800	0.045500	0.925200
H171	H17	0.400400	0.990300	0.065500
H181	H18	0.240600	0.031600	0.053200
H191	H19	0.111800	0.030900	0.961400
H201	H20	0.117600	0.106000	0.004900
H211	H21	0.143300	0.139600	0.951300
H221	H22	0.706400	0.914000	0.084900
H231	H23	0.545200	0.954500	0.074800
H241	H24	0.599600	0.009700	0.934500
H251	H25	0.759400	0.968400	0.946800
H261	H26	0.888200	0.969100	0.038600
H271	H27	0.882400	0.894000	0.995100
H281	H28	0.856700	0.860400	0.048700
C691	C69	0.315500	0.065300	0.945800
C701	C70	0.412000	0.041700	0.951900
C711	C71	0.447300	0.012600	0.996300
C721	C72	0.379800	0.009300	0.034300
C731	C73	0.284500	0.033300	0.026900
C741	C74	0.146800	0.086400	0.974300
C751	C75	0.684500	0.934700	0.054200
C761	C76	0.588000	0.958300	0.048100
C771	C77	0.552700	0.987400	0.003700
C781	C78	0.620200	0.990700	0.965700
C791	C79	0.715500	0.966700	0.973100
C801	C80	0.853200	0.913600	0.025700
N591	N59	0.251800	0.059400	0.982500
N601	N60	0.748200	0.940600	0.017500
H291	H29	0.706400	0.586000	0.584900
H301	H30	0.545200	0.545500	0.574800
H311	H31	0.599600	0.490300	0.434500
H321	H32	0.759400	0.531600	0.446800
H331	H33	0.888200	0.530900	0.538600
H341	H34	0.882400	0.606000	0.495100
H351	H35	0.856700	0.639600	0.548700
H361	H36	0.293600	0.414000	0.415100
H371	H37	0.454800	0.454500	0.425200
H381	H38	0.400400	0.509700	0.565500
H391	H39	0.240600	0.468400	0.553200
H401	H40	0.111800	0.469100	0.461400
H411	H41	0.117600	0.394000	0.504900
H421	H42	0.143300	0.360400	0.451300
C811	C81	0.684500	0.565300	0.554200
C821	C82	0.588000	0.541700	0.548100
C831	C83	0.552700	0.512600	0.503700
C841	C84	0.620200	0.509300	0.465700
C851	C85	0.715500	0.533300	0.473100
C861	C86	0.853200	0.586400	0.525700
C871	C87	0.315500	0.434700	0.445800
C881	C88	0.412000	0.458300	0.451900
C891	C89	0.447300	0.487400	0.496300
C901	C90	0.379800	0.490700	0.534300
C911	C91	0.284500	0.466700	0.526900
C921	C92	0.146800	0.413600	0.474300
N611	N61	0.748200	0.559400	0.517500
N621	N62	0.251800	0.440600	0.482500
H431	H43	0.206400	0.914000	0.415100
H441	H44	0.045200	0.954500	0.425200
H451	H45	0.099600	0.009700	0.565500
H461	H46	0.259400	0.968400	0.553200
H471	H47	0.388200	0.969100	0.461400
H481	H48	0.382400	0.894000	0.504900
H491	H49	0.356700	0.860400	0.451300
H501	H50	0.793600	0.086000	0.584900
H511	H51	0.954800	0.045500	0.574800
H521	H52	0.900400	0.990300	0.434500
H531	H53	0.740600	0.031600	0.446800
H541	H54	0.611800	0.030900	0.538600
H551	H55	0.617600	0.106000	0.495100
H561	H56	0.643300	0.139600	0.548700
C931	C93	0.184500	0.934700	0.445800
C941	C94	0.088000	0.958300	0.451900
C951	C95	0.052700	0.987400	0.496300
C961	C96	0.120200	0.990700	0.534300
C971	C97	0.215500	0.966700	0.526900
C981	C98	0.353200	0.913600	0.474300
C991	C99	0.815500	0.065300	0.554200
C1001	C100	0.912000	0.041700	0.548100
C1011	C101	0.947300	0.012600	0.503700
C1021	C102	0.879800	0.009300	0.465700
C1031	C103	0.784500	0.033300	0.473100
C1041	C104	0.646800	0.086400	0.525700
N631	N63	0.248200	0.940600	0.482500
N641	N64	0.751800	0.059400	0.517500
