data_MODNUO_ion_b_PM
_symmetry_space_group_name_H-M	'P1'
_cell_length_a	13.740000
_cell_length_b	27.030000
_cell_length_c	13.647000
_cell_angle_alpha	90.000000
_cell_angle_beta	90.000000
_cell_angle_gamma	90.000000
_symmetry_Int_Tables_number 1

loop_
_symmetry_equiv_pos_as_xyz
'x,y,z'

loop_
_atom_site_label
_atom_site_type_symbol
_atom_site_fract_x
_atom_site_fract_y
_atom_site_fract_z
Cd11	Cd1	0.832080	0.874810	0.997670
Cd21	Cd2	0.469770	0.807490	0.136800
Cd31	Cd3	0.220780	0.923250	0.890890
N41	N4	0.680700	0.849000	0.043300
C51	C5	0.609800	0.832900	0.074600
N61	N6	0.894400	0.856600	0.154000
C71	C7	0.921500	0.841300	0.223700
N81	N8	0.988600	0.897300	0.948000
C91	C9	0.068000	0.903100	0.926800
N101	N10	0.775900	0.902000	0.842700
C111	C11	0.756100	0.910800	0.765800
N121	N12	0.377000	0.866700	0.037500
C131	C13	0.326200	0.886400	0.988900
N141	N14	0.799700	0.955200	0.054600
C151	C15	0.787600	0.995500	0.076200
N161	N16	0.868800	0.796200	0.943000
C171	C17	0.901000	0.761400	0.917000
N191	N19	0.546400	0.984000	0.248800
C201	C20	0.567800	0.948900	0.188200
H211	H21	0.595300	0.919800	0.211500
C221	C22	0.550000	0.954500	0.088100
H231	H23	0.566300	0.928900	0.045800
C241	C24	0.509100	0.996800	0.050300
C251	C25	0.489200	0.034200	0.120000
H261	H26	0.463400	0.064300	0.099600
C271	C27	0.508000	0.026200	0.217300
H281	H28	0.492900	0.050800	0.262400
C291	C29	0.568600	0.977800	0.357400
H301	H30	0.587200	0.944100	0.370000
H311	H31	0.511700	0.985800	0.395000
H321	H32	0.620800	0.999500	0.375500
Cd331	Cd33	0.667920	0.125190	0.497670
Cd341	Cd34	0.030230	0.192510	0.636800
Cd351	Cd35	0.279220	0.076750	0.390890
N361	N36	0.819300	0.151000	0.543300
C371	C37	0.890200	0.167100	0.574600
N381	N38	0.605600	0.143400	0.654000
C391	C39	0.578500	0.158700	0.723700
N401	N40	0.511400	0.102700	0.448000
C411	C41	0.432000	0.096900	0.426800
N421	N42	0.724100	0.098000	0.342700
C431	C43	0.743900	0.089200	0.265800
N441	N44	0.123000	0.133300	0.537500
C451	C45	0.173800	0.113600	0.488900
N461	N46	0.700300	0.044800	0.554600
C471	C47	0.712400	0.004500	0.576200
N481	N48	0.631200	0.203800	0.443000
C491	C49	0.599000	0.238600	0.417000
N511	N51	0.953600	0.016000	0.748800
C521	C52	0.932200	0.051100	0.688200
H531	H53	0.904700	0.080200	0.711500
C541	C54	0.950000	0.045500	0.588100
H551	H55	0.933700	0.071100	0.545800
C561	C56	0.990900	0.003200	0.550300
C571	C57	0.010800	0.965800	0.620000
H581	H58	0.036600	0.935700	0.599600
C591	C59	0.992000	0.973800	0.717300
H601	H60	0.007100	0.949200	0.762400
C611	C61	0.931400	0.022200	0.857400
H621	H62	0.912800	0.055900	0.870000
H631	H63	0.988300	0.014200	0.895000
H641	H64	0.879200	0.000500	0.875500
Cd651	Cd65	0.167920	0.374810	0.502330
Cd661	Cd66	0.530230	0.307490	0.363200
Cd671	Cd67	0.779220	0.423250	0.609110
N681	N68	0.319300	0.349000	0.456700
C691	C69	0.390200	0.332900	0.425400
N701	N70	0.105600	0.356600	0.346000
C711	C71	0.078500	0.341300	0.276300
N721	N72	0.011400	0.397300	0.552000
C731	C73	0.932000	0.403100	0.573200
N741	N74	0.224100	0.402000	0.657300
C751	C75	0.243900	0.410800	0.734200
N761	N76	0.623000	0.366700	0.462500
C771	C77	0.673800	0.386400	0.511100
N781	N78	0.200300	0.455200	0.445400
C791	C79	0.212400	0.495500	0.423800
N801	N80	0.131200	0.296200	0.557000
C811	C81	0.099000	0.261400	0.583000
N831	N83	0.453600	0.484000	0.251200
C841	C84	0.432200	0.448900	0.311800
H851	H85	0.404700	0.419800	0.288500
C861	C86	0.450000	0.454500	0.411900
H871	H87	0.433700	0.428900	0.454200
C881	C88	0.490900	0.496800	0.449700
C891	C89	0.510800	0.534200	0.380000
H901	H90	0.536600	0.564300	0.400400
C911	C91	0.492000	0.526200	0.282700
H921	H92	0.507100	0.550800	0.237600
C931	C93	0.431400	0.477800	0.142600
H941	H94	0.412800	0.444100	0.130000
H951	H95	0.488300	0.485800	0.105000
H961	H96	0.379200	0.499500	0.124500
Cd971	Cd97	0.332080	0.625190	0.002330
Cd981	Cd98	0.969770	0.692510	0.863200
Cd991	Cd99	0.720780	0.576750	0.109110
N1001	N100	0.180700	0.651000	0.956700
C1011	C101	0.109800	0.667100	0.925400
N1021	N102	0.394400	0.643400	0.846000
C1031	C103	0.421500	0.658700	0.776300
N1041	N104	0.488600	0.602700	0.052000
C1051	C105	0.568000	0.596900	0.073200
N1061	N106	0.275900	0.598000	0.157300
C1071	C107	0.256100	0.589200	0.234200
N1081	N108	0.877000	0.633300	0.962500
C1091	C109	0.826200	0.613600	0.011100
N1101	N110	0.299700	0.544800	0.945400
C1111	C111	0.287600	0.504500	0.923800
N1121	N112	0.368800	0.703800	0.057000
C1131	C113	0.401000	0.738600	0.083000
N1151	N115	0.046400	0.516000	0.751200
C1161	C116	0.067800	0.551100	0.811800
H1171	H117	0.095300	0.580200	0.788500
C1181	C118	0.050000	0.545500	0.911900
H1191	H119	0.066300	0.571100	0.954200
C1201	C120	0.009100	0.503200	0.949700
C1211	C121	0.989200	0.465800	0.880000
H1221	H122	0.963400	0.435700	0.900400
C1231	C123	0.008000	0.473800	0.782700
H1241	H124	0.992900	0.449200	0.737600
C1251	C125	0.068600	0.522200	0.642600
H1261	H126	0.087200	0.555900	0.630000
H1271	H127	0.011700	0.514200	0.605000
H1281	H128	0.120800	0.500500	0.624500
Cd1291	Cd129	0.167920	0.125190	0.002330
Cd1301	Cd130	0.530230	0.192510	0.863200
Cd1311	Cd131	0.779220	0.076750	0.109110
N1321	N132	0.319300	0.151000	0.956700
C1331	C133	0.390200	0.167100	0.925400
N1341	N134	0.105600	0.143400	0.846000
C1351	C135	0.078500	0.158700	0.776300
N1361	N136	0.011400	0.102700	0.052000
C1371	C137	0.932000	0.096900	0.073200
N1381	N138	0.224100	0.098000	0.157300
C1391	C139	0.243900	0.089200	0.234200
N1401	N140	0.623000	0.133300	0.962500
C1411	C141	0.673800	0.113600	0.011100
N1421	N142	0.200300	0.044800	0.945400
C1431	C143	0.212400	0.004500	0.923800
N1441	N144	0.131200	0.203800	0.057000
C1451	C145	0.099000	0.238600	0.083000
N1471	N147	0.453600	0.016000	0.751200
C1481	C148	0.432200	0.051100	0.811800
H1491	H149	0.404700	0.080200	0.788500
C1501	C150	0.450000	0.045500	0.911900
H1511	H151	0.433700	0.071100	0.954200
C1521	C152	0.490900	0.003200	0.949700
C1531	C153	0.510800	0.965800	0.880000
H1541	H154	0.536600	0.935700	0.900400
C1551	C155	0.492000	0.973800	0.782700
H1561	H156	0.507100	0.949200	0.737600
C1571	C157	0.431400	0.022200	0.642600
H1581	H158	0.412800	0.055900	0.630000
H1591	H159	0.488300	0.014200	0.605000
H1601	H160	0.379200	0.000500	0.624500
Cd1611	Cd161	0.332080	0.874810	0.502330
Cd1621	Cd162	0.969770	0.807490	0.363200
Cd1631	Cd163	0.720780	0.923250	0.609110
N1641	N164	0.180700	0.849000	0.456700
C1651	C165	0.109800	0.832900	0.425400
N1661	N166	0.394400	0.856600	0.346000
C1671	C167	0.421500	0.841300	0.276300
N1681	N168	0.488600	0.897300	0.552000
C1691	C169	0.568000	0.903100	0.573200
N1701	N170	0.275900	0.902000	0.657300
C1711	C171	0.256100	0.910800	0.734200
N1721	N172	0.877000	0.866700	0.462500
C1731	C173	0.826200	0.886400	0.511100
N1741	N174	0.299700	0.955200	0.445400
C1751	C175	0.287600	0.995500	0.423800
N1761	N176	0.368800	0.796200	0.557000
C1771	C177	0.401000	0.761400	0.583000
N1791	N179	0.046400	0.984000	0.251200
C1801	C180	0.067800	0.948900	0.311800
H1811	H181	0.095300	0.919800	0.288500
C1821	C182	0.050000	0.954500	0.411900
H1831	H183	0.066300	0.928900	0.454200
C1841	C184	0.009100	0.996800	0.449700
C1851	C185	0.989200	0.034200	0.380000
H1861	H186	0.963400	0.064300	0.400400
C1871	C187	0.008000	0.026200	0.282700
H1881	H188	0.992900	0.050800	0.237600
C1891	C189	0.068600	0.977800	0.142600
H1901	H190	0.087200	0.944100	0.130000
H1911	H191	0.011700	0.985800	0.105000
H1921	H192	0.120800	0.999500	0.124500
Cd1931	Cd193	0.832080	0.625190	0.497670
Cd1941	Cd194	0.469770	0.692510	0.636800
Cd1951	Cd195	0.220780	0.576750	0.390890
N1961	N196	0.680700	0.651000	0.543300
C1971	C197	0.609800	0.667100	0.574600
N1981	N198	0.894400	0.643400	0.654000
C1991	C199	0.921500	0.658700	0.723700
N2001	N200	0.988600	0.602700	0.448000
C2011	C201	0.068000	0.596900	0.426800
N2021	N202	0.775900	0.598000	0.342700
C2031	C203	0.756100	0.589200	0.265800
N2041	N204	0.377000	0.633300	0.537500
C2051	C205	0.326200	0.613600	0.488900
N2061	N206	0.799700	0.544800	0.554600
C2071	C207	0.787600	0.504500	0.576200
N2081	N208	0.868800	0.703800	0.443000
C2091	C209	0.901000	0.738600	0.417000
N2111	N211	0.546400	0.516000	0.748800
C2121	C212	0.567800	0.551100	0.688200
H2131	H213	0.595300	0.580200	0.711500
C2141	C214	0.550000	0.545500	0.588100
H2151	H215	0.566300	0.571100	0.545800
C2161	C216	0.509100	0.503200	0.550300
C2171	C217	0.489200	0.465800	0.620000
H2181	H218	0.463400	0.435700	0.599600
C2191	C219	0.508000	0.473800	0.717300
H2201	H220	0.492900	0.449200	0.762400
C2211	C221	0.568600	0.522200	0.857400
H2221	H222	0.587200	0.555900	0.870000
H2231	H223	0.511700	0.514200	0.895000
H2241	H224	0.620800	0.500500	0.875500
Cd2251	Cd225	0.667920	0.374810	0.997670
Cd2261	Cd226	0.030230	0.307490	0.136800
Cd2271	Cd227	0.279220	0.423250	0.890890
N2281	N228	0.819300	0.349000	0.043300
C2291	C229	0.890200	0.332900	0.074600
N2301	N230	0.605600	0.356600	0.154000
C2311	C231	0.578500	0.341300	0.223700
N2321	N232	0.511400	0.397300	0.948000
C2331	C233	0.432000	0.403100	0.926800
N2341	N234	0.724100	0.402000	0.842700
C2351	C235	0.743900	0.410800	0.765800
N2361	N236	0.123000	0.366700	0.037500
C2371	C237	0.173800	0.386400	0.988900
N2381	N238	0.700300	0.455200	0.054600
C2391	C239	0.712400	0.495500	0.076200
N2401	N240	0.631200	0.296200	0.943000
C2411	C241	0.599000	0.261400	0.917000
N2431	N243	0.953600	0.484000	0.248800
C2441	C244	0.932200	0.448900	0.188200
H2451	H245	0.904700	0.419800	0.211500
C2461	C246	0.950000	0.454500	0.088100
H2471	H247	0.933700	0.428900	0.045800
C2481	C248	0.990900	0.496800	0.050300
C2491	C249	0.010800	0.534200	0.120000
H2501	H250	0.036600	0.564300	0.099600
C2511	C251	0.992000	0.526200	0.217300
H2521	H252	0.007100	0.550800	0.262400
C2531	C253	0.931400	0.477800	0.357400
H2541	H254	0.912800	0.444100	0.370000
H2551	H255	0.988300	0.485800	0.395000
H2561	H256	0.879200	0.499500	0.375500
