data_MOFBIU_clean_PM
_symmetry_space_group_name_H-M	'P1'
_cell_length_a	13.064200
_cell_length_b	13.588400
_cell_length_c	19.296700
_cell_angle_alpha	90.000000
_cell_angle_beta	90.000000
_cell_angle_gamma	90.000000
_symmetry_Int_Tables_number 1

loop_
_symmetry_equiv_pos_as_xyz
'x,y,z'

loop_
_atom_site_label
_atom_site_type_symbol
_atom_site_fract_x
_atom_site_fract_y
_atom_site_fract_z
Cd11	Cd1	0.706200	0.375370	0.222190
Cd21	Cd2	0.293800	0.875370	0.777810
Cd31	Cd3	0.206200	0.375370	0.277810
Cd41	Cd4	0.793800	0.875370	0.722190
H11	H1	0.077500	0.760400	0.788600
H21	H2	0.672900	0.441900	0.489200
H31	H3	0.786400	0.150100	0.868400
H41	H4	0.639900	0.400900	0.909200
H51	H5	0.505100	0.208600	0.551300
H61	H6	0.994900	0.708600	0.051300
H71	H7	0.439100	0.542500	0.378100
H81	H8	0.040500	0.202200	0.133200
H91	H9	0.543600	0.417200	0.789700
H101	H10	0.605600	0.515400	0.687800
H111	H11	0.184500	0.696200	0.372900
H121	H12	0.461800	0.628300	0.777100
H131	H13	0.060900	0.042500	0.878100
H141	H14	0.043900	0.551600	0.953500
H151	H15	0.922500	0.260400	0.211400
H161	H16	0.956100	0.051600	0.046500
H171	H17	0.577500	0.760400	0.711400
H181	H18	0.652400	0.235500	0.921700
H191	H19	0.538200	0.128300	0.222900
H201	H20	0.961800	0.628300	0.722900
H211	H21	0.701300	0.557400	0.855600
H221	H22	0.543900	0.551600	0.546500
H231	H23	0.139900	0.400900	0.590800
H241	H24	0.142700	0.021800	0.430200
H251	H25	0.815500	0.196200	0.627100
H261	H26	0.520400	0.487900	0.281200
H271	H27	0.094700	0.258700	0.989300
H281	H28	0.479600	0.987900	0.718800
H291	H29	0.347600	0.735500	0.078300
H301	H30	0.422500	0.260400	0.288600
H311	H31	0.041200	0.972900	0.033700
H321	H32	0.245300	0.384800	0.109800
H331	H33	0.152400	0.235500	0.578300
H341	H34	0.223200	0.601700	0.873300
H351	H35	0.276800	0.101700	0.373300
H361	H36	0.362400	0.306900	0.518300
H371	H37	0.327100	0.941900	0.510800
H381	H38	0.018100	0.819100	0.286900
H391	H39	0.894400	0.015400	0.187800
H401	H40	0.090100	0.730700	0.190300
H411	H41	0.866400	0.593600	0.028800
H421	H42	0.684500	0.696200	0.127100
H431	H43	0.070300	0.112900	0.731400
H441	H44	0.981900	0.319100	0.713100
H451	H45	0.958800	0.472900	0.966300
H461	H46	0.459500	0.702200	0.633200
H471	H47	0.745300	0.384800	0.390200
H481	H48	0.979600	0.987900	0.781200
H491	H49	0.747500	0.862600	0.562900
H501	H50	0.409900	0.230700	0.690300
H511	H51	0.254700	0.884800	0.609800
H521	H52	0.642700	0.021800	0.069800
H531	H53	0.570300	0.112900	0.768600
H541	H54	0.456100	0.051600	0.453500
H551	H55	0.723200	0.601700	0.626700
H561	H56	0.020400	0.487900	0.218800
H571	H57	0.394400	0.015400	0.312200
H581	H58	0.360100	0.900900	0.090800
H591	H59	0.798700	0.057400	0.355600
H601	H60	0.627800	0.851900	0.078200
H611	H61	0.776800	0.101700	0.126700
H621	H62	0.137600	0.806900	0.018300
H631	H63	0.560900	0.042500	0.621900
H641	H64	0.872200	0.351900	0.578200
H651	H65	0.252500	0.362600	0.437100
H661	H66	0.637600	0.806900	0.481700
H671	H67	0.929700	0.612900	0.268600
H681	H68	0.939100	0.542500	0.121900
H691	H69	0.862400	0.306900	0.981700
H701	H70	0.624500	0.113500	0.449000
H711	H71	0.875500	0.613500	0.949000
H721	H72	0.286400	0.150100	0.631600
H731	H73	0.590100	0.730700	0.309700
H741	H74	0.541200	0.972900	0.466300
H751	H75	0.909900	0.230700	0.809700
H761	H76	0.540500	0.202200	0.366800
H771	H77	0.038200	0.128300	0.277100
H781	H78	0.366400	0.593600	0.471200
H791	H79	0.481900	0.319100	0.786900
H801	H80	0.105600	0.515400	0.812200
H811	H81	0.456400	0.917200	0.210300
H821	H82	0.633600	0.093600	0.528800
H831	H83	0.494900	0.708600	0.448700
H841	H84	0.201300	0.557400	0.644400
H851	H85	0.213600	0.650100	0.131600
H861	H86	0.458800	0.472900	0.533700
H871	H87	0.005100	0.208600	0.948700
H881	H88	0.315500	0.196200	0.872900
H891	H89	0.172900	0.441900	0.010800
H901	H90	0.247500	0.862600	0.937100
H911	H91	0.713600	0.650100	0.368400
H921	H92	0.956400	0.917200	0.289700
H931	H93	0.298700	0.057400	0.144400
H941	H94	0.043600	0.417200	0.710300
H951	H95	0.357300	0.521800	0.930200
H961	H96	0.405300	0.758700	0.489300
H971	H97	0.124500	0.113500	0.051000
H981	H98	0.372200	0.351900	0.921800
H991	H99	0.594700	0.258700	0.510700
H1001	H100	0.752500	0.362600	0.062900
H1011	H101	0.827100	0.941900	0.989200
H1021	H102	0.959500	0.702200	0.866800
H1031	H103	0.754700	0.884800	0.890200
H1041	H104	0.905300	0.758700	0.010700
H1051	H105	0.133600	0.093600	0.971200
H1061	H106	0.857300	0.521800	0.569800
H1071	H107	0.860100	0.900900	0.409200
H1081	H108	0.847600	0.735500	0.421700
H1091	H109	0.127800	0.851900	0.421800
H1101	H110	0.429700	0.612900	0.231400
H1111	H111	0.375500	0.613500	0.551000
H1121	H112	0.518100	0.819100	0.213100
C11	C1	0.693900	0.367400	0.888400
C21	C2	0.834300	0.877200	0.174600
C31	C3	0.698800	0.175500	0.692700
C41	C4	0.403200	0.823400	0.283200
C51	C5	0.737500	0.728300	0.150100
C61	C6	0.448900	0.977000	0.676000
C71	C7	0.534900	0.746900	0.546600
C81	C8	0.810200	0.485800	0.595600
C91	C9	0.018000	0.734300	0.882400
C101	C10	0.189800	0.985800	0.404400
C111	C11	0.767300	0.420800	0.849300
C121	C12	0.908900	0.522000	0.765700
C131	C13	0.317100	0.917500	0.612500
C141	C14	0.217100	0.718200	0.135700
C151	C15	0.188900	0.829500	0.922600
C161	C16	0.310200	0.485800	0.904400
C171	C17	0.498000	0.011000	0.617900
C181	C18	0.982000	0.234300	0.117600
C191	C19	0.046200	0.498300	0.053700
C201	C20	0.323100	0.572800	0.705800
C211	C21	0.193900	0.367400	0.611600
C221	C22	0.755700	0.523400	0.835800
C231	C23	0.749100	0.330900	0.640600
C241	C24	0.817100	0.917500	0.887500
C251	C25	0.249100	0.330900	0.859400
C261	C26	0.074900	0.923000	0.221500
C271	C27	0.051100	0.477000	0.176000
C281	C28	0.159300	0.481900	0.833300
C291	C29	0.232700	0.920800	0.150700
C301	C30	0.799000	0.769500	0.395900
C311	C31	0.676900	0.072800	0.294200
C321	C32	0.914000	0.610100	0.991900
C331	C33	0.840700	0.981900	0.166700
C341	C34	0.196500	0.179600	0.224200
C351	C35	0.383600	0.723000	0.274300
C361	C36	0.482000	0.234300	0.382400
C371	C37	0.311100	0.329500	0.422600
C381	C38	0.648300	0.870500	0.319100
C391	C39	0.806100	0.867400	0.388400
C401	C40	0.876900	0.296300	0.028300
C411	C41	0.176900	0.072800	0.205800
C421	C42	0.355800	0.266000	0.671400
C431	C43	0.623100	0.796300	0.528300
C441	C44	0.823100	0.572800	0.794200
C451	C45	0.250900	0.830900	0.359400
C461	C46	0.883600	0.723000	0.225700
C471	C47	0.182900	0.417500	0.112500
C481	C48	0.008100	0.030300	0.013900
C491	C49	0.811100	0.329500	0.077400
C501	C50	0.546200	0.498300	0.446300
C511	C51	0.998000	0.011000	0.882100
C521	C52	0.319300	0.384300	0.899000
C531	C53	0.096800	0.323400	0.783200
C541	C54	0.270900	0.033600	0.370300
C551	C55	0.551100	0.477000	0.324000
C561	C56	0.680700	0.884300	0.101000
C571	C57	0.002000	0.511000	0.117900
C581	C58	0.453800	0.998300	0.553700
C591	C59	0.086000	0.110100	0.008100
C601	C60	0.696500	0.179600	0.275800
C611	C61	0.596800	0.323400	0.716800
C621	C62	0.034900	0.746900	0.953400
C631	C63	0.334300	0.877200	0.325400
C641	C64	0.644200	0.766000	0.328600
C651	C65	0.408900	0.522000	0.734300
C661	C66	0.376900	0.296300	0.471700
C671	C67	0.586000	0.110100	0.491900
C681	C68	0.012200	0.370200	0.741600
C691	C69	0.410500	0.270000	0.335600
C701	C70	0.803500	0.679600	0.775800
C711	C71	0.688900	0.829500	0.577400
C721	C72	0.851700	0.370500	0.819100
C731	C73	0.512200	0.370200	0.758400
C741	C74	0.491900	0.530300	0.513900
C751	C75	0.144200	0.766000	0.171400
C761	C76	0.116400	0.223000	0.774300
C771	C77	0.801200	0.675500	0.192700
C781	C78	0.255700	0.523400	0.664200
C791	C79	0.682900	0.417500	0.387500
C801	C80	0.518000	0.734300	0.617600
C811	C81	0.659300	0.481900	0.666700
C821	C82	0.267300	0.420800	0.650700
C831	C83	0.689800	0.985800	0.095600
C841	C84	0.306100	0.867400	0.111600
C851	C85	0.487800	0.870200	0.241600
C861	C86	0.770900	0.033600	0.129700
C871	C87	0.925100	0.423000	0.778500
C881	C88	0.123100	0.796300	0.971700
C891	C89	0.229100	0.533600	0.870300
C901	C90	0.277900	0.568100	0.293700
C911	C91	0.465100	0.246900	0.453400
C921	C92	0.910500	0.270000	0.164400
C931	C93	0.665700	0.377200	0.674600
C941	C94	0.222100	0.068100	0.793700
C951	C95	0.165700	0.377200	0.825400
C961	C96	0.198800	0.175500	0.807300
C971	C97	0.414000	0.610100	0.508100
C981	C98	0.744300	0.023400	0.335800
C991	C99	0.965100	0.246900	0.046600
C1001	C100	0.460400	0.711200	0.493200
C1011	C101	0.717100	0.718200	0.364300
C1021	C102	0.762500	0.228300	0.650100
C1031	C103	0.639200	0.451100	0.447200
C1041	C104	0.201000	0.269500	0.604100
C1051	C105	0.722100	0.068100	0.706300
C1061	C106	0.589500	0.770000	0.664400
C1071	C107	0.819300	0.384300	0.601000
C1081	C108	0.340700	0.981900	0.333300
C1091	C109	0.244300	0.023400	0.164200
C1101	C110	0.860800	0.951100	0.947200
C1111	C111	0.991900	0.530300	0.986100
C1121	C112	0.180700	0.884300	0.399000
C1131	C113	0.508100	0.030300	0.486100
C1141	C114	0.237500	0.728300	0.349900
C1151	C115	0.360800	0.951100	0.552800
C1161	C116	0.987800	0.870200	0.258400
C1171	C117	0.782900	0.218200	0.864300
C1181	C118	0.301200	0.675500	0.307300
C1191	C119	0.262500	0.228300	0.849900
C1201	C120	0.903200	0.823400	0.216800
C1211	C121	0.701000	0.269500	0.895900
C1221	C122	0.303500	0.679600	0.724200
C1231	C123	0.591100	0.022000	0.265700
C1241	C124	0.574900	0.923000	0.278500
C1251	C125	0.351700	0.370500	0.680900
C1261	C126	0.148300	0.870500	0.180900
C1271	C127	0.139200	0.451100	0.052800
C1281	C128	0.039600	0.211200	0.993200
C1291	C129	0.750900	0.830900	0.140600
C1301	C130	0.089500	0.770000	0.835600
C1311	C131	0.960400	0.711200	0.006800
C1321	C132	0.425100	0.423000	0.721500
C1331	C133	0.953800	0.998300	0.946300
C1341	C134	0.948900	0.977000	0.824000
C1351	C135	0.616400	0.223000	0.725700
C1361	C136	0.539600	0.211200	0.506800
C1371	C137	0.732700	0.920800	0.349300
C1381	C138	0.091100	0.022000	0.234300
C1391	C139	0.282900	0.218200	0.635700
C1401	C140	0.855800	0.266000	0.828600
C1411	C141	0.729100	0.533600	0.629700
C1421	C142	0.299000	0.769500	0.104100
C1431	C143	0.777900	0.568100	0.206300
C1441	C144	0.502000	0.511000	0.382100
N11	N1	0.360400	0.929600	0.674700
N21	N2	0.674200	0.817300	0.645700
N31	N3	0.139600	0.429600	0.174700
N41	N4	0.860400	0.929600	0.825300
N51	N5	0.825800	0.317300	0.145700
N61	N6	0.174200	0.817300	0.854300
N71	N7	0.325800	0.317300	0.354300
N81	N8	0.639600	0.429600	0.325300
O11	O1	0.054200	0.171200	0.730600
O21	O2	0.707300	0.528700	0.172600
O31	O3	0.169100	0.021800	0.749600
O41	O4	0.135000	0.220000	0.266700
O51	O5	0.445800	0.671200	0.230600
O61	O6	0.830900	0.521800	0.250400
O71	O7	0.229400	0.725000	0.698500
O81	O8	0.669100	0.021800	0.750400
O91	O9	0.292700	0.028700	0.827400
O101	O10	0.945800	0.671200	0.269400
O111	O11	0.023400	0.069700	0.275400
O121	O12	0.635000	0.220000	0.233300
O131	O13	0.476600	0.569700	0.775400
O141	O14	0.330900	0.521800	0.249600
O151	O15	0.770600	0.225000	0.301500
O161	O16	0.554200	0.171200	0.769400
O171	O17	0.865000	0.720000	0.733300
O181	O18	0.207300	0.528700	0.327400
O191	O19	0.365000	0.720000	0.766700
O201	O20	0.523400	0.069700	0.224600
O211	O21	0.976600	0.569700	0.724600
O221	O22	0.729400	0.725000	0.801500
O231	O23	0.792700	0.028700	0.672600
O241	O24	0.270600	0.225000	0.198500
