data_MOFLAV_clean_PM
_symmetry_space_group_name_H-M	'P1'
_cell_length_a	15.866700
_cell_length_b	15.866700
_cell_length_c	54.081700
_cell_angle_alpha	87.376900
_cell_angle_beta	84.133900
_cell_angle_gamma	119.712000
_symmetry_Int_Tables_number 1

loop_
_symmetry_equiv_pos_as_xyz
'x,y,z'

loop_
_atom_site_label
_atom_site_type_symbol
_atom_site_fract_x
_atom_site_fract_y
_atom_site_fract_z
Cu11	Cu1	0.915340	0.683460	0.576960
Cu21	Cu2	0.139580	0.265850	0.757290
Cu31	Cu3	0.427000	0.188320	0.573260
Cu41	Cu4	0.760420	0.492300	0.923040
Cu51	Cu5	0.523140	0.896870	0.742710
Cu61	Cu6	0.261580	0.000260	0.926740
Cu71	Cu7	0.084660	0.316540	0.423040
Cu81	Cu8	0.860420	0.734150	0.242710
Cu91	Cu9	0.573000	0.811680	0.426740
Cu101	Cu10	0.239580	0.507700	0.076960
Cu111	Cu11	0.476860	0.103130	0.257290
Cu121	Cu12	0.738420	0.999740	0.073260
H11	H1	0.794000	0.636500	0.530300
H21	H2	0.016900	0.878900	0.541600
H31	H3	0.771400	0.706700	0.485100
H41	H4	0.853300	0.818100	0.475800
H51	H5	0.966000	0.751200	0.469800
H61	H6	0.867300	0.649300	0.469600
H71	H7	0.832800	0.735500	0.435300
H81	H8	0.914100	0.705800	0.427700
H91	H9	0.039000	0.869200	0.433400
H101	H10	0.955300	0.897300	0.438200
H111	H11	0.920500	0.872300	0.397400
H121	H12	0.994500	0.832100	0.392400
H131	H13	0.079200	0.983900	0.373300
H141	H14	0.123500	0.992400	0.398900
H151	H15	0.933500	0.162300	0.391000
H161	H16	0.140100	0.144700	0.419000
H171	H17	0.809800	0.456200	0.577000
H181	H18	0.047700	0.646500	0.532600
H191	H19	0.750900	0.317800	0.556100
H201	H20	0.773700	0.345900	0.526200
H211	H21	0.870500	0.276600	0.555100
H221	H22	0.906500	0.316900	0.525600
H231	H23	0.708300	0.164300	0.547000
H241	H24	0.734900	0.211300	0.518200
H251	H25	0.793800	0.091400	0.541200
H261	H26	0.871000	0.173200	0.519600
H271	H27	0.680400	0.023100	0.511900
H281	H28	0.760500	0.103100	0.490400
H291	H29	0.763900	0.944200	0.514100
H301	H30	0.860800	0.033100	0.498300
H311	H31	0.613600	0.892700	0.479300
H321	H32	0.804400	0.905000	0.426200
H331	H33	0.954400	0.519400	0.607800
H341	H34	0.841000	0.676400	0.633200
H351	H35	0.846200	0.524000	0.686200
H361	H36	0.749500	0.519100	0.678400
H371	H37	0.814400	0.637100	0.704500
H381	H38	0.820700	0.686300	0.677600
H391	H39	0.995200	0.747100	0.671100
H401	H40	0.961300	0.791400	0.693500
H411	H41	0.998800	0.632000	0.699800
H421	H42	0.955300	0.666500	0.722600
H431	H43	0.154900	0.783300	0.694800
H441	H44	0.111200	0.831000	0.714200
H451	H45	0.083800	0.707600	0.746400
H461	H46	0.135400	0.667800	0.727000
H471	H47	0.311300	0.731900	0.732000
H481	H48	0.380600	0.985900	0.756700
H491	H49	0.908800	0.199000	0.763600
H501	H50	0.092500	0.291900	0.701200
H511	H51	0.968600	0.316200	0.673400
H521	H52	0.864000	0.285100	0.688500
H531	H53	0.832800	0.117300	0.686700
H541	H54	0.923000	0.165400	0.664800
H551	H55	0.775000	0.093600	0.647200
H561	H56	0.739400	0.159300	0.661700
H571	H57	0.904000	0.228600	0.624000
H581	H58	0.886900	0.300800	0.640900
H591	H59	0.818800	0.294100	0.603700
H601	H60	0.753600	0.177400	0.609000
H611	H61	0.656400	0.185300	0.642300
H621	H62	0.730800	0.300000	0.642800
H631	H63	0.618400	0.392400	0.577400
H641	H64	0.533400	0.140100	0.613100
H651	H65	0.251400	0.968300	0.596700
H661	H66	0.376800	0.205500	0.629900
H671	H67	0.294300	0.139100	0.674200
H681	H68	0.297900	0.040000	0.678700
H691	H69	0.120300	0.949400	0.674300
H701	H70	0.142500	0.002800	0.699300
H711	H71	0.161400	0.146000	0.669400
H721	H72	0.085100	0.057200	0.655900
H731	H73	0.016800	0.118700	0.689300
H741	H74	0.043500	0.057600	0.708300
H751	H75	0.898300	0.990700	0.677600
H761	H76	0.955800	0.933200	0.677000
H771	H77	0.882900	0.864400	0.717300
H781	H78	0.811200	0.835400	0.696600
H791	H79	0.052700	0.367900	0.792200
H801	H80	0.276400	0.500300	0.738700
H811	H81	0.200600	0.205700	0.808100
H821	H82	0.374100	0.393000	0.749700
H831	H83	0.540300	0.456400	0.790900
H841	H84	0.537700	0.454000	0.761300
H851	H85	0.623700	0.376900	0.770200
H861	H86	0.550900	0.318300	0.795200
H871	H87	0.436200	0.209700	0.771700
H881	H88	0.537600	0.210100	0.767700
H891	H89	0.666800	0.324300	0.969700
H901	H90	0.920500	0.558500	0.958400
H911	H91	0.691800	0.256500	0.014900
H921	H92	0.793900	0.329100	0.024200
H931	H93	0.721000	0.435800	0.030200
H941	H94	0.618900	0.336900	0.030400
H951	H95	0.670800	0.268100	0.064700
H961	H96	0.633500	0.341800	0.072300
H971	H97	0.802600	0.472400	0.066600
H981	H98	0.835500	0.393500	0.061800
H991	H99	0.769700	0.317900	0.102600
H1001	H100	0.724500	0.386900	0.107600
H1011	H101	0.857200	0.452500	0.126700
H1021	H102	0.891300	0.522400	0.101100
H1031	H103	0.053300	0.324500	0.109000
H1041	H104	0.063700	0.559100	0.081000
H1051	H105	0.533200	0.386800	0.923000
H1061	H106	0.679100	0.580300	0.967400
H1071	H107	0.373900	0.307000	0.943900
H1081	H108	0.372100	0.299900	0.973800
H1091	H109	0.331700	0.425600	0.944900
H1101	H110	0.342500	0.432100	0.974400
H1111	H111	0.211300	0.255300	0.953000
H1121	H112	0.229500	0.253100	0.981800
H1131	H113	0.132600	0.335000	0.958800
H1141	H114	0.192800	0.390600	0.980400
H1151	H115	0.035000	0.192300	0.988100
H1161	H116	0.093500	0.250900	0.009600
H1171	H117	0.958300	0.278000	0.985900
H1181	H118	0.031400	0.359100	0.001700
H1191	H119	0.872000	0.092900	0.020700
H1201	H120	0.831200	0.230600	0.073800
H1211	H121	0.627200	0.562200	0.892200
H1221	H122	0.809600	0.474200	0.866800
H1231	H123	0.710200	0.532400	0.813800
H1241	H124	0.697500	0.427900	0.821600
H1251	H125	0.841600	0.518900	0.795500
H1261	H126	0.863900	0.498300	0.822400
H1271	H127	0.918200	0.666300	0.828900
H1281	H128	0.984900	0.654800	0.806500
H1291	H129	0.831800	0.698600	0.800200
H1301	H130	0.889100	0.677900	0.777400
H1311	H131	0.978100	0.849700	0.805200
H1321	H132	0.045200	0.825400	0.785800
H1331	H133	0.954000	0.830200	0.753600
H1341	H134	0.894800	0.862400	0.773000
H1351	H135	0.963900	0.043300	0.768000
H1361	H136	0.242600	0.137300	0.743300
H1371	H137	0.462600	0.672400	0.736400
H1381	H138	0.493100	0.793700	0.798800
H1391	H139	0.489600	0.642000	0.826600
H1401	H140	0.473600	0.552500	0.811500
H1411	H141	0.304000	0.519500	0.813300
H1421	H142	0.330200	0.587800	0.835200
H1431	H143	0.240800	0.422200	0.852800
H1441	H144	0.321000	0.401100	0.838300
H1451	H145	0.352600	0.528000	0.876000
H1461	H146	0.441700	0.527800	0.859100
H1471	H147	0.397800	0.422500	0.896300
H1481	H148	0.286400	0.362600	0.891000
H1491	H149	0.327600	0.298700	0.857700
H1501	H150	0.442800	0.373600	0.857200
H1511	H151	0.469800	0.195800	0.922600
H1521	H152	0.253200	0.146500	0.886900
H1531	H153	0.065000	0.848100	0.903300
H1541	H154	0.335400	0.006700	0.870100
H1551	H155	0.313300	0.968500	0.825800
H1561	H156	0.218700	0.976600	0.821300
H1571	H157	0.123700	0.794600	0.825700
H1581	H158	0.202100	0.841800	0.800700
H1591	H159	0.315400	0.830800	0.830600
H1601	H160	0.213100	0.741000	0.844100
H1611	H161	0.308000	0.706100	0.810700
H1621	H162	0.265900	0.751800	0.791700
H1631	H163	0.168300	0.575900	0.822400
H1641	H164	0.110200	0.632800	0.823000
H1651	H165	0.081700	0.600200	0.782700
H1661	H166	0.032000	0.507800	0.803400
H1671	H167	0.660100	0.844900	0.707800
H1681	H168	0.739000	0.015100	0.761300
H1691	H169	0.513800	0.008700	0.691900
H1701	H170	0.642700	0.123800	0.750300
H1711	H171	0.747300	0.331200	0.709100
H1721	H172	0.715300	0.299000	0.738700
H1731	H173	0.647100	0.393900	0.729800
H1741	H174	0.613500	0.346100	0.704800
H1751	H175	0.481400	0.207900	0.728300
H1761	H176	0.477800	0.305300	0.732300
H1771	H177	0.206000	0.363500	0.469700
H1781	H178	0.983100	0.121100	0.458400
H1791	H179	0.228600	0.293300	0.514900
H1801	H180	0.146700	0.181900	0.524200
H1811	H181	0.034000	0.248800	0.530200
H1821	H182	0.132700	0.350700	0.530400
H1831	H183	0.167200	0.264500	0.564700
H1841	H184	0.085900	0.294200	0.572300
H1851	H185	0.961000	0.130800	0.566600
H1861	H186	0.044700	0.102700	0.561800
H1871	H187	0.079500	0.127700	0.602600
H1881	H188	0.005500	0.167900	0.607600
H1891	H189	0.920800	0.016100	0.626700
H1901	H190	0.876500	0.007600	0.601100
H1911	H191	0.066500	0.837700	0.609000
H1921	H192	0.859900	0.855300	0.581000
H1931	H193	0.190200	0.543800	0.423000
H1941	H194	0.952300	0.353500	0.467400
H1951	H195	0.249100	0.682200	0.443900
H1961	H196	0.226300	0.654100	0.473800
H1971	H197	0.129500	0.723400	0.444900
H1981	H198	0.093500	0.683100	0.474400
H1991	H199	0.291700	0.835700	0.453000
H2001	H200	0.265100	0.788700	0.481800
H2011	H201	0.206200	0.908600	0.458800
H2021	H202	0.129000	0.826800	0.480400
H2031	H203	0.319600	0.976900	0.488100
H2041	H204	0.239500	0.896900	0.509600
H2051	H205	0.236100	0.055800	0.485900
H2061	H206	0.139200	0.966900	0.501700
H2071	H207	0.386400	0.107300	0.520700
H2081	H208	0.195600	0.095000	0.573800
H2091	H209	0.045600	0.480600	0.392200
H2101	H210	0.159000	0.323600	0.366800
H2111	H211	0.153800	0.476000	0.313800
H2121	H212	0.250500	0.480900	0.321600
H2131	H213	0.185600	0.362900	0.295500
H2141	H214	0.179300	0.313700	0.322400
H2151	H215	0.004800	0.252900	0.328900
H2161	H216	0.038700	0.208600	0.306500
H2171	H217	0.001200	0.368000	0.300200
H2181	H218	0.044700	0.333500	0.277400
H2191	H219	0.845100	0.216700	0.305200
H2201	H220	0.888800	0.169000	0.285800
H2211	H221	0.916200	0.292400	0.253600
H2221	H222	0.864600	0.332200	0.273000
H2231	H223	0.688700	0.268100	0.268000
H2241	H224	0.619400	0.014100	0.243300
H2251	H225	0.091200	0.801000	0.236400
H2261	H226	0.907500	0.708100	0.298800
H2271	H227	0.031400	0.683800	0.326600
H2281	H228	0.136000	0.714900	0.311500
H2291	H229	0.167200	0.882700	0.313300
H2301	H230	0.077000	0.834600	0.335200
H2311	H231	0.225000	0.906400	0.352800
H2321	H232	0.260600	0.840700	0.338300
H2331	H233	0.096000	0.771400	0.376000
H2341	H234	0.113100	0.699200	0.359100
H2351	H235	0.181200	0.705900	0.396300
H2361	H236	0.246400	0.822600	0.391000
H2371	H237	0.343600	0.814700	0.357700
H2381	H238	0.269200	0.700000	0.357200
H2391	H239	0.381600	0.607600	0.422600
H2401	H240	0.466600	0.859900	0.386900
H2411	H241	0.748600	0.031700	0.403300
H2421	H242	0.623200	0.794500	0.370100
H2431	H243	0.705700	0.860900	0.325800
H2441	H244	0.702100	0.960000	0.321300
H2451	H245	0.879700	0.050600	0.325700
H2461	H246	0.857500	0.997200	0.300700
H2471	H247	0.838600	0.854000	0.330600
H2481	H248	0.914900	0.942800	0.344100
H2491	H249	0.983200	0.881300	0.310700
H2501	H250	0.956500	0.942400	0.291700
H2511	H251	0.101700	0.009300	0.322400
H2521	H252	0.044200	0.066800	0.323000
H2531	H253	0.117100	0.135600	0.282700
H2541	H254	0.188800	0.164600	0.303400
H2551	H255	0.947300	0.632100	0.207800
H2561	H256	0.723600	0.499700	0.261300
H2571	H257	0.799400	0.794300	0.191900
H2581	H258	0.625900	0.607000	0.250300
H2591	H259	0.459700	0.543600	0.209100
H2601	H260	0.462300	0.546000	0.238700
H2611	H261	0.376300	0.623100	0.229800
H2621	H262	0.449100	0.681700	0.204800
H2631	H263	0.563800	0.790300	0.228300
H2641	H264	0.462400	0.789900	0.232300
H2651	H265	0.333200	0.675700	0.030300
H2661	H266	0.079500	0.441500	0.041600
H2671	H267	0.308200	0.743500	0.985100
H2681	H268	0.206100	0.670900	0.975800
H2691	H269	0.279000	0.564200	0.969800
H2701	H270	0.381100	0.663100	0.969600
H2711	H271	0.329200	0.731900	0.935300
H2721	H272	0.366500	0.658200	0.927700
H2731	H273	0.197400	0.527600	0.933400
H2741	H274	0.164500	0.606500	0.938200
H2751	H275	0.230300	0.682100	0.897400
H2761	H276	0.275500	0.613100	0.892400
H2771	H277	0.142800	0.547500	0.873300
H2781	H278	0.108700	0.477600	0.898900
H2791	H279	0.946700	0.675500	0.891000
H2801	H280	0.936300	0.440900	0.919000
H2811	H281	0.466800	0.613200	0.077000
H2821	H282	0.320900	0.419700	0.032600
H2831	H283	0.626100	0.693000	0.056100
H2841	H284	0.627900	0.700100	0.026200
H2851	H285	0.668300	0.574400	0.055100
H2861	H286	0.657500	0.567900	0.025600
H2871	H287	0.788700	0.744700	0.047000
H2881	H288	0.770500	0.746900	0.018200
H2891	H289	0.867400	0.665000	0.041200
H2901	H290	0.807200	0.609400	0.019600
H2911	H291	0.965000	0.807700	0.011900
H2921	H292	0.906500	0.749100	0.990400
H2931	H293	0.041700	0.722000	0.014100
H2941	H294	0.968600	0.640900	0.998300
H2951	H295	0.128000	0.907100	0.979300
H2961	H296	0.168800	0.769400	0.926200
H2971	H297	0.372800	0.437800	0.107800
H2981	H298	0.190400	0.525800	0.133200
H2991	H299	0.289800	0.467600	0.186200
H3001	H300	0.302500	0.572100	0.178400
H3011	H301	0.158400	0.481100	0.204500
H3021	H302	0.136100	0.501700	0.177600
H3031	H303	0.081800	0.333700	0.171100
H3041	H304	0.015100	0.345200	0.193500
H3051	H305	0.168200	0.301400	0.199800
H3061	H306	0.110900	0.322100	0.222600
H3071	H307	0.021900	0.150300	0.194800
H3081	H308	0.954800	0.174600	0.214200
H3091	H309	0.046000	0.169800	0.246400
H3101	H310	0.105200	0.137600	0.227000
H3111	H311	0.036100	0.956700	0.232000
H3121	H312	0.757400	0.862700	0.256700
H3131	H313	0.537400	0.327600	0.263600
H3141	H314	0.506900	0.206300	0.201200
H3151	H315	0.510400	0.358000	0.173400
H3161	H316	0.526400	0.447500	0.188500
H3171	H317	0.696000	0.480500	0.186700
H3181	H318	0.669800	0.412200	0.164800
H3191	H319	0.759200	0.577800	0.147200
H3201	H320	0.679000	0.598900	0.161700
H3211	H321	0.647400	0.472000	0.124000
H3221	H322	0.558300	0.472200	0.140900
H3231	H323	0.602200	0.577500	0.103700
H3241	H324	0.713600	0.637400	0.109000
H3251	H325	0.672400	0.701300	0.142300
H3261	H326	0.557200	0.626400	0.142800
H3271	H327	0.530200	0.804200	0.077400
H3281	H328	0.746800	0.853500	0.113100
H3291	H329	0.935000	0.151900	0.096700
H3301	H330	0.664600	0.993300	0.129900
H3311	H331	0.686700	0.031500	0.174200
H3321	H332	0.781300	0.023400	0.178700
H3331	H333	0.876300	0.205400	0.174300
H3341	H334	0.797900	0.158200	0.199300
H3351	H335	0.684600	0.169200	0.169400
H3361	H336	0.786900	0.259000	0.155900
H3371	H337	0.692000	0.293900	0.189300
H3381	H338	0.734100	0.248200	0.208300
H3391	H339	0.831700	0.424100	0.177600
H3401	H340	0.889800	0.367200	0.177000
H3411	H341	0.918300	0.399800	0.217300
H3421	H342	0.968000	0.492200	0.196600
H3431	H343	0.339900	0.155100	0.292200
H3441	H344	0.261000	0.984900	0.238700
H3451	H345	0.486200	0.991300	0.308100
H3461	H346	0.357300	0.876200	0.249700
H3471	H347	0.252700	0.668800	0.290900
H3481	H348	0.284700	0.701000	0.261300
H3491	H349	0.352900	0.606100	0.270200
H3501	H350	0.386500	0.653900	0.295200
H3511	H351	0.518600	0.792100	0.271700
H3521	H352	0.522200	0.694700	0.267700
C11	C1	0.847600	0.701600	0.528200
C21	C2	0.966900	0.830900	0.533600
C31	C3	0.842600	0.754600	0.483200
C41	C4	0.897700	0.721100	0.466200
C51	C5	0.898700	0.748000	0.437900
C61	C6	0.974300	0.855100	0.429200
C71	C7	0.983200	0.879500	0.401300
C81	C8	0.064200	0.980500	0.391700
C91	C9	0.977700	0.140900	0.394600
C101	C10	0.088600	0.133700	0.409700
C111	C11	0.861300	0.488500	0.563400
C121	C12	0.989900	0.587400	0.539500
C131	C13	0.802700	0.343900	0.541400
C141	C14	0.850000	0.288000	0.539200
C151	C15	0.761100	0.195600	0.532500
C161	C16	0.800200	0.131600	0.525800
C171	C17	0.751800	0.062800	0.506000
C181	C18	0.788300	0.996300	0.500000
C191	C19	0.672900	0.905500	0.469600
C201	C20	0.776200	0.914200	0.441400
C211	C21	0.924100	0.545000	0.618700
C221	C22	0.864000	0.631700	0.631700
C231	C23	0.821900	0.559800	0.676500
C241	C24	0.848800	0.653900	0.687100
C251	C25	0.956800	0.730800	0.688000
C261	C26	0.998400	0.689100	0.706300
C271	C27	0.108400	0.769400	0.710200
C281	C28	0.134600	0.727100	0.731700
C291	C29	0.309000	0.787300	0.737100
C301	C30	0.345300	0.923900	0.750800
C311	C31	0.936600	0.223200	0.746600
C321	C32	0.037300	0.271900	0.713600
C331	C33	0.913600	0.264900	0.685500
C341	C34	0.868700	0.172100	0.673200
C351	C35	0.797100	0.157000	0.653900
C361	C36	0.853900	0.238300	0.633800
C371	C37	0.782600	0.238400	0.617000
C381	C38	0.703000	0.247400	0.631800
C391	C39	0.615100	0.342700	0.588600
C401	C40	0.569200	0.207600	0.607200
C411	C41	0.269900	0.010900	0.609400
C421	C42	0.338100	0.139200	0.626700
C431	C43	0.264300	0.070200	0.670700
C441	C44	0.152800	0.013600	0.680800
C451	C45	0.109700	0.076300	0.672000
C461	C46	0.026900	0.062200	0.691300
C471	C47	0.932500	0.967900	0.688000
C481	C48	0.853300	0.889700	0.706000
C491	C49	0.106200	0.415700	0.780500
C501	C50	0.227100	0.488500	0.752200
C511	C51	0.257600	0.253100	0.797300
C521	C52	0.349900	0.354900	0.765600
C531	C53	0.515200	0.413000	0.777600
C541	C54	0.553600	0.339700	0.777500
C551	C55	0.506400	0.249400	0.764400
C561	C56	0.729800	0.375800	0.971800
C571	C57	0.864500	0.500500	0.966400
C581	C58	0.737800	0.325800	0.016800
C591	C59	0.687300	0.363900	0.033800
C601	C60	0.685900	0.336600	0.062100
C611	C61	0.784300	0.403500	0.070800
C621	C62	0.780800	0.384500	0.098700
C631	C63	0.872200	0.455900	0.108300
C641	C64	0.035500	0.372300	0.105400
C651	C65	0.043400	0.498300	0.090300
C661	C66	0.551900	0.424700	0.936600
C671	C67	0.626900	0.529400	0.960500
C681	C68	0.385300	0.344100	0.958600
C691	C69	0.327200	0.389200	0.960800
C701	C70	0.228100	0.293600	0.967500
C711	C71	0.157400	0.326000	0.974200
C721	C72	0.068800	0.257800	0.994000
C731	C73	0.996300	0.288300	0.000000
C741	C74	0.875100	0.142500	0.030400
C751	C75	0.855600	0.217600	0.058600
C761	C76	0.663700	0.542800	0.881300
C771	C77	0.763400	0.495700	0.868300
C781	C78	0.736300	0.498400	0.823500
C791	C79	0.841000	0.535900	0.812900
C801	C80	0.918800	0.644800	0.812000
C811	C81	0.895400	0.704700	0.793700
C821	C82	0.979600	0.818600	0.789800
C831	C83	0.958800	0.866300	0.768300
C841	C84	0.024400	0.046100	0.762900
C851	C85	0.174700	0.096100	0.749200
C861	C86	0.469800	0.683200	0.753400
C871	C87	0.485500	0.750900	0.786400
C881	C88	0.450400	0.599100	0.814500
C891	C89	0.345300	0.541900	0.826800
C901	C90	0.310900	0.451000	0.846100
C911	C91	0.372100	0.487700	0.866200
C921	C92	0.355400	0.399600	0.883000
C931	C93	0.379200	0.334800	0.868200
C941	C94	0.431300	0.203700	0.911400
C951	C95	0.314800	0.176400	0.892800
C961	C96	0.120300	0.879300	0.890600
C971	C97	0.265900	0.964800	0.873300
C981	C98	0.240900	0.935000	0.829300
C991	C99	0.194400	0.833600	0.819200
C1001	C100	0.248300	0.781700	0.828000
C1011	C101	0.253500	0.718200	0.808700
C1021	C102	0.155900	0.620500	0.812000
C1031	C103	0.095700	0.559300	0.794000
C1041	C104	0.696200	0.886700	0.719500
C1051	C105	0.740700	0.979300	0.747800
C1061	C106	0.550400	0.054900	0.702700
C1071	C107	0.620500	0.115500	0.734400
C1081	C108	0.690600	0.292800	0.722400
C1091	C109	0.617200	0.331100	0.722500
C1101	C110	0.513800	0.270800	0.735600
C1111	C111	0.152400	0.298400	0.471800
C1121	C112	0.033100	0.169100	0.466400
C1131	C113	0.157400	0.245400	0.516800
C1141	C114	0.102300	0.278900	0.533800
C1151	C115	0.101300	0.252000	0.562100
C1161	C116	0.025700	0.144900	0.570800
C1171	C117	0.016800	0.120500	0.598700
C1181	C118	0.935800	0.019500	0.608300
C1191	C119	0.022300	0.859100	0.605400
C1201	C120	0.911400	0.866300	0.590300
C1211	C121	0.138700	0.511500	0.436600
C1221	C122	0.010100	0.412600	0.460500
C1231	C123	0.197300	0.656100	0.458600
C1241	C124	0.150000	0.712000	0.460800
C1251	C125	0.238900	0.804400	0.467500
C1261	C126	0.199800	0.868400	0.474200
C1271	C127	0.248200	0.937200	0.494000
C1281	C128	0.211700	0.003700	0.500000
C1291	C129	0.327100	0.094500	0.530400
C1301	C130	0.223800	0.085800	0.558600
C1311	C131	0.075900	0.455000	0.381300
C1321	C132	0.136000	0.368300	0.368300
C1331	C133	0.178100	0.440200	0.323500
C1341	C134	0.151200	0.346100	0.312900
C1351	C135	0.043200	0.269200	0.312000
C1361	C136	0.001600	0.310900	0.293700
C1371	C137	0.891600	0.230600	0.289800
C1381	C138	0.865400	0.272900	0.268300
C1391	C139	0.691000	0.212700	0.262900
C1401	C140	0.654700	0.076100	0.249200
C1411	C141	0.063400	0.776800	0.253400
C1421	C142	0.962700	0.728100	0.286400
C1431	C143	0.086400	0.735100	0.314500
C1441	C144	0.131300	0.827900	0.326800
C1451	C145	0.202900	0.843000	0.346100
C1461	C146	0.146100	0.761700	0.366200
C1471	C147	0.217400	0.761600	0.383000
C1481	C148	0.297000	0.752600	0.368200
C1491	C149	0.384900	0.657300	0.411400
C1501	C150	0.430800	0.792400	0.392800
C1511	C151	0.730100	0.989100	0.390600
C1521	C152	0.661900	0.860800	0.373300
C1531	C153	0.735700	0.929800	0.329300
C1541	C154	0.847200	0.986400	0.319200
C1551	C155	0.890300	0.923700	0.328000
C1561	C156	0.973100	0.937800	0.308700
C1571	C157	0.067500	0.032100	0.312000
C1581	C158	0.146700	0.110300	0.294000
C1591	C159	0.893800	0.584300	0.219500
C1601	C160	0.772900	0.511500	0.247800
C1611	C161	0.742400	0.746900	0.202700
C1621	C162	0.650100	0.645100	0.234400
C1631	C163	0.484800	0.587000	0.222400
C1641	C164	0.446400	0.660300	0.222500
C1651	C165	0.493600	0.750600	0.235600
C1661	C166	0.270200	0.624200	0.028200
C1671	C167	0.135500	0.499500	0.033600
C1681	C168	0.262200	0.674200	0.983200
C1691	C169	0.312700	0.636100	0.966200
C1701	C170	0.314100	0.663400	0.937900
C1711	C171	0.215700	0.596500	0.929200
C1721	C172	0.219200	0.615500	0.901300
C1731	C173	0.127800	0.544100	0.891700
C1741	C174	0.964500	0.627700	0.894600
C1751	C175	0.956600	0.501700	0.909700
C1761	C176	0.448100	0.575300	0.063400
C1771	C177	0.373100	0.470600	0.039500
C1781	C178	0.614700	0.655900	0.041400
C1791	C179	0.672800	0.610800	0.039200
C1801	C180	0.771900	0.706400	0.032500
C1811	C181	0.842600	0.674000	0.025800
C1821	C182	0.931200	0.742200	0.006000
C1831	C183	0.003700	0.711700	0.000000
C1841	C184	0.124900	0.857500	0.969600
C1851	C185	0.144400	0.782400	0.941400
C1861	C186	0.336300	0.457200	0.118700
C1871	C187	0.236600	0.504300	0.131700
C1881	C188	0.263700	0.501600	0.176500
C1891	C189	0.159000	0.464100	0.187100
C1901	C190	0.081200	0.355200	0.188000
C1911	C191	0.104600	0.295300	0.206300
C1921	C192	0.020400	0.181400	0.210200
C1931	C193	0.041200	0.133700	0.231700
C1941	C194	0.975600	0.953900	0.237100
C1951	C195	0.825300	0.903900	0.250800
C1961	C196	0.530200	0.316800	0.246600
C1971	C197	0.514500	0.249100	0.213600
C1981	C198	0.549600	0.400900	0.185500
C1991	C199	0.654700	0.458100	0.173200
C2001	C200	0.689100	0.549000	0.153900
C2011	C201	0.627900	0.512300	0.133800
C2021	C202	0.644600	0.600400	0.117000
C2031	C203	0.620800	0.665200	0.131800
C2041	C204	0.568700	0.796300	0.088600
C2051	C205	0.685200	0.823600	0.107200
C2061	C206	0.879700	0.120700	0.109400
C2071	C207	0.734100	0.035200	0.126700
C2081	C208	0.759100	0.065000	0.170700
C2091	C209	0.805600	0.166400	0.180800
C2101	C210	0.751700	0.218300	0.172000
C2111	C211	0.746500	0.281800	0.191300
C2121	C212	0.844100	0.379500	0.188000
C2131	C213	0.904300	0.440700	0.206000
C2141	C214	0.303800	0.113300	0.280500
C2151	C215	0.259300	0.020700	0.252200
C2161	C216	0.449600	0.945100	0.297300
C2171	C217	0.379500	0.884500	0.265600
C2181	C218	0.309400	0.707200	0.277600
C2191	C219	0.382800	0.668900	0.277500
C2201	C220	0.486200	0.729200	0.264400
N11	N1	0.907200	0.744000	0.544800
N21	N2	0.956700	0.849400	0.511700
N31	N3	0.875500	0.765600	0.508100
N41	N4	0.969600	0.060800	0.387000
N51	N5	0.044900	0.058800	0.397100
N61	N6	0.948400	0.807600	0.592200
N71	N7	0.918000	0.578000	0.559600
N81	N8	0.962300	0.499900	0.532000
N91	N9	0.884700	0.441700	0.544600
N101	N10	0.758200	0.951000	0.476800
N111	N11	0.829200	0.961400	0.458600
N121	N12	0.321200	0.120600	0.553000
N131	N13	0.903300	0.618100	0.610600
N141	N14	0.897300	0.516500	0.642600
N151	N15	0.861400	0.573700	0.650500
N161	N16	0.250100	0.880200	0.747700
N171	N17	0.232500	0.798500	0.738400
N181	N18	0.111200	0.127900	0.755700
N191	N19	0.032500	0.249100	0.737400
N201	N20	0.889000	0.234900	0.730300
N211	N21	0.951700	0.262800	0.709500
N221	N22	0.654100	0.270000	0.613700
N231	N23	0.680500	0.358400	0.601900
N241	N24	0.539800	0.249700	0.591300
N251	N25	0.340500	0.106200	0.604900
N261	N26	0.273400	0.064600	0.643400
N271	N27	0.229800	0.983200	0.632800
N281	N28	0.217400	0.560100	0.761900
N291	N29	0.160500	0.398000	0.763300
N301	N30	0.790400	0.917800	0.721400
N311	N31	0.254700	0.292900	0.774200
N321	N32	0.345200	0.286800	0.802400
N331	N33	0.405200	0.354700	0.782300
N341	N34	0.788800	0.452000	0.955200
N351	N35	0.861100	0.468400	0.988300
N361	N36	0.773700	0.383600	0.991900
N371	N37	0.947800	0.356600	0.113000
N381	N38	0.955900	0.442000	0.102900
N391	N39	0.899800	0.540600	0.907800
N401	N40	0.637600	0.477600	0.940400
N411	N41	0.531900	0.494300	0.968000
N421	N42	0.486300	0.429300	0.955400
N431	N43	0.927800	0.235000	0.023200
N441	N44	0.920000	0.287800	0.041400
N451	N45	0.173600	0.874200	0.947000
N461	N46	0.728700	0.513900	0.889400
N471	N47	0.659100	0.539900	0.857400
N481	N48	0.724200	0.511900	0.849500
N491	N49	0.127900	0.997800	0.752300
N501	N50	0.036900	0.970900	0.761600
N511	N51	0.383600	0.866900	0.744300
N521	N52	0.486500	0.769900	0.762600
N531	N53	0.465200	0.619300	0.769700
N541	N54	0.472300	0.661200	0.790500
N551	N55	0.383700	0.267800	0.886300
N561	N56	0.460300	0.282400	0.898100
N571	N57	0.341000	0.131100	0.908700
N581	N58	0.211100	0.945400	0.895100
N591	N59	0.208000	0.916800	0.856600
N601	N60	0.116000	0.862600	0.867200
N611	N61	0.822000	0.979300	0.738100
N621	N62	0.661300	0.923800	0.736700
N631	N63	0.139200	0.511800	0.778600
N641	N64	0.567100	0.028900	0.725800
N651	N65	0.589200	0.147600	0.697600
N661	N66	0.637000	0.187500	0.717700
N671	N67	0.092800	0.256000	0.455200
N681	N68	0.043300	0.150600	0.488300
N691	N69	0.124500	0.234400	0.491900
N701	N70	0.030400	0.939200	0.613000
N711	N71	0.955100	0.941200	0.602900
N721	N72	0.051600	0.192400	0.407800
N731	N73	0.082000	0.422000	0.440400
N741	N74	0.037700	0.500100	0.468000
N751	N75	0.115300	0.558300	0.455400
N761	N76	0.241800	0.049000	0.523200
N771	N77	0.170800	0.038600	0.541400
N781	N78	0.678800	0.879400	0.447000
N791	N79	0.096700	0.381900	0.389400
N801	N80	0.102700	0.483500	0.357400
N811	N81	0.138600	0.426300	0.349500
N821	N82	0.749900	0.119800	0.252300
N831	N83	0.767500	0.201500	0.261600
N841	N84	0.888800	0.872100	0.244300
N851	N85	0.967500	0.750900	0.262600
N861	N86	0.111000	0.765100	0.269700
N871	N87	0.048300	0.737200	0.290500
N881	N88	0.345900	0.730000	0.386300
N891	N89	0.319500	0.641600	0.398100
N901	N90	0.460200	0.750300	0.408700
N911	N91	0.659500	0.893800	0.395100
N921	N92	0.726600	0.935400	0.356600
N931	N93	0.770200	0.016800	0.367200
N941	N94	0.782600	0.439900	0.238100
N951	N95	0.839500	0.602000	0.236700
N961	N96	0.209600	0.082200	0.278600
N971	N97	0.745300	0.707100	0.225800
N981	N98	0.654800	0.713200	0.197600
N991	N99	0.594800	0.645300	0.217700
N1001	N100	0.211200	0.548000	0.044800
N1011	N101	0.138900	0.531600	0.011700
N1021	N102	0.226300	0.616400	0.008100
N1031	N103	0.052200	0.643400	0.887000
N1041	N104	0.044100	0.558000	0.897100
N1051	N105	0.100200	0.459400	0.092200
N1061	N106	0.362400	0.522400	0.059600
N1071	N107	0.468100	0.505700	0.032000
N1081	N108	0.513700	0.570700	0.044600
N1091	N109	0.072200	0.765000	0.976800
N1101	N110	0.080000	0.712200	0.958600
N1111	N111	0.826400	0.125800	0.053000
N1121	N112	0.271300	0.486100	0.110600
N1131	N113	0.340900	0.460100	0.142600
N1141	N114	0.275800	0.488100	0.150500
N1151	N115	0.872100	0.002200	0.247700
N1161	N116	0.963100	0.029100	0.238400
N1171	N117	0.616400	0.133100	0.255700
N1181	N118	0.513500	0.230100	0.237400
N1191	N119	0.534800	0.380700	0.230300
N1201	N120	0.527700	0.338800	0.209500
N1211	N121	0.616300	0.732200	0.113700
N1221	N122	0.539700	0.717600	0.101900
N1231	N123	0.659000	0.868900	0.091300
N1241	N124	0.788900	0.054600	0.104900
N1251	N125	0.792000	0.083200	0.143400
N1261	N126	0.884000	0.137400	0.132800
N1271	N127	0.178000	0.020700	0.261900
N1281	N128	0.338700	0.076200	0.263300
N1291	N129	0.860800	0.488200	0.221400
N1301	N130	0.432900	0.971100	0.274200
N1311	N131	0.410800	0.852400	0.302400
N1321	N132	0.363000	0.812500	0.282300
