data_MOFPEE_clean_PM
_symmetry_space_group_name_H-M	'P1'
_cell_length_a	9.790400
_cell_length_b	14.028700
_cell_length_c	11.865100
_cell_angle_alpha	90.000000
_cell_angle_beta	104.690000
_cell_angle_gamma	90.000000
_symmetry_Int_Tables_number 1

loop_
_symmetry_equiv_pos_as_xyz
'x,y,z'

loop_
_atom_site_label
_atom_site_type_symbol
_atom_site_fract_x
_atom_site_fract_y
_atom_site_fract_z
Zn11	Zn1	0.370700	0.387790	0.141860
Zn21	Zn2	0.586730	0.385010	0.451580
Zn31	Zn3	0.996610	0.544730	0.828420
P11	P1	0.096550	0.349710	0.928530
P21	P2	0.702300	0.502890	0.661610
P31	P3	0.690870	0.445870	0.219370
O11	O1	0.695300	0.401100	0.612800
O21	O2	0.857000	0.541600	0.675800
O31	O3	0.001500	0.417600	0.884800
O41	O4	0.674400	0.500600	0.781800
O51	O5	0.254100	0.376900	0.983800
O61	O6	0.605400	0.568900	0.578100
O71	O7	0.068600	0.250700	0.913800
O81	O8	0.688900	0.435900	0.344800
O91	O9	0.567200	0.396600	0.134500
O101	O10	0.680000	0.555500	0.194900
O111	O11	0.826800	0.409400	0.196200
O121	O12	0.069000	0.351700	0.089200
H11	H1	0.693700	0.568200	0.123900
Zn41	Zn4	0.129300	0.887790	0.358140
Zn51	Zn5	0.913270	0.885010	0.048420
Zn61	Zn6	0.503390	0.044730	0.671580
P41	P4	0.403450	0.849710	0.571470
P51	P5	0.797700	0.002890	0.838390
P61	P6	0.809130	0.945870	0.280630
O131	O13	0.804700	0.901100	0.887200
O141	O14	0.643000	0.041600	0.824200
O151	O15	0.498500	0.917600	0.615200
O161	O16	0.825600	0.000600	0.718200
O171	O17	0.245900	0.876900	0.516200
O181	O18	0.894600	0.068900	0.921900
O191	O19	0.431400	0.750700	0.586200
O201	O20	0.811100	0.935900	0.155200
O211	O21	0.932800	0.896600	0.365500
O221	O22	0.820000	0.055500	0.305100
O231	O23	0.673200	0.909400	0.303800
O241	O24	0.431000	0.851700	0.410800
H21	H2	0.806300	0.068200	0.376100
Zn71	Zn7	0.629300	0.612210	0.858140
Zn81	Zn8	0.413270	0.614990	0.548420
Zn91	Zn9	0.003390	0.455270	0.171580
P71	P7	0.903450	0.650290	0.071470
P81	P8	0.297700	0.497110	0.338390
P91	P9	0.309130	0.554130	0.780630
O251	O25	0.304700	0.598900	0.387200
O261	O26	0.143000	0.458400	0.324200
O271	O27	0.998500	0.582400	0.115200
O281	O28	0.325600	0.499400	0.218200
O291	O29	0.745900	0.623100	0.016200
O301	O30	0.394600	0.431100	0.421900
O311	O31	0.931400	0.749300	0.086200
O321	O32	0.311100	0.564100	0.655200
O331	O33	0.432800	0.603400	0.865500
O341	O34	0.320000	0.444500	0.805100
O351	O35	0.173200	0.590600	0.803800
O361	O36	0.931000	0.648300	0.910800
H31	H3	0.306300	0.431800	0.876100
Zn101	Zn10	0.870700	0.112210	0.641860
Zn111	Zn11	0.086730	0.114990	0.951580
Zn121	Zn12	0.496610	0.955270	0.328420
P101	P10	0.596550	0.150290	0.428530
P111	P11	0.202300	0.997110	0.161610
P121	P12	0.190870	0.054130	0.719370
O371	O37	0.195300	0.098900	0.112800
O381	O38	0.357000	0.958400	0.175800
O391	O39	0.501500	0.082400	0.384800
O401	O40	0.174400	0.999400	0.281800
O411	O41	0.754100	0.123100	0.483800
O421	O42	0.105400	0.931100	0.078100
O431	O43	0.568600	0.249300	0.413800
O441	O44	0.188900	0.064100	0.844800
O451	O45	0.067200	0.103400	0.634500
O461	O46	0.180000	0.944500	0.694900
O471	O47	0.326800	0.090600	0.696200
O481	O48	0.569000	0.148300	0.589200
H41	H4	0.193700	0.931800	0.623900
