data_MOGVAG_clean_PM
_symmetry_space_group_name_H-M	'P1'
_cell_length_a	7.426700
_cell_length_b	12.908200
_cell_length_c	12.908200
_cell_angle_alpha	92.145100
_cell_angle_beta	94.534400
_cell_angle_gamma	85.465600
_symmetry_Int_Tables_number 1

loop_
_symmetry_equiv_pos_as_xyz
'x,y,z'

loop_
_atom_site_label
_atom_site_type_symbol
_atom_site_fract_x
_atom_site_fract_y
_atom_site_fract_z
Zn11	Zn1	0.722330	0.389860	0.787000
Zn21	Zn2	0.277670	0.787000	0.389860
Zn31	Zn3	0.277670	0.610140	0.213000
Zn41	Zn4	0.722330	0.213000	0.610140
Zn51	Zn5	0.500000	0.845530	0.845530
Zn61	Zn6	0.500000	0.154470	0.154470
Zn71	Zn7	0.000000	0.820750	0.820750
Zn81	Zn8	0.000000	0.179250	0.179250
H11	H1	0.058200	0.504000	0.731200
H21	H2	0.115700	0.608400	0.736600
H31	H3	0.938400	0.738200	0.130600
H41	H4	0.868500	0.788800	0.036600
H51	H5	0.502900	0.593500	0.835900
H61	H6	0.513100	0.692200	0.045000
H71	H7	0.941800	0.731200	0.504000
H81	H8	0.884300	0.736600	0.608400
H91	H9	0.061600	0.130600	0.738200
H101	H10	0.131500	0.036600	0.788800
H111	H11	0.497100	0.835900	0.593500
H121	H12	0.486900	0.045000	0.692200
H131	H13	0.941800	0.496000	0.268800
H141	H14	0.884300	0.391600	0.263400
H151	H15	0.061600	0.261800	0.869400
H161	H16	0.131500	0.211200	0.963400
H171	H17	0.497100	0.406500	0.164100
H181	H18	0.486900	0.307800	0.955000
H191	H19	0.058200	0.268800	0.496000
H201	H20	0.115700	0.263400	0.391600
H211	H21	0.938400	0.869400	0.261800
H221	H22	0.868500	0.963400	0.211200
H231	H23	0.502900	0.164100	0.406500
H241	H24	0.513100	0.955000	0.307800
H251	H25	0.896000	0.354700	0.645300
H261	H26	0.104000	0.645300	0.354700
C11	C1	0.618100	0.611270	0.823650
C21	C2	0.892400	0.599740	0.789100
C31	C3	0.392300	0.713600	0.027660
C41	C4	0.108000	0.739090	0.033590
C51	C5	0.381900	0.823650	0.611270
C61	C6	0.107600	0.789100	0.599740
C71	C7	0.607700	0.027660	0.713600
C81	C8	0.892000	0.033590	0.739090
C91	C9	0.381900	0.388730	0.176350
C101	C10	0.107600	0.400260	0.210900
C111	C11	0.607700	0.286400	0.972340
C121	C12	0.892000	0.260910	0.966410
C131	C13	0.618100	0.176350	0.388730
C141	C14	0.892400	0.210900	0.400260
C151	C15	0.392300	0.972340	0.286400
C161	C16	0.108000	0.966410	0.260910
C171	C17	0.590200	0.974030	0.025970
C181	C18	0.409800	0.025970	0.974030
S11	S1	0.351880	0.314890	0.685110
S21	S2	0.648120	0.685110	0.314890
N11	N1	0.663000	0.706910	0.824810
N21	N2	0.842900	0.700330	0.801610
N31	N3	0.756000	0.540160	0.802880
N41	N4	0.064000	0.561650	0.770050
N51	N5	0.337700	0.765650	0.944790
N61	N6	0.150500	0.783570	0.948430
N71	N7	0.256300	0.693930	0.085570
N81	N8	0.936600	0.735320	0.062160
N91	N9	0.337000	0.824810	0.706910
N101	N10	0.157100	0.801610	0.700330
N111	N11	0.244000	0.802880	0.540160
N121	N12	0.936000	0.770050	0.561650
N131	N13	0.662300	0.944790	0.765650
N141	N14	0.849500	0.948430	0.783570
N151	N15	0.743700	0.085570	0.693930
N161	N16	0.063400	0.062160	0.735320
N171	N17	0.337000	0.293090	0.175190
N181	N18	0.157100	0.299670	0.198390
N191	N19	0.244000	0.459840	0.197120
N201	N20	0.936000	0.438350	0.229950
N211	N21	0.662300	0.234350	0.055210
N221	N22	0.849500	0.216430	0.051570
N231	N23	0.743700	0.306070	0.914430
N241	N24	0.063400	0.264680	0.937840
N251	N25	0.663000	0.175190	0.293090
N261	N26	0.842900	0.198390	0.299670
N271	N27	0.756000	0.197120	0.459840
N281	N28	0.064000	0.229950	0.438350
N291	N29	0.337700	0.055210	0.234350
N301	N30	0.150500	0.051570	0.216430
N311	N31	0.256300	0.914430	0.306070
N321	N32	0.936600	0.937840	0.264680
O11	O1	0.461800	0.394530	0.740270
O21	O2	0.656100	0.892610	0.982570
O31	O3	0.538200	0.740270	0.394530
O41	O4	0.343900	0.982570	0.892610
O51	O5	0.538200	0.605470	0.259730
O61	O6	0.343900	0.107390	0.017430
O71	O7	0.461800	0.259730	0.605470
O81	O8	0.656100	0.017430	0.107390
O91	O9	0.192000	0.368480	0.631520
O101	O10	0.302000	0.241760	0.758240
O111	O11	0.860100	0.312910	0.687090
O121	O12	0.808000	0.631520	0.368480
O131	O13	0.698000	0.758240	0.241760
O141	O14	0.139900	0.687090	0.312910
