data_MOHSEJ_clean_PM
_symmetry_space_group_name_H-M	'P1'
_cell_length_a	16.824300
_cell_length_b	18.109400
_cell_length_c	17.267200
_cell_angle_alpha	110.957000
_cell_angle_beta	90.000000
_cell_angle_gamma	90.000000
_symmetry_Int_Tables_number 1

loop_
_symmetry_equiv_pos_as_xyz
'x,y,z'

loop_
_atom_site_label
_atom_site_type_symbol
_atom_site_fract_x
_atom_site_fract_y
_atom_site_fract_z
Co11	Co1	0.329870	0.149950	0.427740
Co21	Co2	0.317340	0.841470	0.504180
Co31	Co3	0.899710	0.675820	0.294370
Co41	Co4	0.399710	0.324180	0.205630
Co51	Co5	0.258480	0.596070	0.660360
Co61	Co6	0.600290	0.675820	0.794370
Co71	Co7	0.182660	0.841470	0.004180
Co81	Co8	0.741520	0.403930	0.339640
Co91	Co9	0.758480	0.403930	0.839640
Co101	Co10	0.170130	0.149950	0.927740
Co111	Co11	0.817340	0.158530	0.995820
Co121	Co12	0.241520	0.596070	0.160360
Co131	Co13	0.682660	0.158530	0.495820
Co141	Co14	0.500000	0.000000	0.000000
Co151	Co15	0.829870	0.850050	0.072260
Co161	Co16	0.670130	0.850050	0.572260
Co171	Co17	0.000000	0.000000	0.500000
Co181	Co18	0.100290	0.324180	0.705630
H11	H1	0.715000	0.375000	0.137000
H21	H2	0.780000	0.568000	0.624000
H31	H3	0.005000	0.091000	0.842000
H41	H4	0.115000	0.743000	0.234000
H51	H5	0.298000	0.298000	0.969000
H61	H6	0.615000	0.257000	0.266000
H71	H7	0.285000	0.625000	0.863000
H81	H8	0.220000	0.432000	0.376000
H91	H9	0.192000	0.038000	0.489000
H101	H10	0.202000	0.298000	0.469000
H111	H11	0.385000	0.743000	0.734000
H121	H12	0.308000	0.038000	0.989000
H131	H13	0.720000	0.568000	0.124000
H141	H14	0.495000	0.091000	0.342000
H151	H15	0.215000	0.625000	0.363000
H161	H16	0.702000	0.702000	0.031000
H171	H17	0.280000	0.432000	0.876000
H181	H18	0.798000	0.702000	0.531000
H191	H19	0.808000	0.962000	0.511000
H201	H20	0.995000	0.909000	0.158000
H211	H21	0.505000	0.909000	0.658000
H221	H22	0.785000	0.375000	0.637000
H231	H23	0.692000	0.962000	0.011000
H241	H24	0.885000	0.257000	0.766000
C11	C1	0.395700	0.918100	0.664800
C21	C2	0.777400	0.556900	0.209400
C31	C3	0.400400	0.326200	0.037200
C41	C4	0.795300	0.657300	0.151600
C51	C5	0.789700	0.742500	0.435300
C61	C6	0.204700	0.342700	0.848400
C71	C7	0.265500	0.716400	0.348800
C81	C8	0.970800	0.211400	0.695600
C91	C9	0.563200	0.345000	0.275600
C101	C10	0.823000	0.059200	0.490700
C111	C11	0.099600	0.326200	0.537200
C121	C12	0.470800	0.788600	0.804400
C131	C13	0.529200	0.211400	0.195600
C141	C14	0.604300	0.081900	0.335200
C151	C15	0.754900	0.318600	0.031200
C161	C16	0.323000	0.940800	0.009300
C171	C17	0.254900	0.681400	0.468800
C181	C18	0.289700	0.257500	0.064700
C191	C19	0.599600	0.673800	0.962800
C201	C20	0.895700	0.081900	0.835200
C211	C21	0.177000	0.940800	0.509300
C221	C22	0.482600	0.841700	0.556400
C231	C23	0.063200	0.655000	0.224400
C241	C24	0.436800	0.655000	0.724400
C251	C25	0.222600	0.443100	0.790600
C261	C26	0.295300	0.342700	0.348400
C271	C27	0.745100	0.318600	0.531200
C281	C28	0.798200	0.007900	0.024900
C291	C29	0.234500	0.716400	0.848800
C301	C30	0.900400	0.673800	0.462800
C311	C31	0.017400	0.841700	0.056400
C321	C32	0.765500	0.283600	0.151200
C331	C33	0.245100	0.681400	0.968800
C341	C34	0.277400	0.443100	0.290600
C351	C35	0.936800	0.345000	0.775600
C361	C36	0.201800	0.992100	0.975100
C371	C37	0.710300	0.742500	0.935300
C381	C38	0.704700	0.657300	0.651600
C391	C39	0.517400	0.158300	0.443600
C401	C40	0.722600	0.556900	0.709400
C411	C41	0.677000	0.059200	0.990700
C421	C42	0.298200	0.992100	0.475100
C431	C43	0.029200	0.788600	0.304400
C441	C44	0.701800	0.007900	0.524900
C451	C45	0.104300	0.918100	0.164800
C461	C46	0.210300	0.257500	0.564700
C471	C47	0.734500	0.283600	0.651200
C481	C48	0.982600	0.158300	0.943600
N11	N1	0.663000	0.581100	0.764500
N21	N2	0.757500	0.773100	0.330300
N31	N3	0.697300	0.024100	0.255300
N41	N4	0.726900	0.788700	0.458000
N51	N5	0.337000	0.418900	0.235500
N61	N6	0.511400	0.383600	0.032000
N71	N7	0.802000	0.269400	0.907700
N81	N8	0.736100	0.300800	0.733000
N91	N9	0.223600	0.516700	0.720000
N101	N10	0.242500	0.226900	0.669700
N111	N11	0.757800	0.372300	0.497100
N121	N12	0.773400	0.339300	0.920300
N131	N13	0.210010	0.745900	0.022000
N141	N14	0.958200	0.772900	0.327700
N151	N15	0.837000	0.581100	0.264500
N161	N16	0.698000	0.215300	0.612300
N171	N17	0.084000	0.012100	0.940400
N181	N18	0.030600	0.891700	0.135300
N191	N19	0.540500	0.763000	0.449500
N201	N20	0.075000	0.733900	0.245400
N211	N21	0.340500	0.042500	0.451800
N221	N22	0.493500	0.376300	0.264700
N231	N23	0.562300	0.660200	0.891900
N241	N24	0.175200	0.811200	0.826800
N251	N25	0.829200	0.709700	0.484800
N261	N26	0.827600	0.755300	0.119500
N271	N27	0.040500	0.237000	0.050500
N281	N28	0.273100	0.211300	0.542000
N291	N29	0.449500	0.862500	0.844800
N301	N30	0.166100	0.466800	0.690600
N311	N31	0.541800	0.772900	0.827700
N321	N32	0.276400	0.516700	0.220000
N331	N33	0.218900	0.998700	0.491500
N341	N34	0.198000	0.730600	0.092300
N351	N35	0.257800	0.627700	0.002900
N361	N36	0.659500	0.957500	0.548200
N371	N37	0.802000	0.215300	0.112300
N381	N38	0.707900	0.807000	0.390300
N391	N39	0.494500	0.544400	0.707800
N401	N40	0.207900	0.193000	0.109700
N411	N41	0.257100	0.408300	0.345600
N421	N42	0.899600	0.055600	0.474400
N431	N43	0.773100	0.788700	0.958000
N441	N44	0.833900	0.533200	0.309400
N451	N45	0.729300	0.063200	0.327500
N461	N46	0.666100	0.533200	0.809400
N471	N47	0.236100	0.699200	0.767000
N481	N48	0.006500	0.376300	0.764700
N491	N49	0.768100	0.329300	0.611100
N501	N50	0.675200	0.188800	0.673200
N511	N51	0.844000	0.065700	0.018900
N521	N52	0.672400	0.755300	0.619500
N531	N53	0.329900	0.899300	0.620500
N541	N54	0.459500	0.237000	0.550500
N551	N55	0.050500	0.862500	0.344800
N561	N56	0.465700	0.761200	0.433300
N571	N57	0.427000	0.811600	0.499900
N581	N58	0.530600	0.108300	0.364700
N591	N59	0.698000	0.269400	0.407700
N601	N60	0.556100	0.646900	0.011100
N611	N61	0.302000	0.730600	0.592300
N621	N62	0.600400	0.055600	0.974400
N631	N63	0.302300	0.760700	0.256300
N641	N64	0.148000	0.835500	0.532000
N651	N65	0.781100	0.001300	0.508500
N661	N66	0.506500	0.623700	0.735300
N671	N67	0.274700	0.304500	0.398200
N681	N68	0.575000	0.266100	0.254600
N691	N69	0.172400	0.244700	0.880500
N701	N70	0.062300	0.339800	0.608100
N711	N71	0.584000	0.987900	0.559600
N721	N72	0.011400	0.616400	0.468000
N731	N73	0.723600	0.483300	0.780000
N741	N74	0.273400	0.660700	0.579700
N751	N75	0.945700	0.814600	0.027300
N761	N76	0.567100	0.839700	0.887800
N771	N77	0.056100	0.353100	0.488900
N781	N78	0.270700	0.936800	0.672500
N791	N79	0.170100	0.899300	0.120500
N801	N80	0.789990	0.254100	0.978000
N811	N81	0.791000	0.125600	0.488100
N821	N82	0.081400	0.948100	0.957500
N831	N83	0.225300	0.304500	0.898200
N841	N84	0.418600	0.948100	0.457500
N851	N85	0.710010	0.254100	0.478000
N861	N86	0.742200	0.372300	0.997100
N871	N87	0.792100	0.807000	0.890300
N881	N88	0.937700	0.660200	0.391900
N891	N89	0.073000	0.811600	0.999900
N901	N90	0.916000	0.987900	0.059600
N911	N91	0.310100	0.268800	0.142900
N921	N92	0.642200	0.691400	0.698100
N931	N93	0.656000	0.065700	0.518900
N941	N94	0.226900	0.211300	0.042000
N951	N95	0.949500	0.137500	0.655200
N961	N96	0.965700	0.238800	0.066700
N971	N97	0.987800	0.891500	0.396900
N981	N98	0.840500	0.957500	0.048200
N991	N99	0.988600	0.383600	0.532000
N1001	N100	0.324800	0.811200	0.326800
N1011	N101	0.458200	0.227100	0.172300
N1021	N102	0.189900	0.268800	0.642900
N1031	N103	0.726600	0.339300	0.420300
N1041	N104	0.116600	0.599000	0.191900
N1051	N105	0.159500	0.042500	0.951800
N1061	N106	0.352000	0.835500	0.032000
N1071	N107	0.776400	0.483300	0.280000
N1081	N108	0.616600	0.401000	0.308100
N1091	N109	0.731900	0.329300	0.111100
N1101	N110	0.231900	0.670700	0.388900
N1111	N111	0.824800	0.188800	0.173200
N1121	N112	0.156000	0.934300	0.981100
N1131	N113	0.344000	0.934300	0.481100
N1141	N114	0.857800	0.691400	0.198100
N1151	N115	0.469400	0.891700	0.635300
N1161	N116	0.077500	0.529800	0.181500
N1171	N117	0.333900	0.466800	0.190600
N1181	N118	0.226600	0.660700	0.079700
N1191	N119	0.763900	0.300800	0.233000
N1201	N120	0.925000	0.266100	0.754600
N1211	N121	0.670800	0.709700	0.984800
N1221	N122	0.993500	0.623700	0.235300
N1231	N123	0.122300	0.245600	0.823500
N1241	N124	0.041800	0.227100	0.672300
N1251	N125	0.302000	0.784700	0.387700
N1261	N126	0.994500	0.455600	0.792200
N1271	N127	0.725300	0.695500	0.601800
N1281	N128	0.488600	0.616400	0.968000
N1291	N129	0.581400	0.051900	0.542500
N1301	N130	0.117500	0.965700	0.243000
N1311	N131	0.422500	0.529800	0.681500
N1321	N132	0.291000	0.874400	0.011900
N1331	N133	0.281100	0.998700	0.991500
N1341	N134	0.761800	0.496000	0.716300
N1351	N135	0.007600	0.623800	0.396200
N1361	N136	0.505500	0.455600	0.292200
N1371	N137	0.257500	0.226900	0.169700
N1381	N138	0.292100	0.193000	0.609700
N1391	N139	0.883400	0.401000	0.808100
N1401	N140	0.329200	0.290300	0.015200
N1411	N141	0.802700	0.024100	0.755300
N1421	N142	0.922500	0.470200	0.818500
N1431	N143	0.738200	0.496000	0.216300
N1441	N144	0.918600	0.051900	0.042500
N1451	N145	0.534300	0.238800	0.566700
N1461	N146	0.242900	0.408300	0.845600
N1471	N147	0.443900	0.353100	0.988900
N1481	N148	0.697700	0.239300	0.743700
N1491	N149	0.084200	0.875700	0.538800
N1501	N150	0.067100	0.160300	0.612200
N1511	N151	0.377700	0.245600	0.323500
N1521	N152	0.229300	0.936800	0.172500
N1531	N153	0.012200	0.108500	0.603100
N1541	N154	0.992400	0.376200	0.603800
N1551	N155	0.617500	0.034300	0.257000
N1561	N156	0.915800	0.124300	0.461200
N1571	N157	0.577500	0.470200	0.318500
N1581	N158	0.689900	0.731200	0.857100
N1591	N159	0.100400	0.944400	0.525600
N1601	N160	0.554300	0.814600	0.527300
N1611	N161	0.399600	0.944400	0.025600
N1621	N162	0.512200	0.891500	0.896900
N1631	N163	0.382500	0.965700	0.743000
N1641	N164	0.969400	0.108300	0.864700
N1651	N165	0.852000	0.164500	0.468000
N1661	N166	0.742500	0.773100	0.830300
N1671	N167	0.268100	0.670700	0.888900
N1681	N168	0.432900	0.160300	0.112200
N1691	N169	0.242200	0.627700	0.502900
N1701	N170	0.142200	0.308600	0.801900
N1711	N171	0.437700	0.339800	0.108100
N1721	N172	0.197300	0.975900	0.244700
N1731	N173	0.670100	0.100700	0.379500
N1741	N174	0.054300	0.185400	0.972700
N1751	N175	0.445700	0.185400	0.472700
N1761	N176	0.327600	0.244700	0.380500
N1771	N177	0.709000	0.125600	0.988100
N1781	N178	0.492400	0.623800	0.896200
N1791	N179	0.757100	0.591700	0.154400
N1801	N180	0.770700	0.063200	0.827500
N1811	N181	0.959500	0.763000	0.949500
N1821	N182	0.197700	0.760700	0.756300
N1831	N183	0.648000	0.164500	0.968000
N1841	N184	0.383400	0.599000	0.691900
N1851	N185	0.550500	0.137500	0.155200
N1861	N186	0.927000	0.188400	0.000100
N1871	N187	0.882500	0.034300	0.757000
N1881	N188	0.209000	0.874400	0.511900
N1891	N189	0.238200	0.504000	0.283700
N1901	N190	0.932900	0.839700	0.387800
N1911	N191	0.877700	0.754400	0.176500
N1921	N192	0.034300	0.761200	0.933300
N1931	N193	0.573000	0.188400	0.500100
N1941	N194	0.302700	0.975900	0.744700
N1951	N195	0.425000	0.733900	0.745400
N1961	N196	0.357800	0.308600	0.301900
N1971	N197	0.170800	0.290300	0.515200
N1981	N198	0.261800	0.504000	0.783700
N1991	N199	0.163000	0.418900	0.735500
N2001	N200	0.487800	0.108500	0.103100
N2011	N201	0.289990	0.745900	0.522000
N2021	N202	0.416000	0.012100	0.440400
N2031	N203	0.943900	0.646900	0.511100
N2041	N204	0.507600	0.376200	0.103800
N2051	N205	0.198000	0.784700	0.887700
N2061	N206	0.802300	0.239300	0.243700
N2071	N207	0.810100	0.731200	0.357100
N2081	N208	0.415800	0.875700	0.038800
N2091	N209	0.829900	0.100700	0.879500
N2101	N210	0.263900	0.699200	0.267000
N2111	N211	0.742900	0.591700	0.654400
N2121	N212	0.718900	0.001300	0.008500
N2131	N213	0.622300	0.754400	0.676500
N2141	N214	0.584200	0.124300	0.961200
N2151	N215	0.005500	0.544400	0.207800
N2161	N216	0.774700	0.695500	0.101800
