data_MOJJUR_clean_PM
_symmetry_space_group_name_H-M	'P1'
_cell_length_a	12.348000
_cell_length_b	14.802000
_cell_length_c	15.877900
_cell_angle_alpha	90.000000
_cell_angle_beta	107.931000
_cell_angle_gamma	90.000000
_symmetry_Int_Tables_number 1

loop_
_symmetry_equiv_pos_as_xyz
'x,y,z'

loop_
_atom_site_label
_atom_site_type_symbol
_atom_site_fract_x
_atom_site_fract_y
_atom_site_fract_z
Mn11	Mn1	0.318380	0.080400	0.796170
Mn21	Mn2	0.169790	0.078370	0.202240
Mn31	Mn3	0.181620	0.580400	0.703830
Mn41	Mn4	0.330210	0.578370	0.297760
Mn51	Mn5	0.681620	0.919600	0.203830
Mn61	Mn6	0.830210	0.921630	0.797760
Mn71	Mn7	0.818380	0.419600	0.296170
Mn81	Mn8	0.669790	0.421630	0.702240
Nb11	Nb1	0.745440	0.208210	0.998550
Nb21	Nb2	0.754560	0.708210	0.501450
Nb31	Nb3	0.254560	0.791790	0.001450
Nb41	Nb4	0.245440	0.291790	0.498550
H11	H1	0.024000	0.162800	0.946600
H21	H2	0.382700	0.310800	0.074000
H31	H3	0.112600	0.240800	0.746400
H41	H4	0.969700	0.264000	0.821400
H51	H5	0.185900	0.080000	0.948400
H61	H6	0.395200	0.057600	0.127800
H71	H7	0.486400	0.171500	0.066600
H81	H8	0.230400	0.278800	0.131500
H91	H9	0.476000	0.662800	0.553400
H101	H10	0.117300	0.810800	0.426000
H111	H11	0.387400	0.740800	0.753600
H121	H12	0.530300	0.764000	0.678600
H131	H13	0.314100	0.580000	0.551600
H141	H14	0.104800	0.557600	0.372200
H151	H15	0.013600	0.671500	0.433400
H161	H16	0.269600	0.778800	0.368500
H171	H17	0.976000	0.837200	0.053400
H181	H18	0.617300	0.689200	0.926000
H191	H19	0.887400	0.759200	0.253600
H201	H20	0.030300	0.736000	0.178600
H211	H21	0.814100	0.920000	0.051600
H221	H22	0.604800	0.942400	0.872200
H231	H23	0.513600	0.828500	0.933400
H241	H24	0.769600	0.721200	0.868500
H251	H25	0.524000	0.337200	0.446600
H261	H26	0.882700	0.189200	0.574000
H271	H27	0.612600	0.259200	0.246400
H281	H28	0.469700	0.236000	0.321400
H291	H29	0.685900	0.420000	0.448400
H301	H30	0.895200	0.442400	0.627800
H311	H31	0.986400	0.328500	0.566600
H321	H32	0.730400	0.221200	0.631500
C11	C1	0.110800	0.211500	0.797800
C21	C2	0.031300	0.224600	0.838200
C31	C3	0.151500	0.124300	0.907400
C41	C4	0.373400	0.118000	0.121000
C51	C5	0.424600	0.179500	0.087600
C61	C6	0.283400	0.237500	0.123900
C71	C7	0.571700	0.153650	0.923800
C81	C8	0.918850	0.151740	0.071950
C91	C9	0.785640	0.098970	0.914040
C101	C10	0.694450	0.269860	0.862350
C111	C11	0.871210	0.314890	0.990810
C121	C12	0.707330	0.096580	0.081330
C131	C13	0.624860	0.318720	0.006560
C141	C14	0.795830	0.267520	0.135830
C151	C15	0.389200	0.711500	0.702200
C161	C16	0.468700	0.724600	0.661800
C171	C17	0.348500	0.624300	0.592600
C181	C18	0.126600	0.618000	0.379000
C191	C19	0.075400	0.679500	0.412400
C201	C20	0.216600	0.737500	0.376100
C211	C21	0.928300	0.653650	0.576200
C221	C22	0.581150	0.651740	0.428050
C231	C23	0.714360	0.598970	0.585960
C241	C24	0.805550	0.769860	0.637650
C251	C25	0.628790	0.814890	0.509190
C261	C26	0.792670	0.596580	0.418670
C271	C27	0.875140	0.818720	0.493440
C281	C28	0.704170	0.767520	0.364170
C291	C29	0.889200	0.788500	0.202200
C301	C30	0.968700	0.775400	0.161800
C311	C31	0.848500	0.875700	0.092600
C321	C32	0.626600	0.882000	0.879000
C331	C33	0.575400	0.820500	0.912400
C341	C34	0.716600	0.762500	0.876100
C351	C35	0.428300	0.846350	0.076200
C361	C36	0.081150	0.848260	0.928050
C371	C37	0.214360	0.901030	0.085960
C381	C38	0.305550	0.730140	0.137650
C391	C39	0.128790	0.685110	0.009190
C401	C40	0.292670	0.903420	0.918670
C411	C41	0.375140	0.681280	0.993440
C421	C42	0.204170	0.732480	0.864170
C431	C43	0.610800	0.288500	0.297800
C441	C44	0.531300	0.275400	0.338200
C451	C45	0.651500	0.375700	0.407400
C461	C46	0.873400	0.382000	0.621000
C471	C47	0.924600	0.320500	0.587600
C481	C48	0.783400	0.262500	0.623900
C491	C49	0.071700	0.346350	0.423800
C501	C50	0.418850	0.348260	0.571950
C511	C51	0.285640	0.401030	0.414040
C521	C52	0.194450	0.230140	0.362350
C531	C53	0.371210	0.185110	0.490810
C541	C54	0.207330	0.403420	0.581330
C551	C55	0.124860	0.181280	0.506560
C561	C56	0.295830	0.232480	0.635830
N11	N1	0.188870	0.149080	0.842870
N21	N2	0.059600	0.168600	0.908100
N31	N3	0.285020	0.152180	0.144620
N41	N4	0.367400	0.258200	0.090400
N51	N5	0.482200	0.128260	0.885120
N61	N6	0.008620	0.125300	0.107690
N71	N7	0.806670	0.042630	0.872370
N81	N8	0.671900	0.305490	0.795000
N91	N9	0.936740	0.367050	0.984440
N101	N10	0.690870	0.039660	0.124470
N111	N11	0.564930	0.375680	0.012830
N121	N12	0.815410	0.302730	0.203410
N131	N13	0.311130	0.649080	0.657130
N141	N14	0.440400	0.668600	0.591900
N151	N15	0.214980	0.652180	0.355380
N161	N16	0.132600	0.758200	0.409600
N171	N17	0.017800	0.628260	0.614880
N181	N18	0.491380	0.625300	0.392310
N191	N19	0.693330	0.542630	0.627630
N201	N20	0.828100	0.805490	0.705000
N211	N21	0.563260	0.867050	0.515560
N221	N22	0.809130	0.539660	0.375530
N231	N23	0.935070	0.875680	0.487170
N241	N24	0.684590	0.802730	0.296590
N251	N25	0.811130	0.850920	0.157130
N261	N26	0.940400	0.831400	0.091900
N271	N27	0.714980	0.847820	0.855380
N281	N28	0.632600	0.741800	0.909600
N291	N29	0.517800	0.871740	0.114880
N301	N30	0.991380	0.874700	0.892310
N311	N31	0.193330	0.957370	0.127630
N321	N32	0.328100	0.694510	0.205000
N331	N33	0.063260	0.632950	0.015560
N341	N34	0.309130	0.960340	0.875530
N351	N35	0.435070	0.624320	0.987170
N361	N36	0.184590	0.697270	0.796590
N371	N37	0.688870	0.350920	0.342870
N381	N38	0.559600	0.331400	0.408100
N391	N39	0.785020	0.347820	0.644620
N401	N40	0.867400	0.241800	0.590400
N411	N41	0.982200	0.371740	0.385120
N421	N42	0.508620	0.374700	0.607690
N431	N43	0.306670	0.457370	0.372370
N441	N44	0.171900	0.194510	0.295000
N451	N45	0.436740	0.132950	0.484440
N461	N46	0.190870	0.460340	0.624470
N471	N47	0.064930	0.124320	0.512830
N481	N48	0.315410	0.197270	0.703410
