data_MOLKAB_clean_PM
_symmetry_space_group_name_H-M	'P1'
_cell_length_a	14.221300
_cell_length_b	20.283000
_cell_length_c	19.839000
_cell_angle_alpha	110.326000
_cell_angle_beta	90.000000
_cell_angle_gamma	90.000000
_symmetry_Int_Tables_number 1

loop_
_symmetry_equiv_pos_as_xyz
'x,y,z'

loop_
_atom_site_label
_atom_site_type_symbol
_atom_site_fract_x
_atom_site_fract_y
_atom_site_fract_z
Ca11	Ca1	0.543600	0.439750	0.203670
Ca21	Ca2	0.197110	0.061330	0.309590
Ca31	Ca3	0.802890	0.938670	0.690410
Ca41	Ca4	0.697110	0.938670	0.190410
Ca51	Ca5	0.302890	0.061330	0.809590
Ca61	Ca6	0.043600	0.560250	0.296330
Ca71	Ca7	0.456400	0.560250	0.796330
Ca81	Ca8	0.956400	0.439750	0.703670
Cd11	Cd1	0.057670	0.974320	0.758310
Cd21	Cd2	0.300840	0.531200	0.256770
Cd31	Cd3	0.942330	0.025680	0.241690
Cd41	Cd4	0.199160	0.531200	0.756770
Cd51	Cd5	0.442330	0.974320	0.258310
Cd61	Cd6	0.699160	0.468800	0.743230
Cd71	Cd7	0.557670	0.025680	0.741690
Cd81	Cd8	0.800840	0.468800	0.243230
H11	H1	0.067700	0.468600	0.387400
H21	H2	0.515300	0.780700	0.709500
H31	H3	0.350100	0.028300	0.627800
H41	H4	0.347400	0.538900	0.498300
H51	H5	0.649900	0.971700	0.372200
H61	H6	0.793900	0.220100	0.219200
H71	H7	0.706100	0.220100	0.719200
H81	H8	0.767800	0.715100	0.273900
H91	H9	0.298300	0.182200	0.729600
H101	H10	0.839600	0.520500	0.513800
H111	H11	0.985800	0.622900	0.738900
H121	H12	0.312400	0.963100	0.913100
H131	H13	0.551400	0.273800	0.762500
H141	H14	0.228200	0.881500	0.275100
H151	H15	0.728200	0.118500	0.224900
H161	H16	0.074800	0.027400	0.024000
H171	H17	0.514200	0.622900	0.238900
H181	H18	0.187600	0.963100	0.413100
H191	H19	0.050400	0.678400	0.215500
H201	H20	0.485800	0.377100	0.761100
H211	H21	0.687600	0.036900	0.086900
H221	H22	0.386000	0.959700	0.015300
H231	H23	0.152600	0.538900	0.998300
H241	H24	0.567700	0.531400	0.112600
H251	H25	0.652600	0.461100	0.501700
H261	H26	0.449600	0.678400	0.715500
H271	H27	0.798300	0.817800	0.770400
H281	H28	0.948600	0.273800	0.262500
H291	H29	0.701700	0.817800	0.270400
H301	H30	0.574800	0.972600	0.476000
H311	H31	0.448600	0.726200	0.237500
H321	H32	0.267800	0.284900	0.226100
H331	H33	0.409100	0.531600	0.603100
H341	H34	0.425200	0.027400	0.524000
H351	H35	0.201700	0.182200	0.229600
H361	H36	0.660400	0.520500	0.013800
H371	H37	0.014200	0.377100	0.261100
H381	H38	0.293900	0.779900	0.280800
H391	H39	0.484700	0.219300	0.290500
H401	H40	0.925200	0.972600	0.976000
H411	H41	0.550400	0.321600	0.284500
H421	H42	0.732200	0.715100	0.773900
H431	H43	0.271800	0.881500	0.775100
H441	H44	0.114000	0.959700	0.515300
H451	H45	0.909100	0.468400	0.896900
H461	H46	0.850100	0.971700	0.872200
H471	H47	0.432300	0.468600	0.887400
H481	H48	0.984700	0.780700	0.209500
H491	H49	0.232200	0.284900	0.726100
H501	H50	0.160400	0.479500	0.486200
H511	H51	0.339600	0.479500	0.986200
H521	H52	0.771800	0.118500	0.724900
H531	H53	0.847400	0.461100	0.001700
H541	H54	0.206100	0.779900	0.780800
H551	H55	0.886000	0.040300	0.484700
H561	H56	0.015300	0.219300	0.790500
H571	H57	0.932300	0.531400	0.612600
H581	H58	0.090900	0.531600	0.103100
H591	H59	0.051400	0.726200	0.737500
H601	H60	0.614000	0.040300	0.984700
H611	H61	0.149900	0.028300	0.127800
H621	H62	0.812400	0.036900	0.586900
H631	H63	0.949600	0.321600	0.784500
H641	H64	0.590900	0.468400	0.396900
C11	C1	0.947700	0.661800	0.744800
C21	C2	0.024500	0.152150	0.252300
C31	C3	0.692000	0.159100	0.236200
C41	C4	0.903900	0.512200	0.508200
C51	C5	0.164000	0.221500	0.236300
C61	C6	0.648800	0.657640	0.254800
C71	C7	0.116200	0.512000	0.623200
C81	C8	0.986900	0.723700	0.743800
C91	C9	0.586100	0.280700	0.271800
C101	C10	0.637600	0.985900	0.477800
C111	C11	0.576400	0.491400	0.632900
C121	C12	0.413900	0.719300	0.728200
C131	C13	0.721100	0.346160	0.243000
C141	C14	0.308000	0.840900	0.763800
C151	C15	0.463000	0.504200	0.436400
C161	C16	0.851200	0.657640	0.754800
C171	C17	0.552300	0.661800	0.244800
C181	C18	0.808000	0.159100	0.736200
C191	C19	0.423600	0.508600	0.367100
C201	C20	0.836000	0.778500	0.763700
C211	C21	0.383800	0.512000	0.123200
C221	C22	0.444700	0.909500	0.744200
C231	C23	0.268700	0.780000	0.767200
C241	C24	0.692000	0.589650	0.251800
C251	C25	0.975500	0.847850	0.747700
C261	C26	0.054200	0.518900	0.061700
C271	C27	0.883800	0.488000	0.376800
C281	C28	0.137600	0.014100	0.022200
C291	C29	0.447700	0.338200	0.755200
C301	C30	0.677600	0.008900	0.851100
C311	C31	0.231300	0.780000	0.267200
C321	C32	0.808000	0.589650	0.751800
C331	C33	0.555700	0.493500	0.940300
C341	C34	0.296300	0.283200	0.734600
C351	C35	0.944300	0.493500	0.440300
C361	C36	0.308000	0.410350	0.748200
C371	C37	0.768700	0.220000	0.732800
C381	C38	0.459600	0.481300	0.932700
C391	C39	0.685800	0.005200	0.542100
C401	C40	0.537000	0.495800	0.563600
C411	C41	0.192000	0.410350	0.248200
C421	C42	0.314200	0.994800	0.457900
C431	C43	0.136700	0.994100	0.890740
C441	C44	0.203700	0.283200	0.234600
C451	C45	0.475500	0.152150	0.752300
C461	C46	0.554200	0.481100	0.438300
C471	C47	0.636700	0.005900	0.609260
C481	C48	0.336000	0.221500	0.736300
C491	C49	0.322400	0.991100	0.148900
C501	C50	0.796300	0.716800	0.765400
C511	C51	0.274800	0.992400	0.082100
C521	C52	0.401100	0.842100	0.743700
C531	C53	0.037000	0.504200	0.936400
C541	C54	0.931400	0.782010	0.751900
C551	C55	0.822400	0.008900	0.351100
C561	C56	0.486900	0.276300	0.756200
C571	C57	0.453400	0.780800	0.724700
C581	C58	0.953400	0.219200	0.775300
C591	C59	0.185800	0.994800	0.957900
C601	C60	0.731300	0.220000	0.232800
C611	C61	0.068600	0.217990	0.248100
C621	C62	0.963000	0.495800	0.063600
C631	C63	0.821600	0.281360	0.749600
C641	C64	0.013100	0.276300	0.256200
C651	C65	0.278900	0.653840	0.757000
C661	C66	0.221100	0.653840	0.257000
C671	C67	0.555300	0.090500	0.255800
C681	C68	0.862400	0.985900	0.977800
C691	C69	0.317600	0.013900	0.584400
C701	C70	0.513100	0.723700	0.243800
C711	C71	0.779100	0.024800	0.543900
C721	C72	0.076400	0.508600	0.867100
C731	C73	0.863300	0.005900	0.109260
C741	C74	0.682400	0.986100	0.415600
C751	C75	0.678400	0.281360	0.249600
C761	C76	0.055700	0.506500	0.559700
C771	C77	0.220900	0.975200	0.456100
C781	C78	0.052300	0.338200	0.255200
C791	C79	0.540400	0.518700	0.067300
C801	C80	0.445800	0.518900	0.561700
C811	C81	0.176600	0.973500	0.517300
C821	C82	0.225200	0.992400	0.582100
C831	C83	0.182400	0.013900	0.084400
C841	C84	0.323400	0.973500	0.017300
C851	C85	0.814200	0.005200	0.042100
C861	C86	0.524500	0.847850	0.247700
C871	C87	0.096100	0.487800	0.491800
C881	C88	0.817600	0.986100	0.915600
C891	C89	0.596100	0.512200	0.008200
C901	C90	0.403900	0.487800	0.991800
C911	C91	0.040400	0.481300	0.432700
C921	C92	0.279100	0.975200	0.956100
C931	C93	0.944700	0.090500	0.755800
C941	C94	0.046600	0.780800	0.224700
C951	C95	0.351200	0.342360	0.745200
C961	C96	0.908700	0.476800	0.001100
C971	C97	0.913900	0.280700	0.771800
C981	C98	0.901100	0.157900	0.756300
C991	C99	0.178400	0.718640	0.250400
C1001	C100	0.616200	0.488000	0.876800
C1011	C101	0.598900	0.157900	0.256300
C1021	C102	0.363300	0.994100	0.390740
C1031	C103	0.720900	0.024800	0.043900
C1041	C104	0.546600	0.219200	0.275300
C1051	C105	0.055300	0.909500	0.244200
C1061	C106	0.568600	0.782010	0.251900
C1071	C107	0.923600	0.491400	0.132900
C1081	C108	0.098900	0.842100	0.243700
C1091	C109	0.431400	0.217990	0.748100
C1101	C110	0.959600	0.518700	0.567300
C1111	C111	0.725200	0.007600	0.917900
C1121	C112	0.774800	0.007600	0.417900
C1131	C113	0.091300	0.523200	0.998900
C1141	C114	0.408700	0.523200	0.498900
C1151	C115	0.945800	0.481100	0.938300
C1161	C116	0.664000	0.778500	0.263700
C1171	C117	0.321600	0.718640	0.750400
C1181	C118	0.192000	0.840900	0.263800
C1191	C119	0.591300	0.476800	0.501100
C1201	C120	0.444300	0.506500	0.059700
C1211	C121	0.177600	0.991100	0.648900
C1221	C122	0.362400	0.014100	0.522200
C1231	C123	0.148800	0.342360	0.245200
C1241	C124	0.676600	0.026500	0.982700
C1251	C125	0.703700	0.716800	0.265400
C1261	C126	0.086100	0.719300	0.228200
C1271	C127	0.778900	0.346160	0.743000
C1281	C128	0.823400	0.026500	0.482700
O11	O1	0.144700	0.465340	0.269620
O21	O2	0.549670	0.007320	0.613200
O31	O3	0.306700	0.652010	0.270120
O41	O4	0.966900	0.522200	0.189060
O51	O5	0.950330	0.007320	0.113200
O61	O6	0.926130	0.490180	0.320180
O71	O7	0.098800	0.965870	0.273680
O81	O8	0.450330	0.992680	0.386800
O91	O9	0.776900	0.588350	0.269580
O101	O10	0.598800	0.034130	0.226320
O111	O11	0.276900	0.411650	0.230420
O121	O12	0.331600	0.600930	0.747430
O131	O13	0.401200	0.965870	0.773680
O141	O14	0.348500	0.542240	0.369610
O151	O15	0.702300	0.482260	0.878760
O161	O16	0.831600	0.399070	0.752570
O171	O17	0.687770	0.007110	0.662360
O181	O18	0.562860	0.145840	0.751130
O191	O19	0.077600	0.103300	0.255710
O201	O20	0.024200	0.091380	0.782780
O211	O21	0.215000	0.025200	0.707940
O221	O22	0.975800	0.908620	0.217220
O231	O23	0.422400	0.103300	0.755710
O241	O24	0.533100	0.522200	0.689060
O251	O25	0.806700	0.347990	0.229880
O261	O26	0.573870	0.490180	0.820180
O271	O27	0.297700	0.517740	0.121240
O281	O28	0.426130	0.509820	0.179820
O291	O29	0.049670	0.992680	0.886800
O301	O30	0.466900	0.477800	0.310940
O311	O31	0.715000	0.974800	0.792060
O321	O32	0.033100	0.477800	0.810940
O331	O33	0.785000	0.974800	0.292060
O341	O34	0.312230	0.992890	0.337640
O351	O35	0.062860	0.854160	0.748870
O361	O36	0.168400	0.600930	0.247430
O371	O37	0.102900	0.956640	0.643690
O381	O38	0.855300	0.534660	0.730380
O391	O39	0.901200	0.034130	0.726320
O401	O40	0.922400	0.896700	0.744290
O411	O41	0.437140	0.854160	0.248870
O421	O42	0.202300	0.517740	0.621240
O431	O43	0.723100	0.588350	0.769580
O441	O44	0.524200	0.908620	0.717220
O451	O45	0.475800	0.091380	0.282780
O461	O46	0.602900	0.043360	0.856310
O471	O47	0.577600	0.896700	0.244290
O481	O48	0.193300	0.652010	0.770120
O491	O49	0.848500	0.457760	0.130390
O501	O50	0.223100	0.411650	0.730420
O511	O51	0.668400	0.399070	0.252570
O521	O52	0.897100	0.043360	0.356310
O531	O53	0.355300	0.465340	0.769620
O541	O54	0.797700	0.482260	0.378760
O551	O55	0.187770	0.992890	0.837640
O561	O56	0.644700	0.534660	0.230380
O571	O57	0.151500	0.542240	0.869610
O581	O58	0.073870	0.509820	0.679820
O591	O59	0.693300	0.347990	0.729880
O601	O60	0.397100	0.956640	0.143690
O611	O61	0.285000	0.025200	0.207940
O621	O62	0.651500	0.457760	0.630390
O631	O63	0.812230	0.007110	0.162360
O641	O64	0.937140	0.145840	0.251130
