data_MOMJIJ_clean_PM
_symmetry_space_group_name_H-M	'P1'
_cell_length_a	6.377300
_cell_length_b	6.971900
_cell_length_c	15.511800
_cell_angle_alpha	78.963000
_cell_angle_beta	87.657000
_cell_angle_gamma	71.990000
_symmetry_Int_Tables_number 1

loop_
_symmetry_equiv_pos_as_xyz
'x,y,z'

loop_
_atom_site_label
_atom_site_type_symbol
_atom_site_fract_x
_atom_site_fract_y
_atom_site_fract_z
La11	La1	0.292020	0.937120	0.258220
O11	O1	0.661300	0.990300	0.276300
O21	O2	0.953200	0.986400	0.352960
O31	O3	0.518300	0.796200	0.136460
O41	O4	0.710800	0.466800	0.184900
O51	O5	0.846400	0.361600	0.751440
O61	O6	0.807100	0.696900	0.715720
N11	N1	0.428300	0.958300	0.423660
N21	N2	0.784700	0.406200	0.016860
N31	N3	0.707700	0.747300	0.881170
C11	C1	0.756800	0.991900	0.345230
C21	C2	0.618700	0.998600	0.427290
C31	C3	0.310500	0.958200	0.497200
C41	C4	0.642100	0.620700	0.126700
C51	C5	0.702100	0.597300	0.032380
C61	C6	0.821900	0.386400	0.933200
C71	C7	0.813900	0.535200	0.769600
C81	C8	0.777900	0.555900	0.864860
C91	C9	0.670300	0.767000	0.964600
H11	H1	0.182000	0.918000	0.496000
H21	H2	0.878900	0.255600	0.920100
H31	H3	0.621400	0.898000	0.977900
La21	La2	0.707980	0.062880	0.741780
O71	O7	0.338700	0.009700	0.723700
O81	O8	0.046800	0.013600	0.647040
O91	O9	0.481700	0.203800	0.863540
O101	O10	0.289200	0.533200	0.815100
O111	O11	0.153600	0.638400	0.248560
O121	O12	0.192900	0.303100	0.284280
N41	N4	0.571700	0.041700	0.576340
N51	N5	0.215300	0.593800	0.983140
N61	N6	0.292300	0.252700	0.118830
C101	C10	0.243200	0.008100	0.654770
C111	C11	0.381300	0.001400	0.572710
C121	C12	0.689500	0.041800	0.502800
C131	C13	0.357900	0.379300	0.873300
C141	C14	0.297900	0.402700	0.967620
C151	C15	0.178100	0.613600	0.066800
C161	C16	0.186100	0.464800	0.230400
C171	C17	0.222100	0.444100	0.135140
C181	C18	0.329700	0.233000	0.035400
H41	H4	0.818000	0.082000	0.504000
H51	H5	0.121100	0.744400	0.079900
H61	H6	0.378600	0.102000	0.022100
