data_MONFEC_clean_PM
_symmetry_space_group_name_H-M	'P1'
_cell_length_a	13.131700
_cell_length_b	12.125600
_cell_length_c	7.811900
_cell_angle_alpha	90.000000
_cell_angle_beta	99.734000
_cell_angle_gamma	90.000000
_symmetry_Int_Tables_number 1

loop_
_symmetry_equiv_pos_as_xyz
'x,y,z'

loop_
_atom_site_label
_atom_site_type_symbol
_atom_site_fract_x
_atom_site_fract_y
_atom_site_fract_z
Mn11	Mn1	0.736820	0.482290	0.901400
O11	O1	0.136620	0.090070	0.480800
N11	N1	0.335490	0.148800	0.583900
C11	C1	0.161000	0.187300	0.437900
O21	O2	0.106380	0.249910	0.334900
C21	C2	0.268200	0.228100	0.519000
O31	O3	0.153290	0.442220	0.577200
C31	C3	0.294900	0.339100	0.523400
O41	O4	0.219790	0.488480	0.344700
C41	C4	0.395800	0.367500	0.595700
H11	H1	0.414000	0.440000	0.606000
O51	O5	0.593260	0.414080	0.779800
C51	C5	0.466100	0.285900	0.660700
O61	O6	0.637340	0.236090	0.786100
C61	C6	0.432400	0.177000	0.651000
H21	H2	0.475000	0.118000	0.687000
C71	C7	0.216100	0.428900	0.472400
C81	C8	0.574700	0.313300	0.748100
Mn21	Mn2	0.263180	0.982290	0.598600
O71	O7	0.863380	0.590070	0.019200
N21	N2	0.664510	0.648800	0.916100
C91	C9	0.839000	0.687300	0.062100
O81	O8	0.893620	0.749910	0.165100
C101	C10	0.731800	0.728100	0.981000
O91	O9	0.846710	0.942220	0.922800
C111	C11	0.705100	0.839100	0.976600
O101	O10	0.780210	0.988480	0.155300
C121	C12	0.604200	0.867500	0.904300
H31	H3	0.586000	0.940000	0.894000
O111	O11	0.406740	0.914080	0.720200
C131	C13	0.533900	0.785900	0.839300
O121	O12	0.362660	0.736090	0.713900
C141	C14	0.567600	0.677000	0.849000
H41	H4	0.525000	0.618000	0.813000
C151	C15	0.783900	0.928900	0.027600
C161	C16	0.425300	0.813300	0.751900
Mn31	Mn3	0.263180	0.517710	0.098600
O131	O13	0.863380	0.909930	0.519200
N31	N3	0.664510	0.851200	0.416100
C171	C17	0.839000	0.812700	0.562100
O141	O14	0.893620	0.750090	0.665100
C181	C18	0.731800	0.771900	0.481000
O151	O15	0.846710	0.557780	0.422800
C191	C19	0.705100	0.660900	0.476600
O161	O16	0.780210	0.511520	0.655300
C201	C20	0.604200	0.632500	0.404300
H51	H5	0.586000	0.560000	0.394000
O171	O17	0.406740	0.585920	0.220200
C211	C21	0.533900	0.714100	0.339300
O181	O18	0.362660	0.763910	0.213900
C221	C22	0.567600	0.823000	0.349000
H61	H6	0.525000	0.882000	0.313000
C231	C23	0.783900	0.571100	0.527600
C241	C24	0.425300	0.686700	0.251900
Mn41	Mn4	0.736820	0.017710	0.401400
O191	O19	0.136620	0.409930	0.980800
N41	N4	0.335490	0.351200	0.083900
C251	C25	0.161000	0.312700	0.937900
O201	O20	0.106380	0.250090	0.834900
C261	C26	0.268200	0.271900	0.019000
O211	O21	0.153290	0.057780	0.077200
C271	C27	0.294900	0.160900	0.023400
O221	O22	0.219790	0.011520	0.844700
C281	C28	0.395800	0.132500	0.095700
H71	H7	0.414000	0.060000	0.106000
O231	O23	0.593260	0.085920	0.279800
C291	C29	0.466100	0.214100	0.160700
O241	O24	0.637340	0.263910	0.286100
C301	C30	0.432400	0.323000	0.151000
H81	H8	0.475000	0.382000	0.187000
C311	C31	0.216100	0.071100	0.972400
C321	C32	0.574700	0.186700	0.248100
Mn51	Mn5	0.000000	0.500000	0.500000
Mn61	Mn6	0.000000	0.000000	0.000000
