data_MONWET_clean_PM
_symmetry_space_group_name_H-M	'P1'
_cell_length_a	22.870000
_cell_length_b	34.647000
_cell_length_c	9.535000
_cell_angle_alpha	90.000000
_cell_angle_beta	90.000000
_cell_angle_gamma	90.000000
_symmetry_Int_Tables_number 1

loop_
_symmetry_equiv_pos_as_xyz
'x,y,z'

loop_
_atom_site_label
_atom_site_type_symbol
_atom_site_fract_x
_atom_site_fract_y
_atom_site_fract_z
Ag11	Ag1	0.322820	0.125200	0.638840
Ag21	Ag2	0.441270	0.141110	0.962050
N11	N1	0.497250	0.063940	0.703100
N21	N2	0.532470	0.096940	0.703600
N31	N3	0.509780	0.084430	0.490400
N41	N4	0.505910	0.088030	0.345200
N51	N5	0.483140	0.110880	0.143200
N61	N6	0.515940	0.077590	0.122100
N71	N7	0.322100	0.936270	0.052100
N81	N8	0.356890	0.926700	0.937200
N91	N9	0.345460	0.988480	0.942300
N101	N10	0.351110	0.026930	0.906400
N111	N11	0.383470	0.085390	0.898100
N121	N12	0.339400	0.080840	0.797100
C11	C1	0.539800	0.107720	0.576500
H11	H1	0.562500	0.128600	0.548100
C21	C2	0.483860	0.057270	0.573100
H21	H2	0.460300	0.037200	0.541400
C31	C3	0.477440	0.116620	0.276900
H31	H3	0.457300	0.136900	0.318600
C41	C4	0.528910	0.064730	0.246400
H41	H4	0.550800	0.042700	0.264500
C51	C5	0.315300	0.973470	0.052700
H51	H5	0.293500	0.987500	0.117500
C61	C6	0.369960	0.958530	0.874400
H61	H6	0.392900	0.960500	0.794200
C71	C7	0.389180	0.052790	0.960900
H71	H7	0.415500	0.047700	0.032900
C81	C8	0.320920	0.045820	0.805300
H81	H8	0.291500	0.035200	0.750400
Ag31	Ag3	0.322820	0.625200	0.138840
Ag41	Ag4	0.441270	0.641110	0.462050
N131	N13	0.497250	0.563940	0.203100
N141	N14	0.532470	0.596940	0.203600
N151	N15	0.509780	0.584430	0.990400
N161	N16	0.505910	0.588030	0.845200
N171	N17	0.483140	0.610880	0.643200
N181	N18	0.515940	0.577590	0.622100
N191	N19	0.322100	0.436270	0.552100
N201	N20	0.356890	0.426700	0.437200
N211	N21	0.345460	0.488480	0.442300
N221	N22	0.351110	0.526930	0.406400
N231	N23	0.383470	0.585390	0.398100
N241	N24	0.339400	0.580840	0.297100
C91	C9	0.539800	0.607720	0.076500
H91	H9	0.562500	0.628600	0.048100
C101	C10	0.483860	0.557270	0.073100
H101	H10	0.460300	0.537200	0.041400
C111	C11	0.477440	0.616620	0.776900
H111	H11	0.457300	0.636900	0.818600
C121	C12	0.528910	0.564730	0.746400
H121	H12	0.550800	0.542700	0.764500
C131	C13	0.315300	0.473470	0.552700
H131	H13	0.293500	0.487500	0.617500
C141	C14	0.369960	0.458530	0.374400
H141	H14	0.392900	0.460500	0.294200
C151	C15	0.389180	0.552790	0.460900
H151	H15	0.415500	0.547700	0.532900
C161	C16	0.320920	0.545820	0.305300
H161	H16	0.291500	0.535200	0.250400
Ag51	Ag5	0.822820	0.125200	0.138840
Ag61	Ag6	0.941270	0.141110	0.462050
N251	N25	0.997250	0.063940	0.203100
N261	N26	0.032470	0.096940	0.203600
N271	N27	0.009780	0.084430	0.990400
N281	N28	0.005910	0.088030	0.845200
N291	N29	0.983140	0.110880	0.643200
N301	N30	0.015940	0.077590	0.622100
N311	N31	0.822100	0.936270	0.552100
N321	N32	0.856890	0.926700	0.437200
N331	N33	0.845460	0.988480	0.442300
N341	N34	0.851110	0.026930	0.406400
N351	N35	0.883470	0.085390	0.398100
N361	N36	0.839400	0.080840	0.297100
C171	C17	0.039800	0.107720	0.076500
H171	H17	0.062500	0.128600	0.048100
C181	C18	0.983860	0.057270	0.073100
H181	H18	0.960300	0.037200	0.041400
C191	C19	0.977440	0.116620	0.776900
H191	H19	0.957300	0.136900	0.818600
C201	C20	0.028910	0.064730	0.746400
H201	H20	0.050800	0.042700	0.764500
C211	C21	0.815300	0.973470	0.552700
H211	H21	0.793500	0.987500	0.617500
C221	C22	0.869960	0.958530	0.374400
H221	H22	0.892900	0.960500	0.294200
C231	C23	0.889180	0.052790	0.460900
H231	H23	0.915500	0.047700	0.532900
C241	C24	0.820920	0.045820	0.305300
H241	H24	0.791500	0.035200	0.250400
Ag71	Ag7	0.822820	0.625200	0.638840
Ag81	Ag8	0.941270	0.641110	0.962050
N371	N37	0.997250	0.563940	0.703100
N381	N38	0.032470	0.596940	0.703600
N391	N39	0.009780	0.584430	0.490400
N401	N40	0.005910	0.588030	0.345200
N411	N41	0.983140	0.610880	0.143200
N421	N42	0.015940	0.577590	0.122100
N431	N43	0.822100	0.436270	0.052100
N441	N44	0.856890	0.426700	0.937200
N451	N45	0.845460	0.488480	0.942300
N461	N46	0.851110	0.526930	0.906400
N471	N47	0.883470	0.585390	0.898100
N481	N48	0.839400	0.580840	0.797100
C251	C25	0.039800	0.607720	0.576500
H251	H25	0.062500	0.628600	0.548100
C261	C26	0.983860	0.557270	0.573100
H261	H26	0.960300	0.537200	0.541400
C271	C27	0.977440	0.616620	0.276900
H271	H27	0.957300	0.636900	0.318600
C281	C28	0.028910	0.564730	0.246400
H281	H28	0.050800	0.542700	0.264500
C291	C29	0.815300	0.473470	0.052700
H291	H29	0.793500	0.487500	0.117500
C301	C30	0.869960	0.458530	0.874400
H301	H30	0.892900	0.460500	0.794200
C311	C31	0.889180	0.552790	0.960900
H311	H31	0.915500	0.547700	0.032900
C321	C32	0.820920	0.545820	0.805300
H321	H32	0.791500	0.535200	0.750400
Ag91	Ag9	0.677180	0.874800	0.638840
Ag101	Ag10	0.558730	0.858890	0.962050
N491	N49	0.502750	0.936060	0.703100
N501	N50	0.467530	0.903060	0.703600
N511	N51	0.490220	0.915570	0.490400
N521	N52	0.494090	0.911970	0.345200
N531	N53	0.516860	0.889120	0.143200
N541	N54	0.484060	0.922410	0.122100
N551	N55	0.677900	0.063730	0.052100
N561	N56	0.643110	0.073300	0.937200
N571	N57	0.654540	0.011520	0.942300
N581	N58	0.648890	0.973070	0.906400
N591	N59	0.616530	0.914610	0.898100
N601	N60	0.660600	0.919160	0.797100
C331	C33	0.460200	0.892280	0.576500
H331	H33	0.437500	0.871400	0.548100
C341	C34	0.516140	0.942730	0.573100
H341	H34	0.539700	0.962800	0.541400
C351	C35	0.522560	0.883380	0.276900
H351	H35	0.542700	0.863100	0.318600
C361	C36	0.471090	0.935270	0.246400
H361	H36	0.449200	0.957300	0.264500
C371	C37	0.684700	0.026530	0.052700
H371	H37	0.706500	0.012500	0.117500
C381	C38	0.630040	0.041470	0.874400
H381	H38	0.607100	0.039500	0.794200
C391	C39	0.610820	0.947210	0.960900
H391	H39	0.584500	0.952300	0.032900
C401	C40	0.679080	0.954180	0.805300
H401	H40	0.708500	0.964800	0.750400
Ag111	Ag11	0.677180	0.374800	0.138840
Ag121	Ag12	0.558730	0.358890	0.462050
N611	N61	0.502750	0.436060	0.203100
N621	N62	0.467530	0.403060	0.203600
N631	N63	0.490220	0.415570	0.990400
N641	N64	0.494090	0.411970	0.845200
N651	N65	0.516860	0.389120	0.643200
N661	N66	0.484060	0.422410	0.622100
N671	N67	0.677900	0.563730	0.552100
N681	N68	0.643110	0.573300	0.437200
N691	N69	0.654540	0.511520	0.442300
N701	N70	0.648890	0.473070	0.406400
N711	N71	0.616530	0.414610	0.398100
N721	N72	0.660600	0.419160	0.297100
C411	C41	0.460200	0.392280	0.076500
H411	H41	0.437500	0.371400	0.048100
C421	C42	0.516140	0.442730	0.073100
H421	H42	0.539700	0.462800	0.041400
C431	C43	0.522560	0.383380	0.776900
H431	H43	0.542700	0.363100	0.818600
C441	C44	0.471090	0.435270	0.746400
H441	H44	0.449200	0.457300	0.764500
C451	C45	0.684700	0.526530	0.552700
H451	H45	0.706500	0.512500	0.617500
C461	C46	0.630040	0.541470	0.374400
H461	H46	0.607100	0.539500	0.294200
C471	C47	0.610820	0.447210	0.460900
H471	H47	0.584500	0.452300	0.532900
C481	C48	0.679080	0.454180	0.305300
H481	H48	0.708500	0.464800	0.250400
Ag131	Ag13	0.177180	0.874800	0.138840
Ag141	Ag14	0.058730	0.858890	0.462050
N731	N73	0.002750	0.936060	0.203100
N741	N74	0.967530	0.903060	0.203600
N751	N75	0.990220	0.915570	0.990400
N761	N76	0.994090	0.911970	0.845200
N771	N77	0.016860	0.889120	0.643200
N781	N78	0.984060	0.922410	0.622100
N791	N79	0.177900	0.063730	0.552100
N801	N80	0.143110	0.073300	0.437200
N811	N81	0.154540	0.011520	0.442300
N821	N82	0.148890	0.973070	0.406400
N831	N83	0.116530	0.914610	0.398100
N841	N84	0.160600	0.919160	0.297100
C491	C49	0.960200	0.892280	0.076500
H491	H49	0.937500	0.871400	0.048100
C501	C50	0.016140	0.942730	0.073100
H501	H50	0.039700	0.962800	0.041400
C511	C51	0.022560	0.883380	0.776900
H511	H51	0.042700	0.863100	0.818600
C521	C52	0.971090	0.935270	0.746400
H521	H52	0.949200	0.957300	0.764500
C531	C53	0.184700	0.026530	0.552700
H531	H53	0.206500	0.012500	0.617500
C541	C54	0.130040	0.041470	0.374400
H541	H54	0.107100	0.039500	0.294200
C551	C55	0.110820	0.947210	0.460900
H551	H55	0.084500	0.952300	0.532900
C561	C56	0.179080	0.954180	0.305300
H561	H56	0.208500	0.964800	0.250400
Ag151	Ag15	0.177180	0.374800	0.638840
Ag161	Ag16	0.058730	0.358890	0.962050
N851	N85	0.002750	0.436060	0.703100
N861	N86	0.967530	0.403060	0.703600
N871	N87	0.990220	0.415570	0.490400
N881	N88	0.994090	0.411970	0.345200
N891	N89	0.016860	0.389120	0.143200
N901	N90	0.984060	0.422410	0.122100
N911	N91	0.177900	0.563730	0.052100
N921	N92	0.143110	0.573300	0.937200
N931	N93	0.154540	0.511520	0.942300
N941	N94	0.148890	0.473070	0.906400
N951	N95	0.116530	0.414610	0.898100
N961	N96	0.160600	0.419160	0.797100
C571	C57	0.960200	0.392280	0.576500
H571	H57	0.937500	0.371400	0.548100
C581	C58	0.016140	0.442730	0.573100
H581	H58	0.039700	0.462800	0.541400
C591	C59	0.022560	0.383380	0.276900
H591	H59	0.042700	0.363100	0.318600
C601	C60	0.971090	0.435270	0.246400
H601	H60	0.949200	0.457300	0.264500
C611	C61	0.184700	0.526530	0.052700
H611	H61	0.206500	0.512500	0.117500
C621	C62	0.130040	0.541470	0.874400
H621	H62	0.107100	0.539500	0.794200
C631	C63	0.110820	0.447210	0.960900
H631	H63	0.084500	0.452300	0.032900
C641	C64	0.179080	0.454180	0.805300
H641	H64	0.208500	0.464800	0.750400
Ag171	Ag17	0.572820	0.124800	0.888840
Ag181	Ag18	0.691270	0.108890	0.212050
N971	N97	0.747250	0.186060	0.953100
N981	N98	0.782470	0.153060	0.953600
N991	N99	0.759780	0.165570	0.740400
N1001	N100	0.755910	0.161970	0.595200
N1011	N101	0.733140	0.139120	0.393200
N1021	N102	0.765940	0.172410	0.372100
N1031	N103	0.572100	0.313730	0.302100
N1041	N104	0.606890	0.323300	0.187200
N1051	N105	0.595460	0.261520	0.192300
N1061	N106	0.601110	0.223070	0.156400
N1071	N107	0.633470	0.164610	0.148100
N1081	N108	0.589400	0.169160	0.047100
C651	C65	0.789800	0.142280	0.826500
H651	H65	0.812500	0.121400	0.798100
C661	C66	0.733860	0.192730	0.823100
H661	H66	0.710300	0.212800	0.791400
C671	C67	0.727440	0.133380	0.526900
H671	H67	0.707300	0.113100	0.568600
C681	C68	0.778910	0.185270	0.496400
H681	H68	0.800800	0.207300	0.514500
C691	C69	0.565300	0.276530	0.302700
H691	H69	0.543500	0.262500	0.367500
C701	C70	0.619960	0.291470	0.124400
H701	H70	0.642900	0.289500	0.044200
C711	C71	0.639180	0.197210	0.210900
H711	H71	0.665500	0.202300	0.282900
C721	C72	0.570920	0.204180	0.055300
H721	H72	0.541500	0.214800	0.000400
Ag191	Ag19	0.572820	0.624800	0.388840
Ag201	Ag20	0.691270	0.608900	0.712050
N1091	N109	0.747250	0.686060	0.453100
N1101	N110	0.782470	0.653060	0.453600
N1111	N111	0.759780	0.665570	0.240400
N1121	N112	0.755910	0.661970	0.095200
N1131	N113	0.733140	0.639120	0.893200
N1141	N114	0.765940	0.672410	0.872100
N1151	N115	0.572100	0.813730	0.802100
N1161	N116	0.606890	0.823300	0.687200
N1171	N117	0.595460	0.761520	0.692300
N1181	N118	0.601110	0.723070	0.656400
N1191	N119	0.633470	0.664610	0.648100
N1201	N120	0.589400	0.669160	0.547100
C731	C73	0.789800	0.642280	0.326500
H731	H73	0.812500	0.621400	0.298100
C741	C74	0.733860	0.692730	0.323100
H741	H74	0.710300	0.712800	0.291400
C751	C75	0.727440	0.633380	0.026900
H751	H75	0.707300	0.613100	0.068600
C761	C76	0.778910	0.685270	0.996400
H761	H76	0.800800	0.707300	0.014500
C771	C77	0.565300	0.776530	0.802700
H771	H77	0.543500	0.762500	0.867500
C781	C78	0.619960	0.791470	0.624400
H781	H78	0.642900	0.789500	0.544200
C791	C79	0.639180	0.697210	0.710900
H791	H79	0.665500	0.702300	0.782900
C801	C80	0.570920	0.704180	0.555300
H801	H80	0.541500	0.714800	0.500400
Ag211	Ag21	0.072820	0.124800	0.388840
Ag221	Ag22	0.191270	0.108890	0.712050
N1211	N121	0.247250	0.186060	0.453100
N1221	N122	0.282470	0.153060	0.453600
N1231	N123	0.259780	0.165570	0.240400
N1241	N124	0.255910	0.161970	0.095200
N1251	N125	0.233140	0.139120	0.893200
N1261	N126	0.265940	0.172410	0.872100
N1271	N127	0.072100	0.313730	0.802100
N1281	N128	0.106890	0.323300	0.687200
N1291	N129	0.095460	0.261520	0.692300
N1301	N130	0.101110	0.223070	0.656400
N1311	N131	0.133470	0.164610	0.648100
N1321	N132	0.089400	0.169160	0.547100
C811	C81	0.289800	0.142280	0.326500
H811	H81	0.312500	0.121400	0.298100
C821	C82	0.233860	0.192730	0.323100
H821	H82	0.210300	0.212800	0.291400
C831	C83	0.227440	0.133380	0.026900
H831	H83	0.207300	0.113100	0.068600
C841	C84	0.278910	0.185270	0.996400
H841	H84	0.300800	0.207300	0.014500
C851	C85	0.065300	0.276530	0.802700
H851	H85	0.043500	0.262500	0.867500
C861	C86	0.119960	0.291470	0.624400
H861	H86	0.142900	0.289500	0.544200
C871	C87	0.139180	0.197210	0.710900
H871	H87	0.165500	0.202300	0.782900
C881	C88	0.070920	0.204180	0.555300
H881	H88	0.041500	0.214800	0.500400
Ag231	Ag23	0.072820	0.624800	0.888840
Ag241	Ag24	0.191270	0.608900	0.212050
N1331	N133	0.247250	0.686060	0.953100
N1341	N134	0.282470	0.653060	0.953600
N1351	N135	0.259780	0.665570	0.740400
N1361	N136	0.255910	0.661970	0.595200
N1371	N137	0.233140	0.639120	0.393200
N1381	N138	0.265940	0.672410	0.372100
N1391	N139	0.072100	0.813730	0.302100
N1401	N140	0.106890	0.823300	0.187200
N1411	N141	0.095460	0.761520	0.192300
N1421	N142	0.101110	0.723070	0.156400
N1431	N143	0.133470	0.664610	0.148100
N1441	N144	0.089400	0.669160	0.047100
C891	C89	0.289800	0.642280	0.826500
H891	H89	0.312500	0.621400	0.798100
C901	C90	0.233860	0.692730	0.823100
H901	H90	0.210300	0.712800	0.791400
C911	C91	0.227440	0.633380	0.526900
H911	H91	0.207300	0.613100	0.568600
C921	C92	0.278910	0.685270	0.496400
H921	H92	0.300800	0.707300	0.514500
C931	C93	0.065300	0.776530	0.302700
H931	H93	0.043500	0.762500	0.367500
C941	C94	0.119960	0.791470	0.124400
H941	H94	0.142900	0.789500	0.044200
C951	C95	0.139180	0.697210	0.210900
H951	H95	0.165500	0.702300	0.282900
C961	C96	0.070920	0.704180	0.055300
H961	H96	0.041500	0.714800	0.000400
Ag251	Ag25	0.927180	0.375200	0.888840
Ag261	Ag26	0.808730	0.391110	0.212050
N1451	N145	0.752750	0.313940	0.953100
N1461	N146	0.717530	0.346940	0.953600
N1471	N147	0.740220	0.334430	0.740400
N1481	N148	0.744090	0.338030	0.595200
N1491	N149	0.766860	0.360880	0.393200
N1501	N150	0.734060	0.327590	0.372100
N1511	N151	0.927900	0.186270	0.302100
N1521	N152	0.893110	0.176700	0.187200
N1531	N153	0.904540	0.238480	0.192300
N1541	N154	0.898890	0.276930	0.156400
N1551	N155	0.866530	0.335390	0.148100
N1561	N156	0.910600	0.330840	0.047100
C971	C97	0.710200	0.357720	0.826500
H971	H97	0.687500	0.378600	0.798100
C981	C98	0.766140	0.307270	0.823100
H981	H98	0.789700	0.287200	0.791400
C991	C99	0.772560	0.366620	0.526900
H991	H99	0.792700	0.386900	0.568600
C1001	C100	0.721090	0.314730	0.496400
H1001	H100	0.699200	0.292700	0.514500
C1011	C101	0.934700	0.223470	0.302700
H1011	H101	0.956500	0.237500	0.367500
C1021	C102	0.880040	0.208530	0.124400
H1021	H102	0.857100	0.210500	0.044200
C1031	C103	0.860820	0.302790	0.210900
H1031	H103	0.834500	0.297700	0.282900
C1041	C104	0.929080	0.295820	0.055300
H1041	H104	0.958500	0.285200	0.000400
Ag271	Ag27	0.927180	0.875200	0.388840
Ag281	Ag28	0.808730	0.891110	0.712050
N1571	N157	0.752750	0.813940	0.453100
N1581	N158	0.717530	0.846940	0.453600
N1591	N159	0.740220	0.834430	0.240400
N1601	N160	0.744090	0.838030	0.095200
N1611	N161	0.766860	0.860880	0.893200
N1621	N162	0.734060	0.827590	0.872100
N1631	N163	0.927900	0.686270	0.802100
N1641	N164	0.893110	0.676700	0.687200
N1651	N165	0.904540	0.738480	0.692300
N1661	N166	0.898890	0.776930	0.656400
N1671	N167	0.866530	0.835390	0.648100
N1681	N168	0.910600	0.830840	0.547100
C1051	C105	0.710200	0.857720	0.326500
H1051	H105	0.687500	0.878600	0.298100
C1061	C106	0.766140	0.807270	0.323100
H1061	H106	0.789700	0.787200	0.291400
C1071	C107	0.772560	0.866620	0.026900
H1071	H107	0.792700	0.886900	0.068600
C1081	C108	0.721090	0.814730	0.996400
H1081	H108	0.699200	0.792700	0.014500
C1091	C109	0.934700	0.723470	0.802700
H1091	H109	0.956500	0.737500	0.867500
C1101	C110	0.880040	0.708530	0.624400
H1101	H110	0.857100	0.710500	0.544200
C1111	C111	0.860820	0.802790	0.710900
H1111	H111	0.834500	0.797700	0.782900
C1121	C112	0.929080	0.795820	0.555300
H1121	H112	0.958500	0.785200	0.500400
Ag291	Ag29	0.427180	0.375200	0.388840
Ag301	Ag30	0.308730	0.391110	0.712050
N1691	N169	0.252750	0.313940	0.453100
N1701	N170	0.217530	0.346940	0.453600
N1711	N171	0.240220	0.334430	0.240400
N1721	N172	0.244090	0.338030	0.095200
N1731	N173	0.266860	0.360880	0.893200
N1741	N174	0.234060	0.327590	0.872100
N1751	N175	0.427900	0.186270	0.802100
N1761	N176	0.393110	0.176700	0.687200
N1771	N177	0.404540	0.238480	0.692300
N1781	N178	0.398890	0.276930	0.656400
N1791	N179	0.366530	0.335390	0.648100
N1801	N180	0.410600	0.330840	0.547100
C1131	C113	0.210200	0.357720	0.326500
H1131	H113	0.187500	0.378600	0.298100
C1141	C114	0.266140	0.307270	0.323100
H1141	H114	0.289700	0.287200	0.291400
C1151	C115	0.272560	0.366620	0.026900
H1151	H115	0.292700	0.386900	0.068600
C1161	C116	0.221090	0.314730	0.996400
H1161	H116	0.199200	0.292700	0.014500
C1171	C117	0.434700	0.223470	0.802700
H1171	H117	0.456500	0.237500	0.867500
C1181	C118	0.380040	0.208530	0.624400
H1181	H118	0.357100	0.210500	0.544200
C1191	C119	0.360820	0.302790	0.710900
H1191	H119	0.334500	0.297700	0.782900
C1201	C120	0.429080	0.295820	0.555300
H1201	H120	0.458500	0.285200	0.500400
Ag311	Ag31	0.427180	0.875200	0.888840
Ag321	Ag32	0.308730	0.891110	0.212050
N1811	N181	0.252750	0.813940	0.953100
N1821	N182	0.217530	0.846940	0.953600
N1831	N183	0.240220	0.834430	0.740400
N1841	N184	0.244090	0.838030	0.595200
N1851	N185	0.266860	0.860880	0.393200
N1861	N186	0.234060	0.827590	0.372100
N1871	N187	0.427900	0.686270	0.302100
N1881	N188	0.393110	0.676700	0.187200
N1891	N189	0.404540	0.738480	0.192300
N1901	N190	0.398890	0.776930	0.156400
N1911	N191	0.366530	0.835390	0.148100
N1921	N192	0.410600	0.830840	0.047100
C1211	C121	0.210200	0.857720	0.826500
H1211	H121	0.187500	0.878600	0.798100
C1221	C122	0.266140	0.807270	0.823100
H1221	H122	0.289700	0.787200	0.791400
C1231	C123	0.272560	0.866620	0.526900
H1231	H123	0.292700	0.886900	0.568600
C1241	C124	0.221090	0.814730	0.496400
H1241	H124	0.199200	0.792700	0.514500
C1251	C125	0.434700	0.723470	0.302700
H1251	H125	0.456500	0.737500	0.367500
C1261	C126	0.380040	0.708530	0.124400
H1261	H126	0.357100	0.710500	0.044200
C1271	C127	0.360820	0.802790	0.210900
H1271	H127	0.334500	0.797700	0.282900
C1281	C128	0.429080	0.795820	0.055300
H1281	H128	0.458500	0.785200	0.000400
