data_MORZID_clean_PM
_symmetry_space_group_name_H-M	'P1'
_cell_length_a	8.231900
_cell_length_b	9.165000
_cell_length_c	17.580000
_cell_angle_alpha	90.000000
_cell_angle_beta	90.000000
_cell_angle_gamma	90.000000
_symmetry_Int_Tables_number 1

loop_
_symmetry_equiv_pos_as_xyz
'x,y,z'

loop_
_atom_site_label
_atom_site_type_symbol
_atom_site_fract_x
_atom_site_fract_y
_atom_site_fract_z
Al11	Al1	0.861300	0.868800	0.566050
Al21	Al2	0.939700	0.412200	0.468450
Al31	Al3	0.442600	0.585300	0.667000
P11	P1	0.133500	0.631100	0.571170
P21	P2	0.070700	0.090500	0.473170
P31	P3	0.564100	0.915400	0.672680
O11	O1	0.964300	0.033100	0.536000
O21	O2	0.014300	0.242000	0.450500
O31	O3	0.244600	0.097900	0.501100
O41	O4	0.451400	0.987700	0.614600
O51	O5	0.507500	0.758700	0.682600
O61	O6	0.738400	0.921100	0.645900
O71	O7	0.548100	0.989200	0.748300
O81	O8	0.066200	0.994900	0.402400
O91	O9	0.234800	0.587000	0.640200
O101	O10	0.055500	0.494300	0.538600
O111	O11	0.238500	0.705000	0.511200
O121	O12	0.001800	0.733200	0.599900
Al41	Al4	0.638700	0.131200	0.066050
Al51	Al5	0.560300	0.587800	0.968450
Al61	Al6	0.057400	0.414700	0.167000
P41	P4	0.366500	0.368900	0.071170
P51	P5	0.429300	0.909500	0.973170
P61	P6	0.935900	0.084600	0.172680
O131	O13	0.535700	0.966900	0.036000
O141	O14	0.485700	0.758000	0.950500
O151	O15	0.255400	0.902100	0.001100
O161	O16	0.048600	0.012300	0.114600
O171	O17	0.992500	0.241300	0.182600
O181	O18	0.761600	0.078900	0.145900
O191	O19	0.951900	0.010800	0.248300
O201	O20	0.433800	0.005100	0.902400
O211	O21	0.265200	0.413000	0.140200
O221	O22	0.444500	0.505700	0.038600
O231	O23	0.261500	0.295000	0.011200
O241	O24	0.498200	0.266800	0.099900
Al71	Al7	0.138700	0.368800	0.933950
Al81	Al8	0.060300	0.912200	0.031550
Al91	Al9	0.557400	0.085300	0.833000
P71	P7	0.866500	0.131100	0.928830
P81	P8	0.929300	0.590500	0.026830
P91	P9	0.435900	0.415400	0.827320
O251	O25	0.035700	0.533100	0.964000
O261	O26	0.985700	0.742000	0.049500
O271	O27	0.755400	0.597900	0.998900
O281	O28	0.548600	0.487700	0.885400
O291	O29	0.492500	0.258700	0.817400
O301	O30	0.261600	0.421100	0.854100
O311	O31	0.451900	0.489200	0.751700
O321	O32	0.933800	0.494900	0.097600
O331	O33	0.765200	0.087000	0.859800
O341	O34	0.944500	0.994300	0.961400
O351	O35	0.761500	0.205000	0.988800
O361	O36	0.998200	0.233200	0.900100
Al101	Al10	0.361300	0.631200	0.433950
Al111	Al11	0.439700	0.087800	0.531550
Al121	Al12	0.942600	0.914700	0.333000
P101	P10	0.633500	0.868900	0.428830
P111	P11	0.570700	0.409500	0.526830
P121	P12	0.064100	0.584600	0.327320
O371	O37	0.464300	0.466900	0.464000
O381	O38	0.514300	0.258000	0.549500
O391	O39	0.744600	0.402100	0.498900
O401	O40	0.951400	0.512300	0.385400
O411	O41	0.007500	0.741300	0.317400
O421	O42	0.238400	0.578900	0.354100
O431	O43	0.048100	0.510800	0.251700
O441	O44	0.566200	0.505100	0.597600
O451	O45	0.734800	0.913000	0.359800
O461	O46	0.555500	0.005700	0.461400
O471	O47	0.738500	0.795000	0.488800
O481	O48	0.501800	0.766800	0.400100
