data_MOTKAI_clean_PM
_symmetry_space_group_name_H-M	'P1'
_cell_length_a	4.939200
_cell_length_b	12.186700
_cell_length_c	10.783000
_cell_angle_alpha	90.000000
_cell_angle_beta	94.766500
_cell_angle_gamma	90.000000
_symmetry_Int_Tables_number 1

loop_
_symmetry_equiv_pos_as_xyz
'x,y,z'

loop_
_atom_site_label
_atom_site_type_symbol
_atom_site_fract_x
_atom_site_fract_y
_atom_site_fract_z
P11	P1	0.535900	0.514000	0.181300
F11	F1	0.066300	0.353300	0.983700
O11	O1	0.701900	0.458800	0.083700
O21	O2	0.607300	0.636800	0.188900
O31	O3	0.226000	0.507100	0.143800
C11	C1	0.470400	0.522100	0.432200
C21	C2	0.616800	0.463400	0.333400
P21	P2	0.464100	0.014000	0.818700
F21	F2	0.933700	0.853300	0.016300
O41	O4	0.298100	0.958800	0.916300
O51	O5	0.392700	0.136800	0.811100
O61	O6	0.774000	0.007100	0.856200
C31	C3	0.529600	0.022100	0.567800
C41	C4	0.383200	0.963400	0.666600
P31	P3	0.464100	0.486000	0.818700
F31	F3	0.933700	0.646700	0.016300
O71	O7	0.298100	0.541200	0.916300
O81	O8	0.392700	0.363200	0.811100
O91	O9	0.774000	0.492900	0.856200
C51	C5	0.529600	0.477900	0.567800
C61	C6	0.383200	0.536600	0.666600
P41	P4	0.535900	0.986000	0.181300
F41	F4	0.066300	0.146700	0.983700
O101	O10	0.701900	0.041200	0.083700
O111	O11	0.607300	0.863200	0.188900
O121	O12	0.226000	0.992900	0.143800
C71	C7	0.470400	0.977900	0.432200
C81	C8	0.616800	0.036600	0.333400
Al11	Al1	0.000000	0.500000	0.000000
Al21	Al2	0.000000	0.000000	0.000000
Al31	Al3	0.243500	0.250000	0.898600
Al41	Al4	0.756500	0.750000	0.101400
