data_MOWQIZ_clean_PM
_symmetry_space_group_name_H-M	'P1'
_cell_length_a	8.523000
_cell_length_b	28.628000
_cell_length_c	9.306000
_cell_angle_alpha	90.000000
_cell_angle_beta	96.497000
_cell_angle_gamma	90.000000
_symmetry_Int_Tables_number 1

loop_
_symmetry_equiv_pos_as_xyz
'x,y,z'

loop_
_atom_site_label
_atom_site_type_symbol
_atom_site_fract_x
_atom_site_fract_y
_atom_site_fract_z
C11	C1	0.233100	0.244240	0.602100
C21	C2	0.387900	0.264790	0.677800
C31	C3	0.033400	0.025490	0.505100
C41	C4	0.033100	0.025050	0.000100
O11	O1	0.174000	0.210340	0.661600
O21	O2	0.435000	0.249970	0.800400
O31	O3	0.173300	0.264050	0.487900
O41	O4	0.454000	0.295080	0.608100
O51	O5	0.121200	0.037610	0.413000
O61	O6	0.145400	0.034450	0.093600
O71	O7	0.988300	0.050590	0.604500
O81	O8	0.967800	0.052610	0.907300
O91	O9	0.448700	0.033090	0.646000
O101	O10	0.555100	0.959600	0.714800
O111	O11	0.316300	0.962290	0.547500
O121	O12	0.302800	0.982620	0.793100
O131	O13	0.593900	0.147640	0.895600
O141	O14	0.498700	0.165040	0.654000
O151	O15	0.765000	0.189060	0.748100
O161	O16	0.710500	0.108220	0.704700
S11	S1	0.401760	0.984180	0.676520
S21	S2	0.644710	0.152720	0.749030
Nd11	Nd1	0.747520	0.024800	0.715680
Nd21	Nd2	0.319290	0.173870	0.871680
C51	C5	0.766900	0.744240	0.897900
C61	C6	0.612100	0.764790	0.822200
C71	C7	0.966600	0.525490	0.994900
C81	C8	0.966900	0.525050	0.499900
O171	O17	0.826000	0.710340	0.838400
O181	O18	0.565000	0.749970	0.699600
O191	O19	0.826700	0.764050	0.012100
O201	O20	0.546000	0.795080	0.891900
O211	O21	0.878800	0.537610	0.087000
O221	O22	0.854600	0.534450	0.406400
O231	O23	0.011700	0.550590	0.895500
O241	O24	0.032200	0.552610	0.592700
O251	O25	0.551300	0.533090	0.854000
O261	O26	0.444900	0.459600	0.785200
O271	O27	0.683700	0.462290	0.952500
O281	O28	0.697200	0.482620	0.706900
O291	O29	0.406100	0.647640	0.604400
O301	O30	0.501300	0.665040	0.846000
O311	O31	0.235000	0.689060	0.751900
O321	O32	0.289500	0.608220	0.795300
S31	S3	0.598240	0.484180	0.823480
S41	S4	0.355290	0.652720	0.750970
Nd31	Nd3	0.252480	0.524800	0.784320
Nd41	Nd4	0.680710	0.673870	0.628320
C91	C9	0.766900	0.755760	0.397900
C101	C10	0.612100	0.735210	0.322200
C111	C11	0.966600	0.974510	0.494900
C121	C12	0.966900	0.974950	0.999900
O331	O33	0.826000	0.789660	0.338400
O341	O34	0.565000	0.750030	0.199600
O351	O35	0.826700	0.735950	0.512100
O361	O36	0.546000	0.704920	0.391900
O371	O37	0.878800	0.962390	0.587000
O381	O38	0.854600	0.965550	0.906400
O391	O39	0.011700	0.949410	0.395500
O401	O40	0.032200	0.947390	0.092700
O411	O41	0.551300	0.966910	0.354000
O421	O42	0.444900	0.040400	0.285200
O431	O43	0.683700	0.037710	0.452500
O441	O44	0.697200	0.017380	0.206900
O451	O45	0.406100	0.852360	0.104400
O461	O46	0.501300	0.834960	0.346000
O471	O47	0.235000	0.810940	0.251900
O481	O48	0.289500	0.891780	0.295300
S51	S5	0.598240	0.015820	0.323480
S61	S6	0.355290	0.847280	0.250970
Nd51	Nd5	0.252480	0.975200	0.284320
Nd61	Nd6	0.680710	0.826130	0.128320
C131	C13	0.233100	0.255760	0.102100
C141	C14	0.387900	0.235210	0.177800
C151	C15	0.033400	0.474510	0.005100
C161	C16	0.033100	0.474950	0.500100
O491	O49	0.174000	0.289660	0.161600
O501	O50	0.435000	0.250030	0.300400
O511	O51	0.173300	0.235950	0.987900
O521	O52	0.454000	0.204920	0.108100
O531	O53	0.121200	0.462390	0.913000
O541	O54	0.145400	0.465550	0.593600
O551	O55	0.988300	0.449410	0.104500
O561	O56	0.967800	0.447390	0.407300
O571	O57	0.448700	0.466910	0.146000
O581	O58	0.555100	0.540400	0.214800
O591	O59	0.316300	0.537710	0.047500
O601	O60	0.302800	0.517380	0.293100
O611	O61	0.593900	0.352360	0.395600
O621	O62	0.498700	0.334960	0.154000
O631	O63	0.765000	0.310940	0.248100
O641	O64	0.710500	0.391780	0.204700
S71	S7	0.401760	0.515820	0.176520
S81	S8	0.644710	0.347280	0.249030
Nd71	Nd7	0.747520	0.475200	0.215680
Nd81	Nd8	0.319290	0.326130	0.371680
