data_MOXPIZ_charged_PM
_symmetry_space_group_name_H-M	'P1'
_cell_length_a	15.031000
_cell_length_b	39.952000
_cell_length_c	16.253000
_cell_angle_alpha	90.000000
_cell_angle_beta	90.000000
_cell_angle_gamma	90.000000
_symmetry_Int_Tables_number 1

loop_
_symmetry_equiv_pos_as_xyz
'x,y,z'

loop_
_atom_site_label
_atom_site_type_symbol
_atom_site_fract_x
_atom_site_fract_y
_atom_site_fract_z
Cu11	Cu1	0.750000	0.250000	0.500000
Cu21	Cu2	0.250000	0.750000	0.000000
H11	H1	0.400500	0.595100	0.380400
H21	H2	0.384900	0.640500	0.293800
H31	H3	0.143300	0.611300	0.233700
H41	H4	0.155500	0.564800	0.315900
H51	H5	0.358400	0.688200	0.243900
H61	H6	0.209500	0.512800	0.379600
H71	H7	0.169700	0.540100	0.440600
H81	H8	0.347400	0.730300	0.148700
H91	H9	0.146000	0.689100	0.044000
H101	H10	0.152300	0.644100	0.134000
H111	H11	0.184500	0.471500	0.574600
H121	H12	0.118100	0.497000	0.531300
H131	H13	0.047700	0.445700	0.576800
H141	H14	0.967500	0.396900	0.593700
H151	H15	0.073300	0.361400	0.384000
H161	H16	0.154200	0.409700	0.370600
H171	H17	0.881500	0.357600	0.592600
H181	H18	0.791200	0.310700	0.599400
H191	H19	0.917000	0.271000	0.411500
H201	H20	0.009100	0.316600	0.402300
H211	H21	0.099500	0.904900	0.380400
H221	H22	0.115100	0.859500	0.293800
H231	H23	0.356700	0.888700	0.233700
H241	H24	0.344500	0.935200	0.315900
H251	H25	0.141600	0.811800	0.243900
H261	H26	0.290500	0.987200	0.379600
H271	H27	0.330300	0.959900	0.440600
H281	H28	0.152600	0.769700	0.148700
H291	H29	0.354000	0.810900	0.044000
H301	H30	0.347700	0.855900	0.134000
H311	H31	0.315500	0.028500	0.574600
H321	H32	0.381900	0.003000	0.531300
H331	H33	0.452300	0.054300	0.576800
H341	H34	0.532500	0.103100	0.593700
H351	H35	0.426700	0.138600	0.384000
H361	H36	0.345800	0.090300	0.370600
H371	H37	0.618500	0.142400	0.592600
H381	H38	0.708800	0.189300	0.599400
H391	H39	0.583000	0.229000	0.411500
H401	H40	0.490900	0.183400	0.402300
H411	H41	0.400500	0.904900	0.619600
H421	H42	0.384900	0.859500	0.706200
H431	H43	0.143300	0.888700	0.766300
H441	H44	0.155500	0.935200	0.684100
H451	H45	0.358400	0.811800	0.756100
H461	H46	0.209500	0.987200	0.620400
H471	H47	0.169700	0.959900	0.559400
H481	H48	0.347400	0.769700	0.851300
H491	H49	0.146000	0.810900	0.956000
H501	H50	0.152300	0.855900	0.866000
H511	H51	0.184500	0.028500	0.425400
H521	H52	0.118100	0.003000	0.468700
H531	H53	0.047700	0.054300	0.423200
H541	H54	0.967500	0.103100	0.406300
H551	H55	0.073300	0.138600	0.616000
H561	H56	0.154200	0.090300	0.629400
H571	H57	0.881500	0.142400	0.407400
H581	H58	0.791200	0.189300	0.400600
H591	H59	0.917000	0.229000	0.588500
H601	H60	0.009100	0.183400	0.597700
H611	H61	0.099500	0.595100	0.619600
H621	H62	0.115100	0.640500	0.706200
H631	H63	0.356700	0.611300	0.766300
H641	H64	0.344500	0.564800	0.684100
H651	H65	0.141600	0.688200	0.756100
H661	H66	0.290500	0.512800	0.620400
H671	H67	0.330300	0.540100	0.559400
H681	H68	0.152600	0.730300	0.851300
H691	H69	0.354000	0.689100	0.956000
H701	H70	0.347700	0.644100	0.866000
H711	H71	0.315500	0.471500	0.425400
H721	H72	0.381900	0.497000	0.468700
H731	H73	0.452300	0.445700	0.423200
H741	H74	0.532500	0.396900	0.406300
H751	H75	0.426700	0.361400	0.616000
H761	H76	0.345800	0.409700	0.629400
H771	H77	0.618500	0.357600	0.407400
H781	H78	0.708800	0.310700	0.400600
H791	H79	0.583000	0.271000	0.588500
H801	H80	0.490900	0.316600	0.597700
C11	C1	0.279700	0.575400	0.357600
C21	C2	0.347500	0.598000	0.350500
C31	C3	0.337300	0.625400	0.298700
C41	C4	0.262400	0.631500	0.254900
C51	C5	0.196300	0.608100	0.263500
C61	C6	0.202600	0.580200	0.312700
C71	C7	0.256600	0.660100	0.199800
C81	C8	0.314300	0.687100	0.203000
C91	C9	0.223000	0.527100	0.427100
C101	C10	0.306400	0.712500	0.145300
C111	C11	0.190700	0.688800	0.084400
C121	C12	0.193900	0.661600	0.139200
C131	C13	0.171800	0.483500	0.523300
C141	C14	0.109900	0.432400	0.473400
C151	C15	0.053800	0.428400	0.538000
C161	C16	0.005200	0.399200	0.547900
C171	C17	0.011600	0.373000	0.490300
C181	C18	0.067900	0.378100	0.424300
C191	C19	0.116200	0.407100	0.416100
C201	C20	0.954700	0.342700	0.498300
C211	C21	0.890200	0.340100	0.554800
C221	C22	0.835500	0.311900	0.558700
C231	C23	0.909400	0.288700	0.448800
C241	C24	0.964700	0.315900	0.443000
C251	C25	0.220300	0.924600	0.357600
C261	C26	0.152500	0.902000	0.350500
C271	C27	0.162700	0.874600	0.298700
C281	C28	0.237600	0.868500	0.254900
C291	C29	0.303700	0.891900	0.263500
C301	C30	0.297400	0.919800	0.312700
C311	C31	0.243400	0.839900	0.199800
C321	C32	0.185700	0.812900	0.203000
C331	C33	0.277000	0.972900	0.427100
C341	C34	0.193600	0.787500	0.145300
C351	C35	0.309300	0.811200	0.084400
C361	C36	0.306100	0.838400	0.139200
C371	C37	0.328200	0.016500	0.523300
C381	C38	0.390100	0.067600	0.473400
C391	C39	0.446200	0.071600	0.538000
C401	C40	0.494800	0.100800	0.547900
C411	C41	0.488400	0.127000	0.490300
C421	C42	0.432100	0.121900	0.424300
C431	C43	0.383800	0.092900	0.416100
C441	C44	0.545300	0.157300	0.498300
C451	C45	0.609800	0.159900	0.554800
C461	C46	0.664500	0.188100	0.558700
C471	C47	0.590600	0.211300	0.448800
C481	C48	0.535300	0.184100	0.443000
C491	C49	0.279700	0.924600	0.642400
C501	C50	0.347500	0.902000	0.649500
C511	C51	0.337300	0.874600	0.701300
C521	C52	0.262400	0.868500	0.745100
C531	C53	0.196300	0.891900	0.736500
C541	C54	0.202600	0.919800	0.687300
C551	C55	0.256600	0.839900	0.800200
C561	C56	0.314300	0.812900	0.797000
C571	C57	0.223000	0.972900	0.572900
C581	C58	0.306400	0.787500	0.854700
C591	C59	0.190700	0.811200	0.915600
C601	C60	0.193900	0.838400	0.860800
C611	C61	0.171800	0.016500	0.476700
C621	C62	0.109900	0.067600	0.526600
C631	C63	0.053800	0.071600	0.462000
C641	C64	0.005200	0.100800	0.452100
C651	C65	0.011600	0.127000	0.509700
C661	C66	0.067900	0.121900	0.575700
C671	C67	0.116200	0.092900	0.583900
C681	C68	0.954700	0.157300	0.501700
C691	C69	0.890200	0.159900	0.445200
C701	C70	0.835500	0.188100	0.441300
C711	C71	0.909400	0.211300	0.551200
C721	C72	0.964700	0.184100	0.557000
C731	C73	0.220300	0.575400	0.642400
C741	C74	0.152500	0.598000	0.649500
C751	C75	0.162700	0.625400	0.701300
C761	C76	0.237600	0.631500	0.745100
C771	C77	0.303700	0.608100	0.736500
C781	C78	0.297400	0.580200	0.687300
C791	C79	0.243400	0.660100	0.800200
C801	C80	0.185700	0.687100	0.797000
C811	C81	0.277000	0.527100	0.572900
C821	C82	0.193600	0.712500	0.854700
C831	C83	0.309300	0.688800	0.915600
C841	C84	0.306100	0.661600	0.860800
C851	C85	0.328200	0.483500	0.476700
C861	C86	0.390100	0.432400	0.526600
C871	C87	0.446200	0.428400	0.462000
C881	C88	0.494800	0.399200	0.452100
C891	C89	0.488400	0.373000	0.509700
C901	C90	0.432100	0.378100	0.575700
C911	C91	0.383800	0.407100	0.583900
C921	C92	0.545300	0.342700	0.501700
C931	C93	0.609800	0.340100	0.445200
C941	C94	0.664500	0.311900	0.441300
C951	C95	0.590600	0.288700	0.551200
C961	C96	0.535300	0.315900	0.557000
C971	C97	0.250000	0.505700	0.500000
C981	C98	0.250000	0.994300	0.500000
N11	N1	0.247400	0.714000	0.086900
N21	N2	0.844900	0.286400	0.505400
N31	N3	0.252600	0.786000	0.086900
N41	N4	0.655100	0.213600	0.505400
N51	N5	0.247400	0.786000	0.913100
N61	N6	0.844900	0.213600	0.494600
N71	N7	0.252600	0.714000	0.913100
N81	N8	0.655100	0.286400	0.494600
O11	O1	0.158900	0.460300	0.457300
O21	O2	0.294600	0.549000	0.407900
O31	O3	0.341100	0.039700	0.457300
O41	O4	0.205400	0.951000	0.407900
O51	O5	0.158900	0.039700	0.542700
O61	O6	0.294600	0.951000	0.592100
O71	O7	0.341100	0.460300	0.542700
O81	O8	0.205400	0.549000	0.592100
Cu31	Cu3	0.250000	0.750000	0.500000
Cu41	Cu4	0.750000	0.250000	0.000000
H811	H81	0.599500	0.404900	0.619600
H821	H82	0.615100	0.359500	0.706200
H831	H83	0.856700	0.388700	0.766300
H841	H84	0.844500	0.435200	0.684100
H851	H85	0.641600	0.311800	0.756100
H861	H86	0.790500	0.487200	0.620400
H871	H87	0.830300	0.459900	0.559400
H881	H88	0.652600	0.269700	0.851300
H891	H89	0.854000	0.310900	0.956000
H901	H90	0.847700	0.355900	0.866000
H911	H91	0.815500	0.528500	0.425400
H921	H92	0.881900	0.503000	0.468700
H931	H93	0.952300	0.554300	0.423200
H941	H94	0.032500	0.603100	0.406300
H951	H95	0.926700	0.638600	0.616000
H961	H96	0.845800	0.590300	0.629400
H971	H97	0.118500	0.642400	0.407400
H981	H98	0.208800	0.689300	0.400600
H991	H99	0.083000	0.729000	0.588500
H1001	H100	0.990900	0.683400	0.597700
H1011	H101	0.900500	0.095100	0.619600
H1021	H102	0.884900	0.140500	0.706200
H1031	H103	0.643300	0.111300	0.766300
H1041	H104	0.655500	0.064800	0.684100
H1051	H105	0.858400	0.188200	0.756100
H1061	H106	0.709500	0.012800	0.620400
H1071	H107	0.669700	0.040100	0.559400
H1081	H108	0.847400	0.230300	0.851300
H1091	H109	0.646000	0.189100	0.956000
H1101	H110	0.652300	0.144100	0.866000
H1111	H111	0.684500	0.971500	0.425400
H1121	H112	0.618100	0.997000	0.468700
H1131	H113	0.547700	0.945700	0.423200
H1141	H114	0.467500	0.896900	0.406300
H1151	H115	0.573300	0.861400	0.616000
H1161	H116	0.654200	0.909700	0.629400
H1171	H117	0.381500	0.857600	0.407400
H1181	H118	0.291200	0.810700	0.400600
H1191	H119	0.417000	0.771000	0.588500
H1201	H120	0.509100	0.816600	0.597700
H1211	H121	0.599500	0.095100	0.380400
H1221	H122	0.615100	0.140500	0.293800
H1231	H123	0.856700	0.111300	0.233700
H1241	H124	0.844500	0.064800	0.315900
H1251	H125	0.641600	0.188200	0.243900
H1261	H126	0.790500	0.012800	0.379600
H1271	H127	0.830300	0.040100	0.440600
H1281	H128	0.652600	0.230300	0.148700
H1291	H129	0.854000	0.189100	0.044000
H1301	H130	0.847700	0.144100	0.134000
H1311	H131	0.815500	0.971500	0.574600
H1321	H132	0.881900	0.997000	0.531300
H1331	H133	0.952300	0.945700	0.576800
H1341	H134	0.032500	0.896900	0.593700
H1351	H135	0.926700	0.861400	0.384000
H1361	H136	0.845800	0.909700	0.370600
H1371	H137	0.118500	0.857600	0.592600
H1381	H138	0.208800	0.810700	0.599400
H1391	H139	0.083000	0.771000	0.411500
H1401	H140	0.990900	0.816600	0.402300
H1411	H141	0.900500	0.404900	0.380400
H1421	H142	0.884900	0.359500	0.293800
H1431	H143	0.643300	0.388700	0.233700
H1441	H144	0.655500	0.435200	0.315900
H1451	H145	0.858400	0.311800	0.243900
H1461	H146	0.709500	0.487200	0.379600
H1471	H147	0.669700	0.459900	0.440600
H1481	H148	0.847400	0.269700	0.148700
H1491	H149	0.646000	0.310900	0.044000
H1501	H150	0.652300	0.355900	0.134000
H1511	H151	0.684500	0.528500	0.574600
H1521	H152	0.618100	0.503000	0.531300
H1531	H153	0.547700	0.554300	0.576800
H1541	H154	0.467500	0.603100	0.593700
H1551	H155	0.573300	0.638600	0.384000
H1561	H156	0.654200	0.590300	0.370600
H1571	H157	0.381500	0.642400	0.592600
H1581	H158	0.291200	0.689300	0.599400
H1591	H159	0.417000	0.729000	0.411500
H1601	H160	0.509100	0.683400	0.402300
C991	C99	0.720300	0.424600	0.642400
C1001	C100	0.652500	0.402000	0.649500
C1011	C101	0.662700	0.374600	0.701300
C1021	C102	0.737600	0.368500	0.745100
C1031	C103	0.803700	0.391900	0.736500
C1041	C104	0.797400	0.419800	0.687300
C1051	C105	0.743400	0.339900	0.800200
C1061	C106	0.685700	0.312900	0.797000
C1071	C107	0.777000	0.472900	0.572900
C1081	C108	0.693600	0.287500	0.854700
C1091	C109	0.809300	0.311200	0.915600
C1101	C110	0.806100	0.338400	0.860800
C1111	C111	0.828200	0.516500	0.476700
C1121	C112	0.890100	0.567600	0.526600
C1131	C113	0.946200	0.571600	0.462000
C1141	C114	0.994800	0.600800	0.452100
C1151	C115	0.988400	0.627000	0.509700
C1161	C116	0.932100	0.621900	0.575700
C1171	C117	0.883800	0.592900	0.583900
C1181	C118	0.045300	0.657300	0.501700
C1191	C119	0.109800	0.659900	0.445200
C1201	C120	0.164500	0.688100	0.441300
C1211	C121	0.090600	0.711300	0.551200
C1221	C122	0.035300	0.684100	0.557000
C1231	C123	0.779700	0.075400	0.642400
C1241	C124	0.847500	0.098000	0.649500
C1251	C125	0.837300	0.125400	0.701300
C1261	C126	0.762400	0.131500	0.745100
C1271	C127	0.696300	0.108100	0.736500
C1281	C128	0.702600	0.080200	0.687300
C1291	C129	0.756600	0.160100	0.800200
C1301	C130	0.814300	0.187100	0.797000
C1311	C131	0.723000	0.027100	0.572900
C1321	C132	0.806400	0.212500	0.854700
C1331	C133	0.690700	0.188800	0.915600
C1341	C134	0.693900	0.161600	0.860800
C1351	C135	0.671800	0.983500	0.476700
C1361	C136	0.609900	0.932400	0.526600
C1371	C137	0.553800	0.928400	0.462000
C1381	C138	0.505200	0.899200	0.452100
C1391	C139	0.511600	0.873000	0.509700
C1401	C140	0.567900	0.878100	0.575700
C1411	C141	0.616200	0.907100	0.583900
C1421	C142	0.454700	0.842700	0.501700
C1431	C143	0.390200	0.840100	0.445200
C1441	C144	0.335500	0.811900	0.441300
C1451	C145	0.409400	0.788700	0.551200
C1461	C146	0.464700	0.815900	0.557000
C1471	C147	0.720300	0.075400	0.357600
C1481	C148	0.652500	0.098000	0.350500
C1491	C149	0.662700	0.125400	0.298700
C1501	C150	0.737600	0.131500	0.254900
C1511	C151	0.803700	0.108100	0.263500
C1521	C152	0.797400	0.080200	0.312700
C1531	C153	0.743400	0.160100	0.199800
C1541	C154	0.685700	0.187100	0.203000
C1551	C155	0.777000	0.027100	0.427100
C1561	C156	0.693600	0.212500	0.145300
C1571	C157	0.809300	0.188800	0.084400
C1581	C158	0.806100	0.161600	0.139200
C1591	C159	0.828200	0.983500	0.523300
C1601	C160	0.890100	0.932400	0.473400
C1611	C161	0.946200	0.928400	0.538000
C1621	C162	0.994800	0.899200	0.547900
C1631	C163	0.988400	0.873000	0.490300
C1641	C164	0.932100	0.878100	0.424300
C1651	C165	0.883800	0.907100	0.416100
C1661	C166	0.045300	0.842700	0.498300
C1671	C167	0.109800	0.840100	0.554800
C1681	C168	0.164500	0.811900	0.558700
C1691	C169	0.090600	0.788700	0.448800
C1701	C170	0.035300	0.815900	0.443000
C1711	C171	0.779700	0.424600	0.357600
C1721	C172	0.847500	0.402000	0.350500
C1731	C173	0.837300	0.374600	0.298700
C1741	C174	0.762400	0.368500	0.254900
C1751	C175	0.696300	0.391900	0.263500
C1761	C176	0.702600	0.419800	0.312700
C1771	C177	0.756600	0.339900	0.199800
C1781	C178	0.814300	0.312900	0.203000
C1791	C179	0.723000	0.472900	0.427100
C1801	C180	0.806400	0.287500	0.145300
C1811	C181	0.690700	0.311200	0.084400
C1821	C182	0.693900	0.338400	0.139200
C1831	C183	0.671800	0.516500	0.523300
C1841	C184	0.609900	0.567600	0.473400
C1851	C185	0.553800	0.571600	0.538000
C1861	C186	0.505200	0.600800	0.547900
C1871	C187	0.511600	0.627000	0.490300
C1881	C188	0.567900	0.621900	0.424300
C1891	C189	0.616200	0.592900	0.416100
C1901	C190	0.454700	0.657300	0.498300
C1911	C191	0.390200	0.659900	0.554800
C1921	C192	0.335500	0.688100	0.558700
C1931	C193	0.409400	0.711300	0.448800
C1941	C194	0.464700	0.684100	0.443000
C1951	C195	0.750000	0.494300	0.500000
C1961	C196	0.750000	0.005700	0.500000
N91	N9	0.752600	0.286000	0.913100
N101	N10	0.155100	0.713600	0.494600
N111	N11	0.747400	0.214000	0.913100
N121	N12	0.344900	0.786400	0.494600
N131	N13	0.752600	0.214000	0.086900
N141	N14	0.155100	0.786400	0.505400
N151	N15	0.747400	0.286000	0.086900
N161	N16	0.344900	0.713600	0.505400
O91	O9	0.841100	0.539700	0.542700
O101	O10	0.705400	0.451000	0.592100
O111	O11	0.658900	0.960300	0.542700
O121	O12	0.794600	0.049000	0.592100
O131	O13	0.841100	0.960300	0.457300
O141	O14	0.705400	0.049000	0.407900
O151	O15	0.658900	0.539700	0.457300
O161	O16	0.794600	0.451000	0.407900
N171	N17	0.083300	0.304600	0.268000
O171	O17	0.038000	0.277700	0.260000
O181	O18	0.157000	0.304200	0.307000
O191	O19	0.055000	0.331900	0.237000
N181	N18	0.416700	0.195400	0.268000
O201	O20	0.462000	0.222300	0.260000
O211	O21	0.343000	0.195800	0.307000
O221	O22	0.445000	0.168100	0.237000
N191	N19	0.083300	0.195400	0.732000
O231	O23	0.038000	0.222300	0.740000
O241	O24	0.157000	0.195800	0.693000
O251	O25	0.055000	0.168100	0.763000
N201	N20	0.416700	0.304600	0.732000
O261	O26	0.462000	0.277700	0.740000
O271	O27	0.343000	0.304200	0.693000
O281	O28	0.445000	0.331900	0.763000
N211	N21	0.916700	0.695400	0.732000
O291	O29	0.962000	0.722300	0.740000
O301	O30	0.843000	0.695800	0.693000
O311	O31	0.945000	0.668100	0.763000
N221	N22	0.583300	0.804600	0.732000
O321	O32	0.538000	0.777700	0.740000
O331	O33	0.657000	0.804200	0.693000
O341	O34	0.555000	0.831900	0.763000
N231	N23	0.916700	0.804600	0.268000
O351	O35	0.962000	0.777700	0.260000
O361	O36	0.843000	0.804200	0.307000
O371	O37	0.945000	0.831900	0.237000
N241	N24	0.583300	0.695400	0.268000
O381	O38	0.538000	0.722300	0.260000
O391	O39	0.657000	0.695800	0.307000
O401	O40	0.555000	0.668100	0.237000
