data_MOYNIY_clean_PM
_symmetry_space_group_name_H-M	'P1'
_cell_length_a	20.551100
_cell_length_b	21.500400
_cell_length_c	14.068100
_cell_angle_alpha	90.000000
_cell_angle_beta	130.547000
_cell_angle_gamma	90.000000
_symmetry_Int_Tables_number 1

loop_
_symmetry_equiv_pos_as_xyz
'x,y,z'

loop_
_atom_site_label
_atom_site_type_symbol
_atom_site_fract_x
_atom_site_fract_y
_atom_site_fract_z
O11	O1	0.872500	0.977800	0.144600
O21	O2	0.952800	0.959690	0.096100
O31	O3	0.588200	0.617600	0.392000
O41	O4	0.492800	0.589150	0.408700
C11	C1	0.834600	0.872100	0.911800
H11	H1	0.875000	0.887500	0.907600
C21	C2	0.828800	0.895800	0.998700
C31	C3	0.768500	0.872300	0.005000
H21	H2	0.764900	0.888900	0.062500
C41	C4	0.713500	0.824200	0.926300
H31	H3	0.674500	0.807700	0.932300
C51	C5	0.602000	0.714900	0.710700
H41	H4	0.582100	0.718100	0.753900
C61	C6	0.565900	0.672700	0.614500
H51	H5	0.522100	0.646800	0.593900
C71	C7	0.594400	0.668300	0.547300
C81	C8	0.661700	0.706100	0.579900
H61	H6	0.681400	0.703200	0.536400
C91	C9	0.774400	0.792400	0.732700
C101	C10	0.778500	0.824800	0.831500
C111	C11	0.718400	0.801300	0.837900
C121	C12	0.668700	0.752900	0.742500
C131	C13	0.698800	0.748000	0.677700
C141	C14	0.887500	0.947600	0.084800
C151	C15	0.556700	0.622300	0.443200
C161	C16	0.860100	0.753800	0.796700
H71	H7	0.853800	0.730700	0.731900
H81	H8	0.906700	0.783100	0.832100
C171	C17	0.884100	0.711200	0.892500
H91	H9	0.836700	0.683300	0.860300
H101	H10	0.896500	0.734100	0.962100
C181	C18	0.963000	0.673000	0.938800
H111	H11	0.976800	0.644200	0.001800
H121	H12	0.010600	0.700400	0.973700
H131	H13	0.951000	0.650500	0.870000
C191	C19	0.761100	0.835900	0.636500
H141	H14	0.809800	0.863800	0.678900
H151	H15	0.759900	0.811400	0.577500
C201	C20	0.685000	0.872300	0.568600
H161	H16	0.686300	0.897900	0.626600
H171	H17	0.635800	0.844900	0.526300
C211	C21	0.674800	0.915700	0.468400
H181	H18	0.623200	0.939700	0.425300
H191	H19	0.671700	0.890400	0.409400
H201	H20	0.723100	0.943100	0.510000
O51	O5	0.372500	0.477800	0.144600
O61	O6	0.452800	0.459690	0.096100
O71	O7	0.088200	0.117600	0.392000
O81	O8	0.992800	0.089150	0.408700
C221	C22	0.334600	0.372100	0.911800
H211	H21	0.375000	0.387500	0.907600
C231	C23	0.328800	0.395800	0.998700
C241	C24	0.268500	0.372300	0.005000
H221	H22	0.264900	0.388900	0.062500
C251	C25	0.213500	0.324200	0.926300
H231	H23	0.174500	0.307700	0.932300
C261	C26	0.102000	0.214900	0.710700
H241	H24	0.082100	0.218100	0.753900
C271	C27	0.065900	0.172700	0.614500
H251	H25	0.022100	0.146800	0.593900
C281	C28	0.094400	0.168300	0.547300
C291	C29	0.161700	0.206100	0.579900
H261	H26	0.181400	0.203200	0.536400
C301	C30	0.274400	0.292400	0.732700
C311	C31	0.278500	0.324800	0.831500
C321	C32	0.218400	0.301300	0.837900
C331	C33	0.168700	0.252900	0.742500
C341	C34	0.198800	0.248000	0.677700
C351	C35	0.387500	0.447600	0.084800
C361	C36	0.056700	0.122300	0.443200
C371	C37	0.360100	0.253800	0.796700
H271	H27	0.353800	0.230700	0.731900
H281	H28	0.406700	0.283100	0.832100
C381	C38	0.384100	0.211200	0.892500
H291	H29	0.336700	0.183300	0.860300
H301	H30	0.396500	0.234100	0.962100
C391	C39	0.463000	0.173000	0.938800
H311	H31	0.476800	0.144200	0.001800
H321	H32	0.510600	0.200400	0.973700
H331	H33	0.451000	0.150500	0.870000
C401	C40	0.261100	0.335900	0.636500
H341	H34	0.309800	0.363800	0.678900
H351	H35	0.259900	0.311400	0.577500
C411	C41	0.185000	0.372300	0.568600
H361	H36	0.186300	0.397900	0.626600
H371	H37	0.135800	0.344900	0.526300
C421	C42	0.174800	0.415700	0.468400
H381	H38	0.123200	0.439700	0.425300
H391	H39	0.171700	0.390400	0.409400
H401	H40	0.223100	0.443100	0.510000
O91	O9	0.127500	0.977800	0.355400
O101	O10	0.047200	0.959690	0.403900
O111	O11	0.411800	0.617600	0.108000
O121	O12	0.507200	0.589150	0.091300
C431	C43	0.165400	0.872100	0.588200
H411	H41	0.125000	0.887500	0.592400
C441	C44	0.171200	0.895800	0.501300
C451	C45	0.231500	0.872300	0.495000
H421	H42	0.235100	0.888900	0.437500
C461	C46	0.286500	0.824200	0.573700
H431	H43	0.325500	0.807700	0.567700
C471	C47	0.398000	0.714900	0.789300
H441	H44	0.417900	0.718100	0.746100
C481	C48	0.434100	0.672700	0.885500
H451	H45	0.477900	0.646800	0.906100
C491	C49	0.405600	0.668300	0.952700
C501	C50	0.338300	0.706100	0.920100
H461	H46	0.318600	0.703200	0.963600
C511	C51	0.225600	0.792400	0.767300
C521	C52	0.221500	0.824800	0.668500
C531	C53	0.281600	0.801300	0.662100
C541	C54	0.331300	0.752900	0.757500
C551	C55	0.301200	0.748000	0.822300
C561	C56	0.112500	0.947600	0.415200
C571	C57	0.443300	0.622300	0.056800
C581	C58	0.139900	0.753800	0.703300
H471	H47	0.146200	0.730700	0.768100
H481	H48	0.093300	0.783100	0.667900
C591	C59	0.115900	0.711200	0.607500
H491	H49	0.163300	0.683300	0.639700
H501	H50	0.103500	0.734100	0.537900
C601	C60	0.037000	0.673000	0.561200
H511	H51	0.023200	0.644200	0.498200
H521	H52	0.989400	0.700400	0.526300
H531	H53	0.049000	0.650500	0.630000
C611	C61	0.238900	0.835900	0.863500
H541	H54	0.190200	0.863800	0.821100
H551	H55	0.240100	0.811400	0.922500
C621	C62	0.315000	0.872300	0.931400
H561	H56	0.313700	0.897900	0.873400
H571	H57	0.364200	0.844900	0.973700
C631	C63	0.325200	0.915700	0.031600
H581	H58	0.376800	0.939700	0.074700
H591	H59	0.328300	0.890400	0.090600
H601	H60	0.276900	0.943100	0.990000
O131	O13	0.627500	0.477800	0.355400
O141	O14	0.547200	0.459690	0.403900
O151	O15	0.911800	0.117600	0.108000
O161	O16	0.007200	0.089150	0.091300
C641	C64	0.665400	0.372100	0.588200
H611	H61	0.625000	0.387500	0.592400
C651	C65	0.671200	0.395800	0.501300
C661	C66	0.731500	0.372300	0.495000
H621	H62	0.735100	0.388900	0.437500
C671	C67	0.786500	0.324200	0.573700
H631	H63	0.825500	0.307700	0.567700
C681	C68	0.898000	0.214900	0.789300
H641	H64	0.917900	0.218100	0.746100
C691	C69	0.934100	0.172700	0.885500
H651	H65	0.977900	0.146800	0.906100
C701	C70	0.905600	0.168300	0.952700
C711	C71	0.838300	0.206100	0.920100
H661	H66	0.818600	0.203200	0.963600
C721	C72	0.725600	0.292400	0.767300
C731	C73	0.721500	0.324800	0.668500
C741	C74	0.781600	0.301300	0.662100
C751	C75	0.831300	0.252900	0.757500
C761	C76	0.801200	0.248000	0.822300
C771	C77	0.612500	0.447600	0.415200
C781	C78	0.943300	0.122300	0.056800
C791	C79	0.639900	0.253800	0.703300
H671	H67	0.646200	0.230700	0.768100
H681	H68	0.593300	0.283100	0.667900
C801	C80	0.615900	0.211200	0.607500
H691	H69	0.663300	0.183300	0.639700
H701	H70	0.603500	0.234100	0.537900
C811	C81	0.537000	0.173000	0.561200
H711	H71	0.523200	0.144200	0.498200
H721	H72	0.489400	0.200400	0.526300
H731	H73	0.549000	0.150500	0.630000
C821	C82	0.738900	0.335900	0.863500
H741	H74	0.690200	0.363800	0.821100
H751	H75	0.740100	0.311400	0.922500
C831	C83	0.815000	0.372300	0.931400
H761	H76	0.813700	0.397900	0.873400
H771	H77	0.864200	0.344900	0.973700
C841	C84	0.825200	0.415700	0.031600
H781	H78	0.876800	0.439700	0.074700
H791	H79	0.828300	0.390400	0.090600
H801	H80	0.776900	0.443100	0.990000
O171	O17	0.127500	0.022200	0.855400
O181	O18	0.047200	0.040310	0.903900
O191	O19	0.411800	0.382400	0.608000
O201	O20	0.507200	0.410850	0.591300
C851	C85	0.165400	0.127900	0.088200
H811	H81	0.125000	0.112500	0.092400
C861	C86	0.171200	0.104200	0.001300
C871	C87	0.231500	0.127700	0.995000
H821	H82	0.235100	0.111100	0.937500
C881	C88	0.286500	0.175800	0.073700
H831	H83	0.325500	0.192300	0.067700
C891	C89	0.398000	0.285100	0.289300
H841	H84	0.417900	0.281900	0.246100
C901	C90	0.434100	0.327300	0.385500
H851	H85	0.477900	0.353200	0.406100
C911	C91	0.405600	0.331700	0.452700
C921	C92	0.338300	0.293900	0.420100
H861	H86	0.318600	0.296800	0.463600
C931	C93	0.225600	0.207600	0.267300
C941	C94	0.221500	0.175200	0.168500
C951	C95	0.281600	0.198700	0.162100
C961	C96	0.331300	0.247100	0.257500
C971	C97	0.301200	0.252000	0.322300
C981	C98	0.112500	0.052400	0.915200
C991	C99	0.443300	0.377700	0.556800
C1001	C100	0.139900	0.246200	0.203300
H871	H87	0.146200	0.269300	0.268100
H881	H88	0.093300	0.216900	0.167900
C1011	C101	0.115900	0.288800	0.107500
H891	H89	0.163300	0.316700	0.139700
H901	H90	0.103500	0.265900	0.037900
C1021	C102	0.037000	0.327000	0.061200
H911	H91	0.023200	0.355800	0.998200
H921	H92	0.989400	0.299600	0.026300
H931	H93	0.049000	0.349500	0.130000
C1031	C103	0.238900	0.164100	0.363500
H941	H94	0.190200	0.136200	0.321100
H951	H95	0.240100	0.188600	0.422500
C1041	C104	0.315000	0.127700	0.431400
H961	H96	0.313700	0.102100	0.373400
H971	H97	0.364200	0.155100	0.473700
C1051	C105	0.325200	0.084300	0.531600
H981	H98	0.376800	0.060300	0.574700
H991	H99	0.328300	0.109600	0.590600
H1001	H100	0.276900	0.056900	0.490000
O211	O21	0.627500	0.522200	0.855400
O221	O22	0.547200	0.540310	0.903900
O231	O23	0.911800	0.882400	0.608000
O241	O24	0.007200	0.910850	0.591300
C1061	C106	0.665400	0.627900	0.088200
H1011	H101	0.625000	0.612500	0.092400
C1071	C107	0.671200	0.604200	0.001300
C1081	C108	0.731500	0.627700	0.995000
H1021	H102	0.735100	0.611100	0.937500
C1091	C109	0.786500	0.675800	0.073700
H1031	H103	0.825500	0.692300	0.067700
C1101	C110	0.898000	0.785100	0.289300
H1041	H104	0.917900	0.781900	0.246100
C1111	C111	0.934100	0.827300	0.385500
H1051	H105	0.977900	0.853200	0.406100
C1121	C112	0.905600	0.831700	0.452700
C1131	C113	0.838300	0.793900	0.420100
H1061	H106	0.818600	0.796800	0.463600
C1141	C114	0.725600	0.707600	0.267300
C1151	C115	0.721500	0.675200	0.168500
C1161	C116	0.781600	0.698700	0.162100
C1171	C117	0.831300	0.747100	0.257500
C1181	C118	0.801200	0.752000	0.322300
C1191	C119	0.612500	0.552400	0.915200
C1201	C120	0.943300	0.877700	0.556800
C1211	C121	0.639900	0.746200	0.203300
H1071	H107	0.646200	0.769300	0.268100
H1081	H108	0.593300	0.716900	0.167900
C1221	C122	0.615900	0.788800	0.107500
H1091	H109	0.663300	0.816700	0.139700
H1101	H110	0.603500	0.765900	0.037900
C1231	C123	0.537000	0.827000	0.061200
H1111	H111	0.523200	0.855800	0.998200
H1121	H112	0.489400	0.799600	0.026300
H1131	H113	0.549000	0.849500	0.130000
C1241	C124	0.738900	0.664100	0.363500
H1141	H114	0.690200	0.636200	0.321100
H1151	H115	0.740100	0.688600	0.422500
C1251	C125	0.815000	0.627700	0.431400
H1161	H116	0.813700	0.602100	0.373400
H1171	H117	0.864200	0.655100	0.473700
C1261	C126	0.825200	0.584300	0.531600
H1181	H118	0.876800	0.560300	0.574700
H1191	H119	0.828300	0.609600	0.590600
H1201	H120	0.776900	0.556900	0.490000
O251	O25	0.872500	0.022200	0.644600
O261	O26	0.952800	0.040310	0.596100
O271	O27	0.588200	0.382400	0.892000
O281	O28	0.492800	0.410850	0.908700
C1271	C127	0.834600	0.127900	0.411800
H1211	H121	0.875000	0.112500	0.407600
C1281	C128	0.828800	0.104200	0.498700
C1291	C129	0.768500	0.127700	0.505000
H1221	H122	0.764900	0.111100	0.562500
C1301	C130	0.713500	0.175800	0.426300
H1231	H123	0.674500	0.192300	0.432300
C1311	C131	0.602000	0.285100	0.210700
H1241	H124	0.582100	0.281900	0.253900
C1321	C132	0.565900	0.327300	0.114500
H1251	H125	0.522100	0.353200	0.093900
C1331	C133	0.594400	0.331700	0.047300
C1341	C134	0.661700	0.293900	0.079900
H1261	H126	0.681400	0.296800	0.036400
C1351	C135	0.774400	0.207600	0.232700
C1361	C136	0.778500	0.175200	0.331500
C1371	C137	0.718400	0.198700	0.337900
C1381	C138	0.668700	0.247100	0.242500
C1391	C139	0.698800	0.252000	0.177700
C1401	C140	0.887500	0.052400	0.584800
C1411	C141	0.556700	0.377700	0.943200
C1421	C142	0.860100	0.246200	0.296700
H1271	H127	0.853800	0.269300	0.231900
H1281	H128	0.906700	0.216900	0.332100
C1431	C143	0.884100	0.288800	0.392500
H1291	H129	0.836700	0.316700	0.360300
H1301	H130	0.896500	0.265900	0.462100
C1441	C144	0.963000	0.327000	0.438800
H1311	H131	0.976800	0.355800	0.501800
H1321	H132	0.010600	0.299600	0.473700
H1331	H133	0.951000	0.349500	0.370000
C1451	C145	0.761100	0.164100	0.136500
H1341	H134	0.809800	0.136200	0.178900
H1351	H135	0.759900	0.188600	0.077500
C1461	C146	0.685000	0.127700	0.068600
H1361	H136	0.686300	0.102100	0.126600
H1371	H137	0.635800	0.155100	0.026300
C1471	C147	0.674800	0.084300	0.968400
H1381	H138	0.623200	0.060300	0.925300
H1391	H139	0.671700	0.109600	0.909400
H1401	H140	0.723100	0.056900	0.010000
O291	O29	0.372500	0.522200	0.644600
O301	O30	0.452800	0.540310	0.596100
O311	O31	0.088200	0.882400	0.892000
O321	O32	0.992800	0.910850	0.908700
C1481	C148	0.334600	0.627900	0.411800
H1411	H141	0.375000	0.612500	0.407600
C1491	C149	0.328800	0.604200	0.498700
C1501	C150	0.268500	0.627700	0.505000
H1421	H142	0.264900	0.611100	0.562500
C1511	C151	0.213500	0.675800	0.426300
H1431	H143	0.174500	0.692300	0.432300
C1521	C152	0.102000	0.785100	0.210700
H1441	H144	0.082100	0.781900	0.253900
C1531	C153	0.065900	0.827300	0.114500
H1451	H145	0.022100	0.853200	0.093900
C1541	C154	0.094400	0.831700	0.047300
C1551	C155	0.161700	0.793900	0.079900
H1461	H146	0.181400	0.796800	0.036400
C1561	C156	0.274400	0.707600	0.232700
C1571	C157	0.278500	0.675200	0.331500
C1581	C158	0.218400	0.698700	0.337900
C1591	C159	0.168700	0.747100	0.242500
C1601	C160	0.198800	0.752000	0.177700
C1611	C161	0.387500	0.552400	0.584800
C1621	C162	0.056700	0.877700	0.943200
C1631	C163	0.360100	0.746200	0.296700
H1471	H147	0.353800	0.769300	0.231900
H1481	H148	0.406700	0.716900	0.332100
C1641	C164	0.384100	0.788800	0.392500
H1491	H149	0.336700	0.816700	0.360300
H1501	H150	0.396500	0.765900	0.462100
C1651	C165	0.463000	0.827000	0.438800
H1511	H151	0.476800	0.855800	0.501800
H1521	H152	0.510600	0.799600	0.473700
H1531	H153	0.451000	0.849500	0.370000
C1661	C166	0.261100	0.664100	0.136500
H1541	H154	0.309800	0.636200	0.178900
H1551	H155	0.259900	0.688600	0.077500
C1671	C167	0.185000	0.627700	0.068600
H1561	H156	0.186300	0.602100	0.126600
H1571	H157	0.135800	0.655100	0.026300
C1681	C168	0.174800	0.584300	0.968400
H1581	H158	0.123200	0.560300	0.925300
H1591	H159	0.171700	0.609600	0.909400
H1601	H160	0.223100	0.556900	0.010000
Cd11	Cd1	0.000000	0.041310	0.250000
Cd21	Cd2	0.500000	0.541310	0.250000
Cd31	Cd3	0.000000	0.958690	0.750000
Cd41	Cd4	0.500000	0.458690	0.750000
Cd51	Cd5	0.000000	0.000000	0.000000
Cd61	Cd6	0.500000	0.500000	0.000000
Cd71	Cd7	0.000000	0.000000	0.500000
Cd81	Cd8	0.500000	0.500000	0.500000
