data_MUBQIJ_clean_PM
_symmetry_space_group_name_H-M	'P1'
_cell_length_a	32.223000
_cell_length_b	32.223000
_cell_length_c	20.827300
_cell_angle_alpha	90.000000
_cell_angle_beta	90.000000
_cell_angle_gamma	120.000000
_symmetry_Int_Tables_number 1

loop_
_symmetry_equiv_pos_as_xyz
'x,y,z'

loop_
_atom_site_label
_atom_site_type_symbol
_atom_site_fract_x
_atom_site_fract_y
_atom_site_fract_z
Ag11	Ag1	0.149320	0.045900	0.231130
Ag21	Ag2	0.370390	0.047750	0.330300
N11	N1	0.303900	0.058500	0.309400
N21	N2	0.220500	0.057400	0.268600
C11	C1	0.245900	0.047300	0.228300
C21	C2	0.287600	0.047400	0.249300
C31	C3	0.278900	0.070900	0.349400
C41	C4	0.295500	0.084200	0.414200
H11	H1	0.324100	0.085300	0.427900
C51	C5	0.270000	0.095200	0.455600
H21	H2	0.280300	0.102400	0.499000
C61	C6	0.228400	0.096100	0.435800
H31	H3	0.212200	0.105700	0.465200
C71	C7	0.210800	0.082900	0.372600
H41	H4	0.182500	0.082500	0.359100
C81	C8	0.237000	0.070200	0.330300
N31	N3	0.189000	0.033300	0.145600
N41	N4	0.242100	0.012600	0.057600
C91	C9	0.256500	0.024400	0.117200
C101	C10	0.229200	0.035200	0.163200
C111	C11	0.173700	0.022300	0.082900
C121	C12	0.132000	0.020400	0.064200
H51	H5	0.113400	0.026400	0.094100
C131	C13	0.117800	0.009700	0.001500
H61	H6	0.088900	0.008500	0.988400
C141	C14	0.143300	0.000700	0.957500
H71	H7	0.132200	0.993700	0.914400
C151	C15	0.185400	0.001400	0.974100
H81	H8	0.202900	0.994700	0.943200
C161	C16	0.201600	0.012500	0.038600
N51	N5	0.322300	0.011900	0.097900
N61	N6	0.352200	0.032000	0.225900
C171	C17	0.314600	0.034400	0.204800
C181	C18	0.299600	0.023200	0.139000
C191	C19	0.361600	0.010300	0.118200
C201	C20	0.386600	0.997700	0.075400
H91	H9	0.376500	0.990200	0.032000
C211	C21	0.426800	0.996200	0.097100
H101	H10	0.444400	0.988500	0.067800
C221	C22	0.441400	0.005900	0.160600
H111	H11	0.468800	0.004600	0.174200
C231	C23	0.416900	0.017300	0.203600
H121	H12	0.426900	0.023700	0.247200
C241	C24	0.376400	0.019500	0.183000
N71	N7	0.071500	0.976600	0.236900
N81	N8	0.975600	0.904400	0.236400
C251	C25	0.987700	0.950500	0.240000
C261	C26	0.036600	0.986600	0.240700
C271	C27	0.059400	0.930400	0.233200
C281	C28	0.095600	0.917200	0.226700
H131	H13	0.128600	0.941100	0.227700
C291	C29	0.082700	0.870700	0.219300
H141	H14	0.106900	0.862500	0.212800
C301	C30	0.035200	0.834600	0.221000
H151	H15	0.027600	0.802100	0.217600
C311	C31	0.998800	0.844800	0.227400
H161	H16	0.966300	0.819800	0.228300
C321	C32	0.010800	0.893600	0.232600
Ag31	Ag3	0.815990	0.379230	0.564460
Ag41	Ag4	0.037060	0.381080	0.663630
N91	N9	0.970570	0.391830	0.642730
N101	N10	0.887170	0.390730	0.601930
C331	C33	0.912570	0.380630	0.561630
C341	C34	0.954270	0.380730	0.582630
C351	C35	0.945570	0.404230	0.682730
C361	C36	0.962170	0.417530	0.747530
H171	H17	0.990770	0.418630	0.761230
C371	C37	0.936670	0.428530	0.788930
H181	H18	0.946970	0.435730	0.832330
C381	C38	0.895070	0.429430	0.769130
H191	H19	0.878870	0.439030	0.798530
C391	C39	0.877470	0.416230	0.705930
H201	H20	0.849170	0.415830	0.692430
C401	C40	0.903670	0.403530	0.663630
N111	N11	0.855670	0.366630	0.478930
N121	N12	0.908770	0.345930	0.390930
C411	C41	0.923170	0.357730	0.450530
C421	C42	0.895870	0.368530	0.496530
C431	C43	0.840370	0.355630	0.416230
C441	C44	0.798670	0.353730	0.397530
H211	H21	0.780070	0.359730	0.427430
C451	C45	0.784470	0.343030	0.334830
H221	H22	0.755570	0.341830	0.321730
C461	C46	0.809970	0.334030	0.290830
H231	H23	0.798870	0.327030	0.247730
C471	C47	0.852070	0.334730	0.307430
H241	H24	0.869570	0.328030	0.276530
C481	C48	0.868270	0.345830	0.371930
N131	N13	0.988970	0.345230	0.431230
N141	N14	0.018870	0.365330	0.559230
C491	C49	0.981270	0.367730	0.538130
C501	C50	0.966270	0.356530	0.472330
C511	C51	0.028270	0.343630	0.451530
C521	C52	0.053270	0.331030	0.408730
H251	H25	0.043170	0.323530	0.365330
C531	C53	0.093470	0.329530	0.430430
H261	H26	0.111070	0.321830	0.401130
C541	C54	0.108070	0.339230	0.493930
H271	H27	0.135470	0.337930	0.507530
C551	C55	0.083570	0.350630	0.536930
H281	H28	0.093570	0.357030	0.580530
C561	C56	0.043070	0.352830	0.516330
N151	N15	0.738170	0.309930	0.570230
N161	N16	0.642270	0.237730	0.569730
C571	C57	0.654370	0.283830	0.573330
C581	C58	0.703270	0.319930	0.574030
C591	C59	0.726070	0.263730	0.566530
C601	C60	0.762270	0.250530	0.560030
H291	H29	0.795270	0.274430	0.561030
C611	C61	0.749370	0.204030	0.552630
H301	H30	0.773570	0.195830	0.546130
C621	C62	0.701870	0.167930	0.554330
H311	H31	0.694270	0.135430	0.550930
C631	C63	0.665470	0.178130	0.560730
H321	H32	0.632970	0.153130	0.561630
C641	C64	0.677470	0.226930	0.565930
Ag51	Ag5	0.482650	0.712570	0.897800
Ag61	Ag6	0.703720	0.714420	0.996970
N171	N17	0.637230	0.725170	0.976070
N181	N18	0.553830	0.724070	0.935270
C651	C65	0.579230	0.713970	0.894970
C661	C66	0.620930	0.714070	0.915970
C671	C67	0.612230	0.737570	0.016070
C681	C68	0.628830	0.750870	0.080870
H331	H33	0.657430	0.751970	0.094570
C691	C69	0.603330	0.761870	0.122270
H341	H34	0.613630	0.769070	0.165670
C701	C70	0.561730	0.762770	0.102470
H351	H35	0.545530	0.772370	0.131870
C711	C71	0.544130	0.749570	0.039270
H361	H36	0.515830	0.749170	0.025770
C721	C72	0.570330	0.736870	0.996970
N191	N19	0.522330	0.699970	0.812270
N201	N20	0.575430	0.679270	0.724270
C731	C73	0.589830	0.691070	0.783870
C741	C74	0.562530	0.701870	0.829870
C751	C75	0.507030	0.688970	0.749570
C761	C76	0.465330	0.687070	0.730870
H371	H37	0.446730	0.693070	0.760770
C771	C77	0.451130	0.676370	0.668170
H381	H38	0.422230	0.675170	0.655070
C781	C78	0.476630	0.667370	0.624170
H391	H39	0.465530	0.660370	0.581070
C791	C79	0.518730	0.668070	0.640770
H401	H40	0.536230	0.661370	0.609870
C801	C80	0.534930	0.679170	0.705270
N211	N21	0.655630	0.678570	0.764570
N221	N22	0.685530	0.698670	0.892570
C811	C81	0.647930	0.701070	0.871470
C821	C82	0.632930	0.689870	0.805670
C831	C83	0.694930	0.676970	0.784870
C841	C84	0.719930	0.664370	0.742070
H411	H41	0.709830	0.656870	0.698670
C851	C85	0.760130	0.662870	0.763770
H421	H42	0.777730	0.655170	0.734470
C861	C86	0.774730	0.672570	0.827270
H431	H43	0.802130	0.671270	0.840870
C871	C87	0.750230	0.683970	0.870270
H441	H44	0.760230	0.690370	0.913870
C881	C88	0.709730	0.686170	0.849670
N231	N23	0.404830	0.643270	0.903570
N241	N24	0.308930	0.571070	0.903070
C891	C89	0.321030	0.617170	0.906670
C901	C90	0.369930	0.653270	0.907370
C911	C91	0.392730	0.597070	0.899870
C921	C92	0.428930	0.583870	0.893370
H451	H45	0.461930	0.607770	0.894370
C931	C93	0.416030	0.537370	0.885970
H461	H46	0.440230	0.529170	0.879470
C941	C94	0.368530	0.501270	0.887670
H471	H47	0.360930	0.468770	0.884270
C951	C95	0.332130	0.511470	0.894070
H481	H48	0.299630	0.486470	0.894970
C961	C96	0.344130	0.560270	0.899270
Ag71	Ag7	0.954100	0.103420	0.231130
Ag81	Ag8	0.952250	0.322640	0.330300
N251	N25	0.941500	0.245400	0.309400
N261	N26	0.942600	0.163100	0.268600
C971	C97	0.952700	0.198600	0.228300
C981	C98	0.952600	0.240200	0.249300
C991	C99	0.929100	0.208000	0.349400
C1001	C100	0.915800	0.211300	0.414200
H491	H49	0.914700	0.238800	0.427900
C1011	C101	0.904800	0.174800	0.455600
H501	H50	0.897600	0.177900	0.499000
C1021	C102	0.903900	0.132300	0.435800
H511	H51	0.894300	0.106500	0.465200
C1031	C103	0.917100	0.127900	0.372600
H521	H52	0.917500	0.100000	0.359100
C1041	C104	0.929800	0.166800	0.330300
N271	N27	0.966700	0.155700	0.145600
N281	N28	0.987400	0.229500	0.057600
C1051	C105	0.975600	0.232100	0.117200
C1061	C106	0.964800	0.194000	0.163200
C1071	C107	0.977700	0.151400	0.082900
C1081	C108	0.979600	0.111600	0.064200
H531	H53	0.973600	0.087000	0.094100
C1091	C109	0.990300	0.108100	0.001500
H541	H54	0.991500	0.080400	0.988400
C1101	C110	0.999300	0.142600	0.957500
H551	H55	0.006300	0.138500	0.914400
C1111	C111	0.998600	0.184000	0.974100
H561	H56	0.005300	0.208200	0.943200
C1121	C112	0.987500	0.189100	0.038600
N291	N29	0.988100	0.310400	0.097900
N301	N30	0.968000	0.320200	0.225900
C1131	C113	0.965600	0.280200	0.204800
C1141	C114	0.976800	0.276400	0.139000
C1151	C115	0.989700	0.351300	0.118200
C1161	C116	0.002300	0.388900	0.075400
H571	H57	0.009800	0.386300	0.032000
C1171	C117	0.003800	0.430600	0.097100
H581	H58	0.011500	0.455900	0.067800
C1181	C118	0.994100	0.435500	0.160600
H591	H59	0.995400	0.464200	0.174200
C1191	C119	0.982700	0.399600	0.203600
H601	H60	0.976300	0.403200	0.247200
C1201	C120	0.980500	0.356900	0.183000
N311	N31	0.023400	0.094900	0.236900
N321	N32	0.095600	0.071200	0.236400
C1211	C121	0.049500	0.037200	0.240000
C1221	C122	0.013400	0.050000	0.240700
C1231	C123	0.069600	0.129000	0.233200
C1241	C124	0.082800	0.178400	0.226700
H611	H61	0.058900	0.187500	0.227700
C1251	C125	0.129300	0.212000	0.219300
H621	H62	0.137500	0.244400	0.212800
C1261	C126	0.165400	0.200600	0.221000
H631	H63	0.197900	0.225500	0.217600
C1271	C127	0.155200	0.154000	0.227400
H641	H64	0.180200	0.146500	0.228300
C1281	C128	0.106400	0.117200	0.232600
Ag91	Ag9	0.620770	0.436750	0.564460
Ag101	Ag10	0.618920	0.655970	0.663630
N331	N33	0.608170	0.578730	0.642730
N341	N34	0.609270	0.496430	0.601930
C1291	C129	0.619370	0.531930	0.561630
C1301	C130	0.619270	0.573530	0.582630
C1311	C131	0.595770	0.541330	0.682730
C1321	C132	0.582470	0.544630	0.747530
H651	H65	0.581370	0.572130	0.761230
C1331	C133	0.571470	0.508130	0.788930
H661	H66	0.564270	0.511230	0.832330
C1341	C134	0.570570	0.465630	0.769130
H671	H67	0.560970	0.439830	0.798530
C1351	C135	0.583770	0.461230	0.705930
H681	H68	0.584170	0.433330	0.692430
C1361	C136	0.596470	0.500130	0.663630
N351	N35	0.633370	0.489030	0.478930
N361	N36	0.654070	0.562830	0.390930
C1371	C137	0.642270	0.565430	0.450530
C1381	C138	0.631470	0.527330	0.496530
C1391	C139	0.644370	0.484730	0.416230
C1401	C140	0.646270	0.444930	0.397530
H691	H69	0.640270	0.420330	0.427430
C1411	C141	0.656970	0.441430	0.334830
H701	H70	0.658170	0.413730	0.321730
C1421	C142	0.665970	0.475930	0.290830
H711	H71	0.672970	0.471830	0.247730
C1431	C143	0.665270	0.517330	0.307430
H721	H72	0.671970	0.541530	0.276530
C1441	C144	0.654170	0.522430	0.371930
N371	N37	0.654770	0.643730	0.431230
N381	N38	0.634670	0.653530	0.559230
C1451	C145	0.632270	0.613530	0.538130
C1461	C146	0.643470	0.609730	0.472330
C1471	C147	0.656370	0.684630	0.451530
C1481	C148	0.668970	0.722230	0.408730
H731	H73	0.676470	0.719630	0.365330
C1491	C149	0.670470	0.763930	0.430430
H741	H74	0.678170	0.789230	0.401130
C1501	C150	0.660770	0.768830	0.493930
H751	H75	0.662070	0.797530	0.507530
C1511	C151	0.649370	0.732930	0.536930
H761	H76	0.642970	0.736530	0.580530
C1521	C152	0.647170	0.690230	0.516330
N391	N39	0.690070	0.428230	0.570230
N401	N40	0.762270	0.404530	0.569730
C1531	C153	0.716170	0.370530	0.573330
C1541	C154	0.680070	0.383330	0.574030
C1551	C155	0.736270	0.462330	0.566530
C1561	C156	0.749470	0.511730	0.560030
H771	H77	0.725570	0.520830	0.561030
C1571	C157	0.795970	0.545330	0.552630
H781	H78	0.804170	0.577730	0.546130
C1581	C158	0.832070	0.533930	0.554330
H791	H79	0.864570	0.558830	0.550930
C1591	C159	0.821870	0.487330	0.560730
H801	H80	0.846870	0.479830	0.561630
C1601	C160	0.773070	0.450530	0.565930
Ag111	Ag11	0.287430	0.770090	0.897800
Ag121	Ag12	0.285580	0.989310	0.996970
N411	N41	0.274830	0.912070	0.976070
N421	N42	0.275930	0.829770	0.935270
C1611	C161	0.286030	0.865270	0.894970
C1621	C162	0.285930	0.906870	0.915970
C1631	C163	0.262430	0.874670	0.016070
C1641	C164	0.249130	0.877970	0.080870
H811	H81	0.248030	0.905470	0.094570
C1651	C165	0.238130	0.841470	0.122270
H821	H82	0.230930	0.844570	0.165670
C1661	C166	0.237230	0.798970	0.102470
H831	H83	0.227630	0.773170	0.131870
C1671	C167	0.250430	0.794570	0.039270
H841	H84	0.250830	0.766670	0.025770
C1681	C168	0.263130	0.833470	0.996970
N431	N43	0.300030	0.822370	0.812270
N441	N44	0.320730	0.896170	0.724270
C1691	C169	0.308930	0.898770	0.783870
C1701	C170	0.298130	0.860670	0.829870
C1711	C171	0.311030	0.818070	0.749570
C1721	C172	0.312930	0.778270	0.730870
H851	H85	0.306930	0.753670	0.760770
C1731	C173	0.323630	0.774770	0.668170
H861	H86	0.324830	0.747070	0.655070
C1741	C174	0.332630	0.809270	0.624170
H871	H87	0.339630	0.805170	0.581070
C1751	C175	0.331930	0.850670	0.640770
H881	H88	0.338630	0.874870	0.609870
C1761	C176	0.320830	0.855770	0.705270
N451	N45	0.321430	0.977070	0.764570
N461	N46	0.301330	0.986870	0.892570
C1771	C177	0.298930	0.946870	0.871470
C1781	C178	0.310130	0.943070	0.805670
C1791	C179	0.323030	0.017970	0.784870
C1801	C180	0.335630	0.055570	0.742070
H891	H89	0.343130	0.052970	0.698670
C1811	C181	0.337130	0.097270	0.763770
H901	H90	0.344830	0.122570	0.734470
C1821	C182	0.327430	0.102170	0.827270
H911	H91	0.328730	0.130870	0.840870
C1831	C183	0.316030	0.066270	0.870270
H921	H92	0.309630	0.069870	0.913870
C1841	C184	0.313830	0.023570	0.849670
N471	N47	0.356730	0.761570	0.903570
N481	N48	0.428930	0.737870	0.903070
C1851	C185	0.382830	0.703870	0.906670
C1861	C186	0.346730	0.716670	0.907370
C1871	C187	0.402930	0.795670	0.899870
C1881	C188	0.416130	0.845070	0.893370
H931	H93	0.392230	0.854170	0.894370
C1891	C189	0.462630	0.878670	0.885970
H941	H94	0.470830	0.911070	0.879470
C1901	C190	0.498730	0.867270	0.887670
H951	H95	0.531230	0.892170	0.884270
C1911	C191	0.488530	0.820670	0.894070
H961	H96	0.513530	0.813170	0.894970
C1921	C192	0.439730	0.783870	0.899270
Ag131	Ag13	0.896580	0.850680	0.231130
Ag141	Ag14	0.677360	0.629610	0.330300
N491	N49	0.754600	0.696100	0.309400
N501	N50	0.836900	0.779500	0.268600
C1931	C193	0.801400	0.754100	0.228300
C1941	C194	0.759800	0.712400	0.249300
C1951	C195	0.792000	0.721100	0.349400
C1961	C196	0.788700	0.704500	0.414200
H971	H97	0.761200	0.675900	0.427900
C1971	C197	0.825200	0.730000	0.455600
H981	H98	0.822100	0.719700	0.499000
C1981	C198	0.867700	0.771600	0.435800
H991	H99	0.893500	0.787800	0.465200
C1991	C199	0.872100	0.789200	0.372600
H1001	H100	0.900000	0.817500	0.359100
C2001	C200	0.833200	0.763000	0.330300
N511	N51	0.844300	0.811000	0.145600
N521	N52	0.770500	0.757900	0.057600
C2011	C201	0.767900	0.743500	0.117200
C2021	C202	0.806000	0.770800	0.163200
C2031	C203	0.848600	0.826300	0.082900
C2041	C204	0.888400	0.868000	0.064200
H1011	H101	0.913000	0.886600	0.094100
C2051	C205	0.891900	0.882200	0.001500
H1021	H102	0.919600	0.911100	0.988400
C2061	C206	0.857400	0.856700	0.957500
H1031	H103	0.861500	0.867800	0.914400
C2071	C207	0.816000	0.814600	0.974100
H1041	H104	0.791800	0.797100	0.943200
C2081	C208	0.810900	0.798400	0.038600
N531	N53	0.689600	0.677700	0.097900
N541	N54	0.679800	0.647800	0.225900
C2091	C209	0.719800	0.685400	0.204800
C2101	C210	0.723600	0.700400	0.139000
C2111	C211	0.648700	0.638400	0.118200
C2121	C212	0.611100	0.613400	0.075400
H1051	H105	0.613700	0.623500	0.032000
C2131	C213	0.569400	0.573200	0.097100
H1061	H106	0.544100	0.555600	0.067800
C2141	C214	0.564500	0.558600	0.160600
H1071	H107	0.535800	0.531200	0.174200
C2151	C215	0.600400	0.583100	0.203600
H1081	H108	0.596800	0.573100	0.247200
C2161	C216	0.643100	0.623600	0.183000
N551	N55	0.905100	0.928500	0.236900
N561	N56	0.928800	0.024400	0.236400
C2171	C217	0.962800	0.012300	0.240000
C2181	C218	0.950000	0.963400	0.240700
C2191	C219	0.871000	0.940600	0.233200
C2201	C220	0.821600	0.904400	0.226700
H1091	H109	0.812500	0.871400	0.227700
C2211	C221	0.788000	0.917300	0.219300
H1101	H110	0.755600	0.893100	0.212800
C2221	C222	0.799400	0.964800	0.221000
H1111	H111	0.774500	0.972400	0.217600
C2231	C223	0.846000	0.001200	0.227400
H1121	H112	0.853500	0.033700	0.228300
C2241	C224	0.882800	0.989200	0.232600
Ag151	Ag15	0.563250	0.184010	0.564460
Ag161	Ag16	0.344030	0.962940	0.663630
N571	N57	0.421270	0.029430	0.642730
N581	N58	0.503570	0.112830	0.601930
C2251	C225	0.468070	0.087430	0.561630
C2261	C226	0.426470	0.045730	0.582630
C2271	C227	0.458670	0.054430	0.682730
C2281	C228	0.455370	0.037830	0.747530
H1131	H113	0.427870	0.009230	0.761230
C2291	C229	0.491870	0.063330	0.788930
H1141	H114	0.488770	0.053030	0.832330
C2301	C230	0.534370	0.104930	0.769130
H1151	H115	0.560170	0.121130	0.798530
C2311	C231	0.538770	0.122530	0.705930
H1161	H116	0.566670	0.150830	0.692430
C2321	C232	0.499870	0.096330	0.663630
N591	N59	0.510970	0.144330	0.478930
N601	N60	0.437170	0.091230	0.390930
C2331	C233	0.434570	0.076830	0.450530
C2341	C234	0.472670	0.104130	0.496530
C2351	C235	0.515270	0.159630	0.416230
C2361	C236	0.555070	0.201330	0.397530
H1171	H117	0.579670	0.219930	0.427430
C2371	C237	0.558570	0.215530	0.334830
H1181	H118	0.586270	0.244430	0.321730
C2381	C238	0.524070	0.190030	0.290830
H1191	H119	0.528170	0.201130	0.247730
C2391	C239	0.482670	0.147930	0.307430
H1201	H120	0.458470	0.130430	0.276530
C2401	C240	0.477570	0.131730	0.371930
N611	N61	0.356270	0.011030	0.431230
N621	N62	0.346470	0.981130	0.559230
C2411	C241	0.386470	0.018730	0.538130
C2421	C242	0.390270	0.033730	0.472330
C2431	C243	0.315370	0.971730	0.451530
C2441	C244	0.277770	0.946730	0.408730
H1211	H121	0.280370	0.956830	0.365330
C2451	C245	0.236070	0.906530	0.430430
H1221	H122	0.210770	0.888930	0.401130
C2461	C246	0.231170	0.891930	0.493930
H1231	H123	0.202470	0.864530	0.507530
C2471	C247	0.267070	0.916430	0.536930
H1241	H124	0.263470	0.906430	0.580530
C2481	C248	0.309770	0.956930	0.516330
N631	N63	0.571770	0.261830	0.570230
N641	N64	0.595470	0.357730	0.569730
C2491	C249	0.629470	0.345630	0.573330
C2501	C250	0.616670	0.296730	0.574030
C2511	C251	0.537670	0.273930	0.566530
C2521	C252	0.488270	0.237730	0.560030
H1251	H125	0.479170	0.204730	0.561030
C2531	C253	0.454670	0.250630	0.552630
H1261	H126	0.422270	0.226430	0.546130
C2541	C254	0.466070	0.298130	0.554330
H1271	H127	0.441170	0.305730	0.550930
C2551	C255	0.512670	0.334530	0.560730
H1281	H128	0.520170	0.367030	0.561630
C2561	C256	0.549470	0.322530	0.565930
Ag171	Ag17	0.229910	0.517350	0.897800
Ag181	Ag18	0.010690	0.296280	0.996970
N651	N65	0.087930	0.362770	0.976070
N661	N66	0.170230	0.446170	0.935270
C2571	C257	0.134730	0.420770	0.894970
C2581	C258	0.093130	0.379070	0.915970
C2591	C259	0.125330	0.387770	0.016070
C2601	C260	0.122030	0.371170	0.080870
H1291	H129	0.094530	0.342570	0.094570
C2611	C261	0.158530	0.396670	0.122270
H1301	H130	0.155430	0.386370	0.165670
C2621	C262	0.201030	0.438270	0.102470
H1311	H131	0.226830	0.454470	0.131870
C2631	C263	0.205430	0.455870	0.039270
H1321	H132	0.233330	0.484170	0.025770
C2641	C264	0.166530	0.429670	0.996970
N671	N67	0.177630	0.477670	0.812270
N681	N68	0.103830	0.424570	0.724270
C2651	C265	0.101230	0.410170	0.783870
C2661	C266	0.139330	0.437470	0.829870
C2671	C267	0.181930	0.492970	0.749570
C2681	C268	0.221730	0.534670	0.730870
H1331	H133	0.246330	0.553270	0.760770
C2691	C269	0.225230	0.548870	0.668170
H1341	H134	0.252930	0.577770	0.655070
C2701	C270	0.190730	0.523370	0.624170
H1351	H135	0.194830	0.534470	0.581070
C2711	C271	0.149330	0.481270	0.640770
H1361	H136	0.125130	0.463770	0.609870
C2721	C272	0.144230	0.465070	0.705270
N691	N69	0.022930	0.344370	0.764570
N701	N70	0.013130	0.314470	0.892570
C2731	C273	0.053130	0.352070	0.871470
C2741	C274	0.056930	0.367070	0.805670
C2751	C275	0.982030	0.305070	0.784870
C2761	C276	0.944430	0.280070	0.742070
H1371	H137	0.947030	0.290170	0.698670
C2771	C277	0.902730	0.239870	0.763770
H1381	H138	0.877430	0.222270	0.734470
C2781	C278	0.897830	0.225270	0.827270
H1391	H139	0.869130	0.197870	0.840870
C2791	C279	0.933730	0.249770	0.870270
H1401	H140	0.930130	0.239770	0.913870
C2801	C280	0.976430	0.290270	0.849670
N711	N71	0.238430	0.595170	0.903570
N721	N72	0.262130	0.691070	0.903070
C2811	C281	0.296130	0.678970	0.906670
C2821	C282	0.283330	0.630070	0.907370
C2831	C283	0.204330	0.607270	0.899870
C2841	C284	0.154930	0.571070	0.893370
H1411	H141	0.145830	0.538070	0.894370
C2851	C285	0.121330	0.583970	0.885970
H1421	H142	0.088930	0.559770	0.879470
C2861	C286	0.132730	0.631470	0.887670
H1431	H143	0.107830	0.639070	0.884270
C2871	C287	0.179330	0.667870	0.894070
H1441	H144	0.186830	0.700370	0.894970
C2881	C288	0.216130	0.655870	0.899270
Ag191	Ag19	0.850680	0.954100	0.768870
Ag201	Ag20	0.629610	0.952250	0.669700
N731	N73	0.696100	0.941500	0.690600
N741	N74	0.779500	0.942600	0.731400
C2891	C289	0.754100	0.952700	0.771700
C2901	C290	0.712400	0.952600	0.750700
C2911	C291	0.721100	0.929100	0.650600
C2921	C292	0.704500	0.915800	0.585800
H1451	H145	0.675900	0.914700	0.572100
C2931	C293	0.730000	0.904800	0.544400
H1461	H146	0.719700	0.897600	0.501000
C2941	C294	0.771600	0.903900	0.564200
H1471	H147	0.787800	0.894300	0.534800
C2951	C295	0.789200	0.917100	0.627400
H1481	H148	0.817500	0.917500	0.640900
C2961	C296	0.763000	0.929800	0.669700
N751	N75	0.811000	0.966700	0.854400
N761	N76	0.757900	0.987400	0.942400
C2971	C297	0.743500	0.975600	0.882800
C2981	C298	0.770800	0.964800	0.836800
C2991	C299	0.826300	0.977700	0.917100
C3001	C300	0.868000	0.979600	0.935800
H1491	H149	0.886600	0.973600	0.905900
C3011	C301	0.882200	0.990300	0.998500
H1501	H150	0.911100	0.991500	0.011600
C3021	C302	0.856700	0.999300	0.042500
H1511	H151	0.867800	0.006300	0.085600
C3031	C303	0.814600	0.998600	0.025900
H1521	H152	0.797100	0.005300	0.056800
C3041	C304	0.798400	0.987500	0.961400
N771	N77	0.677700	0.988100	0.902100
N781	N78	0.647800	0.968000	0.774100
C3051	C305	0.685400	0.965600	0.795200
C3061	C306	0.700400	0.976800	0.861000
C3071	C307	0.638400	0.989700	0.881800
C3081	C308	0.613400	0.002300	0.924600
H1531	H153	0.623500	0.009800	0.968000
C3091	C309	0.573200	0.003800	0.902900
H1541	H154	0.555600	0.011500	0.932200
C3101	C310	0.558600	0.994100	0.839400
H1551	H155	0.531200	0.995400	0.825800
C3111	C311	0.583100	0.982700	0.796400
H1561	H156	0.573100	0.976300	0.752800
C3121	C312	0.623600	0.980500	0.817000
N791	N79	0.928500	0.023400	0.763100
N801	N80	0.024400	0.095600	0.763600
C3131	C313	0.012300	0.049500	0.760000
C3141	C314	0.963400	0.013400	0.759300
C3151	C315	0.940600	0.069600	0.766800
C3161	C316	0.904400	0.082800	0.773300
H1571	H157	0.871400	0.058900	0.772300
C3171	C317	0.917300	0.129300	0.780700
H1581	H158	0.893100	0.137500	0.787200
C3181	C318	0.964800	0.165400	0.779000
H1591	H159	0.972400	0.197900	0.782400
C3191	C319	0.001200	0.155200	0.772600
H1601	H160	0.033700	0.180200	0.771700
C3201	C320	0.989200	0.106400	0.767400
Ag211	Ag21	0.517350	0.287430	0.102200
Ag221	Ag22	0.296280	0.285580	0.003030
N811	N81	0.362770	0.274830	0.023930
N821	N82	0.446170	0.275930	0.064730
C3211	C321	0.420770	0.286030	0.105030
C3221	C322	0.379070	0.285930	0.084030
C3231	C323	0.387770	0.262430	0.983930
C3241	C324	0.371170	0.249130	0.919130
H1611	H161	0.342570	0.248030	0.905430
C3251	C325	0.396670	0.238130	0.877730
H1621	H162	0.386370	0.230930	0.834330
C3261	C326	0.438270	0.237230	0.897530
H1631	H163	0.454470	0.227630	0.868130
C3271	C327	0.455870	0.250430	0.960730
H1641	H164	0.484170	0.250830	0.974230
C3281	C328	0.429670	0.263130	0.003030
N831	N83	0.477670	0.300030	0.187730
N841	N84	0.424570	0.320730	0.275730
C3291	C329	0.410170	0.308930	0.216130
C3301	C330	0.437470	0.298130	0.170130
C3311	C331	0.492970	0.311030	0.250430
C3321	C332	0.534670	0.312930	0.269130
H1651	H165	0.553270	0.306930	0.239230
C3331	C333	0.548870	0.323630	0.331830
H1661	H166	0.577770	0.324830	0.344930
C3341	C334	0.523370	0.332630	0.375830
H1671	H167	0.534470	0.339630	0.418930
C3351	C335	0.481270	0.331930	0.359230
H1681	H168	0.463770	0.338630	0.390130
C3361	C336	0.465070	0.320830	0.294730
N851	N85	0.344370	0.321430	0.235430
N861	N86	0.314470	0.301330	0.107430
C3371	C337	0.352070	0.298930	0.128530
C3381	C338	0.367070	0.310130	0.194330
C3391	C339	0.305070	0.323030	0.215130
C3401	C340	0.280070	0.335630	0.257930
H1691	H169	0.290170	0.343130	0.301330
C3411	C341	0.239870	0.337130	0.236230
H1701	H170	0.222270	0.344830	0.265530
C3421	C342	0.225270	0.327430	0.172730
H1711	H171	0.197870	0.328730	0.159130
C3431	C343	0.249770	0.316030	0.129730
H1721	H172	0.239770	0.309630	0.086130
C3441	C344	0.290270	0.313830	0.150330
N871	N87	0.595170	0.356730	0.096430
N881	N88	0.691070	0.428930	0.096930
C3451	C345	0.678970	0.382830	0.093330
C3461	C346	0.630070	0.346730	0.092630
C3471	C347	0.607270	0.402930	0.100130
C3481	C348	0.571070	0.416130	0.106630
H1731	H173	0.538070	0.392230	0.105630
C3491	C349	0.583970	0.462630	0.114030
H1741	H174	0.559770	0.470830	0.120530
C3501	C350	0.631470	0.498730	0.112330
H1751	H175	0.639070	0.531230	0.115730
C3511	C351	0.667870	0.488530	0.105930
H1761	H176	0.700370	0.513530	0.105030
C3521	C352	0.655870	0.439730	0.100730
Ag231	Ag23	0.184010	0.620770	0.435540
Ag241	Ag24	0.962940	0.618920	0.336370
N891	N89	0.029430	0.608170	0.357270
N901	N90	0.112830	0.609270	0.398070
C3531	C353	0.087430	0.619370	0.438370
C3541	C354	0.045730	0.619270	0.417370
C3551	C355	0.054430	0.595770	0.317270
C3561	C356	0.037830	0.582470	0.252470
H1771	H177	0.009230	0.581370	0.238770
C3571	C357	0.063330	0.571470	0.211070
H1781	H178	0.053030	0.564270	0.167670
C3581	C358	0.104930	0.570570	0.230870
H1791	H179	0.121130	0.560970	0.201470
C3591	C359	0.122530	0.583770	0.294070
H1801	H180	0.150830	0.584170	0.307570
C3601	C360	0.096330	0.596470	0.336370
N911	N91	0.144330	0.633370	0.521070
N921	N92	0.091230	0.654070	0.609070
C3611	C361	0.076830	0.642270	0.549470
C3621	C362	0.104130	0.631470	0.503470
C3631	C363	0.159630	0.644370	0.583770
C3641	C364	0.201330	0.646270	0.602470
H1811	H181	0.219930	0.640270	0.572570
C3651	C365	0.215530	0.656970	0.665170
H1821	H182	0.244430	0.658170	0.678270
C3661	C366	0.190030	0.665970	0.709170
H1831	H183	0.201130	0.672970	0.752270
C3671	C367	0.147930	0.665270	0.692570
H1841	H184	0.130430	0.671970	0.723470
C3681	C368	0.131730	0.654170	0.628070
N931	N93	0.011030	0.654770	0.568770
N941	N94	0.981130	0.634670	0.440770
C3691	C369	0.018730	0.632270	0.461870
C3701	C370	0.033730	0.643470	0.527670
C3711	C371	0.971730	0.656370	0.548470
C3721	C372	0.946730	0.668970	0.591270
H1851	H185	0.956830	0.676470	0.634670
C3731	C373	0.906530	0.670470	0.569570
H1861	H186	0.888930	0.678170	0.598870
C3741	C374	0.891930	0.660770	0.506070
H1871	H187	0.864530	0.662070	0.492470
C3751	C375	0.916430	0.649370	0.463070
H1881	H188	0.906430	0.642970	0.419470
C3761	C376	0.956930	0.647170	0.483670
N951	N95	0.261830	0.690070	0.429770
N961	N96	0.357730	0.762270	0.430270
C3771	C377	0.345630	0.716170	0.426670
C3781	C378	0.296730	0.680070	0.425970
C3791	C379	0.273930	0.736270	0.433470
C3801	C380	0.237730	0.749470	0.439970
H1891	H189	0.204730	0.725570	0.438970
C3811	C381	0.250630	0.795970	0.447370
H1901	H190	0.226430	0.804170	0.453870
C3821	C382	0.298130	0.832070	0.445670
H1911	H191	0.305730	0.864570	0.449070
C3831	C383	0.334530	0.821870	0.439270
H1921	H192	0.367030	0.846870	0.438370
C3841	C384	0.322530	0.773070	0.434070
Ag251	Ag25	0.045900	0.896580	0.768870
Ag261	Ag26	0.047750	0.677360	0.669700
N971	N97	0.058500	0.754600	0.690600
N981	N98	0.057400	0.836900	0.731400
C3851	C385	0.047300	0.801400	0.771700
C3861	C386	0.047400	0.759800	0.750700
C3871	C387	0.070900	0.792000	0.650600
C3881	C388	0.084200	0.788700	0.585800
H1931	H193	0.085300	0.761200	0.572100
C3891	C389	0.095200	0.825200	0.544400
H1941	H194	0.102400	0.822100	0.501000
C3901	C390	0.096100	0.867700	0.564200
H1951	H195	0.105700	0.893500	0.534800
C3911	C391	0.082900	0.872100	0.627400
H1961	H196	0.082500	0.900000	0.640900
C3921	C392	0.070200	0.833200	0.669700
N991	N99	0.033300	0.844300	0.854400
N1001	N100	0.012600	0.770500	0.942400
C3931	C393	0.024400	0.767900	0.882800
C3941	C394	0.035200	0.806000	0.836800
C3951	C395	0.022300	0.848600	0.917100
C3961	C396	0.020400	0.888400	0.935800
H1971	H197	0.026400	0.913000	0.905900
C3971	C397	0.009700	0.891900	0.998500
H1981	H198	0.008500	0.919600	0.011600
C3981	C398	0.000700	0.857400	0.042500
H1991	H199	0.993700	0.861500	0.085600
C3991	C399	0.001400	0.816000	0.025900
H2001	H200	0.994700	0.791800	0.056800
C4001	C400	0.012500	0.810900	0.961400
N1011	N101	0.011900	0.689600	0.902100
N1021	N102	0.032000	0.679800	0.774100
C4011	C401	0.034400	0.719800	0.795200
C4021	C402	0.023200	0.723600	0.861000
C4031	C403	0.010300	0.648700	0.881800
C4041	C404	0.997700	0.611100	0.924600
H2011	H201	0.990200	0.613700	0.968000
C4051	C405	0.996200	0.569400	0.902900
H2021	H202	0.988500	0.544100	0.932200
C4061	C406	0.005900	0.564500	0.839400
H2031	H203	0.004600	0.535800	0.825800
C4071	C407	0.017300	0.600400	0.796400
H2041	H204	0.023700	0.596800	0.752800
C4081	C408	0.019500	0.643100	0.817000
N1031	N103	0.976600	0.905100	0.763100
N1041	N104	0.904400	0.928800	0.763600
C4091	C409	0.950500	0.962800	0.760000
C4101	C410	0.986600	0.950000	0.759300
C4111	C411	0.930400	0.871000	0.766800
C4121	C412	0.917200	0.821600	0.773300
H2051	H205	0.941100	0.812500	0.772300
C4131	C413	0.870700	0.788000	0.780700
H2061	H206	0.862500	0.755600	0.787200
C4141	C414	0.834600	0.799400	0.779000
H2071	H207	0.802100	0.774500	0.782400
C4151	C415	0.844800	0.846000	0.772600
H2081	H208	0.819800	0.853500	0.771700
C4161	C416	0.893600	0.882800	0.767400
Ag271	Ag27	0.712570	0.229910	0.102200
Ag281	Ag28	0.714420	0.010690	0.003030
N1051	N105	0.725170	0.087930	0.023930
N1061	N106	0.724070	0.170230	0.064730
C4171	C417	0.713970	0.134730	0.105030
C4181	C418	0.714070	0.093130	0.084030
C4191	C419	0.737570	0.125330	0.983930
C4201	C420	0.750870	0.122030	0.919130
H2091	H209	0.751970	0.094530	0.905430
C4211	C421	0.761870	0.158530	0.877730
H2101	H210	0.769070	0.155430	0.834330
C4221	C422	0.762770	0.201030	0.897530
H2111	H211	0.772370	0.226830	0.868130
C4231	C423	0.749570	0.205430	0.960730
H2121	H212	0.749170	0.233330	0.974230
C4241	C424	0.736870	0.166530	0.003030
N1071	N107	0.699970	0.177630	0.187730
N1081	N108	0.679270	0.103830	0.275730
C4251	C425	0.691070	0.101230	0.216130
C4261	C426	0.701870	0.139330	0.170130
C4271	C427	0.688970	0.181930	0.250430
C4281	C428	0.687070	0.221730	0.269130
H2131	H213	0.693070	0.246330	0.239230
C4291	C429	0.676370	0.225230	0.331830
H2141	H214	0.675170	0.252930	0.344930
C4301	C430	0.667370	0.190730	0.375830
H2151	H215	0.660370	0.194830	0.418930
C4311	C431	0.668070	0.149330	0.359230
H2161	H216	0.661370	0.125130	0.390130
C4321	C432	0.679170	0.144230	0.294730
N1091	N109	0.678570	0.022930	0.235430
N1101	N110	0.698670	0.013130	0.107430
C4331	C433	0.701070	0.053130	0.128530
C4341	C434	0.689870	0.056930	0.194330
C4351	C435	0.676970	0.982030	0.215130
C4361	C436	0.664370	0.944430	0.257930
H2171	H217	0.656870	0.947030	0.301330
C4371	C437	0.662870	0.902730	0.236230
H2181	H218	0.655170	0.877430	0.265530
C4381	C438	0.672570	0.897830	0.172730
H2191	H219	0.671270	0.869130	0.159130
C4391	C439	0.683970	0.933730	0.129730
H2201	H220	0.690370	0.930130	0.086130
C4401	C440	0.686170	0.976430	0.150330
N1111	N111	0.643270	0.238430	0.096430
N1121	N112	0.571070	0.262130	0.096930
C4411	C441	0.617170	0.296130	0.093330
C4421	C442	0.653270	0.283330	0.092630
C4431	C443	0.597070	0.204330	0.100130
C4441	C444	0.583870	0.154930	0.106630
H2211	H221	0.607770	0.145830	0.105630
C4451	C445	0.537370	0.121330	0.114030
H2221	H222	0.529170	0.088930	0.120530
C4461	C446	0.501270	0.132730	0.112330
H2231	H223	0.468770	0.107830	0.115730
C4471	C447	0.511470	0.179330	0.105930
H2241	H224	0.486470	0.186830	0.105030
C4481	C448	0.560270	0.216130	0.100730
Ag291	Ag29	0.379230	0.563250	0.435540
Ag301	Ag30	0.381080	0.344030	0.336370
N1131	N113	0.391830	0.421270	0.357270
N1141	N114	0.390730	0.503570	0.398070
C4491	C449	0.380630	0.468070	0.438370
C4501	C450	0.380730	0.426470	0.417370
C4511	C451	0.404230	0.458670	0.317270
C4521	C452	0.417530	0.455370	0.252470
H2251	H225	0.418630	0.427870	0.238770
C4531	C453	0.428530	0.491870	0.211070
H2261	H226	0.435730	0.488770	0.167670
C4541	C454	0.429430	0.534370	0.230870
H2271	H227	0.439030	0.560170	0.201470
C4551	C455	0.416230	0.538770	0.294070
H2281	H228	0.415830	0.566670	0.307570
C4561	C456	0.403530	0.499870	0.336370
N1151	N115	0.366630	0.510970	0.521070
N1161	N116	0.345930	0.437170	0.609070
C4571	C457	0.357730	0.434570	0.549470
C4581	C458	0.368530	0.472670	0.503470
C4591	C459	0.355630	0.515270	0.583770
C4601	C460	0.353730	0.555070	0.602470
H2291	H229	0.359730	0.579670	0.572570
C4611	C461	0.343030	0.558570	0.665170
H2301	H230	0.341830	0.586270	0.678270
C4621	C462	0.334030	0.524070	0.709170
H2311	H231	0.327030	0.528170	0.752270
C4631	C463	0.334730	0.482670	0.692570
H2321	H232	0.328030	0.458470	0.723470
C4641	C464	0.345830	0.477570	0.628070
N1171	N117	0.345230	0.356270	0.568770
N1181	N118	0.365330	0.346470	0.440770
C4651	C465	0.367730	0.386470	0.461870
C4661	C466	0.356530	0.390270	0.527670
C4671	C467	0.343630	0.315370	0.548470
C4681	C468	0.331030	0.277770	0.591270
H2331	H233	0.323530	0.280370	0.634670
C4691	C469	0.329530	0.236070	0.569570
H2341	H234	0.321830	0.210770	0.598870
C4701	C470	0.339230	0.231170	0.506070
H2351	H235	0.337930	0.202470	0.492470
C4711	C471	0.350630	0.267070	0.463070
H2361	H236	0.357030	0.263470	0.419470
C4721	C472	0.352830	0.309770	0.483670
N1191	N119	0.309930	0.571770	0.429770
N1201	N120	0.237730	0.595470	0.430270
C4731	C473	0.283830	0.629470	0.426670
C4741	C474	0.319930	0.616670	0.425970
C4751	C475	0.263730	0.537670	0.433470
C4761	C476	0.250530	0.488270	0.439970
H2371	H237	0.274430	0.479170	0.438970
C4771	C477	0.204030	0.454670	0.447370
H2381	H238	0.195830	0.422270	0.453870
C4781	C478	0.167930	0.466070	0.445670
H2391	H239	0.135430	0.441170	0.449070
C4791	C479	0.178130	0.512670	0.439270
H2401	H240	0.153130	0.520170	0.438370
C4801	C480	0.226930	0.549470	0.434070
Ag311	Ag31	0.103420	0.149320	0.768870
Ag321	Ag32	0.322640	0.370390	0.669700
N1211	N121	0.245400	0.303900	0.690600
N1221	N122	0.163100	0.220500	0.731400
C4811	C481	0.198600	0.245900	0.771700
C4821	C482	0.240200	0.287600	0.750700
C4831	C483	0.208000	0.278900	0.650600
C4841	C484	0.211300	0.295500	0.585800
H2411	H241	0.238800	0.324100	0.572100
C4851	C485	0.174800	0.270000	0.544400
H2421	H242	0.177900	0.280300	0.501000
C4861	C486	0.132300	0.228400	0.564200
H2431	H243	0.106500	0.212200	0.534800
C4871	C487	0.127900	0.210800	0.627400
H2441	H244	0.100000	0.182500	0.640900
C4881	C488	0.166800	0.237000	0.669700
N1231	N123	0.155700	0.189000	0.854400
N1241	N124	0.229500	0.242100	0.942400
C4891	C489	0.232100	0.256500	0.882800
C4901	C490	0.194000	0.229200	0.836800
C4911	C491	0.151400	0.173700	0.917100
C4921	C492	0.111600	0.132000	0.935800
H2451	H245	0.087000	0.113400	0.905900
C4931	C493	0.108100	0.117800	0.998500
H2461	H246	0.080400	0.088900	0.011600
C4941	C494	0.142600	0.143300	0.042500
H2471	H247	0.138500	0.132200	0.085600
C4951	C495	0.184000	0.185400	0.025900
H2481	H248	0.208200	0.202900	0.056800
C4961	C496	0.189100	0.201600	0.961400
N1251	N125	0.310400	0.322300	0.902100
N1261	N126	0.320200	0.352200	0.774100
C4971	C497	0.280200	0.314600	0.795200
C4981	C498	0.276400	0.299600	0.861000
C4991	C499	0.351300	0.361600	0.881800
C5001	C500	0.388900	0.386600	0.924600
H2491	H249	0.386300	0.376500	0.968000
C5011	C501	0.430600	0.426800	0.902900
H2501	H250	0.455900	0.444400	0.932200
C5021	C502	0.435500	0.441400	0.839400
H2511	H251	0.464200	0.468800	0.825800
C5031	C503	0.399600	0.416900	0.796400
H2521	H252	0.403200	0.426900	0.752800
C5041	C504	0.356900	0.376400	0.817000
N1271	N127	0.094900	0.071500	0.763100
N1281	N128	0.071200	0.975600	0.763600
C5051	C505	0.037200	0.987700	0.760000
C5061	C506	0.050000	0.036600	0.759300
C5071	C507	0.129000	0.059400	0.766800
C5081	C508	0.178400	0.095600	0.773300
H2531	H253	0.187500	0.128600	0.772300
C5091	C509	0.212000	0.082700	0.780700
H2541	H254	0.244400	0.106900	0.787200
C5101	C510	0.200600	0.035200	0.779000
H2551	H255	0.225500	0.027600	0.782400
C5111	C511	0.154000	0.998800	0.772600
H2561	H256	0.146500	0.966300	0.771700
C5121	C512	0.117200	0.010800	0.767400
Ag331	Ag33	0.770090	0.482650	0.102200
Ag341	Ag34	0.989310	0.703720	0.003030
N1291	N129	0.912070	0.637230	0.023930
N1301	N130	0.829770	0.553830	0.064730
C5131	C513	0.865270	0.579230	0.105030
C5141	C514	0.906870	0.620930	0.084030
C5151	C515	0.874670	0.612230	0.983930
C5161	C516	0.877970	0.628830	0.919130
H2571	H257	0.905470	0.657430	0.905430
C5171	C517	0.841470	0.603330	0.877730
H2581	H258	0.844570	0.613630	0.834330
C5181	C518	0.798970	0.561730	0.897530
H2591	H259	0.773170	0.545530	0.868130
C5191	C519	0.794570	0.544130	0.960730
H2601	H260	0.766670	0.515830	0.974230
C5201	C520	0.833470	0.570330	0.003030
N1311	N131	0.822370	0.522330	0.187730
N1321	N132	0.896170	0.575430	0.275730
C5211	C521	0.898770	0.589830	0.216130
C5221	C522	0.860670	0.562530	0.170130
C5231	C523	0.818070	0.507030	0.250430
C5241	C524	0.778270	0.465330	0.269130
H2611	H261	0.753670	0.446730	0.239230
C5251	C525	0.774770	0.451130	0.331830
H2621	H262	0.747070	0.422230	0.344930
C5261	C526	0.809270	0.476630	0.375830
H2631	H263	0.805170	0.465530	0.418930
C5271	C527	0.850670	0.518730	0.359230
H2641	H264	0.874870	0.536230	0.390130
C5281	C528	0.855770	0.534930	0.294730
N1331	N133	0.977070	0.655630	0.235430
N1341	N134	0.986870	0.685530	0.107430
C5291	C529	0.946870	0.647930	0.128530
C5301	C530	0.943070	0.632930	0.194330
C5311	C531	0.017970	0.694930	0.215130
C5321	C532	0.055570	0.719930	0.257930
H2651	H265	0.052970	0.709830	0.301330
C5331	C533	0.097270	0.760130	0.236230
H2661	H266	0.122570	0.777730	0.265530
C5341	C534	0.102170	0.774730	0.172730
H2671	H267	0.130870	0.802130	0.159130
C5351	C535	0.066270	0.750230	0.129730
H2681	H268	0.069870	0.760230	0.086130
C5361	C536	0.023570	0.709730	0.150330
N1351	N135	0.761570	0.404830	0.096430
N1361	N136	0.737870	0.308930	0.096930
C5371	C537	0.703870	0.321030	0.093330
C5381	C538	0.716670	0.369930	0.092630
C5391	C539	0.795670	0.392730	0.100130
C5401	C540	0.845070	0.428930	0.106630
H2691	H269	0.854170	0.461930	0.105630
C5411	C541	0.878670	0.416030	0.114030
H2701	H270	0.911070	0.440230	0.120530
C5421	C542	0.867270	0.368530	0.112330
H2711	H271	0.892170	0.360930	0.115730
C5431	C543	0.820670	0.332130	0.105930
H2721	H272	0.813170	0.299630	0.105030
C5441	C544	0.783870	0.344130	0.100730
Ag351	Ag35	0.436750	0.815990	0.435540
Ag361	Ag36	0.655970	0.037060	0.336370
N1371	N137	0.578730	0.970570	0.357270
N1381	N138	0.496430	0.887170	0.398070
C5451	C545	0.531930	0.912570	0.438370
C5461	C546	0.573530	0.954270	0.417370
C5471	C547	0.541330	0.945570	0.317270
C5481	C548	0.544630	0.962170	0.252470
H2731	H273	0.572130	0.990770	0.238770
C5491	C549	0.508130	0.936670	0.211070
H2741	H274	0.511230	0.946970	0.167670
C5501	C550	0.465630	0.895070	0.230870
H2751	H275	0.439830	0.878870	0.201470
C5511	C551	0.461230	0.877470	0.294070
H2761	H276	0.433330	0.849170	0.307570
C5521	C552	0.500130	0.903670	0.336370
N1391	N139	0.489030	0.855670	0.521070
N1401	N140	0.562830	0.908770	0.609070
C5531	C553	0.565430	0.923170	0.549470
C5541	C554	0.527330	0.895870	0.503470
C5551	C555	0.484730	0.840370	0.583770
C5561	C556	0.444930	0.798670	0.602470
H2771	H277	0.420330	0.780070	0.572570
C5571	C557	0.441430	0.784470	0.665170
H2781	H278	0.413730	0.755570	0.678270
C5581	C558	0.475930	0.809970	0.709170
H2791	H279	0.471830	0.798870	0.752270
C5591	C559	0.517330	0.852070	0.692570
H2801	H280	0.541530	0.869570	0.723470
C5601	C560	0.522430	0.868270	0.628070
N1411	N141	0.643730	0.988970	0.568770
N1421	N142	0.653530	0.018870	0.440770
C5611	C561	0.613530	0.981270	0.461870
C5621	C562	0.609730	0.966270	0.527670
C5631	C563	0.684630	0.028270	0.548470
C5641	C564	0.722230	0.053270	0.591270
H2811	H281	0.719630	0.043170	0.634670
C5651	C565	0.763930	0.093470	0.569570
H2821	H282	0.789230	0.111070	0.598870
C5661	C566	0.768830	0.108070	0.506070
H2831	H283	0.797530	0.135470	0.492470
C5671	C567	0.732930	0.083570	0.463070
H2841	H284	0.736530	0.093570	0.419470
C5681	C568	0.690230	0.043070	0.483670
N1431	N143	0.428230	0.738170	0.429770
N1441	N144	0.404530	0.642270	0.430270
C5691	C569	0.370530	0.654370	0.426670
C5701	C570	0.383330	0.703270	0.425970
C5711	C571	0.462330	0.726070	0.433470
C5721	C572	0.511730	0.762270	0.439970
H2851	H285	0.520830	0.795270	0.438970
C5731	C573	0.545330	0.749370	0.447370
H2861	H286	0.577730	0.773570	0.453870
C5741	C574	0.533930	0.701870	0.445670
H2871	H287	0.558830	0.694270	0.449070
C5751	C575	0.487330	0.665470	0.439270
H2881	H288	0.479830	0.632970	0.438370
C5761	C576	0.450530	0.677470	0.434070
