data_MUDLIH_manual_PM
_symmetry_space_group_name_H-M	'P1'
_cell_length_a	18.272100
_cell_length_b	18.272100
_cell_length_c	18.272100
_cell_angle_alpha	105.051000
_cell_angle_beta	105.051000
_cell_angle_gamma	118.728000
_symmetry_Int_Tables_number 1

loop_
_symmetry_equiv_pos_as_xyz
'x,y,z'

loop_
_atom_site_label
_atom_site_type_symbol
_atom_site_fract_x
_atom_site_fract_y
_atom_site_fract_z
Cd11	Cd1	0.409600	0.922160	0.123100
Cd21	Cd2	0.566780	0.186200	0.215060
Cd31	Cd3	0.570850	0.829890	0.206240
H11	H1	0.771540	0.272090	0.424920
H21	H2	0.816890	0.273840	0.344710
H31	H3	0.851040	0.236030	0.424660
H41	H4	0.146730	0.710550	0.158900
H51	H5	0.199740	0.790940	0.113520
H61	H6	0.228000	0.839430	0.228030
C11	C1	0.709800	0.137200	0.324000
C21	C2	0.792100	0.235500	0.383000
C31	C3	0.292900	0.772900	0.193800
C41	C4	0.212100	0.778800	0.172300
N11	N1	0.629400	0.111700	0.264500
N21	N2	0.575000	0.017100	0.226700
N31	N3	0.620200	0.988500	0.261700
N41	N4	0.705000	0.061800	0.323600
N51	N5	0.459100	0.000400	0.041700
N61	N6	0.520400	0.093500	0.070500
N71	N7	0.297300	0.713700	0.222600
N81	N8	0.379800	0.730200	0.233000
N91	N9	0.424300	0.796100	0.211800
N101	N10	0.370800	0.825300	0.187900
N111	N11	0.504100	0.804900	0.068800
N121	N12	0.439400	0.820600	0.041400
Cl11	Cl1	0.415230	0.057900	0.212950
Cl21	Cl2	0.493930	0.263100	0.161350
Cd41	Cd4	0.799060	0.286500	0.876900
Cd51	Cd5	0.971140	0.351720	0.784940
Cd61	Cd6	0.623650	0.364610	0.793760
H71	H7	0.927720	0.474930	0.655200
H81	H8	0.808540	0.421870	0.572520
H91	H9	0.851400	0.348390	0.577990
H101	H10	0.616080	0.003680	0.773790
H111	H11	0.549320	0.984690	0.836820
H121	H12	0.675060	0.085650	0.888940
C51	C5	0.813200	0.385800	0.676000
C61	C6	0.852500	0.409100	0.617000
C71	C7	0.579100	0.099100	0.806200
C81	C8	0.606500	0.039800	0.827700
N131	N13	0.847200	0.364900	0.735500
N141	N14	0.790400	0.348300	0.773300
N151	N15	0.726800	0.358500	0.738300
N161	N16	0.738200	0.381400	0.676400
N171	N17	0.958700	0.417400	0.958300
N181	N18	0.023000	0.449900	0.929500
N191	N19	0.491100	0.074700	0.777400
N201	N20	0.497200	0.146800	0.767000
N211	N21	0.584300	0.212500	0.788200
N221	N22	0.637400	0.182900	0.812100
N231	N23	0.736100	0.435300	0.931200
N241	N24	0.779200	0.398000	0.958600
Cl31	Cl3	0.844950	0.202280	0.787050
Cl41	Cl4	0.101750	0.332580	0.838650
Cd71	Cd7	0.077840	0.200940	0.487440
Cd81	Cd8	0.813800	0.028860	0.380580
Cd91	Cd9	0.170110	0.376350	0.740970
H131	H13	0.763960	0.192610	0.612530
H141	H14	0.728060	0.072960	0.549000
H151	H15	0.726030	0.146760	0.495990
H161	H16	0.255260	0.355500	0.425570
H171	H17	0.259260	0.458910	0.424380
H181	H18	0.144560	0.345130	0.383600
C91	C9	0.862800	0.186800	0.572600
C101	C10	0.764500	0.147500	0.556600
C111	C11	0.227100	0.420900	0.520000
C121	C12	0.221200	0.393500	0.433300
N251	N25	0.888300	0.152800	0.517700
N261	N26	0.982900	0.209600	0.557900
N271	N27	0.011500	0.273200	0.631700
N281	N28	0.938200	0.261800	0.643200
N291	N29	0.999600	0.041300	0.458700
N301	N30	0.906500	0.977000	0.426900
N311	N31	0.286300	0.508900	0.583600
N321	N32	0.269800	0.502800	0.649600
N331	N33	0.203900	0.415700	0.628200
N341	N34	0.174700	0.362600	0.545500
N351	N35	0.195100	0.263900	0.699200
N361	N36	0.179400	0.220800	0.618800
Cl51	Cl5	0.942100	0.155050	0.357330
Cl61	Cl6	0.736900	0.898250	0.230830
Cd101	Cd10	0.713500	0.590400	0.512560
Cd111	Cd11	0.648280	0.433220	0.619420
Cd121	Cd12	0.635390	0.429150	0.259040
H191	H19	0.534990	0.189710	0.466390
H201	H20	0.656460	0.225210	0.494060
H211	H21	0.563370	0.145610	0.382040
H221	H22	0.008190	0.854410	0.562990
H231	H23	0.004370	0.774490	0.610130
H241	H24	0.913420	0.796630	0.593320
C131	C13	0.614200	0.290200	0.427400
C141	C14	0.590900	0.207900	0.443400
C151	C15	0.900900	0.707100	0.480000
C161	C16	0.960200	0.787900	0.566700
N371	N37	0.635100	0.370600	0.482300
N381	N38	0.651700	0.425000	0.442100
N391	N39	0.641500	0.379800	0.368300
N401	N40	0.618600	0.295000	0.356800
N411	N41	0.582600	0.540900	0.541300
N421	N42	0.550100	0.479600	0.573100
N431	N43	0.925300	0.702700	0.416400
N441	N44	0.853200	0.620200	0.350400
N451	N45	0.787500	0.575700	0.371800
N461	N46	0.817100	0.629200	0.454500
N471	N47	0.564700	0.495900	0.300800
N481	N48	0.602000	0.560600	0.381200
Cl71	Cl7	0.797720	0.584770	0.642670
Cl81	Cl8	0.667420	0.506070	0.769170
Cd131	Cd13	0.200940	0.077840	0.487440
Cd141	Cd14	0.028860	0.813800	0.380580
Cd151	Cd15	0.376350	0.170110	0.740970
H251	H25	0.079260	0.732480	0.562010
H261	H26	0.199780	0.763270	0.605520
H271	H27	0.133300	0.722290	0.489990
H281	H28	0.400750	0.169190	0.391540
H291	H29	0.441080	0.293160	0.437780
H301	H30	0.317700	0.196730	0.404230
C171	C17	0.186800	0.862800	0.572600
C181	C18	0.147500	0.764500	0.556600
C191	C19	0.420900	0.227100	0.520000
C201	C20	0.393500	0.221200	0.433300
N491	N49	0.152800	0.888300	0.517700
N501	N50	0.209600	0.982900	0.557900
N511	N51	0.273200	0.011500	0.631700
N521	N52	0.261800	0.938200	0.643200
N531	N53	0.041300	0.999600	0.458700
N541	N54	0.977000	0.906500	0.426900
N551	N55	0.508900	0.286300	0.583600
N561	N56	0.502800	0.269800	0.649600
N571	N57	0.415700	0.203900	0.628200
N581	N58	0.362600	0.174700	0.545500
N591	N59	0.263900	0.195100	0.699200
N601	N60	0.220800	0.179400	0.618800
Cl91	Cl9	0.155050	0.942100	0.357330
Cl101	Cl10	0.898250	0.736900	0.230830
Cd161	Cd16	0.590400	0.713500	0.512560
Cd171	Cd17	0.433220	0.648280	0.619420
Cd181	Cd18	0.429150	0.635390	0.259040
H311	H31	0.231770	0.645900	0.508370
H321	H32	0.173120	0.519100	0.442070
H331	H33	0.155630	0.589810	0.392050
H341	H34	0.848020	0.023100	0.567380
H351	H35	0.811820	0.917290	0.584490
H361	H36	0.765690	0.985590	0.614570
C211	C21	0.290200	0.614200	0.427400
C221	C22	0.207900	0.590900	0.443400
C231	C23	0.707100	0.900900	0.480000
C241	C24	0.787900	0.960200	0.566700
N611	N61	0.370600	0.635100	0.482300
N621	N62	0.425000	0.651700	0.442100
N631	N63	0.379800	0.641500	0.368300
N641	N64	0.295000	0.618600	0.356800
N651	N65	0.540900	0.582600	0.541300
N661	N66	0.479600	0.550100	0.573100
N671	N67	0.702700	0.925300	0.416400
N681	N68	0.620200	0.853200	0.350400
N691	N69	0.575700	0.787500	0.371800
N701	N70	0.629200	0.817100	0.454500
N711	N71	0.495900	0.564700	0.300800
N721	N72	0.560600	0.602000	0.381200
Cl111	Cl11	0.584770	0.797720	0.642670
Cl121	Cl12	0.506070	0.667420	0.769170
Cd191	Cd19	0.286500	0.799060	0.876900
Cd201	Cd20	0.351720	0.971140	0.784940
Cd211	Cd21	0.364610	0.623650	0.793760
H371	H37	0.482140	0.921530	0.653520
H381	H38	0.355770	0.865250	0.587910
H391	H39	0.407270	0.800890	0.564280
H401	H40	0.984150	0.548930	0.836060
H411	H41	0.004360	0.616920	0.774140
H421	H42	0.085510	0.674610	0.889350
C251	C25	0.385800	0.813200	0.676000
C261	C26	0.409100	0.852500	0.617000
C271	C27	0.099100	0.579100	0.806200
C281	C28	0.039800	0.606500	0.827700
N731	N73	0.364900	0.847200	0.735500
N741	N74	0.348300	0.790400	0.773300
N751	N75	0.358500	0.726800	0.738300
N761	N76	0.381400	0.738200	0.676400
N771	N77	0.417400	0.958700	0.958300
N781	N78	0.449900	0.023000	0.929500
N791	N79	0.074700	0.491100	0.777400
N801	N80	0.146800	0.497200	0.767000
N811	N81	0.212500	0.584300	0.788200
N821	N82	0.182900	0.637400	0.812100
N831	N83	0.435300	0.736100	0.931200
N841	N84	0.398000	0.779200	0.958600
Cl131	Cl13	0.202280	0.844950	0.787050
Cl141	Cl14	0.332580	0.101750	0.838650
Cd221	Cd22	0.922160	0.409600	0.123100
Cd231	Cd23	0.186200	0.566780	0.215060
Cd241	Cd24	0.829890	0.570850	0.206240
H431	H43	0.237090	0.840220	0.438510
H441	H44	0.266190	0.831890	0.347670
H451	H45	0.278670	0.767360	0.408100
H461	H46	0.746270	0.171300	0.100270
H471	H47	0.739280	0.164220	0.198310
H481	H48	0.855360	0.238960	0.201870
C291	C29	0.137200	0.709800	0.324000
C301	C30	0.235500	0.792100	0.383000
C311	C31	0.772900	0.292900	0.193800
C321	C32	0.778800	0.212100	0.172300
N851	N85	0.111700	0.629400	0.264500
N861	N86	0.017100	0.575000	0.226700
N871	N87	0.988500	0.620200	0.261700
N881	N88	0.061800	0.705000	0.323600
N891	N89	0.000400	0.459100	0.041700
N901	N90	0.093500	0.520400	0.070500
N911	N91	0.713700	0.297300	0.222600
N921	N92	0.730200	0.379800	0.233000
N931	N93	0.796100	0.424300	0.211800
N941	N94	0.825300	0.370800	0.187900
N951	N95	0.804900	0.504100	0.068800
N961	N96	0.820600	0.439400	0.041400
Cl151	Cl15	0.057900	0.415230	0.212950
Cl161	Cl16	0.263100	0.493930	0.161350
C331	C33	0.512900	0.104900	0.000000
C341	C34	0.566900	0.199100	0.000000
C351	C35	0.501600	0.754400	0.000000
C361	C36	0.560200	0.720200	0.000000
Cl171	Cl17	0.244480	0.819420	0.000000
C371	C37	0.104900	0.512900	0.000000
C381	C38	0.199100	0.566900	0.000000
C391	C39	0.754400	0.501600	0.000000
C401	C40	0.720200	0.560200	0.000000
Cl181	Cl18	0.819420	0.244480	0.000000
C411	C41	0.895100	0.895100	0.408000
C421	C42	0.800900	0.800900	0.367800
C431	C43	0.245600	0.245600	0.747200
C441	C44	0.279800	0.279800	0.840000
Cl191	Cl19	0.180580	0.180580	0.425060
C451	C45	0.487100	0.487100	0.592000
C461	C46	0.433100	0.433100	0.632200
C471	C47	0.498400	0.498400	0.252800
C481	C48	0.439800	0.439800	0.160000
Cl201	Cl20	0.755520	0.755520	0.574940
Cl211	Cl21	0.500000	0.657880	0.157880
Cl221	Cl22	0.500000	0.342120	0.842120
Cl231	Cl23	0.342120	0.500000	0.842120
Cl241	Cl24	0.657880	0.500000	0.157880
H491	H49	0.541860	0.189190	0.931860
H501	H50	0.644860	0.230940	0.029240
H511	H51	0.554550	0.247930	0.038900
H521	H52	0.569950	0.711080	0.939920
H531	H53	0.524420	0.650020	0.001790
H541	H54	0.631470	0.773090	0.058290
H551	H55	0.189970	0.580680	0.942050
H561	H56	0.228510	0.524130	0.997570
H571	H57	0.249570	0.636450	0.060380
H581	H58	0.655910	0.530160	0.011750
H591	H59	0.700710	0.560980	0.935800
H601	H60	0.777580	0.634710	0.052450
H611	H61	0.812080	0.746610	0.375640
H621	H62	0.762620	0.778300	0.297240
H631	H63	0.757250	0.807040	0.400330
H641	H64	0.336970	0.358480	0.873870
H651	H65	0.309490	0.242540	0.861760
H661	H66	0.219340	0.264790	0.856020
H671	H67	0.435580	0.370390	0.623540
H681	H68	0.357150	0.407580	0.600300
H691	H69	0.466010	0.480770	0.702950
H701	H70	0.441330	0.376280	0.139350
H711	H71	0.468180	0.482500	0.125830
H721	H72	0.364650	0.415380	0.143170
