data_MUDTEL_clean_PM
_symmetry_space_group_name_H-M	'P1'
_cell_length_a	30.287500
_cell_length_b	30.287500
_cell_length_c	30.287500
_cell_angle_alpha	60.000000
_cell_angle_beta	60.000000
_cell_angle_gamma	60.000000
_symmetry_Int_Tables_number 1

loop_
_symmetry_equiv_pos_as_xyz
'x,y,z'

loop_
_atom_site_label
_atom_site_type_symbol
_atom_site_fract_x
_atom_site_fract_y
_atom_site_fract_z
Cu11	Cu1	0.350390	0.649610	0.000000
Cu21	Cu2	0.262440	0.737560	0.000000
Cu31	Cu3	0.649610	0.350390	0.000000
Cu41	Cu4	0.737560	0.262440	0.000000
Cu51	Cu5	0.000000	0.000000	0.350390
Cu61	Cu6	0.000000	0.000000	0.262440
Cu71	Cu7	0.000000	0.000000	0.649610
Cu81	Cu8	0.000000	0.000000	0.737560
Cu91	Cu9	0.350390	0.000000	0.000000
Cu101	Cu10	0.262440	0.000000	0.000000
Cu111	Cu11	0.649610	0.000000	0.000000
Cu121	Cu12	0.737560	0.000000	0.000000
Cu131	Cu13	0.000000	0.350390	0.649610
Cu141	Cu14	0.000000	0.262440	0.737560
Cu151	Cu15	0.000000	0.649610	0.350390
Cu161	Cu16	0.000000	0.737560	0.262440
Cu171	Cu17	0.350390	0.000000	0.649610
Cu181	Cu18	0.262440	0.000000	0.737560
Cu191	Cu19	0.649610	0.000000	0.350390
Cu201	Cu20	0.737560	0.000000	0.262440
Cu211	Cu21	0.000000	0.649610	0.000000
Cu221	Cu22	0.000000	0.737560	0.000000
Cu231	Cu23	0.000000	0.350390	0.000000
Cu241	Cu24	0.000000	0.262440	0.000000
H11	H1	0.302800	0.558600	0.968800
H21	H2	0.558600	0.302800	0.169800
H31	H3	0.968800	0.169800	0.302800
H41	H4	0.169800	0.968800	0.558600
H51	H5	0.302800	0.968800	0.169800
H61	H6	0.558600	0.169800	0.968800
H71	H7	0.968800	0.302800	0.558600
H81	H8	0.169800	0.558600	0.302800
H91	H9	0.302800	0.169800	0.558600
H101	H10	0.558600	0.968800	0.302800
H111	H11	0.968800	0.558600	0.169800
H121	H12	0.169800	0.302800	0.968800
H131	H13	0.441400	0.697200	0.031200
H141	H14	0.697200	0.441400	0.830200
H151	H15	0.830200	0.031200	0.697200
H161	H16	0.031200	0.830200	0.441400
H171	H17	0.031200	0.697200	0.830200
H181	H18	0.830200	0.441400	0.031200
H191	H19	0.697200	0.031200	0.441400
H201	H20	0.441400	0.830200	0.697200
H211	H21	0.830200	0.697200	0.441400
H221	H22	0.031200	0.441400	0.697200
H231	H23	0.441400	0.031200	0.830200
H241	H24	0.697200	0.830200	0.031200
H251	H25	0.697200	0.441400	0.031200
H261	H26	0.441400	0.697200	0.830200
H271	H27	0.031200	0.830200	0.697200
H281	H28	0.830200	0.031200	0.441400
H291	H29	0.697200	0.031200	0.830200
H301	H30	0.441400	0.830200	0.031200
H311	H31	0.031200	0.697200	0.441400
H321	H32	0.830200	0.441400	0.697200
H331	H33	0.697200	0.830200	0.441400
H341	H34	0.441400	0.031200	0.697200
H351	H35	0.031200	0.441400	0.830200
H361	H36	0.830200	0.697200	0.031200
H371	H37	0.558600	0.302800	0.968800
H381	H38	0.302800	0.558600	0.169800
H391	H39	0.169800	0.968800	0.302800
H401	H40	0.968800	0.169800	0.558600
H411	H41	0.968800	0.302800	0.169800
H421	H42	0.169800	0.558600	0.968800
H431	H43	0.302800	0.968800	0.558600
H441	H44	0.558600	0.169800	0.302800
H451	H45	0.169800	0.302800	0.558600
H461	H46	0.968800	0.558600	0.302800
H471	H47	0.558600	0.968800	0.169800
H481	H48	0.302800	0.169800	0.968800
H491	H49	0.165100	0.686100	0.983700
H501	H50	0.686100	0.165100	0.165100
H511	H51	0.983700	0.165100	0.165100
H521	H52	0.165100	0.983700	0.686100
H531	H53	0.165100	0.983700	0.165100
H541	H54	0.686100	0.165100	0.983700
H551	H55	0.983700	0.165100	0.686100
H561	H56	0.165100	0.686100	0.165100
H571	H57	0.165100	0.165100	0.686100
H581	H58	0.686100	0.983700	0.165100
H591	H59	0.983700	0.686100	0.165100
H601	H60	0.165100	0.165100	0.983700
H611	H61	0.313900	0.834900	0.016300
H621	H62	0.834900	0.313900	0.834900
H631	H63	0.834900	0.016300	0.834900
H641	H64	0.016300	0.834900	0.313900
H651	H65	0.016300	0.834900	0.834900
H661	H66	0.834900	0.313900	0.016300
H671	H67	0.834900	0.016300	0.313900
H681	H68	0.313900	0.834900	0.834900
H691	H69	0.834900	0.834900	0.313900
H701	H70	0.016300	0.313900	0.834900
H711	H71	0.313900	0.016300	0.834900
H721	H72	0.834900	0.834900	0.016300
H731	H73	0.261400	0.394600	0.949400
H741	H74	0.394600	0.261400	0.394600
H751	H75	0.949400	0.394600	0.261400
H761	H76	0.394600	0.949400	0.394600
H771	H77	0.261400	0.949400	0.394600
H781	H78	0.394600	0.394600	0.949400
H791	H79	0.949400	0.261400	0.394600
H801	H80	0.394600	0.394600	0.261400
H811	H81	0.261400	0.394600	0.394600
H821	H82	0.394600	0.949400	0.261400
H831	H83	0.949400	0.394600	0.394600
H841	H84	0.394600	0.261400	0.949400
H851	H85	0.605400	0.738600	0.050600
H861	H86	0.738600	0.605400	0.605400
H871	H87	0.605400	0.050600	0.738600
H881	H88	0.050600	0.605400	0.605400
H891	H89	0.050600	0.738600	0.605400
H901	H90	0.605400	0.605400	0.050600
H911	H91	0.738600	0.050600	0.605400
H921	H92	0.605400	0.605400	0.738600
H931	H93	0.605400	0.738600	0.605400
H941	H94	0.050600	0.605400	0.738600
H951	H95	0.605400	0.050600	0.605400
H961	H96	0.738600	0.605400	0.050600
C11	C1	0.264020	0.651600	0.984140
C21	C2	0.238080	0.626460	0.977060
C31	C3	0.266130	0.576210	0.970390
C41	C4	0.651600	0.264020	0.100240
C51	C5	0.626460	0.238080	0.158400
C61	C6	0.576210	0.266130	0.187270
C71	C7	0.984140	0.100240	0.264020
C81	C8	0.977060	0.158400	0.238080
C91	C9	0.970390	0.187270	0.266130
C101	C10	0.100240	0.984140	0.651600
C111	C11	0.158400	0.977060	0.626460
C121	C12	0.187270	0.970390	0.576210
C131	C13	0.264020	0.984140	0.100240
C141	C14	0.238080	0.977060	0.158400
C151	C15	0.266130	0.970390	0.187270
C161	C16	0.651600	0.100240	0.984140
C171	C17	0.626460	0.158400	0.977060
C181	C18	0.576210	0.187270	0.970390
C191	C19	0.984140	0.264020	0.651600
C201	C20	0.977060	0.238080	0.626460
C211	C21	0.970390	0.266130	0.576210
C221	C22	0.100240	0.651600	0.264020
C231	C23	0.158400	0.626460	0.238080
C241	C24	0.187270	0.576210	0.266130
C251	C25	0.264020	0.100240	0.651600
C261	C26	0.238080	0.158400	0.626460
C271	C27	0.266130	0.187270	0.576210
C281	C28	0.651600	0.984140	0.264020
C291	C29	0.626460	0.977060	0.238080
C301	C30	0.576210	0.970390	0.266130
C311	C31	0.984140	0.651600	0.100240
C321	C32	0.977060	0.626460	0.158400
C331	C33	0.970390	0.576210	0.187270
C341	C34	0.100240	0.264020	0.984140
C351	C35	0.158400	0.238080	0.977060
C361	C36	0.187270	0.266130	0.970390
C371	C37	0.348400	0.735980	0.015860
C381	C38	0.373540	0.761920	0.022940
C391	C39	0.423790	0.733870	0.029610
C401	C40	0.735980	0.348400	0.899760
C411	C41	0.761920	0.373540	0.841600
C421	C42	0.733870	0.423790	0.812730
C431	C43	0.899760	0.015860	0.735980
C441	C44	0.841600	0.022940	0.761920
C451	C45	0.812730	0.029610	0.733870
C461	C46	0.015860	0.899760	0.348400
C471	C47	0.022940	0.841600	0.373540
C481	C48	0.029610	0.812730	0.423790
C491	C49	0.015860	0.735980	0.899760
C501	C50	0.022940	0.761920	0.841600
C511	C51	0.029610	0.733870	0.812730
C521	C52	0.899760	0.348400	0.015860
C531	C53	0.841600	0.373540	0.022940
C541	C54	0.812730	0.423790	0.029610
C551	C55	0.735980	0.015860	0.348400
C561	C56	0.761920	0.022940	0.373540
C571	C57	0.733870	0.029610	0.423790
C581	C58	0.348400	0.899760	0.735980
C591	C59	0.373540	0.841600	0.761920
C601	C60	0.423790	0.812730	0.733870
C611	C61	0.899760	0.735980	0.348400
C621	C62	0.841600	0.761920	0.373540
C631	C63	0.812730	0.733870	0.423790
C641	C64	0.015860	0.348400	0.735980
C651	C65	0.022940	0.373540	0.761920
C661	C66	0.029610	0.423790	0.733870
C671	C67	0.348400	0.015860	0.899760
C681	C68	0.373540	0.022940	0.841600
C691	C69	0.423790	0.029610	0.812730
C701	C70	0.735980	0.899760	0.015860
C711	C71	0.761920	0.841600	0.022940
C721	C72	0.733870	0.812730	0.029610
C731	C73	0.735980	0.348400	0.015860
C741	C74	0.761920	0.373540	0.022940
C751	C75	0.733870	0.423790	0.029610
C761	C76	0.348400	0.735980	0.899760
C771	C77	0.373540	0.761920	0.841600
C781	C78	0.423790	0.733870	0.812730
C791	C79	0.015860	0.899760	0.735980
C801	C80	0.022940	0.841600	0.761920
C811	C81	0.029610	0.812730	0.733870
C821	C82	0.899760	0.015860	0.348400
C831	C83	0.841600	0.022940	0.373540
C841	C84	0.812730	0.029610	0.423790
C851	C85	0.735980	0.015860	0.899760
C861	C86	0.761920	0.022940	0.841600
C871	C87	0.733870	0.029610	0.812730
C881	C88	0.348400	0.899760	0.015860
C891	C89	0.373540	0.841600	0.022940
C901	C90	0.423790	0.812730	0.029610
C911	C91	0.015860	0.735980	0.348400
C921	C92	0.022940	0.761920	0.373540
C931	C93	0.029610	0.733870	0.423790
C941	C94	0.899760	0.348400	0.735980
C951	C95	0.841600	0.373540	0.761920
C961	C96	0.812730	0.423790	0.733870
C971	C97	0.735980	0.899760	0.348400
C981	C98	0.761920	0.841600	0.373540
C991	C99	0.733870	0.812730	0.423790
C1001	C100	0.348400	0.015860	0.735980
C1011	C101	0.373540	0.022940	0.761920
C1021	C102	0.423790	0.029610	0.733870
C1031	C103	0.015860	0.348400	0.899760
C1041	C104	0.022940	0.373540	0.841600
C1051	C105	0.029610	0.423790	0.812730
C1061	C106	0.899760	0.735980	0.015860
C1071	C107	0.841600	0.761920	0.022940
C1081	C108	0.812730	0.733870	0.029610
C1091	C109	0.651600	0.264020	0.984140
C1101	C110	0.626460	0.238080	0.977060
C1111	C111	0.576210	0.266130	0.970390
C1121	C112	0.264020	0.651600	0.100240
C1131	C113	0.238080	0.626460	0.158400
C1141	C114	0.266130	0.576210	0.187270
C1151	C115	0.100240	0.984140	0.264020
C1161	C116	0.158400	0.977060	0.238080
C1171	C117	0.187270	0.970390	0.266130
C1181	C118	0.984140	0.100240	0.651600
C1191	C119	0.977060	0.158400	0.626460
C1201	C120	0.970390	0.187270	0.576210
C1211	C121	0.984140	0.264020	0.100240
C1221	C122	0.977060	0.238080	0.158400
C1231	C123	0.970390	0.266130	0.187270
C1241	C124	0.100240	0.651600	0.984140
C1251	C125	0.158400	0.626460	0.977060
C1261	C126	0.187270	0.576210	0.970390
C1271	C127	0.264020	0.984140	0.651600
C1281	C128	0.238080	0.977060	0.626460
C1291	C129	0.266130	0.970390	0.576210
C1301	C130	0.651600	0.100240	0.264020
C1311	C131	0.626460	0.158400	0.238080
C1321	C132	0.576210	0.187270	0.266130
C1331	C133	0.100240	0.264020	0.651600
C1341	C134	0.158400	0.238080	0.626460
C1351	C135	0.187270	0.266130	0.576210
C1361	C136	0.984140	0.651600	0.264020
C1371	C137	0.977060	0.626460	0.238080
C1381	C138	0.970390	0.576210	0.266130
C1391	C139	0.651600	0.984140	0.100240
C1401	C140	0.626460	0.977060	0.158400
C1411	C141	0.576210	0.970390	0.187270
C1421	C142	0.264020	0.100240	0.984140
C1431	C143	0.238080	0.158400	0.977060
C1441	C144	0.266130	0.187270	0.970390
C1451	C145	0.241300	0.551340	0.966060
C1461	C146	0.184390	0.651390	0.979830
C1471	C147	0.272100	0.498900	0.956900
C1481	C148	0.294600	0.455600	0.955200
C1491	C149	0.322400	0.401800	0.953400
C1501	C150	0.551340	0.241300	0.241300
C1511	C151	0.651390	0.184390	0.184390
C1521	C152	0.498900	0.272100	0.272100
C1531	C153	0.455600	0.294600	0.294600
C1541	C154	0.401800	0.322400	0.322400
C1551	C155	0.966060	0.241300	0.241300
C1561	C156	0.979830	0.184390	0.184390
C1571	C157	0.956900	0.272100	0.272100
C1581	C158	0.955200	0.294600	0.294600
C1591	C159	0.953400	0.322400	0.322400
C1601	C160	0.241300	0.966060	0.551340
C1611	C161	0.184390	0.979830	0.651390
C1621	C162	0.272100	0.956900	0.498900
C1631	C163	0.294600	0.955200	0.455600
C1641	C164	0.322400	0.953400	0.401800
C1651	C165	0.241300	0.966060	0.241300
C1661	C166	0.184390	0.979830	0.184390
C1671	C167	0.272100	0.956900	0.272100
C1681	C168	0.294600	0.955200	0.294600
C1691	C169	0.322400	0.953400	0.322400
C1701	C170	0.551340	0.241300	0.966060
C1711	C171	0.651390	0.184390	0.979830
C1721	C172	0.498900	0.272100	0.956900
C1731	C173	0.455600	0.294600	0.955200
C1741	C174	0.401800	0.322400	0.953400
C1751	C175	0.966060	0.241300	0.551340
C1761	C176	0.979830	0.184390	0.651390
C1771	C177	0.956900	0.272100	0.498900
C1781	C178	0.955200	0.294600	0.455600
C1791	C179	0.953400	0.322400	0.401800
C1801	C180	0.241300	0.551340	0.241300
C1811	C181	0.184390	0.651390	0.184390
C1821	C182	0.272100	0.498900	0.272100
C1831	C183	0.294600	0.455600	0.294600
C1841	C184	0.322400	0.401800	0.322400
C1851	C185	0.241300	0.241300	0.551340
C1861	C186	0.184390	0.184390	0.651390
C1871	C187	0.272100	0.272100	0.498900
C1881	C188	0.294600	0.294600	0.455600
C1891	C189	0.322400	0.322400	0.401800
C1901	C190	0.551340	0.966060	0.241300
C1911	C191	0.651390	0.979830	0.184390
C1921	C192	0.498900	0.956900	0.272100
C1931	C193	0.455600	0.955200	0.294600
C1941	C194	0.401800	0.953400	0.322400
C1951	C195	0.966060	0.551340	0.241300
C1961	C196	0.979830	0.651390	0.184390
C1971	C197	0.956900	0.498900	0.272100
C1981	C198	0.955200	0.455600	0.294600
C1991	C199	0.953400	0.401800	0.322400
C2001	C200	0.241300	0.241300	0.966060
C2011	C201	0.184390	0.184390	0.979830
C2021	C202	0.272100	0.272100	0.956900
C2031	C203	0.294600	0.294600	0.955200
C2041	C204	0.322400	0.322400	0.953400
C2051	C205	0.448660	0.758700	0.033940
C2061	C206	0.348610	0.815610	0.020170
C2071	C207	0.501100	0.727900	0.043100
C2081	C208	0.544400	0.705400	0.044800
C2091	C209	0.598200	0.677600	0.046600
C2101	C210	0.758700	0.448660	0.758700
C2111	C211	0.815610	0.348610	0.815610
C2121	C212	0.727900	0.501100	0.727900
C2131	C213	0.705400	0.544400	0.705400
C2141	C214	0.677600	0.598200	0.677600
C2151	C215	0.758700	0.033940	0.758700
C2161	C216	0.815610	0.020170	0.815610
C2171	C217	0.727900	0.043100	0.727900
C2181	C218	0.705400	0.044800	0.705400
C2191	C219	0.677600	0.046600	0.677600
C2201	C220	0.033940	0.758700	0.448660
C2211	C221	0.020170	0.815610	0.348610
C2221	C222	0.043100	0.727900	0.501100
C2231	C223	0.044800	0.705400	0.544400
C2241	C224	0.046600	0.677600	0.598200
C2251	C225	0.033940	0.758700	0.758700
C2261	C226	0.020170	0.815610	0.815610
C2271	C227	0.043100	0.727900	0.727900
C2281	C228	0.044800	0.705400	0.705400
C2291	C229	0.046600	0.677600	0.677600
C2301	C230	0.758700	0.448660	0.033940
C2311	C231	0.815610	0.348610	0.020170
C2321	C232	0.727900	0.501100	0.043100
C2331	C233	0.705400	0.544400	0.044800
C2341	C234	0.677600	0.598200	0.046600
C2351	C235	0.758700	0.033940	0.448660
C2361	C236	0.815610	0.020170	0.348610
C2371	C237	0.727900	0.043100	0.501100
C2381	C238	0.705400	0.044800	0.544400
C2391	C239	0.677600	0.046600	0.598200
C2401	C240	0.448660	0.758700	0.758700
C2411	C241	0.348610	0.815610	0.815610
C2421	C242	0.501100	0.727900	0.727900
C2431	C243	0.544400	0.705400	0.705400
C2441	C244	0.598200	0.677600	0.677600
C2451	C245	0.758700	0.758700	0.448660
C2461	C246	0.815610	0.815610	0.348610
C2471	C247	0.727900	0.727900	0.501100
C2481	C248	0.705400	0.705400	0.544400
C2491	C249	0.677600	0.677600	0.598200
C2501	C250	0.033940	0.448660	0.758700
C2511	C251	0.020170	0.348610	0.815610
C2521	C252	0.043100	0.501100	0.727900
C2531	C253	0.044800	0.544400	0.705400
C2541	C254	0.046600	0.598200	0.677600
C2551	C255	0.448660	0.033940	0.758700
C2561	C256	0.348610	0.020170	0.815610
C2571	C257	0.501100	0.043100	0.727900
C2581	C258	0.544400	0.044800	0.705400
C2591	C259	0.598200	0.046600	0.677600
C2601	C260	0.758700	0.758700	0.033940
C2611	C261	0.815610	0.815610	0.020170
C2621	C262	0.727900	0.727900	0.043100
C2631	C263	0.705400	0.705400	0.044800
C2641	C264	0.677600	0.677600	0.046600
C2651	C265	0.296900	0.375700	0.951700
C2661	C266	0.375700	0.296900	0.375700
C2671	C267	0.951700	0.375700	0.296900
C2681	C268	0.375700	0.951700	0.375700
C2691	C269	0.296900	0.951700	0.375700
C2701	C270	0.375700	0.375700	0.951700
C2711	C271	0.951700	0.296900	0.375700
C2721	C272	0.375700	0.375700	0.296900
C2731	C273	0.296900	0.375700	0.375700
C2741	C274	0.375700	0.951700	0.296900
C2751	C275	0.951700	0.375700	0.375700
C2761	C276	0.375700	0.296900	0.951700
C2771	C277	0.624300	0.703100	0.048300
C2781	C278	0.703100	0.624300	0.624300
C2791	C279	0.624300	0.048300	0.703100
C2801	C280	0.048300	0.624300	0.624300
C2811	C281	0.048300	0.703100	0.624300
C2821	C282	0.624300	0.624300	0.048300
C2831	C283	0.703100	0.048300	0.624300
C2841	C284	0.624300	0.624300	0.703100
C2851	C285	0.624300	0.703100	0.624300
C2861	C286	0.048300	0.624300	0.703100
C2871	C287	0.624300	0.048300	0.624300
C2881	C288	0.703100	0.624300	0.048300
O11	O1	0.311320	0.624500	0.986900
O21	O2	0.236860	0.699140	0.987140
O31	O3	0.624500	0.311320	0.077280
O41	O4	0.699140	0.236860	0.076860
O51	O5	0.986900	0.077280	0.311320
O61	O6	0.987140	0.076860	0.236860
O71	O7	0.077280	0.986900	0.624500
O81	O8	0.076860	0.987140	0.699140
O91	O9	0.311320	0.986900	0.077280
O101	O10	0.236860	0.987140	0.076860
O111	O11	0.624500	0.077280	0.986900
O121	O12	0.699140	0.076860	0.987140
O131	O13	0.986900	0.311320	0.624500
O141	O14	0.987140	0.236860	0.699140
O151	O15	0.077280	0.624500	0.311320
O161	O16	0.076860	0.699140	0.236860
O171	O17	0.311320	0.077280	0.624500
O181	O18	0.236860	0.076860	0.699140
O191	O19	0.624500	0.986900	0.311320
O201	O20	0.699140	0.987140	0.236860
O211	O21	0.986900	0.624500	0.077280
O221	O22	0.987140	0.699140	0.076860
O231	O23	0.077280	0.311320	0.986900
O241	O24	0.076860	0.236860	0.987140
O251	O25	0.375500	0.688680	0.013100
O261	O26	0.300860	0.763140	0.012860
O271	O27	0.688680	0.375500	0.922720
O281	O28	0.763140	0.300860	0.923140
O291	O29	0.922720	0.013100	0.688680
O301	O30	0.923140	0.012860	0.763140
O311	O31	0.013100	0.922720	0.375500
O321	O32	0.012860	0.923140	0.300860
O331	O33	0.013100	0.688680	0.922720
O341	O34	0.012860	0.763140	0.923140
O351	O35	0.922720	0.375500	0.013100
O361	O36	0.923140	0.300860	0.012860
O371	O37	0.688680	0.013100	0.375500
O381	O38	0.763140	0.012860	0.300860
O391	O39	0.375500	0.922720	0.688680
O401	O40	0.300860	0.923140	0.763140
O411	O41	0.922720	0.688680	0.375500
O421	O42	0.923140	0.763140	0.300860
O431	O43	0.013100	0.375500	0.688680
O441	O44	0.012860	0.300860	0.763140
O451	O45	0.375500	0.013100	0.922720
O461	O46	0.300860	0.012860	0.923140
O471	O47	0.688680	0.922720	0.013100
O481	O48	0.763140	0.923140	0.012860
O491	O49	0.688680	0.375500	0.013100
O501	O50	0.763140	0.300860	0.012860
O511	O51	0.375500	0.688680	0.922720
O521	O52	0.300860	0.763140	0.923140
O531	O53	0.013100	0.922720	0.688680
O541	O54	0.012860	0.923140	0.763140
O551	O55	0.922720	0.013100	0.375500
O561	O56	0.923140	0.012860	0.300860
O571	O57	0.688680	0.013100	0.922720
O581	O58	0.763140	0.012860	0.923140
O591	O59	0.375500	0.922720	0.013100
O601	O60	0.300860	0.923140	0.012860
O611	O61	0.013100	0.688680	0.375500
O621	O62	0.012860	0.763140	0.300860
O631	O63	0.922720	0.375500	0.688680
O641	O64	0.923140	0.300860	0.763140
O651	O65	0.688680	0.922720	0.375500
O661	O66	0.763140	0.923140	0.300860
O671	O67	0.375500	0.013100	0.688680
O681	O68	0.300860	0.012860	0.763140
O691	O69	0.013100	0.375500	0.922720
O701	O70	0.012860	0.300860	0.923140
O711	O71	0.922720	0.688680	0.013100
O721	O72	0.923140	0.763140	0.012860
O731	O73	0.624500	0.311320	0.986900
O741	O74	0.699140	0.236860	0.987140
O751	O75	0.311320	0.624500	0.077280
O761	O76	0.236860	0.699140	0.076860
O771	O77	0.077280	0.986900	0.311320
O781	O78	0.076860	0.987140	0.236860
O791	O79	0.986900	0.077280	0.624500
O801	O80	0.987140	0.076860	0.699140
O811	O81	0.986900	0.311320	0.077280
O821	O82	0.987140	0.236860	0.076860
O831	O83	0.077280	0.624500	0.986900
O841	O84	0.076860	0.699140	0.987140
O851	O85	0.311320	0.986900	0.624500
O861	O86	0.236860	0.987140	0.699140
O871	O87	0.624500	0.077280	0.311320
O881	O88	0.699140	0.076860	0.236860
O891	O89	0.077280	0.311320	0.624500
O901	O90	0.076860	0.236860	0.699140
O911	O91	0.986900	0.624500	0.311320
O921	O92	0.987140	0.699140	0.236860
O931	O93	0.624500	0.986900	0.077280
O941	O94	0.699140	0.987140	0.076860
O951	O95	0.311320	0.077280	0.986900
O961	O96	0.236860	0.076860	0.987140
