data_MUFHUR_clean_PM
_symmetry_space_group_name_H-M	'P1'
_cell_length_a	7.984100
_cell_length_b	8.357700
_cell_length_c	17.593000
_cell_angle_alpha	90.000000
_cell_angle_beta	90.000000
_cell_angle_gamma	109.490000
_symmetry_Int_Tables_number 1

loop_
_symmetry_equiv_pos_as_xyz
'x,y,z'

loop_
_atom_site_label
_atom_site_type_symbol
_atom_site_fract_x
_atom_site_fract_y
_atom_site_fract_z
Nd11	Nd1	0.741290	0.718170	0.477880
Nd21	Nd2	0.758710	0.281830	0.977880
Nd31	Nd3	0.258710	0.281830	0.522120
Nd41	Nd4	0.241290	0.718170	0.022120
H11	H1	0.662300	0.372800	0.210200
H21	H2	0.367600	0.094100	0.372000
H31	H3	0.837700	0.627200	0.710200
H41	H4	0.132400	0.905900	0.872000
H51	H5	0.337700	0.627200	0.789800
H61	H6	0.632400	0.905900	0.628000
H71	H7	0.162300	0.372800	0.289800
H81	H8	0.867600	0.094100	0.128000
C11	C1	0.071000	0.564000	0.474500
C21	C2	0.607000	0.413100	0.375000
C31	C3	0.549700	0.280000	0.315400
C41	C4	0.586700	0.281800	0.237400
C51	C5	0.493400	0.128300	0.209000
C61	C6	0.483000	0.058900	0.131100
C71	C7	0.429000	0.436000	0.974500
C81	C8	0.893000	0.586900	0.875000
C91	C9	0.950300	0.720000	0.815400
C101	C10	0.913300	0.718200	0.737400
C111	C11	0.006600	0.871700	0.709000
C121	C12	0.017000	0.941100	0.631100
C131	C13	0.929000	0.436000	0.525500
C141	C14	0.393000	0.586900	0.625000
C151	C15	0.450300	0.720000	0.684600
C161	C16	0.413300	0.718200	0.762600
C171	C17	0.506600	0.871700	0.791000
C181	C18	0.517000	0.941100	0.868900
C191	C19	0.571000	0.564000	0.025500
C201	C20	0.107000	0.413100	0.125000
C211	C21	0.049700	0.280000	0.184600
C221	C22	0.086700	0.281800	0.262600
C231	C23	0.993400	0.128300	0.291000
C241	C24	0.983000	0.058900	0.368900
N11	N1	0.421000	0.125600	0.329200
N21	N2	0.390500	0.033000	0.266000
N31	N3	0.079000	0.874400	0.829200
N41	N4	0.109500	0.967000	0.766000
N51	N5	0.579000	0.874400	0.670800
N61	N6	0.609500	0.967000	0.734000
N71	N7	0.921000	0.125600	0.170800
N81	N8	0.890500	0.033000	0.234000
O11	O1	0.049700	0.702300	0.459100
O21	O2	0.200500	0.522100	0.456900
O31	O3	0.508500	0.391100	0.434400
O41	O4	0.739700	0.531400	0.367500
O51	O5	0.582800	0.150800	0.083300
O61	O6	0.374000	0.918200	0.119100
O71	O7	0.450300	0.297700	0.959100
O81	O8	0.299500	0.477900	0.956900
O91	O9	0.991500	0.608900	0.934400
O101	O10	0.760300	0.468600	0.867500
O111	O11	0.917200	0.849200	0.583300
O121	O12	0.126000	0.081800	0.619100
O131	O13	0.950300	0.297700	0.540900
O141	O14	0.799500	0.477900	0.543100
O151	O15	0.491500	0.608900	0.565600
O161	O16	0.260300	0.468600	0.632500
O171	O17	0.417200	0.849200	0.916700
O181	O18	0.626000	0.081800	0.880900
O191	O19	0.549700	0.702300	0.040900
O201	O20	0.700500	0.522100	0.043100
O211	O21	0.008500	0.391100	0.065600
O221	O22	0.239700	0.531400	0.132500
O231	O23	0.082800	0.150800	0.416700
O241	O24	0.874000	0.918200	0.380900
