data_MUFJED_clean_PM
_symmetry_space_group_name_H-M	'P1'
_cell_length_a	7.766400
_cell_length_b	8.261000
_cell_length_c	17.323900
_cell_angle_alpha	90.000000
_cell_angle_beta	90.000000
_cell_angle_gamma	108.056000
_symmetry_Int_Tables_number 1

loop_
_symmetry_equiv_pos_as_xyz
'x,y,z'

loop_
_atom_site_label
_atom_site_type_symbol
_atom_site_fract_x
_atom_site_fract_y
_atom_site_fract_z
Er11	Er1	0.749660	0.774840	0.977630
Er21	Er2	0.750340	0.225160	0.477630
Er31	Er3	0.250340	0.225160	0.022370
Er41	Er4	0.249660	0.774840	0.522370
H11	H1	0.163600	0.870800	0.287400
H21	H2	0.336400	0.129200	0.787400
H31	H3	0.836400	0.129200	0.712600
H41	H4	0.663600	0.870800	0.212600
C11	C1	0.982000	0.560000	0.371500
C21	C2	0.987000	0.623000	0.291400
C31	C3	0.085000	0.780000	0.260700
C41	C4	0.045000	0.774000	0.183200
C51	C5	0.091000	0.898000	0.119200
C61	C6	0.572000	0.062000	0.026000
C71	C7	0.518000	0.440000	0.871500
C81	C8	0.513000	0.377000	0.791400
C91	C9	0.415000	0.220000	0.760700
C101	C10	0.455000	0.226000	0.683200
C111	C11	0.409000	0.102000	0.619200
C121	C12	0.928000	0.938000	0.526000
C131	C13	0.018000	0.440000	0.628500
C141	C14	0.013000	0.377000	0.708600
C151	C15	0.915000	0.220000	0.739300
C161	C16	0.955000	0.226000	0.816800
C171	C17	0.909000	0.102000	0.880800
C181	C18	0.428000	0.938000	0.974000
C191	C19	0.482000	0.560000	0.128500
C201	C20	0.487000	0.623000	0.208600
C211	C21	0.585000	0.780000	0.239300
C221	C22	0.545000	0.774000	0.316800
C231	C23	0.591000	0.898000	0.380800
C241	C24	0.072000	0.062000	0.474000
N11	N1	0.921000	0.615000	0.168700
N21	N2	0.892000	0.527800	0.234600
N31	N3	0.579000	0.385000	0.668700
N41	N4	0.608000	0.472200	0.734600
N51	N5	0.079000	0.385000	0.831300
N61	N6	0.108000	0.472200	0.765400
N71	N7	0.421000	0.615000	0.331300
N81	N8	0.392000	0.527800	0.265400
O11	O1	0.072500	0.653600	0.421200
O21	O2	0.874500	0.407700	0.381400
O31	O3	0.228600	0.025900	0.124800
O41	O4	0.989600	0.867600	0.060600
O51	O5	0.706100	0.013900	0.042400
O61	O6	0.452400	0.801400	0.954500
O71	O7	0.427500	0.346400	0.921200
O81	O8	0.625500	0.592300	0.881400
O91	O9	0.271400	0.974100	0.624800
O101	O10	0.510400	0.132400	0.560600
O111	O11	0.793900	0.986100	0.542400
O121	O12	0.047600	0.198600	0.454500
O131	O13	0.927500	0.346400	0.578800
O141	O14	0.125500	0.592300	0.618600
O151	O15	0.771400	0.974100	0.875200
O161	O16	0.010400	0.132400	0.939400
O171	O17	0.293900	0.986100	0.957600
O181	O18	0.547600	0.198600	0.045500
O191	O19	0.572500	0.653600	0.078800
O201	O20	0.374500	0.407700	0.118600
O211	O21	0.728600	0.025900	0.375200
O221	O22	0.489600	0.867600	0.439400
O231	O23	0.206100	0.013900	0.457600
O241	O24	0.952400	0.801400	0.545500
