data_MUGQAI_clean_PM
_symmetry_space_group_name_H-M	'P1'
_cell_length_a	14.697800
_cell_length_b	19.393300
_cell_length_c	10.356000
_cell_angle_alpha	90.000000
_cell_angle_beta	90.000000
_cell_angle_gamma	90.000000
_symmetry_Int_Tables_number 1

loop_
_symmetry_equiv_pos_as_xyz
'x,y,z'

loop_
_atom_site_label
_atom_site_type_symbol
_atom_site_fract_x
_atom_site_fract_y
_atom_site_fract_z
Cu11	Cu1	0.345520	0.382150	0.754520
N11	N1	0.094700	0.335890	0.329600
N21	N2	0.327600	0.522420	0.444900
N31	N3	0.344200	0.450020	0.613400
N41	N4	0.406500	0.503040	0.625100
N51	N5	0.509700	0.629760	0.582200
N61	N6	0.442300	0.640230	0.388300
N71	N7	0.503300	0.693550	0.400000
N81	N8	0.742100	0.817700	0.682400
C11	C1	0.127100	0.392900	0.271900
H11	H1	0.103700	0.404500	0.191300
C21	C2	0.193000	0.435300	0.324700
H21	H2	0.214500	0.473000	0.278300
C31	C3	0.226600	0.421600	0.446500
C41	C4	0.189400	0.365300	0.510400
H31	H3	0.207000	0.355300	0.594600
C51	C5	0.126000	0.324300	0.448100
H41	H4	0.103800	0.286000	0.492100
C61	C6	0.299200	0.464200	0.503600
C71	C7	0.393400	0.543100	0.522900
C81	C8	0.448600	0.604900	0.497800
C91	C9	0.540800	0.685100	0.517800
C101	C10	0.608600	0.731900	0.573700
C111	C11	0.634900	0.792300	0.514800
H51	H5	0.608900	0.805300	0.436700
C121	C12	0.700500	0.833900	0.572200
H61	H6	0.716100	0.875000	0.531700
C131	C13	0.716000	0.758700	0.738600
H71	H7	0.744000	0.746400	0.815800
C141	C14	0.650500	0.715000	0.689600
H81	H8	0.634600	0.674900	0.733500
Cu21	Cu2	0.154480	0.117850	0.254520
N91	N9	0.405300	0.164110	0.829600
N101	N10	0.172400	0.977580	0.944900
N111	N11	0.155800	0.049980	0.113400
N121	N12	0.093500	0.996960	0.125100
N131	N13	0.990300	0.870240	0.082200
N141	N14	0.057700	0.859770	0.888300
N151	N15	0.996700	0.806450	0.900000
N161	N16	0.757900	0.682300	0.182400
C151	C15	0.372900	0.107100	0.771900
H91	H9	0.396300	0.095500	0.691300
C161	C16	0.307000	0.064700	0.824700
H101	H10	0.285500	0.027000	0.778300
C171	C17	0.273400	0.078400	0.946500
C181	C18	0.310600	0.134700	0.010400
H111	H11	0.293000	0.144700	0.094600
C191	C19	0.374000	0.175700	0.948100
H121	H12	0.396200	0.214000	0.992100
C201	C20	0.200800	0.035800	0.003600
C211	C21	0.106600	0.956900	0.022900
C221	C22	0.051400	0.895100	0.997800
C231	C23	0.959200	0.814900	0.017800
C241	C24	0.891400	0.768100	0.073700
C251	C25	0.865100	0.707700	0.014800
H131	H13	0.891100	0.694700	0.936700
C261	C26	0.799500	0.666100	0.072200
H141	H14	0.783900	0.625000	0.031700
C271	C27	0.784000	0.741300	0.238600
H151	H15	0.756000	0.753600	0.315800
C281	C28	0.849500	0.785000	0.189600
H161	H16	0.865400	0.825100	0.233500
Cu31	Cu3	0.654480	0.382150	0.745480
N171	N17	0.905300	0.335890	0.170400
N181	N18	0.672400	0.522420	0.055100
N191	N19	0.655800	0.450020	0.886600
N201	N20	0.593500	0.503040	0.874900
N211	N21	0.490300	0.629760	0.917800
N221	N22	0.557700	0.640230	0.111700
N231	N23	0.496700	0.693550	0.100000
N241	N24	0.257900	0.817700	0.817600
C291	C29	0.872900	0.392900	0.228100
H171	H17	0.896300	0.404500	0.308700
C301	C30	0.807000	0.435300	0.175300
H181	H18	0.785500	0.473000	0.221700
C311	C31	0.773400	0.421600	0.053500
C321	C32	0.810600	0.365300	0.989600
H191	H19	0.793000	0.355300	0.905400
C331	C33	0.874000	0.324300	0.051900
H201	H20	0.896200	0.286000	0.007900
C341	C34	0.700800	0.464200	0.996400
C351	C35	0.606600	0.543100	0.977100
C361	C36	0.551400	0.604900	0.002200
C371	C37	0.459200	0.685100	0.982200
C381	C38	0.391400	0.731900	0.926300
C391	C39	0.365100	0.792300	0.985200
H211	H21	0.391100	0.805300	0.063300
C401	C40	0.299500	0.833900	0.927800
H221	H22	0.283900	0.875000	0.968300
C411	C41	0.284000	0.758700	0.761400
H231	H23	0.256000	0.746400	0.684200
C421	C42	0.349500	0.715000	0.810400
H241	H24	0.365400	0.674900	0.766500
Cu41	Cu4	0.845520	0.117850	0.245480
N251	N25	0.594700	0.164110	0.670400
N261	N26	0.827600	0.977580	0.555100
N271	N27	0.844200	0.049980	0.386600
N281	N28	0.906500	0.996960	0.374900
N291	N29	0.009700	0.870240	0.417800
N301	N30	0.942300	0.859770	0.611700
N311	N31	0.003300	0.806450	0.600000
N321	N32	0.242100	0.682300	0.317600
C431	C43	0.627100	0.107100	0.728100
H251	H25	0.603700	0.095500	0.808700
C441	C44	0.693000	0.064700	0.675300
H261	H26	0.714500	0.027000	0.721700
C451	C45	0.726600	0.078400	0.553500
C461	C46	0.689400	0.134700	0.489600
H271	H27	0.707000	0.144700	0.405400
C471	C47	0.626000	0.175700	0.551900
H281	H28	0.603800	0.214000	0.507900
C481	C48	0.799200	0.035800	0.496400
C491	C49	0.893400	0.956900	0.477100
C501	C50	0.948600	0.895100	0.502200
C511	C51	0.040800	0.814900	0.482200
C521	C52	0.108600	0.768100	0.426300
C531	C53	0.134900	0.707700	0.485200
H291	H29	0.108900	0.694700	0.563300
C541	C54	0.200500	0.666100	0.427800
H301	H30	0.216100	0.625000	0.468300
C551	C55	0.216000	0.741300	0.261400
H311	H31	0.244000	0.753600	0.184200
C561	C56	0.150500	0.785000	0.310400
H321	H32	0.134600	0.825100	0.266500
Cu51	Cu5	0.654480	0.617850	0.245480
N331	N33	0.905300	0.664110	0.670400
N341	N34	0.672400	0.477580	0.555100
N351	N35	0.655800	0.549980	0.386600
N361	N36	0.593500	0.496960	0.374900
N371	N37	0.490300	0.370240	0.417800
N381	N38	0.557700	0.359770	0.611700
N391	N39	0.496700	0.306450	0.600000
N401	N40	0.257900	0.182300	0.317600
C571	C57	0.872900	0.607100	0.728100
H331	H33	0.896300	0.595500	0.808700
C581	C58	0.807000	0.564700	0.675300
H341	H34	0.785500	0.527000	0.721700
C591	C59	0.773400	0.578400	0.553500
C601	C60	0.810600	0.634700	0.489600
H351	H35	0.793000	0.644700	0.405400
C611	C61	0.874000	0.675700	0.551900
H361	H36	0.896200	0.714000	0.507900
C621	C62	0.700800	0.535800	0.496400
C631	C63	0.606600	0.456900	0.477100
C641	C64	0.551400	0.395100	0.502200
C651	C65	0.459200	0.314900	0.482200
C661	C66	0.391400	0.268100	0.426300
C671	C67	0.365100	0.207700	0.485200
H371	H37	0.391100	0.194700	0.563300
C681	C68	0.299500	0.166100	0.427800
H381	H38	0.283900	0.125000	0.468300
C691	C69	0.284000	0.241300	0.261400
H391	H39	0.256000	0.253600	0.184200
C701	C70	0.349500	0.285000	0.310400
H401	H40	0.365400	0.325100	0.266500
Cu61	Cu6	0.845520	0.882150	0.745480
N411	N41	0.594700	0.835890	0.170400
N421	N42	0.827600	0.022420	0.055100
N431	N43	0.844200	0.950020	0.886600
N441	N44	0.906500	0.003040	0.874900
N451	N45	0.009700	0.129760	0.917800
N461	N46	0.942300	0.140230	0.111700
N471	N47	0.003300	0.193550	0.100000
N481	N48	0.242100	0.317700	0.817600
C711	C71	0.627100	0.892900	0.228100
H411	H41	0.603700	0.904500	0.308700
C721	C72	0.693000	0.935300	0.175300
H421	H42	0.714500	0.973000	0.221700
C731	C73	0.726600	0.921600	0.053500
C741	C74	0.689400	0.865300	0.989600
H431	H43	0.707000	0.855300	0.905400
C751	C75	0.626000	0.824300	0.051900
H441	H44	0.603800	0.786000	0.007900
C761	C76	0.799200	0.964200	0.996400
C771	C77	0.893400	0.043100	0.977100
C781	C78	0.948600	0.104900	0.002200
C791	C79	0.040800	0.185100	0.982200
C801	C80	0.108600	0.231900	0.926300
C811	C81	0.134900	0.292300	0.985200
H451	H45	0.108900	0.305300	0.063300
C821	C82	0.200500	0.333900	0.927800
H461	H46	0.216100	0.375000	0.968300
C831	C83	0.216000	0.258700	0.761400
H471	H47	0.244000	0.246400	0.684200
C841	C84	0.150500	0.215000	0.810400
H481	H48	0.134600	0.174900	0.766500
Cu71	Cu7	0.345520	0.617850	0.254520
N491	N49	0.094700	0.664110	0.829600
N501	N50	0.327600	0.477580	0.944900
N511	N51	0.344200	0.549980	0.113400
N521	N52	0.406500	0.496960	0.125100
N531	N53	0.509700	0.370240	0.082200
N541	N54	0.442300	0.359770	0.888300
N551	N55	0.503300	0.306450	0.900000
N561	N56	0.742100	0.182300	0.182400
C851	C85	0.127100	0.607100	0.771900
H491	H49	0.103700	0.595500	0.691300
C861	C86	0.193000	0.564700	0.824700
H501	H50	0.214500	0.527000	0.778300
C871	C87	0.226600	0.578400	0.946500
C881	C88	0.189400	0.634700	0.010400
H511	H51	0.207000	0.644700	0.094600
C891	C89	0.126000	0.675700	0.948100
H521	H52	0.103800	0.714000	0.992100
C901	C90	0.299200	0.535800	0.003600
C911	C91	0.393400	0.456900	0.022900
C921	C92	0.448600	0.395100	0.997800
C931	C93	0.540800	0.314900	0.017800
C941	C94	0.608600	0.268100	0.073700
C951	C95	0.634900	0.207700	0.014800
H531	H53	0.608900	0.194700	0.936700
C961	C96	0.700500	0.166100	0.072200
H541	H54	0.716100	0.125000	0.031700
C971	C97	0.716000	0.241300	0.238600
H551	H55	0.744000	0.253600	0.315800
C981	C98	0.650500	0.285000	0.189600
H561	H56	0.634600	0.325100	0.233500
Cu81	Cu8	0.154480	0.882150	0.754520
N571	N57	0.405300	0.835890	0.329600
N581	N58	0.172400	0.022420	0.444900
N591	N59	0.155800	0.950020	0.613400
N601	N60	0.093500	0.003040	0.625100
N611	N61	0.990300	0.129760	0.582200
N621	N62	0.057700	0.140230	0.388300
N631	N63	0.996700	0.193550	0.400000
N641	N64	0.757900	0.317700	0.682400
C991	C99	0.372900	0.892900	0.271900
H571	H57	0.396300	0.904500	0.191300
C1001	C100	0.307000	0.935300	0.324700
H581	H58	0.285500	0.973000	0.278300
C1011	C101	0.273400	0.921600	0.446500
C1021	C102	0.310600	0.865300	0.510400
H591	H59	0.293000	0.855300	0.594600
C1031	C103	0.374000	0.824300	0.448100
H601	H60	0.396200	0.786000	0.492100
C1041	C104	0.200800	0.964200	0.503600
C1051	C105	0.106600	0.043100	0.522900
C1061	C106	0.051400	0.104900	0.497800
C1071	C107	0.959200	0.185100	0.517800
C1081	C108	0.891400	0.231900	0.573700
C1091	C109	0.865100	0.292300	0.514800
H611	H61	0.891100	0.305300	0.436700
C1101	C110	0.799500	0.333900	0.572200
H621	H62	0.783900	0.375000	0.531700
C1111	C111	0.784000	0.258700	0.738600
H631	H63	0.756000	0.246400	0.815800
C1121	C112	0.849500	0.215000	0.689600
H641	H64	0.865400	0.174900	0.733500
Cu91	Cu9	0.000000	0.264990	0.250000
Cu101	Cu10	0.500000	0.235010	0.750000
Cu111	Cu11	0.000000	0.735010	0.750000
Cu121	Cu12	0.500000	0.764990	0.250000
Cu131	Cu13	0.500000	0.509410	0.750000
Cu141	Cu14	0.000000	0.990590	0.250000
Cu151	Cu15	0.500000	0.490590	0.250000
Cu161	Cu16	0.000000	0.009410	0.750000
