data_MUHPAI_clean_PM
_symmetry_space_group_name_H-M	'P1'
_cell_length_a	11.406000
_cell_length_b	14.981000
_cell_length_c	16.867000
_cell_angle_alpha	90.000000
_cell_angle_beta	90.000000
_cell_angle_gamma	90.000000
_symmetry_Int_Tables_number 1

loop_
_symmetry_equiv_pos_as_xyz
'x,y,z'

loop_
_atom_site_label
_atom_site_type_symbol
_atom_site_fract_x
_atom_site_fract_y
_atom_site_fract_z
N11	N1	0.340300	0.443200	0.649120
N21	N2	0.450800	0.432300	0.618690
H11	H1	0.513400	0.449700	0.642500
N31	N3	0.179200	0.308300	0.345880
N41	N4	0.240200	0.233900	0.365150
H21	H2	0.237300	0.185200	0.338200
C11	C1	0.139900	0.399700	0.610100
H31	H3	0.126200	0.392800	0.665900
H41	H4	0.108800	0.349000	0.582300
H51	H5	0.102100	0.453000	0.591700
C21	C2	0.269800	0.406200	0.595100
C31	C3	0.333900	0.373000	0.529900
C41	C4	0.451300	0.391000	0.547000
C51	C5	0.561100	0.371900	0.502300
H61	H6	0.613500	0.421800	0.506800
H71	H7	0.542600	0.361900	0.447500
H81	H8	0.597900	0.319600	0.523800
C61	C6	0.381300	0.170800	0.462600
H91	H9	0.344700	0.114200	0.452500
H101	H10	0.391100	0.178600	0.518700
H111	H11	0.456500	0.172500	0.437100
C71	C7	0.305600	0.244000	0.430600
C81	C8	0.285900	0.329800	0.457400
C91	C9	0.207500	0.368300	0.401300
C101	C10	0.162700	0.461600	0.397600
H121	H12	0.225200	0.501000	0.382500
H131	H13	0.133200	0.478700	0.448700
H141	H14	0.100800	0.465100	0.359200
N51	N5	0.159700	0.943200	0.350880
N61	N6	0.049200	0.932300	0.381310
H151	H15	0.986600	0.949700	0.357500
N71	N7	0.320800	0.808300	0.654120
N81	N8	0.259800	0.733900	0.634850
H161	H16	0.262700	0.685200	0.661800
C111	C11	0.360100	0.899700	0.389900
H171	H17	0.373800	0.892800	0.334100
H181	H18	0.391200	0.849000	0.417700
H191	H19	0.397900	0.953000	0.408300
C121	C12	0.230200	0.906200	0.404900
C131	C13	0.166100	0.873000	0.470100
C141	C14	0.048700	0.891000	0.453000
C151	C15	0.938900	0.871900	0.497700
H201	H20	0.886500	0.921800	0.493200
H211	H21	0.957400	0.861900	0.552500
H221	H22	0.902100	0.819600	0.476200
C161	C16	0.118700	0.670800	0.537400
H231	H23	0.155300	0.614200	0.547500
H241	H24	0.108900	0.678600	0.481300
H251	H25	0.043500	0.672500	0.562900
C171	C17	0.194400	0.744000	0.569400
C181	C18	0.214100	0.829800	0.542600
C191	C19	0.292500	0.868300	0.598700
C201	C20	0.337300	0.961600	0.602400
H261	H26	0.274800	0.001000	0.617500
H271	H27	0.366800	0.978700	0.551300
H281	H28	0.399200	0.965100	0.640800
N91	N9	0.659700	0.556800	0.149120
N101	N10	0.549200	0.567700	0.118690
H291	H29	0.486600	0.550300	0.142500
N111	N11	0.820800	0.691700	0.845880
N121	N12	0.759800	0.766100	0.865150
H301	H30	0.762700	0.814800	0.838200
C211	C21	0.860100	0.600300	0.110100
H311	H31	0.873800	0.607200	0.165900
H321	H32	0.891200	0.651000	0.082300
H331	H33	0.897900	0.547000	0.091700
C221	C22	0.730200	0.593800	0.095100
C231	C23	0.666100	0.627000	0.029900
C241	C24	0.548700	0.609000	0.047000
C251	C25	0.438900	0.628100	0.002300
H341	H34	0.386500	0.578200	0.006800
H351	H35	0.457400	0.638100	0.947500
H361	H36	0.402100	0.680400	0.023800
C261	C26	0.618700	0.829200	0.962600
H371	H37	0.655300	0.885800	0.952500
H381	H38	0.608900	0.821400	0.018700
H391	H39	0.543500	0.827500	0.937100
C271	C27	0.694400	0.756000	0.930600
C281	C28	0.714100	0.670200	0.957400
C291	C29	0.792500	0.631700	0.901300
C301	C30	0.837300	0.538400	0.897600
H401	H40	0.774800	0.499000	0.882500
H411	H41	0.866800	0.521300	0.948700
H421	H42	0.899200	0.534900	0.859200
N131	N13	0.840300	0.056800	0.850880
N141	N14	0.950800	0.067700	0.881310
H431	H43	0.013400	0.050300	0.857500
N151	N15	0.679200	0.191700	0.154120
N161	N16	0.740200	0.266100	0.134850
H441	H44	0.737300	0.314800	0.161800
C311	C31	0.639900	0.100300	0.889900
H451	H45	0.626200	0.107200	0.834100
H461	H46	0.608800	0.151000	0.917700
H471	H47	0.602100	0.047000	0.908300
C321	C32	0.769800	0.093800	0.904900
C331	C33	0.833900	0.127000	0.970100
C341	C34	0.951300	0.109000	0.953000
C351	C35	0.061100	0.128100	0.997700
H481	H48	0.113500	0.078200	0.993200
H491	H49	0.042600	0.138100	0.052500
H501	H50	0.097900	0.180400	0.976200
C361	C36	0.881300	0.329200	0.037400
H511	H51	0.844700	0.385800	0.047500
H521	H52	0.891100	0.321400	0.981300
H531	H53	0.956500	0.327500	0.062900
C371	C37	0.805600	0.256000	0.069400
C381	C38	0.785900	0.170200	0.042600
C391	C39	0.707500	0.131700	0.098700
C401	C40	0.662700	0.038400	0.102400
H541	H54	0.725200	0.999000	0.117500
H551	H55	0.633200	0.021300	0.051300
H561	H56	0.600800	0.034900	0.140800
N171	N17	0.659700	0.556800	0.350880
N181	N18	0.549200	0.567700	0.381310
H571	H57	0.486600	0.550300	0.357500
N191	N19	0.820800	0.691700	0.654120
N201	N20	0.759800	0.766100	0.634850
H581	H58	0.762700	0.814800	0.661800
C411	C41	0.860100	0.600300	0.389900
H591	H59	0.873800	0.607200	0.334100
H601	H60	0.891200	0.651000	0.417700
H611	H61	0.897900	0.547000	0.408300
C421	C42	0.730200	0.593800	0.404900
C431	C43	0.666100	0.627000	0.470100
C441	C44	0.548700	0.609000	0.453000
C451	C45	0.438900	0.628100	0.497700
H621	H62	0.386500	0.578200	0.493200
H631	H63	0.457400	0.638100	0.552500
H641	H64	0.402100	0.680400	0.476200
C461	C46	0.618700	0.829200	0.537400
H651	H65	0.655300	0.885800	0.547500
H661	H66	0.608900	0.821400	0.481300
H671	H67	0.543500	0.827500	0.562900
C471	C47	0.694400	0.756000	0.569400
C481	C48	0.714100	0.670200	0.542600
C491	C49	0.792500	0.631700	0.598700
C501	C50	0.837300	0.538400	0.602400
H681	H68	0.774800	0.499000	0.617500
H691	H69	0.866800	0.521300	0.551300
H701	H70	0.899200	0.534900	0.640800
N211	N21	0.840300	0.056800	0.649120
N221	N22	0.950800	0.067700	0.618690
H711	H71	0.013400	0.050300	0.642500
N231	N23	0.679200	0.191700	0.345880
N241	N24	0.740200	0.266100	0.365150
H721	H72	0.737300	0.314800	0.338200
C511	C51	0.639900	0.100300	0.610100
H731	H73	0.626200	0.107200	0.665900
H741	H74	0.608800	0.151000	0.582300
H751	H75	0.602100	0.047000	0.591700
C521	C52	0.769800	0.093800	0.595100
C531	C53	0.833900	0.127000	0.529900
C541	C54	0.951300	0.109000	0.547000
C551	C55	0.061100	0.128100	0.502300
H761	H76	0.113500	0.078200	0.506800
H771	H77	0.042600	0.138100	0.447500
H781	H78	0.097900	0.180400	0.523800
C561	C56	0.881300	0.329200	0.462600
H791	H79	0.844700	0.385800	0.452500
H801	H80	0.891100	0.321400	0.518700
H811	H81	0.956500	0.327500	0.437100
C571	C57	0.805600	0.256000	0.430600
C581	C58	0.785900	0.170200	0.457400
C591	C59	0.707500	0.131700	0.401300
C601	C60	0.662700	0.038400	0.397600
H821	H82	0.725200	0.999000	0.382500
H831	H83	0.633200	0.021300	0.448700
H841	H84	0.600800	0.034900	0.359200
N251	N25	0.340300	0.443200	0.850880
N261	N26	0.450800	0.432300	0.881310
H851	H85	0.513400	0.449700	0.857500
N271	N27	0.179200	0.308300	0.154120
N281	N28	0.240200	0.233900	0.134850
H861	H86	0.237300	0.185200	0.161800
C611	C61	0.139900	0.399700	0.889900
H871	H87	0.126200	0.392800	0.834100
H881	H88	0.108800	0.349000	0.917700
H891	H89	0.102100	0.453000	0.908300
C621	C62	0.269800	0.406200	0.904900
C631	C63	0.333900	0.373000	0.970100
C641	C64	0.451300	0.391000	0.953000
C651	C65	0.561100	0.371900	0.997700
H901	H90	0.613500	0.421800	0.993200
H911	H91	0.542600	0.361900	0.052500
H921	H92	0.597900	0.319600	0.976200
C661	C66	0.381300	0.170800	0.037400
H931	H93	0.344700	0.114200	0.047500
H941	H94	0.391100	0.178600	0.981300
H951	H95	0.456500	0.172500	0.062900
C671	C67	0.305600	0.244000	0.069400
C681	C68	0.285900	0.329800	0.042600
C691	C69	0.207500	0.368300	0.098700
C701	C70	0.162700	0.461600	0.102400
H961	H96	0.225200	0.501000	0.117500
H971	H97	0.133200	0.478700	0.051300
H981	H98	0.100800	0.465100	0.140800
N291	N29	0.159700	0.943200	0.149120
N301	N30	0.049200	0.932300	0.118690
H991	H99	0.986600	0.949700	0.142500
N311	N31	0.320800	0.808300	0.845880
N321	N32	0.259800	0.733900	0.865150
H1001	H100	0.262700	0.685200	0.838200
C711	C71	0.360100	0.899700	0.110100
H1011	H101	0.373800	0.892800	0.165900
H1021	H102	0.391200	0.849000	0.082300
H1031	H103	0.397900	0.953000	0.091700
C721	C72	0.230200	0.906200	0.095100
C731	C73	0.166100	0.873000	0.029900
C741	C74	0.048700	0.891000	0.047000
C751	C75	0.938900	0.871900	0.002300
H1041	H104	0.886500	0.921800	0.006800
H1051	H105	0.957400	0.861900	0.947500
H1061	H106	0.902100	0.819600	0.023800
C761	C76	0.118700	0.670800	0.962600
H1071	H107	0.155300	0.614200	0.952500
H1081	H108	0.108900	0.678600	0.018700
H1091	H109	0.043500	0.672500	0.937100
C771	C77	0.194400	0.744000	0.930600
C781	C78	0.214100	0.829800	0.957400
C791	C79	0.292500	0.868300	0.901300
C801	C80	0.337300	0.961600	0.897600
H1101	H110	0.274800	0.001000	0.882500
H1111	H111	0.366800	0.978700	0.948700
H1121	H112	0.399200	0.965100	0.859200
I11	I1	0.502930	0.625000	0.750000
Cu11	Cu1	0.311220	0.517160	0.750000
Cu21	Cu2	0.430600	0.816640	0.750000
N331	N33	0.159000	0.578800	0.750000
C811	C81	0.071800	0.613800	0.750000
I21	I2	0.997070	0.125000	0.250000
Cu31	Cu3	0.188780	0.017160	0.250000
Cu41	Cu4	0.069400	0.316640	0.250000
N341	N34	0.341000	0.078800	0.250000
C821	C82	0.428200	0.113800	0.250000
I31	I3	0.497070	0.375000	0.250000
Cu51	Cu5	0.688780	0.482840	0.250000
Cu61	Cu6	0.569400	0.183360	0.250000
N351	N35	0.841000	0.421200	0.250000
C831	C83	0.928200	0.386200	0.250000
I41	I4	0.002930	0.875000	0.750000
Cu71	Cu7	0.811220	0.982840	0.750000
Cu81	Cu8	0.930600	0.683360	0.750000
N361	N36	0.659000	0.921200	0.750000
C841	C84	0.571800	0.886200	0.750000
