data_MULQOA_clean_PM
_symmetry_space_group_name_H-M	'P1'
_cell_length_a	11.743700
_cell_length_b	13.010100
_cell_length_c	18.925100
_cell_angle_alpha	90.000000
_cell_angle_beta	90.000000
_cell_angle_gamma	112.316000
_symmetry_Int_Tables_number 1

loop_
_symmetry_equiv_pos_as_xyz
'x,y,z'

loop_
_atom_site_label
_atom_site_type_symbol
_atom_site_fract_x
_atom_site_fract_y
_atom_site_fract_z
Zn11	Zn1	0.176100	0.650790	0.628150
Zn21	Zn2	0.661200	0.622550	0.585630
Zn31	Zn3	0.556020	0.878890	0.831790
Zn41	Zn4	0.323900	0.849210	0.128150
Zn51	Zn5	0.838800	0.877450	0.085630
Zn61	Zn6	0.943980	0.621110	0.331790
Zn71	Zn7	0.823900	0.349210	0.371850
Zn81	Zn8	0.338800	0.377450	0.414370
Zn91	Zn9	0.443980	0.121110	0.168210
Zn101	Zn10	0.676100	0.150790	0.871850
Zn111	Zn11	0.161200	0.122550	0.914370
Zn121	Zn12	0.056020	0.378890	0.668210
H11	H1	0.160700	0.621700	0.452100
H21	H2	0.236800	0.533900	0.705400
H31	H3	0.121800	0.547900	0.736400
H41	H4	0.697500	0.728800	0.750200
H51	H5	0.339300	0.878300	0.952100
H61	H6	0.263200	0.966100	0.205400
H71	H7	0.378200	0.952100	0.236400
H81	H8	0.802500	0.771200	0.250200
H91	H9	0.839300	0.378300	0.547900
H101	H10	0.763200	0.466100	0.294600
H111	H11	0.878200	0.452100	0.263600
H121	H12	0.302500	0.271200	0.249800
H131	H13	0.660700	0.121700	0.047900
H141	H14	0.736800	0.033900	0.794600
H151	H15	0.621800	0.047900	0.763600
H161	H16	0.197500	0.228800	0.749800
C11	C1	0.092600	0.631300	0.471500
C21	C2	0.423600	0.653300	0.582000
C31	C3	0.627400	0.728600	0.727300
C41	C4	0.459100	0.753100	0.705600
C51	C5	0.366800	0.803200	0.722400
C61	C6	0.483200	0.696900	0.650000
C71	C7	0.917900	0.648300	0.480900
C81	C8	0.929200	0.664700	0.620300
C91	C9	0.965700	0.651000	0.547900
C101	C10	0.805100	0.660300	0.450800
C111	C11	0.407400	0.868700	0.971500
C121	C12	0.076400	0.846700	0.082000
C131	C13	0.872600	0.771400	0.227300
C141	C14	0.040900	0.746900	0.205600
C151	C15	0.133200	0.696800	0.222400
C161	C16	0.016800	0.803100	0.150000
C171	C17	0.582100	0.851700	0.980900
C181	C18	0.570800	0.835300	0.120300
C191	C19	0.534300	0.849000	0.047900
C201	C20	0.694900	0.839700	0.950800
C211	C21	0.907400	0.368700	0.528500
C221	C22	0.576400	0.346700	0.418000
C231	C23	0.372600	0.271400	0.272700
C241	C24	0.540900	0.246900	0.294400
C251	C25	0.633200	0.196800	0.277600
C261	C26	0.516800	0.303100	0.350000
C271	C27	0.082100	0.351700	0.519100
C281	C28	0.070800	0.335300	0.379700
C291	C29	0.034300	0.349000	0.452100
C301	C30	0.194900	0.339700	0.549200
C311	C31	0.592600	0.131300	0.028500
C321	C32	0.923600	0.153300	0.918000
C331	C33	0.127400	0.228600	0.772700
C341	C34	0.959100	0.253100	0.794400
C351	C35	0.866800	0.303200	0.777600
C361	C36	0.983200	0.196900	0.850000
C371	C37	0.417900	0.148300	0.019100
C381	C38	0.429200	0.164700	0.879700
C391	C39	0.465700	0.151000	0.952100
C401	C40	0.305100	0.160300	0.049200
N11	N1	0.078100	0.641700	0.539700
N21	N2	0.590100	0.683000	0.664200
N31	N3	0.552300	0.773900	0.753700
N41	N4	0.998700	0.635800	0.433000
N51	N5	0.421900	0.858300	0.039700
N61	N6	0.909900	0.817000	0.164200
N71	N7	0.947700	0.726100	0.253700
N81	N8	0.501300	0.864200	0.933000
N91	N9	0.921900	0.358300	0.460300
N101	N10	0.409900	0.317000	0.335800
N111	N11	0.447700	0.226100	0.246300
N121	N12	0.001300	0.364200	0.567000
N131	N13	0.578100	0.141700	0.960300
N141	N14	0.090100	0.183000	0.835800
N151	N15	0.052300	0.273900	0.746300
N161	N16	0.498700	0.135800	0.067000
O11	O1	0.320000	0.652600	0.566200
O21	O2	0.486200	0.618400	0.541300
O31	O3	0.385400	0.860600	0.777700
O41	O4	0.276600	0.789500	0.681800
O51	O5	0.155800	0.530600	0.693100
O61	O6	0.008900	0.673600	0.667000
O71	O7	0.826700	0.667700	0.635200
O81	O8	0.725400	0.673900	0.490600
O91	O9	0.797400	0.657700	0.384300
O101	O10	0.180000	0.847400	0.066200
O111	O11	0.013800	0.881600	0.041300
O121	O12	0.114600	0.639400	0.277700
O131	O13	0.223400	0.710500	0.181800
O141	O14	0.344200	0.969400	0.193100
O151	O15	0.491100	0.826400	0.167000
O161	O16	0.673300	0.832300	0.135200
O171	O17	0.774600	0.826100	0.990600
O181	O18	0.702600	0.842300	0.884300
O191	O19	0.680000	0.347400	0.433800
O201	O20	0.513800	0.381600	0.458700
O211	O21	0.614600	0.139400	0.222300
O221	O22	0.723400	0.210500	0.318200
O231	O23	0.844200	0.469400	0.306900
O241	O24	0.991100	0.326400	0.333000
O251	O25	0.173300	0.332300	0.364800
O261	O26	0.274600	0.326100	0.509400
O271	O27	0.202600	0.342300	0.615700
O281	O28	0.820000	0.152600	0.933800
O291	O29	0.986200	0.118400	0.958700
O301	O30	0.885400	0.360600	0.722300
O311	O31	0.776600	0.289500	0.818200
O321	O32	0.655800	0.030600	0.806900
O331	O33	0.508900	0.173600	0.833000
O341	O34	0.326700	0.167700	0.864800
O351	O35	0.225400	0.173900	0.009400
O361	O36	0.297400	0.157700	0.115700
