data_MULSER_clean_PM
_symmetry_space_group_name_H-M	'P1'
_cell_length_a	10.346600
_cell_length_b	18.541500
_cell_length_c	22.700100
_cell_angle_alpha	90.000000
_cell_angle_beta	90.000000
_cell_angle_gamma	90.000000
_symmetry_Int_Tables_number 1

loop_
_symmetry_equiv_pos_as_xyz
'x,y,z'

loop_
_atom_site_label
_atom_site_type_symbol
_atom_site_fract_x
_atom_site_fract_y
_atom_site_fract_z
O11	O1	0.937300	0.660200	0.603200
O21	O2	0.133700	0.666800	0.520000
O31	O3	0.078700	0.773300	0.437000
O41	O4	0.865600	0.849200	0.477000
O51	O5	0.782900	0.784800	0.584600
O61	O6	0.385400	0.843000	0.753300
O71	O7	0.087100	0.703900	0.674900
O81	O8	0.880300	0.654300	0.704600
O91	O9	0.344100	0.731400	0.838900
O101	O10	0.237200	0.429700	0.533200
O111	O11	0.232700	0.568300	0.573300
O121	O12	0.048200	0.576100	0.668100
O131	O13	0.988100	0.432000	0.697100
O141	O14	0.084000	0.340100	0.613000
U11	U1	0.956700	0.743980	0.524520
U21	U2	0.239630	0.745460	0.746160
U31	U3	0.116350	0.470270	0.616370
S11	S1	0.989600	0.648570	0.663000
S21	S2	0.240500	0.614210	0.520640
S31	S3	0.150900	0.728850	0.395170
O151	O15	0.437300	0.160200	0.603200
O161	O16	0.633700	0.166800	0.520000
O171	O17	0.578700	0.273300	0.437000
O181	O18	0.365600	0.349200	0.477000
O191	O19	0.282900	0.284800	0.584600
O201	O20	0.885400	0.343000	0.753300
O211	O21	0.587100	0.203900	0.674900
O221	O22	0.380300	0.154300	0.704600
O231	O23	0.844100	0.231400	0.838900
O241	O24	0.737200	0.929700	0.533200
O251	O25	0.732700	0.068300	0.573300
O261	O26	0.548200	0.076100	0.668100
O271	O27	0.488100	0.932000	0.697100
O281	O28	0.584000	0.840100	0.613000
U41	U4	0.456700	0.243980	0.524520
U51	U5	0.739630	0.245460	0.746160
U61	U6	0.616350	0.970270	0.616370
S41	S4	0.489600	0.148570	0.663000
S51	S5	0.740500	0.114210	0.520640
S61	S6	0.650900	0.228850	0.395170
O291	O29	0.062700	0.339800	0.103200
O301	O30	0.866300	0.333200	0.020000
O311	O31	0.921300	0.226700	0.937000
O321	O32	0.134400	0.150800	0.977000
O331	O33	0.217100	0.215200	0.084600
O341	O34	0.614600	0.157000	0.253300
O351	O35	0.912900	0.296100	0.174900
O361	O36	0.119700	0.345700	0.204600
O371	O37	0.655900	0.268600	0.338900
O381	O38	0.762800	0.570300	0.033200
O391	O39	0.767300	0.431700	0.073300
O401	O40	0.951800	0.423900	0.168100
O411	O41	0.011900	0.568000	0.197100
O421	O42	0.916000	0.659900	0.113000
U71	U7	0.043300	0.256020	0.024520
U81	U8	0.760370	0.254540	0.246160
U91	U9	0.883650	0.529730	0.116370
S71	S7	0.010400	0.351430	0.163000
S81	S8	0.759500	0.385790	0.020640
S91	S9	0.849100	0.271150	0.895170
O431	O43	0.562700	0.839800	0.103200
O441	O44	0.366300	0.833200	0.020000
O451	O45	0.421300	0.726700	0.937000
O461	O46	0.634400	0.650800	0.977000
O471	O47	0.717100	0.715200	0.084600
O481	O48	0.114600	0.657000	0.253300
O491	O49	0.412900	0.796100	0.174900
O501	O50	0.619700	0.845700	0.204600
O511	O51	0.155900	0.768600	0.338900
O521	O52	0.262800	0.070300	0.033200
O531	O53	0.267300	0.931700	0.073300
O541	O54	0.451800	0.923900	0.168100
O551	O55	0.511900	0.068000	0.197100
O561	O56	0.416000	0.159900	0.113000
U101	U10	0.543300	0.756020	0.024520
U111	U11	0.260370	0.754540	0.246160
U121	U12	0.383650	0.029730	0.116370
S101	S10	0.510400	0.851430	0.163000
S111	S11	0.259500	0.885790	0.020640
S121	S12	0.349100	0.771150	0.895170
O571	O57	0.062700	0.660200	0.896800
O581	O58	0.866300	0.666800	0.980000
O591	O59	0.921300	0.773300	0.063000
O601	O60	0.134400	0.849200	0.023000
O611	O61	0.217100	0.784800	0.915400
O621	O62	0.614600	0.843000	0.746700
O631	O63	0.912900	0.703900	0.825100
O641	O64	0.119700	0.654300	0.795400
O651	O65	0.655900	0.731400	0.661100
O661	O66	0.762800	0.429700	0.966800
O671	O67	0.767300	0.568300	0.926700
O681	O68	0.951800	0.576100	0.831900
O691	O69	0.011900	0.432000	0.802900
O701	O70	0.916000	0.340100	0.887000
U131	U13	0.043300	0.743980	0.975480
U141	U14	0.760370	0.745460	0.753840
U151	U15	0.883650	0.470270	0.883630
S131	S13	0.010400	0.648570	0.837000
S141	S14	0.759500	0.614210	0.979360
S151	S15	0.849100	0.728850	0.104830
O711	O71	0.562700	0.160200	0.896800
O721	O72	0.366300	0.166800	0.980000
O731	O73	0.421300	0.273300	0.063000
O741	O74	0.634400	0.349200	0.023000
O751	O75	0.717100	0.284800	0.915400
O761	O76	0.114600	0.343000	0.746700
O771	O77	0.412900	0.203900	0.825100
O781	O78	0.619700	0.154300	0.795400
O791	O79	0.155900	0.231400	0.661100
O801	O80	0.262800	0.929700	0.966800
O811	O81	0.267300	0.068300	0.926700
O821	O82	0.451800	0.076100	0.831900
O831	O83	0.511900	0.932000	0.802900
O841	O84	0.416000	0.840100	0.887000
U161	U16	0.543300	0.243980	0.975480
U171	U17	0.260370	0.245460	0.753840
U181	U18	0.383650	0.970270	0.883630
S161	S16	0.510400	0.148570	0.837000
S171	S17	0.259500	0.114210	0.979360
S181	S18	0.349100	0.228850	0.104830
O851	O85	0.937300	0.339800	0.396800
O861	O86	0.133700	0.333200	0.480000
O871	O87	0.078700	0.226700	0.563000
O881	O88	0.865600	0.150800	0.523000
O891	O89	0.782900	0.215200	0.415400
O901	O90	0.385400	0.157000	0.246700
O911	O91	0.087100	0.296100	0.325100
O921	O92	0.880300	0.345700	0.295400
O931	O93	0.344100	0.268600	0.161100
O941	O94	0.237200	0.570300	0.466800
O951	O95	0.232700	0.431700	0.426700
O961	O96	0.048200	0.423900	0.331900
O971	O97	0.988100	0.568000	0.302900
O981	O98	0.084000	0.659900	0.387000
U191	U19	0.956700	0.256020	0.475480
U201	U20	0.239630	0.254540	0.253840
U211	U21	0.116350	0.529730	0.383630
S191	S19	0.989600	0.351430	0.337000
S201	S20	0.240500	0.385790	0.479360
S211	S21	0.150900	0.271150	0.604830
O991	O99	0.437300	0.839800	0.396800
O1001	O100	0.633700	0.833200	0.480000
O1011	O101	0.578700	0.726700	0.563000
O1021	O102	0.365600	0.650800	0.523000
O1031	O103	0.282900	0.715200	0.415400
O1041	O104	0.885400	0.657000	0.246700
O1051	O105	0.587100	0.796100	0.325100
O1061	O106	0.380300	0.845700	0.295400
O1071	O107	0.844100	0.768600	0.161100
O1081	O108	0.737200	0.070300	0.466800
O1091	O109	0.732700	0.931700	0.426700
O1101	O110	0.548200	0.923900	0.331900
O1111	O111	0.488100	0.068000	0.302900
O1121	O112	0.584000	0.159900	0.387000
U221	U22	0.456700	0.756020	0.475480
U231	U23	0.739630	0.754540	0.253840
U241	U24	0.616350	0.029730	0.383630
S221	S22	0.489600	0.851430	0.337000
S231	S23	0.740500	0.885790	0.479360
S241	S24	0.650900	0.771150	0.604830
S251	S25	0.500000	0.886990	0.750000
S261	S26	0.000000	0.386990	0.750000
S271	S27	0.500000	0.113010	0.250000
S281	S28	0.000000	0.613010	0.250000
