data_MULXOH_clean_PM
_symmetry_space_group_name_H-M	'P1'
_cell_length_a	10.582600
_cell_length_b	12.007500
_cell_length_c	18.147000
_cell_angle_alpha	90.000000
_cell_angle_beta	90.000000
_cell_angle_gamma	110.074000
_symmetry_Int_Tables_number 1

loop_
_symmetry_equiv_pos_as_xyz
'x,y,z'

loop_
_atom_site_label
_atom_site_type_symbol
_atom_site_fract_x
_atom_site_fract_y
_atom_site_fract_z
La11	La1	0.535270	0.644980	0.931430
La21	La2	0.964730	0.855020	0.431430
La31	La3	0.464730	0.355020	0.068570
La41	La4	0.035270	0.144980	0.568570
H11	H1	0.689000	0.293000	0.860000
H21	H2	0.771300	0.477700	0.803900
H31	H3	0.660000	0.435100	0.742800
H41	H4	0.858400	0.417900	0.696200
H51	H5	0.869900	0.341400	0.764300
H61	H6	0.667000	0.270000	0.656000
H71	H7	0.685700	0.124200	0.773000
H81	H8	0.575100	0.089900	0.711400
H91	H9	0.481000	0.224900	0.755900
H101	H10	0.494000	0.146800	0.822800
H111	H11	0.134000	0.487000	0.935000
H121	H12	0.215200	0.638800	0.019500
H131	H13	0.120200	0.562000	0.080800
H141	H14	0.969000	0.349000	0.046600
H151	H15	0.977500	0.305400	0.965800
H161	H16	0.811000	0.207000	0.360000
H171	H17	0.728700	0.022300	0.303900
H181	H18	0.840000	0.064900	0.242800
H191	H19	0.641600	0.082100	0.196200
H201	H20	0.630100	0.158600	0.264300
H211	H21	0.833000	0.230000	0.156000
H221	H22	0.814300	0.375800	0.273000
H231	H23	0.924900	0.410100	0.211400
H241	H24	0.019000	0.275100	0.255900
H251	H25	0.006000	0.353200	0.322800
H261	H26	0.366000	0.013000	0.435000
H271	H27	0.284800	0.861200	0.519500
H281	H28	0.379800	0.938000	0.580800
H291	H29	0.531000	0.151000	0.546600
H301	H30	0.522500	0.194600	0.465800
H311	H31	0.311000	0.707000	0.140000
H321	H32	0.228700	0.522300	0.196100
H331	H33	0.340000	0.564900	0.257200
H341	H34	0.141600	0.582100	0.303800
H351	H35	0.130100	0.658600	0.235700
H361	H36	0.333000	0.730000	0.344000
H371	H37	0.314300	0.875800	0.227000
H381	H38	0.424900	0.910100	0.288600
H391	H39	0.519000	0.775100	0.244100
H401	H40	0.506000	0.853200	0.177200
H411	H41	0.866000	0.513000	0.065000
H421	H42	0.784800	0.361200	0.980500
H431	H43	0.879800	0.438000	0.919200
H441	H44	0.031000	0.651000	0.953400
H451	H45	0.022500	0.694600	0.034200
H461	H46	0.189000	0.793000	0.640000
H471	H47	0.271300	0.977700	0.696100
H481	H48	0.160000	0.935100	0.757200
H491	H49	0.358400	0.917900	0.803800
H501	H50	0.369900	0.841400	0.735700
H511	H51	0.167000	0.770000	0.844000
H521	H52	0.185700	0.624200	0.727000
H531	H53	0.075100	0.589900	0.788600
H541	H54	0.981000	0.724900	0.744100
H551	H55	0.994000	0.646800	0.677200
H561	H56	0.634000	0.987000	0.565000
H571	H57	0.715200	0.138800	0.480500
H581	H58	0.620200	0.062000	0.419200
H591	H59	0.469000	0.849000	0.453400
H601	H60	0.477500	0.805400	0.534200
C11	C1	0.544300	0.364600	0.880600
C21	C2	0.627600	0.316800	0.828700
C31	C3	0.716200	0.409300	0.776100
C41	C4	0.807000	0.359000	0.731500
C51	C5	0.724900	0.246900	0.690700
C61	C6	0.632500	0.155100	0.740800
C71	C7	0.544700	0.206200	0.787600
C81	C8	0.120100	0.466700	0.987000
C91	C9	0.128100	0.578500	0.028300
C101	C10	0.982800	0.374000	0.995500
C111	C11	0.818900	0.203000	0.644300
C121	C12	0.233300	0.424400	0.011800
C131	C13	0.955700	0.135400	0.380600
C141	C14	0.872400	0.183200	0.328700
C151	C15	0.783800	0.090700	0.276100
C161	C16	0.693000	0.141000	0.231500
C171	C17	0.775100	0.253100	0.190700
C181	C18	0.867500	0.344900	0.240800
C191	C19	0.955300	0.293800	0.287600
C201	C20	0.379900	0.033300	0.487000
C211	C21	0.371900	0.921500	0.528300
C221	C22	0.517200	0.126000	0.495500
C231	C23	0.681100	0.297000	0.144300
C241	C24	0.266700	0.075600	0.511800
C251	C25	0.455700	0.635400	0.119400
C261	C26	0.372400	0.683200	0.171300
C271	C27	0.283800	0.590700	0.223900
C281	C28	0.193000	0.641000	0.268500
C291	C29	0.275100	0.753100	0.309300
C301	C30	0.367500	0.844900	0.259200
C311	C31	0.455300	0.793800	0.212400
C321	C32	0.879900	0.533300	0.013000
C331	C33	0.871900	0.421500	0.971700
C341	C34	0.017200	0.626000	0.004500
C351	C35	0.181100	0.797000	0.355700
C361	C36	0.766700	0.575600	0.988200
C371	C37	0.044300	0.864600	0.619400
C381	C38	0.127600	0.816800	0.671300
C391	C39	0.216200	0.909300	0.723900
C401	C40	0.307000	0.859000	0.768500
C411	C41	0.224900	0.746900	0.809300
C421	C42	0.132500	0.655100	0.759200
C431	C43	0.044700	0.706200	0.712400
C441	C44	0.620100	0.966700	0.513000
C451	C45	0.628100	0.078500	0.471700
C461	C46	0.482800	0.874000	0.504500
C471	C47	0.318900	0.703000	0.855700
C481	C48	0.733300	0.924400	0.488200
O11	O1	0.533800	0.462700	0.864700
O21	O2	0.349400	0.479200	0.987200
O31	O3	0.836600	0.108700	0.661500
O41	O4	0.876000	0.263400	0.590400
O51	O5	0.495100	0.303400	0.936100
O61	O6	0.211200	0.338900	0.054700
O71	O7	0.966200	0.037300	0.364700
O81	O8	0.150600	0.020800	0.487200
O91	O9	0.663400	0.391300	0.161500
O101	O10	0.624000	0.236600	0.090400
O111	O11	0.004900	0.196600	0.436100
O121	O12	0.288800	0.161100	0.554700
O131	O13	0.466200	0.537300	0.135300
O141	O14	0.650600	0.520800	0.012800
O151	O15	0.163400	0.891300	0.338500
O161	O16	0.124000	0.736600	0.409600
O171	O17	0.504900	0.696600	0.063900
O181	O18	0.788800	0.661100	0.945300
O191	O19	0.033800	0.962700	0.635300
O201	O20	0.849400	0.979200	0.512800
O211	O21	0.336600	0.608700	0.838500
O221	O22	0.376000	0.763400	0.909600
O231	O23	0.995100	0.803400	0.563900
O241	O24	0.711200	0.838900	0.445300
