data_MUNDEG_clean_PM
_symmetry_space_group_name_H-M	'P1'
_cell_length_a	27.538000
_cell_length_b	27.538000
_cell_length_c	20.139000
_cell_angle_alpha	90.000000
_cell_angle_beta	90.000000
_cell_angle_gamma	120.000000
_symmetry_Int_Tables_number 1

loop_
_symmetry_equiv_pos_as_xyz
'x,y,z'

loop_
_atom_site_label
_atom_site_type_symbol
_atom_site_fract_x
_atom_site_fract_y
_atom_site_fract_z
I11	I1	0.226720	0.634200	0.549310
Cu11	Cu1	0.287770	0.605240	0.474760
O11	O1	0.211370	0.368870	0.319830
O21	O2	0.291030	0.451320	0.317590
O31	O3	0.959080	0.272290	0.680970
O41	O4	0.954580	0.351250	0.682290
N11	N1	0.237690	0.523870	0.450100
C11	C1	0.251500	0.498100	0.403200
H11	H1	0.283600	0.519900	0.378100
C21	C2	0.220800	0.441000	0.390000
C31	C3	0.173700	0.408000	0.427500
H21	H2	0.152500	0.369600	0.420000
C41	C4	0.158500	0.433300	0.477000
C51	C5	0.191700	0.490500	0.485700
H31	H3	0.181500	0.507200	0.518800
C61	C6	0.242300	0.417800	0.338400
C71	C7	0.107900	0.402300	0.520300
C81	C8	0.092900	0.349300	0.542000
H41	H4	0.112000	0.331500	0.527100
C91	C9	0.047900	0.322300	0.587100
H51	H5	0.037100	0.286100	0.601400
C101	C10	0.019600	0.348800	0.610800
C111	C11	0.033600	0.400800	0.585800
H61	H6	0.013600	0.418200	0.598900
C121	C12	0.077600	0.427100	0.541000
H71	H7	0.086800	0.462200	0.524500
C131	C13	0.973600	0.321400	0.662400
C141	C14	0.390100	0.686400	0.711500
H81	H8	0.415200	0.724100	0.695500
H91	H9	0.403800	0.662200	0.695500
I21	I2	0.365800	0.592520	0.549310
Cu21	Cu2	0.394760	0.682530	0.474760
O51	O5	0.631130	0.842500	0.319830
O61	O6	0.548680	0.839710	0.317590
O71	O7	0.727710	0.686790	0.680970
O81	O8	0.648750	0.603330	0.682290
N21	N2	0.476130	0.713820	0.450100
C151	C15	0.501900	0.753400	0.403200
H101	H10	0.480100	0.763700	0.378100
C161	C16	0.559000	0.779800	0.390000
C171	C17	0.592000	0.765700	0.427500
H111	H11	0.630400	0.782900	0.420000
C181	C18	0.566700	0.725200	0.477000
C191	C19	0.509500	0.701200	0.485700
H121	H12	0.492800	0.674300	0.518800
C201	C20	0.582200	0.824500	0.338400
C211	C21	0.597700	0.705600	0.520300
C221	C22	0.650700	0.743600	0.542000
H131	H13	0.668500	0.780500	0.527100
C231	C23	0.677700	0.725600	0.587100
H141	H14	0.713900	0.751000	0.601400
C241	C24	0.651200	0.670800	0.610800
C251	C25	0.599200	0.632800	0.585800
H151	H15	0.581800	0.595400	0.598900
C261	C26	0.572900	0.650500	0.541000
H161	H16	0.537800	0.624600	0.524500
C271	C27	0.678600	0.652200	0.662400
C281	C28	0.313600	0.703700	0.711500
H171	H17	0.275900	0.691100	0.695500
H181	H18	0.337800	0.741600	0.695500
I31	I3	0.407480	0.773280	0.549310
Cu31	Cu3	0.317470	0.712230	0.474760
O91	O9	0.157500	0.788630	0.319830
O101	O10	0.160290	0.708970	0.317590
O111	O11	0.313210	0.040920	0.680970
O121	O12	0.396670	0.045420	0.682290
N31	N3	0.286180	0.762310	0.450100
C291	C29	0.246600	0.748500	0.403200
H191	H19	0.236300	0.716400	0.378100
C301	C30	0.220200	0.779200	0.390000
C311	C31	0.234300	0.826300	0.427500
H201	H20	0.217100	0.847500	0.420000
C321	C32	0.274800	0.841500	0.477000
C331	C33	0.298800	0.808300	0.485700
H211	H21	0.325700	0.818500	0.518800
C341	C34	0.175500	0.757700	0.338400
C351	C35	0.294400	0.892100	0.520300
C361	C36	0.256400	0.907100	0.542000
H221	H22	0.219500	0.888000	0.527100
C371	C37	0.274400	0.952100	0.587100
H231	H23	0.249000	0.962900	0.601400
C381	C38	0.329200	0.980400	0.610800
C391	C39	0.367200	0.966400	0.585800
H241	H24	0.404600	0.986400	0.598900
C401	C40	0.349500	0.922400	0.541000
H251	H25	0.375400	0.913200	0.524500
C411	C41	0.347800	0.026400	0.662400
C421	C42	0.296300	0.609900	0.711500
H261	H26	0.308900	0.584800	0.695500
H271	H27	0.258400	0.596200	0.695500
I41	I4	0.773280	0.365800	0.049310
Cu41	Cu4	0.712230	0.394760	0.974760
O131	O13	0.788630	0.631130	0.819830
O141	O14	0.708970	0.548680	0.817590
O151	O15	0.040920	0.727710	0.180970
O161	O16	0.045420	0.648750	0.182290
N41	N4	0.762310	0.476130	0.950100
C431	C43	0.748500	0.501900	0.903200
H281	H28	0.716400	0.480100	0.878100
C441	C44	0.779200	0.559000	0.890000
C451	C45	0.826300	0.592000	0.927500
H291	H29	0.847500	0.630400	0.920000
C461	C46	0.841500	0.566700	0.977000
C471	C47	0.808300	0.509500	0.985700
H301	H30	0.818500	0.492800	0.018800
C481	C48	0.757700	0.582200	0.838400
C491	C49	0.892100	0.597700	0.020300
C501	C50	0.907100	0.650700	0.042000
H311	H31	0.888000	0.668500	0.027100
C511	C51	0.952100	0.677700	0.087100
H321	H32	0.962900	0.713900	0.101400
C521	C52	0.980400	0.651200	0.110800
C531	C53	0.966400	0.599200	0.085800
H331	H33	0.986400	0.581800	0.098900
C541	C54	0.922400	0.572900	0.041000
H341	H34	0.913200	0.537800	0.024500
C551	C55	0.026400	0.678600	0.162400
C561	C56	0.609900	0.313600	0.211500
H351	H35	0.584800	0.275900	0.195500
H361	H36	0.596200	0.337800	0.195500
I51	I5	0.634200	0.407480	0.049310
Cu51	Cu5	0.605240	0.317470	0.974760
O171	O17	0.368870	0.157500	0.819830
O181	O18	0.451320	0.160290	0.817590
O191	O19	0.272290	0.313210	0.180970
O201	O20	0.351250	0.396670	0.182290
N51	N5	0.523870	0.286180	0.950100
C571	C57	0.498100	0.246600	0.903200
H371	H37	0.519900	0.236300	0.878100
C581	C58	0.441000	0.220200	0.890000
C591	C59	0.408000	0.234300	0.927500
H381	H38	0.369600	0.217100	0.920000
C601	C60	0.433300	0.274800	0.977000
C611	C61	0.490500	0.298800	0.985700
H391	H39	0.507200	0.325700	0.018800
C621	C62	0.417800	0.175500	0.838400
C631	C63	0.402300	0.294400	0.020300
C641	C64	0.349300	0.256400	0.042000
H401	H40	0.331500	0.219500	0.027100
C651	C65	0.322300	0.274400	0.087100
H411	H41	0.286100	0.249000	0.101400
C661	C66	0.348800	0.329200	0.110800
C671	C67	0.400800	0.367200	0.085800
H421	H42	0.418200	0.404600	0.098900
C681	C68	0.427100	0.349500	0.041000
H431	H43	0.462200	0.375400	0.024500
C691	C69	0.321400	0.347800	0.162400
C701	C70	0.686400	0.296300	0.211500
H441	H44	0.724100	0.308900	0.195500
H451	H45	0.662200	0.258400	0.195500
I61	I6	0.592520	0.226720	0.049310
Cu61	Cu6	0.682530	0.287770	0.974760
O211	O21	0.842500	0.211370	0.819830
O221	O22	0.839710	0.291030	0.817590
O231	O23	0.686790	0.959080	0.180970
O241	O24	0.603330	0.954580	0.182290
N61	N6	0.713820	0.237690	0.950100
C711	C71	0.753400	0.251500	0.903200
H461	H46	0.763700	0.283600	0.878100
C721	C72	0.779800	0.220800	0.890000
C731	C73	0.765700	0.173700	0.927500
H471	H47	0.782900	0.152500	0.920000
C741	C74	0.725200	0.158500	0.977000
C751	C75	0.701200	0.191700	0.985700
H481	H48	0.674300	0.181500	0.018800
C761	C76	0.824500	0.242300	0.838400
C771	C77	0.705600	0.107900	0.020300
C781	C78	0.743600	0.092900	0.042000
H491	H49	0.780500	0.112000	0.027100
C791	C79	0.725600	0.047900	0.087100
H501	H50	0.751000	0.037100	0.101400
C801	C80	0.670800	0.019600	0.110800
C811	C81	0.632800	0.033600	0.085800
H511	H51	0.595400	0.013600	0.098900
C821	C82	0.650500	0.077600	0.041000
H521	H52	0.624600	0.086800	0.024500
C831	C83	0.652200	0.973600	0.162400
C841	C84	0.703700	0.390100	0.211500
H531	H53	0.691100	0.415200	0.195500
H541	H54	0.741600	0.403800	0.195500
I71	I7	0.773280	0.365800	0.450690
Cu71	Cu7	0.712230	0.394760	0.525240
O251	O25	0.788630	0.631130	0.680170
O261	O26	0.708970	0.548680	0.682410
O271	O27	0.040920	0.727710	0.319030
O281	O28	0.045420	0.648750	0.317710
N71	N7	0.762310	0.476130	0.549900
C851	C85	0.748500	0.501900	0.596800
H551	H55	0.716400	0.480100	0.621900
C861	C86	0.779200	0.559000	0.610000
C871	C87	0.826300	0.592000	0.572500
H561	H56	0.847500	0.630400	0.580000
C881	C88	0.841500	0.566700	0.523000
C891	C89	0.808300	0.509500	0.514300
H571	H57	0.818500	0.492800	0.481200
C901	C90	0.757700	0.582200	0.661600
C911	C91	0.892100	0.597700	0.479700
C921	C92	0.907100	0.650700	0.458000
H581	H58	0.888000	0.668500	0.472900
C931	C93	0.952100	0.677700	0.412900
H591	H59	0.962900	0.713900	0.398600
C941	C94	0.980400	0.651200	0.389200
C951	C95	0.966400	0.599200	0.414200
H601	H60	0.986400	0.581800	0.401100
C961	C96	0.922400	0.572900	0.459000
H611	H61	0.913200	0.537800	0.475500
C971	C97	0.026400	0.678600	0.337600
C981	C98	0.609900	0.313600	0.288500
H621	H62	0.584800	0.275900	0.304500
H631	H63	0.596200	0.337800	0.304500
I81	I8	0.634200	0.407480	0.450690
Cu81	Cu8	0.605240	0.317470	0.525240
O291	O29	0.368870	0.157500	0.680170
O301	O30	0.451320	0.160290	0.682410
O311	O31	0.272290	0.313210	0.319030
O321	O32	0.351250	0.396670	0.317710
N81	N8	0.523870	0.286180	0.549900
C991	C99	0.498100	0.246600	0.596800
H641	H64	0.519900	0.236300	0.621900
C1001	C100	0.441000	0.220200	0.610000
C1011	C101	0.408000	0.234300	0.572500
H651	H65	0.369600	0.217100	0.580000
C1021	C102	0.433300	0.274800	0.523000
C1031	C103	0.490500	0.298800	0.514300
H661	H66	0.507200	0.325700	0.481200
C1041	C104	0.417800	0.175500	0.661600
C1051	C105	0.402300	0.294400	0.479700
C1061	C106	0.349300	0.256400	0.458000
H671	H67	0.331500	0.219500	0.472900
C1071	C107	0.322300	0.274400	0.412900
H681	H68	0.286100	0.249000	0.398600
C1081	C108	0.348800	0.329200	0.389200
C1091	C109	0.400800	0.367200	0.414200
H691	H69	0.418200	0.404600	0.401100
C1101	C110	0.427100	0.349500	0.459000
H701	H70	0.462200	0.375400	0.475500
C1111	C111	0.321400	0.347800	0.337600
C1121	C112	0.686400	0.296300	0.288500
H711	H71	0.724100	0.308900	0.304500
H721	H72	0.662200	0.258400	0.304500
I91	I9	0.592520	0.226720	0.450690
Cu91	Cu9	0.682530	0.287770	0.525240
O331	O33	0.842500	0.211370	0.680170
O341	O34	0.839710	0.291030	0.682410
O351	O35	0.686790	0.959080	0.319030
O361	O36	0.603330	0.954580	0.317710
N91	N9	0.713820	0.237690	0.549900
C1131	C113	0.753400	0.251500	0.596800
H731	H73	0.763700	0.283600	0.621900
C1141	C114	0.779800	0.220800	0.610000
C1151	C115	0.765700	0.173700	0.572500
H741	H74	0.782900	0.152500	0.580000
C1161	C116	0.725200	0.158500	0.523000
C1171	C117	0.701200	0.191700	0.514300
H751	H75	0.674300	0.181500	0.481200
C1181	C118	0.824500	0.242300	0.661600
C1191	C119	0.705600	0.107900	0.479700
C1201	C120	0.743600	0.092900	0.458000
H761	H76	0.780500	0.112000	0.472900
C1211	C121	0.725600	0.047900	0.412900
H771	H77	0.751000	0.037100	0.398600
C1221	C122	0.670800	0.019600	0.389200
C1231	C123	0.632800	0.033600	0.414200
H781	H78	0.595400	0.013600	0.401100
C1241	C124	0.650500	0.077600	0.459000
H791	H79	0.624600	0.086800	0.475500
C1251	C125	0.652200	0.973600	0.337600
C1261	C126	0.703700	0.390100	0.288500
H801	H80	0.691100	0.415200	0.304500
H811	H81	0.741600	0.403800	0.304500
I101	I10	0.226720	0.634200	0.950690
Cu101	Cu10	0.287770	0.605240	0.025240
O371	O37	0.211370	0.368870	0.180170
O381	O38	0.291030	0.451320	0.182410
O391	O39	0.959080	0.272290	0.819030
O401	O40	0.954580	0.351250	0.817710
N101	N10	0.237690	0.523870	0.049900
C1271	C127	0.251500	0.498100	0.096800
H821	H82	0.283600	0.519900	0.121900
C1281	C128	0.220800	0.441000	0.110000
C1291	C129	0.173700	0.408000	0.072500
H831	H83	0.152500	0.369600	0.080000
C1301	C130	0.158500	0.433300	0.023000
C1311	C131	0.191700	0.490500	0.014300
H841	H84	0.181500	0.507200	0.981200
C1321	C132	0.242300	0.417800	0.161600
C1331	C133	0.107900	0.402300	0.979700
C1341	C134	0.092900	0.349300	0.958000
H851	H85	0.112000	0.331500	0.972900
C1351	C135	0.047900	0.322300	0.912900
H861	H86	0.037100	0.286100	0.898600
C1361	C136	0.019600	0.348800	0.889200
C1371	C137	0.033600	0.400800	0.914200
H871	H87	0.013600	0.418200	0.901100
C1381	C138	0.077600	0.427100	0.959000
H881	H88	0.086800	0.462200	0.975500
C1391	C139	0.973600	0.321400	0.837600
C1401	C140	0.390100	0.686400	0.788500
H891	H89	0.415200	0.724100	0.804500
H901	H90	0.403800	0.662200	0.804500
I111	I11	0.365800	0.592520	0.950690
Cu111	Cu11	0.394760	0.682530	0.025240
O411	O41	0.631130	0.842500	0.180170
O421	O42	0.548680	0.839710	0.182410
O431	O43	0.727710	0.686790	0.819030
O441	O44	0.648750	0.603330	0.817710
N111	N11	0.476130	0.713820	0.049900
C1411	C141	0.501900	0.753400	0.096800
H911	H91	0.480100	0.763700	0.121900
C1421	C142	0.559000	0.779800	0.110000
C1431	C143	0.592000	0.765700	0.072500
H921	H92	0.630400	0.782900	0.080000
C1441	C144	0.566700	0.725200	0.023000
C1451	C145	0.509500	0.701200	0.014300
H931	H93	0.492800	0.674300	0.981200
C1461	C146	0.582200	0.824500	0.161600
C1471	C147	0.597700	0.705600	0.979700
C1481	C148	0.650700	0.743600	0.958000
H941	H94	0.668500	0.780500	0.972900
C1491	C149	0.677700	0.725600	0.912900
H951	H95	0.713900	0.751000	0.898600
C1501	C150	0.651200	0.670800	0.889200
C1511	C151	0.599200	0.632800	0.914200
H961	H96	0.581800	0.595400	0.901100
C1521	C152	0.572900	0.650500	0.959000
H971	H97	0.537800	0.624600	0.975500
C1531	C153	0.678600	0.652200	0.837600
C1541	C154	0.313600	0.703700	0.788500
H981	H98	0.275900	0.691100	0.804500
H991	H99	0.337800	0.741600	0.804500
I121	I12	0.407480	0.773280	0.950690
Cu121	Cu12	0.317470	0.712230	0.025240
O451	O45	0.157500	0.788630	0.180170
O461	O46	0.160290	0.708970	0.182410
O471	O47	0.313210	0.040920	0.819030
O481	O48	0.396670	0.045420	0.817710
N121	N12	0.286180	0.762310	0.049900
C1551	C155	0.246600	0.748500	0.096800
H1001	H100	0.236300	0.716400	0.121900
C1561	C156	0.220200	0.779200	0.110000
C1571	C157	0.234300	0.826300	0.072500
H1011	H101	0.217100	0.847500	0.080000
C1581	C158	0.274800	0.841500	0.023000
C1591	C159	0.298800	0.808300	0.014300
H1021	H102	0.325700	0.818500	0.981200
C1601	C160	0.175500	0.757700	0.161600
C1611	C161	0.294400	0.892100	0.979700
C1621	C162	0.256400	0.907100	0.958000
H1031	H103	0.219500	0.888000	0.972900
C1631	C163	0.274400	0.952100	0.912900
H1041	H104	0.249000	0.962900	0.898600
C1641	C164	0.329200	0.980400	0.889200
C1651	C165	0.367200	0.966400	0.914200
H1051	H105	0.404600	0.986400	0.901100
C1661	C166	0.349500	0.922400	0.959000
H1061	H106	0.375400	0.913200	0.975500
C1671	C167	0.347800	0.026400	0.837600
C1681	C168	0.296300	0.609900	0.788500
H1071	H107	0.308900	0.584800	0.804500
H1081	H108	0.258400	0.596200	0.804500
I131	I13	0.333330	0.666670	0.364960
Cu131	Cu13	0.333330	0.666670	0.582580
N131	N13	0.333330	0.666670	0.685400
I141	I14	0.666670	0.333330	0.864960
Cu141	Cu14	0.666670	0.333330	0.082580
N141	N14	0.666670	0.333330	0.185400
I151	I15	0.666670	0.333330	0.635040
Cu151	Cu15	0.666670	0.333330	0.417420
N151	N15	0.666670	0.333330	0.314600
I161	I16	0.333330	0.666670	0.135040
Cu161	Cu16	0.333330	0.666670	0.917420
N161	N16	0.333330	0.666670	0.814600
Cu171	Cu17	0.234430	0.332870	0.250000
Cu181	Cu18	0.328810	0.431170	0.250000
Cu191	Cu19	0.667130	0.901560	0.250000
Cu201	Cu20	0.568830	0.897640	0.250000
Cu211	Cu21	0.098440	0.765570	0.250000
Cu221	Cu22	0.102360	0.671190	0.250000
Cu231	Cu23	0.765570	0.667130	0.750000
Cu241	Cu24	0.671190	0.568830	0.750000
Cu251	Cu25	0.332870	0.098440	0.750000
Cu261	Cu26	0.431170	0.102360	0.750000
Cu271	Cu27	0.901560	0.234430	0.750000
Cu281	Cu28	0.897640	0.328810	0.750000
