data_MUNPER_clean_PM
_symmetry_space_group_name_H-M	'P1'
_cell_length_a	12.972000
_cell_length_b	22.296000
_cell_length_c	12.988000
_cell_angle_alpha	90.000000
_cell_angle_beta	109.376000
_cell_angle_gamma	90.000000
_symmetry_Int_Tables_number 1

loop_
_symmetry_equiv_pos_as_xyz
'x,y,z'

loop_
_atom_site_label
_atom_site_type_symbol
_atom_site_fract_x
_atom_site_fract_y
_atom_site_fract_z
Zn11	Zn1	0.853180	0.213320	0.752480
Zn21	Zn2	0.866440	0.082500	0.737590
O11	O1	0.694100	0.194300	0.719600
C11	C1	0.652700	0.139300	0.704700
O21	O2	0.701500	0.091500	0.704000
O31	O3	0.874600	0.189300	0.909300
C21	C2	0.877200	0.136200	0.950500
O41	O4	0.883900	0.090100	0.895200
O51	O5	0.020700	0.201000	0.787100
C31	C3	0.066500	0.153300	0.772300
O61	O6	0.028100	0.104000	0.771700
O71	O7	0.840700	0.207200	0.596700
C41	C4	0.848900	0.157600	0.548100
O81	O8	0.851600	0.107000	0.585100
N11	N1	0.853300	0.302900	0.766200
C51	C5	0.760000	0.332900	0.701300
H11	H1	0.696400	0.311700	0.659400
C61	C6	0.764100	0.397300	0.700400
H21	H2	0.704700	0.419100	0.652100
C71	C7	0.853700	0.428200	0.768900
C81	C8	0.942300	0.397500	0.840500
H31	H3	0.002600	0.417900	0.890400
C91	C9	0.937000	0.333600	0.834300
H41	H4	0.996600	0.311400	0.881500
N21	N2	0.854400	0.489600	0.764800
C101	C10	0.859400	0.522200	0.864500
C111	C11	0.857100	0.587900	0.860700
C121	C12	0.859700	0.620600	0.947300
H51	H5	0.863300	0.602200	0.014300
C131	C13	0.857100	0.681700	0.936300
H61	H6	0.850100	0.704300	0.995600
C141	C14	0.863900	0.715500	0.843300
C151	C15	0.864800	0.778100	0.837100
N31	N3	0.872900	0.802000	0.748900
C161	C16	0.868800	0.777800	0.657300
C171	C17	0.858700	0.707400	0.660900
C181	C18	0.864400	0.675400	0.567100
H71	H7	0.874900	0.693700	0.505200
C191	C19	0.852000	0.610600	0.579800
H81	H8	0.840300	0.586600	0.516500
C201	C20	0.855100	0.584300	0.663600
C211	C21	0.848000	0.516100	0.663000
C221	C22	0.853600	0.618700	0.756000
C231	C23	0.856700	0.683300	0.759400
O91	O9	0.850100	0.495500	0.948700
O101	O10	0.871900	0.811100	0.925400
O111	O11	0.863800	0.799600	0.573900
O121	O12	0.852400	0.487500	0.594100
C241	C24	0.536700	0.136000	0.708000
C251	C25	0.488600	0.073800	0.698100
H91	H9	0.526900	0.040200	0.684000
C261	C26	0.390900	0.067100	0.709600
H101	H10	0.360200	0.028300	0.708100
C271	C27	0.330800	0.121200	0.724800
C281	C28	0.219600	0.115300	0.732000
H111	H11	0.183100	0.077700	0.717400
C291	C29	0.170500	0.162100	0.758600
C301	C30	0.216600	0.218600	0.752300
H121	H12	0.177000	0.254200	0.754500
C311	C31	0.313900	0.222100	0.743300
H131	H13	0.344200	0.261300	0.749100
C321	C32	0.375900	0.178400	0.727300
C331	C33	0.480600	0.184000	0.721800
H141	H14	0.513000	0.222600	0.727900
C341	C34	0.869900	0.130500	0.055200
C351	C35	0.874000	0.073800	0.103600
H151	H15	0.883400	0.039000	0.065500
C361	C36	0.864900	0.068300	0.203800
H161	H16	0.862000	0.029100	0.231700
C371	C37	0.859400	0.118000	0.268600
C381	C38	0.852300	0.115500	0.369800
H171	H17	0.847600	0.076800	0.398400
C391	C39	0.851100	0.163400	0.435100
C401	C40	0.850900	0.218900	0.389200
H181	H18	0.853200	0.253400	0.432800
C411	C41	0.847400	0.227100	0.282100
H191	H19	0.838500	0.266200	0.251300
C421	C42	0.857300	0.176700	0.218300
C431	C43	0.860300	0.181400	0.115000
H201	H20	0.855800	0.219900	0.082500
N41	N4	0.872100	0.991300	0.739700
C441	C44	0.784500	0.959500	0.680200
H211	H21	0.721000	0.980000	0.636000
C451	C45	0.785400	0.898600	0.682200
H221	H22	0.723200	0.876300	0.640300
C461	C46	0.874900	0.871100	0.743900
C471	C47	0.960900	0.901900	0.809700
H231	H23	0.024200	0.884600	0.860700
C481	C48	0.942000	0.964600	0.790700
H241	H24	0.002700	0.988500	0.830600
Zn31	Zn3	0.146820	0.713320	0.247520
Zn41	Zn4	0.133560	0.582500	0.262410
O131	O13	0.305900	0.694300	0.280400
C491	C49	0.347300	0.639300	0.295300
O141	O14	0.298500	0.591500	0.296000
O151	O15	0.125400	0.689300	0.090700
C501	C50	0.122800	0.636200	0.049500
O161	O16	0.116100	0.590100	0.104800
O171	O17	0.979300	0.701000	0.212900
C511	C51	0.933500	0.653300	0.227700
O181	O18	0.971900	0.604000	0.228300
O191	O19	0.159300	0.707200	0.403300
C521	C52	0.151100	0.657600	0.451900
O201	O20	0.148400	0.607000	0.414900
N51	N5	0.146700	0.802900	0.233800
C531	C53	0.240000	0.832900	0.298700
H251	H25	0.303600	0.811700	0.340600
C541	C54	0.235900	0.897300	0.299600
H261	H26	0.295300	0.919100	0.347900
C551	C55	0.146300	0.928200	0.231100
C561	C56	0.057700	0.897500	0.159500
H271	H27	0.997400	0.917900	0.109600
C571	C57	0.063000	0.833600	0.165700
H281	H28	0.003400	0.811400	0.118500
N61	N6	0.145600	0.989600	0.235200
C581	C58	0.140600	0.022200	0.135500
C591	C59	0.142900	0.087900	0.139300
C601	C60	0.140300	0.120600	0.052700
H291	H29	0.136700	0.102200	0.985700
C611	C61	0.142900	0.181700	0.063700
H301	H30	0.149900	0.204300	0.004400
C621	C62	0.136100	0.215500	0.156700
C631	C63	0.135200	0.278100	0.162900
N71	N7	0.127100	0.302000	0.251100
C641	C64	0.131200	0.277800	0.342700
C651	C65	0.141300	0.207400	0.339100
C661	C66	0.135600	0.175400	0.432900
H311	H31	0.125100	0.193700	0.494800
C671	C67	0.148000	0.110600	0.420200
H321	H32	0.159700	0.086600	0.483500
C681	C68	0.144900	0.084300	0.336400
C691	C69	0.152000	0.016100	0.337000
C701	C70	0.146400	0.118700	0.244000
C711	C71	0.143300	0.183300	0.240600
O211	O21	0.149900	0.995500	0.051300
O221	O22	0.128100	0.311100	0.074600
O231	O23	0.136200	0.299600	0.426100
O241	O24	0.147600	0.987500	0.405900
C721	C72	0.463300	0.636000	0.292000
C731	C73	0.511400	0.573800	0.301900
H331	H33	0.473100	0.540200	0.316000
C741	C74	0.609100	0.567100	0.290400
H341	H34	0.639800	0.528300	0.291900
C751	C75	0.669200	0.621200	0.275200
C761	C76	0.780400	0.615300	0.268000
H351	H35	0.816900	0.577700	0.282600
C771	C77	0.829500	0.662100	0.241400
C781	C78	0.783400	0.718600	0.247700
H361	H36	0.823000	0.754200	0.245500
C791	C79	0.686100	0.722100	0.256700
H371	H37	0.655800	0.761300	0.250900
C801	C80	0.624100	0.678400	0.272700
C811	C81	0.519400	0.684000	0.278200
H381	H38	0.487000	0.722600	0.272100
C821	C82	0.130100	0.630500	0.944800
C831	C83	0.126000	0.573800	0.896400
H391	H39	0.116600	0.539000	0.934500
C841	C84	0.135100	0.568300	0.796200
H401	H40	0.138000	0.529100	0.768300
C851	C85	0.140600	0.618000	0.731400
C861	C86	0.147700	0.615500	0.630200
H411	H41	0.152400	0.576800	0.601600
C871	C87	0.148900	0.663400	0.564900
C881	C88	0.149100	0.718900	0.610800
H421	H42	0.146800	0.753400	0.567200
C891	C89	0.152600	0.727100	0.717900
H431	H43	0.161500	0.766200	0.748700
C901	C90	0.142700	0.676700	0.781700
C911	C91	0.139700	0.681400	0.885000
H441	H44	0.144200	0.719900	0.917500
N81	N8	0.127900	0.491300	0.260300
C921	C92	0.215500	0.459500	0.319800
H451	H45	0.279000	0.480000	0.364000
C931	C93	0.214600	0.398600	0.317800
H461	H46	0.276800	0.376300	0.359700
C941	C94	0.125100	0.371100	0.256100
C951	C95	0.039100	0.401900	0.190300
H471	H47	0.975800	0.384600	0.139300
C961	C96	0.058000	0.464600	0.209300
H481	H48	0.997300	0.488500	0.169400
