data_MUPTAU_clean_PM
_symmetry_space_group_name_H-M	'P1'
_cell_length_a	8.186000
_cell_length_b	20.160000
_cell_length_c	8.952100
_cell_angle_alpha	90.000000
_cell_angle_beta	91.040000
_cell_angle_gamma	90.000000
_symmetry_Int_Tables_number 1

loop_
_symmetry_equiv_pos_as_xyz
'x,y,z'

loop_
_atom_site_label
_atom_site_type_symbol
_atom_site_fract_x
_atom_site_fract_y
_atom_site_fract_z
N11	N1	0.649800	0.072450	0.889600
N21	N2	0.819700	0.076660	0.901300
N31	N3	0.723500	0.163160	0.783500
N41	N4	0.697400	0.226120	0.723400
N51	N5	0.826300	0.257180	0.724700
N61	N6	0.797800	0.320310	0.667000
N71	N7	0.860400	0.418460	0.591100
N81	N8	0.692800	0.411520	0.575400
N91	N9	0.339900	0.996770	0.804400
N101	N10	0.416500	0.996650	0.666400
N111	N11	0.152800	0.998610	0.630800
N121	N12	0.996700	0.000080	0.569400
C11	C1	0.596100	0.124190	0.819300
H11	H1	0.486900	0.133200	0.797000
C21	C2	0.860300	0.132040	0.838300
H21	H2	0.966300	0.148200	0.831500
C31	C3	0.919100	0.364290	0.647600
H31	H3	0.028600	0.356900	0.671300
C41	C4	0.658200	0.351840	0.621800
H41	H4	0.553900	0.333600	0.623700
C51	C5	0.182400	0.997990	0.780600
H51	H5	0.103400	0.998400	0.854000
C61	C6	0.302300	0.997850	0.565000
H61	H6	0.319200	0.998100	0.462600
N131	N13	0.850200	0.572450	0.610400
N141	N14	0.680300	0.576660	0.598700
N151	N15	0.776500	0.663160	0.716500
N161	N16	0.802600	0.726120	0.776600
N171	N17	0.673700	0.757180	0.775300
N181	N18	0.702200	0.820310	0.833000
N191	N19	0.639600	0.918460	0.908900
N201	N20	0.807200	0.911520	0.924600
N211	N21	0.160100	0.496770	0.695600
N221	N22	0.083500	0.496650	0.833600
N231	N23	0.347200	0.498610	0.869200
N241	N24	0.503300	0.500080	0.930600
C71	C7	0.903900	0.624190	0.680700
H71	H7	0.013100	0.633200	0.703000
C81	C8	0.639700	0.632040	0.661700
H81	H8	0.533700	0.648200	0.668500
C91	C9	0.580900	0.864290	0.852400
H91	H9	0.471400	0.856900	0.828700
C101	C10	0.841800	0.851840	0.878200
H101	H10	0.946100	0.833600	0.876300
C111	C11	0.317600	0.497990	0.719400
H111	H11	0.396600	0.498400	0.646000
C121	C12	0.197700	0.497850	0.935000
H121	H12	0.180800	0.498100	0.037400
N251	N25	0.350200	0.927550	0.110400
N261	N26	0.180300	0.923340	0.098700
N271	N27	0.276500	0.836840	0.216500
N281	N28	0.302600	0.773880	0.276600
N291	N29	0.173700	0.742820	0.275300
N301	N30	0.202200	0.679690	0.333000
N311	N31	0.139600	0.581540	0.408900
N321	N32	0.307200	0.588480	0.424600
N331	N33	0.660100	0.003230	0.195600
N341	N34	0.583500	0.003350	0.333600
N351	N35	0.847200	0.001390	0.369200
N361	N36	0.003300	0.999920	0.430600
C131	C13	0.403900	0.875810	0.180700
H131	H13	0.513100	0.866800	0.203000
C141	C14	0.139700	0.867960	0.161700
H141	H14	0.033700	0.851800	0.168500
C151	C15	0.080900	0.635710	0.352400
H151	H15	0.971400	0.643100	0.328700
C161	C16	0.341800	0.648160	0.378200
H161	H16	0.446100	0.666400	0.376300
C171	C17	0.817600	0.002010	0.219400
H171	H17	0.896600	0.001600	0.146000
C181	C18	0.697700	0.002150	0.435000
H181	H18	0.680800	0.001900	0.537400
N371	N37	0.149800	0.427550	0.389600
N381	N38	0.319700	0.423340	0.401300
N391	N39	0.223500	0.336840	0.283500
N401	N40	0.197400	0.273880	0.223400
N411	N41	0.326300	0.242820	0.224700
N421	N42	0.297800	0.179690	0.167000
N431	N43	0.360400	0.081540	0.091100
N441	N44	0.192800	0.088480	0.075400
N451	N45	0.839900	0.503230	0.304400
N461	N46	0.916500	0.503350	0.166400
N471	N47	0.652800	0.501390	0.130800
N481	N48	0.496700	0.499920	0.069400
C191	C19	0.096100	0.375810	0.319300
H191	H19	0.986900	0.366800	0.297000
C201	C20	0.360300	0.367960	0.338300
H201	H20	0.466300	0.351800	0.331500
C211	C21	0.419100	0.135710	0.147600
H211	H21	0.528600	0.143100	0.171300
C221	C22	0.158200	0.148160	0.121800
H221	H22	0.053900	0.166400	0.123700
C231	C23	0.682400	0.502010	0.280600
H231	H23	0.603400	0.501600	0.354000
C241	C24	0.802300	0.502150	0.065000
H241	H24	0.819200	0.501900	0.962600
Zn11	Zn1	0.500000	0.000000	0.000000
Zn21	Zn2	0.000000	0.500000	0.500000
