data_MUPYIG_clean_PM
_symmetry_space_group_name_H-M	'P1'
_cell_length_a	5.514400
_cell_length_b	8.002100
_cell_length_c	9.246700
_cell_angle_alpha	78.487000
_cell_angle_beta	72.869000
_cell_angle_gamma	87.200000
_symmetry_Int_Tables_number 1

loop_
_symmetry_equiv_pos_as_xyz
'x,y,z'

loop_
_atom_site_label
_atom_site_type_symbol
_atom_site_fract_x
_atom_site_fract_y
_atom_site_fract_z
Cd11	Cd1	0.000000	0.000000	0.000000
Cd21	Cd2	0.500000	0.500000	0.500000
H11	H1	0.555900	0.200800	0.267800
H21	H2	0.078800	0.519700	0.240600
H31	H3	0.239200	0.342900	0.062600
H41	H4	0.444100	0.799200	0.732200
H51	H5	0.921200	0.480300	0.759400
H61	H6	0.760800	0.657100	0.937400
C11	C1	0.710000	0.259200	0.237300
C21	C2	0.991100	0.432300	0.224100
C31	C3	0.290000	0.740800	0.762700
C41	C4	0.008900	0.567700	0.775900
S11	S1	0.579440	0.207620	0.807310
S21	S2	0.420560	0.792380	0.192690
N11	N1	0.752100	0.388700	0.299700
N21	N2	0.909000	0.223400	0.128500
N31	N3	0.086500	0.335800	0.123200
N41	N4	0.247900	0.611300	0.700300
N51	N5	0.091000	0.776600	0.871500
N61	N6	0.913500	0.664200	0.876800
O11	O1	0.694800	0.308200	0.650300
O21	O2	0.334700	0.136600	0.809000
O31	O3	0.751400	0.068600	0.836100
O41	O4	0.538000	0.318200	0.919600
O51	O5	0.305200	0.691800	0.349700
O61	O6	0.665300	0.863400	0.191000
O71	O7	0.248600	0.931400	0.163900
O81	O8	0.462000	0.681800	0.080400
