data_MURNIX_clean_PM
_symmetry_space_group_name_H-M	'P1'
_cell_length_a	7.895800
_cell_length_b	9.608300
_cell_length_c	15.514000
_cell_angle_alpha	101.850000
_cell_angle_beta	90.000000
_cell_angle_gamma	90.000000
_symmetry_Int_Tables_number 1

loop_
_symmetry_equiv_pos_as_xyz
'x,y,z'

loop_
_atom_site_label
_atom_site_type_symbol
_atom_site_fract_x
_atom_site_fract_y
_atom_site_fract_z
Sm11	Sm1	0.398430	0.510740	0.542030
Sm21	Sm2	0.386590	0.016180	0.536900
Sm31	Sm3	0.898430	0.489260	0.457970
Sm41	Sm4	0.886590	0.983820	0.463100
Cu11	Cu1	0.543800	0.746510	0.005570
Cu21	Cu2	0.043800	0.253490	0.994430
H11	H1	0.583400	0.630400	0.807400
H21	H2	0.062000	0.892800	0.893000
H31	H3	0.020700	0.783400	0.741500
H41	H4	0.025200	0.598000	0.111700
H51	H5	0.005100	0.755800	0.244700
H61	H6	0.470100	0.897600	0.200200
H71	H7	0.083400	0.369600	0.192600
H81	H8	0.562000	0.107200	0.107000
H91	H9	0.520700	0.216600	0.258500
H101	H10	0.525200	0.402000	0.888300
H111	H11	0.505100	0.244200	0.755300
H121	H12	0.970100	0.102400	0.799800
C11	C1	0.748500	0.633600	0.663400
C21	C2	0.799100	0.701900	0.761500
C31	C3	0.679500	0.685000	0.824600
C41	C4	0.841300	0.825100	0.933300
C51	C5	0.964500	0.840800	0.874700
C61	C6	0.939800	0.774900	0.783700
C71	C7	0.834200	0.901400	0.028900
C81	C8	0.254100	0.585700	0.980000
C91	C9	0.241600	0.673000	0.074300
C101	C10	0.110000	0.665100	0.129000
C111	C11	0.100500	0.754600	0.209400
C121	C12	0.237300	0.844200	0.237200
C131	C13	0.375800	0.841500	0.181400
C141	C14	0.228800	0.944600	0.326500
C151	C15	0.181600	0.266800	0.545200
C161	C16	0.706000	0.244000	0.481000
C171	C17	0.248500	0.366400	0.336600
C181	C18	0.299100	0.298100	0.238500
C191	C19	0.179500	0.315000	0.175400
C201	C20	0.341300	0.174900	0.066700
C211	C21	0.464500	0.159200	0.125300
C221	C22	0.439800	0.225100	0.216300
C231	C23	0.334200	0.098600	0.971100
C241	C24	0.754100	0.414300	0.020000
C251	C25	0.741600	0.327000	0.925700
C261	C26	0.610000	0.334900	0.871000
C271	C27	0.600500	0.245400	0.790600
C281	C28	0.737300	0.155800	0.762800
C291	C29	0.875800	0.158500	0.818600
C301	C30	0.728800	0.055400	0.673500
C311	C31	0.681600	0.733200	0.454800
C321	C32	0.206000	0.756000	0.519000
N11	N1	0.700900	0.746000	0.908900
N21	N2	0.374000	0.757400	0.099400
N31	N3	0.200900	0.254000	0.091100
N41	N4	0.874000	0.242600	0.900600
O11	O1	0.599100	0.606600	0.651100
O21	O2	0.873300	0.619300	0.610000
O31	O3	0.714900	0.866500	0.073700
O41	O4	0.944200	0.991800	0.056500
O51	O5	0.375700	0.624900	0.935200
O61	O6	0.155200	0.488600	0.953500
O71	O7	0.363500	0.978900	0.369100
O81	O8	0.079900	0.985700	0.349200
O91	O9	0.335800	0.272000	0.567900
O101	O10	0.109800	0.145100	0.530100
O111	O11	0.104800	0.382000	0.538500
O121	O12	0.656100	0.371900	0.513200
O131	O13	0.834900	0.226600	0.430200
O141	O14	0.637300	0.133900	0.501700
O151	O15	0.099100	0.393400	0.348900
O161	O16	0.373300	0.380700	0.390000
O171	O17	0.214900	0.133500	0.926300
O181	O18	0.444200	0.008200	0.943500
O191	O19	0.875700	0.375100	0.064800
O201	O20	0.655200	0.511400	0.046500
O211	O21	0.863500	0.021100	0.630900
O221	O22	0.579900	0.014300	0.650800
O231	O23	0.835800	0.728000	0.432100
O241	O24	0.609800	0.854900	0.469900
O251	O25	0.604800	0.618000	0.461500
O261	O26	0.156100	0.628100	0.486800
O271	O27	0.334900	0.773400	0.569800
O281	O28	0.137300	0.866100	0.498300
