data_MUSCAG_clean_PM
_symmetry_space_group_name_H-M	'P1'
_cell_length_a	12.684600
_cell_length_b	21.737900
_cell_length_c	21.280200
_cell_angle_alpha	90.000000
_cell_angle_beta	90.000000
_cell_angle_gamma	90.000000
_symmetry_Int_Tables_number 1

loop_
_symmetry_equiv_pos_as_xyz
'x,y,z'

loop_
_atom_site_label
_atom_site_type_symbol
_atom_site_fract_x
_atom_site_fract_y
_atom_site_fract_z
C11	C1	0.870400	0.016400	0.094700
C21	C2	0.790400	0.994100	0.141600
H11	H1	0.728300	0.979500	0.119500
H21	H2	0.819500	0.959900	0.165100
C31	C3	0.656100	0.030200	0.215100
H31	H3	0.604400	0.022900	0.182300
H41	H4	0.633400	0.065800	0.239000
C41	C4	0.660300	0.974600	0.258300
H51	H5	0.591400	0.968800	0.277100
H61	H6	0.675900	0.938400	0.233300
C51	C5	0.843000	0.995300	0.281000
H71	H7	0.868800	0.960000	0.257700
H81	H8	0.893000	0.003800	0.314400
C61	C6	0.838300	0.050900	0.236800
H91	H9	0.820900	0.087300	0.261000
H101	H10	0.907500	0.057300	0.218400
C71	C7	0.707900	0.024700	0.357100
H111	H11	0.676600	0.060100	0.336700
H121	H12	0.769600	0.038500	0.380000
C81	C8	0.629400	0.997200	0.402800
C91	C9	0.339000	0.091600	0.490600
C101	C10	0.258400	0.138250	0.512620
H131	H13	0.191300	0.118000	0.519600
H141	H14	0.281200	0.156100	0.552100
C111	C11	0.342000	0.225000	0.467700
H151	H15	0.402300	0.200200	0.455700
H161	H16	0.353200	0.239600	0.510200
C121	C12	0.332100	0.279600	0.423300
H171	H17	0.396600	0.303500	0.425300
H181	H18	0.325200	0.264300	0.380600
C131	C13	0.146400	0.282800	0.440300
H191	H19	0.128700	0.268700	0.398400
H201	H20	0.088800	0.308400	0.454900
C141	C14	0.155200	0.227000	0.483400
H211	H21	0.164200	0.240800	0.526400
H221	H22	0.090500	0.203300	0.481200
C151	C15	0.260100	0.357470	0.493440
H231	H23	0.286800	0.331400	0.526800
H241	H24	0.194000	0.375400	0.507400
C161	C16	0.339600	0.408700	0.479300
N11	N1	0.759800	0.043560	0.185570
N21	N2	0.739800	0.979560	0.309310
N31	N3	0.245700	0.187200	0.465380
N41	N4	0.242300	0.320670	0.436610
O11	O1	0.880800	0.071910	0.083180
O21	O2	0.924000	0.974690	0.068080
O31	O3	0.619900	0.941260	0.408020
O41	O4	0.579500	0.036290	0.436160
O51	O5	0.390500	0.064350	0.533040
O61	O6	0.349600	0.081800	0.433500
O71	O7	0.389900	0.430540	0.525470
O81	O8	0.348800	0.427810	0.425210
Zn11	Zn1	0.759170	0.128030	0.125170
Zn21	Zn2	0.740040	0.889650	0.359210
C171	C17	0.370400	0.516400	0.094700
C181	C18	0.290400	0.494100	0.141600
H251	H25	0.228300	0.479500	0.119500
H261	H26	0.319500	0.459900	0.165100
C191	C19	0.156100	0.530200	0.215100
H271	H27	0.104400	0.522900	0.182300
H281	H28	0.133400	0.565800	0.239000
C201	C20	0.160300	0.474600	0.258300
H291	H29	0.091400	0.468800	0.277100
H301	H30	0.175900	0.438400	0.233300
C211	C21	0.343000	0.495300	0.281000
H311	H31	0.368800	0.460000	0.257700
H321	H32	0.393000	0.503800	0.314400
C221	C22	0.338300	0.550900	0.236800
H331	H33	0.320900	0.587300	0.261000
H341	H34	0.407500	0.557300	0.218400
C231	C23	0.207900	0.524700	0.357100
H351	H35	0.176600	0.560100	0.336700
H361	H36	0.269600	0.538500	0.380000
C241	C24	0.129400	0.497200	0.402800
C251	C25	0.839000	0.591600	0.490600
C261	C26	0.758400	0.638250	0.512620
H371	H37	0.691300	0.618000	0.519600
H381	H38	0.781200	0.656100	0.552100
C271	C27	0.842000	0.725000	0.467700
H391	H39	0.902300	0.700200	0.455700
H401	H40	0.853200	0.739600	0.510200
C281	C28	0.832100	0.779600	0.423300
H411	H41	0.896600	0.803500	0.425300
H421	H42	0.825200	0.764300	0.380600
C291	C29	0.646400	0.782800	0.440300
H431	H43	0.628700	0.768700	0.398400
H441	H44	0.588800	0.808400	0.454900
C301	C30	0.655200	0.727000	0.483400
H451	H45	0.664200	0.740800	0.526400
H461	H46	0.590500	0.703300	0.481200
C311	C31	0.760100	0.857470	0.493440
H471	H47	0.786800	0.831400	0.526800
H481	H48	0.694000	0.875400	0.507400
C321	C32	0.839600	0.908700	0.479300
N51	N5	0.259800	0.543560	0.185570
N61	N6	0.239800	0.479560	0.309310
N71	N7	0.745700	0.687200	0.465380
N81	N8	0.742300	0.820670	0.436610
O91	O9	0.380800	0.571910	0.083180
O101	O10	0.424000	0.474690	0.068080
O111	O11	0.119900	0.441260	0.408020
O121	O12	0.079500	0.536290	0.436160
O131	O13	0.890500	0.564350	0.533040
O141	O14	0.849600	0.581800	0.433500
O151	O15	0.889900	0.930540	0.525470
O161	O16	0.848800	0.927810	0.425210
Zn31	Zn3	0.259170	0.628030	0.125170
Zn41	Zn4	0.240040	0.389650	0.359210
C331	C33	0.129600	0.983600	0.594700
C341	C34	0.209600	0.005900	0.641600
H491	H49	0.271700	0.020500	0.619500
H501	H50	0.180500	0.040100	0.665100
C351	C35	0.343900	0.969800	0.715100
H511	H51	0.395600	0.977100	0.682300
H521	H52	0.366600	0.934200	0.739000
C361	C36	0.339700	0.025400	0.758300
H531	H53	0.408600	0.031200	0.777100
H541	H54	0.324100	0.061600	0.733300
C371	C37	0.157000	0.004700	0.781000
H551	H55	0.131200	0.040000	0.757700
H561	H56	0.107000	0.996200	0.814400
C381	C38	0.161700	0.949100	0.736800
H571	H57	0.179100	0.912700	0.761000
H581	H58	0.092500	0.942700	0.718400
C391	C39	0.292100	0.975300	0.857100
H591	H59	0.323400	0.939900	0.836700
H601	H60	0.230400	0.961500	0.880000
C401	C40	0.370600	0.002800	0.902800
C411	C41	0.661000	0.908400	0.990600
C421	C42	0.741600	0.861750	0.012620
H611	H61	0.808700	0.882000	0.019600
H621	H62	0.718800	0.843900	0.052100
C431	C43	0.658000	0.775000	0.967700
H631	H63	0.597700	0.799800	0.955700
H641	H64	0.646800	0.760400	0.010200
C441	C44	0.667900	0.720400	0.923300
H651	H65	0.603400	0.696500	0.925300
H661	H66	0.674800	0.735700	0.880600
C451	C45	0.853600	0.717200	0.940300
H671	H67	0.871300	0.731300	0.898400
H681	H68	0.911200	0.691600	0.954900
C461	C46	0.844800	0.773000	0.983400
H691	H69	0.835800	0.759200	0.026400
H701	H70	0.909500	0.796700	0.981200
C471	C47	0.739900	0.642530	0.993440
H711	H71	0.713200	0.668600	0.026800
H721	H72	0.806000	0.624600	0.007400
C481	C48	0.660400	0.591300	0.979300
N91	N9	0.240200	0.956440	0.685570
N101	N10	0.260200	0.020440	0.809310
N111	N11	0.754300	0.812800	0.965380
N121	N12	0.757700	0.679330	0.936610
O171	O17	0.119200	0.928090	0.583180
O181	O18	0.076000	0.025310	0.568080
O191	O19	0.380100	0.058740	0.908020
O201	O20	0.420500	0.963710	0.936160
O211	O21	0.609500	0.935650	0.033040
O221	O22	0.650400	0.918200	0.933500
O231	O23	0.610100	0.569460	0.025470
O241	O24	0.651200	0.572190	0.925210
Zn51	Zn5	0.240830	0.871970	0.625170
Zn61	Zn6	0.259960	0.110350	0.859210
C491	C49	0.629600	0.483600	0.594700
C501	C50	0.709600	0.505900	0.641600
H731	H73	0.771700	0.520500	0.619500
H741	H74	0.680500	0.540100	0.665100
C511	C51	0.843900	0.469800	0.715100
H751	H75	0.895600	0.477100	0.682300
H761	H76	0.866600	0.434200	0.739000
C521	C52	0.839700	0.525400	0.758300
H771	H77	0.908600	0.531200	0.777100
H781	H78	0.824100	0.561600	0.733300
C531	C53	0.657000	0.504700	0.781000
H791	H79	0.631200	0.540000	0.757700
H801	H80	0.607000	0.496200	0.814400
C541	C54	0.661700	0.449100	0.736800
H811	H81	0.679100	0.412700	0.761000
H821	H82	0.592500	0.442700	0.718400
C551	C55	0.792100	0.475300	0.857100
H831	H83	0.823400	0.439900	0.836700
H841	H84	0.730400	0.461500	0.880000
C561	C56	0.870600	0.502800	0.902800
C571	C57	0.161000	0.408400	0.990600
C581	C58	0.241600	0.361750	0.012620
H851	H85	0.308700	0.382000	0.019600
H861	H86	0.218800	0.343900	0.052100
C591	C59	0.158000	0.275000	0.967700
H871	H87	0.097700	0.299800	0.955700
H881	H88	0.146800	0.260400	0.010200
C601	C60	0.167900	0.220400	0.923300
H891	H89	0.103400	0.196500	0.925300
H901	H90	0.174800	0.235700	0.880600
C611	C61	0.353600	0.217200	0.940300
H911	H91	0.371300	0.231300	0.898400
H921	H92	0.411200	0.191600	0.954900
C621	C62	0.344800	0.273000	0.983400
H931	H93	0.335800	0.259200	0.026400
H941	H94	0.409500	0.296700	0.981200
C631	C63	0.239900	0.142530	0.993440
H951	H95	0.213200	0.168600	0.026800
H961	H96	0.306000	0.124600	0.007400
C641	C64	0.160400	0.091300	0.979300
N131	N13	0.740200	0.456440	0.685570
N141	N14	0.760200	0.520440	0.809310
N151	N15	0.254300	0.312800	0.965380
N161	N16	0.257700	0.179330	0.936610
O251	O25	0.619200	0.428090	0.583180
O261	O26	0.576000	0.525310	0.568080
O271	O27	0.880100	0.558740	0.908020
O281	O28	0.920500	0.463710	0.936160
O291	O29	0.109500	0.435650	0.033040
O301	O30	0.150400	0.418200	0.933500
O311	O31	0.110100	0.069460	0.025470
O321	O32	0.151200	0.072190	0.925210
Zn71	Zn7	0.740830	0.371970	0.625170
Zn81	Zn8	0.759960	0.610350	0.859210
C651	C65	0.129600	0.016400	0.405300
C661	C66	0.209600	0.994100	0.358400
H971	H97	0.271700	0.979500	0.380500
H981	H98	0.180500	0.959900	0.334900
C671	C67	0.343900	0.030200	0.284900
H991	H99	0.395600	0.022900	0.317700
H1001	H100	0.366600	0.065800	0.261000
C681	C68	0.339700	0.974600	0.241700
H1011	H101	0.408600	0.968800	0.222900
H1021	H102	0.324100	0.938400	0.266700
C691	C69	0.157000	0.995300	0.219000
H1031	H103	0.131200	0.960000	0.242300
H1041	H104	0.107000	0.003800	0.185600
C701	C70	0.161700	0.050900	0.263200
H1051	H105	0.179100	0.087300	0.239000
H1061	H106	0.092500	0.057300	0.281600
C711	C71	0.292100	0.024700	0.142900
H1071	H107	0.323400	0.060100	0.163300
H1081	H108	0.230400	0.038500	0.120000
C721	C72	0.370600	0.997200	0.097200
C731	C73	0.661000	0.091600	0.009400
C741	C74	0.741600	0.138250	0.987380
H1091	H109	0.808700	0.118000	0.980400
H1101	H110	0.718800	0.156100	0.947900
C751	C75	0.658000	0.225000	0.032300
H1111	H111	0.597700	0.200200	0.044300
H1121	H112	0.646800	0.239600	0.989800
C761	C76	0.667900	0.279600	0.076700
H1131	H113	0.603400	0.303500	0.074700
H1141	H114	0.674800	0.264300	0.119400
C771	C77	0.853600	0.282800	0.059700
H1151	H115	0.871300	0.268700	0.101600
H1161	H116	0.911200	0.308400	0.045100
C781	C78	0.844800	0.227000	0.016600
H1171	H117	0.835800	0.240800	0.973600
H1181	H118	0.909500	0.203300	0.018800
C791	C79	0.739900	0.357470	0.006560
H1191	H119	0.713200	0.331400	0.973200
H1201	H120	0.806000	0.375400	0.992600
C801	C80	0.660400	0.408700	0.020700
N171	N17	0.240200	0.043560	0.314430
N181	N18	0.260200	0.979560	0.190690
N191	N19	0.754300	0.187200	0.034620
N201	N20	0.757700	0.320670	0.063390
O331	O33	0.119200	0.071910	0.416820
O341	O34	0.076000	0.974690	0.431920
O351	O35	0.380100	0.941260	0.091980
O361	O36	0.420500	0.036290	0.063840
O371	O37	0.609500	0.064350	0.966960
O381	O38	0.650400	0.081800	0.066500
O391	O39	0.610100	0.430540	0.974530
O401	O40	0.651200	0.427810	0.074790
Zn91	Zn9	0.240830	0.128030	0.374830
Zn101	Zn10	0.259960	0.889650	0.140790
C811	C81	0.629600	0.516400	0.405300
C821	C82	0.709600	0.494100	0.358400
H1211	H121	0.771700	0.479500	0.380500
H1221	H122	0.680500	0.459900	0.334900
C831	C83	0.843900	0.530200	0.284900
H1231	H123	0.895600	0.522900	0.317700
H1241	H124	0.866600	0.565800	0.261000
C841	C84	0.839700	0.474600	0.241700
H1251	H125	0.908600	0.468800	0.222900
H1261	H126	0.824100	0.438400	0.266700
C851	C85	0.657000	0.495300	0.219000
H1271	H127	0.631200	0.460000	0.242300
H1281	H128	0.607000	0.503800	0.185600
C861	C86	0.661700	0.550900	0.263200
H1291	H129	0.679100	0.587300	0.239000
H1301	H130	0.592500	0.557300	0.281600
C871	C87	0.792100	0.524700	0.142900
H1311	H131	0.823400	0.560100	0.163300
H1321	H132	0.730400	0.538500	0.120000
C881	C88	0.870600	0.497200	0.097200
C891	C89	0.161000	0.591600	0.009400
C901	C90	0.241600	0.638250	0.987380
H1331	H133	0.308700	0.618000	0.980400
H1341	H134	0.218800	0.656100	0.947900
C911	C91	0.158000	0.725000	0.032300
H1351	H135	0.097700	0.700200	0.044300
H1361	H136	0.146800	0.739600	0.989800
C921	C92	0.167900	0.779600	0.076700
H1371	H137	0.103400	0.803500	0.074700
H1381	H138	0.174800	0.764300	0.119400
C931	C93	0.353600	0.782800	0.059700
H1391	H139	0.371300	0.768700	0.101600
H1401	H140	0.411200	0.808400	0.045100
C941	C94	0.344800	0.727000	0.016600
H1411	H141	0.335800	0.740800	0.973600
H1421	H142	0.409500	0.703300	0.018800
C951	C95	0.239900	0.857470	0.006560
H1431	H143	0.213200	0.831400	0.973200
H1441	H144	0.306000	0.875400	0.992600
C961	C96	0.160400	0.908700	0.020700
N211	N21	0.740200	0.543560	0.314430
N221	N22	0.760200	0.479560	0.190690
N231	N23	0.254300	0.687200	0.034620
N241	N24	0.257700	0.820670	0.063390
O411	O41	0.619200	0.571910	0.416820
O421	O42	0.576000	0.474690	0.431920
O431	O43	0.880100	0.441260	0.091980
O441	O44	0.920500	0.536290	0.063840
O451	O45	0.109500	0.564350	0.966960
O461	O46	0.150400	0.581800	0.066500
O471	O47	0.110100	0.930540	0.974530
O481	O48	0.151200	0.927810	0.074790
Zn111	Zn11	0.740830	0.628030	0.374830
Zn121	Zn12	0.759960	0.389650	0.140790
C971	C97	0.870400	0.983600	0.905300
C981	C98	0.790400	0.005900	0.858400
H1451	H145	0.728300	0.020500	0.880500
H1461	H146	0.819500	0.040100	0.834900
C991	C99	0.656100	0.969800	0.784900
H1471	H147	0.604400	0.977100	0.817700
H1481	H148	0.633400	0.934200	0.761000
C1001	C100	0.660300	0.025400	0.741700
H1491	H149	0.591400	0.031200	0.722900
H1501	H150	0.675900	0.061600	0.766700
C1011	C101	0.843000	0.004700	0.719000
H1511	H151	0.868800	0.040000	0.742300
H1521	H152	0.893000	0.996200	0.685600
C1021	C102	0.838300	0.949100	0.763200
H1531	H153	0.820900	0.912700	0.739000
H1541	H154	0.907500	0.942700	0.781600
C1031	C103	0.707900	0.975300	0.642900
H1551	H155	0.676600	0.939900	0.663300
H1561	H156	0.769600	0.961500	0.620000
C1041	C104	0.629400	0.002800	0.597200
C1051	C105	0.339000	0.908400	0.509400
C1061	C106	0.258400	0.861750	0.487380
H1571	H157	0.191300	0.882000	0.480400
H1581	H158	0.281200	0.843900	0.447900
C1071	C107	0.342000	0.775000	0.532300
H1591	H159	0.402300	0.799800	0.544300
H1601	H160	0.353200	0.760400	0.489800
C1081	C108	0.332100	0.720400	0.576700
H1611	H161	0.396600	0.696500	0.574700
H1621	H162	0.325200	0.735700	0.619400
C1091	C109	0.146400	0.717200	0.559700
H1631	H163	0.128700	0.731300	0.601600
H1641	H164	0.088800	0.691600	0.545100
C1101	C110	0.155200	0.773000	0.516600
H1651	H165	0.164200	0.759200	0.473600
H1661	H166	0.090500	0.796700	0.518800
C1111	C111	0.260100	0.642530	0.506560
H1671	H167	0.286800	0.668600	0.473200
H1681	H168	0.194000	0.624600	0.492600
C1121	C112	0.339600	0.591300	0.520700
N251	N25	0.759800	0.956440	0.814430
N261	N26	0.739800	0.020440	0.690690
N271	N27	0.245700	0.812800	0.534620
N281	N28	0.242300	0.679330	0.563390
O491	O49	0.880800	0.928090	0.916820
O501	O50	0.924000	0.025310	0.931920
O511	O51	0.619900	0.058740	0.591980
O521	O52	0.579500	0.963710	0.563840
O531	O53	0.390500	0.935650	0.466960
O541	O54	0.349600	0.918200	0.566500
O551	O55	0.389900	0.569460	0.474530
O561	O56	0.348800	0.572190	0.574790
Zn131	Zn13	0.759170	0.871970	0.874830
Zn141	Zn14	0.740040	0.110350	0.640790
C1131	C113	0.370400	0.483600	0.905300
C1141	C114	0.290400	0.505900	0.858400
H1691	H169	0.228300	0.520500	0.880500
H1701	H170	0.319500	0.540100	0.834900
C1151	C115	0.156100	0.469800	0.784900
H1711	H171	0.104400	0.477100	0.817700
H1721	H172	0.133400	0.434200	0.761000
C1161	C116	0.160300	0.525400	0.741700
H1731	H173	0.091400	0.531200	0.722900
H1741	H174	0.175900	0.561600	0.766700
C1171	C117	0.343000	0.504700	0.719000
H1751	H175	0.368800	0.540000	0.742300
H1761	H176	0.393000	0.496200	0.685600
C1181	C118	0.338300	0.449100	0.763200
H1771	H177	0.320900	0.412700	0.739000
H1781	H178	0.407500	0.442700	0.781600
C1191	C119	0.207900	0.475300	0.642900
H1791	H179	0.176600	0.439900	0.663300
H1801	H180	0.269600	0.461500	0.620000
C1201	C120	0.129400	0.502800	0.597200
C1211	C121	0.839000	0.408400	0.509400
C1221	C122	0.758400	0.361750	0.487380
H1811	H181	0.691300	0.382000	0.480400
H1821	H182	0.781200	0.343900	0.447900
C1231	C123	0.842000	0.275000	0.532300
H1831	H183	0.902300	0.299800	0.544300
H1841	H184	0.853200	0.260400	0.489800
C1241	C124	0.832100	0.220400	0.576700
H1851	H185	0.896600	0.196500	0.574700
H1861	H186	0.825200	0.235700	0.619400
C1251	C125	0.646400	0.217200	0.559700
H1871	H187	0.628700	0.231300	0.601600
H1881	H188	0.588800	0.191600	0.545100
C1261	C126	0.655200	0.273000	0.516600
H1891	H189	0.664200	0.259200	0.473600
H1901	H190	0.590500	0.296700	0.518800
C1271	C127	0.760100	0.142530	0.506560
H1911	H191	0.786800	0.168600	0.473200
H1921	H192	0.694000	0.124600	0.492600
C1281	C128	0.839600	0.091300	0.520700
N291	N29	0.259800	0.456440	0.814430
N301	N30	0.239800	0.520440	0.690690
N311	N31	0.745700	0.312800	0.534620
N321	N32	0.742300	0.179330	0.563390
O571	O57	0.380800	0.428090	0.916820
O581	O58	0.424000	0.525310	0.931920
O591	O59	0.119900	0.558740	0.591980
O601	O60	0.079500	0.463710	0.563840
O611	O61	0.890500	0.435650	0.466960
O621	O62	0.849600	0.418200	0.566500
O631	O63	0.889900	0.069460	0.474530
O641	O64	0.848800	0.072190	0.574790
Zn151	Zn15	0.259170	0.371970	0.874830
Zn161	Zn16	0.240040	0.610350	0.640790
Zn171	Zn17	0.019610	0.000000	0.000000
Zn181	Zn18	0.519610	0.500000	0.000000
Zn191	Zn19	0.980390	0.000000	0.500000
Zn201	Zn20	0.480390	0.500000	0.500000
Zn211	Zn21	0.486200	0.000000	0.500000
Zn221	Zn22	0.986200	0.500000	0.500000
Zn231	Zn23	0.513800	0.000000	0.000000
Zn241	Zn24	0.013800	0.500000	0.000000
