data_MUTDIQ_clean_PM
_symmetry_space_group_name_H-M	'P1'
_cell_length_a	19.692000
_cell_length_b	19.692000
_cell_length_c	20.101000
_cell_angle_alpha	90.000000
_cell_angle_beta	90.000000
_cell_angle_gamma	90.000000
_symmetry_Int_Tables_number 1

loop_
_symmetry_equiv_pos_as_xyz
'x,y,z'

loop_
_atom_site_label
_atom_site_type_symbol
_atom_site_fract_x
_atom_site_fract_y
_atom_site_fract_z
Mn11	Mn1	0.604560	0.515430	0.027300
N11	N1	0.838500	0.369500	0.827640
N21	N2	0.689800	0.478500	0.957060
N31	N3	0.758800	0.469300	0.956520
N41	N4	0.715220	0.420610	0.865070
N51	N5	0.552690	0.470660	0.938240
N61	N6	0.487900	0.463800	0.913670
N71	N7	0.560700	0.426700	0.835780
C11	C1	0.898300	0.346000	0.806000
H11	H1	0.898600	0.315200	0.770900
C21	C2	0.959100	0.365200	0.833000
H21	H2	0.999600	0.347800	0.816300
C31	C3	0.959600	0.409900	0.884300
H31	H3	0.000400	0.424000	0.903100
C41	C4	0.898100	0.434200	0.908400
H41	H4	0.897100	0.465000	0.943500
C51	C5	0.838700	0.412000	0.879500
C61	C6	0.771500	0.435000	0.900600
C71	C7	0.665900	0.449000	0.902300
C81	C8	0.593500	0.448200	0.890300
C91	C9	0.495300	0.438200	0.853400
H51	H5	0.458800	0.428900	0.825500
Mn21	Mn2	0.104560	0.015430	0.527300
N81	N8	0.338500	0.869500	0.327640
N91	N9	0.189800	0.978500	0.457060
N101	N10	0.258800	0.969300	0.456520
N111	N11	0.215220	0.920610	0.365070
N121	N12	0.052690	0.970660	0.438240
N131	N13	0.987900	0.963800	0.413670
N141	N14	0.060700	0.926700	0.335780
C101	C10	0.398300	0.846000	0.306000
H61	H6	0.398600	0.815200	0.270900
C111	C11	0.459100	0.865200	0.333000
H71	H7	0.499600	0.847800	0.316300
C121	C12	0.459600	0.909900	0.384300
H81	H8	0.500400	0.924000	0.403100
C131	C13	0.398100	0.934200	0.408400
H91	H9	0.397100	0.965000	0.443500
C141	C14	0.338700	0.912000	0.379500
C151	C15	0.271500	0.935000	0.400600
C161	C16	0.165900	0.949000	0.402300
C171	C17	0.093500	0.948200	0.390300
C181	C18	0.995300	0.938200	0.353400
H101	H10	0.958800	0.928900	0.325500
Mn31	Mn3	0.895440	0.484570	0.527300
N151	N15	0.661500	0.630500	0.327640
N161	N16	0.810200	0.521500	0.457060
N171	N17	0.741200	0.530700	0.456520
N181	N18	0.784780	0.579390	0.365070
N191	N19	0.947310	0.529340	0.438240
N201	N20	0.012100	0.536200	0.413670
N211	N21	0.939300	0.573300	0.335780
C191	C19	0.601700	0.654000	0.306000
H111	H11	0.601400	0.684800	0.270900
C201	C20	0.540900	0.634800	0.333000
H121	H12	0.500400	0.652200	0.316300
C211	C21	0.540400	0.590100	0.384300
H131	H13	0.499600	0.576000	0.403100
C221	C22	0.601900	0.565800	0.408400
H141	H14	0.602900	0.535000	0.443500
C231	C23	0.661300	0.588000	0.379500
C241	C24	0.728500	0.565000	0.400600
C251	C25	0.834100	0.551000	0.402300
C261	C26	0.906500	0.551800	0.390300
C271	C27	0.004700	0.561800	0.353400
H151	H15	0.041200	0.571100	0.325500
Mn41	Mn4	0.395440	0.984570	0.027300
N221	N22	0.161500	0.130500	0.827640
N231	N23	0.310200	0.021500	0.957060
N241	N24	0.241200	0.030700	0.956520
N251	N25	0.284780	0.079390	0.865070
N261	N26	0.447310	0.029340	0.938240
N271	N27	0.512100	0.036200	0.913670
N281	N28	0.439300	0.073300	0.835780
C281	C28	0.101700	0.154000	0.806000
H161	H16	0.101400	0.184800	0.770900
C291	C29	0.040900	0.134800	0.833000
H171	H17	0.000400	0.152200	0.816300
C301	C30	0.040400	0.090100	0.884300
H181	H18	0.999600	0.076000	0.903100
C311	C31	0.101900	0.065800	0.908400
H191	H19	0.102900	0.035000	0.943500
C321	C32	0.161300	0.088000	0.879500
C331	C33	0.228500	0.065000	0.900600
C341	C34	0.334100	0.051000	0.902300
C351	C35	0.406500	0.051800	0.890300
C361	C36	0.504700	0.061800	0.853400
H201	H20	0.541200	0.071100	0.825500
Mn51	Mn5	0.234570	0.854560	0.277300
N291	N29	0.380500	0.088500	0.077640
N301	N30	0.271500	0.939800	0.207060
N311	N31	0.280700	0.008800	0.206520
N321	N32	0.329390	0.965220	0.115070
N331	N33	0.279340	0.802690	0.188240
N341	N34	0.286200	0.737900	0.163670
N351	N35	0.323300	0.810700	0.085780
C371	C37	0.404000	0.148300	0.056000
H211	H21	0.434800	0.148600	0.020900
C381	C38	0.384800	0.209100	0.083000
H221	H22	0.402200	0.249600	0.066300
C391	C39	0.340100	0.209600	0.134300
H231	H23	0.326000	0.250400	0.153100
C401	C40	0.315800	0.148100	0.158400
H241	H24	0.285000	0.147100	0.193500
C411	C41	0.338000	0.088700	0.129500
C421	C42	0.315000	0.021500	0.150600
C431	C43	0.301000	0.915900	0.152300
C441	C44	0.301800	0.843500	0.140300
C451	C45	0.311800	0.745300	0.103400
H251	H25	0.321100	0.708800	0.075500
Mn61	Mn6	0.734570	0.354560	0.777300
N361	N36	0.880500	0.588500	0.577640
N371	N37	0.771500	0.439800	0.707060
N381	N38	0.780700	0.508800	0.706520
N391	N39	0.829390	0.465220	0.615070
N401	N40	0.779340	0.302690	0.688240
N411	N41	0.786200	0.237900	0.663670
N421	N42	0.823300	0.310700	0.585780
C461	C46	0.904000	0.648300	0.556000
H261	H26	0.934800	0.648600	0.520900
C471	C47	0.884800	0.709100	0.583000
H271	H27	0.902200	0.749600	0.566300
C481	C48	0.840100	0.709600	0.634300
H281	H28	0.826000	0.750400	0.653100
C491	C49	0.815800	0.648100	0.658400
H291	H29	0.785000	0.647100	0.693500
C501	C50	0.838000	0.588700	0.629500
C511	C51	0.815000	0.521500	0.650600
C521	C52	0.801000	0.415900	0.652300
C531	C53	0.801800	0.343500	0.640300
C541	C54	0.811800	0.245300	0.603400
H301	H30	0.821100	0.208800	0.575500
Mn71	Mn7	0.265430	0.145440	0.777300
N431	N43	0.119500	0.911500	0.577640
N441	N44	0.228500	0.060200	0.707060
N451	N45	0.219300	0.991200	0.706520
N461	N46	0.170610	0.034780	0.615070
N471	N47	0.220660	0.197310	0.688240
N481	N48	0.213800	0.262100	0.663670
N491	N49	0.176700	0.189300	0.585780
C551	C55	0.096000	0.851700	0.556000
H311	H31	0.065200	0.851400	0.520900
C561	C56	0.115200	0.790900	0.583000
H321	H32	0.097800	0.750400	0.566300
C571	C57	0.159900	0.790400	0.634300
H331	H33	0.174000	0.749600	0.653100
C581	C58	0.184200	0.851900	0.658400
H341	H34	0.215000	0.852900	0.693500
C591	C59	0.162000	0.911300	0.629500
C601	C60	0.185000	0.978500	0.650600
C611	C61	0.199000	0.084100	0.652300
C621	C62	0.198200	0.156500	0.640300
C631	C63	0.188200	0.254700	0.603400
H351	H35	0.178900	0.291200	0.575500
Mn81	Mn8	0.765430	0.645440	0.277300
N501	N50	0.619500	0.411500	0.077640
N511	N51	0.728500	0.560200	0.207060
N521	N52	0.719300	0.491200	0.206520
N531	N53	0.670610	0.534780	0.115070
N541	N54	0.720660	0.697310	0.188240
N551	N55	0.713800	0.762100	0.163670
N561	N56	0.676700	0.689300	0.085780
C641	C64	0.596000	0.351700	0.056000
H361	H36	0.565200	0.351400	0.020900
C651	C65	0.615200	0.290900	0.083000
H371	H37	0.597800	0.250400	0.066300
C661	C66	0.659900	0.290400	0.134300
H381	H38	0.674000	0.249600	0.153100
C671	C67	0.684200	0.351900	0.158400
H391	H39	0.715000	0.352900	0.193500
C681	C68	0.662000	0.411300	0.129500
C691	C69	0.685000	0.478500	0.150600
C701	C70	0.699000	0.584100	0.152300
C711	C71	0.698200	0.656500	0.140300
C721	C72	0.688200	0.754700	0.103400
H401	H40	0.678900	0.791200	0.075500
Mn91	Mn9	0.395440	0.484570	0.972700
N571	N57	0.161500	0.630500	0.172360
N581	N58	0.310200	0.521500	0.042940
N591	N59	0.241200	0.530700	0.043480
N601	N60	0.284780	0.579390	0.134930
N611	N61	0.447310	0.529340	0.061760
N621	N62	0.512100	0.536200	0.086330
N631	N63	0.439300	0.573300	0.164220
C731	C73	0.101700	0.654000	0.194000
H411	H41	0.101400	0.684800	0.229100
C741	C74	0.040900	0.634800	0.167000
H421	H42	0.000400	0.652200	0.183700
C751	C75	0.040400	0.590100	0.115700
H431	H43	0.999600	0.576000	0.096900
C761	C76	0.101900	0.565800	0.091600
H441	H44	0.102900	0.535000	0.056500
C771	C77	0.161300	0.588000	0.120500
C781	C78	0.228500	0.565000	0.099400
C791	C79	0.334100	0.551000	0.097700
C801	C80	0.406500	0.551800	0.109700
C811	C81	0.504700	0.561800	0.146600
H451	H45	0.541200	0.571100	0.174500
Mn101	Mn10	0.895440	0.984570	0.472700
N641	N64	0.661500	0.130500	0.672360
N651	N65	0.810200	0.021500	0.542940
N661	N66	0.741200	0.030700	0.543480
N671	N67	0.784780	0.079390	0.634930
N681	N68	0.947310	0.029340	0.561760
N691	N69	0.012100	0.036200	0.586330
N701	N70	0.939300	0.073300	0.664220
C821	C82	0.601700	0.154000	0.694000
H461	H46	0.601400	0.184800	0.729100
C831	C83	0.540900	0.134800	0.667000
H471	H47	0.500400	0.152200	0.683700
C841	C84	0.540400	0.090100	0.615700
H481	H48	0.499600	0.076000	0.596900
C851	C85	0.601900	0.065800	0.591600
H491	H49	0.602900	0.035000	0.556500
C861	C86	0.661300	0.088000	0.620500
C871	C87	0.728500	0.065000	0.599400
C881	C88	0.834100	0.051000	0.597700
C891	C89	0.906500	0.051800	0.609700
C901	C90	0.004700	0.061800	0.646600
H501	H50	0.041200	0.071100	0.674500
Mn111	Mn11	0.104560	0.515430	0.472700
N711	N71	0.338500	0.369500	0.672360
N721	N72	0.189800	0.478500	0.542940
N731	N73	0.258800	0.469300	0.543480
N741	N74	0.215220	0.420610	0.634930
N751	N75	0.052690	0.470660	0.561760
N761	N76	0.987900	0.463800	0.586330
N771	N77	0.060700	0.426700	0.664220
C911	C91	0.398300	0.346000	0.694000
H511	H51	0.398600	0.315200	0.729100
C921	C92	0.459100	0.365200	0.667000
H521	H52	0.499600	0.347800	0.683700
C931	C93	0.459600	0.409900	0.615700
H531	H53	0.500400	0.424000	0.596900
C941	C94	0.398100	0.434200	0.591600
H541	H54	0.397100	0.465000	0.556500
C951	C95	0.338700	0.412000	0.620500
C961	C96	0.271500	0.435000	0.599400
C971	C97	0.165900	0.449000	0.597700
C981	C98	0.093500	0.448200	0.609700
C991	C99	0.995300	0.438200	0.646600
H551	H55	0.958800	0.428900	0.674500
Mn121	Mn12	0.604560	0.015430	0.972700
N781	N78	0.838500	0.869500	0.172360
N791	N79	0.689800	0.978500	0.042940
N801	N80	0.758800	0.969300	0.043480
N811	N81	0.715220	0.920610	0.134930
N821	N82	0.552690	0.970660	0.061760
N831	N83	0.487900	0.963800	0.086330
N841	N84	0.560700	0.926700	0.164220
C1001	C100	0.898300	0.846000	0.194000
H561	H56	0.898600	0.815200	0.229100
C1011	C101	0.959100	0.865200	0.167000
H571	H57	0.999600	0.847800	0.183700
C1021	C102	0.959600	0.909900	0.115700
H581	H58	0.000400	0.924000	0.096900
C1031	C103	0.898100	0.934200	0.091600
H591	H59	0.897100	0.965000	0.056500
C1041	C104	0.838700	0.912000	0.120500
C1051	C105	0.771500	0.935000	0.099400
C1061	C106	0.665900	0.949000	0.097700
C1071	C107	0.593500	0.948200	0.109700
C1081	C108	0.495300	0.938200	0.146600
H601	H60	0.458800	0.928900	0.174500
Mn131	Mn13	0.765430	0.145440	0.722700
N851	N85	0.619500	0.911500	0.922360
N861	N86	0.728500	0.060200	0.792940
N871	N87	0.719300	0.991200	0.793480
N881	N88	0.670610	0.034780	0.884930
N891	N89	0.720660	0.197310	0.811760
N901	N90	0.713800	0.262100	0.836330
N911	N91	0.676700	0.189300	0.914220
C1091	C109	0.596000	0.851700	0.944000
H611	H61	0.565200	0.851400	0.979100
C1101	C110	0.615200	0.790900	0.917000
H621	H62	0.597800	0.750400	0.933700
C1111	C111	0.659900	0.790400	0.865700
H631	H63	0.674000	0.749600	0.846900
C1121	C112	0.684200	0.851900	0.841600
H641	H64	0.715000	0.852900	0.806500
C1131	C113	0.662000	0.911300	0.870500
C1141	C114	0.685000	0.978500	0.849400
C1151	C115	0.699000	0.084100	0.847700
C1161	C116	0.698200	0.156500	0.859700
C1171	C117	0.688200	0.254700	0.896600
H651	H65	0.678900	0.291200	0.924500
Mn141	Mn14	0.265430	0.645440	0.222700
N921	N92	0.119500	0.411500	0.422360
N931	N93	0.228500	0.560200	0.292940
N941	N94	0.219300	0.491200	0.293480
N951	N95	0.170610	0.534780	0.384930
N961	N96	0.220660	0.697310	0.311760
N971	N97	0.213800	0.762100	0.336330
N981	N98	0.176700	0.689300	0.414220
C1181	C118	0.096000	0.351700	0.444000
H661	H66	0.065200	0.351400	0.479100
C1191	C119	0.115200	0.290900	0.417000
H671	H67	0.097800	0.250400	0.433700
C1201	C120	0.159900	0.290400	0.365700
H681	H68	0.174000	0.249600	0.346900
C1211	C121	0.184200	0.351900	0.341600
H691	H69	0.215000	0.352900	0.306500
C1221	C122	0.162000	0.411300	0.370500
C1231	C123	0.185000	0.478500	0.349400
C1241	C124	0.199000	0.584100	0.347700
C1251	C125	0.198200	0.656500	0.359700
C1261	C126	0.188200	0.754700	0.396600
H701	H70	0.178900	0.791200	0.424500
Mn151	Mn15	0.734570	0.854560	0.222700
N991	N99	0.880500	0.088500	0.422360
N1001	N100	0.771500	0.939800	0.292940
N1011	N101	0.780700	0.008800	0.293480
N1021	N102	0.829390	0.965220	0.384930
N1031	N103	0.779340	0.802690	0.311760
N1041	N104	0.786200	0.737900	0.336330
N1051	N105	0.823300	0.810700	0.414220
C1271	C127	0.904000	0.148300	0.444000
H711	H71	0.934800	0.148600	0.479100
C1281	C128	0.884800	0.209100	0.417000
H721	H72	0.902200	0.249600	0.433700
C1291	C129	0.840100	0.209600	0.365700
H731	H73	0.826000	0.250400	0.346900
C1301	C130	0.815800	0.148100	0.341600
H741	H74	0.785000	0.147100	0.306500
C1311	C131	0.838000	0.088700	0.370500
C1321	C132	0.815000	0.021500	0.349400
C1331	C133	0.801000	0.915900	0.347700
C1341	C134	0.801800	0.843500	0.359700
C1351	C135	0.811800	0.745300	0.396600
H751	H75	0.821100	0.708800	0.424500
Mn161	Mn16	0.234570	0.354560	0.722700
N1061	N106	0.380500	0.588500	0.922360
N1071	N107	0.271500	0.439800	0.792940
N1081	N108	0.280700	0.508800	0.793480
N1091	N109	0.329390	0.465220	0.884930
N1101	N110	0.279340	0.302690	0.811760
N1111	N111	0.286200	0.237900	0.836330
N1121	N112	0.323300	0.310700	0.914220
C1361	C136	0.404000	0.648300	0.944000
H761	H76	0.434800	0.648600	0.979100
C1371	C137	0.384800	0.709100	0.917000
H771	H77	0.402200	0.749600	0.933700
C1381	C138	0.340100	0.709600	0.865700
H781	H78	0.326000	0.750400	0.846900
C1391	C139	0.315800	0.648100	0.841600
H791	H79	0.285000	0.647100	0.806500
C1401	C140	0.338000	0.588700	0.870500
C1411	C141	0.315000	0.521500	0.849400
C1421	C142	0.301000	0.415900	0.847700
C1431	C143	0.301800	0.343500	0.859700
C1441	C144	0.311800	0.245300	0.896600
H801	H80	0.321100	0.208800	0.924500
