data_MUVHER_clean_PM
_symmetry_space_group_name_H-M	'P1'
_cell_length_a	11.374900
_cell_length_b	12.723900
_cell_length_c	14.801000
_cell_angle_alpha	90.000000
_cell_angle_beta	90.000000
_cell_angle_gamma	90.000000
_symmetry_Int_Tables_number 1

loop_
_symmetry_equiv_pos_as_xyz
'x,y,z'

loop_
_atom_site_label
_atom_site_type_symbol
_atom_site_fract_x
_atom_site_fract_y
_atom_site_fract_z
Zn11	Zn1	0.000000	0.000000	0.250000
Zn21	Zn2	0.000000	0.000000	0.750000
H11	H1	0.588700	0.843600	0.226800
H21	H2	0.792400	0.848000	0.228300
H31	H3	0.196100	0.717500	0.136700
H41	H4	0.330700	0.582600	0.136100
H51	H5	0.411300	0.156400	0.226800
H61	H6	0.207600	0.152000	0.228300
H71	H7	0.803900	0.282500	0.136700
H81	H8	0.669300	0.417400	0.136100
H91	H9	0.411300	0.843600	0.273200
H101	H10	0.207600	0.848000	0.271700
H111	H11	0.803900	0.717500	0.363300
H121	H12	0.669300	0.582600	0.363900
H131	H13	0.588700	0.156400	0.273200
H141	H14	0.792400	0.152000	0.271700
H151	H15	0.196100	0.282500	0.363300
H161	H16	0.330700	0.417400	0.363900
H171	H17	0.411300	0.156400	0.773200
H181	H18	0.207600	0.152000	0.771700
H191	H19	0.803900	0.282500	0.863300
H201	H20	0.669300	0.417400	0.863900
H211	H21	0.588700	0.843600	0.773200
H221	H22	0.792400	0.848000	0.771700
H231	H23	0.196100	0.717500	0.863300
H241	H24	0.330700	0.582600	0.863900
H251	H25	0.588700	0.156400	0.726800
H261	H26	0.792400	0.152000	0.728300
H271	H27	0.196100	0.282500	0.636700
H281	H28	0.330700	0.417400	0.636100
H291	H29	0.411300	0.843600	0.726800
H301	H30	0.207600	0.848000	0.728300
H311	H31	0.803900	0.717500	0.636700
H321	H32	0.669300	0.582600	0.636100
C11	C1	0.039200	0.849390	0.080530
C21	C2	0.418100	0.411200	0.080600
C31	C3	0.628400	0.908400	0.236480
C41	C4	0.750300	0.911600	0.237270
C51	C5	0.221900	0.689200	0.080700
C61	C6	0.302300	0.609700	0.080400
C71	C7	0.960800	0.150610	0.080530
C81	C8	0.581900	0.588800	0.080600
C91	C9	0.371600	0.091600	0.236480
C101	C10	0.249700	0.088400	0.237270
C111	C11	0.778100	0.310800	0.080700
C121	C12	0.697700	0.390300	0.080400
C131	C13	0.960800	0.849390	0.419470
C141	C14	0.581900	0.411200	0.419400
C151	C15	0.371600	0.908400	0.263520
C161	C16	0.249700	0.911600	0.262730
C171	C17	0.778100	0.689200	0.419300
C181	C18	0.697700	0.609700	0.419600
C191	C19	0.039200	0.150610	0.419470
C201	C20	0.418100	0.588800	0.419400
C211	C21	0.628400	0.091600	0.263520
C221	C22	0.750300	0.088400	0.262730
C231	C23	0.221900	0.310800	0.419300
C241	C24	0.302300	0.390300	0.419600
C251	C25	0.960800	0.150610	0.919470
C261	C26	0.581900	0.588800	0.919400
C271	C27	0.371600	0.091600	0.763520
C281	C28	0.249700	0.088400	0.762730
C291	C29	0.778100	0.310800	0.919300
C301	C30	0.697700	0.390300	0.919600
C311	C31	0.039200	0.849390	0.919470
C321	C32	0.418100	0.411200	0.919400
C331	C33	0.628400	0.908400	0.763520
C341	C34	0.750300	0.911600	0.762730
C351	C35	0.221900	0.689200	0.919300
C361	C36	0.302300	0.609700	0.919600
C371	C37	0.039200	0.150610	0.580530
C381	C38	0.418100	0.588800	0.580600
C391	C39	0.628400	0.091600	0.736480
C401	C40	0.750300	0.088400	0.737270
C411	C41	0.221900	0.310800	0.580700
C421	C42	0.302300	0.390300	0.580400
C431	C43	0.960800	0.849390	0.580530
C441	C44	0.581900	0.411200	0.580600
C451	C45	0.371600	0.908400	0.736480
C461	C46	0.249700	0.911600	0.737270
C471	C47	0.778100	0.689200	0.580700
C481	C48	0.697700	0.609700	0.580400
C491	C49	0.565000	0.000000	0.250000
C501	C50	0.435000	0.000000	0.250000
C511	C51	0.435000	0.000000	0.750000
C521	C52	0.565000	0.000000	0.750000
C531	C53	0.176400	0.729900	0.000000
C541	C54	0.433000	0.479400	0.000000
C551	C55	0.343100	0.567800	0.000000
C561	C56	0.085200	0.809700	0.000000
C571	C57	0.823600	0.270100	0.000000
C581	C58	0.567000	0.520600	0.000000
C591	C59	0.656900	0.432200	0.000000
C601	C60	0.914800	0.190300	0.000000
C611	C61	0.823600	0.729900	0.500000
C621	C62	0.567000	0.479400	0.500000
C631	C63	0.656900	0.567800	0.500000
C641	C64	0.914800	0.809700	0.500000
C651	C65	0.176400	0.270100	0.500000
C661	C66	0.433000	0.520600	0.500000
C671	C67	0.343100	0.432200	0.500000
C681	C68	0.085200	0.190300	0.500000
N11	N1	0.404000	0.361700	0.142800
N21	N2	0.001900	0.881000	0.147060
N31	N3	0.596000	0.638300	0.142800
N41	N4	0.998100	0.119000	0.147060
N51	N5	0.596000	0.361700	0.357200
N61	N6	0.998100	0.881000	0.352940
N71	N7	0.404000	0.638300	0.357200
N81	N8	0.001900	0.119000	0.352940
N91	N9	0.596000	0.638300	0.857200
N101	N10	0.998100	0.119000	0.852940
N111	N11	0.404000	0.361700	0.857200
N121	N12	0.001900	0.881000	0.852940
N131	N13	0.404000	0.638300	0.642800
N141	N14	0.001900	0.119000	0.647060
N151	N15	0.596000	0.361700	0.642800
N161	N16	0.998100	0.881000	0.647060
N171	N17	0.811400	0.000000	0.250000
N181	N18	0.188600	0.000000	0.250000
N191	N19	0.188600	0.000000	0.750000
N201	N20	0.811400	0.000000	0.750000
