data_MUVLUM_clean_PM
_symmetry_space_group_name_H-M	'P1'
_cell_length_a	12.639000
_cell_length_b	13.970600
_cell_length_c	16.285000
_cell_angle_alpha	68.414000
_cell_angle_beta	83.532000
_cell_angle_gamma	73.825000
_symmetry_Int_Tables_number 1

loop_
_symmetry_equiv_pos_as_xyz
'x,y,z'

loop_
_atom_site_label
_atom_site_type_symbol
_atom_site_fract_x
_atom_site_fract_y
_atom_site_fract_z
Zn11	Zn1	0.680770	0.548910	0.841000
Zn21	Zn2	0.637860	0.741660	0.920620
S11	S1	0.263860	0.383580	0.870020
S21	S2	0.060710	0.860410	0.939910
S31	S3	0.515540	0.820200	0.397930
O11	O1	0.828890	0.528100	0.878260
O21	O2	0.794330	0.681200	0.902070
O31	O3	0.199700	0.313300	0.868500
O41	O4	0.320000	0.428000	0.787640
O51	O5	0.342270	0.334470	0.943340
O61	O6	0.997400	0.817600	0.018900
O71	O7	0.126300	0.925400	0.950300
O81	O8	0.995100	0.910200	0.860600
O91	O9	0.538760	0.571570	0.904420
O101	O10	0.489590	0.720000	0.937470
O111	O11	0.647500	0.659650	0.726610
O121	O12	0.611700	0.790140	0.782030
O131	O13	0.552400	0.705400	0.438400
O141	O14	0.584300	0.866300	0.325100
O151	O15	0.398800	0.857900	0.375700
N11	N1	0.682700	0.406700	0.836930
N21	N2	0.639400	0.889600	0.909600
C11	C1	0.723600	0.904300	0.943400
H11	H1	0.775100	0.845100	0.977900
C21	C2	0.858200	0.600800	0.891400
C31	C3	0.735900	0.004300	0.928400
H21	H2	0.794700	0.011900	0.952800
C41	C4	0.979100	0.590600	0.894600
C51	C5	0.123500	0.664300	0.912800
C61	C6	0.058000	0.501800	0.885000
H31	H3	0.035600	0.448300	0.876200
C71	C7	0.317700	0.569700	0.907600
H41	H4	0.371300	0.511600	0.901600
C81	C8	0.167900	0.494200	0.888700
C91	C9	0.204500	0.575300	0.902800
C101	C10	0.576200	0.835700	0.631100
C111	C11	0.010400	0.669800	0.908300
H51	H5	0.957000	0.727800	0.914800
C121	C12	0.348500	0.649400	0.921100
C131	C13	0.269100	0.738200	0.930900
H61	H6	0.291200	0.791500	0.940300
C141	C14	0.158700	0.745900	0.926600
C151	C15	0.468300	0.646600	0.921300
C161	C16	0.566400	0.975400	0.859200
H71	H7	0.509100	0.965400	0.834800
C171	C17	0.660000	0.093800	0.876600
C181	C18	0.572900	0.077800	0.842100
H81	H8	0.519800	0.135600	0.807800
C191	C19	0.669500	0.202600	0.859600
C201	C20	0.770700	0.222900	0.864100
H91	H9	0.835100	0.168300	0.874400
C211	C21	0.773600	0.324800	0.853200
H101	H10	0.841000	0.337400	0.857100
C221	C22	0.586300	0.387800	0.829900
H111	H11	0.523400	0.444200	0.817600
C231	C23	0.576600	0.288200	0.840000
H121	H12	0.508500	0.278300	0.833800
C241	C24	0.615100	0.757100	0.720100
C251	C25	0.568300	0.799800	0.561800
H131	H13	0.590300	0.727300	0.571100
C261	C26	0.528800	0.870700	0.481600
C271	C27	0.496100	0.982100	0.465100
C281	C28	0.544100	0.941700	0.618000
H141	H14	0.548600	0.964500	0.664100
Zn31	Zn3	0.319230	0.451090	0.159000
Zn41	Zn4	0.362140	0.258340	0.079380
S41	S4	0.736140	0.616420	0.129980
S51	S5	0.939290	0.139590	0.060090
S61	S6	0.484460	0.179800	0.602070
O161	O16	0.171110	0.471900	0.121740
O171	O17	0.205670	0.318800	0.097930
O181	O18	0.800300	0.686700	0.131500
O191	O19	0.680000	0.572000	0.212360
O201	O20	0.657730	0.665530	0.056660
O211	O21	0.002600	0.182400	0.981100
O221	O22	0.873700	0.074600	0.049700
O231	O23	0.004900	0.089800	0.139400
O241	O24	0.461240	0.428430	0.095580
O251	O25	0.510410	0.280000	0.062530
O261	O26	0.352500	0.340350	0.273390
O271	O27	0.388300	0.209860	0.217970
O281	O28	0.447600	0.294600	0.561600
O291	O29	0.415700	0.133700	0.674900
O301	O30	0.601200	0.142100	0.624300
N31	N3	0.317300	0.593300	0.163070
N41	N4	0.360600	0.110400	0.090400
C291	C29	0.276400	0.095700	0.056600
H151	H15	0.224900	0.154900	0.022100
C301	C30	0.141800	0.399200	0.108600
C311	C31	0.264100	0.995700	0.071600
H161	H16	0.205300	0.988100	0.047200
C321	C32	0.020900	0.409400	0.105400
C331	C33	0.876500	0.335700	0.087200
C341	C34	0.942000	0.498200	0.115000
H171	H17	0.964400	0.551700	0.123800
C351	C35	0.682300	0.430300	0.092400
H181	H18	0.628700	0.488400	0.098400
C361	C36	0.832100	0.505800	0.111300
C371	C37	0.795500	0.424700	0.097200
C381	C38	0.423800	0.164300	0.368900
C391	C39	0.989600	0.330200	0.091700
H191	H19	0.043000	0.272200	0.085200
C401	C40	0.651500	0.350600	0.078900
C411	C41	0.730900	0.261800	0.069100
H201	H20	0.708800	0.208500	0.059700
C421	C42	0.841300	0.254100	0.073400
C431	C43	0.531700	0.353400	0.078700
C441	C44	0.433600	0.024600	0.140800
H211	H21	0.490900	0.034600	0.165200
C451	C45	0.340000	0.906200	0.123400
C461	C46	0.427100	0.922200	0.157900
H221	H22	0.480200	0.864400	0.192200
C471	C47	0.330500	0.797400	0.140400
C481	C48	0.229300	0.777100	0.135900
H231	H23	0.164900	0.831700	0.125600
C491	C49	0.226400	0.675200	0.146800
H241	H24	0.159000	0.662600	0.142900
C501	C50	0.413700	0.612200	0.170100
H251	H25	0.476600	0.555800	0.182400
C511	C51	0.423400	0.711800	0.160000
H261	H26	0.491500	0.721700	0.166200
C521	C52	0.384900	0.242900	0.279900
C531	C53	0.431700	0.200200	0.438200
H271	H27	0.409700	0.272700	0.428900
C541	C54	0.471200	0.129300	0.518400
C551	C55	0.503900	0.017900	0.534900
C561	C56	0.455900	0.058300	0.382000
H281	H28	0.451400	0.035500	0.335900
