data_MUVNAT_clean_PM
_symmetry_space_group_name_H-M	'P1'
_cell_length_a	16.233000
_cell_length_b	11.871000
_cell_length_c	17.988000
_cell_angle_alpha	90.000000
_cell_angle_beta	103.640000
_cell_angle_gamma	90.000000
_symmetry_Int_Tables_number 1

loop_
_symmetry_equiv_pos_as_xyz
'x,y,z'

loop_
_atom_site_label
_atom_site_type_symbol
_atom_site_fract_x
_atom_site_fract_y
_atom_site_fract_z
Mo11	Mo1	0.716610	0.641150	0.067560
Mo21	Mo2	0.617560	0.767110	0.966960
Mo31	Mo3	0.611040	0.255550	0.921820
Mo41	Mo4	0.715700	0.348020	0.036960
Mo51	Mo5	0.479690	0.646040	0.805010
Mo61	Mo6	0.476460	0.429440	0.786800
Mn11	Mn1	0.875810	0.502670	0.865510
P11	P1	0.623270	0.836880	0.790260
P21	P2	0.888870	0.507350	0.058320
P31	P3	0.561220	0.201350	0.737200
P41	P4	0.672460	0.524520	0.886040
O11	O1	0.699700	0.760700	0.780700
O21	O2	0.739600	0.745400	0.992000
O31	O3	0.592400	0.634600	0.024300
O41	O4	0.591800	0.361400	0.001200
O51	O5	0.464600	0.524300	0.875100
O61	O6	0.486200	0.290900	0.862500
O71	O7	0.485400	0.122200	0.734700
O81	O8	0.517800	0.550400	0.732300
O91	O9	0.901900	0.539300	0.982100
O101	O10	0.528600	0.324200	0.722100
O111	O11	0.843000	0.393700	0.060700
O121	O12	0.705700	0.479800	0.114600
O131	O13	0.841500	0.599600	0.091500
O141	O14	0.622100	0.196100	0.818400
O151	O15	0.539300	0.775100	0.760300
O161	O16	0.608600	0.169100	0.677400
O171	O17	0.630300	0.943300	0.748200
O181	O18	0.634500	0.862500	0.876100
O191	O19	0.977000	0.497100	0.117600
O201	O20	0.739600	0.540100	0.841800
O211	O21	0.491900	0.755400	0.900200
O221	O22	0.711800	0.510100	0.973200
O231	O23	0.734200	0.273800	0.946500
O241	O24	0.615400	0.631400	0.877600
O251	O25	0.614400	0.423400	0.858200
Mo71	Mo7	0.783390	0.141150	0.432440
Mo81	Mo8	0.882440	0.267110	0.533040
Mo91	Mo9	0.888960	0.755550	0.578180
Mo101	Mo10	0.784300	0.848020	0.463040
Mo111	Mo11	0.020310	0.146040	0.694990
Mo121	Mo12	0.023540	0.929440	0.713200
Mn21	Mn2	0.624190	0.002670	0.634490
P51	P5	0.876730	0.336880	0.709740
P61	P6	0.611130	0.007350	0.441680
P71	P7	0.938780	0.701350	0.762800
P81	P8	0.827540	0.024520	0.613960
O261	O26	0.800300	0.260700	0.719300
O271	O27	0.760400	0.245400	0.508000
O281	O28	0.907600	0.134600	0.475700
O291	O29	0.908200	0.861400	0.498800
O301	O30	0.035400	0.024300	0.624900
O311	O31	0.013800	0.790900	0.637500
O321	O32	0.014600	0.622200	0.765300
O331	O33	0.982200	0.050400	0.767700
O341	O34	0.598100	0.039300	0.517900
O351	O35	0.971400	0.824200	0.777900
O361	O36	0.657000	0.893700	0.439300
O371	O37	0.794300	0.979800	0.385400
O381	O38	0.658500	0.099600	0.408500
O391	O39	0.877900	0.696100	0.681600
O401	O40	0.960700	0.275100	0.739700
O411	O41	0.891400	0.669100	0.822600
O421	O42	0.869700	0.443300	0.751800
O431	O43	0.865500	0.362500	0.623900
O441	O44	0.523000	0.997100	0.382400
O451	O45	0.760400	0.040100	0.658200
O461	O46	0.008100	0.255400	0.599800
O471	O47	0.788200	0.010100	0.526800
O481	O48	0.765800	0.773800	0.553500
O491	O49	0.884600	0.131400	0.622400
O501	O50	0.885600	0.923400	0.641800
Mo131	Mo13	0.283390	0.358850	0.932440
Mo141	Mo14	0.382440	0.232890	0.033040
Mo151	Mo15	0.388960	0.744450	0.078180
Mo161	Mo16	0.284300	0.651980	0.963040
Mo171	Mo17	0.520310	0.353960	0.194990
Mo181	Mo18	0.523540	0.570560	0.213200
Mn31	Mn3	0.124190	0.497330	0.134490
P91	P9	0.376730	0.163120	0.209740
P101	P10	0.111130	0.492650	0.941680
P111	P11	0.438780	0.798650	0.262800
P121	P12	0.327540	0.475480	0.113960
O511	O51	0.300300	0.239300	0.219300
O521	O52	0.260400	0.254600	0.008000
O531	O53	0.407600	0.365400	0.975700
O541	O54	0.408200	0.638600	0.998800
O551	O55	0.535400	0.475700	0.124900
O561	O56	0.513800	0.709100	0.137500
O571	O57	0.514600	0.877800	0.265300
O581	O58	0.482200	0.449600	0.267700
O591	O59	0.098100	0.460700	0.017900
O601	O60	0.471400	0.675800	0.277900
O611	O61	0.157000	0.606300	0.939300
O621	O62	0.294300	0.520200	0.885400
O631	O63	0.158500	0.400400	0.908500
O641	O64	0.377900	0.803900	0.181600
O651	O65	0.460700	0.224900	0.239700
O661	O66	0.391400	0.830900	0.322600
O671	O67	0.369700	0.056700	0.251800
O681	O68	0.365500	0.137500	0.123900
O691	O69	0.023000	0.502900	0.882400
O701	O70	0.260400	0.459900	0.158200
O711	O71	0.508100	0.244600	0.099800
O721	O72	0.288200	0.489900	0.026800
O731	O73	0.265800	0.726200	0.053500
O741	O74	0.384600	0.368600	0.122400
O751	O75	0.385600	0.576600	0.141800
Mo191	Mo19	0.216610	0.858850	0.567560
Mo201	Mo20	0.117560	0.732890	0.466960
Mo211	Mo21	0.111040	0.244450	0.421820
Mo221	Mo22	0.215700	0.151980	0.536960
Mo231	Mo23	0.979690	0.853960	0.305010
Mo241	Mo24	0.976460	0.070560	0.286800
Mn41	Mn4	0.375810	0.997330	0.365510
P131	P13	0.123270	0.663120	0.290260
P141	P14	0.388870	0.992650	0.558320
P151	P15	0.061220	0.298650	0.237200
P161	P16	0.172460	0.975480	0.386040
O761	O76	0.199700	0.739300	0.280700
O771	O77	0.239600	0.754600	0.492000
O781	O78	0.092400	0.865400	0.524300
O791	O79	0.091800	0.138600	0.501200
O801	O80	0.964600	0.975700	0.375100
O811	O81	0.986200	0.209100	0.362500
O821	O82	0.985400	0.377800	0.234700
O831	O83	0.017800	0.949600	0.232300
O841	O84	0.401900	0.960700	0.482100
O851	O85	0.028600	0.175800	0.222100
O861	O86	0.343000	0.106300	0.560700
O871	O87	0.205700	0.020200	0.614600
O881	O88	0.341500	0.900400	0.591500
O891	O89	0.122100	0.303900	0.318400
O901	O90	0.039300	0.724900	0.260300
O911	O91	0.108600	0.330900	0.177400
O921	O92	0.130300	0.556700	0.248200
O931	O93	0.134500	0.637500	0.376100
O941	O94	0.477000	0.002900	0.617600
O951	O95	0.239600	0.959900	0.341800
O961	O96	0.991900	0.744600	0.400200
O971	O97	0.211800	0.989900	0.473200
O981	O98	0.234200	0.226200	0.446500
O991	O99	0.115400	0.868600	0.377600
O1001	O100	0.114400	0.076600	0.358200
Mn51	Mn5	0.500000	0.500000	0.000000
Mn61	Mn6	0.000000	0.000000	0.500000
