data_MUVROM_clean_PM
_symmetry_space_group_name_H-M	'P1'
_cell_length_a	44.998000
_cell_length_b	20.613000
_cell_length_c	16.169400
_cell_angle_alpha	90.000000
_cell_angle_beta	94.777000
_cell_angle_gamma	90.000000
_symmetry_Int_Tables_number 1

loop_
_symmetry_equiv_pos_as_xyz
'x,y,z'

loop_
_atom_site_label
_atom_site_type_symbol
_atom_site_fract_x
_atom_site_fract_y
_atom_site_fract_z
Co11	Co1	0.078710	0.177700	0.537150
N11	N1	0.083240	0.279830	0.556800
O11	O1	0.063320	0.197360	0.420240
O21	O2	0.127820	0.180890	0.537960
O31	O3	0.105750	0.158200	0.650150
N21	N2	0.103310	0.312290	0.512300
C11	C1	0.070570	0.322700	0.600300
C21	C2	0.078780	0.218200	0.363500
Co21	Co2	0.136670	0.259630	0.455120
C31	C3	0.129140	0.169000	0.616000
C41	C4	0.101550	0.373300	0.530700
N31	N3	0.080720	0.382660	0.585700
H11	H1	0.056300	0.313300	0.637000
O41	O4	0.106770	0.220520	0.368360
C51	C5	0.061990	0.243400	0.286000
N41	N4	0.169190	0.199210	0.411580
O51	O5	0.143080	0.334940	0.374640
O61	O6	0.165180	0.302040	0.549680
C61	C6	0.158670	0.168120	0.665500
H21	H2	0.112900	0.406000	0.509300
C71	C7	0.072170	0.442350	0.621700
C81	C8	0.031420	0.255900	0.285600
C91	C9	0.076640	0.257000	0.216700
N51	N5	0.198840	0.217610	0.411800
C101	C10	0.167330	0.140200	0.383900
C111	C11	0.161630	0.380000	0.369900
C121	C12	0.187700	0.316800	0.595200
C131	C13	0.159320	0.172210	0.752300
C141	C14	0.185360	0.168450	0.627800
C151	C15	0.056850	0.441200	0.693000
H31	H3	0.021500	0.246400	0.332300
C161	C16	0.015870	0.282300	0.216000
C171	C17	0.061340	0.281500	0.145800
H41	H4	0.097100	0.249700	0.217500
Co31	Co3	0.213860	0.308180	0.447570
C181	C18	0.213150	0.168660	0.383300
N61	N6	0.194300	0.118200	0.364900
H51	H5	0.149800	0.116100	0.377800
O71	O7	0.188580	0.378890	0.399490
C191	C19	0.151600	0.441700	0.327800
O81	O8	0.213460	0.322820	0.569710
C201	C20	0.184700	0.328400	0.685900
H61	H6	0.141500	0.171700	0.777800
C211	C21	0.186110	0.176950	0.800100
C221	C22	0.212230	0.174580	0.674900
H71	H7	0.185100	0.164500	0.570400
H81	H8	0.051400	0.402100	0.716300
C231	C23	0.030830	0.294000	0.146100
C241	C24	0.982710	0.294500	0.217600
C251	C25	0.076910	0.290800	0.068800
O91	O9	0.235850	0.304910	0.318360
O101	O10	0.258050	0.323030	0.441630
H91	H9	0.233500	0.168200	0.376600
C261	C26	0.201950	0.057140	0.328600
C271	C27	0.133360	0.441400	0.254500
C281	C28	0.156840	0.329020	0.716500
C291	C29	0.210180	0.334770	0.741000
C301	C30	0.212400	0.178540	0.760000
C311	C31	0.187200	0.184720	0.892200
C321	C32	0.241090	0.182400	0.636700
H101	H10	0.020400	0.310400	0.098500
O111	O11	0.970040	0.273260	0.277400
O121	O12	0.970110	0.325320	0.156870
O131	O13	0.104630	0.281940	0.074100
O141	O14	0.061230	0.306440	0.003600
C331	C33	0.218100	0.058800	0.261200
H111	H11	0.126400	0.402100	0.232100
H121	H12	0.139800	0.324400	0.680100
C341	C34	0.153960	0.336440	0.801100
C351	C35	0.207410	0.344680	0.825400
H131	H13	0.229000	0.332400	0.721400
H141	H14	0.230500	0.182400	0.791700
O151	O15	0.164190	0.198440	0.925650
O161	O16	0.212540	0.176620	0.931980
Co41	Co4	0.926810	0.321380	0.111570
Co51	Co5	0.133090	0.241900	0.999560
H151	H15	0.223300	0.098100	0.238100
C361	C36	0.179360	0.345780	0.854600
C371	C37	0.124110	0.332800	0.834800
C381	C38	0.234590	0.350100	0.885900
Co61	Co6	0.208170	0.187690	0.051710
O171	O17	0.899060	0.340310	0.211390
O181	O18	0.877160	0.319840	0.087720
N71	N7	0.920410	0.219700	0.127700
O191	O19	0.103160	0.447500	0.091700
H161	H16	0.177500	0.352900	0.910800
O201	O20	0.234730	0.389490	0.943700
O211	O21	0.256190	0.313230	0.871870
N81	N8	0.101040	0.189080	0.924100
N91	N9	0.166340	0.300530	0.059160
O221	O22	0.136640	0.163110	0.083710
N101	N10	0.195860	0.281030	0.069900
O231	O23	0.182670	0.121230	0.092090
C391	C39	0.101090	0.128300	0.902400
C401	C40	0.165390	0.360200	0.083100
C411	C41	0.155210	0.119800	0.104000
C421	C42	0.211300	0.330200	0.100600
C431	C43	0.067720	0.176200	0.822000
N111	N11	0.080360	0.117050	0.838700
H171	H17	0.113700	0.096900	0.927400
N121	N12	0.193110	0.381490	0.110500
H181	H18	0.148100	0.385200	0.081700
C441	C44	0.145430	0.058720	0.143900
H191	H19	0.231800	0.330100	0.113700
H201	H20	0.052700	0.184200	0.780400
C451	C45	0.073480	0.057500	0.797000
C461	C46	0.201980	0.442960	0.147000
C471	C47	0.127920	0.058700	0.210600
C481	C48	0.059610	0.058700	0.718600
C491	C49	0.220410	0.442000	0.219900
H211	H21	0.121200	0.097700	0.231100
H221	H22	0.055000	0.097900	0.692100
H231	H23	0.226800	0.402800	0.243600
O241	O24	0.101050	0.053330	0.360900
Co71	Co7	0.578710	0.677700	0.537150
N131	N13	0.583240	0.779830	0.556800
O251	O25	0.563320	0.697360	0.420240
O261	O26	0.627820	0.680890	0.537960
O271	O27	0.605750	0.658200	0.650150
N141	N14	0.603310	0.812290	0.512300
C501	C50	0.570570	0.822700	0.600300
C511	C51	0.578780	0.718200	0.363500
Co81	Co8	0.636670	0.759630	0.455120
C521	C52	0.629140	0.669000	0.616000
C531	C53	0.601550	0.873300	0.530700
N151	N15	0.580720	0.882660	0.585700
H241	H24	0.556300	0.813300	0.637000
O281	O28	0.606770	0.720520	0.368360
C541	C54	0.561990	0.743400	0.286000
N161	N16	0.669190	0.699210	0.411580
O291	O29	0.643080	0.834940	0.374640
O301	O30	0.665180	0.802040	0.549680
C551	C55	0.658670	0.668120	0.665500
H251	H25	0.612900	0.906000	0.509300
C561	C56	0.572170	0.942350	0.621700
C571	C57	0.531420	0.755900	0.285600
C581	C58	0.576640	0.757000	0.216700
N171	N17	0.698840	0.717610	0.411800
C591	C59	0.667330	0.640200	0.383900
C601	C60	0.661630	0.880000	0.369900
C611	C61	0.687700	0.816800	0.595200
C621	C62	0.659320	0.672210	0.752300
C631	C63	0.685360	0.668450	0.627800
C641	C64	0.556850	0.941200	0.693000
H261	H26	0.521500	0.746400	0.332300
C651	C65	0.515870	0.782300	0.216000
C661	C66	0.561340	0.781500	0.145800
H271	H27	0.597100	0.749700	0.217500
Co91	Co9	0.713860	0.808180	0.447570
C671	C67	0.713150	0.668660	0.383300
N181	N18	0.694300	0.618200	0.364900
H281	H28	0.649800	0.616100	0.377800
O311	O31	0.688580	0.878890	0.399490
C681	C68	0.651600	0.941700	0.327800
O321	O32	0.713460	0.822820	0.569710
C691	C69	0.684700	0.828400	0.685900
H291	H29	0.641500	0.671700	0.777800
C701	C70	0.686110	0.676950	0.800100
C711	C71	0.712230	0.674580	0.674900
H301	H30	0.685100	0.664500	0.570400
H311	H31	0.551400	0.902100	0.716300
C721	C72	0.530830	0.794000	0.146100
C731	C73	0.482710	0.794500	0.217600
C741	C74	0.576910	0.790800	0.068800
O331	O33	0.735850	0.804910	0.318360
O341	O34	0.758050	0.823030	0.441630
H321	H32	0.733500	0.668200	0.376600
C751	C75	0.701950	0.557140	0.328600
C761	C76	0.633360	0.941400	0.254500
C771	C77	0.656840	0.829020	0.716500
C781	C78	0.710180	0.834770	0.741000
C791	C79	0.712400	0.678540	0.760000
C801	C80	0.687200	0.684720	0.892200
C811	C81	0.741090	0.682400	0.636700
H331	H33	0.520400	0.810400	0.098500
O351	O35	0.470040	0.773260	0.277400
O361	O36	0.470110	0.825320	0.156870
O371	O37	0.604630	0.781940	0.074100
O381	O38	0.561230	0.806440	0.003600
C821	C82	0.718100	0.558800	0.261200
H341	H34	0.626400	0.902100	0.232100
H351	H35	0.639800	0.824400	0.680100
C831	C83	0.653960	0.836440	0.801100
C841	C84	0.707410	0.844680	0.825400
H361	H36	0.729000	0.832400	0.721400
H371	H37	0.730500	0.682400	0.791700
O391	O39	0.664190	0.698440	0.925650
O401	O40	0.712540	0.676620	0.931980
Co101	Co10	0.426810	0.821380	0.111570
Co111	Co11	0.633090	0.741900	0.999560
H381	H38	0.723300	0.598100	0.238100
C851	C85	0.679360	0.845780	0.854600
C861	C86	0.624110	0.832800	0.834800
C871	C87	0.734590	0.850100	0.885900
Co121	Co12	0.708170	0.687690	0.051710
O411	O41	0.399060	0.840310	0.211390
O421	O42	0.377160	0.819840	0.087720
N191	N19	0.420410	0.719700	0.127700
O431	O43	0.603160	0.947500	0.091700
H391	H39	0.677500	0.852900	0.910800
O441	O44	0.734730	0.889490	0.943700
O451	O45	0.756190	0.813230	0.871870
N201	N20	0.601040	0.689080	0.924100
N211	N21	0.666340	0.800530	0.059160
O461	O46	0.636640	0.663110	0.083710
N221	N22	0.695860	0.781030	0.069900
O471	O47	0.682670	0.621230	0.092090
C881	C88	0.601090	0.628300	0.902400
C891	C89	0.665390	0.860200	0.083100
C901	C90	0.655210	0.619800	0.104000
C911	C91	0.711300	0.830200	0.100600
C921	C92	0.567720	0.676200	0.822000
N231	N23	0.580360	0.617050	0.838700
H401	H40	0.613700	0.596900	0.927400
N241	N24	0.693110	0.881490	0.110500
H411	H41	0.648100	0.885200	0.081700
C931	C93	0.645430	0.558720	0.143900
H421	H42	0.731800	0.830100	0.113700
H431	H43	0.552700	0.684200	0.780400
C941	C94	0.573480	0.557500	0.797000
C951	C95	0.701980	0.942960	0.147000
C961	C96	0.627920	0.558700	0.210600
C971	C97	0.559610	0.558700	0.718600
C981	C98	0.720410	0.942000	0.219900
H441	H44	0.621200	0.597700	0.231100
H451	H45	0.555000	0.597900	0.692100
H461	H46	0.726800	0.902800	0.243600
O481	O48	0.601050	0.553330	0.360900
Co131	Co13	0.921290	0.177700	0.462850
N251	N25	0.916760	0.279830	0.443200
O491	O49	0.936680	0.197360	0.579760
O501	O50	0.872180	0.180890	0.462040
O511	O51	0.894250	0.158200	0.349850
N261	N26	0.896690	0.312290	0.487700
C991	C99	0.929430	0.322700	0.399700
C1001	C100	0.921220	0.218200	0.636500
Co141	Co14	0.863330	0.259630	0.544880
C1011	C101	0.870860	0.169000	0.384000
C1021	C102	0.898450	0.373300	0.469300
N271	N27	0.919280	0.382660	0.414300
H471	H47	0.943700	0.313300	0.363000
O521	O52	0.893230	0.220520	0.631640
C1031	C103	0.938010	0.243400	0.714000
N281	N28	0.830810	0.199210	0.588420
O531	O53	0.856920	0.334940	0.625360
O541	O54	0.834820	0.302040	0.450320
C1041	C104	0.841330	0.168120	0.334500
H481	H48	0.887100	0.406000	0.490700
C1051	C105	0.927830	0.442350	0.378300
C1061	C106	0.968580	0.255900	0.714400
C1071	C107	0.923360	0.257000	0.783300
N291	N29	0.801160	0.217610	0.588200
C1081	C108	0.832670	0.140200	0.616100
C1091	C109	0.838370	0.380000	0.630100
C1101	C110	0.812300	0.316800	0.404800
C1111	C111	0.840680	0.172210	0.247700
C1121	C112	0.814640	0.168450	0.372200
C1131	C113	0.943150	0.441200	0.307000
H491	H49	0.978500	0.246400	0.667700
C1141	C114	0.984130	0.282300	0.784000
C1151	C115	0.938660	0.281500	0.854200
H501	H50	0.902900	0.249700	0.782500
Co151	Co15	0.786140	0.308180	0.552430
C1161	C116	0.786850	0.168660	0.616700
N301	N30	0.805700	0.118200	0.635100
H511	H51	0.850200	0.116100	0.622200
O551	O55	0.811420	0.378890	0.600510
C1171	C117	0.848400	0.441700	0.672200
O561	O56	0.786540	0.322820	0.430290
C1181	C118	0.815300	0.328400	0.314100
H521	H52	0.858500	0.171700	0.222200
C1191	C119	0.813890	0.176950	0.199900
C1201	C120	0.787770	0.174580	0.325100
H531	H53	0.814900	0.164500	0.429600
H541	H54	0.948600	0.402100	0.283700
C1211	C121	0.969170	0.294000	0.853900
C1221	C122	0.017290	0.294500	0.782400
C1231	C123	0.923090	0.290800	0.931200
O571	O57	0.764150	0.304910	0.681640
O581	O58	0.741950	0.323030	0.558370
H551	H55	0.766500	0.168200	0.623400
C1241	C124	0.798050	0.057140	0.671400
C1251	C125	0.866640	0.441400	0.745500
C1261	C126	0.843160	0.329020	0.283500
C1271	C127	0.789820	0.334770	0.259000
C1281	C128	0.787600	0.178540	0.240000
C1291	C129	0.812800	0.184720	0.107800
C1301	C130	0.758910	0.182400	0.363300
H561	H56	0.979600	0.310400	0.901500
O591	O59	0.029960	0.273260	0.722600
O601	O60	0.029890	0.325320	0.843130
O611	O61	0.895370	0.281940	0.925900
O621	O62	0.938770	0.306440	0.996400
C1311	C131	0.781900	0.058800	0.738800
H571	H57	0.873600	0.402100	0.767900
H581	H58	0.860200	0.324400	0.319900
C1321	C132	0.846040	0.336440	0.198900
C1331	C133	0.792590	0.344680	0.174600
H591	H59	0.771000	0.332400	0.278600
H601	H60	0.769500	0.182400	0.208300
O631	O63	0.835810	0.198440	0.074350
O641	O64	0.787460	0.176620	0.068020
Co161	Co16	0.073190	0.321380	0.888430
Co171	Co17	0.866910	0.241900	0.000440
H611	H61	0.776700	0.098100	0.761900
C1341	C134	0.820640	0.345780	0.145400
C1351	C135	0.875890	0.332800	0.165200
C1361	C136	0.765410	0.350100	0.114100
Co181	Co18	0.791830	0.187690	0.948290
O651	O65	0.100940	0.340310	0.788610
O661	O66	0.122840	0.319840	0.912280
N311	N31	0.079590	0.219700	0.872300
O671	O67	0.896840	0.447500	0.908300
H621	H62	0.822500	0.352900	0.089200
O681	O68	0.765270	0.389490	0.056300
O691	O69	0.743810	0.313230	0.128130
N321	N32	0.898960	0.189080	0.075900
N331	N33	0.833660	0.300530	0.940840
O701	O70	0.863360	0.163110	0.916290
N341	N34	0.804140	0.281030	0.930100
O711	O71	0.817330	0.121230	0.907910
C1371	C137	0.898910	0.128300	0.097600
C1381	C138	0.834610	0.360200	0.916900
C1391	C139	0.844790	0.119800	0.896000
C1401	C140	0.788700	0.330200	0.899400
C1411	C141	0.932280	0.176200	0.178000
N351	N35	0.919640	0.117050	0.161300
H631	H63	0.886300	0.096900	0.072600
N361	N36	0.806890	0.381490	0.889500
H641	H64	0.851900	0.385200	0.918300
C1421	C142	0.854570	0.058720	0.856100
H651	H65	0.768200	0.330100	0.886300
H661	H66	0.947300	0.184200	0.219600
C1431	C143	0.926520	0.057500	0.203000
C1441	C144	0.798020	0.442960	0.853000
C1451	C145	0.872080	0.058700	0.789400
C1461	C146	0.940390	0.058700	0.281400
C1471	C147	0.779590	0.442000	0.780100
H671	H67	0.878800	0.097700	0.768900
H681	H68	0.945000	0.097900	0.307900
H691	H69	0.773200	0.402800	0.756400
O721	O72	0.898950	0.053330	0.639100
Co191	Co19	0.421290	0.677700	0.462850
N371	N37	0.416760	0.779830	0.443200
O731	O73	0.436680	0.697360	0.579760
O741	O74	0.372180	0.680890	0.462040
O751	O75	0.394250	0.658200	0.349850
N381	N38	0.396690	0.812290	0.487700
C1481	C148	0.429430	0.822700	0.399700
C1491	C149	0.421220	0.718200	0.636500
Co201	Co20	0.363330	0.759630	0.544880
C1501	C150	0.370860	0.669000	0.384000
C1511	C151	0.398450	0.873300	0.469300
N391	N39	0.419280	0.882660	0.414300
H701	H70	0.443700	0.813300	0.363000
O761	O76	0.393230	0.720520	0.631640
C1521	C152	0.438010	0.743400	0.714000
N401	N40	0.330810	0.699210	0.588420
O771	O77	0.356920	0.834940	0.625360
O781	O78	0.334820	0.802040	0.450320
C1531	C153	0.341330	0.668120	0.334500
H711	H71	0.387100	0.906000	0.490700
C1541	C154	0.427830	0.942350	0.378300
C1551	C155	0.468580	0.755900	0.714400
C1561	C156	0.423360	0.757000	0.783300
N411	N41	0.301160	0.717610	0.588200
C1571	C157	0.332670	0.640200	0.616100
C1581	C158	0.338370	0.880000	0.630100
C1591	C159	0.312300	0.816800	0.404800
C1601	C160	0.340680	0.672210	0.247700
C1611	C161	0.314640	0.668450	0.372200
C1621	C162	0.443150	0.941200	0.307000
H721	H72	0.478500	0.746400	0.667700
C1631	C163	0.484130	0.782300	0.784000
C1641	C164	0.438660	0.781500	0.854200
H731	H73	0.402900	0.749700	0.782500
Co211	Co21	0.286140	0.808180	0.552430
C1651	C165	0.286850	0.668660	0.616700
N421	N42	0.305700	0.618200	0.635100
H741	H74	0.350200	0.616100	0.622200
O791	O79	0.311420	0.878890	0.600510
C1661	C166	0.348400	0.941700	0.672200
O801	O80	0.286540	0.822820	0.430290
C1671	C167	0.315300	0.828400	0.314100
H751	H75	0.358500	0.671700	0.222200
C1681	C168	0.313890	0.676950	0.199900
C1691	C169	0.287770	0.674580	0.325100
H761	H76	0.314900	0.664500	0.429600
H771	H77	0.448600	0.902100	0.283700
C1701	C170	0.469170	0.794000	0.853900
C1711	C171	0.517290	0.794500	0.782400
C1721	C172	0.423090	0.790800	0.931200
O811	O81	0.264150	0.804910	0.681640
O821	O82	0.241950	0.823030	0.558370
H781	H78	0.266500	0.668200	0.623400
C1731	C173	0.298050	0.557140	0.671400
C1741	C174	0.366640	0.941400	0.745500
C1751	C175	0.343160	0.829020	0.283500
C1761	C176	0.289820	0.834770	0.259000
C1771	C177	0.287600	0.678540	0.240000
C1781	C178	0.312800	0.684720	0.107800
C1791	C179	0.258910	0.682400	0.363300
H791	H79	0.479600	0.810400	0.901500
O831	O83	0.529960	0.773260	0.722600
O841	O84	0.529890	0.825320	0.843130
O851	O85	0.395370	0.781940	0.925900
O861	O86	0.438770	0.806440	0.996400
C1801	C180	0.281900	0.558800	0.738800
H801	H80	0.373600	0.902100	0.767900
H811	H81	0.360200	0.824400	0.319900
C1811	C181	0.346040	0.836440	0.198900
C1821	C182	0.292590	0.844680	0.174600
H821	H82	0.271000	0.832400	0.278600
H831	H83	0.269500	0.682400	0.208300
O871	O87	0.335810	0.698440	0.074350
O881	O88	0.287460	0.676620	0.068020
Co221	Co22	0.573190	0.821380	0.888430
Co231	Co23	0.366910	0.741900	0.000440
H841	H84	0.276700	0.598100	0.761900
C1831	C183	0.320640	0.845780	0.145400
C1841	C184	0.375890	0.832800	0.165200
C1851	C185	0.265410	0.850100	0.114100
Co241	Co24	0.291830	0.687690	0.948290
O891	O89	0.600940	0.840310	0.788610
O901	O90	0.622840	0.819840	0.912280
N431	N43	0.579590	0.719700	0.872300
O911	O91	0.396840	0.947500	0.908300
H851	H85	0.322500	0.852900	0.089200
O921	O92	0.265270	0.889490	0.056300
O931	O93	0.243810	0.813230	0.128130
N441	N44	0.398960	0.689080	0.075900
N451	N45	0.333660	0.800530	0.940840
O941	O94	0.363360	0.663110	0.916290
N461	N46	0.304140	0.781030	0.930100
O951	O95	0.317330	0.621230	0.907910
C1861	C186	0.398910	0.628300	0.097600
C1871	C187	0.334610	0.860200	0.916900
C1881	C188	0.344790	0.619800	0.896000
C1891	C189	0.288700	0.830200	0.899400
C1901	C190	0.432280	0.676200	0.178000
N471	N47	0.419640	0.617050	0.161300
H861	H86	0.386300	0.596900	0.072600
N481	N48	0.306890	0.881490	0.889500
H871	H87	0.351900	0.885200	0.918300
C1911	C191	0.354570	0.558720	0.856100
H881	H88	0.268200	0.830100	0.886300
H891	H89	0.447300	0.684200	0.219600
C1921	C192	0.426520	0.557500	0.203000
C1931	C193	0.298020	0.942960	0.853000
C1941	C194	0.372080	0.558700	0.789400
C1951	C195	0.440390	0.558700	0.281400
C1961	C196	0.279590	0.942000	0.780100
H901	H90	0.378800	0.597700	0.768900
H911	H91	0.445000	0.597900	0.307900
H921	H92	0.273200	0.902800	0.756400
O961	O96	0.398950	0.553330	0.639100
Co251	Co25	0.921290	0.822300	0.462850
N491	N49	0.916760	0.720170	0.443200
O971	O97	0.936680	0.802640	0.579760
O981	O98	0.872180	0.819110	0.462040
O991	O99	0.894250	0.841800	0.349850
N501	N50	0.896690	0.687710	0.487700
C1971	C197	0.929430	0.677300	0.399700
C1981	C198	0.921220	0.781800	0.636500
Co261	Co26	0.863330	0.740370	0.544880
C1991	C199	0.870860	0.831000	0.384000
C2001	C200	0.898450	0.626700	0.469300
N511	N51	0.919280	0.617340	0.414300
H931	H93	0.943700	0.686700	0.363000
O1001	O100	0.893230	0.779480	0.631640
C2011	C201	0.938010	0.756600	0.714000
N521	N52	0.830810	0.800790	0.588420
O1011	O101	0.856920	0.665060	0.625360
O1021	O102	0.834820	0.697960	0.450320
C2021	C202	0.841330	0.831880	0.334500
H941	H94	0.887100	0.594000	0.490700
C2031	C203	0.927830	0.557650	0.378300
C2041	C204	0.968580	0.744100	0.714400
C2051	C205	0.923360	0.743000	0.783300
N531	N53	0.801160	0.782390	0.588200
C2061	C206	0.832670	0.859800	0.616100
C2071	C207	0.838370	0.620000	0.630100
C2081	C208	0.812300	0.683200	0.404800
C2091	C209	0.840680	0.827790	0.247700
C2101	C210	0.814640	0.831550	0.372200
C2111	C211	0.943150	0.558800	0.307000
H951	H95	0.978500	0.753600	0.667700
C2121	C212	0.984130	0.717700	0.784000
C2131	C213	0.938660	0.718500	0.854200
H961	H96	0.902900	0.750300	0.782500
Co271	Co27	0.786140	0.691820	0.552430
C2141	C214	0.786850	0.831340	0.616700
N541	N54	0.805700	0.881800	0.635100
H971	H97	0.850200	0.883900	0.622200
O1031	O103	0.811420	0.621110	0.600510
C2151	C215	0.848400	0.558300	0.672200
O1041	O104	0.786540	0.677180	0.430290
C2161	C216	0.815300	0.671600	0.314100
H981	H98	0.858500	0.828300	0.222200
C2171	C217	0.813890	0.823050	0.199900
C2181	C218	0.787770	0.825420	0.325100
H991	H99	0.814900	0.835500	0.429600
H1001	H100	0.948600	0.597900	0.283700
C2191	C219	0.969170	0.706000	0.853900
C2201	C220	0.017290	0.705500	0.782400
C2211	C221	0.923090	0.709200	0.931200
O1051	O105	0.764150	0.695090	0.681640
O1061	O106	0.741950	0.676970	0.558370
H1011	H101	0.766500	0.831800	0.623400
C2221	C222	0.798050	0.942860	0.671400
C2231	C223	0.866640	0.558600	0.745500
C2241	C224	0.843160	0.670980	0.283500
C2251	C225	0.789820	0.665230	0.259000
C2261	C226	0.787600	0.821460	0.240000
C2271	C227	0.812800	0.815280	0.107800
C2281	C228	0.758910	0.817600	0.363300
H1021	H102	0.979600	0.689600	0.901500
O1071	O107	0.029960	0.726740	0.722600
O1081	O108	0.029890	0.674680	0.843130
O1091	O109	0.895370	0.718060	0.925900
O1101	O110	0.938770	0.693560	0.996400
C2291	C229	0.781900	0.941200	0.738800
H1031	H103	0.873600	0.597900	0.767900
H1041	H104	0.860200	0.675600	0.319900
C2301	C230	0.846040	0.663560	0.198900
C2311	C231	0.792590	0.655320	0.174600
H1051	H105	0.771000	0.667600	0.278600
H1061	H106	0.769500	0.817600	0.208300
O1111	O111	0.835810	0.801560	0.074350
O1121	O112	0.787460	0.823380	0.068020
Co281	Co28	0.073190	0.678620	0.888430
Co291	Co29	0.866910	0.758100	0.000440
H1071	H107	0.776700	0.901900	0.761900
C2321	C232	0.820640	0.654220	0.145400
C2331	C233	0.875890	0.667200	0.165200
C2341	C234	0.765410	0.649900	0.114100
Co301	Co30	0.791830	0.812310	0.948290
O1131	O113	0.100940	0.659690	0.788610
O1141	O114	0.122840	0.680160	0.912280
N551	N55	0.079590	0.780300	0.872300
O1151	O115	0.896840	0.552500	0.908300
H1081	H108	0.822500	0.647100	0.089200
O1161	O116	0.765270	0.610510	0.056300
O1171	O117	0.743810	0.686770	0.128130
N561	N56	0.898960	0.810920	0.075900
N571	N57	0.833660	0.699470	0.940840
O1181	O118	0.863360	0.836890	0.916290
N581	N58	0.804140	0.718970	0.930100
O1191	O119	0.817330	0.878770	0.907910
C2351	C235	0.898910	0.871700	0.097600
C2361	C236	0.834610	0.639800	0.916900
C2371	C237	0.844790	0.880200	0.896000
C2381	C238	0.788700	0.669800	0.899400
C2391	C239	0.932280	0.823800	0.178000
N591	N59	0.919640	0.882950	0.161300
H1091	H109	0.886300	0.903100	0.072600
N601	N60	0.806890	0.618510	0.889500
H1101	H110	0.851900	0.614800	0.918300
C2401	C240	0.854570	0.941280	0.856100
H1111	H111	0.768200	0.669900	0.886300
H1121	H112	0.947300	0.815800	0.219600
C2411	C241	0.926520	0.942500	0.203000
C2421	C242	0.798020	0.557040	0.853000
C2431	C243	0.872080	0.941300	0.789400
C2441	C244	0.940390	0.941300	0.281400
C2451	C245	0.779590	0.558000	0.780100
H1131	H113	0.878800	0.902300	0.768900
H1141	H114	0.945000	0.902100	0.307900
H1151	H115	0.773200	0.597200	0.756400
O1201	O120	0.898950	0.946670	0.639100
Co311	Co31	0.421290	0.322300	0.462850
N611	N61	0.416760	0.220170	0.443200
O1211	O121	0.436680	0.302640	0.579760
O1221	O122	0.372180	0.319110	0.462040
O1231	O123	0.394250	0.341800	0.349850
N621	N62	0.396690	0.187710	0.487700
C2461	C246	0.429430	0.177300	0.399700
C2471	C247	0.421220	0.281800	0.636500
Co321	Co32	0.363330	0.240370	0.544880
C2481	C248	0.370860	0.331000	0.384000
C2491	C249	0.398450	0.126700	0.469300
N631	N63	0.419280	0.117340	0.414300
H1161	H116	0.443700	0.186700	0.363000
O1241	O124	0.393230	0.279480	0.631640
C2501	C250	0.438010	0.256600	0.714000
N641	N64	0.330810	0.300790	0.588420
O1251	O125	0.356920	0.165060	0.625360
O1261	O126	0.334820	0.197960	0.450320
C2511	C251	0.341330	0.331880	0.334500
H1171	H117	0.387100	0.094000	0.490700
C2521	C252	0.427830	0.057650	0.378300
C2531	C253	0.468580	0.244100	0.714400
C2541	C254	0.423360	0.243000	0.783300
N651	N65	0.301160	0.282390	0.588200
C2551	C255	0.332670	0.359800	0.616100
C2561	C256	0.338370	0.120000	0.630100
C2571	C257	0.312300	0.183200	0.404800
C2581	C258	0.340680	0.327790	0.247700
C2591	C259	0.314640	0.331550	0.372200
C2601	C260	0.443150	0.058800	0.307000
H1181	H118	0.478500	0.253600	0.667700
C2611	C261	0.484130	0.217700	0.784000
C2621	C262	0.438660	0.218500	0.854200
H1191	H119	0.402900	0.250300	0.782500
Co331	Co33	0.286140	0.191820	0.552430
C2631	C263	0.286850	0.331340	0.616700
N661	N66	0.305700	0.381800	0.635100
H1201	H120	0.350200	0.383900	0.622200
O1271	O127	0.311420	0.121110	0.600510
C2641	C264	0.348400	0.058300	0.672200
O1281	O128	0.286540	0.177180	0.430290
C2651	C265	0.315300	0.171600	0.314100
H1211	H121	0.358500	0.328300	0.222200
C2661	C266	0.313890	0.323050	0.199900
C2671	C267	0.287770	0.325420	0.325100
H1221	H122	0.314900	0.335500	0.429600
H1231	H123	0.448600	0.097900	0.283700
C2681	C268	0.469170	0.206000	0.853900
C2691	C269	0.517290	0.205500	0.782400
C2701	C270	0.423090	0.209200	0.931200
O1291	O129	0.264150	0.195090	0.681640
O1301	O130	0.241950	0.176970	0.558370
H1241	H124	0.266500	0.331800	0.623400
C2711	C271	0.298050	0.442860	0.671400
C2721	C272	0.366640	0.058600	0.745500
C2731	C273	0.343160	0.170980	0.283500
C2741	C274	0.289820	0.165230	0.259000
C2751	C275	0.287600	0.321460	0.240000
C2761	C276	0.312800	0.315280	0.107800
C2771	C277	0.258910	0.317600	0.363300
H1251	H125	0.479600	0.189600	0.901500
O1311	O131	0.529960	0.226740	0.722600
O1321	O132	0.529890	0.174680	0.843130
O1331	O133	0.395370	0.218060	0.925900
O1341	O134	0.438770	0.193560	0.996400
C2781	C278	0.281900	0.441200	0.738800
H1261	H126	0.373600	0.097900	0.767900
H1271	H127	0.360200	0.175600	0.319900
C2791	C279	0.346040	0.163560	0.198900
C2801	C280	0.292590	0.155320	0.174600
H1281	H128	0.271000	0.167600	0.278600
H1291	H129	0.269500	0.317600	0.208300
O1351	O135	0.335810	0.301560	0.074350
O1361	O136	0.287460	0.323380	0.068020
Co341	Co34	0.573190	0.178620	0.888430
Co351	Co35	0.366910	0.258100	0.000440
H1301	H130	0.276700	0.401900	0.761900
C2811	C281	0.320640	0.154220	0.145400
C2821	C282	0.375890	0.167200	0.165200
C2831	C283	0.265410	0.149900	0.114100
Co361	Co36	0.291830	0.312310	0.948290
O1371	O137	0.600940	0.159690	0.788610
O1381	O138	0.622840	0.180160	0.912280
N671	N67	0.579590	0.280300	0.872300
O1391	O139	0.396840	0.052500	0.908300
H1311	H131	0.322500	0.147100	0.089200
O1401	O140	0.265270	0.110510	0.056300
O1411	O141	0.243810	0.186770	0.128130
N681	N68	0.398960	0.310920	0.075900
N691	N69	0.333660	0.199470	0.940840
O1421	O142	0.363360	0.336890	0.916290
N701	N70	0.304140	0.218970	0.930100
O1431	O143	0.317330	0.378770	0.907910
C2841	C284	0.398910	0.371700	0.097600
C2851	C285	0.334610	0.139800	0.916900
C2861	C286	0.344790	0.380200	0.896000
C2871	C287	0.288700	0.169800	0.899400
C2881	C288	0.432280	0.323800	0.178000
N711	N71	0.419640	0.382950	0.161300
H1321	H132	0.386300	0.403100	0.072600
N721	N72	0.306890	0.118510	0.889500
H1331	H133	0.351900	0.114800	0.918300
C2891	C289	0.354570	0.441280	0.856100
H1341	H134	0.268200	0.169900	0.886300
H1351	H135	0.447300	0.315800	0.219600
C2901	C290	0.426520	0.442500	0.203000
C2911	C291	0.298020	0.057040	0.853000
C2921	C292	0.372080	0.441300	0.789400
C2931	C293	0.440390	0.441300	0.281400
C2941	C294	0.279590	0.058000	0.780100
H1361	H136	0.378800	0.402300	0.768900
H1371	H137	0.445000	0.402100	0.307900
H1381	H138	0.273200	0.097200	0.756400
O1441	O144	0.398950	0.446670	0.639100
Co371	Co37	0.078710	0.822300	0.537150
N731	N73	0.083240	0.720170	0.556800
O1451	O145	0.063320	0.802640	0.420240
O1461	O146	0.127820	0.819110	0.537960
O1471	O147	0.105750	0.841800	0.650150
N741	N74	0.103310	0.687710	0.512300
C2951	C295	0.070570	0.677300	0.600300
C2961	C296	0.078780	0.781800	0.363500
Co381	Co38	0.136670	0.740370	0.455120
C2971	C297	0.129140	0.831000	0.616000
C2981	C298	0.101550	0.626700	0.530700
N751	N75	0.080720	0.617340	0.585700
H1391	H139	0.056300	0.686700	0.637000
O1481	O148	0.106770	0.779480	0.368360
C2991	C299	0.061990	0.756600	0.286000
N761	N76	0.169190	0.800790	0.411580
O1491	O149	0.143080	0.665060	0.374640
O1501	O150	0.165180	0.697960	0.549680
C3001	C300	0.158670	0.831880	0.665500
H1401	H140	0.112900	0.594000	0.509300
C3011	C301	0.072170	0.557650	0.621700
C3021	C302	0.031420	0.744100	0.285600
C3031	C303	0.076640	0.743000	0.216700
N771	N77	0.198840	0.782390	0.411800
C3041	C304	0.167330	0.859800	0.383900
C3051	C305	0.161630	0.620000	0.369900
C3061	C306	0.187700	0.683200	0.595200
C3071	C307	0.159320	0.827790	0.752300
C3081	C308	0.185360	0.831550	0.627800
C3091	C309	0.056850	0.558800	0.693000
H1411	H141	0.021500	0.753600	0.332300
C3101	C310	0.015870	0.717700	0.216000
C3111	C311	0.061340	0.718500	0.145800
H1421	H142	0.097100	0.750300	0.217500
Co391	Co39	0.213860	0.691820	0.447570
C3121	C312	0.213150	0.831340	0.383300
N781	N78	0.194300	0.881800	0.364900
H1431	H143	0.149800	0.883900	0.377800
O1511	O151	0.188580	0.621110	0.399490
C3131	C313	0.151600	0.558300	0.327800
O1521	O152	0.213460	0.677180	0.569710
C3141	C314	0.184700	0.671600	0.685900
H1441	H144	0.141500	0.828300	0.777800
C3151	C315	0.186110	0.823050	0.800100
C3161	C316	0.212230	0.825420	0.674900
H1451	H145	0.185100	0.835500	0.570400
H1461	H146	0.051400	0.597900	0.716300
C3171	C317	0.030830	0.706000	0.146100
C3181	C318	0.982710	0.705500	0.217600
C3191	C319	0.076910	0.709200	0.068800
O1531	O153	0.235850	0.695090	0.318360
O1541	O154	0.258050	0.676970	0.441630
H1471	H147	0.233500	0.831800	0.376600
C3201	C320	0.201950	0.942860	0.328600
C3211	C321	0.133360	0.558600	0.254500
C3221	C322	0.156840	0.670980	0.716500
C3231	C323	0.210180	0.665230	0.741000
C3241	C324	0.212400	0.821460	0.760000
C3251	C325	0.187200	0.815280	0.892200
C3261	C326	0.241090	0.817600	0.636700
H1481	H148	0.020400	0.689600	0.098500
O1551	O155	0.970040	0.726740	0.277400
O1561	O156	0.970110	0.674680	0.156870
O1571	O157	0.104630	0.718060	0.074100
O1581	O158	0.061230	0.693560	0.003600
C3271	C327	0.218100	0.941200	0.261200
H1491	H149	0.126400	0.597900	0.232100
H1501	H150	0.139800	0.675600	0.680100
C3281	C328	0.153960	0.663560	0.801100
C3291	C329	0.207410	0.655320	0.825400
H1511	H151	0.229000	0.667600	0.721400
H1521	H152	0.230500	0.817600	0.791700
O1591	O159	0.164190	0.801560	0.925650
O1601	O160	0.212540	0.823380	0.931980
Co401	Co40	0.926810	0.678620	0.111570
Co411	Co41	0.133090	0.758100	0.999560
H1531	H153	0.223300	0.901900	0.238100
C3301	C330	0.179360	0.654220	0.854600
C3311	C331	0.124110	0.667200	0.834800
C3321	C332	0.234590	0.649900	0.885900
Co421	Co42	0.208170	0.812310	0.051710
O1611	O161	0.899060	0.659690	0.211390
O1621	O162	0.877160	0.680160	0.087720
N791	N79	0.920410	0.780300	0.127700
O1631	O163	0.103160	0.552500	0.091700
H1541	H154	0.177500	0.647100	0.910800
O1641	O164	0.234730	0.610510	0.943700
O1651	O165	0.256190	0.686770	0.871870
N801	N80	0.101040	0.810920	0.924100
N811	N81	0.166340	0.699470	0.059160
O1661	O166	0.136640	0.836890	0.083710
N821	N82	0.195860	0.718970	0.069900
O1671	O167	0.182670	0.878770	0.092090
C3331	C333	0.101090	0.871700	0.902400
C3341	C334	0.165390	0.639800	0.083100
C3351	C335	0.155210	0.880200	0.104000
C3361	C336	0.211300	0.669800	0.100600
C3371	C337	0.067720	0.823800	0.822000
N831	N83	0.080360	0.882950	0.838700
H1551	H155	0.113700	0.903100	0.927400
N841	N84	0.193110	0.618510	0.110500
H1561	H156	0.148100	0.614800	0.081700
C3381	C338	0.145430	0.941280	0.143900
H1571	H157	0.231800	0.669900	0.113700
H1581	H158	0.052700	0.815800	0.780400
C3391	C339	0.073480	0.942500	0.797000
C3401	C340	0.201980	0.557040	0.147000
C3411	C341	0.127920	0.941300	0.210600
C3421	C342	0.059610	0.941300	0.718600
C3431	C343	0.220410	0.558000	0.219900
H1591	H159	0.121200	0.902300	0.231100
H1601	H160	0.055000	0.902100	0.692100
H1611	H161	0.226800	0.597200	0.243600
O1681	O168	0.101050	0.946670	0.360900
Co431	Co43	0.578710	0.322300	0.537150
N851	N85	0.583240	0.220170	0.556800
O1691	O169	0.563320	0.302640	0.420240
O1701	O170	0.627820	0.319110	0.537960
O1711	O171	0.605750	0.341800	0.650150
N861	N86	0.603310	0.187710	0.512300
C3441	C344	0.570570	0.177300	0.600300
C3451	C345	0.578780	0.281800	0.363500
Co441	Co44	0.636670	0.240370	0.455120
C3461	C346	0.629140	0.331000	0.616000
C3471	C347	0.601550	0.126700	0.530700
N871	N87	0.580720	0.117340	0.585700
H1621	H162	0.556300	0.186700	0.637000
O1721	O172	0.606770	0.279480	0.368360
C3481	C348	0.561990	0.256600	0.286000
N881	N88	0.669190	0.300790	0.411580
O1731	O173	0.643080	0.165060	0.374640
O1741	O174	0.665180	0.197960	0.549680
C3491	C349	0.658670	0.331880	0.665500
H1631	H163	0.612900	0.094000	0.509300
C3501	C350	0.572170	0.057650	0.621700
C3511	C351	0.531420	0.244100	0.285600
C3521	C352	0.576640	0.243000	0.216700
N891	N89	0.698840	0.282390	0.411800
C3531	C353	0.667330	0.359800	0.383900
C3541	C354	0.661630	0.120000	0.369900
C3551	C355	0.687700	0.183200	0.595200
C3561	C356	0.659320	0.327790	0.752300
C3571	C357	0.685360	0.331550	0.627800
C3581	C358	0.556850	0.058800	0.693000
H1641	H164	0.521500	0.253600	0.332300
C3591	C359	0.515870	0.217700	0.216000
C3601	C360	0.561340	0.218500	0.145800
H1651	H165	0.597100	0.250300	0.217500
Co451	Co45	0.713860	0.191820	0.447570
C3611	C361	0.713150	0.331340	0.383300
N901	N90	0.694300	0.381800	0.364900
H1661	H166	0.649800	0.383900	0.377800
O1751	O175	0.688580	0.121110	0.399490
C3621	C362	0.651600	0.058300	0.327800
O1761	O176	0.713460	0.177180	0.569710
C3631	C363	0.684700	0.171600	0.685900
H1671	H167	0.641500	0.328300	0.777800
C3641	C364	0.686110	0.323050	0.800100
C3651	C365	0.712230	0.325420	0.674900
H1681	H168	0.685100	0.335500	0.570400
H1691	H169	0.551400	0.097900	0.716300
C3661	C366	0.530830	0.206000	0.146100
C3671	C367	0.482710	0.205500	0.217600
C3681	C368	0.576910	0.209200	0.068800
O1771	O177	0.735850	0.195090	0.318360
O1781	O178	0.758050	0.176970	0.441630
H1701	H170	0.733500	0.331800	0.376600
C3691	C369	0.701950	0.442860	0.328600
C3701	C370	0.633360	0.058600	0.254500
C3711	C371	0.656840	0.170980	0.716500
C3721	C372	0.710180	0.165230	0.741000
C3731	C373	0.712400	0.321460	0.760000
C3741	C374	0.687200	0.315280	0.892200
C3751	C375	0.741090	0.317600	0.636700
H1711	H171	0.520400	0.189600	0.098500
O1791	O179	0.470040	0.226740	0.277400
O1801	O180	0.470110	0.174680	0.156870
O1811	O181	0.604630	0.218060	0.074100
O1821	O182	0.561230	0.193560	0.003600
C3761	C376	0.718100	0.441200	0.261200
H1721	H172	0.626400	0.097900	0.232100
H1731	H173	0.639800	0.175600	0.680100
C3771	C377	0.653960	0.163560	0.801100
C3781	C378	0.707410	0.155320	0.825400
H1741	H174	0.729000	0.167600	0.721400
H1751	H175	0.730500	0.317600	0.791700
O1831	O183	0.664190	0.301560	0.925650
O1841	O184	0.712540	0.323380	0.931980
Co461	Co46	0.426810	0.178620	0.111570
Co471	Co47	0.633090	0.258100	0.999560
H1761	H176	0.723300	0.401900	0.238100
C3791	C379	0.679360	0.154220	0.854600
C3801	C380	0.624110	0.167200	0.834800
C3811	C381	0.734590	0.149900	0.885900
Co481	Co48	0.708170	0.312310	0.051710
O1851	O185	0.399060	0.159690	0.211390
O1861	O186	0.377160	0.180160	0.087720
N911	N91	0.420410	0.280300	0.127700
O1871	O187	0.603160	0.052500	0.091700
H1771	H177	0.677500	0.147100	0.910800
O1881	O188	0.734730	0.110510	0.943700
O1891	O189	0.756190	0.186770	0.871870
N921	N92	0.601040	0.310920	0.924100
N931	N93	0.666340	0.199470	0.059160
O1901	O190	0.636640	0.336890	0.083710
N941	N94	0.695860	0.218970	0.069900
O1911	O191	0.682670	0.378770	0.092090
C3821	C382	0.601090	0.371700	0.902400
C3831	C383	0.665390	0.139800	0.083100
C3841	C384	0.655210	0.380200	0.104000
C3851	C385	0.711300	0.169800	0.100600
C3861	C386	0.567720	0.323800	0.822000
N951	N95	0.580360	0.382950	0.838700
H1781	H178	0.613700	0.403100	0.927400
N961	N96	0.693110	0.118510	0.110500
H1791	H179	0.648100	0.114800	0.081700
C3871	C387	0.645430	0.441280	0.143900
H1801	H180	0.731800	0.169900	0.113700
H1811	H181	0.552700	0.315800	0.780400
C3881	C388	0.573480	0.442500	0.797000
C3891	C389	0.701980	0.057040	0.147000
C3901	C390	0.627920	0.441300	0.210600
C3911	C391	0.559610	0.441300	0.718600
C3921	C392	0.720410	0.058000	0.219900
H1821	H182	0.621200	0.402300	0.231100
H1831	H183	0.555000	0.402100	0.692100
H1841	H184	0.726800	0.097200	0.243600
O1921	O192	0.601050	0.446670	0.360900
C3931	C393	0.079270	0.500000	0.585400
C3941	C394	0.049900	0.500000	0.728300
H1851	H185	0.088800	0.500000	0.536600
C3951	C395	0.162170	0.500000	0.360000
H1861	H186	0.040300	0.500000	0.777000
C3961	C396	0.125030	0.500000	0.212900
H1871	H187	0.176700	0.500000	0.404400
C3971	C397	0.109300	0.500000	0.126200
C3981	C398	0.192810	0.500000	0.109500
C3991	C399	0.229150	0.500000	0.257200
H1881	H188	0.180700	0.500000	0.060000
H1891	H189	0.240900	0.500000	0.307300
C4001	C400	0.579270	0.000000	0.585400
C4011	C401	0.549900	0.000000	0.728300
H1901	H190	0.588800	0.000000	0.536600
C4021	C402	0.662170	0.000000	0.360000
H1911	H191	0.540300	0.000000	0.777000
C4031	C403	0.625030	0.000000	0.212900
H1921	H192	0.676700	0.000000	0.404400
C4041	C404	0.609300	0.000000	0.126200
C4051	C405	0.692810	0.000000	0.109500
C4061	C406	0.729150	0.000000	0.257200
H1931	H193	0.680700	0.000000	0.060000
H1941	H194	0.740900	0.000000	0.307300
C4071	C407	0.920730	0.500000	0.414600
C4081	C408	0.950100	0.500000	0.271700
H1951	H195	0.911200	0.500000	0.463400
C4091	C409	0.837830	0.500000	0.640000
H1961	H196	0.959700	0.500000	0.223000
C4101	C410	0.874970	0.500000	0.787100
H1971	H197	0.823300	0.500000	0.595600
C4111	C411	0.890700	0.500000	0.873800
C4121	C412	0.807190	0.500000	0.890500
C4131	C413	0.770850	0.500000	0.742800
H1981	H198	0.819300	0.500000	0.940000
H1991	H199	0.759100	0.500000	0.692700
C4141	C414	0.420730	0.000000	0.414600
C4151	C415	0.450100	0.000000	0.271700
H2001	H200	0.411200	0.000000	0.463400
C4161	C416	0.337830	0.000000	0.640000
H2011	H201	0.459700	0.000000	0.223000
C4171	C417	0.374970	0.000000	0.787100
H2021	H202	0.323300	0.000000	0.595600
C4181	C418	0.390700	0.000000	0.873800
C4191	C419	0.307190	0.000000	0.890500
C4201	C420	0.270850	0.000000	0.742800
H2031	H203	0.319300	0.000000	0.940000
H2041	H204	0.259100	0.000000	0.692700
C4211	C421	0.193120	0.000000	0.363500
C4221	C422	0.226640	0.000000	0.227500
H2051	H205	0.181700	0.000000	0.408800
H2061	H206	0.238100	0.000000	0.182300
C4231	C423	0.155290	0.000000	0.114700
C4241	C424	0.079940	0.000000	0.837700
C4251	C425	0.120400	0.000000	0.247000
H2071	H207	0.168900	0.000000	0.074500
C4261	C426	0.052450	0.000000	0.679000
H2081	H208	0.088500	0.000000	0.892100
C4271	C427	0.105880	0.000000	0.329200
H2091	H209	0.042800	0.000000	0.625900
C4281	C428	0.693120	0.500000	0.363500
C4291	C429	0.726640	0.500000	0.227500
H2101	H210	0.681700	0.500000	0.408800
H2111	H211	0.738100	0.500000	0.182300
C4301	C430	0.655290	0.500000	0.114700
C4311	C431	0.579940	0.500000	0.837700
C4321	C432	0.620400	0.500000	0.247000
H2121	H212	0.668900	0.500000	0.074500
C4331	C433	0.552450	0.500000	0.679000
H2131	H213	0.588500	0.500000	0.892100
C4341	C434	0.605880	0.500000	0.329200
H2141	H214	0.542800	0.500000	0.625900
C4351	C435	0.806880	0.000000	0.636500
C4361	C436	0.773360	0.000000	0.772500
H2151	H215	0.818300	0.000000	0.591200
H2161	H216	0.761900	0.000000	0.817700
C4371	C437	0.844710	0.000000	0.885300
C4381	C438	0.920060	0.000000	0.162300
C4391	C439	0.879600	0.000000	0.753000
H2171	H217	0.831100	0.000000	0.925500
C4401	C440	0.947550	0.000000	0.321000
H2181	H218	0.911500	0.000000	0.107900
C4411	C441	0.894120	0.000000	0.670800
H2191	H219	0.957200	0.000000	0.374100
C4421	C442	0.306880	0.500000	0.636500
C4431	C443	0.273360	0.500000	0.772500
H2201	H220	0.318300	0.500000	0.591200
H2211	H221	0.261900	0.500000	0.817700
C4441	C444	0.344710	0.500000	0.885300
C4451	C445	0.420060	0.500000	0.162300
C4461	C446	0.379600	0.500000	0.753000
H2221	H222	0.331100	0.500000	0.925500
C4471	C447	0.447550	0.500000	0.321000
H2231	H223	0.411500	0.500000	0.107900
C4481	C448	0.394120	0.500000	0.670800
H2241	H224	0.457200	0.500000	0.374100
