data_MUXHUI02_clean_PM
_symmetry_space_group_name_H-M	'P1'
_cell_length_a	7.702200
_cell_length_b	9.915200
_cell_length_c	15.820200
_cell_angle_alpha	90.000000
_cell_angle_beta	110.305000
_cell_angle_gamma	90.000000
_symmetry_Int_Tables_number 1

loop_
_symmetry_equiv_pos_as_xyz
'x,y,z'

loop_
_atom_site_label
_atom_site_type_symbol
_atom_site_fract_x
_atom_site_fract_y
_atom_site_fract_z
Nd11	Nd1	0.784780	0.043910	0.639980
O11	O1	0.060400	0.948600	0.612640
O21	O2	0.223200	0.939100	0.520510
O31	O3	0.981000	0.237200	0.645380
O41	O4	0.032300	0.423200	0.728250
O51	O5	0.657300	0.837500	0.571520
O61	O6	0.458400	0.804500	0.432700
N11	N1	0.718200	0.445900	0.411200
C11	C1	0.963700	0.363200	0.655100
C21	C2	0.852900	0.441000	0.573000
C31	C3	0.817400	0.385700	0.488100
H11	H1	0.866200	0.301000	0.484600
C41	C4	0.644600	0.567300	0.417800
H21	H2	0.570900	0.609700	0.365200
C51	C5	0.782400	0.569400	0.578200
H31	H3	0.807900	0.612300	0.633500
C61	C6	0.673400	0.631500	0.498800
C71	C7	0.590500	0.768600	0.501600
C81	C8	0.082100	0.968200	0.538700
Nd21	Nd2	0.215220	0.543910	0.860020
O71	O7	0.939600	0.448600	0.887360
O81	O8	0.776800	0.439100	0.979490
O91	O9	0.019000	0.737200	0.854620
O101	O10	0.967700	0.923200	0.771750
O111	O11	0.342700	0.337500	0.928480
O121	O12	0.541600	0.304500	0.067300
N21	N2	0.281800	0.945900	0.088800
C91	C9	0.036300	0.863200	0.844900
C101	C10	0.147100	0.941000	0.927000
C111	C11	0.182600	0.885700	0.011900
H41	H4	0.133800	0.801000	0.015400
C121	C12	0.355400	0.067300	0.082200
H51	H5	0.429100	0.109700	0.134800
C131	C13	0.217600	0.069400	0.921800
H61	H6	0.192100	0.112300	0.866500
C141	C14	0.326600	0.131500	0.001200
C151	C15	0.409500	0.268600	0.998400
C161	C16	0.917900	0.468200	0.961300
Nd31	Nd3	0.215220	0.956090	0.360020
O131	O13	0.939600	0.051400	0.387360
O141	O14	0.776800	0.060900	0.479490
O151	O15	0.019000	0.762800	0.354620
O161	O16	0.967700	0.576800	0.271750
O171	O17	0.342700	0.162500	0.428480
O181	O18	0.541600	0.195500	0.567300
N31	N3	0.281800	0.554100	0.588800
C171	C17	0.036300	0.636800	0.344900
C181	C18	0.147100	0.559000	0.427000
C191	C19	0.182600	0.614300	0.511900
H71	H7	0.133800	0.699000	0.515400
C201	C20	0.355400	0.432700	0.582200
H81	H8	0.429100	0.390300	0.634800
C211	C21	0.217600	0.430600	0.421800
H91	H9	0.192100	0.387700	0.366500
C221	C22	0.326600	0.368500	0.501200
C231	C23	0.409500	0.231400	0.498400
C241	C24	0.917900	0.031800	0.461300
Nd41	Nd4	0.784780	0.456090	0.139980
O191	O19	0.060400	0.551400	0.112640
O201	O20	0.223200	0.560900	0.020510
O211	O21	0.981000	0.262800	0.145380
O221	O22	0.032300	0.076800	0.228250
O231	O23	0.657300	0.662500	0.071520
O241	O24	0.458400	0.695500	0.932700
N41	N4	0.718200	0.054100	0.911200
C251	C25	0.963700	0.136800	0.155100
C261	C26	0.852900	0.059000	0.073000
C271	C27	0.817400	0.114300	0.988100
H101	H10	0.866200	0.199000	0.984600
C281	C28	0.644600	0.932700	0.917800
H111	H11	0.570900	0.890300	0.865200
C291	C29	0.782400	0.930600	0.078200
H121	H12	0.807900	0.887700	0.133500
C301	C30	0.673400	0.868500	0.998800
C311	C31	0.590500	0.731400	0.001600
C321	C32	0.082100	0.531800	0.038700
