data_NABMUA01_clean_PM
_symmetry_space_group_name_H-M	'P1'
_cell_length_a	11.479900
_cell_length_b	11.479900
_cell_length_c	14.735000
_cell_angle_alpha	90.000000
_cell_angle_beta	90.000000
_cell_angle_gamma	120.000000
_symmetry_Int_Tables_number 1

loop_
_symmetry_equiv_pos_as_xyz
'x,y,z'

loop_
_atom_site_label
_atom_site_type_symbol
_atom_site_fract_x
_atom_site_fract_y
_atom_site_fract_z
Mg11	Mg1	0.806200	0.193810	0.750000
Mg21	Mg2	0.387610	0.193810	0.416670
Mg31	Mg3	0.806200	0.612400	0.083330
Mg41	Mg4	0.193810	0.806200	0.250000
Mg51	Mg5	0.612390	0.806190	0.916670
Mg61	Mg6	0.193810	0.387610	0.583330
H11	H1	0.795000	0.362500	0.985500
H21	H2	0.567500	0.205000	0.652170
H31	H3	0.637500	0.432500	0.318830
H41	H4	0.205000	0.637500	0.485500
H51	H5	0.432500	0.795000	0.152170
H61	H6	0.362500	0.567500	0.818830
H71	H7	0.432500	0.637500	0.681170
H81	H8	0.362500	0.795000	0.014500
H91	H9	0.205000	0.567500	0.347830
H101	H10	0.567500	0.362500	0.181170
H111	H11	0.637500	0.205000	0.514500
H121	H12	0.795000	0.432500	0.847830
H131	H13	0.506500	0.013000	0.083330
H141	H14	0.506500	0.493500	0.750000
H151	H15	0.987000	0.493500	0.416670
H161	H16	0.493500	0.987000	0.583330
H171	H17	0.493500	0.506500	0.250000
H181	H18	0.013000	0.506500	0.916670
C11	C1	0.681890	0.102400	0.945840
C21	C2	0.652810	0.176320	0.019200
C31	C3	0.722830	0.315190	0.024740
C41	C4	0.420510	0.318110	0.612510
C51	C5	0.523510	0.347190	0.685870
C61	C6	0.592360	0.277170	0.691410
C71	C7	0.897600	0.579490	0.279170
C81	C8	0.823680	0.476490	0.352530
C91	C9	0.684810	0.407640	0.358070
C101	C10	0.318110	0.897600	0.445840
C111	C11	0.347190	0.823680	0.519200
C121	C12	0.277170	0.684810	0.524740
C131	C13	0.579490	0.681890	0.112510
C141	C14	0.476490	0.652810	0.185870
C151	C15	0.407640	0.722830	0.191410
C161	C16	0.102400	0.420510	0.779170
C171	C17	0.176320	0.523510	0.852530
C181	C18	0.315190	0.592360	0.858070
C191	C19	0.579490	0.897600	0.720830
C201	C20	0.476490	0.823680	0.647470
C211	C21	0.407640	0.684810	0.641930
C221	C22	0.102400	0.681890	0.054160
C231	C23	0.176320	0.652810	0.980800
C241	C24	0.315190	0.722830	0.975260
C251	C25	0.318110	0.420510	0.387490
C261	C26	0.347190	0.523510	0.314130
C271	C27	0.277170	0.592360	0.308590
C281	C28	0.420510	0.102400	0.220830
C291	C29	0.523510	0.176320	0.147470
C301	C30	0.592360	0.315190	0.141930
C311	C31	0.897600	0.318110	0.554160
C321	C32	0.823680	0.347190	0.480800
C331	C33	0.684810	0.277170	0.475260
C341	C34	0.681890	0.579490	0.887490
C351	C35	0.652810	0.476490	0.814130
C361	C36	0.722830	0.407640	0.808590
C371	C37	0.553320	0.106640	0.083330
C381	C38	0.553320	0.446680	0.750000
C391	C39	0.893360	0.446680	0.416670
C401	C40	0.446680	0.893360	0.583330
C411	C41	0.446680	0.553320	0.250000
C421	C42	0.106640	0.553320	0.916670
N11	N1	0.692870	0.385740	0.083330
N21	N2	0.692870	0.307130	0.750000
N31	N3	0.614260	0.307130	0.416670
N41	N4	0.307130	0.614260	0.583330
N51	N5	0.307130	0.692870	0.250000
N61	N6	0.385740	0.692870	0.916670
O11	O1	0.772690	0.172050	0.890060
O21	O2	0.611100	0.977600	0.946880
O31	O3	0.399360	0.227310	0.556730
O41	O4	0.366500	0.388900	0.613550
O51	O5	0.827950	0.600640	0.223390
O61	O6	0.022400	0.633500	0.280210
O71	O7	0.227310	0.827950	0.390060
O81	O8	0.388900	0.022400	0.446880
O91	O9	0.600640	0.772690	0.056730
O101	O10	0.633500	0.611100	0.113550
O111	O11	0.172050	0.399360	0.723390
O121	O12	0.977600	0.366500	0.780210
O131	O13	0.600640	0.827950	0.776610
O141	O14	0.633500	0.022400	0.719790
O151	O15	0.172050	0.772690	0.109940
O161	O16	0.977600	0.611100	0.053120
O171	O17	0.227310	0.399360	0.443270
O181	O18	0.388900	0.366500	0.386450
O191	O19	0.399360	0.172050	0.276610
O201	O20	0.366500	0.977600	0.219790
O211	O21	0.827950	0.227310	0.609940
O221	O22	0.022400	0.388900	0.553120
O231	O23	0.772690	0.600640	0.943270
O241	O24	0.611100	0.633500	0.886450
