data_NABMUA_clean_PM
_symmetry_space_group_name_H-M	'P1'
_cell_length_a	11.485800
_cell_length_b	11.485800
_cell_length_c	14.756000
_cell_angle_alpha	90.000000
_cell_angle_beta	90.000000
_cell_angle_gamma	120.000000
_symmetry_Int_Tables_number 1

loop_
_symmetry_equiv_pos_as_xyz
'x,y,z'

loop_
_atom_site_label
_atom_site_type_symbol
_atom_site_fract_x
_atom_site_fract_y
_atom_site_fract_z
Mg11	Mg1	0.806530	0.613060	0.583330
Mg21	Mg2	0.806530	0.193470	0.250000
Mg31	Mg3	0.386940	0.193470	0.916670
Mg41	Mg4	0.193470	0.386940	0.083330
Mg51	Mg5	0.193470	0.806530	0.750000
Mg61	Mg6	0.613060	0.806530	0.416670
H11	H1	0.432500	0.795500	0.652000
H21	H2	0.363000	0.567500	0.318670
H31	H3	0.204500	0.637000	0.985330
H41	H4	0.567500	0.204500	0.152000
H51	H5	0.637000	0.432500	0.818670
H61	H6	0.795500	0.363000	0.485330
H71	H7	0.637000	0.204500	0.014670
H81	H8	0.795500	0.432500	0.348000
H91	H9	0.567500	0.363000	0.681330
H101	H10	0.363000	0.795500	0.514670
H111	H11	0.204500	0.567500	0.848000
H121	H12	0.432500	0.637000	0.181330
H131	H13	0.493150	0.506850	0.750000
H141	H14	0.013700	0.506850	0.416670
H151	H15	0.493150	0.986300	0.083330
H161	H16	0.506850	0.493150	0.250000
H171	H17	0.986300	0.493150	0.916670
H181	H18	0.506850	0.013700	0.583330
C11	C1	0.579200	0.682000	0.612400
C21	C2	0.476600	0.654100	0.686000
C31	C3	0.407800	0.723600	0.691300
C41	C4	0.102800	0.420800	0.279070
C51	C5	0.177500	0.523400	0.352670
C61	C6	0.315800	0.592200	0.357970
C71	C7	0.318000	0.897200	0.945730
C81	C8	0.345900	0.822500	0.019330
C91	C9	0.276400	0.684200	0.024630
C101	C10	0.420800	0.318000	0.112400
C111	C11	0.523400	0.345900	0.186000
C121	C12	0.592200	0.276400	0.191300
C131	C13	0.897200	0.579200	0.779070
C141	C14	0.822500	0.476600	0.852670
C151	C15	0.684200	0.407800	0.857970
C161	C16	0.682000	0.102800	0.445730
C171	C17	0.654100	0.177500	0.519330
C181	C18	0.723600	0.315800	0.524630
C191	C19	0.897200	0.318000	0.054270
C201	C20	0.822500	0.345900	0.980670
C211	C21	0.684200	0.276400	0.975370
C221	C22	0.682000	0.579200	0.387600
C231	C23	0.654100	0.476600	0.314000
C241	C24	0.723600	0.407800	0.308700
C251	C25	0.420800	0.102800	0.720930
C261	C26	0.523400	0.177500	0.647330
C271	C27	0.592200	0.315800	0.642030
C281	C28	0.102800	0.682000	0.554270
C291	C29	0.177500	0.654100	0.480670
C301	C30	0.315800	0.723600	0.475370
C311	C31	0.318000	0.420800	0.887600
C321	C32	0.345900	0.523400	0.814000
C331	C33	0.276400	0.592200	0.808700
C341	C34	0.579200	0.897200	0.220930
C351	C35	0.476600	0.822500	0.147330
C361	C36	0.407800	0.684200	0.142030
C371	C37	0.446800	0.553200	0.750000
C381	C38	0.106400	0.553200	0.416670
C391	C39	0.446800	0.893600	0.083330
C401	C40	0.553200	0.446800	0.250000
C411	C41	0.893600	0.446800	0.916670
C421	C42	0.553200	0.106400	0.583330
N11	N1	0.306750	0.693250	0.750000
N21	N2	0.386500	0.693250	0.416670
N31	N3	0.306750	0.613500	0.083330
N41	N4	0.693250	0.306750	0.250000
N51	N5	0.613500	0.306750	0.916670
N61	N6	0.693250	0.386500	0.583330
O11	O1	0.633600	0.611300	0.612900
O21	O2	0.601400	0.773600	0.556700
O31	O3	0.977700	0.366400	0.279570
O41	O4	0.172200	0.398600	0.223370
O51	O5	0.388700	0.022300	0.946230
O61	O6	0.226400	0.827800	0.890030
O71	O7	0.366400	0.388700	0.112900
O81	O8	0.398600	0.226400	0.056700
O91	O9	0.022300	0.633600	0.779570
O101	O10	0.827800	0.601400	0.723370
O111	O11	0.611300	0.977700	0.446230
O121	O12	0.773600	0.172200	0.390030
O131	O13	0.022300	0.388700	0.053770
O141	O14	0.827800	0.226400	0.109970
O151	O15	0.611300	0.633600	0.387100
O161	O16	0.773600	0.601400	0.443300
O171	O17	0.366400	0.977700	0.720430
O181	O18	0.398600	0.172200	0.776630
O191	O19	0.977700	0.611300	0.553770
O201	O20	0.172200	0.773600	0.609970
O211	O21	0.388700	0.366400	0.887100
O221	O22	0.226400	0.398600	0.943300
O231	O23	0.633600	0.022300	0.220430
O241	O24	0.601400	0.827800	0.276630
