data_NACYAU_clean_PM
_symmetry_space_group_name_H-M	'P1'
_cell_length_a	17.169400
_cell_length_b	32.190300
_cell_length_c	32.925000
_cell_angle_alpha	90.000000
_cell_angle_beta	90.000000
_cell_angle_gamma	90.000000
_symmetry_Int_Tables_number 1

loop_
_symmetry_equiv_pos_as_xyz
'x,y,z'

loop_
_atom_site_label
_atom_site_type_symbol
_atom_site_fract_x
_atom_site_fract_y
_atom_site_fract_z
C11	C1	0.644000	0.987100	0.260300
C21	C2	0.553100	0.988200	0.260100
C31	C3	0.514300	0.951000	0.268200
H11	H1	0.541500	0.926800	0.274000
C41	C4	0.391600	0.987600	0.261400
C51	C5	0.432000	0.025600	0.256800
H21	H2	0.404600	0.050400	0.254500
C61	C6	0.513200	0.025600	0.255600
H31	H3	0.540400	0.050300	0.251900
C71	C7	0.299900	0.988900	0.262400
C81	C8	0.255800	0.967600	0.234300
C91	C9	0.179800	0.972600	0.233500
H41	H4	0.150900	0.961200	0.212400
C101	C10	0.141200	0.995300	0.264700
C111	C11	0.187600	0.015600	0.293400
H51	H5	0.164100	0.032300	0.312900
C121	C12	0.265000	0.011400	0.293400
H61	H6	0.295000	0.023400	0.313700
C131	C13	0.054400	0.000600	0.263200
C141	C14	0.433100	0.951700	0.267400
N11	N1	0.395800	0.913300	0.276600
C151	C15	0.345500	0.896400	0.251000
C161	C16	0.301600	0.858100	0.261700
C171	C17	0.322600	0.835600	0.296000
H71	H7	0.365200	0.843800	0.311500
C181	C18	0.280000	0.800700	0.307100
H81	H8	0.294000	0.785600	0.330000
C191	C19	0.216400	0.788300	0.283900
H91	H9	0.187800	0.765000	0.291400
C201	C20	0.195400	0.810900	0.249700
H101	H10	0.152800	0.802700	0.234200
C211	C21	0.238000	0.845800	0.238500
H111	H11	0.224000	0.860900	0.215600
C221	C22	0.332500	0.915500	0.208300
C231	C23	0.370900	0.890200	0.173900
C241	C24	0.428100	0.860600	0.181300
H121	H12	0.443400	0.854900	0.207800
C251	C25	0.462600	0.839700	0.149000
H131	H13	0.500900	0.819900	0.154000
C261	C26	0.439800	0.848300	0.109400
H141	H14	0.462800	0.834300	0.087800
C271	C27	0.382500	0.877900	0.102000
H151	H15	0.367200	0.883600	0.075500
C281	C28	0.348000	0.898800	0.134300
H161	H16	0.309700	0.918600	0.129300
C291	C29	0.907000	0.106700	0.279900
C301	C30	0.935100	0.152700	0.281900
C311	C31	0.924100	0.178800	0.246600
H171	H17	0.897000	0.168800	0.224200
C321	C32	0.953300	0.217700	0.246500
H181	H18	0.945600	0.234200	0.223700
C331	C33	0.995600	0.234200	0.280200
C341	C34	0.004300	0.206900	0.314400
C351	C35	0.975100	0.168900	0.314200
H191	H19	0.982100	0.152400	0.337100
C361	C36	0.028900	0.275700	0.278500
C371	C37	0.083700	0.286200	0.248800
H201	H20	0.100800	0.265400	0.231200
C381	C38	0.113100	0.324800	0.244100
H211	H21	0.148700	0.330200	0.223400
C391	C39	0.090500	0.356100	0.269800
C401	C40	0.036700	0.347800	0.298600
H221	H22	0.020600	0.368900	0.316100
C411	C41	0.005300	0.308700	0.302500
C421	C42	0.027200	0.253100	0.368600
C431	C43	0.078400	0.271100	0.401100
C441	C44	0.066600	0.310400	0.417300
H231	H23	0.024900	0.326500	0.408500
C451	C45	0.117000	0.325700	0.446800
H241	H24	0.109100	0.352000	0.457600
C461	C46	0.179300	0.301600	0.460000
H251	H25	0.213100	0.311900	0.479700
C471	C47	0.191100	0.262300	0.443700
H261	H26	0.232800	0.246200	0.452500
C481	C48	0.140700	0.247000	0.414300
H271	H27	0.148600	0.220700	0.403400
C491	C49	0.955000	0.274200	0.360400
C501	C50	0.887200	0.267300	0.389500
C511	C51	0.822400	0.293100	0.390700
H281	H28	0.819100	0.315700	0.373200
C521	C52	0.762600	0.285200	0.418000
H291	H29	0.719200	0.302500	0.418800
C531	C53	0.767600	0.251400	0.444200
H301	H30	0.727500	0.246100	0.462500
C541	C54	0.832400	0.225500	0.443000
H311	H31	0.835700	0.202900	0.460500
C551	C55	0.892200	0.233500	0.415600
H321	H32	0.935600	0.216200	0.414800
C561	C56	0.123500	0.401500	0.265000
C571	C57	0.836900	0.974100	0.365000
C581	C58	0.815000	0.967600	0.411300
C591	C59	0.857600	0.986500	0.440200
H331	H33	0.901400	0.002100	0.433400
C601	C60	0.834900	0.982300	0.479900
H341	H34	0.865500	0.993900	0.500300
C611	C61	0.764800	0.960200	0.491000
C621	C62	0.750200	0.942200	0.420900
H351	H35	0.724800	0.927400	0.400600
C631	C63	0.742300	0.959900	0.532500
C641	C64	0.782500	0.942600	0.563400
H361	H36	0.828800	0.929200	0.556800
C651	C65	0.673500	0.976700	0.544000
C661	C66	0.761200	0.942900	0.603300
H371	H37	0.791800	0.929900	0.622900
C671	C67	0.648100	0.980000	0.584100
H381	H38	0.601700	0.993500	0.590200
C681	C68	0.692400	0.963300	0.614200
C691	C69	0.672700	0.967300	0.659700
C701	C70	0.595000	0.957000	0.483700
C711	C71	0.503000	0.018100	0.455300
H391	H39	0.503500	0.032000	0.480000
C721	C72	0.541000	0.980200	0.451200
C731	C73	0.539000	0.959400	0.414200
H401	H40	0.564600	0.934000	0.411500
C741	C74	0.500000	0.976600	0.381300
H411	H41	0.499400	0.962700	0.356500
C751	C75	0.462000	0.014500	0.385300
H421	H42	0.436200	0.026000	0.363300
C761	C76	0.464000	0.035300	0.422300
H431	H43	0.438300	0.060700	0.425100
C771	C77	0.726000	0.939700	0.459400
N21	N2	0.670000	0.909200	0.469400
C781	C78	0.596000	0.920600	0.475000
C791	C79	0.543000	0.888100	0.491200
C801	C80	0.551000	0.846000	0.481700
H441	H44	0.588600	0.837100	0.463300
C811	C81	0.502000	0.817800	0.500400
H451	H45	0.506200	0.789800	0.494000
C821	C82	0.445000	0.830300	0.529000
H461	H46	0.414300	0.810600	0.541700
C831	C83	0.436000	0.872300	0.538000
H471	H47	0.397300	0.881800	0.554900
C841	C84	0.489000	0.899900	0.518900
H481	H48	0.487300	0.927800	0.526100
N31	N3	0.291000	0.946500	0.200200
N41	N4	0.048300	0.221400	0.349200
N51	N5	0.945700	0.302500	0.330700
N61	N6	0.616000	0.986900	0.513400
O11	O1	0.847200	0.006000	0.262300
O21	O2	0.672300	0.021300	0.248100
O31	O3	0.020600	0.993800	0.228800
O41	O4	0.678300	0.956300	0.272900
O51	O5	0.020800	0.008800	0.295600
O61	O6	0.866100	0.096500	0.251600
O71	O7	0.928800	0.085200	0.310300
O81	O8	0.172000	0.406200	0.235800
O91	O9	0.094800	0.428200	0.287700
O101	O10	0.888600	0.001100	0.357000
O111	O11	0.794300	0.954400	0.339800
O121	O12	0.611200	0.990600	0.665900
O131	O13	0.713300	0.951100	0.684800
Zn11	Zn1	0.776740	0.052770	0.246520
Zn21	Zn2	0.786300	0.958680	0.281320
Zn31	Zn3	0.911590	0.026360	0.305910
Zn41	Zn4	0.911440	0.987530	0.218260
C851	C85	0.856000	0.012900	0.760300
C861	C86	0.946900	0.011800	0.760100
C871	C87	0.985700	0.049000	0.768200
H491	H49	0.958500	0.073200	0.774000
C881	C88	0.108400	0.012400	0.761400
C891	C89	0.068000	0.974400	0.756800
H501	H50	0.095400	0.949600	0.754500
C901	C90	0.986800	0.974400	0.755600
H511	H51	0.959600	0.949700	0.751900
C911	C91	0.200100	0.011100	0.762400
C921	C92	0.244200	0.032400	0.734300
C931	C93	0.320200	0.027400	0.733500
H521	H52	0.349100	0.038800	0.712400
C941	C94	0.358800	0.004700	0.764700
C951	C95	0.312400	0.984400	0.793400
H531	H53	0.335900	0.967700	0.812900
C961	C96	0.235000	0.988600	0.793400
H541	H54	0.205000	0.976600	0.813700
C971	C97	0.445600	0.999400	0.763200
C981	C98	0.066900	0.048300	0.767400
N71	N7	0.104200	0.086700	0.776600
C991	C99	0.154500	0.103600	0.751000
C1001	C100	0.198400	0.141900	0.761700
C1011	C101	0.177400	0.164400	0.796000
H551	H55	0.134800	0.156200	0.811500
C1021	C102	0.220000	0.199300	0.807100
H561	H56	0.206000	0.214400	0.830000
C1031	C103	0.283600	0.211700	0.783900
H571	H57	0.312200	0.235000	0.791400
C1041	C104	0.304600	0.189100	0.749700
H581	H58	0.347200	0.197300	0.734200
C1051	C105	0.262000	0.154200	0.738500
H591	H59	0.276000	0.139100	0.715600
C1061	C106	0.167500	0.084500	0.708300
C1071	C107	0.129100	0.109800	0.673900
C1081	C108	0.071900	0.139400	0.681300
H601	H60	0.056600	0.145100	0.707800
C1091	C109	0.037400	0.160300	0.649000
H611	H61	0.999100	0.180100	0.654000
C1101	C110	0.060200	0.151700	0.609400
H621	H62	0.037200	0.165700	0.587800
C1111	C111	0.117500	0.122100	0.602000
H631	H63	0.132800	0.116400	0.575500
C1121	C112	0.152000	0.101200	0.634300
H641	H64	0.190300	0.081400	0.629300
C1131	C113	0.593000	0.893300	0.779900
C1141	C114	0.564900	0.847300	0.781900
C1151	C115	0.575900	0.821200	0.746600
H651	H65	0.603000	0.831200	0.724200
C1161	C116	0.546700	0.782300	0.746500
H661	H66	0.554400	0.765800	0.723700
C1171	C117	0.504400	0.765800	0.780200
C1181	C118	0.495700	0.793100	0.814400
C1191	C119	0.524900	0.831100	0.814200
H671	H67	0.517900	0.847600	0.837100
C1201	C120	0.471100	0.724300	0.778500
C1211	C121	0.416300	0.713800	0.748800
H681	H68	0.399200	0.734600	0.731200
C1221	C122	0.386900	0.675200	0.744100
H691	H69	0.351300	0.669800	0.723400
C1231	C123	0.409500	0.643900	0.769800
C1241	C124	0.463300	0.652200	0.798600
H701	H70	0.479400	0.631100	0.816100
C1251	C125	0.494700	0.691300	0.802500
C1261	C126	0.472800	0.746900	0.868600
C1271	C127	0.421600	0.728900	0.901100
C1281	C128	0.433400	0.689600	0.917300
H711	H71	0.475100	0.673500	0.908500
C1291	C129	0.383000	0.674300	0.946800
H721	H72	0.390900	0.648000	0.957600
C1301	C130	0.320700	0.698400	0.960000
H731	H73	0.286900	0.688100	0.979700
C1311	C131	0.308900	0.737700	0.943700
H741	H74	0.267200	0.753800	0.952500
C1321	C132	0.359300	0.753000	0.914300
H751	H75	0.351400	0.779300	0.903400
C1331	C133	0.545000	0.725800	0.860400
C1341	C134	0.612800	0.732700	0.889500
C1351	C135	0.677600	0.706900	0.890700
H761	H76	0.680900	0.684300	0.873200
C1361	C136	0.737400	0.714800	0.918000
H771	H77	0.780800	0.697500	0.918800
C1371	C137	0.732400	0.748600	0.944200
H781	H78	0.772500	0.753900	0.962500
C1381	C138	0.667600	0.774500	0.943000
H791	H79	0.664300	0.797100	0.960500
C1391	C139	0.607800	0.766500	0.915600
H801	H80	0.564400	0.783800	0.914800
C1401	C140	0.376500	0.598500	0.765000
C1411	C141	0.663100	0.025900	0.865000
C1421	C142	0.685000	0.032400	0.911300
C1431	C143	0.642400	0.013500	0.940200
H811	H81	0.598600	0.997900	0.933400
C1441	C144	0.665100	0.017700	0.979900
H821	H82	0.634500	0.006100	0.000300
C1451	C145	0.735200	0.039800	0.991000
C1461	C146	0.749800	0.057800	0.920900
H831	H83	0.775200	0.072600	0.900600
C1471	C147	0.757700	0.040100	0.032500
C1481	C148	0.717500	0.057400	0.063400
H841	H84	0.671200	0.070800	0.056800
C1491	C149	0.826500	0.023300	0.044000
C1501	C150	0.738800	0.057100	0.103300
H851	H85	0.708200	0.070100	0.122900
C1511	C151	0.851900	0.020000	0.084100
H861	H86	0.898300	0.006500	0.090200
C1521	C152	0.807600	0.036700	0.114200
C1531	C153	0.827300	0.032700	0.159700
C1541	C154	0.905000	0.043000	0.983700
C1551	C155	0.997000	0.981900	0.955300
H871	H87	0.996500	0.968000	0.980000
C1561	C156	0.959000	0.019800	0.951200
C1571	C157	0.961000	0.040600	0.914200
H881	H88	0.935400	0.066000	0.911500
C1581	C158	0.000000	0.023400	0.881300
H891	H89	0.000600	0.037300	0.856500
C1591	C159	0.038000	0.985500	0.885300
H901	H90	0.063800	0.974000	0.863300
C1601	C160	0.036000	0.964700	0.922300
H911	H91	0.061700	0.939300	0.925100
C1611	C161	0.774000	0.060300	0.959400
N81	N8	0.830000	0.090800	0.969400
C1621	C162	0.904000	0.079400	0.975000
C1631	C163	0.957000	0.111900	0.991200
C1641	C164	0.949000	0.154000	0.981700
H921	H92	0.911400	0.162900	0.963300
C1651	C165	0.998000	0.182200	0.000400
H931	H93	0.993800	0.210200	0.994000
C1661	C166	0.055000	0.169700	0.029000
H941	H94	0.085700	0.189400	0.041700
C1671	C167	0.064000	0.127700	0.038000
H951	H95	0.102700	0.118200	0.054900
C1681	C168	0.011000	0.100100	0.018900
H961	H96	0.012700	0.072200	0.026100
N91	N9	0.209000	0.053500	0.700200
N101	N10	0.451700	0.778600	0.849200
N111	N11	0.554300	0.697500	0.830700
N121	N12	0.884000	0.013100	0.013400
O141	O14	0.652800	0.994000	0.762300
O151	O15	0.827700	0.978700	0.748100
O161	O16	0.479400	0.006200	0.728800
O171	O17	0.821700	0.043700	0.772900
O181	O18	0.479200	0.991200	0.795600
O191	O19	0.633900	0.903500	0.751600
O201	O20	0.571200	0.914800	0.810300
O211	O21	0.328000	0.593800	0.735800
O221	O22	0.405200	0.571800	0.787700
O231	O23	0.611400	0.998900	0.857000
O241	O24	0.705700	0.045600	0.839800
O251	O25	0.888800	0.009400	0.165900
O261	O26	0.786700	0.048900	0.184800
Zn51	Zn5	0.723260	0.947230	0.746520
Zn61	Zn6	0.713700	0.041320	0.781320
Zn71	Zn7	0.588410	0.973640	0.805910
Zn81	Zn8	0.588560	0.012470	0.718260
C1691	C169	0.356000	0.487100	0.239700
C1701	C170	0.446900	0.488200	0.239900
C1711	C171	0.485700	0.451000	0.231800
H971	H97	0.458500	0.426800	0.226000
C1721	C172	0.608400	0.487600	0.238600
C1731	C173	0.568000	0.525600	0.243200
H981	H98	0.595400	0.550400	0.245500
C1741	C174	0.486800	0.525600	0.244400
H991	H99	0.459600	0.550300	0.248100
C1751	C175	0.700100	0.488900	0.237600
C1761	C176	0.744200	0.467600	0.265700
C1771	C177	0.820200	0.472600	0.266500
H1001	H100	0.849100	0.461200	0.287600
C1781	C178	0.858800	0.495300	0.235300
C1791	C179	0.812400	0.515600	0.206600
H1011	H101	0.835900	0.532300	0.187100
C1801	C180	0.735000	0.511400	0.206600
H1021	H102	0.705000	0.523400	0.186300
C1811	C181	0.945600	0.500600	0.236800
C1821	C182	0.566900	0.451700	0.232600
N131	N13	0.604200	0.413300	0.223400
C1831	C183	0.654500	0.396400	0.249000
C1841	C184	0.698400	0.358100	0.238300
C1851	C185	0.677400	0.335600	0.204000
H1031	H103	0.634800	0.343800	0.188500
C1861	C186	0.720000	0.300700	0.192900
H1041	H104	0.706000	0.285600	0.170000
C1871	C187	0.783600	0.288300	0.216100
H1051	H105	0.812200	0.265000	0.208600
C1881	C188	0.804600	0.310900	0.250300
H1061	H106	0.847200	0.302700	0.265800
C1891	C189	0.762000	0.345800	0.261500
H1071	H107	0.776000	0.360900	0.284400
C1901	C190	0.667500	0.415500	0.291700
C1911	C191	0.629100	0.390200	0.326100
C1921	C192	0.571900	0.360600	0.318700
H1081	H108	0.556600	0.354900	0.292200
C1931	C193	0.537400	0.339700	0.351000
H1091	H109	0.499100	0.319900	0.346000
C1941	C194	0.560200	0.348300	0.390600
H1101	H110	0.537200	0.334300	0.412200
C1951	C195	0.617500	0.377900	0.398000
H1111	H111	0.632800	0.383600	0.424500
C1961	C196	0.652000	0.398800	0.365700
H1121	H112	0.690300	0.418600	0.370700
C1971	C197	0.093000	0.606700	0.220100
C1981	C198	0.064900	0.652700	0.218100
C1991	C199	0.075900	0.678800	0.253400
H1131	H113	0.103000	0.668800	0.275800
C2001	C200	0.046700	0.717700	0.253500
H1141	H114	0.054400	0.734200	0.276300
C2011	C201	0.004400	0.734200	0.219800
C2021	C202	0.995700	0.706900	0.185600
C2031	C203	0.024900	0.668900	0.185800
H1151	H115	0.017900	0.652400	0.162900
C2041	C204	0.971100	0.775700	0.221500
C2051	C205	0.916300	0.786200	0.251200
H1161	H116	0.899200	0.765400	0.268800
C2061	C206	0.886900	0.824800	0.255900
H1171	H117	0.851300	0.830200	0.276600
C2071	C207	0.909500	0.856100	0.230200
C2081	C208	0.963300	0.847800	0.201400
H1181	H118	0.979400	0.868900	0.183900
C2091	C209	0.994700	0.808700	0.197500
C2101	C210	0.972800	0.753100	0.131400
C2111	C211	0.921600	0.771100	0.098900
C2121	C212	0.933400	0.810400	0.082700
H1191	H119	0.975100	0.826500	0.091500
C2131	C213	0.883000	0.825700	0.053200
H1201	H120	0.890900	0.852000	0.042400
C2141	C214	0.820700	0.801600	0.040000
H1211	H121	0.786900	0.811900	0.020300
C2151	C215	0.808900	0.762300	0.056300
H1221	H122	0.767200	0.746200	0.047500
C2161	C216	0.859300	0.747000	0.085700
H1231	H123	0.851400	0.720700	0.096600
C2171	C217	0.045000	0.774200	0.139600
C2181	C218	0.112800	0.767300	0.110500
C2191	C219	0.177600	0.793100	0.109300
H1241	H124	0.180900	0.815700	0.126800
C2201	C220	0.237400	0.785200	0.082000
H1251	H125	0.280800	0.802500	0.081200
C2211	C221	0.232400	0.751400	0.055800
H1261	H126	0.272500	0.746100	0.037500
C2221	C222	0.167600	0.725500	0.057000
H1271	H127	0.164300	0.702900	0.039500
C2231	C223	0.107800	0.733500	0.084400
H1281	H128	0.064400	0.716200	0.085200
C2241	C224	0.876500	0.901500	0.235000
C2251	C225	0.163100	0.474100	0.135000
C2261	C226	0.185000	0.467600	0.088700
C2271	C227	0.142400	0.486500	0.059800
H1291	H129	0.098600	0.502100	0.066600
C2281	C228	0.165100	0.482300	0.020100
H1301	H130	0.134500	0.493900	0.999700
C2291	C229	0.235200	0.460200	0.009000
C2301	C230	0.249800	0.442200	0.079100
H1311	H131	0.275200	0.427400	0.099400
C2311	C231	0.257700	0.459900	0.967500
C2321	C232	0.217500	0.442600	0.936600
H1321	H132	0.171200	0.429200	0.943200
C2331	C233	0.326500	0.476700	0.956000
C2341	C234	0.238800	0.442900	0.896700
H1331	H133	0.208200	0.429900	0.877100
C2351	C235	0.351900	0.480000	0.915900
H1341	H134	0.398300	0.493500	0.909800
C2361	C236	0.307600	0.463300	0.885800
C2371	C237	0.327300	0.467300	0.840300
C2381	C238	0.405000	0.457000	0.016300
C2391	C239	0.497000	0.518100	0.044700
H1351	H135	0.496500	0.532000	0.020000
C2401	C240	0.459000	0.480200	0.048800
C2411	C241	0.461000	0.459400	0.085800
H1361	H136	0.435400	0.434000	0.088500
C2421	C242	0.500000	0.476600	0.118700
H1371	H137	0.500600	0.462700	0.143500
C2431	C243	0.538000	0.514500	0.114700
H1381	H138	0.563800	0.526000	0.136700
C2441	C244	0.536000	0.535300	0.077700
H1391	H139	0.561700	0.560700	0.074900
C2451	C245	0.274000	0.439700	0.040600
N141	N14	0.330000	0.409200	0.030600
C2461	C246	0.404000	0.420600	0.025000
C2471	C247	0.457000	0.388100	0.008800
C2481	C248	0.449000	0.346000	0.018300
H1401	H140	0.411400	0.337100	0.036700
C2491	C249	0.498000	0.317800	0.999600
H1411	H141	0.493800	0.289800	0.006000
C2501	C250	0.555000	0.330300	0.971000
H1421	H142	0.585700	0.310600	0.958300
C2511	C251	0.564000	0.372300	0.962000
H1431	H143	0.602700	0.381800	0.945100
C2521	C252	0.511000	0.399900	0.981100
H1441	H144	0.512700	0.427800	0.973900
N151	N15	0.709000	0.446500	0.299800
N161	N16	0.951700	0.721400	0.150800
N171	N17	0.054300	0.802500	0.169300
N181	N18	0.384000	0.486900	0.986600
O271	O27	0.152800	0.506000	0.237700
O281	O28	0.327700	0.521300	0.251900
O291	O29	0.979400	0.493800	0.271200
O301	O30	0.321700	0.456300	0.227100
O311	O31	0.979200	0.508800	0.204400
O321	O32	0.133900	0.596500	0.248400
O331	O33	0.071200	0.585200	0.189700
O341	O34	0.828000	0.906200	0.264200
O351	O35	0.905200	0.928200	0.212300
O361	O36	0.111400	0.501100	0.143000
O371	O37	0.205700	0.454400	0.160200
O381	O38	0.388800	0.490600	0.834100
O391	O39	0.286700	0.451100	0.815200
Zn91	Zn9	0.223260	0.552770	0.253480
Zn101	Zn10	0.213700	0.458680	0.218680
Zn111	Zn11	0.088410	0.526360	0.194090
Zn121	Zn12	0.088560	0.487530	0.281740
C2531	C253	0.144000	0.512900	0.739700
C2541	C254	0.053100	0.511800	0.739900
C2551	C255	0.014300	0.549000	0.731800
H1451	H145	0.041500	0.573200	0.726000
C2561	C256	0.891600	0.512400	0.738600
C2571	C257	0.932000	0.474400	0.743200
H1461	H146	0.904600	0.449600	0.745500
C2581	C258	0.013200	0.474400	0.744400
H1471	H147	0.040400	0.449700	0.748100
C2591	C259	0.799900	0.511100	0.737600
C2601	C260	0.755800	0.532400	0.765700
C2611	C261	0.679800	0.527400	0.766500
H1481	H148	0.650900	0.538800	0.787600
C2621	C262	0.641200	0.504700	0.735300
C2631	C263	0.687600	0.484400	0.706600
H1491	H149	0.664100	0.467700	0.687100
C2641	C264	0.765000	0.488600	0.706600
H1501	H150	0.795000	0.476600	0.686300
C2651	C265	0.554400	0.499400	0.736800
C2661	C266	0.933100	0.548300	0.732600
N191	N19	0.895800	0.586700	0.723400
C2671	C267	0.845500	0.603600	0.749000
C2681	C268	0.801600	0.641900	0.738300
C2691	C269	0.822600	0.664400	0.704000
H1511	H151	0.865200	0.656200	0.688500
C2701	C270	0.780000	0.699300	0.692900
H1521	H152	0.794000	0.714400	0.670000
C2711	C271	0.716400	0.711700	0.716100
H1531	H153	0.687800	0.735000	0.708600
C2721	C272	0.695400	0.689100	0.750300
H1541	H154	0.652800	0.697300	0.765800
C2731	C273	0.738000	0.654200	0.761500
H1551	H155	0.724000	0.639100	0.784400
C2741	C274	0.832500	0.584500	0.791700
C2751	C275	0.870900	0.609800	0.826100
C2761	C276	0.928100	0.639400	0.818700
H1561	H156	0.943400	0.645100	0.792200
C2771	C277	0.962600	0.660300	0.851000
H1571	H157	0.000900	0.680100	0.846000
C2781	C278	0.939800	0.651700	0.890600
H1581	H158	0.962800	0.665700	0.912200
C2791	C279	0.882500	0.622100	0.898000
H1591	H159	0.867200	0.616400	0.924500
C2801	C280	0.848000	0.601200	0.865700
H1601	H160	0.809700	0.581400	0.870700
C2811	C281	0.407000	0.393300	0.720100
C2821	C282	0.435100	0.347300	0.718100
C2831	C283	0.424100	0.321200	0.753400
H1611	H161	0.397000	0.331200	0.775800
C2841	C284	0.453300	0.282300	0.753500
H1621	H162	0.445600	0.265800	0.776300
C2851	C285	0.495600	0.265800	0.719800
C2861	C286	0.504300	0.293100	0.685600
C2871	C287	0.475100	0.331100	0.685800
H1631	H163	0.482100	0.347600	0.662900
C2881	C288	0.528900	0.224300	0.721500
C2891	C289	0.583700	0.213800	0.751200
H1641	H164	0.600800	0.234600	0.768800
C2901	C290	0.613100	0.175200	0.755900
H1651	H165	0.648700	0.169800	0.776600
C2911	C291	0.590500	0.143900	0.730200
C2921	C292	0.536700	0.152200	0.701400
H1661	H166	0.520600	0.131100	0.683900
C2931	C293	0.505300	0.191300	0.697500
C2941	C294	0.527200	0.246900	0.631400
C2951	C295	0.578400	0.228900	0.598900
C2961	C296	0.566600	0.189600	0.582700
H1671	H167	0.524900	0.173500	0.591500
C2971	C297	0.617000	0.174300	0.553200
H1681	H168	0.609100	0.148000	0.542400
C2981	C298	0.679300	0.198400	0.540000
H1691	H169	0.713100	0.188100	0.520300
C2991	C299	0.691100	0.237700	0.556300
H1701	H170	0.732800	0.253800	0.547500
C3001	C300	0.640700	0.253000	0.585700
H1711	H171	0.648600	0.279300	0.596600
C3011	C301	0.455000	0.225800	0.639600
C3021	C302	0.387200	0.232700	0.610500
C3031	C303	0.322400	0.206900	0.609300
H1721	H172	0.319100	0.184300	0.626800
C3041	C304	0.262600	0.214800	0.582000
H1731	H173	0.219200	0.197500	0.581200
C3051	C305	0.267600	0.248600	0.555800
H1741	H174	0.227500	0.253900	0.537500
C3061	C306	0.332400	0.274500	0.557000
H1751	H175	0.335700	0.297100	0.539500
C3071	C307	0.392200	0.266500	0.584400
H1761	H176	0.435600	0.283800	0.585200
C3081	C308	0.623500	0.098500	0.735000
C3091	C309	0.336900	0.525900	0.635000
C3101	C310	0.315000	0.532400	0.588700
C3111	C311	0.357600	0.513500	0.559800
H1771	H177	0.401400	0.497900	0.566600
C3121	C312	0.334900	0.517700	0.520100
H1781	H178	0.365500	0.506100	0.499700
C3131	C313	0.264800	0.539800	0.509000
C3141	C314	0.250200	0.557800	0.579100
H1791	H179	0.224800	0.572600	0.599400
C3151	C315	0.242300	0.540100	0.467500
C3161	C316	0.282500	0.557400	0.436600
H1801	H180	0.328800	0.570800	0.443200
C3171	C317	0.173500	0.523300	0.456000
C3181	C318	0.261200	0.557100	0.396700
H1811	H181	0.291800	0.570100	0.377100
C3191	C319	0.148100	0.520000	0.415900
H1821	H182	0.101700	0.506500	0.409800
C3201	C320	0.192400	0.536700	0.385800
C3211	C321	0.172700	0.532700	0.340300
C3221	C322	0.095000	0.543000	0.516300
C3231	C323	0.003000	0.481900	0.544700
H1831	H183	0.003500	0.468000	0.520000
C3241	C324	0.041000	0.519800	0.548800
C3251	C325	0.039000	0.540600	0.585800
H1841	H184	0.064600	0.566000	0.588500
C3261	C326	0.000000	0.523400	0.618700
H1851	H185	0.999400	0.537300	0.643500
C3271	C327	0.962000	0.485500	0.614700
H1861	H186	0.936200	0.474000	0.636700
C3281	C328	0.964000	0.464700	0.577700
H1871	H187	0.938300	0.439300	0.574900
C3291	C329	0.226000	0.560300	0.540600
N201	N20	0.170000	0.590800	0.530600
C3301	C330	0.096000	0.579400	0.525000
C3311	C331	0.043000	0.611900	0.508800
C3321	C332	0.051000	0.654000	0.518300
H1881	H188	0.088600	0.662900	0.536700
C3331	C333	0.002000	0.682200	0.499600
H1891	H189	0.006200	0.710200	0.506000
C3341	C334	0.945000	0.669700	0.471000
H1901	H190	0.914300	0.689400	0.458300
C3351	C335	0.936000	0.627700	0.462000
H1911	H191	0.897300	0.618200	0.445100
C3361	C336	0.989000	0.600100	0.481100
H1921	H192	0.987300	0.572200	0.473900
N211	N21	0.791000	0.553500	0.799800
N221	N22	0.548300	0.278600	0.650800
N231	N23	0.445700	0.197500	0.669300
N241	N24	0.116000	0.513100	0.486600
O401	O40	0.347200	0.494000	0.737700
O411	O41	0.172300	0.478700	0.751900
O421	O42	0.520600	0.506200	0.771200
O431	O43	0.178300	0.543700	0.727100
O441	O44	0.520800	0.491200	0.704400
O451	O45	0.366100	0.403500	0.748400
O461	O46	0.428800	0.414800	0.689700
O471	O47	0.672000	0.093800	0.764200
O481	O48	0.594800	0.071800	0.712300
O491	O49	0.388600	0.498900	0.643000
O501	O50	0.294300	0.545600	0.660200
O511	O51	0.111200	0.509400	0.334100
O521	O52	0.213300	0.548900	0.315200
Zn131	Zn13	0.276740	0.447230	0.753480
Zn141	Zn14	0.286300	0.541320	0.718680
Zn151	Zn15	0.411590	0.473640	0.694090
Zn161	Zn16	0.411440	0.512470	0.781740
