data_NADKEK_clean_PM
_symmetry_space_group_name_H-M	'P1'
_cell_length_a	16.189500
_cell_length_b	16.189500
_cell_length_c	10.003600
_cell_angle_alpha	90.000000
_cell_angle_beta	90.000000
_cell_angle_gamma	120.000000
_symmetry_Int_Tables_number 1

loop_
_symmetry_equiv_pos_as_xyz
'x,y,z'

loop_
_atom_site_label
_atom_site_type_symbol
_atom_site_fract_x
_atom_site_fract_y
_atom_site_fract_z
P11	P1	0.604200	0.451100	0.063200
P21	P2	0.203600	0.471500	0.450500
O11	O1	0.658400	0.441400	0.174000
O21	O2	0.635900	0.427400	0.937300
O31	O3	0.621900	0.551800	0.059100
O41	O4	0.215800	0.540500	0.560000
O51	O5	0.250700	0.524500	0.329000
O61	O6	0.101300	0.401800	0.427800
N11	N1	0.415900	0.383900	0.177100
N21	N2	0.322100	0.383500	0.417400
C11	C1	0.475000	0.360000	0.089000
C21	C2	0.330600	0.294600	0.225800
C31	C3	0.269300	0.316900	0.307400
C41	C4	0.259300	0.399900	0.510100
C51	C5	0.411800	0.468100	0.379600
C61	C6	0.469000	0.455300	0.278700
C71	C7	0.189100	0.230100	0.366500
C81	C8	0.278100	0.240900	0.103600
P31	P3	0.548900	0.153100	0.063200
P41	P4	0.528500	0.732100	0.450500
O71	O7	0.558600	0.217000	0.174000
O81	O8	0.572600	0.208500	0.937300
O91	O9	0.448200	0.070100	0.059100
O101	O10	0.459500	0.675300	0.560000
O111	O11	0.475500	0.726200	0.329000
O121	O12	0.598200	0.699500	0.427800
N31	N3	0.616100	0.032000	0.177100
N41	N4	0.616500	0.938600	0.417400
C91	C9	0.640000	0.115000	0.089000
C101	C10	0.705400	0.036000	0.225800
C111	C11	0.683100	0.952400	0.307400
C121	C12	0.600100	0.859400	0.510100
C131	C13	0.531900	0.943700	0.379600
C141	C14	0.544700	0.013700	0.278700
C151	C15	0.769900	0.959000	0.366500
C161	C16	0.759100	0.037200	0.103600
P51	P5	0.846900	0.395800	0.063200
P61	P6	0.267900	0.796400	0.450500
O131	O13	0.783000	0.341600	0.174000
O141	O14	0.791500	0.364100	0.937300
O151	O15	0.929900	0.378100	0.059100
O161	O16	0.324700	0.784200	0.560000
O171	O17	0.273800	0.749300	0.329000
O181	O18	0.300500	0.898700	0.427800
N51	N5	0.968000	0.584100	0.177100
N61	N6	0.061400	0.677900	0.417400
C171	C17	0.885000	0.525000	0.089000
C181	C18	0.964000	0.669400	0.225800
C191	C19	0.047600	0.730700	0.307400
C201	C20	0.140600	0.740700	0.510100
C211	C21	0.056300	0.588200	0.379600
C221	C22	0.986300	0.531000	0.278700
C231	C23	0.041000	0.810900	0.366500
C241	C24	0.962800	0.721900	0.103600
P71	P7	0.395800	0.548900	0.936800
P81	P8	0.796400	0.528500	0.549500
O191	O19	0.341600	0.558600	0.826000
O201	O20	0.364100	0.572600	0.062700
O211	O21	0.378100	0.448200	0.940900
O221	O22	0.784200	0.459500	0.440000
O231	O23	0.749300	0.475500	0.671000
O241	O24	0.898700	0.598200	0.572200
N71	N7	0.584100	0.616100	0.822900
N81	N8	0.677900	0.616500	0.582600
C251	C25	0.525000	0.640000	0.911000
C261	C26	0.669400	0.705400	0.774200
C271	C27	0.730700	0.683100	0.692600
C281	C28	0.740700	0.600100	0.489900
C291	C29	0.588200	0.531900	0.620400
C301	C30	0.531000	0.544700	0.721300
C311	C31	0.810900	0.769900	0.633500
C321	C32	0.721900	0.759100	0.896400
P91	P9	0.451100	0.846900	0.936800
P101	P10	0.471500	0.267900	0.549500
O251	O25	0.441400	0.783000	0.826000
O261	O26	0.427400	0.791500	0.062700
O271	O27	0.551800	0.929900	0.940900
O281	O28	0.540500	0.324700	0.440000
O291	O29	0.524500	0.273800	0.671000
O301	O30	0.401800	0.300500	0.572200
N91	N9	0.383900	0.968000	0.822900
N101	N10	0.383500	0.061400	0.582600
C331	C33	0.360000	0.885000	0.911000
C341	C34	0.294600	0.964000	0.774200
C351	C35	0.316900	0.047600	0.692600
C361	C36	0.399900	0.140600	0.489900
C371	C37	0.468100	0.056300	0.620400
C381	C38	0.455300	0.986300	0.721300
C391	C39	0.230100	0.041000	0.633500
C401	C40	0.240900	0.962800	0.896400
P111	P11	0.153100	0.604200	0.936800
P121	P12	0.732100	0.203600	0.549500
O311	O31	0.217000	0.658400	0.826000
O321	O32	0.208500	0.635900	0.062700
O331	O33	0.070100	0.621900	0.940900
O341	O34	0.675300	0.215800	0.440000
O351	O35	0.726200	0.250700	0.671000
O361	O36	0.699500	0.101300	0.572200
N111	N11	0.032000	0.415900	0.822900
N121	N12	0.938600	0.322100	0.582600
C411	C41	0.115000	0.475000	0.911000
C421	C42	0.036000	0.330600	0.774200
C431	C43	0.952400	0.269300	0.692600
C441	C44	0.859400	0.259300	0.489900
C451	C45	0.943700	0.411800	0.620400
C461	C46	0.013700	0.469000	0.721300
C471	C47	0.959000	0.189100	0.633500
C481	C48	0.037200	0.278100	0.896400
Y11	Y1	0.666670	0.333330	0.308100
Y21	Y2	0.666670	0.333330	0.794700
Y31	Y3	0.333330	0.666670	0.691900
Y41	Y4	0.333330	0.666670	0.205300
