data_NADZEZ_clean_PM
_symmetry_space_group_name_H-M	'P1'
_cell_length_a	13.024500
_cell_length_b	13.024500
_cell_length_c	16.790100
_cell_angle_alpha	111.502000
_cell_angle_beta	111.502000
_cell_angle_gamma	93.151400
_symmetry_Int_Tables_number 1

loop_
_symmetry_equiv_pos_as_xyz
'x,y,z'

loop_
_atom_site_label
_atom_site_type_symbol
_atom_site_fract_x
_atom_site_fract_y
_atom_site_fract_z
Y11	Y1	0.625530	0.633410	0.771700
Y21	Y2	0.146170	0.138290	0.771700
Y31	Y3	0.883410	0.375530	0.271700
Y41	Y4	0.388290	0.896170	0.271700
Y51	Y5	0.991960	0.991960	0.983920
Y61	Y6	0.241960	0.741960	0.483920
Y71	Y7	0.753830	0.253830	0.507660
Y81	Y8	0.503830	0.503830	0.007660
H11	H1	0.896700	0.732300	0.763400
H21	H2	0.069800	0.813000	0.631600
H31	H3	0.842000	0.520000	0.499000
H41	H4	0.468100	0.163700	0.282000
H51	H5	0.561100	0.320700	0.144600
H61	H6	0.256100	0.111700	0.021000
H71	H7	0.866700	0.031100	0.763400
H81	H8	0.561800	0.818600	0.631600
H91	H9	0.657000	0.979000	0.499000
H101	H10	0.813900	0.118300	0.282000
H111	H11	0.583500	0.823900	0.144600
H121	H12	0.764900	0.909300	0.021000
H131	H13	0.982300	0.646700	0.263400
H141	H14	0.063000	0.819800	0.131600
H151	H15	0.770000	0.592000	0.999000
H161	H16	0.413700	0.218100	0.782000
H171	H17	0.570700	0.311100	0.644600
H181	H18	0.361700	0.006100	0.521000
H191	H19	0.281100	0.616700	0.263400
H201	H20	0.068600	0.311800	0.131600
H211	H21	0.229000	0.407000	0.999000
H221	H22	0.368300	0.563900	0.782000
H231	H23	0.073900	0.333500	0.644600
H241	H24	0.159300	0.514900	0.521000
C11	C1	0.853300	0.612100	0.631200
C21	C2	0.911300	0.714900	0.710200
C31	C3	0.991400	0.791600	0.709600
C41	C4	0.015300	0.763500	0.631400
C51	C5	0.959700	0.663500	0.553600
C61	C6	0.879100	0.587500	0.552200
C71	C7	0.771200	0.534000	0.632800
C81	C8	0.048500	0.902300	0.793000
C91	C9	0.985300	0.633900	0.467200
C101	C10	0.349500	0.129300	0.153400
C111	C11	0.453000	0.177800	0.228800
C121	C12	0.536300	0.248500	0.226400
C131	C13	0.508600	0.270800	0.146000
C141	C14	0.407300	0.221500	0.070200
C151	C15	0.325200	0.147400	0.072800
C161	C16	0.260600	0.051800	0.156800
C171	C17	0.651700	0.295300	0.305400
C181	C18	0.381000	0.246800	0.986200
C191	C19	0.777900	0.019100	0.631200
C201	C20	0.798900	0.995300	0.710200
C211	C21	0.718200	0.918000	0.709600
C221	C22	0.616100	0.867900	0.631400
C231	C23	0.593900	0.890100	0.553600
C241	C24	0.673100	0.964700	0.552200
C251	C25	0.861600	0.098800	0.632800
C261	C26	0.744500	0.890700	0.793000
C271	C27	0.481900	0.833300	0.467200
C281	C28	0.803900	0.024100	0.153400
C291	C29	0.775800	0.051000	0.228800
C301	C30	0.690100	0.977900	0.226400
C311	C31	0.637400	0.875200	0.146000
C321	C32	0.662900	0.848700	0.070200
C331	C33	0.747600	0.925400	0.072800
C341	C34	0.896200	0.105000	0.156800
C351	C35	0.653700	0.010100	0.305400
C361	C36	0.605200	0.739400	0.986200
C371	C37	0.862100	0.603300	0.131200
C381	C38	0.964900	0.661300	0.210200
C391	C39	0.041600	0.741400	0.209600
C401	C40	0.013500	0.765300	0.131400
C411	C41	0.913500	0.709700	0.053600
C421	C42	0.837500	0.629100	0.052200
C431	C43	0.784000	0.521200	0.132800
C441	C44	0.152300	0.798500	0.293000
C451	C45	0.883900	0.735300	0.967200
C461	C46	0.379300	0.099500	0.653400
C471	C47	0.427800	0.203000	0.728800
C481	C48	0.498500	0.286300	0.726400
C491	C49	0.520800	0.258600	0.646000
C501	C50	0.471500	0.157300	0.570200
C511	C51	0.397400	0.075200	0.572800
C521	C52	0.301800	0.010600	0.656800
C531	C53	0.545300	0.401700	0.805400
C541	C54	0.496800	0.131000	0.486200
C551	C55	0.269100	0.527900	0.131200
C561	C56	0.245300	0.548900	0.210200
C571	C57	0.168000	0.468200	0.209600
C581	C58	0.117900	0.366100	0.131400
C591	C59	0.140100	0.343900	0.053600
C601	C60	0.214700	0.423100	0.052200
C611	C61	0.348800	0.611600	0.132800
C621	C62	0.140700	0.494500	0.293000
C631	C63	0.083300	0.231900	0.967200
C641	C64	0.274100	0.553900	0.653400
C651	C65	0.301000	0.525800	0.728800
C661	C66	0.227900	0.440100	0.726400
C671	C67	0.125200	0.387400	0.646000
C681	C68	0.098700	0.412900	0.570200
C691	C69	0.175400	0.497600	0.572800
C701	C70	0.355000	0.646200	0.656800
C711	C71	0.260100	0.403700	0.805400
C721	C72	0.989400	0.355200	0.486200
O11	O1	0.728500	0.434900	0.565400
O21	O2	0.738600	0.569000	0.699000
O31	O3	0.047900	0.914300	0.868800
O41	O4	0.097300	0.976900	0.780600
O51	O5	0.070800	0.693400	0.475200
O61	O6	0.920200	0.551400	0.392000
O71	O7	0.162700	0.022700	0.094400
O81	O8	0.293100	0.025500	0.225400
O91	O9	0.726500	0.336900	0.291600
O101	O10	0.663500	0.290100	0.379800
O111	O11	0.304700	0.178500	0.908400
O121	O12	0.442200	0.336000	0.997800
O131	O13	0.836900	0.130500	0.565400
O141	O14	0.960400	0.130000	0.699000
O151	O15	0.820900	0.954500	0.868800
O161	O16	0.683300	0.803700	0.780600
O171	O17	0.404400	0.781800	0.475200
O181	O18	0.471800	0.840600	0.392000
O191	O19	0.931700	0.071700	0.094400
O201	O20	0.932300	0.199900	0.225400
O211	O21	0.565100	0.954700	0.291600
O221	O22	0.716300	0.089700	0.379800
O231	O23	0.603700	0.729900	0.908400
O241	O24	0.555600	0.661800	0.997800
O251	O25	0.684900	0.478500	0.065400
O261	O26	0.819000	0.488600	0.199000
O271	O27	0.164300	0.797900	0.368800
O281	O28	0.226900	0.847300	0.280600
O291	O29	0.943400	0.820800	0.975200
O301	O30	0.801400	0.670200	0.892000
O311	O31	0.272700	0.912700	0.594400
O321	O32	0.275500	0.043100	0.725400
O331	O33	0.586900	0.476500	0.791600
O341	O34	0.540100	0.413500	0.879800
O351	O35	0.428500	0.054700	0.408400
O361	O36	0.586000	0.192200	0.497800
O371	O37	0.380500	0.586900	0.065400
O381	O38	0.380000	0.710400	0.199000
O391	O39	0.204500	0.570900	0.368800
O401	O40	0.053700	0.433300	0.280600
O411	O41	0.031800	0.154400	0.975200
O421	O42	0.090600	0.221800	0.892000
O431	O43	0.321700	0.681700	0.594400
O441	O44	0.449900	0.682300	0.725400
O451	O45	0.204700	0.315100	0.791600
O461	O46	0.339700	0.466300	0.879800
O471	O47	0.979900	0.353700	0.408400
O481	O48	0.911800	0.305600	0.497800
