data_NAFSOF_clean_PM
_symmetry_space_group_name_H-M	'P1'
_cell_length_a	13.113000
_cell_length_b	29.058000
_cell_length_c	30.167000
_cell_angle_alpha	90.000000
_cell_angle_beta	90.000000
_cell_angle_gamma	90.000000
_symmetry_Int_Tables_number 1

loop_
_symmetry_equiv_pos_as_xyz
'x,y,z'

loop_
_atom_site_label
_atom_site_type_symbol
_atom_site_fract_x
_atom_site_fract_y
_atom_site_fract_z
C11	C1	0.322800	0.299840	0.060560
O11	O1	0.378200	0.267440	0.046360
C21	C2	0.432400	0.376680	0.172470
C31	C3	0.363800	0.327110	0.098790
C41	C4	0.347800	0.391620	0.148590
H11	H1	0.314400	0.418400	0.157200
C51	C5	0.468100	0.450260	0.212480
H21	H2	0.447200	0.466200	0.187400
C61	C6	0.480500	0.336740	0.159070
H31	H3	0.536100	0.325700	0.175000
C71	C7	0.312300	0.367000	0.111890
H41	H4	0.255100	0.377000	0.096400
C81	C8	0.467500	0.402000	0.212480
C91	C9	0.446400	0.312760	0.121870
H51	H5	0.481000	0.286500	0.112800
O21	O2	0.236900	0.310860	0.045730
C101	C10	0.822800	0.799840	0.060560
O31	O3	0.878200	0.767440	0.046360
C111	C11	0.932400	0.876680	0.172470
C121	C12	0.863800	0.827110	0.098790
C131	C13	0.847800	0.891620	0.148590
H61	H6	0.814400	0.918400	0.157200
C141	C14	0.968100	0.950260	0.212480
H71	H7	0.947200	0.966200	0.187400
C151	C15	0.980500	0.836740	0.159070
H81	H8	0.036100	0.825700	0.175000
C161	C16	0.812300	0.867000	0.111890
H91	H9	0.755100	0.877000	0.096400
C171	C17	0.967500	0.902000	0.212480
C181	C18	0.946400	0.812760	0.121870
H101	H10	0.981000	0.786500	0.112800
O41	O4	0.736900	0.810860	0.045730
C191	C19	0.677200	0.700160	0.060560
O51	O5	0.621800	0.732560	0.046360
C201	C20	0.567600	0.623320	0.172470
C211	C21	0.636200	0.672890	0.098790
C221	C22	0.652200	0.608380	0.148590
H111	H11	0.685600	0.581600	0.157200
C231	C23	0.531900	0.549740	0.212480
H121	H12	0.552800	0.533800	0.187400
C241	C24	0.519500	0.663260	0.159070
H131	H13	0.463900	0.674300	0.175000
C251	C25	0.687700	0.633000	0.111890
H141	H14	0.744900	0.623000	0.096400
C261	C26	0.532500	0.598000	0.212480
C271	C27	0.553600	0.687240	0.121870
H151	H15	0.519000	0.713500	0.112800
O61	O6	0.763100	0.689140	0.045730
C281	C28	0.177200	0.200160	0.060560
O71	O7	0.121800	0.232560	0.046360
C291	C29	0.067600	0.123320	0.172470
C301	C30	0.136200	0.172890	0.098790
C311	C31	0.152200	0.108380	0.148590
H161	H16	0.185600	0.081600	0.157200
C321	C32	0.031900	0.049740	0.212480
H171	H17	0.052800	0.033800	0.187400
C331	C33	0.019500	0.163260	0.159070
H181	H18	0.963900	0.174300	0.175000
C341	C34	0.187700	0.133000	0.111890
H191	H19	0.244900	0.123000	0.096400
C351	C35	0.032500	0.098000	0.212480
C361	C36	0.053600	0.187240	0.121870
H201	H20	0.019000	0.213500	0.112800
O81	O8	0.263100	0.189140	0.045730
C371	C37	0.677200	0.299840	0.439440
O91	O9	0.621800	0.267440	0.453640
C381	C38	0.567600	0.376680	0.327530
C391	C39	0.636200	0.327110	0.401210
C401	C40	0.652200	0.391620	0.351410
H211	H21	0.685600	0.418400	0.342800
C411	C41	0.531900	0.450260	0.287520
H221	H22	0.552800	0.466200	0.312600
C421	C42	0.519500	0.336740	0.340930
H231	H23	0.463900	0.325700	0.325000
C431	C43	0.687700	0.367000	0.388110
H241	H24	0.744900	0.377000	0.403600
C441	C44	0.532500	0.402000	0.287520
C451	C45	0.553600	0.312760	0.378130
H251	H25	0.519000	0.286500	0.387200
O101	O10	0.763100	0.310860	0.454270
C461	C46	0.177200	0.799840	0.439440
O111	O11	0.121800	0.767440	0.453640
C471	C47	0.067600	0.876680	0.327530
C481	C48	0.136200	0.827110	0.401210
C491	C49	0.152200	0.891620	0.351410
H261	H26	0.185600	0.918400	0.342800
C501	C50	0.031900	0.950260	0.287520
H271	H27	0.052800	0.966200	0.312600
C511	C51	0.019500	0.836740	0.340930
H281	H28	0.963900	0.825700	0.325000
C521	C52	0.187700	0.867000	0.388110
H291	H29	0.244900	0.877000	0.403600
C531	C53	0.032500	0.902000	0.287520
C541	C54	0.053600	0.812760	0.378130
H301	H30	0.019000	0.786500	0.387200
O121	O12	0.263100	0.810860	0.454270
C551	C55	0.322800	0.700160	0.439440
O131	O13	0.378200	0.732560	0.453640
C561	C56	0.432400	0.623320	0.327530
C571	C57	0.363800	0.672890	0.401210
C581	C58	0.347800	0.608380	0.351410
H311	H31	0.314400	0.581600	0.342800
C591	C59	0.468100	0.549740	0.287520
H321	H32	0.447200	0.533800	0.312600
C601	C60	0.480500	0.663260	0.340930
H331	H33	0.536100	0.674300	0.325000
C611	C61	0.312300	0.633000	0.388110
H341	H34	0.255100	0.623000	0.403600
C621	C62	0.467500	0.598000	0.287520
C631	C63	0.446400	0.687240	0.378130
H351	H35	0.481000	0.713500	0.387200
O141	O14	0.236900	0.689140	0.454270
C641	C64	0.822800	0.200160	0.439440
O151	O15	0.878200	0.232560	0.453640
C651	C65	0.932400	0.123320	0.327530
C661	C66	0.863800	0.172890	0.401210
C671	C67	0.847800	0.108380	0.351410
H361	H36	0.814400	0.081600	0.342800
C681	C68	0.968100	0.049740	0.287520
H371	H37	0.947200	0.033800	0.312600
C691	C69	0.980500	0.163260	0.340930
H381	H38	0.036100	0.174300	0.325000
C701	C70	0.812300	0.133000	0.388110
H391	H39	0.755100	0.123000	0.403600
C711	C71	0.967500	0.098000	0.287520
C721	C72	0.946400	0.187240	0.378130
H401	H40	0.981000	0.213500	0.387200
O161	O16	0.736900	0.189140	0.454270
C731	C73	0.677200	0.700160	0.939440
O171	O17	0.621800	0.732560	0.953640
C741	C74	0.567600	0.623320	0.827530
C751	C75	0.636200	0.672890	0.901210
C761	C76	0.652200	0.608380	0.851410
H411	H41	0.685600	0.581600	0.842800
C771	C77	0.531900	0.549740	0.787520
H421	H42	0.552800	0.533800	0.812600
C781	C78	0.519500	0.663260	0.840930
H431	H43	0.463900	0.674300	0.825000
C791	C79	0.687700	0.633000	0.888110
H441	H44	0.744900	0.623000	0.903600
C801	C80	0.532500	0.598000	0.787520
C811	C81	0.553600	0.687240	0.878130
H451	H45	0.519000	0.713500	0.887200
O181	O18	0.763100	0.689140	0.954270
C821	C82	0.177200	0.200160	0.939440
O191	O19	0.121800	0.232560	0.953640
C831	C83	0.067600	0.123320	0.827530
C841	C84	0.136200	0.172890	0.901210
C851	C85	0.152200	0.108380	0.851410
H461	H46	0.185600	0.081600	0.842800
C861	C86	0.031900	0.049740	0.787520
H471	H47	0.052800	0.033800	0.812600
C871	C87	0.019500	0.163260	0.840930
H481	H48	0.963900	0.174300	0.825000
C881	C88	0.187700	0.133000	0.888110
H491	H49	0.244900	0.123000	0.903600
C891	C89	0.032500	0.098000	0.787520
C901	C90	0.053600	0.187240	0.878130
H501	H50	0.019000	0.213500	0.887200
O201	O20	0.263100	0.189140	0.954270
C911	C91	0.322800	0.299840	0.939440
O211	O21	0.378200	0.267440	0.953640
C921	C92	0.432400	0.376680	0.827530
C931	C93	0.363800	0.327110	0.901210
C941	C94	0.347800	0.391620	0.851410
H511	H51	0.314400	0.418400	0.842800
C951	C95	0.468100	0.450260	0.787520
H521	H52	0.447200	0.466200	0.812600
C961	C96	0.480500	0.336740	0.840930
H531	H53	0.536100	0.325700	0.825000
C971	C97	0.312300	0.367000	0.888110
H541	H54	0.255100	0.377000	0.903600
C981	C98	0.467500	0.402000	0.787520
C991	C99	0.446400	0.312760	0.878130
H551	H55	0.481000	0.286500	0.887200
O221	O22	0.236900	0.310860	0.954270
C1001	C100	0.822800	0.799840	0.939440
O231	O23	0.878200	0.767440	0.953640
C1011	C101	0.932400	0.876680	0.827530
C1021	C102	0.863800	0.827110	0.901210
C1031	C103	0.847800	0.891620	0.851410
H561	H56	0.814400	0.918400	0.842800
C1041	C104	0.968100	0.950260	0.787520
H571	H57	0.947200	0.966200	0.812600
C1051	C105	0.980500	0.836740	0.840930
H581	H58	0.036100	0.825700	0.825000
C1061	C106	0.812300	0.867000	0.888110
H591	H59	0.755100	0.877000	0.903600
C1071	C107	0.967500	0.902000	0.787520
C1081	C108	0.946400	0.812760	0.878130
H601	H60	0.981000	0.786500	0.887200
O241	O24	0.736900	0.810860	0.954270
C1091	C109	0.322800	0.700160	0.560560
O251	O25	0.378200	0.732560	0.546360
C1101	C110	0.432400	0.623320	0.672470
C1111	C111	0.363800	0.672890	0.598790
C1121	C112	0.347800	0.608380	0.648590
H611	H61	0.314400	0.581600	0.657200
C1131	C113	0.468100	0.549740	0.712480
H621	H62	0.447200	0.533800	0.687400
C1141	C114	0.480500	0.663260	0.659070
H631	H63	0.536100	0.674300	0.675000
C1151	C115	0.312300	0.633000	0.611890
H641	H64	0.255100	0.623000	0.596400
C1161	C116	0.467500	0.598000	0.712480
C1171	C117	0.446400	0.687240	0.621870
H651	H65	0.481000	0.713500	0.612800
O261	O26	0.236900	0.689140	0.545730
C1181	C118	0.822800	0.200160	0.560560
O271	O27	0.878200	0.232560	0.546360
C1191	C119	0.932400	0.123320	0.672470
C1201	C120	0.863800	0.172890	0.598790
C1211	C121	0.847800	0.108380	0.648590
H661	H66	0.814400	0.081600	0.657200
C1221	C122	0.968100	0.049740	0.712480
H671	H67	0.947200	0.033800	0.687400
C1231	C123	0.980500	0.163260	0.659070
H681	H68	0.036100	0.174300	0.675000
C1241	C124	0.812300	0.133000	0.611890
H691	H69	0.755100	0.123000	0.596400
C1251	C125	0.967500	0.098000	0.712480
C1261	C126	0.946400	0.187240	0.621870
H701	H70	0.981000	0.213500	0.612800
O281	O28	0.736900	0.189140	0.545730
C1271	C127	0.677200	0.299840	0.560560
O291	O29	0.621800	0.267440	0.546360
C1281	C128	0.567600	0.376680	0.672470
C1291	C129	0.636200	0.327110	0.598790
C1301	C130	0.652200	0.391620	0.648590
H711	H71	0.685600	0.418400	0.657200
C1311	C131	0.531900	0.450260	0.712480
H721	H72	0.552800	0.466200	0.687400
C1321	C132	0.519500	0.336740	0.659070
H731	H73	0.463900	0.325700	0.675000
C1331	C133	0.687700	0.367000	0.611890
H741	H74	0.744900	0.377000	0.596400
C1341	C134	0.532500	0.402000	0.712480
C1351	C135	0.553600	0.312760	0.621870
H751	H75	0.519000	0.286500	0.612800
O301	O30	0.763100	0.310860	0.545730
C1361	C136	0.177200	0.799840	0.560560
O311	O31	0.121800	0.767440	0.546360
C1371	C137	0.067600	0.876680	0.672470
C1381	C138	0.136200	0.827110	0.598790
C1391	C139	0.152200	0.891620	0.648590
H761	H76	0.185600	0.918400	0.657200
C1401	C140	0.031900	0.950260	0.712480
H771	H77	0.052800	0.966200	0.687400
C1411	C141	0.019500	0.836740	0.659070
H781	H78	0.963900	0.825700	0.675000
C1421	C142	0.187700	0.867000	0.611890
H791	H79	0.244900	0.877000	0.596400
C1431	C143	0.032500	0.902000	0.712480
C1441	C144	0.053600	0.812760	0.621870
H801	H80	0.019000	0.786500	0.612800
O321	O32	0.263100	0.810860	0.545730
Cu11	Cu1	0.333320	0.224690	0.000000
Cu21	Cu2	0.833320	0.724690	0.000000
Cu31	Cu3	0.666680	0.775310	0.000000
Cu41	Cu4	0.166680	0.275310	0.000000
Cu51	Cu5	0.666680	0.224690	0.500000
Cu61	Cu6	0.166680	0.724690	0.500000
Cu71	Cu7	0.333320	0.775310	0.500000
Cu81	Cu8	0.833320	0.275310	0.500000
C1451	C145	0.500000	0.474400	0.250000
C1461	C146	0.500000	0.378860	0.250000
H811	H81	0.500000	0.346900	0.250000
C1471	C147	0.000000	0.974400	0.250000
C1481	C148	0.000000	0.878860	0.250000
H821	H82	0.000000	0.846900	0.250000
C1491	C149	0.500000	0.525600	0.250000
C1501	C150	0.500000	0.621140	0.250000
H831	H83	0.500000	0.653100	0.250000
C1511	C151	0.000000	0.025600	0.250000
C1521	C152	0.000000	0.121140	0.250000
H841	H84	0.000000	0.153100	0.250000
C1531	C153	0.500000	0.525600	0.750000
C1541	C154	0.500000	0.621140	0.750000
H851	H85	0.500000	0.653100	0.750000
C1551	C155	0.000000	0.025600	0.750000
C1561	C156	0.000000	0.121140	0.750000
H861	H86	0.000000	0.153100	0.750000
C1571	C157	0.500000	0.474400	0.750000
C1581	C158	0.500000	0.378860	0.750000
H871	H87	0.500000	0.346900	0.750000
C1591	C159	0.000000	0.974400	0.750000
C1601	C160	0.000000	0.878860	0.750000
H881	H88	0.000000	0.846900	0.750000
