data_NAGCAB_clean_PM
_symmetry_space_group_name_H-M	'P1'
_cell_length_a	31.803300
_cell_length_b	31.803300
_cell_length_c	34.559300
_cell_angle_alpha	90.000000
_cell_angle_beta	90.000000
_cell_angle_gamma	90.000000
_symmetry_Int_Tables_number 1

loop_
_symmetry_equiv_pos_as_xyz
'x,y,z'

loop_
_atom_site_label
_atom_site_type_symbol
_atom_site_fract_x
_atom_site_fract_y
_atom_site_fract_z
P11	P1	0.050840	0.501520	0.170640
P21	P2	0.176180	0.698610	0.325000
P31	P3	0.966850	0.326450	0.075780
P41	P4	0.153760	0.584640	0.272320
O11	O1	0.220030	0.710250	0.342170
O21	O2	0.217390	0.650150	0.222900
O31	O3	0.156340	0.739520	0.309220
O41	O4	0.983020	0.329290	0.034140
O51	O5	0.965660	0.480940	0.052150
O61	O6	0.058090	0.517150	0.027280
O71	O7	0.938960	0.364560	0.085470
O81	O8	0.124320	0.496160	0.081380
O91	O9	0.009320	0.545890	0.089270
O101	O10	0.106580	0.693210	0.256260
O111	O11	0.149980	0.677280	0.355480
O121	O12	0.966910	0.435310	0.124570
O131	O13	0.184210	0.669510	0.289730
O141	O14	0.185900	0.731680	0.233770
O151	O15	0.000660	0.320180	0.105890
O161	O16	0.058160	0.518680	0.210710
O171	O17	0.201770	0.585870	0.274670
O181	O18	0.156240	0.806490	0.265610
O191	O19	0.077540	0.525670	0.141010
O201	O20	0.004310	0.504130	0.159910
O211	O21	0.137820	0.616190	0.242080
O221	O22	0.937040	0.286760	0.075470
O231	O23	0.139300	0.541180	0.263360
O241	O24	0.063740	0.453730	0.172020
O251	O25	0.135100	0.597020	0.313070
Mo11	Mo1	0.128160	0.749620	0.249130
Mo21	Mo2	0.157110	0.676710	0.229350
Mo31	Mo3	0.074370	0.530200	0.080950
Mo41	Mo4	0.943560	0.427040	0.073160
Mo51	Mo5	0.244920	0.633760	0.275780
Mo61	Mo6	0.974110	0.492720	0.107580
P51	P5	0.550840	0.001520	0.670640
P61	P6	0.676180	0.198610	0.825000
P71	P7	0.466850	0.826450	0.575780
P81	P8	0.653760	0.084640	0.772320
O261	O26	0.720030	0.210250	0.842170
O271	O27	0.717390	0.150150	0.722900
O281	O28	0.656340	0.239520	0.809220
O291	O29	0.483020	0.829290	0.534140
O301	O30	0.465660	0.980940	0.552150
O311	O31	0.558090	0.017150	0.527280
O321	O32	0.438960	0.864560	0.585470
O331	O33	0.624320	0.996160	0.581380
O341	O34	0.509320	0.045890	0.589270
O351	O35	0.606580	0.193210	0.756260
O361	O36	0.649980	0.177280	0.855480
O371	O37	0.466910	0.935310	0.624570
O381	O38	0.684210	0.169510	0.789730
O391	O39	0.685900	0.231680	0.733770
O401	O40	0.500660	0.820180	0.605890
O411	O41	0.558160	0.018680	0.710710
O421	O42	0.701770	0.085870	0.774670
O431	O43	0.656240	0.306490	0.765610
O441	O44	0.577540	0.025670	0.641010
O451	O45	0.504310	0.004130	0.659910
O461	O46	0.637820	0.116190	0.742080
O471	O47	0.437040	0.786760	0.575470
O481	O48	0.639300	0.041180	0.763360
O491	O49	0.563740	0.953730	0.672020
O501	O50	0.635100	0.097020	0.813070
Mo71	Mo7	0.628160	0.249620	0.749130
Mo81	Mo8	0.657110	0.176710	0.729350
Mo91	Mo9	0.574370	0.030200	0.580950
Mo101	Mo10	0.443560	0.927040	0.573160
Mo111	Mo11	0.744920	0.133760	0.775780
Mo121	Mo12	0.474110	0.992720	0.607580
P91	P9	0.449160	0.498480	0.670640
P101	P10	0.323820	0.301390	0.825000
P111	P11	0.533150	0.673550	0.575780
P121	P12	0.346240	0.415360	0.772320
O511	O51	0.279970	0.289750	0.842170
O521	O52	0.282610	0.349850	0.722900
O531	O53	0.343660	0.260480	0.809220
O541	O54	0.516980	0.670710	0.534140
O551	O55	0.534340	0.519060	0.552150
O561	O56	0.441910	0.482850	0.527280
O571	O57	0.561040	0.635440	0.585470
O581	O58	0.375680	0.503840	0.581380
O591	O59	0.490680	0.454110	0.589270
O601	O60	0.393420	0.306790	0.756260
O611	O61	0.350020	0.322720	0.855480
O621	O62	0.533090	0.564690	0.624570
O631	O63	0.315790	0.330490	0.789730
O641	O64	0.314100	0.268320	0.733770
O651	O65	0.499340	0.679820	0.605890
O661	O66	0.441840	0.481320	0.710710
O671	O67	0.298230	0.414130	0.774670
O681	O68	0.343760	0.193510	0.765610
O691	O69	0.422460	0.474330	0.641010
O701	O70	0.495690	0.495870	0.659910
O711	O71	0.362180	0.383810	0.742080
O721	O72	0.562960	0.713240	0.575470
O731	O73	0.360700	0.458820	0.763360
O741	O74	0.436260	0.546270	0.672020
O751	O75	0.364900	0.402980	0.813070
Mo131	Mo13	0.371840	0.250380	0.749130
Mo141	Mo14	0.342890	0.323290	0.729350
Mo151	Mo15	0.425630	0.469800	0.580950
Mo161	Mo16	0.556440	0.572960	0.573160
Mo171	Mo17	0.255080	0.366240	0.775780
Mo181	Mo18	0.525890	0.507280	0.607580
P131	P13	0.949160	0.998480	0.170640
P141	P14	0.823820	0.801390	0.325000
P151	P15	0.033150	0.173550	0.075780
P161	P16	0.846240	0.915360	0.272320
O761	O76	0.779970	0.789750	0.342170
O771	O77	0.782610	0.849850	0.222900
O781	O78	0.843660	0.760480	0.309220
O791	O79	0.016980	0.170710	0.034140
O801	O80	0.034340	0.019060	0.052150
O811	O81	0.941910	0.982850	0.027280
O821	O82	0.061040	0.135440	0.085470
O831	O83	0.875680	0.003840	0.081380
O841	O84	0.990680	0.954110	0.089270
O851	O85	0.893420	0.806790	0.256260
O861	O86	0.850020	0.822720	0.355480
O871	O87	0.033090	0.064690	0.124570
O881	O88	0.815790	0.830490	0.289730
O891	O89	0.814100	0.768320	0.233770
O901	O90	0.999340	0.179820	0.105890
O911	O91	0.941840	0.981320	0.210710
O921	O92	0.798230	0.914130	0.274670
O931	O93	0.843760	0.693510	0.265610
O941	O94	0.922460	0.974330	0.141010
O951	O95	0.995690	0.995870	0.159910
O961	O96	0.862180	0.883810	0.242080
O971	O97	0.062960	0.213240	0.075470
O981	O98	0.860700	0.958820	0.263360
O991	O99	0.936260	0.046270	0.172020
O1001	O100	0.864900	0.902980	0.313070
Mo191	Mo19	0.871840	0.750380	0.249130
Mo201	Mo20	0.842890	0.823290	0.229350
Mo211	Mo21	0.925630	0.969800	0.080950
Mo221	Mo22	0.056440	0.072960	0.073160
Mo231	Mo23	0.755080	0.866240	0.275780
Mo241	Mo24	0.025890	0.007280	0.107580
P171	P17	0.748480	0.800840	0.420640
P181	P18	0.551390	0.926180	0.575000
P191	P19	0.923550	0.716850	0.325780
P201	P20	0.665360	0.903760	0.522320
O1011	O101	0.539750	0.970030	0.592170
O1021	O102	0.599850	0.967390	0.472900
O1031	O103	0.510480	0.906340	0.559220
O1041	O104	0.920710	0.733020	0.284140
O1051	O105	0.769060	0.715660	0.302150
O1061	O106	0.732850	0.808090	0.277280
O1071	O107	0.885440	0.688960	0.335470
O1081	O108	0.753840	0.874320	0.331380
O1091	O109	0.704110	0.759320	0.339270
O1101	O110	0.556790	0.856580	0.506260
O1111	O111	0.572720	0.899980	0.605480
O1121	O112	0.814690	0.716910	0.374570
O1131	O113	0.580490	0.934210	0.539730
O1141	O114	0.518320	0.935900	0.483770
O1151	O115	0.929820	0.750660	0.355890
O1161	O116	0.731320	0.808160	0.460710
O1171	O117	0.664130	0.951770	0.524670
O1181	O118	0.443510	0.906240	0.515610
O1191	O119	0.724330	0.827540	0.391010
O1201	O120	0.745870	0.754310	0.409910
O1211	O121	0.633810	0.887820	0.492080
O1221	O122	0.963240	0.687040	0.325470
O1231	O123	0.708820	0.889300	0.513360
O1241	O124	0.796270	0.813740	0.422020
O1251	O125	0.652980	0.885100	0.563070
Mo251	Mo25	0.500380	0.878160	0.499130
Mo261	Mo26	0.573290	0.907110	0.479350
Mo271	Mo27	0.719800	0.824370	0.330950
Mo281	Mo28	0.822960	0.693560	0.323160
Mo291	Mo29	0.616240	0.994920	0.525780
Mo301	Mo30	0.757280	0.724110	0.357580
P211	P21	0.248480	0.300840	0.920640
P221	P22	0.051390	0.426180	0.075000
P231	P23	0.423550	0.216850	0.825780
P241	P24	0.165360	0.403760	0.022320
O1261	O126	0.039750	0.470030	0.092170
O1271	O127	0.099850	0.467390	0.972900
O1281	O128	0.010480	0.406340	0.059220
O1291	O129	0.420710	0.233020	0.784140
O1301	O130	0.269060	0.215660	0.802150
O1311	O131	0.232850	0.308090	0.777280
O1321	O132	0.385440	0.188960	0.835470
O1331	O133	0.253840	0.374320	0.831380
O1341	O134	0.204110	0.259320	0.839270
O1351	O135	0.056790	0.356580	0.006260
O1361	O136	0.072720	0.399980	0.105480
O1371	O137	0.314690	0.216910	0.874570
O1381	O138	0.080490	0.434210	0.039730
O1391	O139	0.018320	0.435900	0.983770
O1401	O140	0.429820	0.250660	0.855890
O1411	O141	0.231320	0.308160	0.960710
O1421	O142	0.164130	0.451770	0.024670
O1431	O143	0.943510	0.406240	0.015610
O1441	O144	0.224330	0.327540	0.891010
O1451	O145	0.245870	0.254310	0.909910
O1461	O146	0.133810	0.387820	0.992080
O1471	O147	0.463240	0.187040	0.825470
O1481	O148	0.208820	0.389300	0.013360
O1491	O149	0.296270	0.313740	0.922020
O1501	O150	0.152980	0.385100	0.063070
Mo311	Mo31	0.000380	0.378160	0.999130
Mo321	Mo32	0.073290	0.407110	0.979350
Mo331	Mo33	0.219800	0.324370	0.830950
Mo341	Mo34	0.322960	0.193560	0.823160
Mo351	Mo35	0.116240	0.494920	0.025780
Mo361	Mo36	0.257280	0.224110	0.857580
P251	P25	0.751520	0.199160	0.920640
P261	P26	0.948610	0.073820	0.075000
P271	P27	0.576450	0.283150	0.825780
P281	P28	0.834640	0.096240	0.022320
O1511	O151	0.960250	0.029970	0.092170
O1521	O152	0.900150	0.032610	0.972900
O1531	O153	0.989520	0.093660	0.059220
O1541	O154	0.579290	0.266980	0.784140
O1551	O155	0.730940	0.284340	0.802150
O1561	O156	0.767150	0.191910	0.777280
O1571	O157	0.614560	0.311040	0.835470
O1581	O158	0.746160	0.125680	0.831380
O1591	O159	0.795890	0.240680	0.839270
O1601	O160	0.943210	0.143420	0.006260
O1611	O161	0.927280	0.100020	0.105480
O1621	O162	0.685310	0.283090	0.874570
O1631	O163	0.919510	0.065790	0.039730
O1641	O164	0.981680	0.064100	0.983770
O1651	O165	0.570180	0.249340	0.855890
O1661	O166	0.768680	0.191840	0.960710
O1671	O167	0.835870	0.048230	0.024670
O1681	O168	0.056490	0.093760	0.015610
O1691	O169	0.775670	0.172460	0.891010
O1701	O170	0.754130	0.245690	0.909910
O1711	O171	0.866190	0.112180	0.992080
O1721	O172	0.536760	0.312960	0.825470
O1731	O173	0.791180	0.110700	0.013360
O1741	O174	0.703730	0.186260	0.922020
O1751	O175	0.847020	0.114900	0.063070
Mo371	Mo37	0.999620	0.121840	0.999130
Mo381	Mo38	0.926710	0.092890	0.979350
Mo391	Mo39	0.780200	0.175630	0.830950
Mo401	Mo40	0.677040	0.306440	0.823160
Mo411	Mo41	0.883760	0.005080	0.025780
Mo421	Mo42	0.742720	0.275890	0.857580
P291	P29	0.251520	0.699160	0.420640
P301	P30	0.448610	0.573820	0.575000
P311	P31	0.076450	0.783150	0.325780
P321	P32	0.334640	0.596240	0.522320
O1761	O176	0.460250	0.529970	0.592170
O1771	O177	0.400150	0.532610	0.472900
O1781	O178	0.489520	0.593660	0.559220
O1791	O179	0.079290	0.766980	0.284140
O1801	O180	0.230940	0.784340	0.302150
O1811	O181	0.267150	0.691910	0.277280
O1821	O182	0.114560	0.811040	0.335470
O1831	O183	0.246160	0.625680	0.331380
O1841	O184	0.295890	0.740680	0.339270
O1851	O185	0.443210	0.643420	0.506260
O1861	O186	0.427280	0.600020	0.605480
O1871	O187	0.185310	0.783090	0.374570
O1881	O188	0.419510	0.565790	0.539730
O1891	O189	0.481680	0.564100	0.483770
O1901	O190	0.070180	0.749340	0.355890
O1911	O191	0.268680	0.691840	0.460710
O1921	O192	0.335870	0.548230	0.524670
O1931	O193	0.556490	0.593760	0.515610
O1941	O194	0.275670	0.672460	0.391010
O1951	O195	0.254130	0.745690	0.409910
O1961	O196	0.366190	0.612180	0.492080
O1971	O197	0.036760	0.812960	0.325470
O1981	O198	0.291180	0.610700	0.513360
O1991	O199	0.203730	0.686260	0.422020
O2001	O200	0.347020	0.614900	0.563070
Mo431	Mo43	0.499620	0.621840	0.499130
Mo441	Mo44	0.426710	0.592890	0.479350
Mo451	Mo45	0.280200	0.675630	0.330950
Mo461	Mo46	0.177040	0.806440	0.323160
Mo471	Mo47	0.383760	0.505080	0.525780
Mo481	Mo48	0.242720	0.775890	0.357580
P331	P33	0.449160	0.501520	0.829360
P341	P34	0.323820	0.698610	0.675000
P351	P35	0.533150	0.326450	0.924220
P361	P36	0.346240	0.584640	0.727680
O2011	O201	0.279970	0.710250	0.657830
O2021	O202	0.282610	0.650150	0.777100
O2031	O203	0.343660	0.739520	0.690780
O2041	O204	0.516980	0.329290	0.965860
O2051	O205	0.534340	0.480940	0.947850
O2061	O206	0.441910	0.517150	0.972720
O2071	O207	0.561040	0.364560	0.914530
O2081	O208	0.375680	0.496160	0.918620
O2091	O209	0.490680	0.545890	0.910730
O2101	O210	0.393420	0.693210	0.743740
O2111	O211	0.350020	0.677280	0.644520
O2121	O212	0.533090	0.435310	0.875430
O2131	O213	0.315790	0.669510	0.710270
O2141	O214	0.314100	0.731680	0.766230
O2151	O215	0.499340	0.320180	0.894110
O2161	O216	0.441840	0.518680	0.789290
O2171	O217	0.298230	0.585870	0.725330
O2181	O218	0.343760	0.806490	0.734390
O2191	O219	0.422460	0.525670	0.858990
O2201	O220	0.495690	0.504130	0.840090
O2211	O221	0.362180	0.616190	0.757920
O2221	O222	0.562960	0.286760	0.924530
O2231	O223	0.360700	0.541180	0.736640
O2241	O224	0.436260	0.453730	0.827980
O2251	O225	0.364900	0.597020	0.686930
Mo491	Mo49	0.371840	0.749620	0.750870
Mo501	Mo50	0.342890	0.676710	0.770650
Mo511	Mo51	0.425630	0.530200	0.919050
Mo521	Mo52	0.556440	0.427040	0.926840
Mo531	Mo53	0.255080	0.633760	0.724220
Mo541	Mo54	0.525890	0.492720	0.892420
P371	P37	0.949160	0.001520	0.329360
P381	P38	0.823820	0.198610	0.175000
P391	P39	0.033150	0.826450	0.424220
P401	P40	0.846240	0.084640	0.227680
O2261	O226	0.779970	0.210250	0.157830
O2271	O227	0.782610	0.150150	0.277100
O2281	O228	0.843660	0.239520	0.190780
O2291	O229	0.016980	0.829290	0.465860
O2301	O230	0.034340	0.980940	0.447850
O2311	O231	0.941910	0.017150	0.472720
O2321	O232	0.061040	0.864560	0.414530
O2331	O233	0.875680	0.996160	0.418620
O2341	O234	0.990680	0.045890	0.410730
O2351	O235	0.893420	0.193210	0.243740
O2361	O236	0.850020	0.177280	0.144520
O2371	O237	0.033090	0.935310	0.375430
O2381	O238	0.815790	0.169510	0.210270
O2391	O239	0.814100	0.231680	0.266230
O2401	O240	0.999340	0.820180	0.394110
O2411	O241	0.941840	0.018680	0.289290
O2421	O242	0.798230	0.085870	0.225330
O2431	O243	0.843760	0.306490	0.234390
O2441	O244	0.922460	0.025670	0.358990
O2451	O245	0.995690	0.004130	0.340090
O2461	O246	0.862180	0.116190	0.257920
O2471	O247	0.062960	0.786760	0.424530
O2481	O248	0.860700	0.041180	0.236640
O2491	O249	0.936260	0.953730	0.327980
O2501	O250	0.864900	0.097020	0.186930
Mo551	Mo55	0.871840	0.249620	0.250870
Mo561	Mo56	0.842890	0.176710	0.270650
Mo571	Mo57	0.925630	0.030200	0.419050
Mo581	Mo58	0.056440	0.927040	0.426840
Mo591	Mo59	0.755080	0.133760	0.224220
Mo601	Mo60	0.025890	0.992720	0.392420
P411	P41	0.050840	0.498480	0.329360
P421	P42	0.176180	0.301390	0.175000
P431	P43	0.966850	0.673550	0.424220
P441	P44	0.153760	0.415360	0.227680
O2511	O251	0.220030	0.289750	0.157830
O2521	O252	0.217390	0.349850	0.277100
O2531	O253	0.156340	0.260480	0.190780
O2541	O254	0.983020	0.670710	0.465860
O2551	O255	0.965660	0.519060	0.447850
O2561	O256	0.058090	0.482850	0.472720
O2571	O257	0.938960	0.635440	0.414530
O2581	O258	0.124320	0.503840	0.418620
O2591	O259	0.009320	0.454110	0.410730
O2601	O260	0.106580	0.306790	0.243740
O2611	O261	0.149980	0.322720	0.144520
O2621	O262	0.966910	0.564690	0.375430
O2631	O263	0.184210	0.330490	0.210270
O2641	O264	0.185900	0.268320	0.266230
O2651	O265	0.000660	0.679820	0.394110
O2661	O266	0.058160	0.481320	0.289290
O2671	O267	0.201770	0.414130	0.225330
O2681	O268	0.156240	0.193510	0.234390
O2691	O269	0.077540	0.474330	0.358990
O2701	O270	0.004310	0.495870	0.340090
O2711	O271	0.137820	0.383810	0.257920
O2721	O272	0.937040	0.713240	0.424530
O2731	O273	0.139300	0.458820	0.236640
O2741	O274	0.063740	0.546270	0.327980
O2751	O275	0.135100	0.402980	0.186930
Mo611	Mo61	0.128160	0.250380	0.250870
Mo621	Mo62	0.157110	0.323290	0.270650
Mo631	Mo63	0.074370	0.469800	0.419050
Mo641	Mo64	0.943560	0.572960	0.426840
Mo651	Mo65	0.244920	0.366240	0.224220
Mo661	Mo66	0.974110	0.507280	0.392420
P451	P45	0.550840	0.998480	0.829360
P461	P46	0.676180	0.801390	0.675000
P471	P47	0.466850	0.173550	0.924220
P481	P48	0.653760	0.915360	0.727680
O2761	O276	0.720030	0.789750	0.657830
O2771	O277	0.717390	0.849850	0.777100
O2781	O278	0.656340	0.760480	0.690780
O2791	O279	0.483020	0.170710	0.965860
O2801	O280	0.465660	0.019060	0.947850
O2811	O281	0.558090	0.982850	0.972720
O2821	O282	0.438960	0.135440	0.914530
O2831	O283	0.624320	0.003840	0.918620
O2841	O284	0.509320	0.954110	0.910730
O2851	O285	0.606580	0.806790	0.743740
O2861	O286	0.649980	0.822720	0.644520
O2871	O287	0.466910	0.064690	0.875430
O2881	O288	0.684210	0.830490	0.710270
O2891	O289	0.685900	0.768320	0.766230
O2901	O290	0.500660	0.179820	0.894110
O2911	O291	0.558160	0.981320	0.789290
O2921	O292	0.701770	0.914130	0.725330
O2931	O293	0.656240	0.693510	0.734390
O2941	O294	0.577540	0.974330	0.858990
O2951	O295	0.504310	0.995870	0.840090
O2961	O296	0.637820	0.883810	0.757920
O2971	O297	0.437040	0.213240	0.924530
O2981	O298	0.639300	0.958820	0.736640
O2991	O299	0.563740	0.046270	0.827980
O3001	O300	0.635100	0.902980	0.686930
Mo671	Mo67	0.628160	0.750380	0.750870
Mo681	Mo68	0.657110	0.823290	0.770650
Mo691	Mo69	0.574370	0.969800	0.919050
Mo701	Mo70	0.443560	0.072960	0.926840
Mo711	Mo71	0.744920	0.866240	0.724220
Mo721	Mo72	0.474110	0.007280	0.892420
P491	P49	0.751520	0.800840	0.579360
P501	P50	0.948610	0.926180	0.425000
P511	P51	0.576450	0.716850	0.674220
P521	P52	0.834640	0.903760	0.477680
O3011	O301	0.960250	0.970030	0.407830
O3021	O302	0.900150	0.967390	0.527100
O3031	O303	0.989520	0.906340	0.440780
O3041	O304	0.579290	0.733020	0.715860
O3051	O305	0.730940	0.715660	0.697850
O3061	O306	0.767150	0.808090	0.722720
O3071	O307	0.614560	0.688960	0.664530
O3081	O308	0.746160	0.874320	0.668620
O3091	O309	0.795890	0.759320	0.660730
O3101	O310	0.943210	0.856580	0.493740
O3111	O311	0.927280	0.899980	0.394520
O3121	O312	0.685310	0.716910	0.625430
O3131	O313	0.919510	0.934210	0.460270
O3141	O314	0.981680	0.935900	0.516230
O3151	O315	0.570180	0.750660	0.644110
O3161	O316	0.768680	0.808160	0.539290
O3171	O317	0.835870	0.951770	0.475330
O3181	O318	0.056490	0.906240	0.484390
O3191	O319	0.775670	0.827540	0.608990
O3201	O320	0.754130	0.754310	0.590090
O3211	O321	0.866190	0.887820	0.507920
O3221	O322	0.536760	0.687040	0.674530
O3231	O323	0.791180	0.889300	0.486640
O3241	O324	0.703730	0.813740	0.577980
O3251	O325	0.847020	0.885100	0.436930
Mo731	Mo73	0.999620	0.878160	0.500870
Mo741	Mo74	0.926710	0.907110	0.520650
Mo751	Mo75	0.780200	0.824370	0.669050
Mo761	Mo76	0.677040	0.693560	0.676840
Mo771	Mo77	0.883760	0.994920	0.474220
Mo781	Mo78	0.742720	0.724110	0.642420
P531	P53	0.251520	0.300840	0.079360
P541	P54	0.448610	0.426180	0.925000
P551	P55	0.076450	0.216850	0.174220
P561	P56	0.334640	0.403760	0.977680
O3261	O326	0.460250	0.470030	0.907830
O3271	O327	0.400150	0.467390	0.027100
O3281	O328	0.489520	0.406340	0.940780
O3291	O329	0.079290	0.233020	0.215860
O3301	O330	0.230940	0.215660	0.197850
O3311	O331	0.267150	0.308090	0.222720
O3321	O332	0.114560	0.188960	0.164530
O3331	O333	0.246160	0.374320	0.168620
O3341	O334	0.295890	0.259320	0.160730
O3351	O335	0.443210	0.356580	0.993740
O3361	O336	0.427280	0.399980	0.894520
O3371	O337	0.185310	0.216910	0.125430
O3381	O338	0.419510	0.434210	0.960270
O3391	O339	0.481680	0.435900	0.016230
O3401	O340	0.070180	0.250660	0.144110
O3411	O341	0.268680	0.308160	0.039290
O3421	O342	0.335870	0.451770	0.975330
O3431	O343	0.556490	0.406240	0.984390
O3441	O344	0.275670	0.327540	0.108990
O3451	O345	0.254130	0.254310	0.090090
O3461	O346	0.366190	0.387820	0.007920
O3471	O347	0.036760	0.187040	0.174530
O3481	O348	0.291180	0.389300	0.986640
O3491	O349	0.203730	0.313740	0.077980
O3501	O350	0.347020	0.385100	0.936930
Mo791	Mo79	0.499620	0.378160	0.000870
Mo801	Mo80	0.426710	0.407110	0.020650
Mo811	Mo81	0.280200	0.324370	0.169050
Mo821	Mo82	0.177040	0.193560	0.176840
Mo831	Mo83	0.383760	0.494920	0.974220
Mo841	Mo84	0.242720	0.224110	0.142420
P571	P57	0.748480	0.199160	0.079360
P581	P58	0.551390	0.073820	0.925000
P591	P59	0.923550	0.283150	0.174220
P601	P60	0.665360	0.096240	0.977680
O3511	O351	0.539750	0.029970	0.907830
O3521	O352	0.599850	0.032610	0.027100
O3531	O353	0.510480	0.093660	0.940780
O3541	O354	0.920710	0.266980	0.215860
O3551	O355	0.769060	0.284340	0.197850
O3561	O356	0.732850	0.191910	0.222720
O3571	O357	0.885440	0.311040	0.164530
O3581	O358	0.753840	0.125680	0.168620
O3591	O359	0.704110	0.240680	0.160730
O3601	O360	0.556790	0.143420	0.993740
O3611	O361	0.572720	0.100020	0.894520
O3621	O362	0.814690	0.283090	0.125430
O3631	O363	0.580490	0.065790	0.960270
O3641	O364	0.518320	0.064100	0.016230
O3651	O365	0.929820	0.249340	0.144110
O3661	O366	0.731320	0.191840	0.039290
O3671	O367	0.664130	0.048230	0.975330
O3681	O368	0.443510	0.093760	0.984390
O3691	O369	0.724330	0.172460	0.108990
O3701	O370	0.745870	0.245690	0.090090
O3711	O371	0.633810	0.112180	0.007920
O3721	O372	0.963240	0.312960	0.174530
O3731	O373	0.708820	0.110700	0.986640
O3741	O374	0.796270	0.186260	0.077980
O3751	O375	0.652980	0.114900	0.936930
Mo851	Mo85	0.500380	0.121840	0.000870
Mo861	Mo86	0.573290	0.092890	0.020650
Mo871	Mo87	0.719800	0.175630	0.169050
Mo881	Mo88	0.822960	0.306440	0.176840
Mo891	Mo89	0.616240	0.005080	0.974220
Mo901	Mo90	0.757280	0.275890	0.142420
P611	P61	0.248480	0.699160	0.579360
P621	P62	0.051390	0.573820	0.425000
P631	P63	0.423550	0.783150	0.674220
P641	P64	0.165360	0.596240	0.477680
O3761	O376	0.039750	0.529970	0.407830
O3771	O377	0.099850	0.532610	0.527100
O3781	O378	0.010480	0.593660	0.440780
O3791	O379	0.420710	0.766980	0.715860
O3801	O380	0.269060	0.784340	0.697850
O3811	O381	0.232850	0.691910	0.722720
O3821	O382	0.385440	0.811040	0.664530
O3831	O383	0.253840	0.625680	0.668620
O3841	O384	0.204110	0.740680	0.660730
O3851	O385	0.056790	0.643420	0.493740
O3861	O386	0.072720	0.600020	0.394520
O3871	O387	0.314690	0.783090	0.625430
O3881	O388	0.080490	0.565790	0.460270
O3891	O389	0.018320	0.564100	0.516230
O3901	O390	0.429820	0.749340	0.644110
O3911	O391	0.231320	0.691840	0.539290
O3921	O392	0.164130	0.548230	0.475330
O3931	O393	0.943510	0.593760	0.484390
O3941	O394	0.224330	0.672460	0.608990
O3951	O395	0.245870	0.745690	0.590090
O3961	O396	0.133810	0.612180	0.507920
O3971	O397	0.463240	0.812960	0.674530
O3981	O398	0.208820	0.610700	0.486640
O3991	O399	0.296270	0.686260	0.577980
O4001	O400	0.152980	0.614900	0.436930
Mo911	Mo91	0.000380	0.621840	0.500870
Mo921	Mo92	0.073290	0.592890	0.520650
Mo931	Mo93	0.219800	0.675630	0.669050
Mo941	Mo94	0.322960	0.806440	0.676840
Mo951	Mo95	0.116240	0.505080	0.474220
Mo961	Mo96	0.257280	0.775890	0.642420
P651	P65	0.949160	0.498480	0.829360
P661	P66	0.823820	0.301390	0.675000
P671	P67	0.033150	0.673550	0.924220
P681	P68	0.846240	0.415360	0.727680
O4011	O401	0.779970	0.289750	0.657830
O4021	O402	0.782610	0.349850	0.777100
O4031	O403	0.843660	0.260480	0.690780
O4041	O404	0.016980	0.670710	0.965860
O4051	O405	0.034340	0.519060	0.947850
O4061	O406	0.941910	0.482850	0.972720
O4071	O407	0.061040	0.635440	0.914530
O4081	O408	0.875680	0.503840	0.918620
O4091	O409	0.990680	0.454110	0.910730
O4101	O410	0.893420	0.306790	0.743740
O4111	O411	0.850020	0.322720	0.644520
O4121	O412	0.033090	0.564690	0.875430
O4131	O413	0.815790	0.330490	0.710270
O4141	O414	0.814100	0.268320	0.766230
O4151	O415	0.999340	0.679820	0.894110
O4161	O416	0.941840	0.481320	0.789290
O4171	O417	0.798230	0.414130	0.725330
O4181	O418	0.843760	0.193510	0.734390
O4191	O419	0.922460	0.474330	0.858990
O4201	O420	0.995690	0.495870	0.840090
O4211	O421	0.862180	0.383810	0.757920
O4221	O422	0.062960	0.713240	0.924530
O4231	O423	0.860700	0.458820	0.736640
O4241	O424	0.936260	0.546270	0.827980
O4251	O425	0.864900	0.402980	0.686930
Mo971	Mo97	0.871840	0.250380	0.750870
Mo981	Mo98	0.842890	0.323290	0.770650
Mo991	Mo99	0.925630	0.469800	0.919050
Mo1001	Mo100	0.056440	0.572960	0.926840
Mo1011	Mo101	0.755080	0.366240	0.724220
Mo1021	Mo102	0.025890	0.507280	0.892420
P691	P69	0.449160	0.998480	0.329360
P701	P70	0.323820	0.801390	0.175000
P711	P71	0.533150	0.173550	0.424220
P721	P72	0.346240	0.915360	0.227680
O4261	O426	0.279970	0.789750	0.157830
O4271	O427	0.282610	0.849850	0.277100
O4281	O428	0.343660	0.760480	0.190780
O4291	O429	0.516980	0.170710	0.465860
O4301	O430	0.534340	0.019060	0.447850
O4311	O431	0.441910	0.982850	0.472720
O4321	O432	0.561040	0.135440	0.414530
O4331	O433	0.375680	0.003840	0.418620
O4341	O434	0.490680	0.954110	0.410730
O4351	O435	0.393420	0.806790	0.243740
O4361	O436	0.350020	0.822720	0.144520
O4371	O437	0.533090	0.064690	0.375430
O4381	O438	0.315790	0.830490	0.210270
O4391	O439	0.314100	0.768320	0.266230
O4401	O440	0.499340	0.179820	0.394110
O4411	O441	0.441840	0.981320	0.289290
O4421	O442	0.298230	0.914130	0.225330
O4431	O443	0.343760	0.693510	0.234390
O4441	O444	0.422460	0.974330	0.358990
O4451	O445	0.495690	0.995870	0.340090
O4461	O446	0.362180	0.883810	0.257920
O4471	O447	0.562960	0.213240	0.424530
O4481	O448	0.360700	0.958820	0.236640
O4491	O449	0.436260	0.046270	0.327980
O4501	O450	0.364900	0.902980	0.186930
Mo1031	Mo103	0.371840	0.750380	0.250870
Mo1041	Mo104	0.342890	0.823290	0.270650
Mo1051	Mo105	0.425630	0.969800	0.419050
Mo1061	Mo106	0.556440	0.072960	0.426840
Mo1071	Mo107	0.255080	0.866240	0.224220
Mo1081	Mo108	0.525890	0.007280	0.392420
P731	P73	0.550840	0.501520	0.329360
P741	P74	0.676180	0.698610	0.175000
P751	P75	0.466850	0.326450	0.424220
P761	P76	0.653760	0.584640	0.227680
O4511	O451	0.720030	0.710250	0.157830
O4521	O452	0.717390	0.650150	0.277100
O4531	O453	0.656340	0.739520	0.190780
O4541	O454	0.483020	0.329290	0.465860
O4551	O455	0.465660	0.480940	0.447850
O4561	O456	0.558090	0.517150	0.472720
O4571	O457	0.438960	0.364560	0.414530
O4581	O458	0.624320	0.496160	0.418620
O4591	O459	0.509320	0.545890	0.410730
O4601	O460	0.606580	0.693210	0.243740
O4611	O461	0.649980	0.677280	0.144520
O4621	O462	0.466910	0.435310	0.375430
O4631	O463	0.684210	0.669510	0.210270
O4641	O464	0.685900	0.731680	0.266230
O4651	O465	0.500660	0.320180	0.394110
O4661	O466	0.558160	0.518680	0.289290
O4671	O467	0.701770	0.585870	0.225330
O4681	O468	0.656240	0.806490	0.234390
O4691	O469	0.577540	0.525670	0.358990
O4701	O470	0.504310	0.504130	0.340090
O4711	O471	0.637820	0.616190	0.257920
O4721	O472	0.437040	0.286760	0.424530
O4731	O473	0.639300	0.541180	0.236640
O4741	O474	0.563740	0.453730	0.327980
O4751	O475	0.635100	0.597020	0.186930
Mo1091	Mo109	0.628160	0.749620	0.250870
Mo1101	Mo110	0.657110	0.676710	0.270650
Mo1111	Mo111	0.574370	0.530200	0.419050
Mo1121	Mo112	0.443560	0.427040	0.426840
Mo1131	Mo113	0.744920	0.633760	0.224220
Mo1141	Mo114	0.474110	0.492720	0.392420
P771	P77	0.050840	0.001520	0.829360
P781	P78	0.176180	0.198610	0.675000
P791	P79	0.966850	0.826450	0.924220
P801	P80	0.153760	0.084640	0.727680
O4761	O476	0.220030	0.210250	0.657830
O4771	O477	0.217390	0.150150	0.777100
O4781	O478	0.156340	0.239520	0.690780
O4791	O479	0.983020	0.829290	0.965860
O4801	O480	0.965660	0.980940	0.947850
O4811	O481	0.058090	0.017150	0.972720
O4821	O482	0.938960	0.864560	0.914530
O4831	O483	0.124320	0.996160	0.918620
O4841	O484	0.009320	0.045890	0.910730
O4851	O485	0.106580	0.193210	0.743740
O4861	O486	0.149980	0.177280	0.644520
O4871	O487	0.966910	0.935310	0.875430
O4881	O488	0.184210	0.169510	0.710270
O4891	O489	0.185900	0.231680	0.766230
O4901	O490	0.000660	0.820180	0.894110
O4911	O491	0.058160	0.018680	0.789290
O4921	O492	0.201770	0.085870	0.725330
O4931	O493	0.156240	0.306490	0.734390
O4941	O494	0.077540	0.025670	0.858990
O4951	O495	0.004310	0.004130	0.840090
O4961	O496	0.137820	0.116190	0.757920
O4971	O497	0.937040	0.786760	0.924530
O4981	O498	0.139300	0.041180	0.736640
O4991	O499	0.063740	0.953730	0.827980
O5001	O500	0.135100	0.097020	0.686930
Mo1151	Mo115	0.128160	0.249620	0.750870
Mo1161	Mo116	0.157110	0.176710	0.770650
Mo1171	Mo117	0.074370	0.030200	0.919050
Mo1181	Mo118	0.943560	0.927040	0.926840
Mo1191	Mo119	0.244920	0.133760	0.724220
Mo1201	Mo120	0.974110	0.992720	0.892420
P811	P81	0.251520	0.199160	0.579360
P821	P82	0.448610	0.073820	0.425000
P831	P83	0.076450	0.283150	0.674220
P841	P84	0.334640	0.096240	0.477680
O5011	O501	0.460250	0.029970	0.407830
O5021	O502	0.400150	0.032610	0.527100
O5031	O503	0.489520	0.093660	0.440780
O5041	O504	0.079290	0.266980	0.715860
O5051	O505	0.230940	0.284340	0.697850
O5061	O506	0.267150	0.191910	0.722720
O5071	O507	0.114560	0.311040	0.664530
O5081	O508	0.246160	0.125680	0.668620
O5091	O509	0.295890	0.240680	0.660730
O5101	O510	0.443210	0.143420	0.493740
O5111	O511	0.427280	0.100020	0.394520
O5121	O512	0.185310	0.283090	0.625430
O5131	O513	0.419510	0.065790	0.460270
O5141	O514	0.481680	0.064100	0.516230
O5151	O515	0.070180	0.249340	0.644110
O5161	O516	0.268680	0.191840	0.539290
O5171	O517	0.335870	0.048230	0.475330
O5181	O518	0.556490	0.093760	0.484390
O5191	O519	0.275670	0.172460	0.608990
O5201	O520	0.254130	0.245690	0.590090
O5211	O521	0.366190	0.112180	0.507920
O5221	O522	0.036760	0.312960	0.674530
O5231	O523	0.291180	0.110700	0.486640
O5241	O524	0.203730	0.186260	0.577980
O5251	O525	0.347020	0.114900	0.436930
Mo1211	Mo121	0.499620	0.121840	0.500870
Mo1221	Mo122	0.426710	0.092890	0.520650
Mo1231	Mo123	0.280200	0.175630	0.669050
Mo1241	Mo124	0.177040	0.306440	0.676840
Mo1251	Mo125	0.383760	0.005080	0.474220
Mo1261	Mo126	0.242720	0.275890	0.642420
P851	P85	0.751520	0.699160	0.079360
P861	P86	0.948610	0.573820	0.925000
P871	P87	0.576450	0.783150	0.174220
P881	P88	0.834640	0.596240	0.977680
O5261	O526	0.960250	0.529970	0.907830
O5271	O527	0.900150	0.532610	0.027100
O5281	O528	0.989520	0.593660	0.940780
O5291	O529	0.579290	0.766980	0.215860
O5301	O530	0.730940	0.784340	0.197850
O5311	O531	0.767150	0.691910	0.222720
O5321	O532	0.614560	0.811040	0.164530
O5331	O533	0.746160	0.625680	0.168620
O5341	O534	0.795890	0.740680	0.160730
O5351	O535	0.943210	0.643420	0.993740
O5361	O536	0.927280	0.600020	0.894520
O5371	O537	0.685310	0.783090	0.125430
O5381	O538	0.919510	0.565790	0.960270
O5391	O539	0.981680	0.564100	0.016230
O5401	O540	0.570180	0.749340	0.144110
O5411	O541	0.768680	0.691840	0.039290
O5421	O542	0.835870	0.548230	0.975330
O5431	O543	0.056490	0.593760	0.984390
O5441	O544	0.775670	0.672460	0.108990
O5451	O545	0.754130	0.745690	0.090090
O5461	O546	0.866190	0.612180	0.007920
O5471	O547	0.536760	0.812960	0.174530
O5481	O548	0.791180	0.610700	0.986640
O5491	O549	0.703730	0.686260	0.077980
O5501	O550	0.847020	0.614900	0.936930
Mo1271	Mo127	0.999620	0.621840	0.000870
Mo1281	Mo128	0.926710	0.592890	0.020650
Mo1291	Mo129	0.780200	0.675630	0.169050
Mo1301	Mo130	0.677040	0.806440	0.176840
Mo1311	Mo131	0.883760	0.505080	0.974220
Mo1321	Mo132	0.742720	0.775890	0.142420
P891	P89	0.248480	0.800840	0.079360
P901	P90	0.051390	0.926180	0.925000
P911	P91	0.423550	0.716850	0.174220
P921	P92	0.165360	0.903760	0.977680
O5511	O551	0.039750	0.970030	0.907830
O5521	O552	0.099850	0.967390	0.027100
O5531	O553	0.010480	0.906340	0.940780
O5541	O554	0.420710	0.733020	0.215860
O5551	O555	0.269060	0.715660	0.197850
O5561	O556	0.232850	0.808090	0.222720
O5571	O557	0.385440	0.688960	0.164530
O5581	O558	0.253840	0.874320	0.168620
O5591	O559	0.204110	0.759320	0.160730
O5601	O560	0.056790	0.856580	0.993740
O5611	O561	0.072720	0.899980	0.894520
O5621	O562	0.314690	0.716910	0.125430
O5631	O563	0.080490	0.934210	0.960270
O5641	O564	0.018320	0.935900	0.016230
O5651	O565	0.429820	0.750660	0.144110
O5661	O566	0.231320	0.808160	0.039290
O5671	O567	0.164130	0.951770	0.975330
O5681	O568	0.943510	0.906240	0.984390
O5691	O569	0.224330	0.827540	0.108990
O5701	O570	0.245870	0.754310	0.090090
O5711	O571	0.133810	0.887820	0.007920
O5721	O572	0.463240	0.687040	0.174530
O5731	O573	0.208820	0.889300	0.986640
O5741	O574	0.296270	0.813740	0.077980
O5751	O575	0.152980	0.885100	0.936930
Mo1331	Mo133	0.000380	0.878160	0.000870
Mo1341	Mo134	0.073290	0.907110	0.020650
Mo1351	Mo135	0.219800	0.824370	0.169050
Mo1361	Mo136	0.322960	0.693560	0.176840
Mo1371	Mo137	0.116240	0.994920	0.974220
Mo1381	Mo138	0.257280	0.724110	0.142420
P931	P93	0.748480	0.300840	0.579360
P941	P94	0.551390	0.426180	0.425000
P951	P95	0.923550	0.216850	0.674220
P961	P96	0.665360	0.403760	0.477680
O5761	O576	0.539750	0.470030	0.407830
O5771	O577	0.599850	0.467390	0.527100
O5781	O578	0.510480	0.406340	0.440780
O5791	O579	0.920710	0.233020	0.715860
O5801	O580	0.769060	0.215660	0.697850
O5811	O581	0.732850	0.308090	0.722720
O5821	O582	0.885440	0.188960	0.664530
O5831	O583	0.753840	0.374320	0.668620
O5841	O584	0.704110	0.259320	0.660730
O5851	O585	0.556790	0.356580	0.493740
O5861	O586	0.572720	0.399980	0.394520
O5871	O587	0.814690	0.216910	0.625430
O5881	O588	0.580490	0.434210	0.460270
O5891	O589	0.518320	0.435900	0.516230
O5901	O590	0.929820	0.250660	0.644110
O5911	O591	0.731320	0.308160	0.539290
O5921	O592	0.664130	0.451770	0.475330
O5931	O593	0.443510	0.406240	0.484390
O5941	O594	0.724330	0.327540	0.608990
O5951	O595	0.745870	0.254310	0.590090
O5961	O596	0.633810	0.387820	0.507920
O5971	O597	0.963240	0.187040	0.674530
O5981	O598	0.708820	0.389300	0.486640
O5991	O599	0.796270	0.313740	0.577980
O6001	O600	0.652980	0.385100	0.436930
Mo1391	Mo139	0.500380	0.378160	0.500870
Mo1401	Mo140	0.573290	0.407110	0.520650
Mo1411	Mo141	0.719800	0.324370	0.669050
Mo1421	Mo142	0.822960	0.193560	0.676840
Mo1431	Mo143	0.616240	0.494920	0.474220
Mo1441	Mo144	0.757280	0.224110	0.642420
P971	P97	0.550840	0.498480	0.170640
P981	P98	0.676180	0.301390	0.325000
P991	P99	0.466850	0.673550	0.075780
P1001	P100	0.653760	0.415360	0.272320
O6011	O601	0.720030	0.289750	0.342170
O6021	O602	0.717390	0.349850	0.222900
O6031	O603	0.656340	0.260480	0.309220
O6041	O604	0.483020	0.670710	0.034140
O6051	O605	0.465660	0.519060	0.052150
O6061	O606	0.558090	0.482850	0.027280
O6071	O607	0.438960	0.635440	0.085470
O6081	O608	0.624320	0.503840	0.081380
O6091	O609	0.509320	0.454110	0.089270
O6101	O610	0.606580	0.306790	0.256260
O6111	O611	0.649980	0.322720	0.355480
O6121	O612	0.466910	0.564690	0.124570
O6131	O613	0.684210	0.330490	0.289730
O6141	O614	0.685900	0.268320	0.233770
O6151	O615	0.500660	0.679820	0.105890
O6161	O616	0.558160	0.481320	0.210710
O6171	O617	0.701770	0.414130	0.274670
O6181	O618	0.656240	0.193510	0.265610
O6191	O619	0.577540	0.474330	0.141010
O6201	O620	0.504310	0.495870	0.159910
O6211	O621	0.637820	0.383810	0.242080
O6221	O622	0.437040	0.713240	0.075470
O6231	O623	0.639300	0.458820	0.263360
O6241	O624	0.563740	0.546270	0.172020
O6251	O625	0.635100	0.402980	0.313070
Mo1451	Mo145	0.628160	0.250380	0.249130
Mo1461	Mo146	0.657110	0.323290	0.229350
Mo1471	Mo147	0.574370	0.469800	0.080950
Mo1481	Mo148	0.443560	0.572960	0.073160
Mo1491	Mo149	0.744920	0.366240	0.275780
Mo1501	Mo150	0.474110	0.507280	0.107580
P1011	P101	0.050840	0.998480	0.670640
P1021	P102	0.176180	0.801390	0.825000
P1031	P103	0.966850	0.173550	0.575780
P1041	P104	0.153760	0.915360	0.772320
O6261	O626	0.220030	0.789750	0.842170
O6271	O627	0.217390	0.849850	0.722900
O6281	O628	0.156340	0.760480	0.809220
O6291	O629	0.983020	0.170710	0.534140
O6301	O630	0.965660	0.019060	0.552150
O6311	O631	0.058090	0.982850	0.527280
O6321	O632	0.938960	0.135440	0.585470
O6331	O633	0.124320	0.003840	0.581380
O6341	O634	0.009320	0.954110	0.589270
O6351	O635	0.106580	0.806790	0.756260
O6361	O636	0.149980	0.822720	0.855480
O6371	O637	0.966910	0.064690	0.624570
O6381	O638	0.184210	0.830490	0.789730
O6391	O639	0.185900	0.768320	0.733770
O6401	O640	0.000660	0.179820	0.605890
O6411	O641	0.058160	0.981320	0.710710
O6421	O642	0.201770	0.914130	0.774670
O6431	O643	0.156240	0.693510	0.765610
O6441	O644	0.077540	0.974330	0.641010
O6451	O645	0.004310	0.995870	0.659910
O6461	O646	0.137820	0.883810	0.742080
O6471	O647	0.937040	0.213240	0.575470
O6481	O648	0.139300	0.958820	0.763360
O6491	O649	0.063740	0.046270	0.672020
O6501	O650	0.135100	0.902980	0.813070
Mo1511	Mo151	0.128160	0.750380	0.749130
Mo1521	Mo152	0.157110	0.823290	0.729350
Mo1531	Mo153	0.074370	0.969800	0.580950
Mo1541	Mo154	0.943560	0.072960	0.573160
Mo1551	Mo155	0.244920	0.866240	0.775780
Mo1561	Mo156	0.974110	0.007280	0.607580
P1051	P105	0.949160	0.501520	0.670640
P1061	P106	0.823820	0.698610	0.825000
P1071	P107	0.033150	0.326450	0.575780
P1081	P108	0.846240	0.584640	0.772320
O6511	O651	0.779970	0.710250	0.842170
O6521	O652	0.782610	0.650150	0.722900
O6531	O653	0.843660	0.739520	0.809220
O6541	O654	0.016980	0.329290	0.534140
O6551	O655	0.034340	0.480940	0.552150
O6561	O656	0.941910	0.517150	0.527280
O6571	O657	0.061040	0.364560	0.585470
O6581	O658	0.875680	0.496160	0.581380
O6591	O659	0.990680	0.545890	0.589270
O6601	O660	0.893420	0.693210	0.756260
O6611	O661	0.850020	0.677280	0.855480
O6621	O662	0.033090	0.435310	0.624570
O6631	O663	0.815790	0.669510	0.789730
O6641	O664	0.814100	0.731680	0.733770
O6651	O665	0.999340	0.320180	0.605890
O6661	O666	0.941840	0.518680	0.710710
O6671	O667	0.798230	0.585870	0.774670
O6681	O668	0.843760	0.806490	0.765610
O6691	O669	0.922460	0.525670	0.641010
O6701	O670	0.995690	0.504130	0.659910
O6711	O671	0.862180	0.616190	0.742080
O6721	O672	0.062960	0.286760	0.575470
O6731	O673	0.860700	0.541180	0.763360
O6741	O674	0.936260	0.453730	0.672020
O6751	O675	0.864900	0.597020	0.813070
Mo1571	Mo157	0.871840	0.749620	0.749130
Mo1581	Mo158	0.842890	0.676710	0.729350
Mo1591	Mo159	0.925630	0.530200	0.580950
Mo1601	Mo160	0.056440	0.427040	0.573160
Mo1611	Mo161	0.755080	0.633760	0.775780
Mo1621	Mo162	0.025890	0.492720	0.607580
P1091	P109	0.449160	0.001520	0.170640
P1101	P110	0.323820	0.198610	0.325000
P1111	P111	0.533150	0.826450	0.075780
P1121	P112	0.346240	0.084640	0.272320
O6761	O676	0.279970	0.210250	0.342170
O6771	O677	0.282610	0.150150	0.222900
O6781	O678	0.343660	0.239520	0.309220
O6791	O679	0.516980	0.829290	0.034140
O6801	O680	0.534340	0.980940	0.052150
O6811	O681	0.441910	0.017150	0.027280
O6821	O682	0.561040	0.864560	0.085470
O6831	O683	0.375680	0.996160	0.081380
O6841	O684	0.490680	0.045890	0.089270
O6851	O685	0.393420	0.193210	0.256260
O6861	O686	0.350020	0.177280	0.355480
O6871	O687	0.533090	0.935310	0.124570
O6881	O688	0.315790	0.169510	0.289730
O6891	O689	0.314100	0.231680	0.233770
O6901	O690	0.499340	0.820180	0.105890
O6911	O691	0.441840	0.018680	0.210710
O6921	O692	0.298230	0.085870	0.274670
O6931	O693	0.343760	0.306490	0.265610
O6941	O694	0.422460	0.025670	0.141010
O6951	O695	0.495690	0.004130	0.159910
O6961	O696	0.362180	0.116190	0.242080
O6971	O697	0.562960	0.786760	0.075470
O6981	O698	0.360700	0.041180	0.263360
O6991	O699	0.436260	0.953730	0.172020
O7001	O700	0.364900	0.097020	0.313070
Mo1631	Mo163	0.371840	0.249620	0.249130
Mo1641	Mo164	0.342890	0.176710	0.229350
Mo1651	Mo165	0.425630	0.030200	0.080950
Mo1661	Mo166	0.556440	0.927040	0.073160
Mo1671	Mo167	0.255080	0.133760	0.275780
Mo1681	Mo168	0.525890	0.992720	0.107580
P1131	P113	0.248480	0.199160	0.420640
P1141	P114	0.051390	0.073820	0.575000
P1151	P115	0.423550	0.283150	0.325780
P1161	P116	0.165360	0.096240	0.522320
O7011	O701	0.039750	0.029970	0.592170
O7021	O702	0.099850	0.032610	0.472900
O7031	O703	0.010480	0.093660	0.559220
O7041	O704	0.420710	0.266980	0.284140
O7051	O705	0.269060	0.284340	0.302150
O7061	O706	0.232850	0.191910	0.277280
O7071	O707	0.385440	0.311040	0.335470
O7081	O708	0.253840	0.125680	0.331380
O7091	O709	0.204110	0.240680	0.339270
O7101	O710	0.056790	0.143420	0.506260
O7111	O711	0.072720	0.100020	0.605480
O7121	O712	0.314690	0.283090	0.374570
O7131	O713	0.080490	0.065790	0.539730
O7141	O714	0.018320	0.064100	0.483770
O7151	O715	0.429820	0.249340	0.355890
O7161	O716	0.231320	0.191840	0.460710
O7171	O717	0.164130	0.048230	0.524670
O7181	O718	0.943510	0.093760	0.515610
O7191	O719	0.224330	0.172460	0.391010
O7201	O720	0.245870	0.245690	0.409910
O7211	O721	0.133810	0.112180	0.492080
O7221	O722	0.463240	0.312960	0.325470
O7231	O723	0.208820	0.110700	0.513360
O7241	O724	0.296270	0.186260	0.422020
O7251	O725	0.152980	0.114900	0.563070
Mo1691	Mo169	0.000380	0.121840	0.499130
Mo1701	Mo170	0.073290	0.092890	0.479350
Mo1711	Mo171	0.219800	0.175630	0.330950
Mo1721	Mo172	0.322960	0.306440	0.323160
Mo1731	Mo173	0.116240	0.005080	0.525780
Mo1741	Mo174	0.257280	0.275890	0.357580
P1171	P117	0.748480	0.699160	0.920640
P1181	P118	0.551390	0.573820	0.075000
P1191	P119	0.923550	0.783150	0.825780
P1201	P120	0.665360	0.596240	0.022320
O7261	O726	0.539750	0.529970	0.092170
O7271	O727	0.599850	0.532610	0.972900
O7281	O728	0.510480	0.593660	0.059220
O7291	O729	0.920710	0.766980	0.784140
O7301	O730	0.769060	0.784340	0.802150
O7311	O731	0.732850	0.691910	0.777280
O7321	O732	0.885440	0.811040	0.835470
O7331	O733	0.753840	0.625680	0.831380
O7341	O734	0.704110	0.740680	0.839270
O7351	O735	0.556790	0.643420	0.006260
O7361	O736	0.572720	0.600020	0.105480
O7371	O737	0.814690	0.783090	0.874570
O7381	O738	0.580490	0.565790	0.039730
O7391	O739	0.518320	0.564100	0.983770
O7401	O740	0.929820	0.749340	0.855890
O7411	O741	0.731320	0.691840	0.960710
O7421	O742	0.664130	0.548230	0.024670
O7431	O743	0.443510	0.593760	0.015610
O7441	O744	0.724330	0.672460	0.891010
O7451	O745	0.745870	0.745690	0.909910
O7461	O746	0.633810	0.612180	0.992080
O7471	O747	0.963240	0.812960	0.825470
O7481	O748	0.708820	0.610700	0.013360
O7491	O749	0.796270	0.686260	0.922020
O7501	O750	0.652980	0.614900	0.063070
Mo1751	Mo175	0.500380	0.621840	0.999130
Mo1761	Mo176	0.573290	0.592890	0.979350
Mo1771	Mo177	0.719800	0.675630	0.830950
Mo1781	Mo178	0.822960	0.806440	0.823160
Mo1791	Mo179	0.616240	0.505080	0.025780
Mo1801	Mo180	0.757280	0.775890	0.857580
P1211	P121	0.251520	0.800840	0.920640
P1221	P122	0.448610	0.926180	0.075000
P1231	P123	0.076450	0.716850	0.825780
P1241	P124	0.334640	0.903760	0.022320
O7511	O751	0.460250	0.970030	0.092170
O7521	O752	0.400150	0.967390	0.972900
O7531	O753	0.489520	0.906340	0.059220
O7541	O754	0.079290	0.733020	0.784140
O7551	O755	0.230940	0.715660	0.802150
O7561	O756	0.267150	0.808090	0.777280
O7571	O757	0.114560	0.688960	0.835470
O7581	O758	0.246160	0.874320	0.831380
O7591	O759	0.295890	0.759320	0.839270
O7601	O760	0.443210	0.856580	0.006260
O7611	O761	0.427280	0.899980	0.105480
O7621	O762	0.185310	0.716910	0.874570
O7631	O763	0.419510	0.934210	0.039730
O7641	O764	0.481680	0.935900	0.983770
O7651	O765	0.070180	0.750660	0.855890
O7661	O766	0.268680	0.808160	0.960710
O7671	O767	0.335870	0.951770	0.024670
O7681	O768	0.556490	0.906240	0.015610
O7691	O769	0.275670	0.827540	0.891010
O7701	O770	0.254130	0.754310	0.909910
O7711	O771	0.366190	0.887820	0.992080
O7721	O772	0.036760	0.687040	0.825470
O7731	O773	0.291180	0.889300	0.013360
O7741	O774	0.203730	0.813740	0.922020
O7751	O775	0.347020	0.885100	0.063070
Mo1811	Mo181	0.499620	0.878160	0.999130
Mo1821	Mo182	0.426710	0.907110	0.979350
Mo1831	Mo183	0.280200	0.824370	0.830950
Mo1841	Mo184	0.177040	0.693560	0.823160
Mo1851	Mo185	0.383760	0.994920	0.025780
Mo1861	Mo186	0.242720	0.724110	0.857580
P1251	P125	0.751520	0.300840	0.420640
P1261	P126	0.948610	0.426180	0.575000
P1271	P127	0.576450	0.216850	0.325780
P1281	P128	0.834640	0.403760	0.522320
O7761	O776	0.960250	0.470030	0.592170
O7771	O777	0.900150	0.467390	0.472900
O7781	O778	0.989520	0.406340	0.559220
O7791	O779	0.579290	0.233020	0.284140
O7801	O780	0.730940	0.215660	0.302150
O7811	O781	0.767150	0.308090	0.277280
O7821	O782	0.614560	0.188960	0.335470
O7831	O783	0.746160	0.374320	0.331380
O7841	O784	0.795890	0.259320	0.339270
O7851	O785	0.943210	0.356580	0.506260
O7861	O786	0.927280	0.399980	0.605480
O7871	O787	0.685310	0.216910	0.374570
O7881	O788	0.919510	0.434210	0.539730
O7891	O789	0.981680	0.435900	0.483770
O7901	O790	0.570180	0.250660	0.355890
O7911	O791	0.768680	0.308160	0.460710
O7921	O792	0.835870	0.451770	0.524670
O7931	O793	0.056490	0.406240	0.515610
O7941	O794	0.775670	0.327540	0.391010
O7951	O795	0.754130	0.254310	0.409910
O7961	O796	0.866190	0.387820	0.492080
O7971	O797	0.536760	0.187040	0.325470
O7981	O798	0.791180	0.389300	0.513360
O7991	O799	0.703730	0.313740	0.422020
O8001	O800	0.847020	0.385100	0.563070
Mo1871	Mo187	0.999620	0.378160	0.499130
Mo1881	Mo188	0.926710	0.407110	0.479350
Mo1891	Mo189	0.780200	0.324370	0.330950
Mo1901	Mo190	0.677040	0.193560	0.323160
Mo1911	Mo191	0.883760	0.494920	0.525780
Mo1921	Mo192	0.742720	0.224110	0.357580
Zn11	Zn1	0.097900	0.500000	0.250000
Zn21	Zn2	0.597900	0.000000	0.750000
Zn31	Zn3	0.402100	0.500000	0.750000
Zn41	Zn4	0.902100	0.000000	0.250000
Zn51	Zn5	0.750000	0.847900	0.500000
Zn61	Zn6	0.250000	0.347900	0.000000
Zn71	Zn7	0.750000	0.152100	0.000000
Zn81	Zn8	0.250000	0.652100	0.500000
Zn91	Zn9	0.902100	0.500000	0.750000
Zn101	Zn10	0.402100	0.000000	0.250000
Zn111	Zn11	0.597900	0.500000	0.250000
Zn121	Zn12	0.097900	0.000000	0.750000
Zn131	Zn13	0.250000	0.152100	0.500000
Zn141	Zn14	0.750000	0.652100	0.000000
Zn151	Zn15	0.250000	0.847900	0.000000
Zn161	Zn16	0.750000	0.347900	0.500000
Zn171	Zn17	0.250000	0.750000	0.250000
Zn181	Zn18	0.250000	0.250000	0.750000
Zn191	Zn19	0.500000	0.000000	0.500000
Zn201	Zn20	0.000000	0.500000	0.000000
Zn211	Zn21	0.000000	0.000000	0.000000
Zn221	Zn22	0.500000	0.500000	0.500000
Zn231	Zn23	0.250000	0.750000	0.750000
Zn241	Zn24	0.250000	0.250000	0.250000
Zn251	Zn25	0.000000	0.000000	0.500000
Zn261	Zn26	0.500000	0.500000	0.000000
Zn271	Zn27	0.500000	0.000000	0.000000
Zn281	Zn28	0.000000	0.500000	0.500000
Zn291	Zn29	0.750000	0.250000	0.750000
Zn301	Zn30	0.750000	0.750000	0.250000
Zn311	Zn31	0.750000	0.250000	0.250000
Zn321	Zn32	0.750000	0.750000	0.750000
