data_NAGQOD_clean_PM
_symmetry_space_group_name_H-M	'P1'
_cell_length_a	27.720000
_cell_length_b	27.720000
_cell_length_c	9.713500
_cell_angle_alpha	90.000000
_cell_angle_beta	90.000000
_cell_angle_gamma	120.000000
_symmetry_Int_Tables_number 1

loop_
_symmetry_equiv_pos_as_xyz
'x,y,z'

loop_
_atom_site_label
_atom_site_type_symbol
_atom_site_fract_x
_atom_site_fract_y
_atom_site_fract_z
N11	N1	0.545320	0.013780	0.175000
N21	N2	0.596190	0.053400	0.220500
N31	N3	0.554610	0.986870	0.385500
N41	N4	0.444020	0.929580	0.128200
N51	N5	0.748930	0.126110	0.576500
C11	C1	0.391800	0.889800	0.102300
H11	H1	0.376900	0.888900	0.015900
C21	C2	0.359100	0.850500	0.197000
H21	H2	0.322600	0.824000	0.175700
C31	C3	0.381100	0.850600	0.324600
H31	H3	0.359700	0.823700	0.389700
C41	C4	0.434300	0.890300	0.354400
H41	H4	0.449600	0.891200	0.440200
C51	C5	0.465600	0.929600	0.254500
C61	C6	0.521900	0.975500	0.274500
C71	C7	0.599300	0.034700	0.346400
C81	C8	0.650190	0.066700	0.429400
C91	C9	0.691500	0.118300	0.387800
H51	H5	0.687100	0.134100	0.307800
C101	C10	0.739100	0.146300	0.463500
H61	H6	0.766100	0.181500	0.434100
C111	C11	0.708600	0.075800	0.616400
H71	H7	0.714300	0.060400	0.695500
C121	C12	0.659300	0.045700	0.547100
H81	H8	0.632200	0.011100	0.580100
N61	N6	0.211990	0.347110	0.508330
N71	N7	0.262860	0.386730	0.553830
N81	N8	0.221280	0.320200	0.718830
N91	N9	0.110690	0.262910	0.461530
N101	N10	0.415600	0.459440	0.909830
C131	C13	0.058470	0.223130	0.435630
H91	H9	0.043570	0.222230	0.349230
C141	C14	0.025770	0.183830	0.530330
H101	H10	0.989270	0.157330	0.509030
C151	C15	0.047770	0.183930	0.657930
H111	H11	0.026370	0.157030	0.723030
C161	C16	0.100970	0.223630	0.687730
H121	H12	0.116270	0.224530	0.773530
C171	C17	0.132270	0.262930	0.587830
C181	C18	0.188570	0.308830	0.607830
C191	C19	0.265970	0.368030	0.679730
C201	C20	0.316860	0.400030	0.762730
C211	C21	0.358170	0.451630	0.721130
H131	H13	0.353770	0.467430	0.641130
C221	C22	0.405770	0.479630	0.796830
H141	H14	0.432770	0.514830	0.767430
C231	C23	0.375270	0.409130	0.949730
H151	H15	0.380970	0.393730	0.028830
C241	C24	0.325970	0.379030	0.880430
H161	H16	0.298870	0.344430	0.913430
N111	N11	0.878650	0.680450	0.841670
N121	N12	0.929520	0.720070	0.887170
N131	N13	0.887940	0.653540	0.052170
N141	N14	0.777350	0.596250	0.794870
N151	N15	0.082260	0.792780	0.243170
C251	C25	0.725130	0.556470	0.768970
H171	H17	0.710230	0.555570	0.682570
C261	C26	0.692430	0.517170	0.863670
H181	H18	0.655930	0.490670	0.842370
C271	C27	0.714430	0.517270	0.991270
H191	H19	0.693030	0.490370	0.056370
C281	C28	0.767630	0.556970	0.021070
H201	H20	0.782930	0.557870	0.106870
C291	C29	0.798930	0.596270	0.921170
C301	C30	0.855230	0.642170	0.941170
C311	C31	0.932630	0.701370	0.013070
C321	C32	0.983520	0.733370	0.096070
C331	C33	0.024830	0.784970	0.054470
H211	H21	0.020430	0.800770	0.974470
C341	C34	0.072430	0.812970	0.130170
H221	H22	0.099430	0.848170	0.100770
C351	C35	0.041930	0.742470	0.283070
H231	H23	0.047630	0.727070	0.362170
C361	C36	0.992630	0.712370	0.213770
H241	H24	0.965530	0.677770	0.246770
N161	N16	0.986220	0.531540	0.175000
N171	N17	0.946600	0.542790	0.220500
N181	N18	0.013130	0.567740	0.385500
N191	N19	0.070420	0.514440	0.128200
N201	N20	0.873890	0.622820	0.576500
C371	C37	0.110200	0.502000	0.102300
H251	H25	0.111100	0.488000	0.015900
C381	C38	0.149500	0.508600	0.197000
H261	H26	0.176000	0.498600	0.175700
C391	C39	0.149400	0.530500	0.324600
H271	H27	0.176300	0.536000	0.389700
C401	C40	0.109700	0.544000	0.354400
H281	H28	0.108800	0.558400	0.440200
C411	C41	0.070400	0.536000	0.254500
C421	C42	0.024500	0.546400	0.274500
C431	C43	0.965300	0.564600	0.346400
C441	C44	0.933300	0.583490	0.429400
C451	C45	0.881700	0.573200	0.387800
H291	H29	0.865900	0.553000	0.307800
C461	C46	0.853700	0.592800	0.463500
H301	H30	0.818500	0.584600	0.434100
C471	C47	0.924200	0.632800	0.616400
H311	H31	0.939600	0.653900	0.695500
C481	C48	0.954300	0.613600	0.547100
H321	H32	0.988900	0.621100	0.580100
N211	N21	0.652890	0.864870	0.508330
N221	N22	0.613270	0.876120	0.553830
N231	N23	0.679800	0.901070	0.718830
N241	N24	0.737090	0.847770	0.461530
N251	N25	0.540560	0.956150	0.909830
C491	C49	0.776870	0.835330	0.435630
H331	H33	0.777770	0.821330	0.349230
C501	C50	0.816170	0.841930	0.530330
H341	H34	0.842670	0.831930	0.509030
C511	C51	0.816070	0.863830	0.657930
H351	H35	0.842970	0.869330	0.723030
C521	C52	0.776370	0.877330	0.687730
H361	H36	0.775470	0.891730	0.773530
C531	C53	0.737070	0.869330	0.587830
C541	C54	0.691170	0.879730	0.607830
C551	C55	0.631970	0.897930	0.679730
C561	C56	0.599970	0.916820	0.762730
C571	C57	0.548370	0.906530	0.721130
H371	H37	0.532570	0.886330	0.641130
C581	C58	0.520370	0.926130	0.796830
H381	H38	0.485170	0.917930	0.767430
C591	C59	0.590870	0.966130	0.949730
H391	H39	0.606270	0.987230	0.028830
C601	C60	0.620970	0.946930	0.880430
H401	H40	0.655570	0.954430	0.913430
N261	N26	0.319550	0.198210	0.841670
N271	N27	0.279930	0.209460	0.887170
N281	N28	0.346460	0.234410	0.052170
N291	N29	0.403750	0.181110	0.794870
N301	N30	0.207220	0.289490	0.243170
C611	C61	0.443530	0.168670	0.768970
H411	H41	0.444430	0.154670	0.682570
C621	C62	0.482830	0.175270	0.863670
H421	H42	0.509330	0.165270	0.842370
C631	C63	0.482730	0.197170	0.991270
H431	H43	0.509630	0.202670	0.056370
C641	C64	0.443030	0.210670	0.021070
H441	H44	0.442130	0.225070	0.106870
C651	C65	0.403730	0.202670	0.921170
C661	C66	0.357830	0.213070	0.941170
C671	C67	0.298630	0.231270	0.013070
C681	C68	0.266630	0.250160	0.096070
C691	C69	0.215030	0.239870	0.054470
H451	H45	0.199230	0.219670	0.974470
C701	C70	0.187030	0.259470	0.130170
H461	H46	0.151830	0.251270	0.100770
C711	C71	0.257530	0.299470	0.283070
H471	H47	0.272930	0.320570	0.362170
C721	C72	0.287630	0.280270	0.213770
H481	H48	0.322230	0.287770	0.246770
N311	N31	0.468460	0.454680	0.175000
N321	N32	0.457210	0.403810	0.220500
N331	N33	0.432260	0.445390	0.385500
N341	N34	0.485560	0.555980	0.128200
N351	N35	0.377180	0.251070	0.576500
C731	C73	0.498000	0.608200	0.102300
H491	H49	0.512000	0.623100	0.015900
C741	C74	0.491400	0.640900	0.197000
H501	H50	0.501400	0.677400	0.175700
C751	C75	0.469500	0.618900	0.324600
H511	H51	0.464000	0.640300	0.389700
C761	C76	0.456000	0.565700	0.354400
H521	H52	0.441600	0.550400	0.440200
C771	C77	0.464000	0.534400	0.254500
C781	C78	0.453600	0.478100	0.274500
C791	C79	0.435400	0.400700	0.346400
C801	C80	0.416510	0.349810	0.429400
C811	C81	0.426800	0.308500	0.387800
H531	H53	0.447000	0.312900	0.307800
C821	C82	0.407200	0.260900	0.463500
H541	H54	0.415400	0.233900	0.434100
C831	C83	0.367200	0.291400	0.616400
H551	H55	0.346100	0.285700	0.695500
C841	C84	0.386400	0.340700	0.547100
H561	H56	0.378900	0.367800	0.580100
N361	N36	0.135130	0.788010	0.508330
N371	N37	0.123880	0.737140	0.553830
N381	N38	0.098930	0.778720	0.718830
N391	N39	0.152230	0.889310	0.461530
N401	N40	0.043850	0.584400	0.909830
C851	C85	0.164670	0.941530	0.435630
H571	H57	0.178670	0.956430	0.349230
C861	C86	0.158070	0.974230	0.530330
H581	H58	0.168070	0.010730	0.509030
C871	C87	0.136170	0.952230	0.657930
H591	H59	0.130670	0.973630	0.723030
C881	C88	0.122670	0.899030	0.687730
H601	H60	0.108270	0.883730	0.773530
C891	C89	0.130670	0.867730	0.587830
C901	C90	0.120270	0.811430	0.607830
C911	C91	0.102070	0.734030	0.679730
C921	C92	0.083180	0.683140	0.762730
C931	C93	0.093470	0.641830	0.721130
H611	H61	0.113670	0.646230	0.641130
C941	C94	0.073870	0.594230	0.796830
H621	H62	0.082070	0.567230	0.767430
C951	C95	0.033870	0.624730	0.949730
H631	H63	0.012770	0.619030	0.028830
C961	C96	0.053070	0.674030	0.880430
H641	H64	0.045570	0.701130	0.913430
N411	N41	0.801790	0.121350	0.841670
N421	N42	0.790540	0.070480	0.887170
N431	N43	0.765590	0.112060	0.052170
N441	N44	0.818890	0.222650	0.794870
N451	N45	0.710510	0.917740	0.243170
C971	C97	0.831330	0.274870	0.768970
H651	H65	0.845330	0.289770	0.682570
C981	C98	0.824730	0.307570	0.863670
H661	H66	0.834730	0.344070	0.842370
C991	C99	0.802830	0.285570	0.991270
H671	H67	0.797330	0.306970	0.056370
C1001	C100	0.789330	0.232370	0.021070
H681	H68	0.774930	0.217070	0.106870
C1011	C101	0.797330	0.201070	0.921170
C1021	C102	0.786930	0.144770	0.941170
C1031	C103	0.768730	0.067370	0.013070
C1041	C104	0.749840	0.016480	0.096070
C1051	C105	0.760130	0.975170	0.054470
H691	H69	0.780330	0.979570	0.974470
C1061	C106	0.740530	0.927570	0.130170
H701	H70	0.748730	0.900570	0.100770
C1071	C107	0.700530	0.958070	0.283070
H711	H71	0.679430	0.952370	0.362170
C1081	C108	0.719730	0.007370	0.213770
H721	H72	0.712230	0.034470	0.246770
N461	N46	0.454680	0.986220	0.825000
N471	N47	0.403810	0.946600	0.779500
N481	N48	0.445390	0.013130	0.614500
N491	N49	0.555980	0.070420	0.871800
N501	N50	0.251070	0.873890	0.423500
C1091	C109	0.608200	0.110200	0.897700
H731	H73	0.623100	0.111100	0.984100
C1101	C110	0.640900	0.149500	0.803000
H741	H74	0.677400	0.176000	0.824300
C1111	C111	0.618900	0.149400	0.675400
H751	H75	0.640300	0.176300	0.610300
C1121	C112	0.565700	0.109700	0.645600
H761	H76	0.550400	0.108800	0.559800
C1131	C113	0.534400	0.070400	0.745500
C1141	C114	0.478100	0.024500	0.725500
C1151	C115	0.400700	0.965300	0.653600
C1161	C116	0.349810	0.933300	0.570600
C1171	C117	0.308500	0.881700	0.612200
H771	H77	0.312900	0.865900	0.692200
C1181	C118	0.260900	0.853700	0.536500
H781	H78	0.233900	0.818500	0.565900
C1191	C119	0.291400	0.924200	0.383600
H791	H79	0.285700	0.939600	0.304500
C1201	C120	0.340700	0.954300	0.452900
H801	H80	0.367800	0.988900	0.419900
N511	N51	0.121350	0.319550	0.158330
N521	N52	0.070480	0.279930	0.112830
N531	N53	0.112060	0.346460	0.947830
N541	N54	0.222650	0.403750	0.205130
N551	N55	0.917740	0.207220	0.756830
C1211	C121	0.274870	0.443530	0.231030
H811	H81	0.289770	0.444430	0.317430
C1221	C122	0.307570	0.482830	0.136330
H821	H82	0.344070	0.509330	0.157630
C1231	C123	0.285570	0.482730	0.008730
H831	H83	0.306970	0.509630	0.943630
C1241	C124	0.232370	0.443030	0.978930
H841	H84	0.217070	0.442130	0.893130
C1251	C125	0.201070	0.403730	0.078830
C1261	C126	0.144770	0.357830	0.058830
C1271	C127	0.067370	0.298630	0.986930
C1281	C128	0.016480	0.266630	0.903930
C1291	C129	0.975170	0.215030	0.945530
H851	H85	0.979570	0.199230	0.025530
C1301	C130	0.927570	0.187030	0.869830
H861	H86	0.900570	0.151830	0.899230
C1311	C131	0.958070	0.257530	0.716930
H871	H87	0.952370	0.272930	0.637830
C1321	C132	0.007370	0.287630	0.786230
H881	H88	0.034470	0.322230	0.753230
N561	N56	0.788010	0.652890	0.491670
N571	N57	0.737140	0.613270	0.446170
N581	N58	0.778720	0.679800	0.281170
N591	N59	0.889310	0.737090	0.538470
N601	N60	0.584400	0.540560	0.090170
C1331	C133	0.941530	0.776870	0.564370
H891	H89	0.956430	0.777770	0.650770
C1341	C134	0.974230	0.816170	0.469670
H901	H90	0.010730	0.842670	0.490970
C1351	C135	0.952230	0.816070	0.342070
H911	H91	0.973630	0.842970	0.276970
C1361	C136	0.899030	0.776370	0.312270
H921	H92	0.883730	0.775470	0.226470
C1371	C137	0.867730	0.737070	0.412170
C1381	C138	0.811430	0.691170	0.392170
C1391	C139	0.734030	0.631970	0.320270
C1401	C140	0.683140	0.599970	0.237270
C1411	C141	0.641830	0.548370	0.278870
H931	H93	0.646230	0.532570	0.358870
C1421	C142	0.594230	0.520370	0.203170
H941	H94	0.567230	0.485170	0.232570
C1431	C143	0.624730	0.590870	0.050270
H951	H95	0.619030	0.606270	0.971170
C1441	C144	0.674030	0.620970	0.119570
H961	H96	0.701130	0.655570	0.086570
N611	N61	0.013780	0.468460	0.825000
N621	N62	0.053400	0.457210	0.779500
N631	N63	0.986870	0.432260	0.614500
N641	N64	0.929580	0.485560	0.871800
N651	N65	0.126110	0.377180	0.423500
C1451	C145	0.889800	0.498000	0.897700
H971	H97	0.888900	0.512000	0.984100
C1461	C146	0.850500	0.491400	0.803000
H981	H98	0.824000	0.501400	0.824300
C1471	C147	0.850600	0.469500	0.675400
H991	H99	0.823700	0.464000	0.610300
C1481	C148	0.890300	0.456000	0.645600
H1001	H100	0.891200	0.441600	0.559800
C1491	C149	0.929600	0.464000	0.745500
C1501	C150	0.975500	0.453600	0.725500
C1511	C151	0.034700	0.435400	0.653600
C1521	C152	0.066700	0.416510	0.570600
C1531	C153	0.118300	0.426800	0.612200
H1011	H101	0.134100	0.447000	0.692200
C1541	C154	0.146300	0.407200	0.536500
H1021	H102	0.181500	0.415400	0.565900
C1551	C155	0.075800	0.367200	0.383600
H1031	H103	0.060400	0.346100	0.304500
C1561	C156	0.045700	0.386400	0.452900
H1041	H104	0.011100	0.378900	0.419900
N661	N66	0.680450	0.801790	0.158330
N671	N67	0.720070	0.790540	0.112830
N681	N68	0.653540	0.765590	0.947830
N691	N69	0.596250	0.818890	0.205130
N701	N70	0.792780	0.710510	0.756830
C1571	C157	0.556470	0.831330	0.231030
H1051	H105	0.555570	0.845330	0.317430
C1581	C158	0.517170	0.824730	0.136330
H1061	H106	0.490670	0.834730	0.157630
C1591	C159	0.517270	0.802830	0.008730
H1071	H107	0.490370	0.797330	0.943630
C1601	C160	0.556970	0.789330	0.978930
H1081	H108	0.557870	0.774930	0.893130
C1611	C161	0.596270	0.797330	0.078830
C1621	C162	0.642170	0.786930	0.058830
C1631	C163	0.701370	0.768730	0.986930
C1641	C164	0.733370	0.749840	0.903930
C1651	C165	0.784970	0.760130	0.945530
H1091	H109	0.800770	0.780330	0.025530
C1661	C166	0.812970	0.740530	0.869830
H1101	H110	0.848170	0.748730	0.899230
C1671	C167	0.742470	0.700530	0.716930
H1111	H111	0.727070	0.679430	0.637830
C1681	C168	0.712370	0.719730	0.786230
H1121	H112	0.677770	0.712230	0.753230
N711	N71	0.347110	0.135130	0.491670
N721	N72	0.386730	0.123880	0.446170
N731	N73	0.320200	0.098930	0.281170
N741	N74	0.262910	0.152230	0.538470
N751	N75	0.459440	0.043850	0.090170
C1691	C169	0.223130	0.164670	0.564370
H1131	H113	0.222230	0.178670	0.650770
C1701	C170	0.183830	0.158070	0.469670
H1141	H114	0.157330	0.168070	0.490970
C1711	C171	0.183930	0.136170	0.342070
H1151	H115	0.157030	0.130670	0.276970
C1721	C172	0.223630	0.122670	0.312270
H1161	H116	0.224530	0.108270	0.226470
C1731	C173	0.262930	0.130670	0.412170
C1741	C174	0.308830	0.120270	0.392170
C1751	C175	0.368030	0.102070	0.320270
C1761	C176	0.400030	0.083180	0.237270
C1771	C177	0.451630	0.093470	0.278870
H1171	H117	0.467430	0.113670	0.358870
C1781	C178	0.479630	0.073870	0.203170
H1181	H118	0.514830	0.082070	0.232570
C1791	C179	0.409130	0.033870	0.050270
H1191	H119	0.393730	0.012770	0.971170
C1801	C180	0.379030	0.053070	0.119570
H1201	H120	0.344430	0.045570	0.086570
N761	N76	0.531540	0.545320	0.825000
N771	N77	0.542790	0.596190	0.779500
N781	N78	0.567740	0.554610	0.614500
N791	N79	0.514440	0.444020	0.871800
N801	N80	0.622820	0.748930	0.423500
C1811	C181	0.502000	0.391800	0.897700
H1211	H121	0.488000	0.376900	0.984100
C1821	C182	0.508600	0.359100	0.803000
H1221	H122	0.498600	0.322600	0.824300
C1831	C183	0.530500	0.381100	0.675400
H1231	H123	0.536000	0.359700	0.610300
C1841	C184	0.544000	0.434300	0.645600
H1241	H124	0.558400	0.449600	0.559800
C1851	C185	0.536000	0.465600	0.745500
C1861	C186	0.546400	0.521900	0.725500
C1871	C187	0.564600	0.599300	0.653600
C1881	C188	0.583490	0.650190	0.570600
C1891	C189	0.573200	0.691500	0.612200
H1251	H125	0.553000	0.687100	0.692200
C1901	C190	0.592800	0.739100	0.536500
H1261	H126	0.584600	0.766100	0.565900
C1911	C191	0.632800	0.708600	0.383600
H1271	H127	0.653900	0.714300	0.304500
C1921	C192	0.613600	0.659300	0.452900
H1281	H128	0.621100	0.632200	0.419900
N811	N81	0.198210	0.878650	0.158330
N821	N82	0.209460	0.929520	0.112830
N831	N83	0.234410	0.887940	0.947830
N841	N84	0.181110	0.777350	0.205130
N851	N85	0.289490	0.082260	0.756830
C1931	C193	0.168670	0.725130	0.231030
H1291	H129	0.154670	0.710230	0.317430
C1941	C194	0.175270	0.692430	0.136330
H1301	H130	0.165270	0.655930	0.157630
C1951	C195	0.197170	0.714430	0.008730
H1311	H131	0.202670	0.693030	0.943630
C1961	C196	0.210670	0.767630	0.978930
H1321	H132	0.225070	0.782930	0.893130
C1971	C197	0.202670	0.798930	0.078830
C1981	C198	0.213070	0.855230	0.058830
C1991	C199	0.231270	0.932630	0.986930
C2001	C200	0.250160	0.983520	0.903930
C2011	C201	0.239870	0.024830	0.945530
H1331	H133	0.219670	0.020430	0.025530
C2021	C202	0.259470	0.072430	0.869830
H1341	H134	0.251270	0.099430	0.899230
C2031	C203	0.299470	0.041930	0.716930
H1351	H135	0.320570	0.047630	0.637830
C2041	C204	0.280270	0.992630	0.786230
H1361	H136	0.287770	0.965530	0.753230
N861	N86	0.864870	0.211990	0.491670
N871	N87	0.876120	0.262860	0.446170
N881	N88	0.901070	0.221280	0.281170
N891	N89	0.847770	0.110690	0.538470
N901	N90	0.956150	0.415600	0.090170
C2051	C205	0.835330	0.058470	0.564370
H1371	H137	0.821330	0.043570	0.650770
C2061	C206	0.841930	0.025770	0.469670
H1381	H138	0.831930	0.989270	0.490970
C2071	C207	0.863830	0.047770	0.342070
H1391	H139	0.869330	0.026370	0.276970
C2081	C208	0.877330	0.100970	0.312270
H1401	H140	0.891730	0.116270	0.226470
C2091	C209	0.869330	0.132270	0.412170
C2101	C210	0.879730	0.188570	0.392170
C2111	C211	0.897930	0.265970	0.320270
C2121	C212	0.916820	0.316860	0.237270
C2131	C213	0.906530	0.358170	0.278870
H1411	H141	0.886330	0.353770	0.358870
C2141	C214	0.926130	0.405770	0.203170
H1421	H142	0.917930	0.432770	0.232570
C2151	C215	0.966130	0.375270	0.050270
H1431	H143	0.987230	0.380970	0.971170
C2161	C216	0.946930	0.325970	0.119570
H1441	H144	0.954430	0.298870	0.086570
Co11	Co1	0.500000	0.000000	0.000000
Co21	Co2	0.166670	0.333330	0.333330
Co31	Co3	0.833330	0.666670	0.666670
Co41	Co4	0.000000	0.500000	0.000000
Co51	Co5	0.666670	0.833330	0.333330
Co61	Co6	0.333330	0.166670	0.666670
Co71	Co7	0.500000	0.500000	0.000000
Co81	Co8	0.166670	0.833330	0.333330
Co91	Co9	0.833330	0.166670	0.666670
