data_NAHNES_clean_PM
_symmetry_space_group_name_H-M	'P1'
_cell_length_a	19.259000
_cell_length_b	19.259000
_cell_length_c	61.225600
_cell_angle_alpha	90.000000
_cell_angle_beta	90.000000
_cell_angle_gamma	90.000000
_symmetry_Int_Tables_number 1

loop_
_symmetry_equiv_pos_as_xyz
'x,y,z'

loop_
_atom_site_label
_atom_site_type_symbol
_atom_site_fract_x
_atom_site_fract_y
_atom_site_fract_z
O11	O1	0.570320	0.446540	0.524810
O21	O2	0.571100	0.561400	0.520580
O31	O3	0.928800	0.678670	0.606650
C11	C1	0.762030	0.540310	0.606210
C21	C2	0.636320	0.514080	0.549280
C31	C3	0.719070	0.530550	0.586380
C41	C4	0.589460	0.506500	0.530080
C51	C5	0.813980	0.590720	0.606250
H11	H1	0.822800	0.616900	0.593400
C61	C6	0.698090	0.588160	0.574400
H21	H2	0.712000	0.633300	0.578900
C71	C7	0.656680	0.580330	0.555790
H31	H3	0.642500	0.619900	0.547700
C81	C8	0.657690	0.456700	0.560980
H41	H4	0.644400	0.411500	0.556300
C91	C9	0.698610	0.464720	0.579530
H51	H5	0.712700	0.425000	0.587600
C101	C10	0.558040	0.714290	0.496240
H61	H6	0.601100	0.690300	0.496100
O41	O4	0.070320	0.946540	0.024810
O51	O5	0.071100	0.061400	0.020580
O61	O6	0.428800	0.178670	0.106650
C111	C11	0.262030	0.040310	0.106210
C121	C12	0.136320	0.014080	0.049280
C131	C13	0.219070	0.030550	0.086380
C141	C14	0.089460	0.006500	0.030080
C151	C15	0.313980	0.090720	0.106250
H71	H7	0.322800	0.116900	0.093400
C161	C16	0.198090	0.088160	0.074400
H81	H8	0.212000	0.133300	0.078900
C171	C17	0.156680	0.080330	0.055790
H91	H9	0.142500	0.119900	0.047700
C181	C18	0.157690	0.956700	0.060980
H101	H10	0.144400	0.911500	0.056300
C191	C19	0.198610	0.964720	0.079530
H111	H11	0.212700	0.925000	0.087600
C201	C20	0.058040	0.214290	0.996240
H121	H12	0.101100	0.190300	0.996100
O71	O7	0.929680	0.553460	0.024810
O81	O8	0.928900	0.438600	0.020580
O91	O9	0.571200	0.321330	0.106650
C211	C21	0.737970	0.459690	0.106210
C221	C22	0.863680	0.485920	0.049280
C231	C23	0.780930	0.469450	0.086380
C241	C24	0.910540	0.493500	0.030080
C251	C25	0.686020	0.409280	0.106250
H131	H13	0.677200	0.383100	0.093400
C261	C26	0.801910	0.411840	0.074400
H141	H14	0.788000	0.366700	0.078900
C271	C27	0.843320	0.419670	0.055790
H151	H15	0.857500	0.380100	0.047700
C281	C28	0.842310	0.543300	0.060980
H161	H16	0.855600	0.588500	0.056300
C291	C29	0.801390	0.535280	0.079530
H171	H17	0.787300	0.575000	0.087600
C301	C30	0.941960	0.285710	0.996240
H181	H18	0.898900	0.309700	0.996100
O101	O10	0.429680	0.053460	0.524810
O111	O11	0.428900	0.938600	0.520580
O121	O12	0.071200	0.821330	0.606650
C311	C31	0.237970	0.959690	0.606210
C321	C32	0.363680	0.985920	0.549280
C331	C33	0.280930	0.969450	0.586380
C341	C34	0.410540	0.993500	0.530080
C351	C35	0.186020	0.909280	0.606250
H191	H19	0.177200	0.883100	0.593400
C361	C36	0.301910	0.911840	0.574400
H201	H20	0.288000	0.866700	0.578900
C371	C37	0.343320	0.919670	0.555790
H211	H21	0.357500	0.880100	0.547700
C381	C38	0.342310	0.043300	0.560980
H221	H22	0.355600	0.088500	0.556300
C391	C39	0.301390	0.035280	0.579530
H231	H23	0.287300	0.075000	0.587600
C401	C40	0.441960	0.785710	0.496240
H241	H24	0.398900	0.809700	0.496100
O131	O13	0.803460	0.320320	0.774810
O141	O14	0.688600	0.321100	0.770580
O151	O15	0.571330	0.678800	0.856650
C411	C41	0.709690	0.512030	0.856210
C421	C42	0.735920	0.386320	0.799280
C431	C43	0.719450	0.469070	0.836380
C441	C44	0.743500	0.339460	0.780080
C451	C45	0.659280	0.563980	0.856250
H251	H25	0.633100	0.572800	0.843400
C461	C46	0.661840	0.448090	0.824400
H261	H26	0.616700	0.462000	0.828900
C471	C47	0.669670	0.406680	0.805790
H271	H27	0.630100	0.392500	0.797700
C481	C48	0.793300	0.407690	0.810980
H281	H28	0.838500	0.394400	0.806300
C491	C49	0.785280	0.448610	0.829530
H291	H29	0.825000	0.462700	0.837600
C501	C50	0.535710	0.308040	0.746240
H301	H30	0.559700	0.351100	0.746100
O161	O16	0.303460	0.820320	0.274810
O171	O17	0.188600	0.821100	0.270580
O181	O18	0.071330	0.178800	0.356650
C511	C51	0.209690	0.012030	0.356210
C521	C52	0.235920	0.886320	0.299280
C531	C53	0.219450	0.969070	0.336380
C541	C54	0.243500	0.839460	0.280080
C551	C55	0.159280	0.063980	0.356250
H311	H31	0.133100	0.072800	0.343400
C561	C56	0.161840	0.948090	0.324400
H321	H32	0.116700	0.962000	0.328900
C571	C57	0.169670	0.906680	0.305790
H331	H33	0.130100	0.892500	0.297700
C581	C58	0.293300	0.907690	0.310980
H341	H34	0.338500	0.894400	0.306300
C591	C59	0.285280	0.948610	0.329530
H351	H35	0.325000	0.962700	0.337600
C601	C60	0.035710	0.808040	0.246240
H361	H36	0.059700	0.851100	0.246100
O191	O19	0.696540	0.679680	0.274810
O201	O20	0.811400	0.678900	0.270580
O211	O21	0.928670	0.321200	0.356650
C611	C61	0.790310	0.487970	0.356210
C621	C62	0.764080	0.613680	0.299280
C631	C63	0.780550	0.530930	0.336380
C641	C64	0.756500	0.660540	0.280080
C651	C65	0.840720	0.436020	0.356250
H371	H37	0.866900	0.427200	0.343400
C661	C66	0.838160	0.551910	0.324400
H381	H38	0.883300	0.538000	0.328900
C671	C67	0.830330	0.593320	0.305790
H391	H39	0.869900	0.607500	0.297700
C681	C68	0.706700	0.592310	0.310980
H401	H40	0.661500	0.605600	0.306300
C691	C69	0.714720	0.551390	0.329530
H411	H41	0.675000	0.537300	0.337600
C701	C70	0.964290	0.691960	0.246240
H421	H42	0.940300	0.648900	0.246100
O221	O22	0.196540	0.179680	0.774810
O231	O23	0.311400	0.178900	0.770580
O241	O24	0.428670	0.821200	0.856650
C711	C71	0.290310	0.987970	0.856210
C721	C72	0.264080	0.113680	0.799280
C731	C73	0.280550	0.030930	0.836380
C741	C74	0.256500	0.160540	0.780080
C751	C75	0.340720	0.936020	0.856250
H431	H43	0.366900	0.927200	0.843400
C761	C76	0.338160	0.051910	0.824400
H441	H44	0.383300	0.038000	0.828900
C771	C77	0.330330	0.093320	0.805790
H451	H45	0.369900	0.107500	0.797700
C781	C78	0.206700	0.092310	0.810980
H461	H46	0.161500	0.105600	0.806300
C791	C79	0.214720	0.051390	0.829530
H471	H47	0.175000	0.037300	0.837600
C801	C80	0.464290	0.191960	0.746240
H481	H48	0.440300	0.148900	0.746100
O251	O25	0.929680	0.446540	0.975190
O261	O26	0.928900	0.561400	0.979420
O271	O27	0.571200	0.678670	0.893350
C811	C81	0.737970	0.540310	0.893790
C821	C82	0.863680	0.514080	0.950720
C831	C83	0.780930	0.530550	0.913620
C841	C84	0.910540	0.506500	0.969920
C851	C85	0.686020	0.590720	0.893750
H491	H49	0.677200	0.616900	0.906600
C861	C86	0.801910	0.588160	0.925600
H501	H50	0.788000	0.633300	0.921100
C871	C87	0.843320	0.580330	0.944210
H511	H51	0.857500	0.619900	0.952300
C881	C88	0.842310	0.456700	0.939020
H521	H52	0.855600	0.411500	0.943700
C891	C89	0.801390	0.464720	0.920470
H531	H53	0.787300	0.425000	0.912400
C901	C90	0.941960	0.714290	0.003760
H541	H54	0.898900	0.690300	0.003900
O281	O28	0.429680	0.946540	0.475190
O291	O29	0.428900	0.061400	0.479420
O301	O30	0.071200	0.178670	0.393350
C911	C91	0.237970	0.040310	0.393790
C921	C92	0.363680	0.014080	0.450720
C931	C93	0.280930	0.030550	0.413620
C941	C94	0.410540	0.006500	0.469920
C951	C95	0.186020	0.090720	0.393750
H551	H55	0.177200	0.116900	0.406600
C961	C96	0.301910	0.088160	0.425600
H561	H56	0.288000	0.133300	0.421100
C971	C97	0.343320	0.080330	0.444210
H571	H57	0.357500	0.119900	0.452300
C981	C98	0.342310	0.956700	0.439020
H581	H58	0.355600	0.911500	0.443700
C991	C99	0.301390	0.964720	0.420470
H591	H59	0.287300	0.925000	0.412400
C1001	C100	0.441960	0.214290	0.503760
H601	H60	0.398900	0.190300	0.503900
O311	O31	0.570320	0.553460	0.475190
O321	O32	0.571100	0.438600	0.479420
O331	O33	0.928800	0.321330	0.393350
C1011	C101	0.762030	0.459690	0.393790
C1021	C102	0.636320	0.485920	0.450720
C1031	C103	0.719070	0.469450	0.413620
C1041	C104	0.589460	0.493500	0.469920
C1051	C105	0.813980	0.409280	0.393750
H611	H61	0.822800	0.383100	0.406600
C1061	C106	0.698090	0.411840	0.425600
H621	H62	0.712000	0.366700	0.421100
C1071	C107	0.656680	0.419670	0.444210
H631	H63	0.642500	0.380100	0.452300
C1081	C108	0.657690	0.543300	0.439020
H641	H64	0.644400	0.588500	0.443700
C1091	C109	0.698610	0.535280	0.420470
H651	H65	0.712700	0.575000	0.412400
C1101	C110	0.558040	0.285710	0.503760
H661	H66	0.601100	0.309700	0.503900
O341	O34	0.070320	0.053460	0.975190
O351	O35	0.071100	0.938600	0.979420
O361	O36	0.428800	0.821330	0.893350
C1111	C111	0.262030	0.959690	0.893790
C1121	C112	0.136320	0.985920	0.950720
C1131	C113	0.219070	0.969450	0.913620
C1141	C114	0.089460	0.993500	0.969920
C1151	C115	0.313980	0.909280	0.893750
H671	H67	0.322800	0.883100	0.906600
C1161	C116	0.198090	0.911840	0.925600
H681	H68	0.212000	0.866700	0.921100
C1171	C117	0.156680	0.919670	0.944210
H691	H69	0.142500	0.880100	0.952300
C1181	C118	0.157690	0.043300	0.939020
H701	H70	0.144400	0.088500	0.943700
C1191	C119	0.198610	0.035280	0.920470
H711	H71	0.212700	0.075000	0.912400
C1201	C120	0.058040	0.785710	0.003760
H721	H72	0.101100	0.809700	0.003900
O371	O37	0.696540	0.320320	0.725190
O381	O38	0.811400	0.321100	0.729420
O391	O39	0.928670	0.678800	0.643350
C1211	C121	0.790310	0.512030	0.643790
C1221	C122	0.764080	0.386320	0.700720
C1231	C123	0.780550	0.469070	0.663620
C1241	C124	0.756500	0.339460	0.719920
C1251	C125	0.840720	0.563980	0.643750
H731	H73	0.866900	0.572800	0.656600
C1261	C126	0.838160	0.448090	0.675600
H741	H74	0.883300	0.462000	0.671100
C1271	C127	0.830330	0.406680	0.694210
H751	H75	0.869900	0.392500	0.702300
C1281	C128	0.706700	0.407690	0.689020
H761	H76	0.661500	0.394400	0.693700
C1291	C129	0.714720	0.448610	0.670470
H771	H77	0.675000	0.462700	0.662400
C1301	C130	0.964290	0.308040	0.753760
H781	H78	0.940300	0.351100	0.753900
O401	O40	0.196540	0.820320	0.225190
O411	O41	0.311400	0.821100	0.229420
O421	O42	0.428670	0.178800	0.143350
C1311	C131	0.290310	0.012030	0.143790
C1321	C132	0.264080	0.886320	0.200720
C1331	C133	0.280550	0.969070	0.163620
C1341	C134	0.256500	0.839460	0.219920
C1351	C135	0.340720	0.063980	0.143750
H791	H79	0.366900	0.072800	0.156600
C1361	C136	0.338160	0.948090	0.175600
H801	H80	0.383300	0.962000	0.171100
C1371	C137	0.330330	0.906680	0.194210
H811	H81	0.369900	0.892500	0.202300
C1381	C138	0.206700	0.907690	0.189020
H821	H82	0.161500	0.894400	0.193700
C1391	C139	0.214720	0.948610	0.170470
H831	H83	0.175000	0.962700	0.162400
C1401	C140	0.464290	0.808040	0.253760
H841	H84	0.440300	0.851100	0.253900
O431	O43	0.803460	0.679680	0.225190
O441	O44	0.688600	0.678900	0.229420
O451	O45	0.571330	0.321200	0.143350
C1411	C141	0.709690	0.487970	0.143790
C1421	C142	0.735920	0.613680	0.200720
C1431	C143	0.719450	0.530930	0.163620
C1441	C144	0.743500	0.660540	0.219920
C1451	C145	0.659280	0.436020	0.143750
H851	H85	0.633100	0.427200	0.156600
C1461	C146	0.661840	0.551910	0.175600
H861	H86	0.616700	0.538000	0.171100
C1471	C147	0.669670	0.593320	0.194210
H871	H87	0.630100	0.607500	0.202300
C1481	C148	0.793300	0.592310	0.189020
H881	H88	0.838500	0.605600	0.193700
C1491	C149	0.785280	0.551390	0.170470
H891	H89	0.825000	0.537300	0.162400
C1501	C150	0.535710	0.691960	0.253760
H901	H90	0.559700	0.648900	0.253900
O461	O46	0.303460	0.179680	0.725190
O471	O47	0.188600	0.178900	0.729420
O481	O48	0.071330	0.821200	0.643350
C1511	C151	0.209690	0.987970	0.643790
C1521	C152	0.235920	0.113680	0.700720
C1531	C153	0.219450	0.030930	0.663620
C1541	C154	0.243500	0.160540	0.719920
C1551	C155	0.159280	0.936020	0.643750
H911	H91	0.133100	0.927200	0.656600
C1561	C156	0.161840	0.051910	0.675600
H921	H92	0.116700	0.038000	0.671100
C1571	C157	0.169670	0.093320	0.694210
H931	H93	0.130100	0.107500	0.702300
C1581	C158	0.293300	0.092310	0.689020
H941	H94	0.338500	0.105600	0.693700
C1591	C159	0.285280	0.051390	0.670470
H951	H95	0.325000	0.037300	0.662400
C1601	C160	0.035710	0.191960	0.753760
H961	H96	0.059700	0.148900	0.753900
O491	O49	0.429680	0.553460	0.475190
O501	O50	0.428900	0.438600	0.479420
O511	O51	0.071200	0.321330	0.393350
C1611	C161	0.237970	0.459690	0.393790
C1621	C162	0.363680	0.485920	0.450720
C1631	C163	0.280930	0.469450	0.413620
C1641	C164	0.410540	0.493500	0.469920
C1651	C165	0.186020	0.409280	0.393750
H971	H97	0.177200	0.383100	0.406600
C1661	C166	0.301910	0.411840	0.425600
H981	H98	0.288000	0.366700	0.421100
C1671	C167	0.343320	0.419670	0.444210
H991	H99	0.357500	0.380100	0.452300
C1681	C168	0.342310	0.543300	0.439020
H1001	H100	0.355600	0.588500	0.443700
C1691	C169	0.301390	0.535280	0.420470
H1011	H101	0.287300	0.575000	0.412400
C1701	C170	0.441960	0.285710	0.503760
H1021	H102	0.398900	0.309700	0.503900
O521	O52	0.929680	0.053460	0.975190
O531	O53	0.928900	0.938600	0.979420
O541	O54	0.571200	0.821330	0.893350
C1711	C171	0.737970	0.959690	0.893790
C1721	C172	0.863680	0.985920	0.950720
C1731	C173	0.780930	0.969450	0.913620
C1741	C174	0.910540	0.993500	0.969920
C1751	C175	0.686020	0.909280	0.893750
H1031	H103	0.677200	0.883100	0.906600
C1761	C176	0.801910	0.911840	0.925600
H1041	H104	0.788000	0.866700	0.921100
C1771	C177	0.843320	0.919670	0.944210
H1051	H105	0.857500	0.880100	0.952300
C1781	C178	0.842310	0.043300	0.939020
H1061	H106	0.855600	0.088500	0.943700
C1791	C179	0.801390	0.035280	0.920470
H1071	H107	0.787300	0.075000	0.912400
C1801	C180	0.941960	0.785710	0.003760
H1081	H108	0.898900	0.809700	0.003900
O551	O55	0.070320	0.446540	0.975190
O561	O56	0.071100	0.561400	0.979420
O571	O57	0.428800	0.678670	0.893350
C1811	C181	0.262030	0.540310	0.893790
C1821	C182	0.136320	0.514080	0.950720
C1831	C183	0.219070	0.530550	0.913620
C1841	C184	0.089460	0.506500	0.969920
C1851	C185	0.313980	0.590720	0.893750
H1091	H109	0.322800	0.616900	0.906600
C1861	C186	0.198090	0.588160	0.925600
H1101	H110	0.212000	0.633300	0.921100
C1871	C187	0.156680	0.580330	0.944210
H1111	H111	0.142500	0.619900	0.952300
C1881	C188	0.157690	0.456700	0.939020
H1121	H112	0.144400	0.411500	0.943700
C1891	C189	0.198610	0.464720	0.920470
H1131	H113	0.212700	0.425000	0.912400
C1901	C190	0.058040	0.714290	0.003760
H1141	H114	0.101100	0.690300	0.003900
O581	O58	0.570320	0.946540	0.475190
O591	O59	0.571100	0.061400	0.479420
O601	O60	0.928800	0.178670	0.393350
C1911	C191	0.762030	0.040310	0.393790
C1921	C192	0.636320	0.014080	0.450720
C1931	C193	0.719070	0.030550	0.413620
C1941	C194	0.589460	0.006500	0.469920
C1951	C195	0.813980	0.090720	0.393750
H1151	H115	0.822800	0.116900	0.406600
C1961	C196	0.698090	0.088160	0.425600
H1161	H116	0.712000	0.133300	0.421100
C1971	C197	0.656680	0.080330	0.444210
H1171	H117	0.642500	0.119900	0.452300
C1981	C198	0.657690	0.956700	0.439020
H1181	H118	0.644400	0.911500	0.443700
C1991	C199	0.698610	0.964720	0.420470
H1191	H119	0.712700	0.925000	0.412400
C2001	C200	0.558040	0.214290	0.503760
H1201	H120	0.601100	0.190300	0.503900
O611	O61	0.196540	0.679680	0.225190
O621	O62	0.311400	0.678900	0.229420
O631	O63	0.428670	0.321200	0.143350
C2011	C201	0.290310	0.487970	0.143790
C2021	C202	0.264080	0.613680	0.200720
C2031	C203	0.280550	0.530930	0.163620
C2041	C204	0.256500	0.660540	0.219920
C2051	C205	0.340720	0.436020	0.143750
H1211	H121	0.366900	0.427200	0.156600
C2061	C206	0.338160	0.551910	0.175600
H1221	H122	0.383300	0.538000	0.171100
C2071	C207	0.330330	0.593320	0.194210
H1231	H123	0.369900	0.607500	0.202300
C2081	C208	0.206700	0.592310	0.189020
H1241	H124	0.161500	0.605600	0.193700
C2091	C209	0.214720	0.551390	0.170470
H1251	H125	0.175000	0.537300	0.162400
C2101	C210	0.464290	0.691960	0.253760
H1261	H126	0.440300	0.648900	0.253900
O641	O64	0.696540	0.179680	0.725190
O651	O65	0.811400	0.178900	0.729420
O661	O66	0.928670	0.821200	0.643350
C2111	C211	0.790310	0.987970	0.643790
C2121	C212	0.764080	0.113680	0.700720
C2131	C213	0.780550	0.030930	0.663620
C2141	C214	0.756500	0.160540	0.719920
C2151	C215	0.840720	0.936020	0.643750
H1271	H127	0.866900	0.927200	0.656600
C2161	C216	0.838160	0.051910	0.675600
H1281	H128	0.883300	0.038000	0.671100
C2171	C217	0.830330	0.093320	0.694210
H1291	H129	0.869900	0.107500	0.702300
C2181	C218	0.706700	0.092310	0.689020
H1301	H130	0.661500	0.105600	0.693700
C2191	C219	0.714720	0.051390	0.670470
H1311	H131	0.675000	0.037300	0.662400
C2201	C220	0.964290	0.191960	0.753760
H1321	H132	0.940300	0.148900	0.753900
O671	O67	0.303460	0.320320	0.725190
O681	O68	0.188600	0.321100	0.729420
O691	O69	0.071330	0.678800	0.643350
C2211	C221	0.209690	0.512030	0.643790
C2221	C222	0.235920	0.386320	0.700720
C2231	C223	0.219450	0.469070	0.663620
C2241	C224	0.243500	0.339460	0.719920
C2251	C225	0.159280	0.563980	0.643750
H1331	H133	0.133100	0.572800	0.656600
C2261	C226	0.161840	0.448090	0.675600
H1341	H134	0.116700	0.462000	0.671100
C2271	C227	0.169670	0.406680	0.694210
H1351	H135	0.130100	0.392500	0.702300
C2281	C228	0.293300	0.407690	0.689020
H1361	H136	0.338500	0.394400	0.693700
C2291	C229	0.285280	0.448610	0.670470
H1371	H137	0.325000	0.462700	0.662400
C2301	C230	0.035710	0.308040	0.753760
H1381	H138	0.059700	0.351100	0.753900
O701	O70	0.803460	0.820320	0.225190
O711	O71	0.688600	0.821100	0.229420
O721	O72	0.571330	0.178800	0.143350
C2311	C231	0.709690	0.012030	0.143790
C2321	C232	0.735920	0.886320	0.200720
C2331	C233	0.719450	0.969070	0.163620
C2341	C234	0.743500	0.839460	0.219920
C2351	C235	0.659280	0.063980	0.143750
H1391	H139	0.633100	0.072800	0.156600
C2361	C236	0.661840	0.948090	0.175600
H1401	H140	0.616700	0.962000	0.171100
C2371	C237	0.669670	0.906680	0.194210
H1411	H141	0.630100	0.892500	0.202300
C2381	C238	0.793300	0.907690	0.189020
H1421	H142	0.838500	0.894400	0.193700
C2391	C239	0.785280	0.948610	0.170470
H1431	H143	0.825000	0.962700	0.162400
C2401	C240	0.535710	0.808040	0.253760
H1441	H144	0.559700	0.851100	0.253900
O731	O73	0.070320	0.553460	0.024810
O741	O74	0.071100	0.438600	0.020580
O751	O75	0.428800	0.321330	0.106650
C2411	C241	0.262030	0.459690	0.106210
C2421	C242	0.136320	0.485920	0.049280
C2431	C243	0.219070	0.469450	0.086380
C2441	C244	0.089460	0.493500	0.030080
C2451	C245	0.313980	0.409280	0.106250
H1451	H145	0.322800	0.383100	0.093400
C2461	C246	0.198090	0.411840	0.074400
H1461	H146	0.212000	0.366700	0.078900
C2471	C247	0.156680	0.419670	0.055790
H1471	H147	0.142500	0.380100	0.047700
C2481	C248	0.157690	0.543300	0.060980
H1481	H148	0.144400	0.588500	0.056300
C2491	C249	0.198610	0.535280	0.079530
H1491	H149	0.212700	0.575000	0.087600
C2501	C250	0.058040	0.285710	0.996240
H1501	H150	0.101100	0.309700	0.996100
O761	O76	0.570320	0.053460	0.524810
O771	O77	0.571100	0.938600	0.520580
O781	O78	0.928800	0.821330	0.606650
C2511	C251	0.762030	0.959690	0.606210
C2521	C252	0.636320	0.985920	0.549280
C2531	C253	0.719070	0.969450	0.586380
C2541	C254	0.589460	0.993500	0.530080
C2551	C255	0.813980	0.909280	0.606250
H1511	H151	0.822800	0.883100	0.593400
C2561	C256	0.698090	0.911840	0.574400
H1521	H152	0.712000	0.866700	0.578900
C2571	C257	0.656680	0.919670	0.555790
H1531	H153	0.642500	0.880100	0.547700
C2581	C258	0.657690	0.043300	0.560980
H1541	H154	0.644400	0.088500	0.556300
C2591	C259	0.698610	0.035280	0.579530
H1551	H155	0.712700	0.075000	0.587600
C2601	C260	0.558040	0.785710	0.496240
H1561	H156	0.601100	0.809700	0.496100
O791	O79	0.429680	0.446540	0.524810
O801	O80	0.428900	0.561400	0.520580
O811	O81	0.071200	0.678670	0.606650
C2611	C261	0.237970	0.540310	0.606210
C2621	C262	0.363680	0.514080	0.549280
C2631	C263	0.280930	0.530550	0.586380
C2641	C264	0.410540	0.506500	0.530080
C2651	C265	0.186020	0.590720	0.606250
H1571	H157	0.177200	0.616900	0.593400
C2661	C266	0.301910	0.588160	0.574400
H1581	H158	0.288000	0.633300	0.578900
C2671	C267	0.343320	0.580330	0.555790
H1591	H159	0.357500	0.619900	0.547700
C2681	C268	0.342310	0.456700	0.560980
H1601	H160	0.355600	0.411500	0.556300
C2691	C269	0.301390	0.464720	0.579530
H1611	H161	0.287300	0.425000	0.587600
C2701	C270	0.441960	0.714290	0.496240
H1621	H162	0.398900	0.690300	0.496100
O821	O82	0.929680	0.946540	0.024810
O831	O83	0.928900	0.061400	0.020580
O841	O84	0.571200	0.178670	0.106650
C2711	C271	0.737970	0.040310	0.106210
C2721	C272	0.863680	0.014080	0.049280
C2731	C273	0.780930	0.030550	0.086380
C2741	C274	0.910540	0.006500	0.030080
C2751	C275	0.686020	0.090720	0.106250
H1631	H163	0.677200	0.116900	0.093400
C2761	C276	0.801910	0.088160	0.074400
H1641	H164	0.788000	0.133300	0.078900
C2771	C277	0.843320	0.080330	0.055790
H1651	H165	0.857500	0.119900	0.047700
C2781	C278	0.842310	0.956700	0.060980
H1661	H166	0.855600	0.911500	0.056300
C2791	C279	0.801390	0.964720	0.079530
H1671	H167	0.787300	0.925000	0.087600
C2801	C280	0.941960	0.214290	0.996240
H1681	H168	0.898900	0.190300	0.996100
O851	O85	0.303460	0.679680	0.274810
O861	O86	0.188600	0.678900	0.270580
O871	O87	0.071330	0.321200	0.356650
C2811	C281	0.209690	0.487970	0.356210
C2821	C282	0.235920	0.613680	0.299280
C2831	C283	0.219450	0.530930	0.336380
C2841	C284	0.243500	0.660540	0.280080
C2851	C285	0.159280	0.436020	0.356250
H1691	H169	0.133100	0.427200	0.343400
C2861	C286	0.161840	0.551910	0.324400
H1701	H170	0.116700	0.538000	0.328900
C2871	C287	0.169670	0.593320	0.305790
H1711	H171	0.130100	0.607500	0.297700
C2881	C288	0.293300	0.592310	0.310980
H1721	H172	0.338500	0.605600	0.306300
C2891	C289	0.285280	0.551390	0.329530
H1731	H173	0.325000	0.537300	0.337600
C2901	C290	0.035710	0.691960	0.246240
H1741	H174	0.059700	0.648900	0.246100
O881	O88	0.803460	0.179680	0.774810
O891	O89	0.688600	0.178900	0.770580
O901	O90	0.571330	0.821200	0.856650
C2911	C291	0.709690	0.987970	0.856210
C2921	C292	0.735920	0.113680	0.799280
C2931	C293	0.719450	0.030930	0.836380
C2941	C294	0.743500	0.160540	0.780080
C2951	C295	0.659280	0.936020	0.856250
H1751	H175	0.633100	0.927200	0.843400
C2961	C296	0.661840	0.051910	0.824400
H1761	H176	0.616700	0.038000	0.828900
C2971	C297	0.669670	0.093320	0.805790
H1771	H177	0.630100	0.107500	0.797700
C2981	C298	0.793300	0.092310	0.810980
H1781	H178	0.838500	0.105600	0.806300
C2991	C299	0.785280	0.051390	0.829530
H1791	H179	0.825000	0.037300	0.837600
C3001	C300	0.535710	0.191960	0.746240
H1801	H180	0.559700	0.148900	0.746100
O911	O91	0.196540	0.320320	0.774810
O921	O92	0.311400	0.321100	0.770580
O931	O93	0.428670	0.678800	0.856650
C3011	C301	0.290310	0.512030	0.856210
C3021	C302	0.264080	0.386320	0.799280
C3031	C303	0.280550	0.469070	0.836380
C3041	C304	0.256500	0.339460	0.780080
C3051	C305	0.340720	0.563980	0.856250
H1811	H181	0.366900	0.572800	0.843400
C3061	C306	0.338160	0.448090	0.824400
H1821	H182	0.383300	0.462000	0.828900
C3071	C307	0.330330	0.406680	0.805790
H1831	H183	0.369900	0.392500	0.797700
C3081	C308	0.206700	0.407690	0.810980
H1841	H184	0.161500	0.394400	0.806300
C3091	C309	0.214720	0.448610	0.829530
H1851	H185	0.175000	0.462700	0.837600
C3101	C310	0.464290	0.308040	0.746240
H1861	H186	0.440300	0.351100	0.746100
O941	O94	0.696540	0.820320	0.274810
O951	O95	0.811400	0.821100	0.270580
O961	O96	0.928670	0.178800	0.356650
C3111	C311	0.790310	0.012030	0.356210
C3121	C312	0.764080	0.886320	0.299280
C3131	C313	0.780550	0.969070	0.336380
C3141	C314	0.756500	0.839460	0.280080
C3151	C315	0.840720	0.063980	0.356250
H1871	H187	0.866900	0.072800	0.343400
C3161	C316	0.838160	0.948090	0.324400
H1881	H188	0.883300	0.962000	0.328900
C3171	C317	0.830330	0.906680	0.305790
H1891	H189	0.869900	0.892500	0.297700
C3181	C318	0.706700	0.907690	0.310980
H1901	H190	0.661500	0.894400	0.306300
C3191	C319	0.714720	0.948610	0.329530
H1911	H191	0.675000	0.962700	0.337600
C3201	C320	0.964290	0.808040	0.246240
H1921	H192	0.940300	0.851100	0.246100
Cu11	Cu1	0.500000	0.567060	0.497770
N11	N1	0.500000	0.678430	0.496430
Cu21	Cu2	0.000000	0.067060	0.997770
N21	N2	0.000000	0.178430	0.996430
Cu31	Cu3	0.000000	0.432940	0.997770
N31	N3	0.000000	0.321570	0.996430
Cu41	Cu4	0.500000	0.932940	0.497770
N41	N4	0.500000	0.821570	0.496430
Cu51	Cu5	0.682940	0.250000	0.747770
N51	N5	0.571570	0.250000	0.746430
Cu61	Cu6	0.817060	0.750000	0.247770
N61	N6	0.928430	0.750000	0.246430
Cu71	Cu7	0.000000	0.567060	0.002230
N71	N7	0.000000	0.678430	0.003570
Cu81	Cu8	0.500000	0.067060	0.502230
N81	N8	0.500000	0.178430	0.503570
Cu91	Cu9	0.500000	0.432940	0.502230
N91	N9	0.500000	0.321570	0.503570
Cu101	Cu10	0.000000	0.932940	0.002230
N101	N10	0.000000	0.821570	0.003570
Cu111	Cu11	0.817060	0.250000	0.752230
N111	N11	0.928430	0.250000	0.753570
Cu121	Cu12	0.682940	0.750000	0.252230
N121	N12	0.571570	0.750000	0.253570
Cu131	Cu13	0.317060	0.750000	0.252230
N131	N13	0.428430	0.750000	0.253570
Cu141	Cu14	0.182940	0.250000	0.752230
N141	N14	0.071570	0.250000	0.753570
Cu151	Cu15	0.182940	0.750000	0.247770
N151	N15	0.071570	0.750000	0.246430
Cu161	Cu16	0.317060	0.250000	0.747770
N161	N16	0.428430	0.250000	0.746430
Cu171	Cu17	0.000000	0.750000	0.603290
Cu181	Cu18	0.500000	0.250000	0.103290
Cu191	Cu19	0.500000	0.750000	0.853290
Cu201	Cu20	0.000000	0.250000	0.353290
Cu211	Cu21	0.500000	0.750000	0.896710
Cu221	Cu22	0.000000	0.250000	0.396710
Cu231	Cu23	0.000000	0.750000	0.646710
Cu241	Cu24	0.500000	0.250000	0.146710
C3211	C321	0.751290	0.501290	0.625000
H1931	H193	0.716400	0.466400	0.625000
C3221	C322	0.853010	0.603010	0.625000
C3231	C323	0.907590	0.657590	0.625000
C3241	C324	0.251290	0.001290	0.125000
H1941	H194	0.216400	0.966400	0.125000
C3251	C325	0.353010	0.103010	0.125000
C3261	C326	0.407590	0.157590	0.125000
C3271	C327	0.748710	0.498710	0.125000
H1951	H195	0.783600	0.533600	0.125000
C3281	C328	0.646990	0.396990	0.125000
C3291	C329	0.592410	0.342410	0.125000
C3301	C330	0.248710	0.998710	0.625000
H1961	H196	0.283600	0.033600	0.625000
C3311	C331	0.146990	0.896990	0.625000
C3321	C332	0.092410	0.842410	0.625000
C3331	C333	0.748710	0.501290	0.875000
H1971	H197	0.783600	0.466400	0.875000
C3341	C334	0.646990	0.603010	0.875000
C3351	C335	0.592410	0.657590	0.875000
C3361	C336	0.248710	0.001290	0.375000
H1981	H198	0.283600	0.966400	0.375000
C3371	C337	0.146990	0.103010	0.375000
C3381	C338	0.092410	0.157590	0.375000
C3391	C339	0.751290	0.498710	0.375000
H1991	H199	0.716400	0.533600	0.375000
C3401	C340	0.853010	0.396990	0.375000
C3411	C341	0.907590	0.342410	0.375000
C3421	C342	0.251290	0.998710	0.875000
H2001	H200	0.216400	0.033600	0.875000
C3431	C343	0.353010	0.896990	0.875000
C3441	C344	0.407590	0.842410	0.875000
C3451	C345	0.248710	0.498710	0.375000
H2011	H201	0.283600	0.533600	0.375000
C3461	C346	0.146990	0.396990	0.375000
C3471	C347	0.092410	0.342410	0.375000
C3481	C348	0.748710	0.998710	0.875000
H2021	H202	0.783600	0.033600	0.875000
C3491	C349	0.646990	0.896990	0.875000
C3501	C350	0.592410	0.842410	0.875000
C3511	C351	0.251290	0.501290	0.875000
H2031	H203	0.216400	0.466400	0.875000
C3521	C352	0.353010	0.603010	0.875000
C3531	C353	0.407590	0.657590	0.875000
C3541	C354	0.751290	0.001290	0.375000
H2041	H204	0.716400	0.966400	0.375000
C3551	C355	0.853010	0.103010	0.375000
C3561	C356	0.907590	0.157590	0.375000
C3571	C357	0.251290	0.498710	0.125000
H2051	H205	0.216400	0.533600	0.125000
C3581	C358	0.353010	0.396990	0.125000
C3591	C359	0.407590	0.342410	0.125000
C3601	C360	0.751290	0.998710	0.625000
H2061	H206	0.716400	0.033600	0.625000
C3611	C361	0.853010	0.896990	0.625000
C3621	C362	0.907590	0.842410	0.625000
C3631	C363	0.248710	0.501290	0.625000
H2071	H207	0.283600	0.466400	0.625000
C3641	C364	0.146990	0.603010	0.625000
C3651	C365	0.092410	0.657590	0.625000
C3661	C366	0.748710	0.001290	0.125000
H2081	H208	0.783600	0.966400	0.125000
C3671	C367	0.646990	0.103010	0.125000
C3681	C368	0.592410	0.157590	0.125000
