data_NAJMIV_charged_PM
_symmetry_space_group_name_H-M	'P1'
_cell_length_a	14.390500
_cell_length_b	22.207400
_cell_length_c	22.273200
_cell_angle_alpha	83.992100
_cell_angle_beta	71.152800
_cell_angle_gamma	71.095000
_symmetry_Int_Tables_number 1

loop_
_symmetry_equiv_pos_as_xyz
'x,y,z'

loop_
_atom_site_label
_atom_site_type_symbol
_atom_site_fract_x
_atom_site_fract_y
_atom_site_fract_z
Cu11	Cu1	0.578440	0.252350	0.820050
Cu21	Cu2	0.601510	0.747650	0.820050
Cu31	Cu3	0.080790	0.247650	0.320050
Cu41	Cu4	0.599160	0.752350	0.320050
H11	H1	0.569000	0.169600	0.934000
H21	H2	0.469200	0.167800	0.039200
H31	H3	0.284200	0.343800	0.013200
H41	H4	0.387500	0.338200	0.907600
H51	H5	0.414400	0.205200	0.142800
H61	H6	0.306800	0.206000	0.246200
H71	H7	0.061500	0.301200	0.195000
H81	H8	0.161900	0.307200	0.090800
H91	H9	0.739300	0.124800	0.786400
H101	H10	0.747300	0.018000	0.785400
H111	H11	0.435800	0.072000	0.838000
H121	H12	0.434700	0.176800	0.840400
H131	H13	0.605600	0.334000	0.907400
H141	H14	0.605500	0.437400	0.915600
H151	H15	0.550600	0.475200	0.745400
H161	H16	0.538300	0.374200	0.747200
H171	H17	0.497000	0.830400	0.934000
H181	H18	0.491600	0.832200	0.039200
H191	H19	0.702600	0.656200	0.013200
H201	H20	0.704900	0.661800	0.907600
H211	H21	0.442800	0.794800	0.142800
H221	H22	0.447000	0.794000	0.246200
H231	H23	0.743500	0.698800	0.195000
H241	H24	0.747300	0.692800	0.090800
H251	H25	0.474300	0.875200	0.786400
H261	H26	0.467300	0.982000	0.785400
H271	H27	0.726200	0.928000	0.838000
H281	H28	0.724900	0.823200	0.840400
H291	H29	0.487000	0.666000	0.907400
H301	H30	0.478900	0.562600	0.915600
H311	H31	0.704000	0.524800	0.745400
H321	H32	0.714500	0.625800	0.747200
H331	H33	0.988600	0.330400	0.434000
H341	H34	0.887000	0.332200	0.539200
H351	H35	0.878000	0.156200	0.513200
H361	H36	0.975700	0.161800	0.407600
H371	H37	0.869600	0.294800	0.642800
H381	H38	0.762800	0.294000	0.746200
H391	H39	0.612700	0.198800	0.695000
H401	H40	0.719100	0.192800	0.590800
H411	H41	0.114100	0.375200	0.286400
H421	H42	0.015300	0.482000	0.285400
H431	H43	0.757800	0.428000	0.338000
H441	H44	0.861500	0.323200	0.340400
H451	H45	0.189600	0.166000	0.407400
H461	H46	0.292900	0.062600	0.415600
H471	H47	0.275800	0.024800	0.245400
H481	H48	0.162500	0.125800	0.247200
H491	H49	0.577400	0.669600	0.434000
H501	H50	0.573800	0.667800	0.539200
H511	H51	0.608800	0.843800	0.513200
H521	H52	0.616700	0.838200	0.407600
H531	H53	0.487600	0.705200	0.642800
H541	H54	0.491000	0.706000	0.746200
H551	H55	0.692300	0.801200	0.695000
H561	H56	0.690100	0.807200	0.590800
H571	H57	0.599500	0.624800	0.286400
H581	H58	0.699300	0.518000	0.285400
H591	H59	0.904200	0.572000	0.338000
H601	H60	0.798100	0.676800	0.340400
H611	H61	0.403000	0.834000	0.407400
H621	H62	0.291500	0.937400	0.415600
H631	H63	0.478800	0.975200	0.245400
H641	H64	0.590300	0.874200	0.247200
C11	C1	0.509710	0.205120	0.950460
C21	C2	0.451220	0.203840	0.013320
C31	C3	0.366520	0.255740	0.037620
C41	C4	0.341930	0.307300	0.997840
C51	C5	0.404480	0.303540	0.935100
C61	C6	0.299310	0.256220	0.105160
C71	C7	0.342200	0.225660	0.152540
C81	C8	0.277240	0.225760	0.213960
C91	C9	0.134060	0.281820	0.184260
C101	C10	0.193290	0.285260	0.121760
C111	C11	0.677080	0.114020	0.797220
C121	C12	0.682210	0.050200	0.795980
C131	C13	0.593320	0.034260	0.810100
C141	C14	0.498710	0.081860	0.827320
C151	C15	0.499180	0.144020	0.828420
C161	C16	0.592520	0.363580	0.874780
C171	C17	0.594670	0.424900	0.879560
C181	C18	0.580670	0.467620	0.830840
C191	C19	0.560480	0.447360	0.779880
C201	C20	0.555270	0.386840	0.780820
C211	C21	0.539830	0.794880	0.950460
C221	C22	0.535460	0.796160	0.013320
C231	C23	0.595860	0.744260	0.037620
C241	C24	0.660230	0.692700	0.997840
C251	C25	0.660420	0.696460	0.935100
C261	C26	0.595530	0.743780	0.105160
C271	C27	0.505260	0.774340	0.152540
C281	C28	0.508800	0.774240	0.213960
C291	C29	0.681680	0.718180	0.184260
C301	C30	0.684950	0.714740	0.121760
C311	C31	0.525700	0.885980	0.797220
C321	C32	0.521810	0.949800	0.795980
C331	C33	0.596580	0.965740	0.810100
C341	C34	0.673970	0.918140	0.827320
C351	C35	0.672400	0.855980	0.828420
C361	C36	0.532700	0.636420	0.874780
C371	C37	0.525770	0.575100	0.879560
C381	C38	0.588490	0.532380	0.830840
C391	C39	0.659640	0.552640	0.779880
C401	C40	0.663910	0.613160	0.780820
C411	C41	0.964830	0.294880	0.450460
C421	C42	0.905060	0.296160	0.513320
C431	C43	0.872260	0.244260	0.537620
C441	C44	0.899230	0.192700	0.497840
C451	C45	0.958020	0.196460	0.435100
C461	C46	0.805530	0.243780	0.605160
C471	C47	0.817860	0.274340	0.652540
C481	C48	0.753000	0.274240	0.713960
C491	C49	0.665880	0.218180	0.684260
C501	C50	0.728550	0.214740	0.621760
C511	C51	0.041100	0.385980	0.297220
C521	C52	0.982410	0.449800	0.295980
C531	C53	0.877580	0.465740	0.310100
C541	C54	0.830570	0.418140	0.327320
C551	C55	0.893200	0.355980	0.328420
C561	C56	0.206100	0.136420	0.374780
C571	C57	0.269570	0.075100	0.379560
C581	C58	0.298290	0.032380	0.330840
C591	C59	0.257840	0.052640	0.279880
C601	C60	0.192110	0.113160	0.280820
C611	C61	0.584710	0.705120	0.450460
C621	C62	0.581620	0.703840	0.513320
C631	C63	0.590120	0.755740	0.537620
C641	C64	0.602930	0.807300	0.497840
C651	C65	0.606880	0.803540	0.435100
C661	C66	0.589310	0.756220	0.605160
C671	C67	0.529600	0.725660	0.652540
C681	C68	0.533040	0.725760	0.713960
C691	C69	0.649860	0.781820	0.684260
C701	C70	0.649690	0.785260	0.621760
C711	C71	0.661680	0.614020	0.297220
C721	C72	0.721610	0.550200	0.295980
C731	C73	0.812320	0.534260	0.310100
C741	C74	0.842110	0.581860	0.327320
C751	C75	0.778380	0.644020	0.328420
C761	C76	0.419120	0.863580	0.374780
C771	C77	0.350870	0.924900	0.379560
C781	C78	0.370870	0.967620	0.330840
C791	C79	0.462280	0.947360	0.279880
C801	C80	0.527070	0.886840	0.280820
N11	N1	0.486560	0.254280	0.911600
N21	N2	0.585740	0.160460	0.813460
N31	N3	0.572910	0.344080	0.826700
N41	N4	0.173630	0.252720	0.230020
N51	N5	0.601840	0.745720	0.911600
N61	N6	0.600800	0.839540	0.813460
N71	N7	0.600390	0.655920	0.826700
N81	N8	0.596350	0.747280	0.230020
N91	N9	0.990840	0.245720	0.411600
N101	N10	0.996200	0.339540	0.313460
N111	N11	0.166990	0.155920	0.326700
N121	N12	0.676350	0.247280	0.730020
N131	N13	0.597560	0.754280	0.411600
N141	N14	0.690340	0.660460	0.313460
N151	N15	0.506310	0.844080	0.326700
N161	N16	0.593630	0.752720	0.730020
Cu51	Cu5	0.504880	0.246840	0.468860
Cu61	Cu6	0.026260	0.753160	0.468860
Cu71	Cu7	0.001720	0.253160	0.968860
Cu81	Cu8	0.029420	0.746840	0.968860
H651	H65	0.600800	0.164800	0.354200
H661	H66	0.701500	0.165200	0.249200
H671	H67	0.712300	0.339400	0.278400
H681	H68	0.611300	0.334400	0.382800
H691	H69	0.716300	0.207400	0.146400
H701	H70	0.820500	0.210200	0.042600
H711	H71	0.972300	0.302600	0.096600
H721	H72	0.871700	0.303200	0.200200
H731	H73	0.484100	0.117600	0.505200
H741	H74	0.586300	0.014000	0.512800
H751	H75	0.837500	0.076400	0.456000
H761	H76	0.727100	0.178600	0.451000
H771	H77	0.401300	0.333400	0.380800
H781	H78	0.302800	0.439000	0.374800
H791	H79	0.327200	0.470400	0.544000
H801	H80	0.426600	0.365400	0.545400
H811	H81	0.045000	0.835200	0.354200
H821	H82	0.049300	0.834800	0.249200
H831	H83	0.009300	0.660600	0.278400
H841	H84	0.005900	0.665600	0.382800
H851	H85	0.137300	0.792600	0.146400
H861	H86	0.136900	0.789800	0.042600
H871	H87	0.931100	0.697400	0.096600
H881	H88	0.928100	0.696800	0.200200
H891	H89	0.010700	0.882400	0.505200
H901	H90	0.900900	0.986000	0.512800
H911	H91	0.706500	0.923600	0.456000
H921	H92	0.821900	0.821400	0.451000
H931	H93	0.217900	0.666600	0.380800
H941	H94	0.322400	0.561000	0.374800
H951	H95	0.128800	0.529600	0.544000
H961	H96	0.028000	0.634600	0.545400
H971	H97	0.015600	0.335200	0.854200
H981	H98	0.116700	0.334800	0.749200
H991	H99	0.301700	0.160600	0.778400
H1001	H100	0.195700	0.165600	0.882800
H1011	H101	0.173700	0.292600	0.646400
H1021	H102	0.280700	0.289800	0.542600
H1031	H103	0.524900	0.197400	0.596600
H1041	H104	0.424900	0.196800	0.700200
H1051	H105	0.851700	0.382400	0.005200
H1061	H106	0.850300	0.486000	0.012800
H1071	H107	0.163900	0.423600	0.956000
H1081	H108	0.155700	0.321400	0.951000
H1091	H109	0.984700	0.166600	0.880800
H1101	H110	0.991800	0.061000	0.874800
H1111	H111	0.047600	0.029600	0.044000
H1121	H112	0.042000	0.134600	0.045400
H1131	H113	0.130200	0.664800	0.854200
H1141	H114	0.134100	0.665200	0.749200
H1151	H115	0.919900	0.839400	0.778400
H1161	H116	0.921500	0.834400	0.882800
H1171	H117	0.179900	0.707400	0.646400
H1181	H118	0.176700	0.710200	0.542600
H1191	H119	0.878500	0.802600	0.596600
H1201	H120	0.874900	0.803200	0.700200
H1211	H121	0.143100	0.617600	0.005200
H1221	H122	0.136900	0.514000	0.012800
H1231	H123	0.880100	0.576400	0.956000
H1241	H124	0.893300	0.678600	0.951000
H1251	H125	0.134500	0.833400	0.880800
H1261	H126	0.133400	0.939000	0.874800
H1271	H127	0.908400	0.970400	0.044000
H1281	H128	0.912600	0.865400	0.045400
C811	C81	0.623970	0.200560	0.338700
C821	C82	0.684230	0.200600	0.275740
C831	C83	0.719310	0.252140	0.251640
C841	C84	0.690640	0.302880	0.292840
C851	C85	0.630230	0.299580	0.355160
C861	C86	0.782710	0.253800	0.185780
C871	C87	0.768980	0.227000	0.137240
C881	C88	0.831600	0.228660	0.075140
C891	C89	0.919720	0.282780	0.106980
C901	C90	0.860370	0.283120	0.168740
C911	C91	0.556610	0.108920	0.495060
C921	C92	0.617290	0.046840	0.498980
C931	C93	0.724650	0.032640	0.482460
C941	C94	0.765410	0.083520	0.465660
C951	C95	0.698980	0.144400	0.463240
C961	C96	0.386350	0.361980	0.414120
C971	C97	0.326780	0.424560	0.410480
C981	C98	0.302490	0.466500	0.460520
C991	C99	0.341450	0.443100	0.509800
C1001	C100	0.400850	0.380580	0.510520
C1011	C101	0.037330	0.799440	0.338700
C1021	C102	0.040030	0.799400	0.275740
C1031	C103	0.029050	0.747860	0.251640
C1041	C104	0.016520	0.697120	0.292840
C1051	C105	0.014610	0.700420	0.355160
C1061	C106	0.031510	0.746200	0.185780
C1071	C107	0.093780	0.773000	0.137240
C1081	C108	0.093260	0.771340	0.075140
C1091	C109	0.973300	0.717220	0.106980
C1101	C110	0.970890	0.716880	0.168740
C1111	C111	0.948330	0.891080	0.495060
C1121	C112	0.883730	0.953160	0.498980
C1131	C113	0.792890	0.967360	0.482460
C1141	C114	0.768930	0.916480	0.465660
C1151	C115	0.837780	0.855600	0.463240
C1161	C116	0.199530	0.638020	0.414120
C1171	C117	0.262740	0.575440	0.410480
C1181	C118	0.236990	0.533500	0.460520
C1191	C119	0.148750	0.556900	0.509800
C1201	C120	0.088630	0.619420	0.510520
C1211	C121	0.074530	0.299440	0.838700
C1221	C122	0.134830	0.299400	0.775740
C1231	C123	0.221450	0.247860	0.751640
C1241	C124	0.243520	0.197120	0.792840
C1251	C125	0.179810	0.200420	0.855160
C1261	C126	0.286510	0.246200	0.685780
C1271	C127	0.245980	0.273000	0.637240
C1281	C128	0.310260	0.271340	0.575140
C1291	C129	0.452500	0.217220	0.606980
C1301	C130	0.393490	0.216880	0.668740
C1311	C131	0.915530	0.391080	0.995060
C1321	C132	0.914130	0.453160	0.998980
C1331	C133	0.007290	0.467360	0.982460
C1341	C134	0.098930	0.416480	0.965660
C1351	C135	0.093380	0.355600	0.963240
C1361	C136	0.998330	0.138020	0.914120
C1371	C137	0.001340	0.075440	0.910480
C1381	C138	0.018990	0.033500	0.960520
C1391	C139	0.034550	0.056900	0.009800
C1401	C140	0.031430	0.119420	0.010520
C1411	C141	0.086770	0.700560	0.838700
C1421	C142	0.089430	0.700600	0.775740
C1431	C143	0.026910	0.752140	0.751640
C1441	C144	0.963640	0.802880	0.792840
C1451	C145	0.965030	0.799580	0.855160
C1461	C146	0.027710	0.753800	0.685780
C1471	C147	0.116780	0.727000	0.637240
C1481	C148	0.114600	0.728660	0.575140
C1491	C149	0.940520	0.782780	0.606980
C1501	C150	0.937770	0.783120	0.668740
C1511	C151	0.089410	0.608920	0.995060
C1521	C152	0.086890	0.546840	0.998980
C1531	C153	0.010250	0.532640	0.982460
C1541	C154	0.935410	0.583520	0.965660
C1551	C155	0.943380	0.644400	0.963240
C1561	C156	0.087550	0.861980	0.914120
C1571	C157	0.088180	0.924560	0.910480
C1581	C158	0.020490	0.966500	0.960520
C1591	C159	0.955650	0.943100	0.009800
C1601	C160	0.958050	0.880580	0.010520
N171	N17	0.597160	0.248780	0.378100
N181	N18	0.596480	0.156880	0.477560
N191	N19	0.423390	0.340300	0.462520
N201	N20	0.907180	0.255540	0.059900
N211	N21	0.646720	0.334060	0.505500
N221	N22	0.024740	0.751220	0.378100
N231	N23	0.925960	0.843120	0.477560
N241	N24	0.114090	0.659700	0.462520
N251	N25	0.032920	0.744460	0.059900
N261	N26	0.847780	0.665940	0.505500
N271	N27	0.095940	0.251220	0.878100
N281	N28	0.003360	0.343120	0.977560
N291	N29	0.013690	0.159700	0.962520
N301	N30	0.412720	0.244460	0.559900
N311	N31	0.230780	0.165940	0.005500
N321	N32	0.025960	0.748780	0.878100
N331	N33	0.019080	0.656880	0.977560
N341	N34	0.023790	0.840300	0.962520
N351	N35	0.027380	0.755540	0.559900
N361	N36	0.763720	0.834060	0.005500
O11	O1	0.621150	0.285880	0.512020
O21	O2	0.688900	0.362600	0.459200
O31	O3	0.621100	0.365200	0.556800
O41	O4	0.866830	0.714120	0.512020
O51	O5	0.851900	0.637400	0.459200
O61	O6	0.822100	0.634800	0.556800
O71	O7	0.157030	0.214120	0.012020
O81	O8	0.301500	0.137400	0.959200
O91	O9	0.236300	0.134800	0.056800
O101	O10	0.830950	0.785880	0.012020
O111	O11	0.739300	0.862600	0.959200
O121	O12	0.706900	0.865200	0.056800
N371	N37	0.452560	0.245000	0.264480
O131	O13	0.399420	0.295400	0.284360
O141	O14	0.435150	0.204400	0.298100
O151	O15	0.517070	0.236600	0.209860
N381	N38	0.063830	0.996540	0.384000
O161	O16	0.031490	0.042820	0.418000
O171	O17	0.123520	0.945160	0.391000
O181	O18	0.037300	0.000000	0.335200
N391	N39	0.780700	0.943000	0.662200
O191	O19	0.744300	0.900400	0.668800
O201	O20	0.755500	0.997200	0.642000
O211	O21	0.853700	0.930400	0.686000
N401	N40	0.805400	0.002800	0.907600
O221	O22	0.857700	0.960200	0.868600
O231	O23	0.821800	0.053800	0.893600
O241	O24	0.746000	0.993600	0.958400
N411	N41	0.645700	0.244000	0.027400
O251	O25	0.698000	0.198200	0.995800
O261	O26	0.649200	0.292400	0.001600
O271	O27	0.591000	0.238000	0.082400
N421	N42	0.282960	0.755000	0.264480
O281	O28	0.316220	0.704600	0.284360
O291	O29	0.266750	0.795600	0.298100
O301	O30	0.273070	0.763400	0.209860
N431	N43	0.552170	0.003460	0.384000
O311	O31	0.550510	0.957180	0.418000
O321	O32	0.485480	0.054840	0.391000
O331	O33	0.627500	0.000000	0.335200
N441	N44	0.557100	0.057000	0.662200
O341	O34	0.586900	0.099600	0.668800
O351	O35	0.602500	0.002800	0.642000
O361	O36	0.460300	0.069600	0.686000
N451	N45	0.287000	0.997200	0.907600
O371	O37	0.273700	0.039800	0.868600
O381	O38	0.284600	0.946200	0.893600
O391	O39	0.295600	0.006400	0.958400
N461	N46	0.326900	0.756000	0.027400
O401	O40	0.306200	0.801800	0.995800
O411	O41	0.349200	0.707600	0.001600
O421	O42	0.326600	0.762000	0.082400
N471	N47	0.947560	0.255000	0.764480
O431	O43	0.944820	0.204600	0.784360
O441	O44	0.889550	0.295600	0.798100
O451	O45	0.003670	0.263400	0.709860
N481	N48	0.310370	0.503460	0.884000
O461	O46	0.324310	0.457180	0.918000
O471	O47	0.318680	0.554840	0.891000
O481	O48	0.287300	0.500000	0.835200
N491	N49	0.973700	0.557000	0.162200
O491	O49	0.894700	0.599600	0.168800
O501	O50	0.002700	0.502800	0.142000
O511	O51	0.034100	0.569600	0.186000
N501	N50	0.058200	0.497200	0.407600
O521	O52	0.067900	0.539800	0.368600
O531	O53	0.125600	0.446200	0.393600
O541	O54	0.989600	0.506400	0.458400
N511	N51	0.139700	0.256000	0.527400
O551	O55	0.146200	0.301800	0.495800
O561	O56	0.191600	0.207600	0.501600
O571	O57	0.079000	0.262000	0.582400
N521	N52	0.287960	0.745000	0.764480
O581	O58	0.270820	0.795400	0.784360
O591	O59	0.312350	0.704400	0.798100
O601	O60	0.286470	0.736600	0.709860
N531	N53	0.805630	0.496540	0.884000
O611	O61	0.757690	0.542820	0.918000
O621	O62	0.790320	0.445160	0.891000
O631	O63	0.877500	0.500000	0.835200
N541	N54	0.864100	0.443000	0.162200
O641	O64	0.936500	0.400400	0.168800
O651	O65	0.855300	0.497200	0.142000
O661	O66	0.779900	0.430400	0.186000
N551	N55	0.534200	0.502800	0.407600
O671	O67	0.563500	0.460200	0.368600
O681	O68	0.480800	0.553800	0.393600
O691	O69	0.552000	0.493600	0.458400
N561	N56	0.332900	0.744000	0.527400
O701	O70	0.358000	0.698200	0.495800
O711	O71	0.306800	0.792400	0.501600
O721	O72	0.338600	0.738000	0.582400
