data_NAJQUN_clean_PM
_symmetry_space_group_name_H-M	'P1'
_cell_length_a	8.835300
_cell_length_b	14.268200
_cell_length_c	22.808000
_cell_angle_alpha	92.475000
_cell_angle_beta	91.101000
_cell_angle_gamma	105.445000
_symmetry_Int_Tables_number 1

loop_
_symmetry_equiv_pos_as_xyz
'x,y,z'

loop_
_atom_site_label
_atom_site_type_symbol
_atom_site_fract_x
_atom_site_fract_y
_atom_site_fract_z
Mn11	Mn1	0.008330	0.548150	0.079580
Mn21	Mn2	0.505750	0.952960	0.426160
Mn31	Mn3	0.256600	0.826340	0.301810
C11	C1	0.697200	0.821400	0.477100
C21	C2	0.712100	0.719800	0.478330
C31	C3	0.615700	0.646500	0.441230
H11	H1	0.540500	0.661100	0.416800
C41	C4	0.630800	0.552800	0.440540
H21	H2	0.565700	0.504500	0.415800
C51	C5	0.743400	0.530100	0.476720
C61	C6	0.837300	0.602100	0.514220
H31	H3	0.911000	0.587100	0.539200
C71	C7	0.822300	0.696800	0.514750
H41	H4	0.886800	0.744800	0.539800
C81	C8	0.757100	0.428000	0.477230
C91	C9	0.767000	0.371500	0.425710
C101	C10	0.766400	0.274200	0.430730
H51	H5	0.770000	0.236200	0.396900
C111	C11	0.760300	0.232400	0.485150
C121	C12	0.756700	0.289800	0.535880
C131	C13	0.756300	0.386000	0.531050
H61	H6	0.755400	0.424000	0.565100
C141	C14	0.751200	0.248900	0.595460
C151	C15	0.760800	0.127500	0.485000
C161	C16	0.900200	0.500000	0.357710
H71	H7	0.951600	0.538200	0.389900
C171	C17	0.789200	0.411700	0.366150
C181	C18	0.711900	0.358400	0.317540
H81	H8	0.635500	0.300600	0.322600
C191	C19	0.745800	0.389300	0.260950
H91	H9	0.692500	0.352000	0.228700
C201	C20	0.858800	0.475700	0.252690
C211	C21	0.933800	0.530500	0.301480
H101	H10	0.008400	0.589200	0.296400
C221	C22	0.903400	0.506600	0.191320
C231	C23	0.743200	0.375200	0.022840
C241	C24	0.745500	0.269800	0.024970
C251	C25	0.748200	0.211800	0.974670
C261	C26	0.749500	0.115200	0.980690
H111	H11	0.750600	0.076400	0.947000
C271	C27	0.749300	0.074700	0.034660
C281	C28	0.739100	0.131700	0.085530
C291	C29	0.739600	0.228900	0.079570
H121	H12	0.735900	0.267500	0.113100
C301	C30	0.744800	0.247900	0.913460
C311	C31	0.715100	0.089900	0.145160
C321	C32	0.796600	0.139000	0.194420
H131	H13	0.871700	0.197800	0.190700
C331	C33	0.767400	0.101100	0.249650
H141	H14	0.821600	0.135300	0.282700
C341	C34	0.656500	0.011800	0.255290
C351	C35	0.577900	0.962000	0.205900
H151	H15	0.505500	0.901900	0.209300
C361	C36	0.605700	0.000400	0.151040
H161	H16	0.551000	0.966300	0.118000
C371	C37	0.760000	0.971900	0.036000
C381	C38	0.872700	0.947600	0.071450
H171	H17	0.939900	0.995500	0.095700
C391	C39	0.885900	0.852900	0.071030
H181	H18	0.961400	0.837800	0.095100
C401	C40	0.786400	0.780100	0.034700
C411	C41	0.674800	0.804700	0.999010
H191	H19	0.607900	0.757100	0.974400
C421	C42	0.662600	0.899400	0.999870
H201	H20	0.587500	0.914600	0.975700
C431	C43	0.800400	0.677900	0.033220
C441	C44	0.615400	0.975900	0.315160
O11	O1	0.597300	0.836530	0.441250
O21	O2	0.782100	0.885800	0.512610
O31	O3	0.750000	0.301710	0.640140
O41	O4	0.744300	0.158690	0.599580
O51	O5	0.627600	0.065230	0.489830
O61	O6	0.886900	0.107720	0.477820
O71	O7	0.024700	0.575100	0.185020
O81	O8	0.821400	0.462900	0.148150
O91	O9	0.614800	0.393310	0.031580
O101	O10	0.871500	0.437760	0.014250
O111	O11	0.758700	0.337010	0.907860
O121	O12	0.727300	0.185370	0.871710
O131	O13	0.717300	0.617200	0.995430
O141	O14	0.897800	0.659800	0.068790
O151	O15	0.498000	0.902800	0.320650
O161	O16	0.693700	0.017900	0.359580
Mn41	Mn4	0.991670	0.451850	0.920420
Mn51	Mn5	0.494250	0.047040	0.573840
Mn61	Mn6	0.743400	0.173660	0.698190
C451	C45	0.302800	0.178600	0.522900
C461	C46	0.287900	0.280200	0.521670
C471	C47	0.384300	0.353500	0.558770
H211	H21	0.459500	0.338900	0.583200
C481	C48	0.369200	0.447200	0.559460
H221	H22	0.434300	0.495500	0.584200
C491	C49	0.256600	0.469900	0.523280
C501	C50	0.162700	0.397900	0.485780
H231	H23	0.089000	0.412900	0.460800
C511	C51	0.177700	0.303200	0.485250
H241	H24	0.113200	0.255200	0.460200
C521	C52	0.242900	0.572000	0.522770
C531	C53	0.233000	0.628500	0.574290
C541	C54	0.233600	0.725800	0.569270
H251	H25	0.230000	0.763800	0.603100
C551	C55	0.239700	0.767600	0.514850
C561	C56	0.243300	0.710200	0.464120
C571	C57	0.243700	0.614000	0.468950
H261	H26	0.244600	0.576000	0.434900
C581	C58	0.248800	0.751100	0.404540
C591	C59	0.239200	0.872500	0.515000
C601	C60	0.099800	0.500000	0.642290
H271	H27	0.048400	0.461800	0.610100
C611	C61	0.210800	0.588300	0.633850
C621	C62	0.288100	0.641600	0.682460
H281	H28	0.364500	0.699400	0.677400
C631	C63	0.254200	0.610700	0.739050
H291	H29	0.307500	0.648000	0.771300
C641	C64	0.141200	0.524300	0.747310
C651	C65	0.066200	0.469500	0.698520
H301	H30	0.991600	0.410800	0.703600
C661	C66	0.096600	0.493400	0.808680
C671	C67	0.256800	0.624800	0.977160
C681	C68	0.254500	0.730200	0.975030
C691	C69	0.251800	0.788200	0.025330
C701	C70	0.250500	0.884800	0.019310
H311	H31	0.249400	0.923600	0.053000
C711	C71	0.250700	0.925300	0.965340
C721	C72	0.260900	0.868300	0.914470
C731	C73	0.260400	0.771100	0.920430
H321	H32	0.264100	0.732500	0.886900
C741	C74	0.255200	0.752100	0.086540
C751	C75	0.284900	0.910100	0.854840
C761	C76	0.203400	0.861000	0.805580
H331	H33	0.128300	0.802200	0.809300
C771	C77	0.232600	0.898900	0.750350
H341	H34	0.178400	0.864700	0.717300
C781	C78	0.343500	0.988200	0.744710
C791	C79	0.422100	0.038000	0.794100
H351	H35	0.494500	0.098100	0.790700
C801	C80	0.394300	0.999600	0.848960
H361	H36	0.449000	0.033700	0.882000
C811	C81	0.240000	0.028100	0.964000
C821	C82	0.127300	0.052400	0.928550
H371	H37	0.060100	0.004500	0.904300
C831	C83	0.114100	0.147100	0.928970
H381	H38	0.038600	0.162200	0.904900
C841	C84	0.213600	0.219900	0.965300
C851	C85	0.325200	0.195300	0.000990
H391	H39	0.392100	0.242900	0.025600
C861	C86	0.337400	0.100600	0.000130
H401	H40	0.412500	0.085400	0.024300
C871	C87	0.199600	0.322100	0.966780
C881	C88	0.384600	0.024100	0.684840
O171	O17	0.402700	0.163470	0.558750
O181	O18	0.217900	0.114200	0.487390
O191	O19	0.250000	0.698290	0.359860
O201	O20	0.255700	0.841310	0.400420
O211	O21	0.372400	0.934770	0.510170
O221	O22	0.113100	0.892280	0.522180
O231	O23	0.975300	0.424900	0.814980
O241	O24	0.178600	0.537100	0.851850
O251	O25	0.385200	0.606690	0.968420
O261	O26	0.128500	0.562240	0.985750
O271	O27	0.241300	0.662990	0.092140
O281	O28	0.272700	0.814630	0.128290
O291	O29	0.282700	0.382800	0.004570
O301	O30	0.102200	0.340200	0.931210
O311	O31	0.502000	0.097200	0.679350
O321	O32	0.306300	0.982100	0.640420
Mn71	Mn7	0.500000	0.500000	0.000000
Mn81	Mn8	0.000000	0.000000	0.500000
