data_NAJTEA_clean_PM
_symmetry_space_group_name_H-M	'P1'
_cell_length_a	29.162000
_cell_length_b	13.454500
_cell_length_c	13.903000
_cell_angle_alpha	90.000000
_cell_angle_beta	98.219000
_cell_angle_gamma	90.000000
_symmetry_Int_Tables_number 1

loop_
_symmetry_equiv_pos_as_xyz
'x,y,z'

loop_
_atom_site_label
_atom_site_type_symbol
_atom_site_fract_x
_atom_site_fract_y
_atom_site_fract_z
Ho11	Ho1	0.315410	0.300930	0.540770
C11	C1	0.704400	0.121800	0.242000
C21	C2	0.732400	0.053700	0.299100
H11	H1	0.763600	0.047300	0.292900
C31	C3	0.712900	0.995700	0.365300
C41	C4	0.666300	0.006300	0.374900
H21	H2	0.653400	0.965100	0.417500
C51	C5	0.639100	0.077000	0.322300
C61	C6	0.659100	0.135400	0.254000
H31	H3	0.641300	0.183100	0.217400
C71	C7	0.725000	0.179700	0.164100
C81	C8	0.742900	0.922700	0.427400
C91	C9	0.590800	0.095300	0.341600
C101	C10	0.563200	0.017500	0.363500
H41	H4	0.574600	0.953000	0.363200
C111	C11	0.519500	0.032300	0.385400
H51	H5	0.501100	0.977900	0.395600
C121	C12	0.501900	0.129400	0.392900
C131	C13	0.459200	0.150500	0.424600
H61	H6	0.440900	0.098200	0.440600
C141	C14	0.444100	0.245000	0.432300
C151	C15	0.470600	0.324500	0.406000
H71	H7	0.459700	0.389000	0.410200
C161	C16	0.512500	0.309400	0.374000
H81	H8	0.529500	0.363100	0.356100
C171	C17	0.529800	0.210800	0.368400
C181	C18	0.573700	0.190000	0.341600
H91	H9	0.591500	0.242200	0.323400
C191	C19	0.399800	0.264400	0.473800
O11	O1	0.700000	0.247800	0.121100
O21	O2	0.765200	0.156400	0.151600
O31	O3	0.785000	0.943900	0.450700
O41	O4	0.725400	0.845900	0.454600
O51	O5	0.383000	0.351300	0.467800
O61	O6	0.380600	0.195200	0.513100
Ho21	Ho2	0.815410	0.800930	0.540770
C201	C20	0.204400	0.621800	0.242000
C211	C21	0.232400	0.553700	0.299100
H101	H10	0.263600	0.547300	0.292900
C221	C22	0.212900	0.495700	0.365300
C231	C23	0.166300	0.506300	0.374900
H111	H11	0.153400	0.465100	0.417500
C241	C24	0.139100	0.577000	0.322300
C251	C25	0.159100	0.635400	0.254000
H121	H12	0.141300	0.683100	0.217400
C261	C26	0.225000	0.679700	0.164100
C271	C27	0.242900	0.422700	0.427400
C281	C28	0.090800	0.595300	0.341600
C291	C29	0.063200	0.517500	0.363500
H131	H13	0.074600	0.453000	0.363200
C301	C30	0.019500	0.532300	0.385400
H141	H14	0.001100	0.477900	0.395600
C311	C31	0.001900	0.629400	0.392900
C321	C32	0.959200	0.650500	0.424600
H151	H15	0.940900	0.598200	0.440600
C331	C33	0.944100	0.745000	0.432300
C341	C34	0.970600	0.824500	0.406000
H161	H16	0.959700	0.889000	0.410200
C351	C35	0.012500	0.809400	0.374000
H171	H17	0.029500	0.863100	0.356100
C361	C36	0.029800	0.710800	0.368400
C371	C37	0.073700	0.690000	0.341600
H181	H18	0.091500	0.742200	0.323400
C381	C38	0.899800	0.764400	0.473800
O71	O7	0.200000	0.747800	0.121100
O81	O8	0.265200	0.656400	0.151600
O91	O9	0.285000	0.443900	0.450700
O101	O10	0.225400	0.345900	0.454600
O111	O11	0.883000	0.851300	0.467800
O121	O12	0.880600	0.695200	0.513100
Ho31	Ho3	0.684590	0.300930	0.959230
C391	C39	0.295600	0.121800	0.258000
C401	C40	0.267600	0.053700	0.200900
H191	H19	0.236400	0.047300	0.207100
C411	C41	0.287100	0.995700	0.134700
C421	C42	0.333700	0.006300	0.125100
H201	H20	0.346600	0.965100	0.082500
C431	C43	0.360900	0.077000	0.177700
C441	C44	0.340900	0.135400	0.246000
H211	H21	0.358700	0.183100	0.282600
C451	C45	0.275000	0.179700	0.335900
C461	C46	0.257100	0.922700	0.072600
C471	C47	0.409200	0.095300	0.158400
C481	C48	0.436800	0.017500	0.136500
H221	H22	0.425400	0.953000	0.136800
C491	C49	0.480500	0.032300	0.114600
H231	H23	0.498900	0.977900	0.104400
C501	C50	0.498100	0.129400	0.107100
C511	C51	0.540800	0.150500	0.075400
H241	H24	0.559100	0.098200	0.059400
C521	C52	0.555900	0.245000	0.067700
C531	C53	0.529400	0.324500	0.094000
H251	H25	0.540300	0.389000	0.089800
C541	C54	0.487500	0.309400	0.126000
H261	H26	0.470500	0.363100	0.143900
C551	C55	0.470200	0.210800	0.131600
C561	C56	0.426300	0.190000	0.158400
H271	H27	0.408500	0.242200	0.176600
C571	C57	0.600200	0.264400	0.026200
O131	O13	0.300000	0.247800	0.378900
O141	O14	0.234800	0.156400	0.348400
O151	O15	0.215000	0.943900	0.049300
O161	O16	0.274600	0.845900	0.045400
O171	O17	0.617000	0.351300	0.032200
O181	O18	0.619400	0.195200	0.986900
Ho41	Ho4	0.184590	0.800930	0.959230
C581	C58	0.795600	0.621800	0.258000
C591	C59	0.767600	0.553700	0.200900
H281	H28	0.736400	0.547300	0.207100
C601	C60	0.787100	0.495700	0.134700
C611	C61	0.833700	0.506300	0.125100
H291	H29	0.846600	0.465100	0.082500
C621	C62	0.860900	0.577000	0.177700
C631	C63	0.840900	0.635400	0.246000
H301	H30	0.858700	0.683100	0.282600
C641	C64	0.775000	0.679700	0.335900
C651	C65	0.757100	0.422700	0.072600
C661	C66	0.909200	0.595300	0.158400
C671	C67	0.936800	0.517500	0.136500
H311	H31	0.925400	0.453000	0.136800
C681	C68	0.980500	0.532300	0.114600
H321	H32	0.998900	0.477900	0.104400
C691	C69	0.998100	0.629400	0.107100
C701	C70	0.040800	0.650500	0.075400
H331	H33	0.059100	0.598200	0.059400
C711	C71	0.055900	0.745000	0.067700
C721	C72	0.029400	0.824500	0.094000
H341	H34	0.040300	0.889000	0.089800
C731	C73	0.987500	0.809400	0.126000
H351	H35	0.970500	0.863100	0.143900
C741	C74	0.970200	0.710800	0.131600
C751	C75	0.926300	0.690000	0.158400
H361	H36	0.908500	0.742200	0.176600
C761	C76	0.100200	0.764400	0.026200
O191	O19	0.800000	0.747800	0.378900
O201	O20	0.734800	0.656400	0.348400
O211	O21	0.715000	0.443900	0.049300
O221	O22	0.774600	0.345900	0.045400
O231	O23	0.117000	0.851300	0.032200
O241	O24	0.119400	0.695200	0.986900
Ho51	Ho5	0.684590	0.699070	0.459230
C771	C77	0.295600	0.878200	0.758000
C781	C78	0.267600	0.946300	0.700900
H371	H37	0.236400	0.952700	0.707100
C791	C79	0.287100	0.004300	0.634700
C801	C80	0.333700	0.993700	0.625100
H381	H38	0.346600	0.034900	0.582500
C811	C81	0.360900	0.923000	0.677700
C821	C82	0.340900	0.864600	0.746000
H391	H39	0.358700	0.816900	0.782600
C831	C83	0.275000	0.820300	0.835900
C841	C84	0.257100	0.077300	0.572600
C851	C85	0.409200	0.904700	0.658400
C861	C86	0.436800	0.982500	0.636500
H401	H40	0.425400	0.047000	0.636800
C871	C87	0.480500	0.967700	0.614600
H411	H41	0.498900	0.022100	0.604400
C881	C88	0.498100	0.870600	0.607100
C891	C89	0.540800	0.849500	0.575400
H421	H42	0.559100	0.901800	0.559400
C901	C90	0.555900	0.755000	0.567700
C911	C91	0.529400	0.675500	0.594000
H431	H43	0.540300	0.611000	0.589800
C921	C92	0.487500	0.690600	0.626000
H441	H44	0.470500	0.636900	0.643900
C931	C93	0.470200	0.789200	0.631600
C941	C94	0.426300	0.810000	0.658400
H451	H45	0.408500	0.757800	0.676600
C951	C95	0.600200	0.735600	0.526200
O251	O25	0.300000	0.752200	0.878900
O261	O26	0.234800	0.843600	0.848400
O271	O27	0.215000	0.056100	0.549300
O281	O28	0.274600	0.154100	0.545400
O291	O29	0.617000	0.648700	0.532200
O301	O30	0.619400	0.804800	0.486900
Ho61	Ho6	0.184590	0.199070	0.459230
C961	C96	0.795600	0.378200	0.758000
C971	C97	0.767600	0.446300	0.700900
H461	H46	0.736400	0.452700	0.707100
C981	C98	0.787100	0.504300	0.634700
C991	C99	0.833700	0.493700	0.625100
H471	H47	0.846600	0.534900	0.582500
C1001	C100	0.860900	0.423000	0.677700
C1011	C101	0.840900	0.364600	0.746000
H481	H48	0.858700	0.316900	0.782600
C1021	C102	0.775000	0.320300	0.835900
C1031	C103	0.757100	0.577300	0.572600
C1041	C104	0.909200	0.404700	0.658400
C1051	C105	0.936800	0.482500	0.636500
H491	H49	0.925400	0.547000	0.636800
C1061	C106	0.980500	0.467700	0.614600
H501	H50	0.998900	0.522100	0.604400
C1071	C107	0.998100	0.370600	0.607100
C1081	C108	0.040800	0.349500	0.575400
H511	H51	0.059100	0.401800	0.559400
C1091	C109	0.055900	0.255000	0.567700
C1101	C110	0.029400	0.175500	0.594000
H521	H52	0.040300	0.111000	0.589800
C1111	C111	0.987500	0.190600	0.626000
H531	H53	0.970500	0.136900	0.643900
C1121	C112	0.970200	0.289200	0.631600
C1131	C113	0.926300	0.310000	0.658400
H541	H54	0.908500	0.257800	0.676600
C1141	C114	0.100200	0.235600	0.526200
O311	O31	0.800000	0.252200	0.878900
O321	O32	0.734800	0.343600	0.848400
O331	O33	0.715000	0.556100	0.549300
O341	O34	0.774600	0.654100	0.545400
O351	O35	0.117000	0.148700	0.532200
O361	O36	0.119400	0.304800	0.486900
Ho71	Ho7	0.315410	0.699070	0.040770
C1151	C115	0.704400	0.878200	0.742000
C1161	C116	0.732400	0.946300	0.799100
H551	H55	0.763600	0.952700	0.792900
C1171	C117	0.712900	0.004300	0.865300
C1181	C118	0.666300	0.993700	0.874900
H561	H56	0.653400	0.034900	0.917500
C1191	C119	0.639100	0.923000	0.822300
C1201	C120	0.659100	0.864600	0.754000
H571	H57	0.641300	0.816900	0.717400
C1211	C121	0.725000	0.820300	0.664100
C1221	C122	0.742900	0.077300	0.927400
C1231	C123	0.590800	0.904700	0.841600
C1241	C124	0.563200	0.982500	0.863500
H581	H58	0.574600	0.047000	0.863200
C1251	C125	0.519500	0.967700	0.885400
H591	H59	0.501100	0.022100	0.895600
C1261	C126	0.501900	0.870600	0.892900
C1271	C127	0.459200	0.849500	0.924600
H601	H60	0.440900	0.901800	0.940600
C1281	C128	0.444100	0.755000	0.932300
C1291	C129	0.470600	0.675500	0.906000
H611	H61	0.459700	0.611000	0.910200
C1301	C130	0.512500	0.690600	0.874000
H621	H62	0.529500	0.636900	0.856100
C1311	C131	0.529800	0.789200	0.868400
C1321	C132	0.573700	0.810000	0.841600
H631	H63	0.591500	0.757800	0.823400
C1331	C133	0.399800	0.735600	0.973800
O371	O37	0.700000	0.752200	0.621100
O381	O38	0.765200	0.843600	0.651600
O391	O39	0.785000	0.056100	0.950700
O401	O40	0.725400	0.154100	0.954600
O411	O41	0.383000	0.648700	0.967800
O421	O42	0.380600	0.804800	0.013100
Ho81	Ho8	0.815410	0.199070	0.040770
C1341	C134	0.204400	0.378200	0.742000
C1351	C135	0.232400	0.446300	0.799100
H641	H64	0.263600	0.452700	0.792900
C1361	C136	0.212900	0.504300	0.865300
C1371	C137	0.166300	0.493700	0.874900
H651	H65	0.153400	0.534900	0.917500
C1381	C138	0.139100	0.423000	0.822300
C1391	C139	0.159100	0.364600	0.754000
H661	H66	0.141300	0.316900	0.717400
C1401	C140	0.225000	0.320300	0.664100
C1411	C141	0.242900	0.577300	0.927400
C1421	C142	0.090800	0.404700	0.841600
C1431	C143	0.063200	0.482500	0.863500
H671	H67	0.074600	0.547000	0.863200
C1441	C144	0.019500	0.467700	0.885400
H681	H68	0.001100	0.522100	0.895600
C1451	C145	0.001900	0.370600	0.892900
C1461	C146	0.959200	0.349500	0.924600
H691	H69	0.940900	0.401800	0.940600
C1471	C147	0.944100	0.255000	0.932300
C1481	C148	0.970600	0.175500	0.906000
H701	H70	0.959700	0.111000	0.910200
C1491	C149	0.012500	0.190600	0.874000
H711	H71	0.029500	0.136900	0.856100
C1501	C150	0.029800	0.289200	0.868400
C1511	C151	0.073700	0.310000	0.841600
H721	H72	0.091500	0.257800	0.823400
C1521	C152	0.899800	0.235600	0.973800
O431	O43	0.200000	0.252200	0.621100
O441	O44	0.265200	0.343600	0.651600
O451	O45	0.285000	0.556100	0.950700
O461	O46	0.225400	0.654100	0.954600
O471	O47	0.883000	0.148700	0.967800
O481	O48	0.880600	0.304800	0.013100
