data_NAKLIW_clean_PM
_symmetry_space_group_name_H-M	'P1'
_cell_length_a	14.504900
_cell_length_b	17.161600
_cell_length_c	18.138900
_cell_angle_alpha	90.000000
_cell_angle_beta	90.000000
_cell_angle_gamma	90.000000
_symmetry_Int_Tables_number 1

loop_
_symmetry_equiv_pos_as_xyz
'x,y,z'

loop_
_atom_site_label
_atom_site_type_symbol
_atom_site_fract_x
_atom_site_fract_y
_atom_site_fract_z
Zn11	Zn1	0.554790	0.938280	0.452250
Zn21	Zn2	0.346700	0.946120	0.397560
Zn31	Zn3	0.445210	0.438280	0.047750
Zn41	Zn4	0.653300	0.446120	0.102440
Zn51	Zn5	0.445210	0.061720	0.547750
Zn61	Zn6	0.653300	0.053880	0.602440
Zn71	Zn7	0.554790	0.561720	0.952250
Zn81	Zn8	0.346700	0.553880	0.897560
H11	H1	0.078600	0.062300	0.406500
H21	H2	0.063400	0.891200	0.555700
H31	H3	0.338000	0.730800	0.265100
H41	H4	0.595100	0.723200	0.346300
H51	H5	0.625100	0.614100	0.277000
H61	H6	0.367100	0.621500	0.196200
H71	H7	0.391000	0.938000	0.519000
H81	H8	0.921400	0.562300	0.093500
H91	H9	0.936600	0.391200	0.944300
H101	H10	0.662000	0.230800	0.234900
H111	H11	0.404900	0.223200	0.153700
H121	H12	0.374900	0.114100	0.223000
H131	H13	0.632900	0.121500	0.303800
H141	H14	0.609000	0.438000	0.981000
H151	H15	0.921400	0.937700	0.593500
H161	H16	0.936600	0.108800	0.444300
H171	H17	0.662000	0.269200	0.734900
H181	H18	0.404900	0.276800	0.653700
H191	H19	0.374900	0.385900	0.723000
H201	H20	0.632900	0.378500	0.803800
H211	H21	0.609000	0.062000	0.481000
H221	H22	0.078600	0.437700	0.906500
H231	H23	0.063400	0.608800	0.055700
H241	H24	0.338000	0.769200	0.765100
H251	H25	0.595100	0.776800	0.846300
H261	H26	0.625100	0.885900	0.777000
H271	H27	0.367100	0.878500	0.696200
H281	H28	0.391000	0.562000	0.019000
C11	C1	0.180700	0.944400	0.456500
C21	C2	0.086800	0.972900	0.477900
C31	C3	0.047400	0.037200	0.444400
C41	C4	0.038400	0.935100	0.533400
C51	C5	0.447600	0.813500	0.355100
C61	C6	0.463500	0.739800	0.311900
C71	C7	0.395900	0.707600	0.267200
C81	C8	0.549600	0.703100	0.315700
C91	C9	0.521300	0.539200	0.179100
C101	C10	0.499800	0.606200	0.228600
C111	C11	0.567400	0.637600	0.274400
C121	C12	0.413200	0.642100	0.226000
C131	C13	0.819300	0.444400	0.043500
C141	C14	0.913200	0.472900	0.022100
C151	C15	0.952600	0.537200	0.055600
C161	C16	0.961600	0.435100	0.966600
C171	C17	0.552400	0.313500	0.144900
C181	C18	0.536500	0.239800	0.188100
C191	C19	0.604100	0.207600	0.232800
C201	C20	0.450400	0.203100	0.184300
C211	C21	0.478700	0.039200	0.320900
C221	C22	0.500200	0.106200	0.271400
C231	C23	0.432600	0.137600	0.225600
C241	C24	0.586800	0.142100	0.274000
C251	C25	0.819300	0.055600	0.543500
C261	C26	0.913200	0.027100	0.522100
C271	C27	0.952600	0.962800	0.555600
C281	C28	0.961600	0.064900	0.466600
C291	C29	0.552400	0.186500	0.644900
C301	C30	0.536500	0.260200	0.688100
C311	C31	0.604100	0.292400	0.732800
C321	C32	0.450400	0.296900	0.684300
C331	C33	0.478700	0.460800	0.820900
C341	C34	0.500200	0.393800	0.771400
C351	C35	0.432600	0.362400	0.725600
C361	C36	0.586800	0.357900	0.774000
C371	C37	0.180700	0.555600	0.956500
C381	C38	0.086800	0.527100	0.977900
C391	C39	0.047400	0.462800	0.944400
C401	C40	0.038400	0.564900	0.033400
C411	C41	0.447600	0.686500	0.855100
C421	C42	0.463500	0.760200	0.811900
C431	C43	0.395900	0.792400	0.767200
C441	C44	0.549600	0.796900	0.815700
C451	C45	0.521300	0.960800	0.679100
C461	C46	0.499800	0.893800	0.728600
C471	C47	0.567400	0.862400	0.774400
C481	C48	0.413200	0.857900	0.726000
O11	O1	0.514500	0.841200	0.388700
O21	O2	0.366700	0.841740	0.353500
O31	O3	0.218800	0.979500	0.402700
O41	O4	0.216800	0.890300	0.489200
O51	O5	0.457800	0.512740	0.139560
O61	O6	0.603100	0.514500	0.180110
O71	O7	0.418800	0.960850	0.487100
O81	O8	0.485500	0.341200	0.111300
O91	O9	0.633300	0.341740	0.146500
O101	O10	0.781200	0.479500	0.097300
O111	O11	0.783200	0.390300	0.010800
O121	O12	0.542200	0.012740	0.360440
O131	O13	0.396900	0.014500	0.319890
O141	O14	0.581200	0.460850	0.012900
O151	O15	0.485500	0.158800	0.611300
O161	O16	0.633300	0.158260	0.646500
O171	O17	0.781200	0.020500	0.597300
O181	O18	0.783200	0.109700	0.510800
O191	O19	0.542200	0.487260	0.860440
O201	O20	0.396900	0.485500	0.819890
O211	O21	0.581200	0.039150	0.512900
O221	O22	0.514500	0.658800	0.888700
O231	O23	0.366700	0.658260	0.853500
O241	O24	0.218800	0.520500	0.902700
O251	O25	0.216800	0.609700	0.989200
O261	O26	0.457800	0.987260	0.639560
O271	O27	0.603100	0.985500	0.680110
O281	O28	0.418800	0.539150	0.987100
Zn91	Zn9	0.945210	0.061720	0.952250
Zn101	Zn10	0.153300	0.053880	0.897560
Zn111	Zn11	0.054790	0.561720	0.547750
Zn121	Zn12	0.846700	0.553880	0.602440
Zn131	Zn13	0.054790	0.938280	0.047750
Zn141	Zn14	0.846700	0.946120	0.102440
Zn151	Zn15	0.945210	0.438280	0.452250
Zn161	Zn16	0.153300	0.446120	0.397560
H291	H29	0.421400	0.937700	0.906500
H301	H30	0.436600	0.108800	0.055700
H311	H31	0.162000	0.269200	0.765100
H321	H32	0.904900	0.276800	0.846300
H331	H33	0.874900	0.385900	0.777000
H341	H34	0.132900	0.378500	0.696200
H351	H35	0.109000	0.062000	0.019000
H361	H36	0.578600	0.437700	0.593500
H371	H37	0.563400	0.608800	0.444300
H381	H38	0.838000	0.769200	0.734900
H391	H39	0.095100	0.776800	0.653700
H401	H40	0.125100	0.885900	0.723000
H411	H41	0.867100	0.878500	0.803800
H421	H42	0.891000	0.562000	0.481000
H431	H43	0.578600	0.062300	0.093500
H441	H44	0.563400	0.891200	0.944300
H451	H45	0.838000	0.730800	0.234900
H461	H46	0.095100	0.723200	0.153700
H471	H47	0.125100	0.614100	0.223000
H481	H48	0.867100	0.621500	0.303800
H491	H49	0.891000	0.938000	0.981000
H501	H50	0.421400	0.562300	0.406500
H511	H51	0.436600	0.391200	0.555700
H521	H52	0.162000	0.230800	0.265100
H531	H53	0.904900	0.223200	0.346300
H541	H54	0.874900	0.114100	0.277000
H551	H55	0.132900	0.121500	0.196200
H561	H56	0.109000	0.438000	0.519000
C491	C49	0.319300	0.055600	0.956500
C501	C50	0.413200	0.027100	0.977900
C511	C51	0.452600	0.962800	0.944400
C521	C52	0.461600	0.064900	0.033400
C531	C53	0.052400	0.186500	0.855100
C541	C54	0.036500	0.260200	0.811900
C551	C55	0.104100	0.292400	0.767200
C561	C56	0.950400	0.296900	0.815700
C571	C57	0.978700	0.460800	0.679100
C581	C58	0.000200	0.393800	0.728600
C591	C59	0.932600	0.362400	0.774400
C601	C60	0.086800	0.357900	0.726000
C611	C61	0.680700	0.555600	0.543500
C621	C62	0.586800	0.527100	0.522100
C631	C63	0.547400	0.462800	0.555600
C641	C64	0.538400	0.564900	0.466600
C651	C65	0.947600	0.686500	0.644900
C661	C66	0.963500	0.760200	0.688100
C671	C67	0.895900	0.792400	0.732800
C681	C68	0.049600	0.796900	0.684300
C691	C69	0.021300	0.960800	0.820900
C701	C70	0.999800	0.893800	0.771400
C711	C71	0.067400	0.862400	0.725600
C721	C72	0.913200	0.857900	0.774000
C731	C73	0.680700	0.944400	0.043500
C741	C74	0.586800	0.972900	0.022100
C751	C75	0.547400	0.037200	0.055600
C761	C76	0.538400	0.935100	0.966600
C771	C77	0.947600	0.813500	0.144900
C781	C78	0.963500	0.739800	0.188100
C791	C79	0.895900	0.707600	0.232800
C801	C80	0.049600	0.703100	0.184300
C811	C81	0.021300	0.539200	0.320900
C821	C82	0.999800	0.606200	0.271400
C831	C83	0.067400	0.637600	0.225600
C841	C84	0.913200	0.642100	0.274000
C851	C85	0.319300	0.444400	0.456500
C861	C86	0.413200	0.472900	0.477900
C871	C87	0.452600	0.537200	0.444400
C881	C88	0.461600	0.435100	0.533400
C891	C89	0.052400	0.313500	0.355100
C901	C90	0.036500	0.239800	0.311900
C911	C91	0.104100	0.207600	0.267200
C921	C92	0.950400	0.203100	0.315700
C931	C93	0.978700	0.039200	0.179100
C941	C94	0.000200	0.106200	0.228600
C951	C95	0.932600	0.137600	0.274400
C961	C96	0.086800	0.142100	0.226000
O291	O29	0.985500	0.158800	0.888700
O301	O30	0.133300	0.158260	0.853500
O311	O31	0.281200	0.020500	0.902700
O321	O32	0.283200	0.109700	0.989200
O331	O33	0.042200	0.487260	0.639560
O341	O34	0.896900	0.485500	0.680110
O351	O35	0.081200	0.039150	0.987100
O361	O36	0.014500	0.658800	0.611300
O371	O37	0.866700	0.658260	0.646500
O381	O38	0.718800	0.520500	0.597300
O391	O39	0.716800	0.609700	0.510800
O401	O40	0.957800	0.987260	0.860440
O411	O41	0.103100	0.985500	0.819890
O421	O42	0.918800	0.539150	0.512900
O431	O43	0.014500	0.841200	0.111300
O441	O44	0.866700	0.841740	0.146500
O451	O45	0.718800	0.979500	0.097300
O461	O46	0.716800	0.890300	0.010800
O471	O47	0.957800	0.512740	0.360440
O481	O48	0.103100	0.514500	0.319890
O491	O49	0.918800	0.960850	0.012900
O501	O50	0.985500	0.341200	0.388700
O511	O51	0.133300	0.341740	0.353500
O521	O52	0.281200	0.479500	0.402700
O531	O53	0.283200	0.390300	0.489200
O541	O54	0.042200	0.012740	0.139560
O551	O55	0.896900	0.014500	0.180110
O561	O56	0.081200	0.460850	0.487100
