data_NAMDUD_clean_PM
_symmetry_space_group_name_H-M	'P1'
_cell_length_a	26.075900
_cell_length_b	26.075900
_cell_length_c	26.075900
_cell_angle_alpha	90.000000
_cell_angle_beta	90.000000
_cell_angle_gamma	90.000000
_symmetry_Int_Tables_number 1

loop_
_symmetry_equiv_pos_as_xyz
'x,y,z'

loop_
_atom_site_label
_atom_site_type_symbol
_atom_site_fract_x
_atom_site_fract_y
_atom_site_fract_z
O11	O1	0.614530	0.058410	0.555120
C11	C1	0.602000	0.138900	0.665600
H11	H1	0.572370	0.125130	0.680040
C21	C2	0.625200	0.179300	0.688900
H21	H2	0.611240	0.192560	0.718950
O21	O2	0.385470	0.941590	0.555120
C31	C3	0.398000	0.861100	0.665600
H31	H3	0.427630	0.874870	0.680040
C41	C4	0.374800	0.820700	0.688900
H41	H4	0.388760	0.807440	0.718950
O31	O3	0.385470	0.058410	0.444880
C51	C5	0.398000	0.138900	0.334400
H51	H5	0.427630	0.125130	0.319960
C61	C6	0.374800	0.179300	0.311100
H61	H6	0.388760	0.192560	0.281050
O41	O4	0.614530	0.941590	0.444880
C71	C7	0.602000	0.861100	0.334400
H71	H7	0.572370	0.874870	0.319960
C81	C8	0.625200	0.820700	0.311100
H81	H8	0.611240	0.807440	0.281050
O51	O5	0.555120	0.614530	0.058410
C91	C9	0.665600	0.602000	0.138900
H91	H9	0.680040	0.572370	0.125130
C101	C10	0.688900	0.625200	0.179300
H101	H10	0.718950	0.611240	0.192560
O61	O6	0.555120	0.385470	0.941590
C111	C11	0.665600	0.398000	0.861100
H111	H11	0.680040	0.427630	0.874870
C121	C12	0.688900	0.374800	0.820700
H121	H12	0.718950	0.388760	0.807440
O71	O7	0.444880	0.385470	0.058410
C131	C13	0.334400	0.398000	0.138900
H131	H13	0.319960	0.427630	0.125130
C141	C14	0.311100	0.374800	0.179300
H141	H14	0.281050	0.388760	0.192560
O81	O8	0.444880	0.614530	0.941590
C151	C15	0.334400	0.602000	0.861100
H151	H15	0.319960	0.572370	0.874870
C161	C16	0.311100	0.625200	0.820700
H161	H16	0.281050	0.611240	0.807440
O91	O9	0.058410	0.555120	0.614530
C171	C17	0.138900	0.665600	0.602000
H171	H17	0.125130	0.680040	0.572370
C181	C18	0.179300	0.688900	0.625200
H181	H18	0.192560	0.718950	0.611240
O101	O10	0.941590	0.555120	0.385470
C191	C19	0.861100	0.665600	0.398000
H191	H19	0.874870	0.680040	0.427630
C201	C20	0.820700	0.688900	0.374800
H201	H20	0.807440	0.718950	0.388760
O111	O11	0.058410	0.444880	0.385470
C211	C21	0.138900	0.334400	0.398000
H211	H21	0.125130	0.319960	0.427630
C221	C22	0.179300	0.311100	0.374800
H221	H22	0.192560	0.281050	0.388760
O121	O12	0.941590	0.444880	0.614530
C231	C23	0.861100	0.334400	0.602000
H231	H23	0.874870	0.319960	0.572370
C241	C24	0.820700	0.311100	0.625200
H241	H24	0.807440	0.281050	0.611240
O131	O13	0.058410	0.614530	0.444880
C251	C25	0.138900	0.602000	0.334400
H251	H25	0.125130	0.572370	0.319960
C261	C26	0.179300	0.625200	0.311100
H261	H26	0.192560	0.611240	0.281050
O141	O14	0.941590	0.385470	0.444880
C271	C27	0.861100	0.398000	0.334400
H271	H27	0.874870	0.427630	0.319960
C281	C28	0.820700	0.374800	0.311100
H281	H28	0.807440	0.388760	0.281050
O151	O15	0.058410	0.385470	0.555120
C291	C29	0.138900	0.398000	0.665600
H291	H29	0.125130	0.427630	0.680040
C301	C30	0.179300	0.374800	0.688900
H301	H30	0.192560	0.388760	0.718950
O161	O16	0.941590	0.614530	0.555120
C311	C31	0.861100	0.602000	0.665600
H311	H31	0.874870	0.572370	0.680040
C321	C32	0.820700	0.625200	0.688900
H321	H32	0.807440	0.611240	0.718950
O171	O17	0.614530	0.555120	0.941590
C331	C33	0.602000	0.665600	0.861100
H331	H33	0.572370	0.680040	0.874870
C341	C34	0.625200	0.688900	0.820700
H341	H34	0.611240	0.718950	0.807440
O181	O18	0.385470	0.555120	0.058410
C351	C35	0.398000	0.665600	0.138900
H351	H35	0.427630	0.680040	0.125130
C361	C36	0.374800	0.688900	0.179300
H361	H36	0.388760	0.718950	0.192560
O191	O19	0.385470	0.444880	0.941590
C371	C37	0.398000	0.334400	0.861100
H371	H37	0.427630	0.319960	0.874870
C381	C38	0.374800	0.311100	0.820700
H381	H38	0.388760	0.281050	0.807440
O201	O20	0.614530	0.444880	0.058410
C391	C39	0.602000	0.334400	0.138900
H391	H39	0.572370	0.319960	0.125130
C401	C40	0.625200	0.311100	0.179300
H401	H40	0.611240	0.281050	0.192560
O211	O21	0.555120	0.058410	0.385470
C411	C41	0.665600	0.138900	0.398000
H411	H41	0.680040	0.125130	0.427630
C421	C42	0.688900	0.179300	0.374800
H421	H42	0.718950	0.192560	0.388760
O221	O22	0.555120	0.941590	0.614530
C431	C43	0.665600	0.861100	0.602000
H431	H43	0.680040	0.874870	0.572370
C441	C44	0.688900	0.820700	0.625200
H441	H44	0.718950	0.807440	0.611240
O231	O23	0.444880	0.058410	0.614530
C451	C45	0.334400	0.138900	0.602000
H451	H45	0.319960	0.125130	0.572370
C461	C46	0.311100	0.179300	0.625200
H461	H46	0.281050	0.192560	0.611240
O241	O24	0.444880	0.941590	0.385470
C471	C47	0.334400	0.861100	0.398000
H471	H47	0.319960	0.874870	0.427630
C481	C48	0.311100	0.820700	0.374800
H481	H48	0.281050	0.807440	0.388760
O251	O25	0.385470	0.941590	0.444880
C491	C49	0.398000	0.861100	0.334400
H491	H49	0.427630	0.874870	0.319960
C501	C50	0.374800	0.820700	0.311100
H501	H50	0.388760	0.807440	0.281050
O261	O26	0.614530	0.058410	0.444880
C511	C51	0.602000	0.138900	0.334400
H511	H51	0.572370	0.125130	0.319960
C521	C52	0.625200	0.179300	0.311100
H521	H52	0.611240	0.192560	0.281050
O271	O27	0.614530	0.941590	0.555120
C531	C53	0.602000	0.861100	0.665600
H531	H53	0.572370	0.874870	0.680040
C541	C54	0.625200	0.820700	0.688900
H541	H54	0.611240	0.807440	0.718950
O281	O28	0.385470	0.058410	0.555120
C551	C55	0.398000	0.138900	0.665600
H551	H55	0.427630	0.125130	0.680040
C561	C56	0.374800	0.179300	0.688900
H561	H56	0.388760	0.192560	0.718950
O291	O29	0.444880	0.385470	0.941590
C571	C57	0.334400	0.398000	0.861100
H571	H57	0.319960	0.427630	0.874870
C581	C58	0.311100	0.374800	0.820700
H581	H58	0.281050	0.388760	0.807440
O301	O30	0.444880	0.614530	0.058410
C591	C59	0.334400	0.602000	0.138900
H591	H59	0.319960	0.572370	0.125130
C601	C60	0.311100	0.625200	0.179300
H601	H60	0.281050	0.611240	0.192560
O311	O31	0.555120	0.614530	0.941590
C611	C61	0.665600	0.602000	0.861100
H611	H61	0.680040	0.572370	0.874870
C621	C62	0.688900	0.625200	0.820700
H621	H62	0.718950	0.611240	0.807440
O321	O32	0.555120	0.385470	0.058410
C631	C63	0.665600	0.398000	0.138900
H631	H63	0.680040	0.427630	0.125130
C641	C64	0.688900	0.374800	0.179300
H641	H64	0.718950	0.388760	0.192560
O331	O33	0.941590	0.444880	0.385470
C651	C65	0.861100	0.334400	0.398000
H651	H65	0.874870	0.319960	0.427630
C661	C66	0.820700	0.311100	0.374800
H661	H66	0.807440	0.281050	0.388760
O341	O34	0.058410	0.444880	0.614530
C671	C67	0.138900	0.334400	0.602000
H671	H67	0.125130	0.319960	0.572370
C681	C68	0.179300	0.311100	0.625200
H681	H68	0.192560	0.281050	0.611240
O351	O35	0.941590	0.555120	0.614530
C691	C69	0.861100	0.665600	0.602000
H691	H69	0.874870	0.680040	0.572370
C701	C70	0.820700	0.688900	0.625200
H701	H70	0.807440	0.718950	0.611240
O361	O36	0.058410	0.555120	0.385470
C711	C71	0.138900	0.665600	0.398000
H711	H71	0.125130	0.680040	0.427630
C721	C72	0.179300	0.688900	0.374800
H721	H72	0.192560	0.718950	0.388760
O371	O37	0.941590	0.385470	0.555120
C731	C73	0.861100	0.398000	0.665600
H731	H73	0.874870	0.427630	0.680040
C741	C74	0.820700	0.374800	0.688900
H741	H74	0.807440	0.388760	0.718950
O381	O38	0.058410	0.614530	0.555120
C751	C75	0.138900	0.602000	0.665600
H751	H75	0.125130	0.572370	0.680040
C761	C76	0.179300	0.625200	0.688900
H761	H76	0.192560	0.611240	0.718950
O391	O39	0.941590	0.614530	0.444880
C771	C77	0.861100	0.602000	0.334400
H771	H77	0.874870	0.572370	0.319960
C781	C78	0.820700	0.625200	0.311100
H781	H78	0.807440	0.611240	0.281050
O401	O40	0.058410	0.385470	0.444880
C791	C79	0.138900	0.398000	0.334400
H791	H79	0.125130	0.427630	0.319960
C801	C80	0.179300	0.374800	0.311100
H801	H80	0.192560	0.388760	0.281050
O411	O41	0.385470	0.444880	0.058410
C811	C81	0.398000	0.334400	0.138900
H811	H81	0.427630	0.319960	0.125130
C821	C82	0.374800	0.311100	0.179300
H821	H82	0.388760	0.281050	0.192560
O421	O42	0.614530	0.444880	0.941590
C831	C83	0.602000	0.334400	0.861100
H831	H83	0.572370	0.319960	0.874870
C841	C84	0.625200	0.311100	0.820700
H841	H84	0.611240	0.281050	0.807440
O431	O43	0.614530	0.555120	0.058410
C851	C85	0.602000	0.665600	0.138900
H851	H85	0.572370	0.680040	0.125130
C861	C86	0.625200	0.688900	0.179300
H861	H86	0.611240	0.718950	0.192560
O441	O44	0.385470	0.555120	0.941590
C871	C87	0.398000	0.665600	0.861100
H871	H87	0.427630	0.680040	0.874870
C881	C88	0.374800	0.688900	0.820700
H881	H88	0.388760	0.718950	0.807440
O451	O45	0.444880	0.941590	0.614530
C891	C89	0.334400	0.861100	0.602000
H891	H89	0.319960	0.874870	0.572370
C901	C90	0.311100	0.820700	0.625200
H901	H90	0.281050	0.807440	0.611240
O461	O46	0.444880	0.058410	0.385470
C911	C91	0.334400	0.138900	0.398000
H911	H91	0.319960	0.125130	0.427630
C921	C92	0.311100	0.179300	0.374800
H921	H92	0.281050	0.192560	0.388760
O471	O47	0.555120	0.941590	0.385470
C931	C93	0.665600	0.861100	0.398000
H931	H93	0.680040	0.874870	0.427630
C941	C94	0.688900	0.820700	0.374800
H941	H94	0.718950	0.807440	0.388760
O481	O48	0.555120	0.058410	0.614530
C951	C95	0.665600	0.138900	0.602000
H951	H95	0.680040	0.125130	0.572370
C961	C96	0.688900	0.179300	0.625200
H961	H96	0.718950	0.192560	0.611240
Mn11	Mn1	0.606440	0.000000	0.500000
Mn21	Mn2	0.393560	0.000000	0.500000
Mn31	Mn3	0.500000	0.606440	0.000000
Mn41	Mn4	0.500000	0.393560	0.000000
Mn51	Mn5	0.000000	0.500000	0.606440
Mn61	Mn6	0.000000	0.500000	0.393560
Mn71	Mn7	0.000000	0.606440	0.500000
Mn81	Mn8	0.000000	0.393560	0.500000
Mn91	Mn9	0.606440	0.500000	0.000000
Mn101	Mn10	0.393560	0.500000	0.000000
Mn111	Mn11	0.500000	0.000000	0.393560
Mn121	Mn12	0.500000	0.000000	0.606440
C971	C97	0.621150	0.117700	0.621150
C981	C98	0.595140	0.074040	0.595140
C991	C99	0.668800	0.200800	0.668800
C1001	C100	0.692900	0.245700	0.692900
C1011	C101	0.378850	0.882300	0.621150
C1021	C102	0.404860	0.925960	0.595140
C1031	C103	0.331200	0.799200	0.668800
C1041	C104	0.307100	0.754300	0.692900
C1051	C105	0.378850	0.117700	0.378850
C1061	C106	0.404860	0.074040	0.404860
C1071	C107	0.331200	0.200800	0.331200
C1081	C108	0.307100	0.245700	0.307100
C1091	C109	0.621150	0.882300	0.378850
C1101	C110	0.595140	0.925960	0.404860
C1111	C111	0.668800	0.799200	0.331200
C1121	C112	0.692900	0.754300	0.307100
C1131	C113	0.621150	0.621150	0.117700
C1141	C114	0.595140	0.595140	0.074040
C1151	C115	0.668800	0.668800	0.200800
C1161	C116	0.692900	0.692900	0.245700
C1171	C117	0.621150	0.378850	0.882300
C1181	C118	0.595140	0.404860	0.925960
C1191	C119	0.668800	0.331200	0.799200
C1201	C120	0.692900	0.307100	0.754300
C1211	C121	0.378850	0.378850	0.117700
C1221	C122	0.404860	0.404860	0.074040
C1231	C123	0.331200	0.331200	0.200800
C1241	C124	0.307100	0.307100	0.245700
C1251	C125	0.378850	0.621150	0.882300
C1261	C126	0.404860	0.595140	0.925960
C1271	C127	0.331200	0.668800	0.799200
C1281	C128	0.307100	0.692900	0.754300
C1291	C129	0.117700	0.621150	0.621150
C1301	C130	0.074040	0.595140	0.595140
C1311	C131	0.200800	0.668800	0.668800
C1321	C132	0.245700	0.692900	0.692900
C1331	C133	0.882300	0.621150	0.378850
C1341	C134	0.925960	0.595140	0.404860
C1351	C135	0.799200	0.668800	0.331200
C1361	C136	0.754300	0.692900	0.307100
C1371	C137	0.117700	0.378850	0.378850
C1381	C138	0.074040	0.404860	0.404860
C1391	C139	0.200800	0.331200	0.331200
C1401	C140	0.245700	0.307100	0.307100
C1411	C141	0.882300	0.378850	0.621150
C1421	C142	0.925960	0.404860	0.595140
C1431	C143	0.799200	0.331200	0.668800
C1441	C144	0.754300	0.307100	0.692900
C1451	C145	0.117700	0.621150	0.378850
C1461	C146	0.074040	0.595140	0.404860
C1471	C147	0.200800	0.668800	0.331200
C1481	C148	0.245700	0.692900	0.307100
C1491	C149	0.882300	0.378850	0.378850
C1501	C150	0.925960	0.404860	0.404860
C1511	C151	0.799200	0.331200	0.331200
C1521	C152	0.754300	0.307100	0.307100
C1531	C153	0.117700	0.378850	0.621150
C1541	C154	0.074040	0.404860	0.595140
C1551	C155	0.200800	0.331200	0.668800
C1561	C156	0.245700	0.307100	0.692900
C1571	C157	0.882300	0.621150	0.621150
C1581	C158	0.925960	0.595140	0.595140
C1591	C159	0.799200	0.668800	0.668800
C1601	C160	0.754300	0.692900	0.692900
C1611	C161	0.621150	0.621150	0.882300
C1621	C162	0.595140	0.595140	0.925960
C1631	C163	0.668800	0.668800	0.799200
C1641	C164	0.692900	0.692900	0.754300
C1651	C165	0.378850	0.621150	0.117700
C1661	C166	0.404860	0.595140	0.074040
C1671	C167	0.331200	0.668800	0.200800
C1681	C168	0.307100	0.692900	0.245700
C1691	C169	0.378850	0.378850	0.882300
C1701	C170	0.404860	0.404860	0.925960
C1711	C171	0.331200	0.331200	0.799200
C1721	C172	0.307100	0.307100	0.754300
C1731	C173	0.621150	0.378850	0.117700
C1741	C174	0.595140	0.404860	0.074040
C1751	C175	0.668800	0.331200	0.200800
C1761	C176	0.692900	0.307100	0.245700
C1771	C177	0.621150	0.117700	0.378850
C1781	C178	0.595140	0.074040	0.404860
C1791	C179	0.668800	0.200800	0.331200
C1801	C180	0.692900	0.245700	0.307100
C1811	C181	0.621150	0.882300	0.621150
C1821	C182	0.595140	0.925960	0.595140
C1831	C183	0.668800	0.799200	0.668800
C1841	C184	0.692900	0.754300	0.692900
C1851	C185	0.378850	0.117700	0.621150
C1861	C186	0.404860	0.074040	0.595140
C1871	C187	0.331200	0.200800	0.668800
C1881	C188	0.307100	0.245700	0.692900
C1891	C189	0.378850	0.882300	0.378850
C1901	C190	0.404860	0.925960	0.404860
C1911	C191	0.331200	0.799200	0.331200
C1921	C192	0.307100	0.754300	0.307100
C1931	C193	0.734570	0.265430	0.670400
C1941	C194	0.265430	0.734570	0.670400
C1951	C195	0.265430	0.265430	0.329600
C1961	C196	0.734570	0.734570	0.329600
C1971	C197	0.670400	0.734570	0.265430
C1981	C198	0.670400	0.265430	0.734570
C1991	C199	0.329600	0.265430	0.265430
C2001	C200	0.329600	0.734570	0.734570
C2011	C201	0.265430	0.670400	0.734570
C2021	C202	0.734570	0.670400	0.265430
C2031	C203	0.265430	0.329600	0.265430
C2041	C204	0.734570	0.329600	0.734570
C2051	C205	0.265430	0.734570	0.329600
C2061	C206	0.734570	0.265430	0.329600
C2071	C207	0.265430	0.265430	0.670400
C2081	C208	0.734570	0.734570	0.670400
C2091	C209	0.734570	0.670400	0.734570
C2101	C210	0.265430	0.670400	0.265430
C2111	C211	0.265430	0.329600	0.734570
C2121	C212	0.734570	0.329600	0.265430
C2131	C213	0.670400	0.265430	0.265430
C2141	C214	0.670400	0.734570	0.734570
C2151	C215	0.329600	0.265430	0.734570
C2161	C216	0.329600	0.734570	0.265430
O491	O49	0.114530	0.558410	0.055120
C2171	C217	0.102000	0.638900	0.165600
H971	H97	0.072370	0.625130	0.180040
C2181	C218	0.125200	0.679300	0.188900
H981	H98	0.111240	0.692560	0.218950
O501	O50	0.885470	0.441590	0.055120
C2191	C219	0.898000	0.361100	0.165600
H991	H99	0.927630	0.374870	0.180040
C2201	C220	0.874800	0.320700	0.188900
H1001	H100	0.888760	0.307440	0.218950
O511	O51	0.885470	0.558410	0.944880
C2211	C221	0.898000	0.638900	0.834400
H1011	H101	0.927630	0.625130	0.819960
C2221	C222	0.874800	0.679300	0.811100
H1021	H102	0.888760	0.692560	0.781050
O521	O52	0.114530	0.441590	0.944880
C2231	C223	0.102000	0.361100	0.834400
H1031	H103	0.072370	0.374870	0.819960
C2241	C224	0.125200	0.320700	0.811100
H1041	H104	0.111240	0.307440	0.781050
O531	O53	0.055120	0.114530	0.558410
C2251	C225	0.165600	0.102000	0.638900
H1051	H105	0.180040	0.072370	0.625130
C2261	C226	0.188900	0.125200	0.679300
H1061	H106	0.218950	0.111240	0.692560
O541	O54	0.055120	0.885470	0.441590
C2271	C227	0.165600	0.898000	0.361100
H1071	H107	0.180040	0.927630	0.374870
C2281	C228	0.188900	0.874800	0.320700
H1081	H108	0.218950	0.888760	0.307440
O551	O55	0.944880	0.885470	0.558410
C2291	C229	0.834400	0.898000	0.638900
H1091	H109	0.819960	0.927630	0.625130
C2301	C230	0.811100	0.874800	0.679300
H1101	H110	0.781050	0.888760	0.692560
O561	O56	0.944880	0.114530	0.441590
C2311	C231	0.834400	0.102000	0.361100
H1111	H111	0.819960	0.072370	0.374870
C2321	C232	0.811100	0.125200	0.320700
H1121	H112	0.781050	0.111240	0.307440
O571	O57	0.558410	0.055120	0.114530
C2331	C233	0.638900	0.165600	0.102000
H1131	H113	0.625130	0.180040	0.072370
C2341	C234	0.679300	0.188900	0.125200
H1141	H114	0.692560	0.218950	0.111240
O581	O58	0.441590	0.055120	0.885470
C2351	C235	0.361100	0.165600	0.898000
H1151	H115	0.374870	0.180040	0.927630
C2361	C236	0.320700	0.188900	0.874800
H1161	H116	0.307440	0.218950	0.888760
O591	O59	0.558410	0.944880	0.885470
C2371	C237	0.638900	0.834400	0.898000
H1171	H117	0.625130	0.819960	0.927630
C2381	C238	0.679300	0.811100	0.874800
H1181	H118	0.692560	0.781050	0.888760
O601	O60	0.441590	0.944880	0.114530
C2391	C239	0.361100	0.834400	0.102000
H1191	H119	0.374870	0.819960	0.072370
C2401	C240	0.320700	0.811100	0.125200
H1201	H120	0.307440	0.781050	0.111240
O611	O61	0.558410	0.114530	0.944880
C2411	C241	0.638900	0.102000	0.834400
H1211	H121	0.625130	0.072370	0.819960
C2421	C242	0.679300	0.125200	0.811100
H1221	H122	0.692560	0.111240	0.781050
O621	O62	0.441590	0.885470	0.944880
C2431	C243	0.361100	0.898000	0.834400
H1231	H123	0.374870	0.927630	0.819960
C2441	C244	0.320700	0.874800	0.811100
H1241	H124	0.307440	0.888760	0.781050
O631	O63	0.558410	0.885470	0.055120
C2451	C245	0.638900	0.898000	0.165600
H1251	H125	0.625130	0.927630	0.180040
C2461	C246	0.679300	0.874800	0.188900
H1261	H126	0.692560	0.888760	0.218950
O641	O64	0.441590	0.114530	0.055120
C2471	C247	0.361100	0.102000	0.165600
H1271	H127	0.374870	0.072370	0.180040
C2481	C248	0.320700	0.125200	0.188900
H1281	H128	0.307440	0.111240	0.218950
O651	O65	0.114530	0.055120	0.441590
C2491	C249	0.102000	0.165600	0.361100
H1291	H129	0.072370	0.180040	0.374870
C2501	C250	0.125200	0.188900	0.320700
H1301	H130	0.111240	0.218950	0.307440
O661	O66	0.885470	0.055120	0.558410
C2511	C251	0.898000	0.165600	0.638900
H1311	H131	0.927630	0.180040	0.625130
C2521	C252	0.874800	0.188900	0.679300
H1321	H132	0.888760	0.218950	0.692560
O671	O67	0.885470	0.944880	0.441590
C2531	C253	0.898000	0.834400	0.361100
H1331	H133	0.927630	0.819960	0.374870
C2541	C254	0.874800	0.811100	0.320700
H1341	H134	0.888760	0.781050	0.307440
O681	O68	0.114530	0.944880	0.558410
C2551	C255	0.102000	0.834400	0.638900
H1351	H135	0.072370	0.819960	0.625130
C2561	C256	0.125200	0.811100	0.679300
H1361	H136	0.111240	0.781050	0.692560
O691	O69	0.055120	0.558410	0.885470
C2571	C257	0.165600	0.638900	0.898000
H1371	H137	0.180040	0.625130	0.927630
C2581	C258	0.188900	0.679300	0.874800
H1381	H138	0.218950	0.692560	0.888760
O701	O70	0.055120	0.441590	0.114530
C2591	C259	0.165600	0.361100	0.102000
H1391	H139	0.180040	0.374870	0.072370
C2601	C260	0.188900	0.320700	0.125200
H1401	H140	0.218950	0.307440	0.111240
O711	O71	0.944880	0.558410	0.114530
C2611	C261	0.834400	0.638900	0.102000
H1411	H141	0.819960	0.625130	0.072370
C2621	C262	0.811100	0.679300	0.125200
H1421	H142	0.781050	0.692560	0.111240
O721	O72	0.944880	0.441590	0.885470
C2631	C263	0.834400	0.361100	0.898000
H1431	H143	0.819960	0.374870	0.927630
C2641	C264	0.811100	0.320700	0.874800
H1441	H144	0.781050	0.307440	0.888760
O731	O73	0.885470	0.441590	0.944880
C2651	C265	0.898000	0.361100	0.834400
H1451	H145	0.927630	0.374870	0.819960
C2661	C266	0.874800	0.320700	0.811100
H1461	H146	0.888760	0.307440	0.781050
O741	O74	0.114530	0.558410	0.944880
C2671	C267	0.102000	0.638900	0.834400
H1471	H147	0.072370	0.625130	0.819960
C2681	C268	0.125200	0.679300	0.811100
H1481	H148	0.111240	0.692560	0.781050
O751	O75	0.114530	0.441590	0.055120
C2691	C269	0.102000	0.361100	0.165600
H1491	H149	0.072370	0.374870	0.180040
C2701	C270	0.125200	0.320700	0.188900
H1501	H150	0.111240	0.307440	0.218950
O761	O76	0.885470	0.558410	0.055120
C2711	C271	0.898000	0.638900	0.165600
H1511	H151	0.927630	0.625130	0.180040
C2721	C272	0.874800	0.679300	0.188900
H1521	H152	0.888760	0.692560	0.218950
O771	O77	0.944880	0.885470	0.441590
C2731	C273	0.834400	0.898000	0.361100
H1531	H153	0.819960	0.927630	0.374870
C2741	C274	0.811100	0.874800	0.320700
H1541	H154	0.781050	0.888760	0.307440
O781	O78	0.944880	0.114530	0.558410
C2751	C275	0.834400	0.102000	0.638900
H1551	H155	0.819960	0.072370	0.625130
C2761	C276	0.811100	0.125200	0.679300
H1561	H156	0.781050	0.111240	0.692560
O791	O79	0.055120	0.114530	0.441590
C2771	C277	0.165600	0.102000	0.361100
H1571	H157	0.180040	0.072370	0.374870
C2781	C278	0.188900	0.125200	0.320700
H1581	H158	0.218950	0.111240	0.307440
O801	O80	0.055120	0.885470	0.558410
C2791	C279	0.165600	0.898000	0.638900
H1591	H159	0.180040	0.927630	0.625130
C2801	C280	0.188900	0.874800	0.679300
H1601	H160	0.218950	0.888760	0.692560
O811	O81	0.441590	0.944880	0.885470
C2811	C281	0.361100	0.834400	0.898000
H1611	H161	0.374870	0.819960	0.927630
C2821	C282	0.320700	0.811100	0.874800
H1621	H162	0.307440	0.781050	0.888760
O821	O82	0.558410	0.944880	0.114530
C2831	C283	0.638900	0.834400	0.102000
H1631	H163	0.625130	0.819960	0.072370
C2841	C284	0.679300	0.811100	0.125200
H1641	H164	0.692560	0.781050	0.111240
O831	O83	0.441590	0.055120	0.114530
C2851	C285	0.361100	0.165600	0.102000
H1651	H165	0.374870	0.180040	0.072370
C2861	C286	0.320700	0.188900	0.125200
H1661	H166	0.307440	0.218950	0.111240
O841	O84	0.558410	0.055120	0.885470
C2871	C287	0.638900	0.165600	0.898000
H1671	H167	0.625130	0.180040	0.927630
C2881	C288	0.679300	0.188900	0.874800
H1681	H168	0.692560	0.218950	0.888760
O851	O85	0.441590	0.885470	0.055120
C2891	C289	0.361100	0.898000	0.165600
H1691	H169	0.374870	0.927630	0.180040
C2901	C290	0.320700	0.874800	0.188900
H1701	H170	0.307440	0.888760	0.218950
O861	O86	0.558410	0.114530	0.055120
C2911	C291	0.638900	0.102000	0.165600
H1711	H171	0.625130	0.072370	0.180040
C2921	C292	0.679300	0.125200	0.188900
H1721	H172	0.692560	0.111240	0.218950
O871	O87	0.441590	0.114530	0.944880
C2931	C293	0.361100	0.102000	0.834400
H1731	H173	0.374870	0.072370	0.819960
C2941	C294	0.320700	0.125200	0.811100
H1741	H174	0.307440	0.111240	0.781050
O881	O88	0.558410	0.885470	0.944880
C2951	C295	0.638900	0.898000	0.834400
H1751	H175	0.625130	0.927630	0.819960
C2961	C296	0.679300	0.874800	0.811100
H1761	H176	0.692560	0.888760	0.781050
O891	O89	0.885470	0.944880	0.558410
C2971	C297	0.898000	0.834400	0.638900
H1771	H177	0.927630	0.819960	0.625130
C2981	C298	0.874800	0.811100	0.679300
H1781	H178	0.888760	0.781050	0.692560
O901	O90	0.114530	0.944880	0.441590
C2991	C299	0.102000	0.834400	0.361100
H1791	H179	0.072370	0.819960	0.374870
C3001	C300	0.125200	0.811100	0.320700
H1801	H180	0.111240	0.781050	0.307440
O911	O91	0.114530	0.055120	0.558410
C3011	C301	0.102000	0.165600	0.638900
H1811	H181	0.072370	0.180040	0.625130
C3021	C302	0.125200	0.188900	0.679300
H1821	H182	0.111240	0.218950	0.692560
O921	O92	0.885470	0.055120	0.441590
C3031	C303	0.898000	0.165600	0.361100
H1831	H183	0.927630	0.180040	0.374870
C3041	C304	0.874800	0.188900	0.320700
H1841	H184	0.888760	0.218950	0.307440
O931	O93	0.944880	0.441590	0.114530
C3051	C305	0.834400	0.361100	0.102000
H1851	H185	0.819960	0.374870	0.072370
C3061	C306	0.811100	0.320700	0.125200
H1861	H186	0.781050	0.307440	0.111240
O941	O94	0.944880	0.558410	0.885470
C3071	C307	0.834400	0.638900	0.898000
H1871	H187	0.819960	0.625130	0.927630
C3081	C308	0.811100	0.679300	0.874800
H1881	H188	0.781050	0.692560	0.888760
O951	O95	0.055120	0.441590	0.885470
C3091	C309	0.165600	0.361100	0.898000
H1891	H189	0.180040	0.374870	0.927630
C3101	C310	0.188900	0.320700	0.874800
H1901	H190	0.218950	0.307440	0.888760
O961	O96	0.055120	0.558410	0.114530
C3111	C311	0.165600	0.638900	0.102000
H1911	H191	0.180040	0.625130	0.072370
C3121	C312	0.188900	0.679300	0.125200
H1921	H192	0.218950	0.692560	0.111240
Mn131	Mn13	0.106440	0.500000	0.000000
Mn141	Mn14	0.893560	0.500000	0.000000
Mn151	Mn15	0.000000	0.106440	0.500000
Mn161	Mn16	0.000000	0.893560	0.500000
Mn171	Mn17	0.500000	0.000000	0.106440
Mn181	Mn18	0.500000	0.000000	0.893560
Mn191	Mn19	0.500000	0.106440	0.000000
Mn201	Mn20	0.500000	0.893560	0.000000
Mn211	Mn21	0.106440	0.000000	0.500000
Mn221	Mn22	0.893560	0.000000	0.500000
Mn231	Mn23	0.000000	0.500000	0.893560
Mn241	Mn24	0.000000	0.500000	0.106440
C3131	C313	0.121150	0.617700	0.121150
C3141	C314	0.095140	0.574040	0.095140
C3151	C315	0.168800	0.700800	0.168800
C3161	C316	0.192900	0.745700	0.192900
C3171	C317	0.878850	0.382300	0.121150
C3181	C318	0.904860	0.425960	0.095140
C3191	C319	0.831200	0.299200	0.168800
C3201	C320	0.807100	0.254300	0.192900
C3211	C321	0.878850	0.617700	0.878850
C3221	C322	0.904860	0.574040	0.904860
C3231	C323	0.831200	0.700800	0.831200
C3241	C324	0.807100	0.745700	0.807100
C3251	C325	0.121150	0.382300	0.878850
C3261	C326	0.095140	0.425960	0.904860
C3271	C327	0.168800	0.299200	0.831200
C3281	C328	0.192900	0.254300	0.807100
C3291	C329	0.121150	0.121150	0.617700
C3301	C330	0.095140	0.095140	0.574040
C3311	C331	0.168800	0.168800	0.700800
C3321	C332	0.192900	0.192900	0.745700
C3331	C333	0.121150	0.878850	0.382300
C3341	C334	0.095140	0.904860	0.425960
C3351	C335	0.168800	0.831200	0.299200
C3361	C336	0.192900	0.807100	0.254300
C3371	C337	0.878850	0.878850	0.617700
C3381	C338	0.904860	0.904860	0.574040
C3391	C339	0.831200	0.831200	0.700800
C3401	C340	0.807100	0.807100	0.745700
C3411	C341	0.878850	0.121150	0.382300
C3421	C342	0.904860	0.095140	0.425960
C3431	C343	0.831200	0.168800	0.299200
C3441	C344	0.807100	0.192900	0.254300
C3451	C345	0.617700	0.121150	0.121150
C3461	C346	0.574040	0.095140	0.095140
C3471	C347	0.700800	0.168800	0.168800
C3481	C348	0.745700	0.192900	0.192900
C3491	C349	0.382300	0.121150	0.878850
C3501	C350	0.425960	0.095140	0.904860
C3511	C351	0.299200	0.168800	0.831200
C3521	C352	0.254300	0.192900	0.807100
C3531	C353	0.617700	0.878850	0.878850
C3541	C354	0.574040	0.904860	0.904860
C3551	C355	0.700800	0.831200	0.831200
C3561	C356	0.745700	0.807100	0.807100
C3571	C357	0.382300	0.878850	0.121150
C3581	C358	0.425960	0.904860	0.095140
C3591	C359	0.299200	0.831200	0.168800
C3601	C360	0.254300	0.807100	0.192900
C3611	C361	0.617700	0.121150	0.878850
C3621	C362	0.574040	0.095140	0.904860
C3631	C363	0.700800	0.168800	0.831200
C3641	C364	0.745700	0.192900	0.807100
C3651	C365	0.382300	0.878850	0.878850
C3661	C366	0.425960	0.904860	0.904860
C3671	C367	0.299200	0.831200	0.831200
C3681	C368	0.254300	0.807100	0.807100
C3691	C369	0.617700	0.878850	0.121150
C3701	C370	0.574040	0.904860	0.095140
C3711	C371	0.700800	0.831200	0.168800
C3721	C372	0.745700	0.807100	0.192900
C3731	C373	0.382300	0.121150	0.121150
C3741	C374	0.425960	0.095140	0.095140
C3751	C375	0.299200	0.168800	0.168800
C3761	C376	0.254300	0.192900	0.192900
C3771	C377	0.121150	0.121150	0.382300
C3781	C378	0.095140	0.095140	0.425960
C3791	C379	0.168800	0.168800	0.299200
C3801	C380	0.192900	0.192900	0.254300
C3811	C381	0.878850	0.121150	0.617700
C3821	C382	0.904860	0.095140	0.574040
C3831	C383	0.831200	0.168800	0.700800
C3841	C384	0.807100	0.192900	0.745700
C3851	C385	0.878850	0.878850	0.382300
C3861	C386	0.904860	0.904860	0.425960
C3871	C387	0.831200	0.831200	0.299200
C3881	C388	0.807100	0.807100	0.254300
C3891	C389	0.121150	0.878850	0.617700
C3901	C390	0.095140	0.904860	0.574040
C3911	C391	0.168800	0.831200	0.700800
C3921	C392	0.192900	0.807100	0.745700
C3931	C393	0.121150	0.617700	0.878850
C3941	C394	0.095140	0.574040	0.904860
C3951	C395	0.168800	0.700800	0.831200
C3961	C396	0.192900	0.745700	0.807100
C3971	C397	0.121150	0.382300	0.121150
C3981	C398	0.095140	0.425960	0.095140
C3991	C399	0.168800	0.299200	0.168800
C4001	C400	0.192900	0.254300	0.192900
C4011	C401	0.878850	0.617700	0.121150
C4021	C402	0.904860	0.574040	0.095140
C4031	C403	0.831200	0.700800	0.168800
C4041	C404	0.807100	0.745700	0.192900
C4051	C405	0.878850	0.382300	0.878850
C4061	C406	0.904860	0.425960	0.904860
C4071	C407	0.831200	0.299200	0.831200
C4081	C408	0.807100	0.254300	0.807100
C4091	C409	0.234570	0.765430	0.170400
C4101	C410	0.765430	0.234570	0.170400
C4111	C411	0.765430	0.765430	0.829600
C4121	C412	0.234570	0.234570	0.829600
C4131	C413	0.170400	0.234570	0.765430
C4141	C414	0.170400	0.765430	0.234570
C4151	C415	0.829600	0.765430	0.765430
C4161	C416	0.829600	0.234570	0.234570
C4171	C417	0.765430	0.170400	0.234570
C4181	C418	0.234570	0.170400	0.765430
C4191	C419	0.765430	0.829600	0.765430
C4201	C420	0.234570	0.829600	0.234570
C4211	C421	0.765430	0.234570	0.829600
C4221	C422	0.234570	0.765430	0.829600
C4231	C423	0.765430	0.765430	0.170400
C4241	C424	0.234570	0.234570	0.170400
C4251	C425	0.234570	0.170400	0.234570
C4261	C426	0.765430	0.170400	0.765430
C4271	C427	0.765430	0.829600	0.234570
C4281	C428	0.234570	0.829600	0.765430
C4291	C429	0.170400	0.765430	0.765430
C4301	C430	0.170400	0.234570	0.234570
C4311	C431	0.829600	0.765430	0.234570
C4321	C432	0.829600	0.234570	0.765430
