data_NANTII_clean_PM
_symmetry_space_group_name_H-M	'P1'
_cell_length_a	23.714000
_cell_length_b	23.714000
_cell_length_c	16.575000
_cell_angle_alpha	90.000000
_cell_angle_beta	90.000000
_cell_angle_gamma	90.000000
_symmetry_Int_Tables_number 1

loop_
_symmetry_equiv_pos_as_xyz
'x,y,z'

loop_
_atom_site_label
_atom_site_type_symbol
_atom_site_fract_x
_atom_site_fract_y
_atom_site_fract_z
Ce11	Ce1	0.370540	0.645580	0.089400
O11	O1	0.336900	0.557100	0.028900
O21	O2	0.317900	0.636700	0.964400
O31	O3	0.202700	0.628200	0.711300
O41	O4	0.190900	0.546900	0.649900
O51	O5	0.159900	0.403000	0.860600
O61	O6	0.352100	0.393600	0.839900
C11	C1	0.315800	0.582600	0.969700
C21	C2	0.286400	0.549700	0.904400
C31	C3	0.262900	0.577100	0.840800
H11	H1	0.264500	0.617100	0.838000
C41	C4	0.208100	0.575200	0.710300
C51	C5	0.236000	0.546100	0.778400
C61	C6	0.233700	0.489200	0.783100
H21	H2	0.214600	0.468500	0.742300
C71	C7	0.259500	0.460000	0.848400
C81	C8	0.285500	0.490200	0.909400
H31	H3	0.302300	0.471300	0.953800
C91	C9	0.202000	0.373100	0.856800
C101	C10	0.201300	0.310600	0.857000
C111	C11	0.251300	0.280100	0.856700
C121	C12	0.303700	0.307200	0.855400
C131	C13	0.308500	0.369500	0.850400
C141	C14	0.353400	0.275200	0.856300
H41	H4	0.389000	0.293700	0.855400
C151	C15	0.351000	0.214600	0.858600
H51	H5	0.384400	0.192700	0.861100
N11	N1	0.257000	0.398700	0.853500
Ce21	Ce2	0.129460	0.854420	0.089400
O71	O7	0.163100	0.942900	0.028900
O81	O8	0.182100	0.863300	0.964400
O91	O9	0.297300	0.871800	0.711300
O101	O10	0.309100	0.953100	0.649900
O111	O11	0.340100	0.097000	0.860600
O121	O12	0.147900	0.106400	0.839900
C161	C16	0.184200	0.917400	0.969700
C171	C17	0.213600	0.950300	0.904400
C181	C18	0.237100	0.922900	0.840800
H61	H6	0.235500	0.882900	0.838000
C191	C19	0.291900	0.924800	0.710300
C201	C20	0.264000	0.953900	0.778400
C211	C21	0.266300	0.010800	0.783100
H71	H7	0.285400	0.031500	0.742300
C221	C22	0.240500	0.040000	0.848400
C231	C23	0.214500	0.009800	0.909400
H81	H8	0.197700	0.028700	0.953800
C241	C24	0.298000	0.126900	0.856800
C251	C25	0.298700	0.189400	0.857000
C261	C26	0.248700	0.219900	0.856700
C271	C27	0.196300	0.192800	0.855400
C281	C28	0.191500	0.130500	0.850400
C291	C29	0.146600	0.224800	0.856300
H91	H9	0.111000	0.206300	0.855400
C301	C30	0.149000	0.285400	0.858600
H101	H10	0.115600	0.307300	0.861100
N21	N2	0.243000	0.101300	0.853500
Ce31	Ce3	0.354420	0.870540	0.589400
O131	O13	0.442900	0.836900	0.528900
O141	O14	0.363300	0.817900	0.464400
O151	O15	0.371800	0.702700	0.211300
O161	O16	0.453100	0.690900	0.149900
O171	O17	0.597000	0.659900	0.360600
O181	O18	0.606400	0.852100	0.339900
C311	C31	0.417400	0.815800	0.469700
C321	C32	0.450300	0.786400	0.404400
C331	C33	0.422900	0.762900	0.340800
H111	H11	0.382900	0.764500	0.338000
C341	C34	0.424800	0.708100	0.210300
C351	C35	0.453900	0.736000	0.278400
C361	C36	0.510800	0.733700	0.283100
H121	H12	0.531500	0.714600	0.242300
C371	C37	0.540000	0.759500	0.348400
C381	C38	0.509800	0.785500	0.409400
H131	H13	0.528700	0.802300	0.453800
C391	C39	0.626900	0.702000	0.356800
C401	C40	0.689400	0.701300	0.357000
C411	C41	0.719900	0.751300	0.356700
C421	C42	0.692800	0.803700	0.355400
C431	C43	0.630500	0.808500	0.350400
C441	C44	0.724800	0.853400	0.356300
H141	H14	0.706300	0.889000	0.355400
C451	C45	0.785400	0.851000	0.358600
H151	H15	0.807300	0.884400	0.361100
N31	N3	0.601300	0.757000	0.353500
Ce41	Ce4	0.145580	0.629460	0.589400
O191	O19	0.057100	0.663100	0.528900
O201	O20	0.136700	0.682100	0.464400
O211	O21	0.128200	0.797300	0.211300
O221	O22	0.046900	0.809100	0.149900
O231	O23	0.903000	0.840100	0.360600
O241	O24	0.893600	0.647900	0.339900
C461	C46	0.082600	0.684200	0.469700
C471	C47	0.049700	0.713600	0.404400
C481	C48	0.077100	0.737100	0.340800
H161	H16	0.117100	0.735500	0.338000
C491	C49	0.075200	0.791900	0.210300
C501	C50	0.046100	0.764000	0.278400
C511	C51	0.989200	0.766300	0.283100
H171	H17	0.968500	0.785400	0.242300
C521	C52	0.960000	0.740500	0.348400
C531	C53	0.990200	0.714500	0.409400
H181	H18	0.971300	0.697700	0.453800
C541	C54	0.873100	0.798000	0.356800
C551	C55	0.810600	0.798700	0.357000
C561	C56	0.780100	0.748700	0.356700
C571	C57	0.807200	0.696300	0.355400
C581	C58	0.869500	0.691500	0.350400
C591	C59	0.775200	0.646600	0.356300
H191	H19	0.793700	0.611000	0.355400
C601	C60	0.714600	0.649000	0.358600
H201	H20	0.692700	0.615600	0.361100
N41	N4	0.898700	0.743000	0.353500
Ce51	Ce5	0.629460	0.354420	0.910600
O251	O25	0.663100	0.442900	0.971100
O261	O26	0.682100	0.363300	0.035600
O271	O27	0.797300	0.371800	0.288700
O281	O28	0.809100	0.453100	0.350100
O291	O29	0.840100	0.597000	0.139400
O301	O30	0.647900	0.606400	0.160100
C611	C61	0.684200	0.417400	0.030300
C621	C62	0.713600	0.450300	0.095600
C631	C63	0.737100	0.422900	0.159200
H211	H21	0.735500	0.382900	0.162000
C641	C64	0.791900	0.424800	0.289700
C651	C65	0.764000	0.453900	0.221600
C661	C66	0.766300	0.510800	0.216900
H221	H22	0.785400	0.531500	0.257700
C671	C67	0.740500	0.540000	0.151600
C681	C68	0.714500	0.509800	0.090600
H231	H23	0.697700	0.528700	0.046200
C691	C69	0.798000	0.626900	0.143200
C701	C70	0.798700	0.689400	0.143000
C711	C71	0.748700	0.719900	0.143300
C721	C72	0.696300	0.692800	0.144600
C731	C73	0.691500	0.630500	0.149600
C741	C74	0.646600	0.724800	0.143700
H241	H24	0.611000	0.706300	0.144600
C751	C75	0.649000	0.785400	0.141400
H251	H25	0.615600	0.807300	0.138900
N51	N5	0.743000	0.601300	0.146500
Ce61	Ce6	0.870540	0.145580	0.910600
O311	O31	0.836900	0.057100	0.971100
O321	O32	0.817900	0.136700	0.035600
O331	O33	0.702700	0.128200	0.288700
O341	O34	0.690900	0.046900	0.350100
O351	O35	0.659900	0.903000	0.139400
O361	O36	0.852100	0.893600	0.160100
C761	C76	0.815800	0.082600	0.030300
C771	C77	0.786400	0.049700	0.095600
C781	C78	0.762900	0.077100	0.159200
H261	H26	0.764500	0.117100	0.162000
C791	C79	0.708100	0.075200	0.289700
C801	C80	0.736000	0.046100	0.221600
C811	C81	0.733700	0.989200	0.216900
H271	H27	0.714600	0.968500	0.257700
C821	C82	0.759500	0.960000	0.151600
C831	C83	0.785500	0.990200	0.090600
H281	H28	0.802300	0.971300	0.046200
C841	C84	0.702000	0.873100	0.143200
C851	C85	0.701300	0.810600	0.143000
C861	C86	0.751300	0.780100	0.143300
C871	C87	0.803700	0.807200	0.144600
C881	C88	0.808500	0.869500	0.149600
C891	C89	0.853400	0.775200	0.143700
H291	H29	0.889000	0.793700	0.144600
C901	C90	0.851000	0.714600	0.141400
H301	H30	0.884400	0.692700	0.138900
N61	N6	0.757000	0.898700	0.146500
Ce71	Ce7	0.645580	0.129460	0.410600
O371	O37	0.557100	0.163100	0.471100
O381	O38	0.636700	0.182100	0.535600
O391	O39	0.628200	0.297300	0.788700
O401	O40	0.546900	0.309100	0.850100
O411	O41	0.403000	0.340100	0.639400
O421	O42	0.393600	0.147900	0.660100
C911	C91	0.582600	0.184200	0.530300
C921	C92	0.549700	0.213600	0.595600
C931	C93	0.577100	0.237100	0.659200
H311	H31	0.617100	0.235500	0.662000
C941	C94	0.575200	0.291900	0.789700
C951	C95	0.546100	0.264000	0.721600
C961	C96	0.489200	0.266300	0.716900
H321	H32	0.468500	0.285400	0.757700
C971	C97	0.460000	0.240500	0.651600
C981	C98	0.490200	0.214500	0.590600
H331	H33	0.471300	0.197700	0.546200
C991	C99	0.373100	0.298000	0.643200
C1001	C100	0.310600	0.298700	0.643000
C1011	C101	0.280100	0.248700	0.643300
C1021	C102	0.307200	0.196300	0.644600
C1031	C103	0.369500	0.191500	0.649600
C1041	C104	0.275200	0.146600	0.643700
H341	H34	0.293700	0.111000	0.644600
C1051	C105	0.214600	0.149000	0.641400
H351	H35	0.192700	0.115600	0.638900
N71	N7	0.398700	0.243000	0.646500
Ce81	Ce8	0.854420	0.370540	0.410600
O431	O43	0.942900	0.336900	0.471100
O441	O44	0.863300	0.317900	0.535600
O451	O45	0.871800	0.202700	0.788700
O461	O46	0.953100	0.190900	0.850100
O471	O47	0.097000	0.159900	0.639400
O481	O48	0.106400	0.352100	0.660100
C1061	C106	0.917400	0.315800	0.530300
C1071	C107	0.950300	0.286400	0.595600
C1081	C108	0.922900	0.262900	0.659200
H361	H36	0.882900	0.264500	0.662000
C1091	C109	0.924800	0.208100	0.789700
C1101	C110	0.953900	0.236000	0.721600
C1111	C111	0.010800	0.233700	0.716900
H371	H37	0.031500	0.214600	0.757700
C1121	C112	0.040000	0.259500	0.651600
C1131	C113	0.009800	0.285500	0.590600
H381	H38	0.028700	0.302300	0.546200
C1141	C114	0.126900	0.202000	0.643200
C1151	C115	0.189400	0.201300	0.643000
C1161	C116	0.219900	0.251300	0.643300
C1171	C117	0.192800	0.303700	0.644600
C1181	C118	0.130500	0.308500	0.649600
C1191	C119	0.224800	0.353400	0.643700
H391	H39	0.206300	0.389000	0.644600
C1201	C120	0.285400	0.351000	0.641400
H401	H40	0.307300	0.384400	0.638900
N81	N8	0.101300	0.257000	0.646500
