data_NANYUX02_charged_PM
_symmetry_space_group_name_H-M	'P1'
_cell_length_a	9.480100
_cell_length_b	11.551000
_cell_length_c	16.302700
_cell_angle_alpha	90.000000
_cell_angle_beta	90.000000
_cell_angle_gamma	97.138000
_symmetry_Int_Tables_number 1

loop_
_symmetry_equiv_pos_as_xyz
'x,y,z'

loop_
_atom_site_label
_atom_site_type_symbol
_atom_site_fract_x
_atom_site_fract_y
_atom_site_fract_z
Zn11	Zn1	0.363730	0.547090	0.920280
Zn21	Zn2	0.136270	0.952910	0.420280
Zn31	Zn3	0.636270	0.452910	0.079720
Zn41	Zn4	0.863730	0.047090	0.579720
H11	H1	0.063500	0.831700	0.751800
H21	H2	0.654000	0.779000	0.819400
H31	H3	0.941300	0.610300	0.935000
H41	H4	0.436500	0.668300	0.251800
H51	H5	0.846000	0.721000	0.319400
H61	H6	0.558700	0.889700	0.435000
H71	H7	0.936500	0.168300	0.248200
H81	H8	0.346000	0.221000	0.180600
H91	H9	0.058700	0.389700	0.065000
H101	H10	0.563500	0.331700	0.748200
H111	H11	0.154000	0.279000	0.680600
H121	H12	0.441300	0.110300	0.565000
C11	C1	0.175900	0.687000	0.852700
C21	C2	0.815600	0.897700	0.707770
C31	C3	0.663900	0.621600	0.937240
C41	C4	0.026500	0.717100	0.844990
C51	C5	0.992300	0.794800	0.785340
C61	C6	0.853600	0.817900	0.775120
C71	C7	0.747300	0.763200	0.825620
C81	C8	0.780000	0.684900	0.885440
C91	C9	0.919300	0.662400	0.894930
C101	C10	0.324100	0.813000	0.352700
C111	C11	0.684400	0.602300	0.207770
C121	C12	0.836100	0.878400	0.437240
C131	C13	0.473500	0.782900	0.344990
C141	C14	0.507700	0.705200	0.285340
C151	C15	0.646400	0.682100	0.275120
C161	C16	0.752700	0.736800	0.325620
C171	C17	0.720000	0.815100	0.385440
C181	C18	0.580700	0.837600	0.394930
C191	C19	0.824100	0.313000	0.147300
C201	C20	0.184400	0.102300	0.292230
C211	C21	0.336100	0.378400	0.062760
C221	C22	0.973500	0.282900	0.155010
C231	C23	0.007700	0.205200	0.214660
C241	C24	0.146400	0.182100	0.224880
C251	C25	0.252700	0.236800	0.174380
C261	C26	0.220000	0.315100	0.114560
C271	C27	0.080700	0.337600	0.105070
C281	C28	0.675900	0.187000	0.647300
C291	C29	0.315600	0.397700	0.792230
C301	C30	0.163900	0.121600	0.562760
C311	C31	0.526500	0.217100	0.655010
C321	C32	0.492300	0.294800	0.714660
C331	C33	0.353600	0.317900	0.724880
C341	C34	0.247300	0.263200	0.674380
C351	C35	0.280000	0.184900	0.614560
C361	C36	0.419300	0.162400	0.605070
O11	O1	0.203550	0.636280	0.918660
O21	O2	0.262790	0.712780	0.797150
O31	O3	0.919200	0.949440	0.667400
O41	O4	0.690700	0.906400	0.692970
O51	O5	0.542000	0.653170	0.932640
O61	O6	0.698340	0.540020	0.980240
O71	O7	0.296450	0.863720	0.418660
O81	O8	0.237210	0.787220	0.297150
O91	O9	0.580800	0.550560	0.167400
O101	O10	0.809300	0.593600	0.192970
O111	O11	0.958000	0.846830	0.432640
O121	O12	0.801660	0.959980	0.480240
O131	O13	0.796450	0.363720	0.081340
O141	O14	0.737210	0.287220	0.202850
O151	O15	0.080800	0.050560	0.332600
O161	O16	0.309300	0.093600	0.307030
O171	O17	0.458000	0.346830	0.067360
O181	O18	0.301660	0.459980	0.019760
O191	O19	0.703550	0.136280	0.581340
O201	O20	0.762790	0.212780	0.702850
O211	O21	0.419200	0.449440	0.832600
O221	O22	0.190700	0.406400	0.807030
O231	O23	0.042000	0.153170	0.567360
O241	O24	0.198340	0.040020	0.519760
H131	H13	0.282100	0.661700	0.605400
H141	H14	0.307300	0.697800	0.690000
H151	H15	0.514500	0.650500	0.584500
H161	H16	0.459000	0.571400	0.658700
H171	H17	0.545000	0.694300	0.674500
H181	H18	0.422300	0.869600	0.650800
H191	H19	0.267700	0.851400	0.614800
H201	H20	0.397300	0.830500	0.559300
C371	C37	0.477100	0.650300	0.639200
C381	C38	0.359100	0.823800	0.613900
N11	N1	0.344300	0.703200	0.639100
H211	H21	0.217900	0.838300	0.105400
H221	H22	0.192700	0.802200	0.190000
H231	H23	0.985500	0.849500	0.084500
H241	H24	0.041000	0.928600	0.158700
H251	H25	0.955000	0.805700	0.174500
H261	H26	0.077700	0.630400	0.150800
H271	H27	0.232300	0.648600	0.114800
H281	H28	0.102700	0.669500	0.059300
C391	C39	0.022900	0.849700	0.139200
C401	C40	0.140900	0.676200	0.113900
N21	N2	0.155700	0.796800	0.139100
H291	H29	0.717900	0.338300	0.394600
H301	H30	0.692700	0.302200	0.310000
H311	H31	0.485500	0.349500	0.415500
H321	H32	0.541000	0.428600	0.341300
H331	H33	0.455000	0.305700	0.325500
H341	H34	0.577700	0.130400	0.349200
H351	H35	0.732300	0.148600	0.385200
H361	H36	0.602700	0.169500	0.440700
C411	C41	0.522900	0.349700	0.360800
C421	C42	0.640900	0.176200	0.386100
N31	N3	0.655700	0.296800	0.360900
H371	H37	0.782100	0.161700	0.894600
H381	H38	0.807300	0.197800	0.810000
H391	H39	0.014500	0.150500	0.915500
H401	H40	0.959000	0.071400	0.841300
H411	H41	0.045000	0.194300	0.825500
H421	H42	0.922300	0.369600	0.849200
H431	H43	0.767700	0.351400	0.885200
H441	H44	0.897300	0.330500	0.940700
C431	C43	0.977100	0.150300	0.860800
C441	C44	0.859100	0.323800	0.886100
N41	N4	0.844300	0.203200	0.860900
