data_NANYUX01_charged_PM
_symmetry_space_group_name_H-M	'P1'
_cell_length_a	9.446900
_cell_length_b	11.517600
_cell_length_c	16.245600
_cell_angle_alpha	90.000000
_cell_angle_beta	90.000000
_cell_angle_gamma	97.027000
_symmetry_Int_Tables_number 1

loop_
_symmetry_equiv_pos_as_xyz
'x,y,z'

loop_
_atom_site_label
_atom_site_type_symbol
_atom_site_fract_x
_atom_site_fract_y
_atom_site_fract_z
Zn11	Zn1	0.363520	0.546890	0.920280
Zn21	Zn2	0.136480	0.953110	0.420280
Zn31	Zn3	0.636480	0.453110	0.079720
Zn41	Zn4	0.863520	0.046890	0.579720
H11	H1	0.935700	0.168400	0.248200
H21	H2	0.058600	0.389500	0.064300
H31	H3	0.346800	0.221300	0.180700
H41	H4	0.564300	0.331600	0.748200
H51	H5	0.441400	0.110500	0.564300
H61	H6	0.153200	0.278700	0.680700
H71	H7	0.064300	0.831600	0.751800
H81	H8	0.941400	0.610500	0.935700
H91	H9	0.653200	0.778700	0.819300
H101	H10	0.435700	0.668400	0.251800
H111	H11	0.558600	0.889500	0.435700
H121	H12	0.846800	0.721300	0.319300
C11	C1	0.007200	0.205600	0.214750
C21	C2	0.146600	0.182500	0.224910
C31	C3	0.973700	0.283400	0.155220
C41	C4	0.824500	0.313100	0.147350
C51	C5	0.220500	0.315600	0.114480
C61	C6	0.081000	0.337700	0.104880
C71	C7	0.185000	0.102300	0.292530
C81	C8	0.253200	0.237200	0.174390
C91	C9	0.336200	0.379100	0.062810
C101	C10	0.492800	0.294400	0.714750
C111	C11	0.353400	0.317500	0.724910
C121	C12	0.526300	0.216600	0.655220
C131	C13	0.675500	0.186900	0.647350
C141	C14	0.279500	0.184400	0.614480
C151	C15	0.419000	0.162300	0.604880
C161	C16	0.315000	0.397700	0.792530
C171	C17	0.246800	0.262800	0.674390
C181	C18	0.163800	0.120900	0.562810
C191	C19	0.992800	0.794400	0.785250
C201	C20	0.853400	0.817500	0.775090
C211	C21	0.026300	0.716600	0.844780
C221	C22	0.175500	0.686900	0.852650
C231	C23	0.779500	0.684400	0.885520
C241	C24	0.919000	0.662300	0.895120
C251	C25	0.815000	0.897700	0.707470
C261	C26	0.746800	0.762800	0.825610
C271	C27	0.663800	0.620900	0.937190
C281	C28	0.507200	0.705600	0.285250
C291	C29	0.646600	0.682500	0.275090
C301	C30	0.473700	0.783400	0.344780
C311	C31	0.324500	0.813100	0.352650
C321	C32	0.720500	0.815600	0.385520
C331	C33	0.581000	0.837700	0.395120
C341	C34	0.685000	0.602300	0.207470
C351	C35	0.753200	0.737200	0.325610
C361	C36	0.836200	0.879100	0.437190
O11	O1	0.301850	0.460170	0.020200
O21	O2	0.458290	0.347470	0.067620
O31	O3	0.309800	0.094600	0.307610
O41	O4	0.081400	0.050860	0.332760
O51	O5	0.738000	0.287600	0.203100
O61	O6	0.796640	0.364180	0.081560
O71	O7	0.198150	0.039830	0.520200
O81	O8	0.041710	0.152530	0.567620
O91	O9	0.190200	0.405400	0.807610
O101	O10	0.418600	0.449140	0.832760
O111	O11	0.762000	0.212400	0.703100
O121	O12	0.703360	0.135820	0.581560
O131	O13	0.698150	0.539830	0.979800
O141	O14	0.541710	0.652530	0.932380
O151	O15	0.690200	0.905400	0.692390
O161	O16	0.918600	0.949140	0.667240
O171	O17	0.262000	0.712400	0.796900
O181	O18	0.203360	0.635820	0.918440
O191	O19	0.801850	0.960170	0.479800
O201	O20	0.958290	0.847470	0.432380
O211	O21	0.809800	0.594600	0.192390
O221	O22	0.581400	0.550860	0.167240
O231	O23	0.238000	0.787600	0.296900
O241	O24	0.296640	0.864180	0.418440
H131	H13	0.669200	0.290600	0.305100
H141	H14	0.711000	0.335100	0.385600
H151	H15	0.547600	0.429100	0.342200
H161	H16	0.487400	0.350900	0.416300
H171	H17	0.449200	0.311600	0.325700
H181	H18	0.736700	0.156400	0.382800
H191	H19	0.578500	0.125500	0.353500
H201	H20	0.610900	0.173400	0.442700
C371	C37	0.522200	0.350200	0.360800
C381	C38	0.641900	0.177900	0.386400
N11	N1	0.641500	0.290700	0.358100
H211	H21	0.830800	0.209400	0.805100
H221	H22	0.789000	0.164900	0.885600
H231	H23	0.952400	0.070900	0.842200
H241	H24	0.012600	0.149100	0.916300
H251	H25	0.050800	0.188400	0.825700
H261	H26	0.763300	0.343600	0.882800
H271	H27	0.921500	0.374500	0.853500
H281	H28	0.889100	0.326600	0.942700
C391	C39	0.977800	0.149800	0.860800
C401	C40	0.858100	0.322100	0.886400
N21	N2	0.858500	0.209300	0.858100
H291	H29	0.330800	0.709400	0.694900
H301	H30	0.289000	0.664900	0.614400
H311	H31	0.452400	0.570900	0.657800
H321	H32	0.512600	0.649100	0.583700
H331	H33	0.550800	0.688400	0.674300
H341	H34	0.263300	0.843600	0.617200
H351	H35	0.421500	0.874500	0.646500
H361	H36	0.389100	0.826600	0.557300
C411	C41	0.477800	0.649800	0.639200
C421	C42	0.358100	0.822100	0.613600
N31	N3	0.358500	0.709300	0.641900
H371	H37	0.169200	0.790600	0.194900
H381	H38	0.211000	0.835100	0.114400
H391	H39	0.047600	0.929100	0.157800
H401	H40	0.987400	0.850900	0.083700
H411	H41	0.949200	0.811600	0.174300
H421	H42	0.236700	0.656400	0.117200
H431	H43	0.078500	0.625500	0.146500
H441	H44	0.110900	0.673400	0.057300
C431	C43	0.022200	0.850200	0.139200
C441	C44	0.141900	0.677900	0.113600
N41	N4	0.141500	0.790700	0.141900
