data_NAPZOV_clean_PM
_symmetry_space_group_name_H-M	'P1'
_cell_length_a	7.339000
_cell_length_b	11.247000
_cell_length_c	15.845800
_cell_angle_alpha	90.000000
_cell_angle_beta	90.000000
_cell_angle_gamma	90.000000
_symmetry_Int_Tables_number 1

loop_
_symmetry_equiv_pos_as_xyz
'x,y,z'

loop_
_atom_site_label
_atom_site_type_symbol
_atom_site_fract_x
_atom_site_fract_y
_atom_site_fract_z
Cd11	Cd1	0.469900	0.489300	0.221700
Cd21	Cd2	0.530100	0.989300	0.778300
Cd31	Cd3	0.969900	0.489300	0.278300
Cd41	Cd4	0.030100	0.989300	0.721700
H11	H1	0.351700	0.435300	0.490300
H21	H2	0.462000	0.240400	0.695300
H31	H3	0.811900	0.245200	0.500700
H41	H4	0.184800	0.347300	0.691800
H51	H5	0.098700	0.363500	0.602000
H61	H6	0.203800	0.469000	0.644500
H71	H7	0.648300	0.935300	0.509700
H81	H8	0.538000	0.740400	0.304700
H91	H9	0.188100	0.745200	0.499300
H101	H10	0.815200	0.847300	0.308200
H111	H11	0.901300	0.863500	0.398000
H121	H12	0.796200	0.969000	0.355500
H131	H13	0.851700	0.435300	0.009700
H141	H14	0.962000	0.240400	0.804700
H151	H15	0.311900	0.245200	0.999300
H161	H16	0.684800	0.347300	0.808200
H171	H17	0.598700	0.363500	0.898000
H181	H18	0.703800	0.469000	0.855500
H191	H19	0.148300	0.935300	0.990300
H201	H20	0.038000	0.740400	0.195300
H211	H21	0.688100	0.745200	0.000700
H221	H22	0.315200	0.847300	0.191800
H231	H23	0.401300	0.863500	0.102000
H241	H24	0.296200	0.969000	0.144500
C11	C1	0.646000	0.400200	0.398300
C21	C2	0.588000	0.352100	0.482200
C31	C3	0.428000	0.383500	0.519300
C41	C4	0.371000	0.342800	0.598600
C51	C5	0.492000	0.266400	0.641400
C61	C6	0.651000	0.229600	0.607300
C71	C7	0.704000	0.270900	0.525300
C81	C8	0.200000	0.384000	0.637600
C91	C9	0.783000	0.142100	0.648800
C101	C10	0.354000	0.900200	0.601700
C111	C11	0.412000	0.852100	0.517800
C121	C12	0.572000	0.883500	0.480700
C131	C13	0.629000	0.842800	0.401400
C141	C14	0.508000	0.766400	0.358600
C151	C15	0.349000	0.729600	0.392700
C161	C16	0.296000	0.770900	0.474700
C171	C17	0.800000	0.884000	0.362400
C181	C18	0.217000	0.642100	0.351200
C191	C19	0.146000	0.400200	0.101700
C201	C20	0.088000	0.352100	0.017800
C211	C21	0.928000	0.383500	0.980700
C221	C22	0.871000	0.342800	0.901400
C231	C23	0.992000	0.266400	0.858600
C241	C24	0.151000	0.229600	0.892700
C251	C25	0.204000	0.270900	0.974700
C261	C26	0.700000	0.384000	0.862400
C271	C27	0.283000	0.142100	0.851200
C281	C28	0.854000	0.900200	0.898300
C291	C29	0.912000	0.852100	0.982200
C301	C30	0.072000	0.883500	0.019300
C311	C31	0.129000	0.842800	0.098600
C321	C32	0.008000	0.766400	0.141400
C331	C33	0.849000	0.729600	0.107300
C341	C34	0.796000	0.770900	0.025300
C351	C35	0.300000	0.884000	0.137600
C361	C36	0.717000	0.642100	0.148800
O11	O1	0.520900	0.455000	0.358800
O21	O2	0.808500	0.393000	0.378000
O31	O3	0.742000	0.112400	0.725200
O41	O4	0.918500	0.105600	0.614000
O51	O5	0.479100	0.955000	0.641200
O61	O6	0.191500	0.893000	0.622000
O71	O7	0.258000	0.612400	0.274800
O81	O8	0.081500	0.605600	0.386000
O91	O9	0.020900	0.455000	0.141200
O101	O10	0.308500	0.393000	0.122000
O111	O11	0.242000	0.112400	0.774800
O121	O12	0.418500	0.105600	0.886000
O131	O13	0.979100	0.955000	0.858800
O141	O14	0.691500	0.893000	0.878000
O151	O15	0.758000	0.612400	0.225200
O161	O16	0.581500	0.605600	0.114000
