data_NAQQED_clean_PM
_symmetry_space_group_name_H-M	'P1'
_cell_length_a	21.751000
_cell_length_b	21.751000
_cell_length_c	16.143800
_cell_angle_alpha	90.000000
_cell_angle_beta	90.000000
_cell_angle_gamma	90.000000
_symmetry_Int_Tables_number 1

loop_
_symmetry_equiv_pos_as_xyz
'x,y,z'

loop_
_atom_site_label
_atom_site_type_symbol
_atom_site_fract_x
_atom_site_fract_y
_atom_site_fract_z
Tm11	Tm1	0.117950	0.085660	0.123960
O11	O1	0.223800	0.073400	0.153600
O21	O2	0.255500	0.111200	0.274400
O31	O3	0.440300	0.115900	0.367700
O41	O4	0.524800	0.082200	0.302700
N11	N1	0.368800	0.079900	0.247700
C11	C1	0.264200	0.084600	0.205100
C21	C2	0.329300	0.063400	0.188600
C31	C3	0.347000	0.030800	0.121200
H11	H1	0.319100	0.020100	0.080000
C41	C4	0.408100	0.014000	0.115900
H21	H2	0.421400	0.990500	0.071100
C51	C5	0.448600	0.030800	0.173900
H31	H3	0.489900	0.019700	0.169900
C61	C6	0.427600	0.064600	0.239100
C71	C7	0.468700	0.089400	0.307400
Tm21	Tm2	0.617950	0.585660	0.623960
O51	O5	0.723800	0.573400	0.653600
O61	O6	0.755500	0.611200	0.774400
O71	O7	0.940300	0.615900	0.867700
O81	O8	0.024800	0.582200	0.802700
N21	N2	0.868800	0.579900	0.747700
C81	C8	0.764200	0.584600	0.705100
C91	C9	0.829300	0.563400	0.688600
C101	C10	0.847000	0.530800	0.621200
H41	H4	0.819100	0.520100	0.580000
C111	C11	0.908100	0.514000	0.615900
H51	H5	0.921400	0.490500	0.571100
C121	C12	0.948600	0.530800	0.673900
H61	H6	0.989900	0.519700	0.669900
C131	C13	0.927600	0.564600	0.739100
C141	C14	0.968700	0.589400	0.807400
Tm31	Tm3	0.382050	0.914340	0.623960
O91	O9	0.276200	0.926600	0.653600
O101	O10	0.244500	0.888800	0.774400
O111	O11	0.059700	0.884100	0.867700
O121	O12	0.975200	0.917800	0.802700
N31	N3	0.131200	0.920100	0.747700
C151	C15	0.235800	0.915400	0.705100
C161	C16	0.170700	0.936600	0.688600
C171	C17	0.153000	0.969200	0.621200
H71	H7	0.180900	0.979900	0.580000
C181	C18	0.091900	0.986000	0.615900
H81	H8	0.078600	0.009500	0.571100
C191	C19	0.051400	0.969200	0.673900
H91	H9	0.010100	0.980300	0.669900
C201	C20	0.072400	0.935400	0.739100
C211	C21	0.031300	0.910600	0.807400
Tm41	Tm4	0.882050	0.414340	0.123960
O131	O13	0.776200	0.426600	0.153600
O141	O14	0.744500	0.388800	0.274400
O151	O15	0.559700	0.384100	0.367700
O161	O16	0.475200	0.417800	0.302700
N41	N4	0.631200	0.420100	0.247700
C221	C22	0.735800	0.415400	0.205100
C231	C23	0.670700	0.436600	0.188600
C241	C24	0.653000	0.469200	0.121200
H101	H10	0.680900	0.479900	0.080000
C251	C25	0.591900	0.486000	0.115900
H111	H11	0.578600	0.509500	0.071100
C261	C26	0.551400	0.469200	0.173900
H121	H12	0.510100	0.480300	0.169900
C271	C27	0.572400	0.435400	0.239100
C281	C28	0.531300	0.410600	0.307400
Tm51	Tm5	0.664340	0.367950	0.373960
O171	O17	0.676600	0.473800	0.403600
O181	O18	0.638800	0.505500	0.524400
O191	O19	0.634100	0.690300	0.617700
O201	O20	0.667800	0.774800	0.552700
N51	N5	0.670100	0.618800	0.497700
C291	C29	0.665400	0.514200	0.455100
C301	C30	0.686600	0.579300	0.438600
C311	C31	0.719200	0.597000	0.371200
H131	H13	0.729900	0.569100	0.330000
C321	C32	0.736000	0.658100	0.365900
H141	H14	0.759500	0.671400	0.321100
C331	C33	0.719200	0.698600	0.423900
H151	H15	0.730300	0.739900	0.419900
C341	C34	0.685400	0.677600	0.489100
C351	C35	0.660600	0.718700	0.557400
Tm61	Tm6	0.164340	0.867950	0.873960
O211	O21	0.176600	0.973800	0.903600
O221	O22	0.138800	0.005500	0.024400
O231	O23	0.134100	0.190300	0.117700
O241	O24	0.167800	0.274800	0.052700
N61	N6	0.170100	0.118800	0.997700
C361	C36	0.165400	0.014200	0.955100
C371	C37	0.186600	0.079300	0.938600
C381	C38	0.219200	0.097000	0.871200
H161	H16	0.229900	0.069100	0.830000
C391	C39	0.236000	0.158100	0.865900
H171	H17	0.259500	0.171400	0.821100
C401	C40	0.219200	0.198600	0.923900
H181	H18	0.230300	0.239900	0.919900
C411	C41	0.185400	0.177600	0.989100
C421	C42	0.160600	0.218700	0.057400
Tm71	Tm7	0.835660	0.632050	0.873960
O251	O25	0.823400	0.526200	0.903600
O261	O26	0.861200	0.494500	0.024400
O271	O27	0.865900	0.309700	0.117700
O281	O28	0.832200	0.225200	0.052700
N71	N7	0.829900	0.381200	0.997700
C431	C43	0.834600	0.485800	0.955100
C441	C44	0.813400	0.420700	0.938600
C451	C45	0.780800	0.403000	0.871200
H191	H19	0.770100	0.430900	0.830000
C461	C46	0.764000	0.341900	0.865900
H201	H20	0.740500	0.328600	0.821100
C471	C47	0.780800	0.301400	0.923900
H211	H21	0.769700	0.260100	0.919900
C481	C48	0.814600	0.322400	0.989100
C491	C49	0.839400	0.281300	0.057400
Tm81	Tm8	0.335660	0.132050	0.373960
O291	O29	0.323400	0.026200	0.403600
O301	O30	0.361200	0.994500	0.524400
O311	O31	0.365900	0.809700	0.617700
O321	O32	0.332200	0.725200	0.552700
N81	N8	0.329900	0.881200	0.497700
C501	C50	0.334600	0.985800	0.455100
C511	C51	0.313400	0.920700	0.438600
C521	C52	0.280800	0.903000	0.371200
H221	H22	0.270100	0.930900	0.330000
C531	C53	0.264000	0.841900	0.365900
H231	H23	0.240500	0.828600	0.321100
C541	C54	0.280800	0.801400	0.423900
H241	H24	0.269700	0.760100	0.419900
C551	C55	0.314600	0.822400	0.489100
C561	C56	0.339400	0.781300	0.557400
Tm91	Tm9	0.882050	0.914340	0.876040
O331	O33	0.776200	0.926600	0.846400
O341	O34	0.744500	0.888800	0.725600
O351	O35	0.559700	0.884100	0.632300
O361	O36	0.475200	0.917800	0.697300
N91	N9	0.631200	0.920100	0.752300
C571	C57	0.735800	0.915400	0.794900
C581	C58	0.670700	0.936600	0.811400
C591	C59	0.653000	0.969200	0.878800
H251	H25	0.680900	0.979900	0.920000
C601	C60	0.591900	0.986000	0.884100
H261	H26	0.578600	0.009500	0.928900
C611	C61	0.551400	0.969200	0.826100
H271	H27	0.510100	0.980300	0.830100
C621	C62	0.572400	0.935400	0.760900
C631	C63	0.531300	0.910600	0.692600
Tm101	Tm10	0.382050	0.414340	0.376040
O371	O37	0.276200	0.426600	0.346400
O381	O38	0.244500	0.388800	0.225600
O391	O39	0.059700	0.384100	0.132300
O401	O40	0.975200	0.417800	0.197300
N101	N10	0.131200	0.420100	0.252300
C641	C64	0.235800	0.415400	0.294900
C651	C65	0.170700	0.436600	0.311400
C661	C66	0.153000	0.469200	0.378800
H281	H28	0.180900	0.479900	0.420000
C671	C67	0.091900	0.486000	0.384100
H291	H29	0.078600	0.509500	0.428900
C681	C68	0.051400	0.469200	0.326100
H301	H30	0.010100	0.480300	0.330100
C691	C69	0.072400	0.435400	0.260900
C701	C70	0.031300	0.410600	0.192600
Tm111	Tm11	0.617950	0.085660	0.376040
O411	O41	0.723800	0.073400	0.346400
O421	O42	0.755500	0.111200	0.225600
O431	O43	0.940300	0.115900	0.132300
O441	O44	0.024800	0.082200	0.197300
N111	N11	0.868800	0.079900	0.252300
C711	C71	0.764200	0.084600	0.294900
C721	C72	0.829300	0.063400	0.311400
C731	C73	0.847000	0.030800	0.378800
H311	H31	0.819100	0.020100	0.420000
C741	C74	0.908100	0.014000	0.384100
H321	H32	0.921400	0.990500	0.428900
C751	C75	0.948600	0.030800	0.326100
H331	H33	0.989900	0.019700	0.330100
C761	C76	0.927600	0.064600	0.260900
C771	C77	0.968700	0.089400	0.192600
Tm121	Tm12	0.117950	0.585660	0.876040
O451	O45	0.223800	0.573400	0.846400
O461	O46	0.255500	0.611200	0.725600
O471	O47	0.440300	0.615900	0.632300
O481	O48	0.524800	0.582200	0.697300
N121	N12	0.368800	0.579900	0.752300
C781	C78	0.264200	0.584600	0.794900
C791	C79	0.329300	0.563400	0.811400
C801	C80	0.347000	0.530800	0.878800
H341	H34	0.319100	0.520100	0.920000
C811	C81	0.408100	0.514000	0.884100
H351	H35	0.421400	0.490500	0.928900
C821	C82	0.448600	0.530800	0.826100
H361	H36	0.489900	0.519700	0.830100
C831	C83	0.427600	0.564600	0.760900
C841	C84	0.468700	0.589400	0.692600
Tm131	Tm13	0.335660	0.632050	0.626040
O491	O49	0.323400	0.526200	0.596400
O501	O50	0.361200	0.494500	0.475600
O511	O51	0.365900	0.309700	0.382300
O521	O52	0.332200	0.225200	0.447300
N131	N13	0.329900	0.381200	0.502300
C851	C85	0.334600	0.485800	0.544900
C861	C86	0.313400	0.420700	0.561400
C871	C87	0.280800	0.403000	0.628800
H371	H37	0.270100	0.430900	0.670000
C881	C88	0.264000	0.341900	0.634100
H381	H38	0.240500	0.328600	0.678900
C891	C89	0.280800	0.301400	0.576100
H391	H39	0.269700	0.260100	0.580100
C901	C90	0.314600	0.322400	0.510900
C911	C91	0.339400	0.281300	0.442600
Tm141	Tm14	0.835660	0.132050	0.126040
O531	O53	0.823400	0.026200	0.096400
O541	O54	0.861200	0.994500	0.975600
O551	O55	0.865900	0.809700	0.882300
O561	O56	0.832200	0.725200	0.947300
N141	N14	0.829900	0.881200	0.002300
C921	C92	0.834600	0.985800	0.044900
C931	C93	0.813400	0.920700	0.061400
C941	C94	0.780800	0.903000	0.128800
H401	H40	0.770100	0.930900	0.170000
C951	C95	0.764000	0.841900	0.134100
H411	H41	0.740500	0.828600	0.178900
C961	C96	0.780800	0.801400	0.076100
H421	H42	0.769700	0.760100	0.080100
C971	C97	0.814600	0.822400	0.010900
C981	C98	0.839400	0.781300	0.942600
Tm151	Tm15	0.164340	0.367950	0.126040
O571	O57	0.176600	0.473800	0.096400
O581	O58	0.138800	0.505500	0.975600
O591	O59	0.134100	0.690300	0.882300
O601	O60	0.167800	0.774800	0.947300
N151	N15	0.170100	0.618800	0.002300
C991	C99	0.165400	0.514200	0.044900
C1001	C100	0.186600	0.579300	0.061400
C1011	C101	0.219200	0.597000	0.128800
H431	H43	0.229900	0.569100	0.170000
C1021	C102	0.236000	0.658100	0.134100
H441	H44	0.259500	0.671400	0.178900
C1031	C103	0.219200	0.698600	0.076100
H451	H45	0.230300	0.739900	0.080100
C1041	C104	0.185400	0.677600	0.010900
C1051	C105	0.160600	0.718700	0.942600
Tm161	Tm16	0.664340	0.867950	0.626040
O611	O61	0.676600	0.973800	0.596400
O621	O62	0.638800	0.005500	0.475600
O631	O63	0.634100	0.190300	0.382300
O641	O64	0.667800	0.274800	0.447300
N161	N16	0.670100	0.118800	0.502300
C1061	C106	0.665400	0.014200	0.544900
C1071	C107	0.686600	0.079300	0.561400
C1081	C108	0.719200	0.097000	0.628800
H461	H46	0.729900	0.069100	0.670000
C1091	C109	0.736000	0.158100	0.634100
H471	H47	0.759500	0.171400	0.678900
C1101	C110	0.719200	0.198600	0.576100
H481	H48	0.730300	0.239900	0.580100
C1111	C111	0.685400	0.177600	0.510900
C1121	C112	0.660600	0.218700	0.442600
