data_NARHAR_charged_PM
_symmetry_space_group_name_H-M	'P1'
_cell_length_a	10.147200
_cell_length_b	18.951500
_cell_length_c	21.107600
_cell_angle_alpha	115.381000
_cell_angle_beta	101.681000
_cell_angle_gamma	94.843600
_symmetry_Int_Tables_number 1

loop_
_symmetry_equiv_pos_as_xyz
'x,y,z'

loop_
_atom_site_label
_atom_site_type_symbol
_atom_site_fract_x
_atom_site_fract_y
_atom_site_fract_z
La11	La1	0.123990	0.108660	0.938400
La21	La2	0.056690	0.063150	0.614460
La31	La3	0.314410	0.829740	0.938400
La41	La4	0.057770	0.551310	0.614460
La51	La5	0.876010	0.891340	0.061600
La61	La6	0.943310	0.936850	0.385540
La71	La7	0.685590	0.170260	0.061600
La81	La8	0.942230	0.448690	0.385540
La91	La9	0.031350	0.281350	0.562700
La101	La10	0.968650	0.718650	0.437300
S11	S1	0.162220	0.102040	0.466420
S21	S2	0.386410	0.023700	0.928880
S31	S3	0.766090	0.091770	0.496600
S41	S4	0.211400	0.247260	0.687520
S51	S5	0.075810	0.090570	0.776120
S61	S6	0.408490	0.272600	0.048040
S71	S7	0.804200	0.364380	0.466420
S81	S8	0.042470	0.905180	0.928880
S91	S9	0.230510	0.404830	0.496600
S101	S10	0.976120	0.440260	0.687520
S111	S11	0.200310	0.685550	0.776120
S121	S12	0.139550	0.775440	0.048040
S131	S13	0.837780	0.897960	0.533580
S141	S14	0.613590	0.976300	0.071120
S151	S15	0.233910	0.908230	0.503400
S161	S16	0.788600	0.752740	0.312480
S171	S17	0.924190	0.909430	0.223880
S181	S18	0.591510	0.727400	0.951960
S191	S19	0.195800	0.635620	0.533580
S201	S20	0.957530	0.094820	0.071120
S211	S21	0.769490	0.595170	0.503400
S221	S22	0.023880	0.559740	0.312480
S231	S23	0.799690	0.314450	0.223880
S241	S24	0.860450	0.224560	0.951960
O11	O1	0.232600	0.297400	0.764640
O21	O2	0.823640	0.078340	0.560320
O31	O3	0.081870	0.070170	0.504200
O41	O4	0.295840	0.033840	0.870460
O51	O5	0.785860	0.028560	0.430220
O61	O6	0.336590	0.063590	0.993800
O71	O7	0.134550	0.181750	0.480700
O81	O8	0.155770	0.159970	0.845040
O91	O9	0.529400	0.060500	0.942880
O101	O10	0.059770	0.215970	0.650380
O111	O11	0.272000	0.175900	0.674700
O121	O12	0.619400	0.091500	0.489040
O131	O13	0.380220	0.938320	0.906840
O141	O14	0.837330	0.169430	0.508880
O151	O15	0.105420	0.047020	0.388340
O161	O16	0.165480	0.053080	0.729480
O171	O17	0.009820	0.034920	0.797300
O181	O18	0.306800	0.104900	0.490320
O191	O19	0.258880	0.291180	0.651220
O201	O20	0.975740	0.117440	0.733760
O211	O21	0.279580	0.227880	0.017960
O221	O22	0.522000	0.245900	0.013600
O231	O23	0.471800	0.240700	0.103400
O241	O24	0.412000	0.353900	0.074400
O251	O25	0.032040	0.467240	0.764640
O261	O26	0.236680	0.481980	0.560320
O271	O27	0.922330	0.434030	0.504200
O281	O28	0.074620	0.836620	0.870460
O291	O29	0.144360	0.401660	0.430220
O301	O30	0.157210	0.930210	0.993800
O311	O31	0.846150	0.298950	0.480700
O321	O32	0.189270	0.685070	0.845040
O331	O33	0.913480	0.882380	0.942880
O341	O34	0.090610	0.434410	0.650380
O351	O35	0.902700	0.498800	0.674700
O361	O36	0.369640	0.397540	0.489040
O371	O37	0.026620	0.968520	0.906840
O381	O38	0.171550	0.339450	0.508880
O391	O39	0.782920	0.341320	0.388340
O401	O40	0.064000	0.676400	0.729480
O411	O41	0.287480	0.762380	0.797300
O421	O42	0.683520	0.385420	0.490320
O431	O43	0.892340	0.360040	0.651220
O441	O44	0.258020	0.616320	0.733760
O451	O45	0.238380	0.790080	0.017960
O461	O46	0.991600	0.767700	0.013600
O471	O47	0.131600	0.862700	0.103400
O481	O48	0.162400	0.720500	0.074400
O491	O49	0.767400	0.702600	0.235360
O501	O50	0.176360	0.921660	0.439680
O511	O51	0.918130	0.929830	0.495800
O521	O52	0.704160	0.966160	0.129540
O531	O53	0.214140	0.971440	0.569780
O541	O54	0.663410	0.936410	0.006200
O551	O55	0.865450	0.818250	0.519300
O561	O56	0.844230	0.840030	0.154960
O571	O57	0.470600	0.939500	0.057120
O581	O58	0.940230	0.784030	0.349620
O591	O59	0.728000	0.824100	0.325300
O601	O60	0.380600	0.908500	0.510960
O611	O61	0.619780	0.061680	0.093160
O621	O62	0.162670	0.830570	0.491120
O631	O63	0.894580	0.952980	0.611660
O641	O64	0.834520	0.946920	0.270520
O651	O65	0.990180	0.965080	0.202700
O661	O66	0.693200	0.895100	0.509680
O671	O67	0.741120	0.708820	0.348780
O681	O68	0.024260	0.882560	0.266240
O691	O69	0.720420	0.772120	0.982040
O701	O70	0.478000	0.754100	0.986400
O711	O71	0.528200	0.759300	0.896600
O721	O72	0.588000	0.646100	0.925600
O731	O73	0.967960	0.532760	0.235360
O741	O74	0.763320	0.518020	0.439680
O751	O75	0.077670	0.565970	0.495800
O761	O76	0.925380	0.163380	0.129540
O771	O77	0.855640	0.598340	0.569780
O781	O78	0.842790	0.069790	0.006200
O791	O79	0.153850	0.701050	0.519300
O801	O80	0.810730	0.314930	0.154960
O811	O81	0.086520	0.117620	0.057120
O821	O82	0.909390	0.565590	0.349620
O831	O83	0.097300	0.501200	0.325300
O841	O84	0.630360	0.602460	0.510960
O851	O85	0.973380	0.031480	0.093160
O861	O86	0.828450	0.660550	0.491120
O871	O87	0.217080	0.658680	0.611660
O881	O88	0.936000	0.323600	0.270520
O891	O89	0.712520	0.237620	0.202700
O901	O90	0.316480	0.614580	0.509680
O911	O91	0.107660	0.639960	0.348780
O921	O92	0.741980	0.383680	0.266240
O931	O93	0.761620	0.209920	0.982040
O941	O94	0.008400	0.232300	0.986400
O951	O95	0.868400	0.137300	0.896600
O961	O96	0.837600	0.279500	0.925600
H11	H1	0.419200	0.523400	0.413600
H21	H2	0.308800	0.448100	0.354200
H31	H3	0.428300	0.481700	0.331800
H41	H4	0.525300	0.310400	0.340800
H51	H5	0.493200	0.348800	0.287600
H61	H6	0.373700	0.315200	0.310000
H71	H7	0.575400	0.444900	0.404000
H81	H8	0.464500	0.413700	0.424800
C11	C1	0.403920	0.473020	0.370240
C21	C2	0.467780	0.341880	0.326560
N11	N1	0.486550	0.420650	0.388060
H91	H9	0.736200	0.033200	0.860200
H101	H10	0.609400	0.972400	0.797400
H111	H11	0.757600	0.954800	0.797400
H121	H12	0.768800	0.942000	0.900400
H131	H13	0.624000	0.827000	0.860200
H141	H14	0.688000	0.825000	0.797400
H151	H15	0.539800	0.842600	0.797400
H161	H16	0.631600	0.958400	0.900400
C31	C3	0.698010	0.977510	0.827820
C41	C4	0.629810	0.850310	0.827820
N21	N2	0.685540	0.935540	0.871080
H171	H17	0.831000	0.259400	0.741600
H181	H18	0.937100	0.338500	0.768800
H191	H19	0.841100	0.333200	0.817200
H201	H20	0.153900	0.327800	0.912000
H211	H21	0.041000	0.380400	0.924800
H221	H22	0.137100	0.385800	0.876600
H231	H23	0.952000	0.253600	0.841600
H241	H24	0.041000	0.258500	0.796800
C51	C5	0.892200	0.303900	0.784000
C61	C6	0.089200	0.350700	0.890200
N31	N3	0.994980	0.286880	0.828560
H251	H25	0.065500	0.441600	0.102800
H261	H26	0.183900	0.392800	0.092800
H271	H27	0.192000	0.463400	0.170000
H281	H28	0.102800	0.298300	0.192200
H291	H29	0.224500	0.372000	0.229400
H301	H30	0.216300	0.301300	0.152200
H311	H31	0.028400	0.389700	0.171200
H321	H32	0.020900	0.324500	0.100000
C71	C7	0.131500	0.420400	0.126000
C81	C8	0.163700	0.332600	0.183400
N41	N4	0.079500	0.362800	0.141800
H331	H33	0.691400	0.103000	0.264800
H341	H34	0.776800	0.185200	0.328400
H351	H35	0.807000	0.105100	0.328400
H361	H36	0.877500	0.076500	0.227000
H371	H37	0.073400	0.161800	0.264800
H381	H38	0.051600	0.143200	0.328400
H391	H39	0.021400	0.223300	0.328400
H401	H40	0.849500	0.150500	0.227000
C91	C9	0.780300	0.130500	0.298000
C101	C10	0.017700	0.167500	0.298000
N51	N5	0.878200	0.128200	0.256400
H411	H41	0.494400	0.890200	0.413600
H421	H42	0.545400	0.906100	0.354200
H431	H43	0.403500	0.850100	0.331800
H441	H44	0.315500	0.030400	0.340800
H451	H45	0.294400	0.938800	0.287600
H461	H46	0.436300	0.994800	0.310000
H471	H47	0.328600	0.959100	0.404000
H481	H48	0.460300	0.011100	0.424800
C111	C11	0.466320	0.897220	0.370240
C121	C12	0.358780	0.984680	0.326560
N61	N6	0.401510	0.967410	0.388060
H491	H49	0.410600	0.482200	0.741600
H501	H50	0.331700	0.430300	0.768800
H511	H51	0.476100	0.484000	0.817200
H521	H52	0.258100	0.584200	0.912000
H531	H53	0.383800	0.544400	0.924800
H541	H54	0.239500	0.490800	0.876600
H551	H55	0.389600	0.588000	0.841600
H561	H56	0.255800	0.538300	0.796800
C131	C13	0.391800	0.480100	0.784000
C141	C14	0.301000	0.539500	0.890200
N71	N7	0.333580	0.541680	0.828560
H571	H57	0.537300	0.661200	0.102800
H581	H58	0.408900	0.700000	0.092800
H591	H59	0.478000	0.706600	0.170000
H601	H60	0.589400	0.893900	0.192200
H611	H61	0.504900	0.857400	0.229400
H621	H62	0.435900	0.850900	0.152200
H631	H63	0.642800	0.781500	0.171200
H641	H64	0.579100	0.775500	0.100000
C151	C15	0.494500	0.705600	0.126000
C161	C16	0.519700	0.850800	0.183400
N81	N8	0.562300	0.779000	0.141800
H651	H65	0.580800	0.476600	0.586400
H661	H66	0.691200	0.551900	0.645800
H671	H67	0.571700	0.518300	0.668200
H681	H68	0.474700	0.689600	0.659200
H691	H69	0.506800	0.651200	0.712400
H701	H70	0.626300	0.684800	0.690000
H711	H71	0.424600	0.555100	0.596000
H721	H72	0.535500	0.586300	0.575200
C171	C17	0.596080	0.526980	0.629760
C181	C18	0.532220	0.658120	0.673440
N91	N9	0.513450	0.579350	0.611940
H731	H73	0.263800	0.966800	0.139800
H741	H74	0.390600	0.027600	0.202600
H751	H75	0.242400	0.045200	0.202600
H761	H76	0.231200	0.058000	0.099600
H771	H77	0.376000	0.173000	0.139800
H781	H78	0.312000	0.175000	0.202600
H791	H79	0.460200	0.157400	0.202600
H801	H80	0.368400	0.041600	0.099600
C191	C19	0.301990	0.022490	0.172180
C201	C20	0.370190	0.149690	0.172180
N101	N10	0.314460	0.064460	0.128920
H811	H81	0.169000	0.740600	0.258400
H821	H82	0.062900	0.661500	0.231200
H831	H83	0.158900	0.666800	0.182800
H841	H84	0.846100	0.672200	0.088000
H851	H85	0.959000	0.619600	0.075200
H861	H86	0.862900	0.614200	0.123400
H871	H87	0.048000	0.746400	0.158400
H881	H88	0.959000	0.741500	0.203200
C211	C21	0.107800	0.696100	0.216000
C221	C22	0.910800	0.649300	0.109800
N111	N11	0.005020	0.713120	0.171440
H891	H89	0.934500	0.558400	0.897200
H901	H90	0.816100	0.607200	0.907200
H911	H91	0.808000	0.536600	0.830000
H921	H92	0.897200	0.701700	0.807800
H931	H93	0.775500	0.628000	0.770600
H941	H94	0.783700	0.698700	0.847800
H951	H95	0.971600	0.610300	0.828800
H961	H96	0.979100	0.675500	0.900000
C231	C23	0.868500	0.579600	0.874000
C241	C24	0.836300	0.667400	0.816600
N121	N12	0.920500	0.637200	0.858200
H971	H97	0.308600	0.897000	0.735200
H981	H98	0.223200	0.814800	0.671600
H991	H99	0.193000	0.894900	0.671600
H1001	H100	0.122500	0.923500	0.773000
H1011	H101	0.926600	0.838200	0.735200
H1021	H102	0.948400	0.856800	0.671600
H1031	H103	0.978600	0.776700	0.671600
H1041	H104	0.150500	0.849500	0.773000
C251	C25	0.219700	0.869500	0.702000
C261	C26	0.982300	0.832500	0.702000
N131	N13	0.121800	0.871800	0.743600
H1051	H105	0.505600	0.109800	0.586400
H1061	H106	0.454600	0.093900	0.645800
H1071	H107	0.596500	0.149900	0.668200
H1081	H108	0.684500	0.969600	0.659200
H1091	H109	0.705600	0.061200	0.712400
H1101	H110	0.563700	0.005200	0.690000
H1111	H111	0.671400	0.040900	0.596000
H1121	H112	0.539700	0.988900	0.575200
C271	C27	0.533680	0.102780	0.629760
C281	C28	0.641220	0.015320	0.673440
N141	N14	0.598490	0.032590	0.611940
H1131	H113	0.589400	0.517800	0.258400
H1141	H114	0.668300	0.569700	0.231200
H1151	H115	0.523900	0.516000	0.182800
H1161	H116	0.741900	0.415800	0.088000
H1171	H117	0.616200	0.455600	0.075200
H1181	H118	0.760500	0.509200	0.123400
H1191	H119	0.610400	0.412000	0.158400
H1201	H120	0.744200	0.461700	0.203200
C291	C29	0.608200	0.519900	0.216000
C301	C30	0.699000	0.460500	0.109800
N151	N15	0.666420	0.458320	0.171440
H1211	H121	0.462700	0.338800	0.897200
H1221	H122	0.591100	0.300000	0.907200
H1231	H123	0.522000	0.293400	0.830000
H1241	H124	0.410600	0.106100	0.807800
H1251	H125	0.495100	0.142600	0.770600
H1261	H126	0.564100	0.149100	0.847800
H1271	H127	0.357200	0.218500	0.828800
H1281	H128	0.420900	0.224500	0.900000
C311	C31	0.505500	0.294400	0.874000
C321	C32	0.480300	0.149200	0.816600
N161	N16	0.437700	0.221000	0.858200
