data_NARNIG_clean_PM
_symmetry_space_group_name_H-M	'P1'
_cell_length_a	9.428000
_cell_length_b	22.415000
_cell_length_c	10.051000
_cell_angle_alpha	90.000000
_cell_angle_beta	102.120000
_cell_angle_gamma	90.000000
_symmetry_Int_Tables_number 1

loop_
_symmetry_equiv_pos_as_xyz
'x,y,z'

loop_
_atom_site_label
_atom_site_type_symbol
_atom_site_fract_x
_atom_site_fract_y
_atom_site_fract_z
Dy11	Dy1	0.250500	0.277170	0.046630
Dy21	Dy2	0.718330	0.434610	0.858310
N11	N1	0.598300	0.415200	0.625400
N21	N2	0.534100	0.413690	0.402500
H11	H1	0.524060	0.426680	0.321410
N31	N3	0.776600	0.507430	0.648300
O11	O1	0.067700	0.337810	0.109400
O21	O2	0.034300	0.288000	0.863500
O31	O3	0.830300	0.342480	0.791300
O41	O4	0.849000	0.380650	0.048800
O51	O5	0.524200	0.359850	0.823100
O61	O6	0.377600	0.294580	0.693700
O71	O7	0.277100	0.293130	0.391400
O81	O8	0.365100	0.337410	0.227300
O91	O9	0.601300	0.436100	0.050900
O101	O10	0.469500	0.491490	0.165700
O111	O11	0.976900	0.447870	0.868700
O121	O12	0.180800	0.481710	0.004700
C11	C1	0.456000	0.369280	0.448800
C21	C2	0.498000	0.370800	0.589400
C31	C3	0.619300	0.440170	0.511700
C41	C4	0.723500	0.489520	0.518500
C51	C5	0.764900	0.514210	0.405100
H21	H2	0.727570	0.499350	0.316080
C61	C6	0.863300	0.561680	0.427200
H31	H3	0.894640	0.579940	0.353090
C71	C7	0.914400	0.581590	0.558800
H41	H4	0.979650	0.614350	0.576030
C81	C8	0.869300	0.553180	0.665400
H51	H5	0.906470	0.567000	0.755310
C91	C9	0.357800	0.330230	0.349700
C101	C10	0.461700	0.338260	0.706800
C111	C11	0.520900	0.478580	0.062000
C121	C12	0.045200	0.479760	0.962500
C131	C13	0.953000	0.349320	0.026300
C141	C14	0.936800	0.324200	0.880100
Dy31	Dy3	0.749500	0.777170	0.453370
Dy41	Dy4	0.281670	0.934610	0.641690
N41	N4	0.401700	0.915200	0.874600
N51	N5	0.465900	0.913690	0.097500
H61	H6	0.475940	0.926680	0.178590
N61	N6	0.223400	0.007430	0.851700
O131	O13	0.932300	0.837810	0.390600
O141	O14	0.965700	0.788000	0.636500
O151	O15	0.169700	0.842480	0.708700
O161	O16	0.151000	0.880650	0.451200
O171	O17	0.475800	0.859850	0.676900
O181	O18	0.622400	0.794580	0.806300
O191	O19	0.722900	0.793130	0.108600
O201	O20	0.634900	0.837410	0.272700
O211	O21	0.398700	0.936100	0.449100
O221	O22	0.530500	0.991490	0.334300
O231	O23	0.023100	0.947870	0.631300
O241	O24	0.819200	0.981710	0.495300
C151	C15	0.544000	0.869280	0.051200
C161	C16	0.502000	0.870800	0.910600
C171	C17	0.380700	0.940170	0.988300
C181	C18	0.276500	0.989520	0.981500
C191	C19	0.235100	0.014210	0.094900
H71	H7	0.272430	0.999350	0.183920
C201	C20	0.136700	0.061680	0.072800
H81	H8	0.105360	0.079940	0.146910
C211	C21	0.085600	0.081590	0.941200
H91	H9	0.020350	0.114350	0.923970
C221	C22	0.130700	0.053180	0.834600
H101	H10	0.093530	0.067000	0.744690
C231	C23	0.642200	0.830230	0.150300
C241	C24	0.538300	0.838260	0.793200
C251	C25	0.479100	0.978580	0.438000
C261	C26	0.954800	0.979760	0.537500
C271	C27	0.047000	0.849320	0.473700
C281	C28	0.063200	0.824200	0.619900
Dy51	Dy5	0.749500	0.722830	0.953370
Dy61	Dy6	0.281670	0.565390	0.141690
N71	N7	0.401700	0.584800	0.374600
N81	N8	0.465900	0.586310	0.597500
H111	H11	0.475940	0.573320	0.678590
N91	N9	0.223400	0.492570	0.351700
O251	O25	0.932300	0.662190	0.890600
O261	O26	0.965700	0.712000	0.136500
O271	O27	0.169700	0.657520	0.208700
O281	O28	0.151000	0.619350	0.951200
O291	O29	0.475800	0.640150	0.176900
O301	O30	0.622400	0.705420	0.306300
O311	O31	0.722900	0.706870	0.608600
O321	O32	0.634900	0.662590	0.772700
O331	O33	0.398700	0.563900	0.949100
O341	O34	0.530500	0.508510	0.834300
O351	O35	0.023100	0.552130	0.131300
O361	O36	0.819200	0.518290	0.995300
C291	C29	0.544000	0.630720	0.551200
C301	C30	0.502000	0.629200	0.410600
C311	C31	0.380700	0.559830	0.488300
C321	C32	0.276500	0.510480	0.481500
C331	C33	0.235100	0.485790	0.594900
H121	H12	0.272430	0.500650	0.683920
C341	C34	0.136700	0.438320	0.572800
H131	H13	0.105360	0.420060	0.646910
C351	C35	0.085600	0.418410	0.441200
H141	H14	0.020350	0.385650	0.423970
C361	C36	0.130700	0.446820	0.334600
H151	H15	0.093530	0.433000	0.244690
C371	C37	0.642200	0.669770	0.650300
C381	C38	0.538300	0.661740	0.293200
C391	C39	0.479100	0.521420	0.938000
C401	C40	0.954800	0.520240	0.037500
C411	C41	0.047000	0.650680	0.973700
C421	C42	0.063200	0.675800	0.119900
Dy71	Dy7	0.250500	0.222830	0.546630
Dy81	Dy8	0.718330	0.065390	0.358310
N101	N10	0.598300	0.084800	0.125400
N111	N11	0.534100	0.086310	0.902500
H161	H16	0.524060	0.073320	0.821410
N121	N12	0.776600	0.992570	0.148300
O371	O37	0.067700	0.162190	0.609400
O381	O38	0.034300	0.212000	0.363500
O391	O39	0.830300	0.157520	0.291300
O401	O40	0.849000	0.119350	0.548800
O411	O41	0.524200	0.140150	0.323100
O421	O42	0.377600	0.205420	0.193700
O431	O43	0.277100	0.206870	0.891400
O441	O44	0.365100	0.162590	0.727300
O451	O45	0.601300	0.063900	0.550900
O461	O46	0.469500	0.008510	0.665700
O471	O47	0.976900	0.052130	0.368700
O481	O48	0.180800	0.018290	0.504700
C431	C43	0.456000	0.130720	0.948800
C441	C44	0.498000	0.129200	0.089400
C451	C45	0.619300	0.059830	0.011700
C461	C46	0.723500	0.010480	0.018500
C471	C47	0.764900	0.985790	0.905100
H171	H17	0.727570	0.000650	0.816080
C481	C48	0.863300	0.938320	0.927200
H181	H18	0.894640	0.920060	0.853090
C491	C49	0.914400	0.918410	0.058800
H191	H19	0.979650	0.885650	0.076030
C501	C50	0.869300	0.946820	0.165400
H201	H20	0.906470	0.933000	0.255310
C511	C51	0.357800	0.169770	0.849700
C521	C52	0.461700	0.161740	0.206800
C531	C53	0.520900	0.021420	0.562000
C541	C54	0.045200	0.020240	0.462500
C551	C55	0.953000	0.150680	0.526300
C561	C56	0.936800	0.175800	0.380100
