data_NARNAY_clean_PM
_symmetry_space_group_name_H-M	'P1'
_cell_length_a	9.590000
_cell_length_b	22.621000
_cell_length_c	10.129000
_cell_angle_alpha	90.000000
_cell_angle_beta	101.610000
_cell_angle_gamma	90.000000
_symmetry_Int_Tables_number 1

loop_
_symmetry_equiv_pos_as_xyz
'x,y,z'

loop_
_atom_site_label
_atom_site_type_symbol
_atom_site_fract_x
_atom_site_fract_y
_atom_site_fract_z
Sm11	Sm1	0.249470	0.277030	0.046940
Sm21	Sm2	0.720180	0.434430	0.856430
N11	N1	0.598900	0.414690	0.620700
N21	N2	0.533900	0.413810	0.400800
H11	H1	0.523240	0.422610	0.316650
N31	N3	0.774200	0.506580	0.642200
O11	O1	0.065000	0.338340	0.109400
O21	O2	0.033300	0.288090	0.865700
O31	O3	0.833500	0.341150	0.795500
O41	O4	0.850500	0.380140	0.049400
O51	O5	0.523600	0.359580	0.817000
O61	O6	0.378000	0.296330	0.689600
O71	O7	0.278900	0.295130	0.388800
O81	O8	0.368200	0.339010	0.227400
O91	O9	0.598600	0.436300	0.049600
O101	O10	0.468200	0.490650	0.163700
O111	O11	0.978600	0.449330	0.868200
O121	O12	0.177400	0.480990	0.004000
C11	C1	0.457300	0.369660	0.446800
C21	C2	0.499600	0.370890	0.586200
C31	C3	0.618700	0.439710	0.508000
C41	C4	0.721300	0.488410	0.514300
C51	C5	0.761600	0.512940	0.401100
H21	H2	0.724380	0.498330	0.313180
C61	C6	0.858600	0.559700	0.421900
H31	H3	0.888900	0.577800	0.347780
C71	C7	0.909800	0.579250	0.551600
H41	H4	0.974290	0.611560	0.567600
C81	C8	0.866700	0.551520	0.657700
H51	H5	0.904640	0.565030	0.746440
C91	C9	0.360600	0.331640	0.348400
C101	C10	0.462500	0.338910	0.703100
C111	C11	0.519800	0.478700	0.061000
C121	C12	0.044600	0.479830	0.962300
C131	C13	0.952300	0.349230	0.027600
C141	C14	0.937600	0.323760	0.882600
Sm31	Sm3	0.750530	0.777030	0.453060
Sm41	Sm4	0.279820	0.934430	0.643570
N41	N4	0.401100	0.914690	0.879300
N51	N5	0.466100	0.913810	0.099200
H61	H6	0.476760	0.922610	0.183350
N61	N6	0.225800	0.006580	0.857800
O131	O13	0.935000	0.838340	0.390600
O141	O14	0.966700	0.788090	0.634300
O151	O15	0.166500	0.841150	0.704500
O161	O16	0.149500	0.880140	0.450600
O171	O17	0.476400	0.859580	0.683000
O181	O18	0.622000	0.796330	0.810400
O191	O19	0.721100	0.795130	0.111200
O201	O20	0.631800	0.839010	0.272600
O211	O21	0.401400	0.936300	0.450400
O221	O22	0.531800	0.990650	0.336300
O231	O23	0.021400	0.949330	0.631800
O241	O24	0.822600	0.980990	0.496000
C151	C15	0.542700	0.869660	0.053200
C161	C16	0.500400	0.870890	0.913800
C171	C17	0.381300	0.939710	0.992000
C181	C18	0.278700	0.988410	0.985700
C191	C19	0.238400	0.012940	0.098900
H71	H7	0.275620	0.998330	0.186820
C201	C20	0.141400	0.059700	0.078100
H81	H8	0.111100	0.077800	0.152220
C211	C21	0.090200	0.079250	0.948400
H91	H9	0.025710	0.111560	0.932400
C221	C22	0.133300	0.051520	0.842300
H101	H10	0.095360	0.065030	0.753560
C231	C23	0.639400	0.831640	0.151600
C241	C24	0.537500	0.838910	0.796900
C251	C25	0.480200	0.978700	0.439000
C261	C26	0.955400	0.979830	0.537700
C271	C27	0.047700	0.849230	0.472400
C281	C28	0.062400	0.823760	0.617400
Sm51	Sm5	0.750530	0.722970	0.953060
Sm61	Sm6	0.279820	0.565570	0.143570
N71	N7	0.401100	0.585310	0.379300
N81	N8	0.466100	0.586190	0.599200
H111	H11	0.476760	0.577390	0.683350
N91	N9	0.225800	0.493420	0.357800
O251	O25	0.935000	0.661660	0.890600
O261	O26	0.966700	0.711910	0.134300
O271	O27	0.166500	0.658850	0.204500
O281	O28	0.149500	0.619860	0.950600
O291	O29	0.476400	0.640420	0.183000
O301	O30	0.622000	0.703670	0.310400
O311	O31	0.721100	0.704870	0.611200
O321	O32	0.631800	0.660990	0.772600
O331	O33	0.401400	0.563700	0.950400
O341	O34	0.531800	0.509350	0.836300
O351	O35	0.021400	0.550670	0.131800
O361	O36	0.822600	0.519010	0.996000
C291	C29	0.542700	0.630340	0.553200
C301	C30	0.500400	0.629110	0.413800
C311	C31	0.381300	0.560290	0.492000
C321	C32	0.278700	0.511590	0.485700
C331	C33	0.238400	0.487060	0.598900
H121	H12	0.275620	0.501670	0.686820
C341	C34	0.141400	0.440300	0.578100
H131	H13	0.111100	0.422200	0.652220
C351	C35	0.090200	0.420750	0.448400
H141	H14	0.025710	0.388440	0.432400
C361	C36	0.133300	0.448480	0.342300
H151	H15	0.095360	0.434970	0.253560
C371	C37	0.639400	0.668360	0.651600
C381	C38	0.537500	0.661090	0.296900
C391	C39	0.480200	0.521300	0.939000
C401	C40	0.955400	0.520170	0.037700
C411	C41	0.047700	0.650770	0.972400
C421	C42	0.062400	0.676240	0.117400
Sm71	Sm7	0.249470	0.222970	0.546940
Sm81	Sm8	0.720180	0.065570	0.356430
N101	N10	0.598900	0.085310	0.120700
N111	N11	0.533900	0.086190	0.900800
H161	H16	0.523240	0.077390	0.816650
N121	N12	0.774200	0.993420	0.142200
O371	O37	0.065000	0.161660	0.609400
O381	O38	0.033300	0.211910	0.365700
O391	O39	0.833500	0.158850	0.295500
O401	O40	0.850500	0.119860	0.549400
O411	O41	0.523600	0.140420	0.317000
O421	O42	0.378000	0.203670	0.189600
O431	O43	0.278900	0.204870	0.888800
O441	O44	0.368200	0.160990	0.727400
O451	O45	0.598600	0.063700	0.549600
O461	O46	0.468200	0.009350	0.663700
O471	O47	0.978600	0.050670	0.368200
O481	O48	0.177400	0.019010	0.504000
C431	C43	0.457300	0.130340	0.946800
C441	C44	0.499600	0.129110	0.086200
C451	C45	0.618700	0.060290	0.008000
C461	C46	0.721300	0.011590	0.014300
C471	C47	0.761600	0.987060	0.901100
H171	H17	0.724380	0.001670	0.813180
C481	C48	0.858600	0.940300	0.921900
H181	H18	0.888900	0.922200	0.847780
C491	C49	0.909800	0.920750	0.051600
H191	H19	0.974290	0.888440	0.067600
C501	C50	0.866700	0.948480	0.157700
H201	H20	0.904640	0.934970	0.246440
C511	C51	0.360600	0.168360	0.848400
C521	C52	0.462500	0.161090	0.203100
C531	C53	0.519800	0.021300	0.561000
C541	C54	0.044600	0.020170	0.462300
C551	C55	0.952300	0.150770	0.527600
C561	C56	0.937600	0.176240	0.382600
