data_NARNUS_clean_PM
_symmetry_space_group_name_H-M	'P1'
_cell_length_a	9.405600
_cell_length_b	22.315200
_cell_length_c	10.082000
_cell_angle_alpha	90.000000
_cell_angle_beta	102.960000
_cell_angle_gamma	90.000000
_symmetry_Int_Tables_number 1

loop_
_symmetry_equiv_pos_as_xyz
'x,y,z'

loop_
_atom_site_label
_atom_site_type_symbol
_atom_site_fract_x
_atom_site_fract_y
_atom_site_fract_z
Er11	Er1	0.247870	0.276130	0.052560
Er21	Er2	0.717570	0.433950	0.863110
N11	N1	0.599800	0.415160	0.629700
N21	N2	0.532900	0.412620	0.407200
H11	H1	0.518670	0.422170	0.322730
N31	N3	0.776600	0.508500	0.650500
O11	O1	0.066400	0.336520	0.114300
O21	O2	0.029400	0.285740	0.870800
O31	O3	0.827300	0.341050	0.798400
O41	O4	0.849900	0.380930	0.052200
O51	O5	0.523300	0.360420	0.826800
O61	O6	0.601900	0.436300	0.053900
O71	O7	0.380100	0.294780	0.697700
O81	O8	0.273100	0.292580	0.396600
O91	O9	0.364600	0.334890	0.233600
O101	O10	0.468900	0.492160	0.163000
O111	O11	0.974300	0.446710	0.870800
O121	O12	0.180900	0.482360	0.001000
C11	C1	0.453700	0.368200	0.453400
C21	C2	0.499100	0.370500	0.594400
C31	C3	0.618700	0.440000	0.516100
C41	C4	0.722800	0.489200	0.521100
C51	C5	0.765100	0.512000	0.407700
H21	H2	0.729120	0.496060	0.321480
C61	C6	0.863600	0.559800	0.427700
H31	H3	0.893760	0.577350	0.354970
C71	C7	0.914900	0.580200	0.559600
H41	H4	0.979280	0.612380	0.576010
C81	C8	0.871700	0.553500	0.664900
H51	H5	0.910800	0.567470	0.752390
C91	C9	0.355800	0.328800	0.354700
C101	C10	0.463300	0.338500	0.710400
C111	C11	0.520600	0.479300	0.063400
C121	C12	0.044400	0.479600	0.961300
C131	C13	0.951800	0.348200	0.031100
C141	C14	0.933300	0.322900	0.885700
Er31	Er3	0.752130	0.776130	0.447440
Er41	Er4	0.282430	0.933950	0.636890
N41	N4	0.400200	0.915160	0.870300
N51	N5	0.467100	0.912620	0.092800
H61	H6	0.481330	0.922170	0.177270
N61	N6	0.223400	0.008500	0.849500
O131	O13	0.933600	0.836520	0.385700
O141	O14	0.970600	0.785740	0.629200
O151	O15	0.172700	0.841050	0.701600
O161	O16	0.150100	0.880930	0.447800
O171	O17	0.476700	0.860420	0.673200
O181	O18	0.398100	0.936300	0.446100
O191	O19	0.619900	0.794780	0.802300
O201	O20	0.726900	0.792580	0.103400
O211	O21	0.635400	0.834890	0.266400
O221	O22	0.531100	0.992160	0.337000
O231	O23	0.025700	0.946710	0.629200
O241	O24	0.819100	0.982360	0.499000
C151	C15	0.546300	0.868200	0.046600
C161	C16	0.500900	0.870500	0.905600
C171	C17	0.381300	0.940000	0.983900
C181	C18	0.277200	0.989200	0.978900
C191	C19	0.234900	0.012000	0.092300
H71	H7	0.270880	0.996060	0.178520
C201	C20	0.136400	0.059800	0.072300
H81	H8	0.106240	0.077350	0.145030
C211	C21	0.085100	0.080200	0.940400
H91	H9	0.020720	0.112380	0.923990
C221	C22	0.128300	0.053500	0.835100
H101	H10	0.089200	0.067470	0.747610
C231	C23	0.644200	0.828800	0.145300
C241	C24	0.536700	0.838500	0.789600
C251	C25	0.479400	0.979300	0.436600
C261	C26	0.955600	0.979600	0.538700
C271	C27	0.048200	0.848200	0.468900
C281	C28	0.066700	0.822900	0.614300
Er51	Er5	0.752130	0.723870	0.947440
Er61	Er6	0.282430	0.566050	0.136890
N71	N7	0.400200	0.584840	0.370300
N81	N8	0.467100	0.587380	0.592800
H111	H11	0.481330	0.577830	0.677270
N91	N9	0.223400	0.491500	0.349500
O251	O25	0.933600	0.663480	0.885700
O261	O26	0.970600	0.714260	0.129200
O271	O27	0.172700	0.658950	0.201600
O281	O28	0.150100	0.619070	0.947800
O291	O29	0.476700	0.639580	0.173200
O301	O30	0.398100	0.563700	0.946100
O311	O31	0.619900	0.705220	0.302300
O321	O32	0.726900	0.707420	0.603400
O331	O33	0.635400	0.665110	0.766400
O341	O34	0.531100	0.507840	0.837000
O351	O35	0.025700	0.553290	0.129200
O361	O36	0.819100	0.517640	0.999000
C291	C29	0.546300	0.631800	0.546600
C301	C30	0.500900	0.629500	0.405600
C311	C31	0.381300	0.560000	0.483900
C321	C32	0.277200	0.510800	0.478900
C331	C33	0.234900	0.488000	0.592300
H121	H12	0.270880	0.503940	0.678520
C341	C34	0.136400	0.440200	0.572300
H131	H13	0.106240	0.422650	0.645030
C351	C35	0.085100	0.419800	0.440400
H141	H14	0.020720	0.387620	0.423990
C361	C36	0.128300	0.446500	0.335100
H151	H15	0.089200	0.432530	0.247610
C371	C37	0.644200	0.671200	0.645300
C381	C38	0.536700	0.661500	0.289600
C391	C39	0.479400	0.520700	0.936600
C401	C40	0.955600	0.520400	0.038700
C411	C41	0.048200	0.651800	0.968900
C421	C42	0.066700	0.677100	0.114300
Er71	Er7	0.247870	0.223870	0.552560
Er81	Er8	0.717570	0.066050	0.363110
N101	N10	0.599800	0.084840	0.129700
N111	N11	0.532900	0.087380	0.907200
H161	H16	0.518670	0.077830	0.822730
N121	N12	0.776600	0.991500	0.150500
O371	O37	0.066400	0.163480	0.614300
O381	O38	0.029400	0.214260	0.370800
O391	O39	0.827300	0.158950	0.298400
O401	O40	0.849900	0.119070	0.552200
O411	O41	0.523300	0.139580	0.326800
O421	O42	0.601900	0.063700	0.553900
O431	O43	0.380100	0.205220	0.197700
O441	O44	0.273100	0.207420	0.896600
O451	O45	0.364600	0.165110	0.733600
O461	O46	0.468900	0.007840	0.663000
O471	O47	0.974300	0.053290	0.370800
O481	O48	0.180900	0.017640	0.501000
C431	C43	0.453700	0.131800	0.953400
C441	C44	0.499100	0.129500	0.094400
C451	C45	0.618700	0.060000	0.016100
C461	C46	0.722800	0.010800	0.021100
C471	C47	0.765100	0.988000	0.907700
H171	H17	0.729120	0.003940	0.821480
C481	C48	0.863600	0.940200	0.927700
H181	H18	0.893760	0.922650	0.854970
C491	C49	0.914900	0.919800	0.059600
H191	H19	0.979280	0.887620	0.076010
C501	C50	0.871700	0.946500	0.164900
H201	H20	0.910800	0.932530	0.252390
C511	C51	0.355800	0.171200	0.854700
C521	C52	0.463300	0.161500	0.210400
C531	C53	0.520600	0.020700	0.563400
C541	C54	0.044400	0.020400	0.461300
C551	C55	0.951800	0.151800	0.531100
C561	C56	0.933300	0.177100	0.385700
