data_NARNOM_clean_PM
_symmetry_space_group_name_H-M	'P1'
_cell_length_a	9.429900
_cell_length_b	22.327200
_cell_length_c	10.087400
_cell_angle_alpha	90.000000
_cell_angle_beta	102.817000
_cell_angle_gamma	90.000000
_symmetry_Int_Tables_number 1

loop_
_symmetry_equiv_pos_as_xyz
'x,y,z'

loop_
_atom_site_label
_atom_site_type_symbol
_atom_site_fract_x
_atom_site_fract_y
_atom_site_fract_z
Ho11	Ho1	0.248160	0.276300	0.051360
Ho21	Ho2	0.717830	0.434110	0.861870
N11	N1	0.599400	0.415010	0.628800
N21	N2	0.533000	0.413110	0.406800
H11	H1	0.510860	0.425730	0.325140
N31	N3	0.776000	0.507960	0.649300
O11	O1	0.066800	0.336870	0.113000
O21	O2	0.030300	0.286090	0.869800
O31	O3	0.827600	0.341130	0.797500
O41	O4	0.849800	0.380770	0.051000
O51	O5	0.523400	0.360420	0.824600
O61	O6	0.379900	0.294850	0.696400
O71	O7	0.601700	0.436350	0.052600
O81	O8	0.274000	0.293050	0.395400
O91	O9	0.365900	0.335490	0.232800
O101	O10	0.468200	0.491630	0.163200
O111	O11	0.974800	0.447470	0.870400
O121	O12	0.180200	0.482000	0.001600
C11	C1	0.454800	0.368510	0.452300
C21	C2	0.498100	0.370540	0.592800
C31	C3	0.619000	0.439760	0.514800
C41	C4	0.722100	0.489060	0.519700
C51	C5	0.763200	0.512200	0.406800
H21	H2	0.726220	0.496870	0.320370
C61	C6	0.863100	0.559800	0.427600
H31	H3	0.893770	0.577080	0.354830
C71	C7	0.914400	0.580400	0.557900
H41	H4	0.978480	0.612590	0.573950
C81	C8	0.870800	0.553400	0.663800
H51	H5	0.909380	0.567410	0.751160
C91	C9	0.357000	0.329100	0.353700
C101	C10	0.463100	0.338270	0.709200
C111	C11	0.520300	0.479130	0.062000
C121	C12	0.044200	0.479670	0.962000
C131	C13	0.952300	0.348870	0.030400
C141	C14	0.934200	0.322790	0.885500
Ho31	Ho3	0.751840	0.776300	0.448640
Ho41	Ho4	0.282170	0.934110	0.638130
N41	N4	0.400600	0.915010	0.871200
N51	N5	0.467000	0.913110	0.093200
H61	H6	0.489140	0.925730	0.174860
N61	N6	0.224000	0.007960	0.850700
O131	O13	0.933200	0.836870	0.387000
O141	O14	0.969700	0.786090	0.630200
O151	O15	0.172400	0.841130	0.702500
O161	O16	0.150200	0.880770	0.449000
O171	O17	0.476600	0.860420	0.675400
O181	O18	0.620100	0.794850	0.803600
O191	O19	0.398300	0.936350	0.447400
O201	O20	0.726000	0.793050	0.104600
O211	O21	0.634100	0.835490	0.267200
O221	O22	0.531800	0.991630	0.336800
O231	O23	0.025200	0.947470	0.629600
O241	O24	0.819800	0.982000	0.498400
C151	C15	0.545200	0.868510	0.047700
C161	C16	0.501900	0.870540	0.907200
C171	C17	0.381000	0.939760	0.985200
C181	C18	0.277900	0.989060	0.980300
C191	C19	0.236800	0.012200	0.093200
H71	H7	0.273780	0.996870	0.179630
C201	C20	0.136900	0.059800	0.072400
H81	H8	0.106230	0.077080	0.145170
C211	C21	0.085600	0.080400	0.942100
H91	H9	0.021520	0.112590	0.926050
C221	C22	0.129200	0.053400	0.836200
H101	H10	0.090620	0.067410	0.748840
C231	C23	0.643000	0.829100	0.146300
C241	C24	0.536900	0.838270	0.790800
C251	C25	0.479700	0.979130	0.438000
C261	C26	0.955800	0.979670	0.538000
C271	C27	0.047700	0.848870	0.469600
C281	C28	0.065800	0.822790	0.614500
Ho51	Ho5	0.751840	0.723700	0.948640
Ho61	Ho6	0.282170	0.565890	0.138130
N71	N7	0.400600	0.584990	0.371200
N81	N8	0.467000	0.586890	0.593200
H111	H11	0.489140	0.574270	0.674860
N91	N9	0.224000	0.492040	0.350700
O251	O25	0.933200	0.663130	0.887000
O261	O26	0.969700	0.713910	0.130200
O271	O27	0.172400	0.658870	0.202500
O281	O28	0.150200	0.619230	0.949000
O291	O29	0.476600	0.639580	0.175400
O301	O30	0.620100	0.705150	0.303600
O311	O31	0.398300	0.563650	0.947400
O321	O32	0.726000	0.706950	0.604600
O331	O33	0.634100	0.664510	0.767200
O341	O34	0.531800	0.508370	0.836800
O351	O35	0.025200	0.552530	0.129600
O361	O36	0.819800	0.518000	0.998400
C291	C29	0.545200	0.631490	0.547700
C301	C30	0.501900	0.629460	0.407200
C311	C31	0.381000	0.560240	0.485200
C321	C32	0.277900	0.510940	0.480300
C331	C33	0.236800	0.487800	0.593200
H121	H12	0.273780	0.503130	0.679630
C341	C34	0.136900	0.440200	0.572400
H131	H13	0.106230	0.422920	0.645170
C351	C35	0.085600	0.419600	0.442100
H141	H14	0.021520	0.387410	0.426050
C361	C36	0.129200	0.446600	0.336200
H151	H15	0.090620	0.432590	0.248840
C371	C37	0.643000	0.670900	0.646300
C381	C38	0.536900	0.661730	0.290800
C391	C39	0.479700	0.520870	0.938000
C401	C40	0.955800	0.520330	0.038000
C411	C41	0.047700	0.651130	0.969600
C421	C42	0.065800	0.677210	0.114500
Ho71	Ho7	0.248160	0.223700	0.551360
Ho81	Ho8	0.717830	0.065890	0.361870
N101	N10	0.599400	0.084990	0.128800
N111	N11	0.533000	0.086890	0.906800
H161	H16	0.510860	0.074270	0.825140
N121	N12	0.776000	0.992040	0.149300
O371	O37	0.066800	0.163130	0.613000
O381	O38	0.030300	0.213910	0.369800
O391	O39	0.827600	0.158870	0.297500
O401	O40	0.849800	0.119230	0.551000
O411	O41	0.523400	0.139580	0.324600
O421	O42	0.379900	0.205150	0.196400
O431	O43	0.601700	0.063650	0.552600
O441	O44	0.274000	0.206950	0.895400
O451	O45	0.365900	0.164510	0.732800
O461	O46	0.468200	0.008370	0.663200
O471	O47	0.974800	0.052530	0.370400
O481	O48	0.180200	0.018000	0.501600
C431	C43	0.454800	0.131490	0.952300
C441	C44	0.498100	0.129460	0.092800
C451	C45	0.619000	0.060240	0.014800
C461	C46	0.722100	0.010940	0.019700
C471	C47	0.763200	0.987800	0.906800
H171	H17	0.726220	0.003130	0.820370
C481	C48	0.863100	0.940200	0.927600
H181	H18	0.893770	0.922920	0.854830
C491	C49	0.914400	0.919600	0.057900
H191	H19	0.978480	0.887410	0.073950
C501	C50	0.870800	0.946600	0.163800
H201	H20	0.909380	0.932590	0.251160
C511	C51	0.357000	0.170900	0.853700
C521	C52	0.463100	0.161730	0.209200
C531	C53	0.520300	0.020870	0.562000
C541	C54	0.044200	0.020330	0.462000
C551	C55	0.952300	0.151130	0.530400
C561	C56	0.934200	0.177210	0.385500
