data_NARPAA_clean_PM
_symmetry_space_group_name_H-M	'P1'
_cell_length_a	9.526100
_cell_length_b	22.472900
_cell_length_c	10.121600
_cell_angle_alpha	90.000000
_cell_angle_beta	102.263000
_cell_angle_gamma	90.000000
_symmetry_Int_Tables_number 1

loop_
_symmetry_equiv_pos_as_xyz
'x,y,z'

loop_
_atom_site_label
_atom_site_type_symbol
_atom_site_fract_x
_atom_site_fract_y
_atom_site_fract_z
Gd11	Gd1	0.718950	0.434540	0.858460
Gd21	Gd2	0.249230	0.276790	0.048430
N11	N1	0.599100	0.414800	0.623900
N21	N2	0.533400	0.413730	0.403900
H11	H1	0.491620	0.410470	0.319940
N31	N3	0.774500	0.507300	0.645400
O11	O1	0.065600	0.337870	0.110200
O21	O2	0.031700	0.287400	0.867200
O31	O3	0.831300	0.341370	0.795700
O41	O4	0.849400	0.380330	0.049400
O51	O5	0.522900	0.360230	0.819700
O61	O6	0.379700	0.295740	0.692000
O71	O7	0.277000	0.294240	0.391000
O81	O8	0.367500	0.337450	0.229800
O91	O9	0.600900	0.436410	0.050500
O101	O10	0.468800	0.490880	0.163200
O111	O11	0.976800	0.448610	0.868800
O121	O12	0.178200	0.481160	0.003200
C11	C1	0.455300	0.369230	0.449200
C21	C2	0.498800	0.370950	0.588400
C31	C3	0.617400	0.439970	0.510900
C41	C4	0.721900	0.488520	0.516900
C51	C5	0.761600	0.512900	0.404800
H21	H2	0.723760	0.498450	0.318510
C61	C6	0.860300	0.559800	0.424900
H31	H3	0.890430	0.577240	0.352410
C71	C7	0.911400	0.579400	0.554900
H41	H4	0.975650	0.611080	0.570930
C81	C8	0.868100	0.552400	0.661000
H51	H5	0.905590	0.566130	0.748000
C91	C9	0.358500	0.330580	0.350600
C101	C10	0.462800	0.338650	0.705400
C111	C11	0.519800	0.479090	0.061800
C121	C12	0.044600	0.479440	0.962300
C131	C13	0.952300	0.349390	0.027300
C141	C14	0.935900	0.323590	0.883900
Gd31	Gd3	0.281050	0.934540	0.641540
Gd41	Gd4	0.750770	0.776790	0.451570
N41	N4	0.400900	0.914800	0.876100
N51	N5	0.466600	0.913730	0.096100
H61	H6	0.508380	0.910470	0.180060
N61	N6	0.225500	0.007300	0.854600
O131	O13	0.934400	0.837870	0.389800
O141	O14	0.968300	0.787400	0.632800
O151	O15	0.168700	0.841370	0.704300
O161	O16	0.150600	0.880330	0.450600
O171	O17	0.477100	0.860230	0.680300
O181	O18	0.620300	0.795740	0.808000
O191	O19	0.723000	0.794240	0.109000
O201	O20	0.632500	0.837450	0.270200
O211	O21	0.399100	0.936410	0.449500
O221	O22	0.531200	0.990880	0.336800
O231	O23	0.023200	0.948610	0.631200
O241	O24	0.821800	0.981160	0.496800
C151	C15	0.544700	0.869230	0.050800
C161	C16	0.501200	0.870950	0.911600
C171	C17	0.382600	0.939970	0.989100
C181	C18	0.278100	0.988520	0.983100
C191	C19	0.238400	0.012900	0.095200
H71	H7	0.276240	0.998450	0.181490
C201	C20	0.139700	0.059800	0.075100
H81	H8	0.109570	0.077240	0.147590
C211	C21	0.088600	0.079400	0.945100
H91	H9	0.024350	0.111080	0.929070
C221	C22	0.131900	0.052400	0.839000
H101	H10	0.094410	0.066130	0.752000
C231	C23	0.641500	0.830580	0.149400
C241	C24	0.537200	0.838650	0.794600
C251	C25	0.480200	0.979090	0.438200
C261	C26	0.955400	0.979440	0.537700
C271	C27	0.047700	0.849390	0.472700
C281	C28	0.064100	0.823590	0.616100
Gd51	Gd5	0.281050	0.565460	0.141540
Gd61	Gd6	0.750770	0.723210	0.951570
N71	N7	0.400900	0.585200	0.376100
N81	N8	0.466600	0.586270	0.596100
H111	H11	0.508380	0.589530	0.680060
N91	N9	0.225500	0.492700	0.354600
O251	O25	0.934400	0.662130	0.889800
O261	O26	0.968300	0.712600	0.132800
O271	O27	0.168700	0.658630	0.204300
O281	O28	0.150600	0.619670	0.950600
O291	O29	0.477100	0.639770	0.180300
O301	O30	0.620300	0.704260	0.308000
O311	O31	0.723000	0.705760	0.609000
O321	O32	0.632500	0.662550	0.770200
O331	O33	0.399100	0.563590	0.949500
O341	O34	0.531200	0.509120	0.836800
O351	O35	0.023200	0.551390	0.131200
O361	O36	0.821800	0.518840	0.996800
C291	C29	0.544700	0.630770	0.550800
C301	C30	0.501200	0.629050	0.411600
C311	C31	0.382600	0.560030	0.489100
C321	C32	0.278100	0.511480	0.483100
C331	C33	0.238400	0.487100	0.595200
H121	H12	0.276240	0.501550	0.681490
C341	C34	0.139700	0.440200	0.575100
H131	H13	0.109570	0.422760	0.647590
C351	C35	0.088600	0.420600	0.445100
H141	H14	0.024350	0.388920	0.429070
C361	C36	0.131900	0.447600	0.339000
H151	H15	0.094410	0.433870	0.252000
C371	C37	0.641500	0.669420	0.649400
C381	C38	0.537200	0.661350	0.294600
C391	C39	0.480200	0.520910	0.938200
C401	C40	0.955400	0.520560	0.037700
C411	C41	0.047700	0.650610	0.972700
C421	C42	0.064100	0.676410	0.116100
Gd71	Gd7	0.718950	0.065460	0.358460
Gd81	Gd8	0.249230	0.223210	0.548430
N101	N10	0.599100	0.085200	0.123900
N111	N11	0.533400	0.086270	0.903900
H161	H16	0.491620	0.089530	0.819940
N121	N12	0.774500	0.992700	0.145400
O371	O37	0.065600	0.162130	0.610200
O381	O38	0.031700	0.212600	0.367200
O391	O39	0.831300	0.158630	0.295700
O401	O40	0.849400	0.119670	0.549400
O411	O41	0.522900	0.139770	0.319700
O421	O42	0.379700	0.204260	0.192000
O431	O43	0.277000	0.205760	0.891000
O441	O44	0.367500	0.162550	0.729800
O451	O45	0.600900	0.063590	0.550500
O461	O46	0.468800	0.009120	0.663200
O471	O47	0.976800	0.051390	0.368800
O481	O48	0.178200	0.018840	0.503200
C431	C43	0.455300	0.130770	0.949200
C441	C44	0.498800	0.129050	0.088400
C451	C45	0.617400	0.060030	0.010900
C461	C46	0.721900	0.011480	0.016900
C471	C47	0.761600	0.987100	0.904800
H171	H17	0.723760	0.001550	0.818510
C481	C48	0.860300	0.940200	0.924900
H181	H18	0.890430	0.922760	0.852410
C491	C49	0.911400	0.920600	0.054900
H191	H19	0.975650	0.888920	0.070930
C501	C50	0.868100	0.947600	0.161000
H201	H20	0.905590	0.933870	0.248000
C511	C51	0.358500	0.169420	0.850600
C521	C52	0.462800	0.161350	0.205400
C531	C53	0.519800	0.020910	0.561800
C541	C54	0.044600	0.020560	0.462300
C551	C55	0.952300	0.150610	0.527300
C561	C56	0.935900	0.176410	0.383900
