data_NARVUA_clean_PM
_symmetry_space_group_name_H-M	'P1'
_cell_length_a	9.594000
_cell_length_b	22.789000
_cell_length_c	10.146000
_cell_angle_alpha	90.000000
_cell_angle_beta	101.320000
_cell_angle_gamma	90.000000
_symmetry_Int_Tables_number 1

loop_
_symmetry_equiv_pos_as_xyz
'x,y,z'

loop_
_atom_site_label
_atom_site_type_symbol
_atom_site_fract_x
_atom_site_fract_y
_atom_site_fract_z
Nd11	Nd1	0.254640	0.277970	0.039100
Nd21	Nd2	0.719970	0.435370	0.851840
N11	N1	0.597600	0.415770	0.615600
N21	N2	0.533900	0.415650	0.395300
H11	H1	0.519800	0.427500	0.313400
N31	N3	0.772000	0.507230	0.638400
O11	O1	0.068000	0.340140	0.101300
O21	O2	0.038300	0.290700	0.856700
O31	O3	0.837000	0.342880	0.787100
O41	O4	0.849500	0.378930	0.043700
O51	O5	0.522300	0.360280	0.811700
O61	O6	0.378800	0.296980	0.683300
O71	O7	0.282200	0.296210	0.381500
O81	O8	0.374000	0.340380	0.221600
O91	O9	0.598000	0.436090	0.045100
O101	O10	0.470900	0.489920	0.164200
O111	O11	0.980100	0.450670	0.865800
O121	O12	0.178200	0.480150	0.006600
C11	C1	0.457100	0.371230	0.442000
C21	C2	0.498300	0.372180	0.580300
C31	C3	0.617500	0.441250	0.503700
C41	C4	0.719500	0.489640	0.509800
C51	C5	0.760700	0.514670	0.398100
H21	H2	0.724100	0.500500	0.310100
C61	C6	0.857500	0.561320	0.419200
H31	H3	0.888100	0.579500	0.345500
C71	C7	0.907700	0.580430	0.549000
H41	H4	0.971800	0.612600	0.565300
C81	C8	0.864100	0.552370	0.655800
H51	H5	0.900800	0.565600	0.744600
C91	C9	0.363200	0.333020	0.341800
C101	C10	0.461700	0.339530	0.696300
C111	C11	0.520200	0.478360	0.060500
C121	C12	0.045200	0.479990	0.961700
C131	C13	0.954200	0.349820	0.020400
C141	C14	0.941000	0.325420	0.875000
Nd31	Nd3	0.745360	0.777970	0.460900
Nd41	Nd4	0.280030	0.935370	0.648160
N41	N4	0.402400	0.915770	0.884400
N51	N5	0.466100	0.915650	0.104700
H61	H6	0.480200	0.927500	0.186600
N61	N6	0.228000	0.007230	0.861600
O131	O13	0.932000	0.840140	0.398700
O141	O14	0.961700	0.790700	0.643300
O151	O15	0.163000	0.842880	0.712900
O161	O16	0.150500	0.878930	0.456300
O171	O17	0.477700	0.860280	0.688300
O181	O18	0.621200	0.796980	0.816700
O191	O19	0.717800	0.796210	0.118500
O201	O20	0.626000	0.840380	0.278400
O211	O21	0.402000	0.936090	0.454900
O221	O22	0.529100	0.989920	0.335800
O231	O23	0.019900	0.950670	0.634200
O241	O24	0.821800	0.980150	0.493400
C151	C15	0.542900	0.871230	0.058000
C161	C16	0.501700	0.872180	0.919700
C171	C17	0.382500	0.941250	0.996300
C181	C18	0.280500	0.989640	0.990200
C191	C19	0.239300	0.014670	0.101900
H71	H7	0.275900	0.000500	0.189900
C201	C20	0.142500	0.061320	0.080800
H81	H8	0.111900	0.079500	0.154500
C211	C21	0.092300	0.080430	0.951000
H91	H9	0.028200	0.112600	0.934700
C221	C22	0.135900	0.052370	0.844200
H101	H10	0.099200	0.065600	0.755400
C231	C23	0.636800	0.833020	0.158200
C241	C24	0.538300	0.839530	0.803700
C251	C25	0.479800	0.978360	0.439500
C261	C26	0.954800	0.979990	0.538300
C271	C27	0.045800	0.849820	0.479600
C281	C28	0.059000	0.825420	0.625000
Nd51	Nd5	0.745360	0.722030	0.960900
Nd61	Nd6	0.280030	0.564630	0.148160
N71	N7	0.402400	0.584230	0.384400
N81	N8	0.466100	0.584350	0.604700
H111	H11	0.480200	0.572500	0.686600
N91	N9	0.228000	0.492770	0.361600
O251	O25	0.932000	0.659860	0.898700
O261	O26	0.961700	0.709300	0.143300
O271	O27	0.163000	0.657120	0.212900
O281	O28	0.150500	0.621070	0.956300
O291	O29	0.477700	0.639720	0.188300
O301	O30	0.621200	0.703020	0.316700
O311	O31	0.717800	0.703790	0.618500
O321	O32	0.626000	0.659620	0.778400
O331	O33	0.402000	0.563910	0.954900
O341	O34	0.529100	0.510080	0.835800
O351	O35	0.019900	0.549330	0.134200
O361	O36	0.821800	0.519850	0.993400
C291	C29	0.542900	0.628770	0.558000
C301	C30	0.501700	0.627820	0.419700
C311	C31	0.382500	0.558750	0.496300
C321	C32	0.280500	0.510360	0.490200
C331	C33	0.239300	0.485330	0.601900
H121	H12	0.275900	0.499500	0.689900
C341	C34	0.142500	0.438680	0.580800
H131	H13	0.111900	0.420500	0.654500
C351	C35	0.092300	0.419570	0.451000
H141	H14	0.028200	0.387400	0.434700
C361	C36	0.135900	0.447630	0.344200
H151	H15	0.099200	0.434400	0.255400
C371	C37	0.636800	0.666980	0.658200
C381	C38	0.538300	0.660470	0.303700
C391	C39	0.479800	0.521640	0.939500
C401	C40	0.954800	0.520010	0.038300
C411	C41	0.045800	0.650180	0.979600
C421	C42	0.059000	0.674580	0.125000
Nd71	Nd7	0.254640	0.222030	0.539100
Nd81	Nd8	0.719970	0.064630	0.351840
N101	N10	0.597600	0.084230	0.115600
N111	N11	0.533900	0.084350	0.895300
H161	H16	0.519800	0.072500	0.813400
N121	N12	0.772000	0.992770	0.138400
O371	O37	0.068000	0.159860	0.601300
O381	O38	0.038300	0.209300	0.356700
O391	O39	0.837000	0.157120	0.287100
O401	O40	0.849500	0.121070	0.543700
O411	O41	0.522300	0.139720	0.311700
O421	O42	0.378800	0.203020	0.183300
O431	O43	0.282200	0.203790	0.881500
O441	O44	0.374000	0.159620	0.721600
O451	O45	0.598000	0.063910	0.545100
O461	O46	0.470900	0.010080	0.664200
O471	O47	0.980100	0.049330	0.365800
O481	O48	0.178200	0.019850	0.506600
C431	C43	0.457100	0.128770	0.942000
C441	C44	0.498300	0.127820	0.080300
C451	C45	0.617500	0.058750	0.003700
C461	C46	0.719500	0.010360	0.009800
C471	C47	0.760700	0.985330	0.898100
H171	H17	0.724100	0.999500	0.810100
C481	C48	0.857500	0.938680	0.919200
H181	H18	0.888100	0.920500	0.845500
C491	C49	0.907700	0.919570	0.049000
H191	H19	0.971800	0.887400	0.065300
C501	C50	0.864100	0.947630	0.155800
H201	H20	0.900800	0.934400	0.244600
C511	C51	0.363200	0.166980	0.841800
C521	C52	0.461700	0.160470	0.196300
C531	C53	0.520200	0.021640	0.560500
C541	C54	0.045200	0.020010	0.461700
C551	C55	0.954200	0.150180	0.520400
C561	C56	0.941000	0.174580	0.375000
