data_NASMIF_clean_PM
_symmetry_space_group_name_H-M	'P1'
_cell_length_a	10.148000
_cell_length_b	10.884500
_cell_length_c	13.826100
_cell_angle_alpha	78.760000
_cell_angle_beta	79.305000
_cell_angle_gamma	86.222000
_symmetry_Int_Tables_number 1

loop_
_symmetry_equiv_pos_as_xyz
'x,y,z'

loop_
_atom_site_label
_atom_site_type_symbol
_atom_site_fract_x
_atom_site_fract_y
_atom_site_fract_z
Gd11	Gd1	0.679550	0.076830	0.203740
Gd21	Gd2	0.320450	0.923170	0.796260
Mn11	Mn1	0.000000	0.500000	0.000000
H11	H1	0.652800	0.668900	0.422500
H21	H2	0.671800	0.330600	0.347300
H31	H3	0.715900	0.639700	0.132800
H41	H4	0.644400	0.544300	0.753900
H51	H5	0.634300	0.427500	0.911100
H61	H6	0.648100	0.118500	0.809000
H71	H7	0.654900	0.225600	0.649300
H81	H8	0.174900	0.085600	0.219400
H91	H9	0.913100	0.158800	0.458600
H101	H10	0.306600	0.148500	0.461400
H111	H11	0.989900	0.519200	0.626400
H121	H12	0.982800	0.587800	0.772600
H131	H13	0.969100	0.247600	0.923900
H141	H14	0.987000	0.167300	0.780200
H151	H15	0.621000	0.353800	0.517000
H161	H16	0.124200	0.158400	0.615700
H171	H17	0.347200	0.331100	0.577500
H181	H18	0.328200	0.669400	0.652700
H191	H19	0.284100	0.360300	0.867200
H201	H20	0.355600	0.455700	0.246100
H211	H21	0.365700	0.572500	0.088900
H221	H22	0.351900	0.881500	0.191000
H231	H23	0.345100	0.774400	0.350700
H241	H24	0.825100	0.914400	0.780600
H251	H25	0.086900	0.841200	0.541400
H261	H26	0.693400	0.851500	0.538600
H271	H27	0.010100	0.480800	0.373600
H281	H28	0.017200	0.412200	0.227400
H291	H29	0.030900	0.752400	0.076100
H301	H30	0.013000	0.832700	0.219800
H311	H31	0.379000	0.646200	0.483000
H321	H32	0.875800	0.841600	0.384300
C11	C1	0.686100	0.813400	0.247200
C21	C2	0.683400	0.674500	0.273200
C31	C3	0.664600	0.619200	0.373800
C41	C4	0.663100	0.490000	0.401800
C51	C5	0.677200	0.417200	0.328700
C61	C6	0.699300	0.472200	0.227600
C71	C7	0.701800	0.602000	0.200200
C81	C8	0.729000	0.394500	0.148200
C91	C9	0.666800	0.481100	0.579900
C101	C10	0.653000	0.398900	0.682000
C111	C11	0.645400	0.457300	0.763100
C121	C12	0.639400	0.386500	0.857400
C131	C13	0.647000	0.205600	0.797600
C141	C14	0.652100	0.269100	0.701300
C151	C15	0.405500	0.097700	0.284800
C161	C16	0.262300	0.113400	0.332100
C171	C17	0.157900	0.102800	0.284000
C181	C18	0.026200	0.118000	0.332500
C191	C19	0.001000	0.147800	0.426900
C201	C20	0.106000	0.161400	0.474300
C211	C21	0.236000	0.142200	0.428400
C221	C22	0.908500	0.106300	0.283900
C231	C23	0.995900	0.292600	0.589300
C241	C24	0.991900	0.334900	0.686600
C251	C25	0.988500	0.461800	0.686000
C261	C26	0.983100	0.502000	0.774200
C271	C27	0.976600	0.302800	0.862700
C281	C28	0.985400	0.253500	0.777000
C291	C29	0.313900	0.186600	0.752800
C301	C30	0.316600	0.325500	0.726800
C311	C31	0.335400	0.380800	0.626200
C321	C32	0.336900	0.510000	0.598200
C331	C33	0.322800	0.582800	0.671300
C341	C34	0.300700	0.527800	0.772400
C351	C35	0.298200	0.398000	0.799800
C361	C36	0.271000	0.605500	0.851800
C371	C37	0.333200	0.518900	0.420100
C381	C38	0.347000	0.601100	0.318000
C391	C39	0.354600	0.542700	0.236900
C401	C40	0.360600	0.613500	0.142600
C411	C41	0.353000	0.794400	0.202400
C421	C42	0.347900	0.730900	0.298700
C431	C43	0.594500	0.902300	0.715200
C441	C44	0.737700	0.886600	0.667900
C451	C45	0.842100	0.897200	0.716000
C461	C46	0.973800	0.882000	0.667500
C471	C47	0.999000	0.852200	0.573100
C481	C48	0.894000	0.838600	0.525700
C491	C49	0.764000	0.857800	0.571600
C501	C50	0.091500	0.893700	0.716100
C511	C51	0.004100	0.707400	0.410700
C521	C52	0.008100	0.665100	0.313400
C531	C53	0.011500	0.538200	0.314000
C541	C54	0.016900	0.498000	0.225800
C551	C55	0.023400	0.697200	0.137300
C561	C56	0.014600	0.746500	0.223000
N11	N1	0.646500	0.430000	0.503100
N21	N2	0.640600	0.261100	0.875700
N31	N3	0.082300	0.197800	0.569600
N41	N4	0.978100	0.425000	0.862800
N51	N5	0.353500	0.570000	0.496900
N61	N6	0.359400	0.738900	0.124300
N71	N7	0.917700	0.802200	0.430400
N81	N8	0.021900	0.575000	0.137200
O11	O1	0.672900	0.869500	0.161100
O21	O2	0.704100	0.874900	0.310700
O31	O3	0.800500	0.437400	0.066900
O41	O4	0.678400	0.287600	0.167000
O51	O5	0.694400	0.589100	0.571000
O61	O6	0.438600	0.097400	0.192400
O71	O7	0.496000	0.085800	0.337300
O81	O8	0.925300	0.093200	0.192900
O91	O9	0.792100	0.111200	0.333700
O101	O10	0.924500	0.347500	0.530600
O111	O11	0.327100	0.130500	0.838900
O121	O12	0.295900	0.125100	0.689300
O131	O13	0.199500	0.562600	0.933100
O141	O14	0.321600	0.712400	0.833000
O151	O15	0.305600	0.410900	0.429000
O161	O16	0.561400	0.902600	0.807600
O171	O17	0.504000	0.914200	0.662700
O181	O18	0.074700	0.906800	0.807100
O191	O19	0.207900	0.888800	0.666300
O201	O20	0.075500	0.652500	0.469400
