data_NASRIL_clean_PM
_symmetry_space_group_name_H-M	'P1'
_cell_length_a	14.943600
_cell_length_b	28.446100
_cell_length_c	10.740700
_cell_angle_alpha	90.000000
_cell_angle_beta	90.000000
_cell_angle_gamma	90.000000
_symmetry_Int_Tables_number 1

loop_
_symmetry_equiv_pos_as_xyz
'x,y,z'

loop_
_atom_site_label
_atom_site_type_symbol
_atom_site_fract_x
_atom_site_fract_y
_atom_site_fract_z
O11	O1	0.909700	0.434840	0.492400
O21	O2	0.907300	0.490510	0.348000
C11	C1	0.813000	0.425500	0.320700
C21	C2	0.882700	0.452600	0.391500
C31	C3	0.695600	0.275000	0.330600
C41	C4	0.811500	0.377000	0.322200
H11	H1	0.852800	0.360400	0.373100
C51	C5	0.635000	0.301700	0.419900
H21	H2	0.577900	0.308500	0.378800
H31	H3	0.663800	0.331200	0.444100
H41	H4	0.624300	0.282500	0.494200
O31	O3	0.409700	0.934840	0.992400
O41	O4	0.407300	0.990510	0.848000
C61	C6	0.313000	0.925500	0.820700
C71	C7	0.382700	0.952600	0.891500
C81	C8	0.195600	0.775000	0.830600
C91	C9	0.311500	0.877000	0.822200
H51	H5	0.352800	0.860400	0.873100
C101	C10	0.135000	0.801700	0.919900
H61	H6	0.077900	0.808500	0.878800
H71	H7	0.163800	0.831200	0.944100
H81	H8	0.124300	0.782500	0.994200
O51	O5	0.090300	0.065160	0.492400
O61	O6	0.092700	0.009490	0.348000
C111	C11	0.187000	0.074500	0.320700
C121	C12	0.117300	0.047400	0.391500
C131	C13	0.304400	0.225000	0.330600
C141	C14	0.188500	0.123000	0.322200
H91	H9	0.147200	0.139600	0.373100
C151	C15	0.365000	0.198300	0.419900
H101	H10	0.422100	0.191500	0.378800
H111	H11	0.336200	0.168800	0.444100
H121	H12	0.375700	0.217500	0.494200
O71	O7	0.590300	0.565160	0.992400
O81	O8	0.592700	0.509490	0.848000
C161	C16	0.687000	0.574500	0.820700
C171	C17	0.617300	0.547400	0.891500
C181	C18	0.804400	0.725000	0.830600
C191	C19	0.688500	0.623000	0.822200
H131	H13	0.647200	0.639600	0.873100
C201	C20	0.865000	0.698300	0.919900
H141	H14	0.922100	0.691500	0.878800
H151	H15	0.836200	0.668800	0.944100
H161	H16	0.875700	0.717500	0.994200
O91	O9	0.090300	0.934840	0.507600
O101	O10	0.092700	0.990510	0.652000
C211	C21	0.187000	0.925500	0.679300
C221	C22	0.117300	0.952600	0.608500
C231	C23	0.304400	0.775000	0.669400
C241	C24	0.188500	0.877000	0.677800
H171	H17	0.147200	0.860400	0.626900
C251	C25	0.365000	0.801700	0.580100
H181	H18	0.422100	0.808500	0.621200
H191	H19	0.336200	0.831200	0.555900
H201	H20	0.375700	0.782500	0.505800
O111	O11	0.590300	0.434840	0.007600
O121	O12	0.592700	0.490510	0.152000
C261	C26	0.687000	0.425500	0.179300
C271	C27	0.617300	0.452600	0.108500
C281	C28	0.804400	0.275000	0.169400
C291	C29	0.688500	0.377000	0.177800
H211	H21	0.647200	0.360400	0.126900
C301	C30	0.865000	0.301700	0.080100
H221	H22	0.922100	0.308500	0.121200
H231	H23	0.836200	0.331200	0.055900
H241	H24	0.875700	0.282500	0.005800
O131	O13	0.909700	0.565160	0.507600
O141	O14	0.907300	0.509490	0.652000
C311	C31	0.813000	0.574500	0.679300
C321	C32	0.882700	0.547400	0.608500
C331	C33	0.695600	0.725000	0.669400
C341	C34	0.811500	0.623000	0.677800
H251	H25	0.852800	0.639600	0.626900
C351	C35	0.635000	0.698300	0.580100
H261	H26	0.577900	0.691500	0.621200
H271	H27	0.663800	0.668800	0.555900
H281	H28	0.624300	0.717500	0.505800
O151	O15	0.409700	0.065160	0.007600
O161	O16	0.407300	0.009490	0.152000
C361	C36	0.313000	0.074500	0.179300
C371	C37	0.382700	0.047400	0.108500
C381	C38	0.195600	0.225000	0.169400
C391	C39	0.311500	0.123000	0.177800
H291	H29	0.352800	0.139600	0.126900
C401	C40	0.135000	0.198300	0.080100
H301	H30	0.077900	0.191500	0.121200
H311	H31	0.163800	0.168800	0.055900
H321	H32	0.124300	0.217500	0.005800
O171	O17	0.090300	0.565160	0.507600
O181	O18	0.092700	0.509490	0.652000
C411	C41	0.187000	0.574500	0.679300
C421	C42	0.117300	0.547400	0.608500
C431	C43	0.304400	0.725000	0.669400
C441	C44	0.188500	0.623000	0.677800
H331	H33	0.147200	0.639600	0.626900
C451	C45	0.365000	0.698300	0.580100
H341	H34	0.422100	0.691500	0.621200
H351	H35	0.336200	0.668800	0.555900
H361	H36	0.375700	0.717500	0.505800
O191	O19	0.590300	0.065160	0.007600
O201	O20	0.592700	0.009490	0.152000
C461	C46	0.687000	0.074500	0.179300
C471	C47	0.617300	0.047400	0.108500
C481	C48	0.804400	0.225000	0.169400
C491	C49	0.688500	0.123000	0.177800
H371	H37	0.647200	0.139600	0.126900
C501	C50	0.865000	0.198300	0.080100
H381	H38	0.922100	0.191500	0.121200
H391	H39	0.836200	0.168800	0.055900
H401	H40	0.875700	0.217500	0.005800
O211	O21	0.909700	0.934840	0.507600
O221	O22	0.907300	0.990510	0.652000
C511	C51	0.813000	0.925500	0.679300
C521	C52	0.882700	0.952600	0.608500
C531	C53	0.695600	0.775000	0.669400
C541	C54	0.811500	0.877000	0.677800
H411	H41	0.852800	0.860400	0.626900
C551	C55	0.635000	0.801700	0.580100
H421	H42	0.577900	0.808500	0.621200
H431	H43	0.663800	0.831200	0.555900
H441	H44	0.624300	0.782500	0.505800
O231	O23	0.409700	0.434840	0.007600
O241	O24	0.407300	0.490510	0.152000
C561	C56	0.313000	0.425500	0.179300
C571	C57	0.382700	0.452600	0.108500
C581	C58	0.195600	0.275000	0.169400
C591	C59	0.311500	0.377000	0.177800
H451	H45	0.352800	0.360400	0.126900
C601	C60	0.135000	0.301700	0.080100
H461	H46	0.077900	0.308500	0.121200
H471	H47	0.163800	0.331200	0.055900
H481	H48	0.124300	0.282500	0.005800
O251	O25	0.909700	0.065160	0.492400
O261	O26	0.907300	0.009490	0.348000
C611	C61	0.813000	0.074500	0.320700
C621	C62	0.882700	0.047400	0.391500
C631	C63	0.695600	0.225000	0.330600
C641	C64	0.811500	0.123000	0.322200
H491	H49	0.852800	0.139600	0.373100
C651	C65	0.635000	0.198300	0.419900
H501	H50	0.577900	0.191500	0.378800
H511	H51	0.663800	0.168800	0.444100
H521	H52	0.624300	0.217500	0.494200
O271	O27	0.409700	0.565160	0.992400
O281	O28	0.407300	0.509490	0.848000
C661	C66	0.313000	0.574500	0.820700
C671	C67	0.382700	0.547400	0.891500
C681	C68	0.195600	0.725000	0.830600
C691	C69	0.311500	0.623000	0.822200
H531	H53	0.352800	0.639600	0.873100
C701	C70	0.135000	0.698300	0.919900
H541	H54	0.077900	0.691500	0.878800
H551	H55	0.163800	0.668800	0.944100
H561	H56	0.124300	0.717500	0.994200
O291	O29	0.090300	0.434840	0.492400
O301	O30	0.092700	0.490510	0.348000
C711	C71	0.187000	0.425500	0.320700
C721	C72	0.117300	0.452600	0.391500
C731	C73	0.304400	0.275000	0.330600
C741	C74	0.188500	0.377000	0.322200
H571	H57	0.147200	0.360400	0.373100
C751	C75	0.365000	0.301700	0.419900
H581	H58	0.422100	0.308500	0.378800
H591	H59	0.336200	0.331200	0.444100
H601	H60	0.375700	0.282500	0.494200
O311	O31	0.590300	0.934840	0.992400
O321	O32	0.592700	0.990510	0.848000
C761	C76	0.687000	0.925500	0.820700
C771	C77	0.617300	0.952600	0.891500
C781	C78	0.804400	0.775000	0.830600
C791	C79	0.688500	0.877000	0.822200
H611	H61	0.647200	0.860400	0.873100
C801	C80	0.865000	0.801700	0.919900
H621	H62	0.922100	0.808500	0.878800
H631	H63	0.836200	0.831200	0.944100
H641	H64	0.875700	0.782500	0.994200
Cu11	Cu1	0.000000	0.467100	0.588930
Cu21	Cu2	0.500000	0.967100	0.088930
Cu31	Cu3	0.000000	0.032900	0.588930
Cu41	Cu4	0.500000	0.532900	0.088930
Cu51	Cu5	0.000000	0.967100	0.411070
Cu61	Cu6	0.500000	0.467100	0.911070
Cu71	Cu7	0.000000	0.532900	0.411070
Cu81	Cu8	0.500000	0.032900	0.911070
C811	C81	0.750000	0.351800	0.250000
C821	C82	0.750000	0.448700	0.250000
H651	H65	0.750000	0.482100	0.250000
C831	C83	0.750000	0.299200	0.250000
C841	C84	0.250000	0.148200	0.250000
C851	C85	0.250000	0.051300	0.250000
H661	H66	0.250000	0.017900	0.250000
C861	C86	0.250000	0.200800	0.250000
C871	C87	0.250000	0.851800	0.750000
C881	C88	0.250000	0.948700	0.750000
H671	H67	0.250000	0.982100	0.750000
C891	C89	0.250000	0.799200	0.750000
C901	C90	0.750000	0.648200	0.750000
C911	C91	0.750000	0.551300	0.750000
H681	H68	0.750000	0.517900	0.750000
C921	C92	0.750000	0.700800	0.750000
C931	C93	0.250000	0.648200	0.750000
C941	C94	0.250000	0.551300	0.750000
H691	H69	0.250000	0.517900	0.750000
C951	C95	0.250000	0.700800	0.750000
C961	C96	0.750000	0.851800	0.750000
C971	C97	0.750000	0.948700	0.750000
H701	H70	0.750000	0.982100	0.750000
C981	C98	0.750000	0.799200	0.750000
C991	C99	0.750000	0.148200	0.250000
C1001	C100	0.750000	0.051300	0.250000
H711	H71	0.750000	0.017900	0.250000
C1011	C101	0.750000	0.200800	0.250000
C1021	C102	0.250000	0.351800	0.250000
C1031	C103	0.250000	0.448700	0.250000
H721	H72	0.250000	0.482100	0.250000
C1041	C104	0.250000	0.299200	0.250000
