data_NASROR_clean_PM
_symmetry_space_group_name_H-M	'P1'
_cell_length_a	19.403200
_cell_length_b	19.403200
_cell_length_c	26.787000
_cell_angle_alpha	90.000000
_cell_angle_beta	90.000000
_cell_angle_gamma	90.000000
_symmetry_Int_Tables_number 1

loop_
_symmetry_equiv_pos_as_xyz
'x,y,z'

loop_
_atom_site_label
_atom_site_type_symbol
_atom_site_fract_x
_atom_site_fract_y
_atom_site_fract_z
O11	O1	0.448500	0.447300	0.432000
O21	O2	0.313600	0.310500	0.308900
O31	O3	0.387000	0.511200	0.483900
O41	O4	0.202900	0.334800	0.295700
C11	C1	0.212800	0.451500	0.356300
H11	H1	0.172100	0.445200	0.338500
C21	C2	0.165100	0.616700	0.353900
C31	C3	0.218600	0.508100	0.387500
C41	C4	0.163500	0.563600	0.388200
C51	C5	0.275900	0.515100	0.417500
H21	H2	0.278700	0.551100	0.440400
C61	C6	0.264900	0.404600	0.350600
C71	C7	0.109200	0.559200	0.423700
C81	C8	0.331300	0.466300	0.413200
C91	C9	0.326600	0.413100	0.380400
H31	H3	0.363000	0.382300	0.377100
C101	C10	0.258600	0.344700	0.316000
C111	C11	0.225500	0.618300	0.316800
H41	H4	0.211100	0.599000	0.285600
H51	H5	0.263200	0.591900	0.330000
H61	H6	0.240000	0.665100	0.311800
C121	C12	0.108300	0.500700	0.460400
H71	H7	0.114300	0.518500	0.493600
H81	H8	0.145100	0.469300	0.452800
H91	H9	0.065000	0.477000	0.458300
C131	C13	0.393500	0.475600	0.446300
O51	O5	0.051500	0.052700	0.432000
O61	O6	0.186400	0.189500	0.308900
O71	O7	0.113000	0.988800	0.483900
O81	O8	0.297100	0.165200	0.295700
C141	C14	0.287200	0.048500	0.356300
H101	H10	0.327900	0.054800	0.338500
C151	C15	0.334900	0.883300	0.353900
C161	C16	0.281400	0.991900	0.387500
C171	C17	0.336500	0.936400	0.388200
C181	C18	0.224100	0.984900	0.417500
H111	H11	0.221300	0.948900	0.440400
C191	C19	0.235100	0.095400	0.350600
C201	C20	0.390800	0.940800	0.423700
C211	C21	0.168700	0.033700	0.413200
C221	C22	0.173400	0.086900	0.380400
H121	H12	0.137000	0.117700	0.377100
C231	C23	0.241400	0.155300	0.316000
C241	C24	0.274500	0.881700	0.316800
H131	H13	0.288900	0.901000	0.285600
H141	H14	0.236800	0.908100	0.330000
H151	H15	0.260000	0.834900	0.311800
C251	C25	0.391700	0.999300	0.460400
H161	H16	0.385700	0.981500	0.493600
H171	H17	0.354900	0.030700	0.452800
H181	H18	0.435000	0.023000	0.458300
C261	C26	0.106500	0.024400	0.446300
O91	O9	0.052700	0.448500	0.932000
O101	O10	0.189500	0.313600	0.808900
O111	O11	0.988800	0.387000	0.983900
O121	O12	0.165200	0.202900	0.795700
C271	C27	0.048500	0.212800	0.856300
H191	H19	0.054800	0.172100	0.838500
C281	C28	0.883300	0.165100	0.853900
C291	C29	0.991900	0.218600	0.887500
C301	C30	0.936400	0.163500	0.888200
C311	C31	0.984900	0.275900	0.917500
H201	H20	0.948900	0.278700	0.940400
C321	C32	0.095400	0.264900	0.850600
C331	C33	0.940800	0.109200	0.923700
C341	C34	0.033700	0.331300	0.913200
C351	C35	0.086900	0.326600	0.880400
H211	H21	0.117700	0.363000	0.877100
C361	C36	0.155300	0.258600	0.816000
C371	C37	0.881700	0.225500	0.816800
H221	H22	0.901000	0.211100	0.785600
H231	H23	0.908100	0.263200	0.830000
H241	H24	0.834900	0.240000	0.811800
C381	C38	0.999300	0.108300	0.960400
H251	H25	0.981500	0.114300	0.993600
H261	H26	0.030700	0.145100	0.952800
H271	H27	0.023000	0.065000	0.958300
C391	C39	0.024400	0.393500	0.946300
O131	O13	0.447300	0.051500	0.932000
O141	O14	0.310500	0.186400	0.808900
O151	O15	0.511200	0.113000	0.983900
O161	O16	0.334800	0.297100	0.795700
C401	C40	0.451500	0.287200	0.856300
H281	H28	0.445200	0.327900	0.838500
C411	C41	0.616700	0.334900	0.853900
C421	C42	0.508100	0.281400	0.887500
C431	C43	0.563600	0.336500	0.888200
C441	C44	0.515100	0.224100	0.917500
H291	H29	0.551100	0.221300	0.940400
C451	C45	0.404600	0.235100	0.850600
C461	C46	0.559200	0.390800	0.923700
C471	C47	0.466300	0.168700	0.913200
C481	C48	0.413100	0.173400	0.880400
H301	H30	0.382300	0.137000	0.877100
C491	C49	0.344700	0.241400	0.816000
C501	C50	0.618300	0.274500	0.816800
H311	H31	0.599000	0.288900	0.785600
H321	H32	0.591900	0.236800	0.830000
H331	H33	0.665100	0.260000	0.811800
C511	C51	0.500700	0.391700	0.960400
H341	H34	0.518500	0.385700	0.993600
H351	H35	0.469300	0.354900	0.952800
H361	H36	0.477000	0.435000	0.958300
C521	C52	0.475600	0.106500	0.946300
O171	O17	0.051500	0.447300	0.068000
O181	O18	0.186400	0.310500	0.191100
O191	O19	0.113000	0.511200	0.016100
O201	O20	0.297100	0.334800	0.204300
C531	C53	0.287200	0.451500	0.143700
H371	H37	0.327900	0.445200	0.161500
C541	C54	0.334900	0.616700	0.146100
C551	C55	0.281400	0.508100	0.112500
C561	C56	0.336500	0.563600	0.111800
C571	C57	0.224100	0.515100	0.082500
H381	H38	0.221300	0.551100	0.059600
C581	C58	0.235100	0.404600	0.149400
C591	C59	0.390800	0.559200	0.076300
C601	C60	0.168700	0.466300	0.086800
C611	C61	0.173400	0.413100	0.119600
H391	H39	0.137000	0.382300	0.122900
C621	C62	0.241400	0.344700	0.184000
C631	C63	0.274500	0.618300	0.183200
H401	H40	0.288900	0.599000	0.214400
H411	H41	0.236800	0.591900	0.170000
H421	H42	0.260000	0.665100	0.188200
C641	C64	0.391700	0.500700	0.039600
H431	H43	0.385700	0.518500	0.006400
H441	H44	0.354900	0.469300	0.047200
H451	H45	0.435000	0.477000	0.041700
C651	C65	0.106500	0.475600	0.053700
O211	O21	0.448500	0.052700	0.068000
O221	O22	0.313600	0.189500	0.191100
O231	O23	0.387000	0.988800	0.016100
O241	O24	0.202900	0.165200	0.204300
C661	C66	0.212800	0.048500	0.143700
H461	H46	0.172100	0.054800	0.161500
C671	C67	0.165100	0.883300	0.146100
C681	C68	0.218600	0.991900	0.112500
C691	C69	0.163500	0.936400	0.111800
C701	C70	0.275900	0.984900	0.082500
H471	H47	0.278700	0.948900	0.059600
C711	C71	0.264900	0.095400	0.149400
C721	C72	0.109200	0.940800	0.076300
C731	C73	0.331300	0.033700	0.086800
C741	C74	0.326600	0.086900	0.119600
H481	H48	0.363000	0.117700	0.122900
C751	C75	0.258600	0.155300	0.184000
C761	C76	0.225500	0.881700	0.183200
H491	H49	0.211100	0.901000	0.214400
H501	H50	0.263200	0.908100	0.170000
H511	H51	0.240000	0.834900	0.188200
C771	C77	0.108300	0.999300	0.039600
H521	H52	0.114300	0.981500	0.006400
H531	H53	0.145100	0.030700	0.047200
H541	H54	0.065000	0.023000	0.041700
C781	C78	0.393500	0.024400	0.053700
O251	O25	0.447300	0.448500	0.568000
O261	O26	0.310500	0.313600	0.691100
O271	O27	0.511200	0.387000	0.516100
O281	O28	0.334800	0.202900	0.704300
C791	C79	0.451500	0.212800	0.643700
H551	H55	0.445200	0.172100	0.661500
C801	C80	0.616700	0.165100	0.646100
C811	C81	0.508100	0.218600	0.612500
C821	C82	0.563600	0.163500	0.611800
C831	C83	0.515100	0.275900	0.582500
H561	H56	0.551100	0.278700	0.559600
C841	C84	0.404600	0.264900	0.649400
C851	C85	0.559200	0.109200	0.576300
C861	C86	0.466300	0.331300	0.586800
C871	C87	0.413100	0.326600	0.619600
H571	H57	0.382300	0.363000	0.622900
C881	C88	0.344700	0.258600	0.684000
C891	C89	0.618300	0.225500	0.683200
H581	H58	0.599000	0.211100	0.714400
H591	H59	0.591900	0.263200	0.670000
H601	H60	0.665100	0.240000	0.688200
C901	C90	0.500700	0.108300	0.539600
H611	H61	0.518500	0.114300	0.506400
H621	H62	0.469300	0.145100	0.547200
H631	H63	0.477000	0.065000	0.541700
C911	C91	0.475600	0.393500	0.553700
O291	O29	0.052700	0.051500	0.568000
O301	O30	0.189500	0.186400	0.691100
O311	O31	0.988800	0.113000	0.516100
O321	O32	0.165200	0.297100	0.704300
C921	C92	0.048500	0.287200	0.643700
H641	H64	0.054800	0.327900	0.661500
C931	C93	0.883300	0.334900	0.646100
C941	C94	0.991900	0.281400	0.612500
C951	C95	0.936400	0.336500	0.611800
C961	C96	0.984900	0.224100	0.582500
H651	H65	0.948900	0.221300	0.559600
C971	C97	0.095400	0.235100	0.649400
C981	C98	0.940800	0.390800	0.576300
C991	C99	0.033700	0.168700	0.586800
C1001	C100	0.086900	0.173400	0.619600
H661	H66	0.117700	0.137000	0.622900
C1011	C101	0.155300	0.241400	0.684000
C1021	C102	0.881700	0.274500	0.683200
H671	H67	0.901000	0.288900	0.714400
H681	H68	0.908100	0.236800	0.670000
H691	H69	0.834900	0.260000	0.688200
C1031	C103	0.999300	0.391700	0.539600
H701	H70	0.981500	0.385700	0.506400
H711	H71	0.030700	0.354900	0.547200
H721	H72	0.023000	0.435000	0.541700
C1041	C104	0.024400	0.106500	0.553700
O331	O33	0.551500	0.552700	0.568000
O341	O34	0.686400	0.689500	0.691100
O351	O35	0.613000	0.488800	0.516100
O361	O36	0.797100	0.665200	0.704300
C1051	C105	0.787200	0.548500	0.643700
H731	H73	0.827900	0.554800	0.661500
C1061	C106	0.834900	0.383300	0.646100
C1071	C107	0.781400	0.491900	0.612500
C1081	C108	0.836500	0.436400	0.611800
C1091	C109	0.724100	0.484900	0.582500
H741	H74	0.721300	0.448900	0.559600
C1101	C110	0.735100	0.595400	0.649400
C1111	C111	0.890800	0.440800	0.576300
C1121	C112	0.668700	0.533700	0.586800
C1131	C113	0.673400	0.586900	0.619600
H751	H75	0.637000	0.617700	0.622900
C1141	C114	0.741400	0.655300	0.684000
C1151	C115	0.774500	0.381700	0.683200
H761	H76	0.788900	0.401000	0.714400
H771	H77	0.736800	0.408100	0.670000
H781	H78	0.760000	0.334900	0.688200
C1161	C116	0.891700	0.499300	0.539600
H791	H79	0.885700	0.481500	0.506400
H801	H80	0.854900	0.530700	0.547200
H811	H81	0.935000	0.523000	0.541700
C1171	C117	0.606500	0.524400	0.553700
O371	O37	0.948500	0.947300	0.568000
O381	O38	0.813600	0.810500	0.691100
O391	O39	0.887000	0.011200	0.516100
O401	O40	0.702900	0.834800	0.704300
C1181	C118	0.712800	0.951500	0.643700
H821	H82	0.672100	0.945200	0.661500
C1191	C119	0.665100	0.116700	0.646100
C1201	C120	0.718600	0.008100	0.612500
C1211	C121	0.663500	0.063600	0.611800
C1221	C122	0.775900	0.015100	0.582500
H831	H83	0.778700	0.051100	0.559600
C1231	C123	0.764900	0.904600	0.649400
C1241	C124	0.609200	0.059200	0.576300
C1251	C125	0.831300	0.966300	0.586800
C1261	C126	0.826600	0.913100	0.619600
H841	H84	0.863000	0.882300	0.622900
C1271	C127	0.758600	0.844700	0.684000
C1281	C128	0.725500	0.118300	0.683200
H851	H85	0.711100	0.099000	0.714400
H861	H86	0.763200	0.091900	0.670000
H871	H87	0.740000	0.165100	0.688200
C1291	C129	0.608300	0.000700	0.539600
H881	H88	0.614300	0.018500	0.506400
H891	H89	0.645100	0.969300	0.547200
H901	H90	0.565000	0.977000	0.541700
C1301	C130	0.893500	0.975600	0.553700
O411	O41	0.947300	0.551500	0.068000
O421	O42	0.810500	0.686400	0.191100
O431	O43	0.011200	0.613000	0.016100
O441	O44	0.834800	0.797100	0.204300
C1311	C131	0.951500	0.787200	0.143700
H911	H91	0.945200	0.827900	0.161500
C1321	C132	0.116700	0.834900	0.146100
C1331	C133	0.008100	0.781400	0.112500
C1341	C134	0.063600	0.836500	0.111800
C1351	C135	0.015100	0.724100	0.082500
H921	H92	0.051100	0.721300	0.059600
C1361	C136	0.904600	0.735100	0.149400
C1371	C137	0.059200	0.890800	0.076300
C1381	C138	0.966300	0.668700	0.086800
C1391	C139	0.913100	0.673400	0.119600
H931	H93	0.882300	0.637000	0.122900
C1401	C140	0.844700	0.741400	0.184000
C1411	C141	0.118300	0.774500	0.183200
H941	H94	0.099000	0.788900	0.214400
H951	H95	0.091900	0.736800	0.170000
H961	H96	0.165100	0.760000	0.188200
C1421	C142	0.000700	0.891700	0.039600
H971	H97	0.018500	0.885700	0.006400
H981	H98	0.969300	0.854900	0.047200
H991	H99	0.977000	0.935000	0.041700
C1431	C143	0.975600	0.606500	0.053700
O451	O45	0.552700	0.948500	0.068000
O461	O46	0.689500	0.813600	0.191100
O471	O47	0.488800	0.887000	0.016100
O481	O48	0.665200	0.702900	0.204300
C1441	C144	0.548500	0.712800	0.143700
H1001	H100	0.554800	0.672100	0.161500
C1451	C145	0.383300	0.665100	0.146100
C1461	C146	0.491900	0.718600	0.112500
C1471	C147	0.436400	0.663500	0.111800
C1481	C148	0.484900	0.775900	0.082500
H1011	H101	0.448900	0.778700	0.059600
C1491	C149	0.595400	0.764900	0.149400
C1501	C150	0.440800	0.609200	0.076300
C1511	C151	0.533700	0.831300	0.086800
C1521	C152	0.586900	0.826600	0.119600
H1021	H102	0.617700	0.863000	0.122900
C1531	C153	0.655300	0.758600	0.184000
C1541	C154	0.381700	0.725500	0.183200
H1031	H103	0.401000	0.711100	0.214400
H1041	H104	0.408100	0.763200	0.170000
H1051	H105	0.334900	0.740000	0.188200
C1551	C155	0.499300	0.608300	0.039600
H1061	H106	0.481500	0.614300	0.006400
H1071	H107	0.530700	0.645100	0.047200
H1081	H108	0.523000	0.565000	0.041700
C1561	C156	0.524400	0.893500	0.053700
O491	O49	0.948500	0.552700	0.932000
O501	O50	0.813600	0.689500	0.808900
O511	O51	0.887000	0.488800	0.983900
O521	O52	0.702900	0.665200	0.795700
C1571	C157	0.712800	0.548500	0.856300
H1091	H109	0.672100	0.554800	0.838500
C1581	C158	0.665100	0.383300	0.853900
C1591	C159	0.718600	0.491900	0.887500
C1601	C160	0.663500	0.436400	0.888200
C1611	C161	0.775900	0.484900	0.917500
H1101	H110	0.778700	0.448900	0.940400
C1621	C162	0.764900	0.595400	0.850600
C1631	C163	0.609200	0.440800	0.923700
C1641	C164	0.831300	0.533700	0.913200
C1651	C165	0.826600	0.586900	0.880400
H1111	H111	0.863000	0.617700	0.877100
C1661	C166	0.758600	0.655300	0.816000
C1671	C167	0.725500	0.381700	0.816800
H1121	H112	0.711100	0.401000	0.785600
H1131	H113	0.763200	0.408100	0.830000
H1141	H114	0.740000	0.334900	0.811800
C1681	C168	0.608300	0.499300	0.960400
H1151	H115	0.614300	0.481500	0.993600
H1161	H116	0.645100	0.530700	0.952800
H1171	H117	0.565000	0.523000	0.958300
C1691	C169	0.893500	0.524400	0.946300
O531	O53	0.551500	0.947300	0.932000
O541	O54	0.686400	0.810500	0.808900
O551	O55	0.613000	0.011200	0.983900
O561	O56	0.797100	0.834800	0.795700
C1701	C170	0.787200	0.951500	0.856300
H1181	H118	0.827900	0.945200	0.838500
C1711	C171	0.834900	0.116700	0.853900
C1721	C172	0.781400	0.008100	0.887500
C1731	C173	0.836500	0.063600	0.888200
C1741	C174	0.724100	0.015100	0.917500
H1191	H119	0.721300	0.051100	0.940400
C1751	C175	0.735100	0.904600	0.850600
C1761	C176	0.890800	0.059200	0.923700
C1771	C177	0.668700	0.966300	0.913200
C1781	C178	0.673400	0.913100	0.880400
H1201	H120	0.637000	0.882300	0.877100
C1791	C179	0.741400	0.844700	0.816000
C1801	C180	0.774500	0.118300	0.816800
H1211	H121	0.788900	0.099000	0.785600
H1221	H122	0.736800	0.091900	0.830000
H1231	H123	0.760000	0.165100	0.811800
C1811	C181	0.891700	0.000700	0.960400
H1241	H124	0.885700	0.018500	0.993600
H1251	H125	0.854900	0.969300	0.952800
H1261	H126	0.935000	0.977000	0.958300
C1821	C182	0.606500	0.975600	0.946300
O571	O57	0.552700	0.551500	0.432000
O581	O58	0.689500	0.686400	0.308900
O591	O59	0.488800	0.613000	0.483900
O601	O60	0.665200	0.797100	0.295700
C1831	C183	0.548500	0.787200	0.356300
H1271	H127	0.554800	0.827900	0.338500
C1841	C184	0.383300	0.834900	0.353900
C1851	C185	0.491900	0.781400	0.387500
C1861	C186	0.436400	0.836500	0.388200
C1871	C187	0.484900	0.724100	0.417500
H1281	H128	0.448900	0.721300	0.440400
C1881	C188	0.595400	0.735100	0.350600
C1891	C189	0.440800	0.890800	0.423700
C1901	C190	0.533700	0.668700	0.413200
C1911	C191	0.586900	0.673400	0.380400
H1291	H129	0.617700	0.637000	0.377100
C1921	C192	0.655300	0.741400	0.316000
C1931	C193	0.381700	0.774500	0.316800
H1301	H130	0.401000	0.788900	0.285600
H1311	H131	0.408100	0.736800	0.330000
H1321	H132	0.334900	0.760000	0.311800
C1941	C194	0.499300	0.891700	0.460400
H1331	H133	0.481500	0.885700	0.493600
H1341	H134	0.530700	0.854900	0.452800
H1351	H135	0.523000	0.935000	0.458300
C1951	C195	0.524400	0.606500	0.446300
O611	O61	0.947300	0.948500	0.432000
O621	O62	0.810500	0.813600	0.308900
O631	O63	0.011200	0.887000	0.483900
O641	O64	0.834800	0.702900	0.295700
C1961	C196	0.951500	0.712800	0.356300
H1361	H136	0.945200	0.672100	0.338500
C1971	C197	0.116700	0.665100	0.353900
C1981	C198	0.008100	0.718600	0.387500
C1991	C199	0.063600	0.663500	0.388200
C2001	C200	0.015100	0.775900	0.417500
H1371	H137	0.051100	0.778700	0.440400
C2011	C201	0.904600	0.764900	0.350600
C2021	C202	0.059200	0.609200	0.423700
C2031	C203	0.966300	0.831300	0.413200
C2041	C204	0.913100	0.826600	0.380400
H1381	H138	0.882300	0.863000	0.377100
C2051	C205	0.844700	0.758600	0.316000
C2061	C206	0.118300	0.725500	0.316800
H1391	H139	0.099000	0.711100	0.285600
H1401	H140	0.091900	0.763200	0.330000
H1411	H141	0.165100	0.740000	0.311800
C2071	C207	0.000700	0.608300	0.460400
H1421	H142	0.018500	0.614300	0.493600
H1431	H143	0.969300	0.645100	0.452800
H1441	H144	0.977000	0.565000	0.458300
C2081	C208	0.975600	0.893500	0.446300
Zn11	Zn1	0.541850	0.458150	0.464780
Zn21	Zn2	0.958150	0.041850	0.464780
Zn31	Zn3	0.041850	0.541850	0.964780
Zn41	Zn4	0.458150	0.958150	0.964780
Zn51	Zn5	0.958150	0.458150	0.035220
Zn61	Zn6	0.541850	0.041850	0.035220
Zn71	Zn7	0.458150	0.541850	0.535220
Zn81	Zn8	0.041850	0.958150	0.535220
Zn91	Zn9	0.326370	0.250000	0.250000
Zn101	Zn10	0.173630	0.250000	0.250000
Zn111	Zn11	0.250000	0.326370	0.750000
Zn121	Zn12	0.250000	0.173630	0.750000
Zn131	Zn13	0.673630	0.750000	0.750000
Zn141	Zn14	0.826370	0.750000	0.750000
Zn151	Zn15	0.750000	0.673630	0.250000
Zn161	Zn16	0.750000	0.826370	0.250000
