data_NATKIF_clean_PM
_symmetry_space_group_name_H-M	'P1'
_cell_length_a	22.805000
_cell_length_b	22.805000
_cell_length_c	44.072700
_cell_angle_alpha	90.000000
_cell_angle_beta	90.000000
_cell_angle_gamma	90.000000
_symmetry_Int_Tables_number 1

loop_
_symmetry_equiv_pos_as_xyz
'x,y,z'

loop_
_atom_site_label
_atom_site_type_symbol
_atom_site_fract_x
_atom_site_fract_y
_atom_site_fract_z
Cu11	Cu1	0.555820	0.484510	0.361050
O11	O1	0.532200	0.429600	0.330040
O21	O2	0.434700	0.455500	0.329930
O31	O3	0.070300	0.032900	0.892060
O41	O4	0.043050	0.938700	0.892590
N11	N1	0.431900	0.254400	0.228400
N21	N2	0.376600	0.252300	0.214100
N31	N3	0.381400	0.211000	0.194000
N41	N4	0.275700	0.891500	0.032500
N51	N5	0.233700	0.890400	0.013300
N61	N6	0.242300	0.935200	0.995930
C11	C1	0.477300	0.424600	0.320220
C21	C2	0.465200	0.378500	0.297070
C31	C3	0.508700	0.346500	0.286900
H11	H1	0.546000	0.351000	0.295110
C41	C4	0.499800	0.307200	0.264500
H21	H2	0.531150	0.284850	0.257480
C51	C5	0.447900	0.299700	0.252400
C61	C6	0.399300	0.332000	0.261800
H31	H3	0.362320	0.327190	0.253280
C71	C7	0.409900	0.371600	0.284700
H41	H4	0.379140	0.394220	0.292060
C81	C8	0.466500	0.215300	0.213700
H51	H5	0.506470	0.210210	0.216960
C91	C9	0.433100	0.184500	0.193300
C101	C10	0.452300	0.139300	0.173460
C111	C11	0.507800	0.114600	0.173750
H61	H6	0.535600	0.127820	0.187590
C121	C12	0.521300	0.072700	0.154580
H71	H7	0.558820	0.056870	0.155500
C131	C13	0.481500	0.049900	0.132280
C141	C14	0.426600	0.074400	0.132500
H81	H8	0.397670	0.059480	0.119770
C151	C15	0.413700	0.122300	0.151900
H91	H9	0.378340	0.142190	0.149820
C161	C16	0.448300	0.982900	0.089830
C171	C17	0.423400	0.928700	0.089130
H101	H10	0.437280	0.900750	0.102710
C181	C18	0.379100	0.912400	0.069810
H111	H11	0.364480	0.874350	0.070410
C191	C19	0.356800	0.951600	0.049900
C201	C20	0.380900	0.009500	0.048130
H121	H12	0.366100	0.037750	0.034990
C211	C21	0.429100	0.020800	0.067860
H131	H13	0.448750	0.056310	0.065690
C221	C22	0.305500	0.940300	0.029000
C231	C23	0.283100	0.970100	0.006680
H141	H14	0.293620	0.007230	0.999910
C241	C24	0.200600	0.944000	0.973100
C251	C25	0.162000	0.903700	0.961350
H151	H15	0.162530	0.866160	0.969560
C261	C26	0.121800	0.914800	0.937770
H161	H16	0.097570	0.885120	0.930590
C271	C27	0.119000	0.969600	0.925690
C281	C28	0.157600	0.013000	0.935430
H171	H17	0.157500	0.049630	0.926150
C291	C29	0.197100	0.001100	0.959730
H181	H18	0.221170	0.030900	0.966980
C301	C30	0.075100	0.980200	0.901700
Cu21	Cu2	0.444180	0.515490	0.361050
O51	O5	0.467800	0.570400	0.330040
O61	O6	0.565300	0.544500	0.329930
O71	O7	0.929700	0.967100	0.892060
O81	O8	0.956950	0.061300	0.892590
N71	N7	0.568100	0.745600	0.228400
N81	N8	0.623400	0.747700	0.214100
N91	N9	0.618600	0.789000	0.194000
N101	N10	0.724300	0.108500	0.032500
N111	N11	0.766300	0.109600	0.013300
N121	N12	0.757700	0.064800	0.995930
C311	C31	0.522700	0.575400	0.320220
C321	C32	0.534800	0.621500	0.297070
C331	C33	0.491300	0.653500	0.286900
H191	H19	0.454000	0.649000	0.295110
C341	C34	0.500200	0.692800	0.264500
H201	H20	0.468850	0.715150	0.257480
C351	C35	0.552100	0.700300	0.252400
C361	C36	0.600700	0.668000	0.261800
H211	H21	0.637680	0.672810	0.253280
C371	C37	0.590100	0.628400	0.284700
H221	H22	0.620860	0.605780	0.292060
C381	C38	0.533500	0.784700	0.213700
H231	H23	0.493530	0.789790	0.216960
C391	C39	0.566900	0.815500	0.193300
C401	C40	0.547700	0.860700	0.173460
C411	C41	0.492200	0.885400	0.173750
H241	H24	0.464400	0.872180	0.187590
C421	C42	0.478700	0.927300	0.154580
H251	H25	0.441180	0.943130	0.155500
C431	C43	0.518500	0.950100	0.132280
C441	C44	0.573400	0.925600	0.132500
H261	H26	0.602330	0.940520	0.119770
C451	C45	0.586300	0.877700	0.151900
H271	H27	0.621660	0.857810	0.149820
C461	C46	0.551700	0.017100	0.089830
C471	C47	0.576600	0.071300	0.089130
H281	H28	0.562720	0.099250	0.102710
C481	C48	0.620900	0.087600	0.069810
H291	H29	0.635520	0.125650	0.070410
C491	C49	0.643200	0.048400	0.049900
C501	C50	0.619100	0.990500	0.048130
H301	H30	0.633900	0.962250	0.034990
C511	C51	0.570900	0.979200	0.067860
H311	H31	0.551250	0.943690	0.065690
C521	C52	0.694500	0.059700	0.029000
C531	C53	0.716900	0.029900	0.006680
H321	H32	0.706380	0.992770	0.999910
C541	C54	0.799400	0.056000	0.973100
C551	C55	0.838000	0.096300	0.961350
H331	H33	0.837470	0.133840	0.969560
C561	C56	0.878200	0.085200	0.937770
H341	H34	0.902430	0.114880	0.930590
C571	C57	0.881000	0.030400	0.925690
C581	C58	0.842400	0.987000	0.935430
H351	H35	0.842500	0.950370	0.926150
C591	C59	0.802900	0.998900	0.959730
H361	H36	0.778830	0.969100	0.966980
C601	C60	0.924900	0.019800	0.901700
Cu31	Cu3	0.015490	0.055820	0.861050
O91	O9	0.070400	0.032200	0.830040
O101	O10	0.044500	0.934700	0.829930
O111	O11	0.467100	0.570300	0.392060
O121	O12	0.561300	0.543050	0.392590
N131	N13	0.245600	0.931900	0.728400
N141	N14	0.247700	0.876600	0.714100
N151	N15	0.289000	0.881400	0.694000
N161	N16	0.608500	0.775700	0.532500
N171	N17	0.609600	0.733700	0.513300
N181	N18	0.564800	0.742300	0.495930
C611	C61	0.075400	0.977300	0.820220
C621	C62	0.121500	0.965200	0.797070
C631	C63	0.153500	0.008700	0.786900
H371	H37	0.149000	0.046000	0.795110
C641	C64	0.192800	0.999800	0.764500
H381	H38	0.215150	0.031150	0.757480
C651	C65	0.200300	0.947900	0.752400
C661	C66	0.168000	0.899300	0.761800
H391	H39	0.172810	0.862320	0.753280
C671	C67	0.128400	0.909900	0.784700
H401	H40	0.105780	0.879140	0.792060
C681	C68	0.284700	0.966500	0.713700
H411	H41	0.289790	0.006470	0.716960
C691	C69	0.315500	0.933100	0.693300
C701	C70	0.360700	0.952300	0.673460
C711	C71	0.385400	0.007800	0.673750
H421	H42	0.372180	0.035600	0.687590
C721	C72	0.427300	0.021300	0.654580
H431	H43	0.443130	0.058820	0.655500
C731	C73	0.450100	0.981500	0.632280
C741	C74	0.425600	0.926600	0.632500
H441	H44	0.440520	0.897670	0.619770
C751	C75	0.377700	0.913700	0.651900
H451	H45	0.357810	0.878340	0.649820
C761	C76	0.517100	0.948300	0.589830
C771	C77	0.571300	0.923400	0.589130
H461	H46	0.599250	0.937280	0.602710
C781	C78	0.587600	0.879100	0.569810
H471	H47	0.625650	0.864480	0.570410
C791	C79	0.548400	0.856800	0.549900
C801	C80	0.490500	0.880900	0.548130
H481	H48	0.462250	0.866100	0.534990
C811	C81	0.479200	0.929100	0.567860
H491	H49	0.443690	0.948750	0.565690
C821	C82	0.559700	0.805500	0.529000
C831	C83	0.529900	0.783100	0.506680
H501	H50	0.492770	0.793620	0.499910
C841	C84	0.556000	0.700600	0.473100
C851	C85	0.596300	0.662000	0.461350
H511	H51	0.633840	0.662530	0.469560
C861	C86	0.585200	0.621800	0.437770
H521	H52	0.614880	0.597570	0.430590
C871	C87	0.530400	0.619000	0.425690
C881	C88	0.487000	0.657600	0.435430
H531	H53	0.450370	0.657500	0.426150
C891	C89	0.498900	0.697100	0.459730
H541	H54	0.469100	0.721170	0.466980
C901	C90	0.519800	0.575100	0.401700
Cu41	Cu4	0.984510	0.944180	0.861050
O131	O13	0.929600	0.967800	0.830040
O141	O14	0.955500	0.065300	0.829930
O151	O15	0.532900	0.429700	0.392060
O161	O16	0.438700	0.456950	0.392590
N191	N19	0.754400	0.068100	0.728400
N201	N20	0.752300	0.123400	0.714100
N211	N21	0.711000	0.118600	0.694000
N221	N22	0.391500	0.224300	0.532500
N231	N23	0.390400	0.266300	0.513300
N241	N24	0.435200	0.257700	0.495930
C911	C91	0.924600	0.022700	0.820220
C921	C92	0.878500	0.034800	0.797070
C931	C93	0.846500	0.991300	0.786900
H551	H55	0.851000	0.954000	0.795110
C941	C94	0.807200	0.000200	0.764500
H561	H56	0.784850	0.968850	0.757480
C951	C95	0.799700	0.052100	0.752400
C961	C96	0.832000	0.100700	0.761800
H571	H57	0.827190	0.137680	0.753280
C971	C97	0.871600	0.090100	0.784700
H581	H58	0.894220	0.120860	0.792060
C981	C98	0.715300	0.033500	0.713700
H591	H59	0.710210	0.993530	0.716960
C991	C99	0.684500	0.066900	0.693300
C1001	C100	0.639300	0.047700	0.673460
C1011	C101	0.614600	0.992200	0.673750
H601	H60	0.627820	0.964400	0.687590
C1021	C102	0.572700	0.978700	0.654580
H611	H61	0.556870	0.941180	0.655500
C1031	C103	0.549900	0.018500	0.632280
C1041	C104	0.574400	0.073400	0.632500
H621	H62	0.559480	0.102330	0.619770
C1051	C105	0.622300	0.086300	0.651900
H631	H63	0.642190	0.121660	0.649820
C1061	C106	0.482900	0.051700	0.589830
C1071	C107	0.428700	0.076600	0.589130
H641	H64	0.400750	0.062720	0.602710
C1081	C108	0.412400	0.120900	0.569810
H651	H65	0.374350	0.135520	0.570410
C1091	C109	0.451600	0.143200	0.549900
C1101	C110	0.509500	0.119100	0.548130
H661	H66	0.537750	0.133900	0.534990
C1111	C111	0.520800	0.070900	0.567860
H671	H67	0.556310	0.051250	0.565690
C1121	C112	0.440300	0.194500	0.529000
C1131	C113	0.470100	0.216900	0.506680
H681	H68	0.507230	0.206380	0.499910
C1141	C114	0.444000	0.299400	0.473100
C1151	C115	0.403700	0.338000	0.461350
H691	H69	0.366160	0.337470	0.469560
C1161	C116	0.414800	0.378200	0.437770
H701	H70	0.385120	0.402430	0.430590
C1171	C117	0.469600	0.381000	0.425690
C1181	C118	0.513000	0.342400	0.435430
H711	H71	0.549630	0.342500	0.426150
C1191	C119	0.501100	0.302900	0.459730
H721	H72	0.530900	0.278830	0.466980
C1201	C120	0.480200	0.424900	0.401700
C1211	C121	0.500000	0.000000	0.110100
C1221	C122	0.500000	0.000000	0.610100
Cu51	Cu5	0.944180	0.984510	0.138950
O171	O17	0.967800	0.929600	0.169960
O181	O18	0.065300	0.955500	0.170070
O191	O19	0.429700	0.532900	0.607940
O201	O20	0.456950	0.438700	0.607410
N251	N25	0.068100	0.754400	0.271600
N261	N26	0.123400	0.752300	0.285900
N271	N27	0.118600	0.711000	0.306000
N281	N28	0.224300	0.391500	0.467500
N291	N29	0.266300	0.390400	0.486700
N301	N30	0.257700	0.435200	0.504070
C1231	C123	0.022700	0.924600	0.179780
C1241	C124	0.034800	0.878500	0.202930
C1251	C125	0.991300	0.846500	0.213100
H731	H73	0.954000	0.851000	0.204890
C1261	C126	0.000200	0.807200	0.235500
H741	H74	0.968850	0.784850	0.242520
C1271	C127	0.052100	0.799700	0.247600
C1281	C128	0.100700	0.832000	0.238200
H751	H75	0.137680	0.827190	0.246720
C1291	C129	0.090100	0.871600	0.215300
H761	H76	0.120860	0.894220	0.207940
C1301	C130	0.033500	0.715300	0.286300
H771	H77	0.993530	0.710210	0.283040
C1311	C131	0.066900	0.684500	0.306700
C1321	C132	0.047700	0.639300	0.326540
C1331	C133	0.992200	0.614600	0.326250
H781	H78	0.964400	0.627820	0.312410
C1341	C134	0.978700	0.572700	0.345420
H791	H79	0.941180	0.556870	0.344500
C1351	C135	0.018500	0.549900	0.367720
C1361	C136	0.073400	0.574400	0.367500
H801	H80	0.102330	0.559480	0.380230
C1371	C137	0.086300	0.622300	0.348100
H811	H81	0.121660	0.642190	0.350180
C1381	C138	0.051700	0.482900	0.410170
C1391	C139	0.076600	0.428700	0.410870
H821	H82	0.062720	0.400750	0.397290
C1401	C140	0.120900	0.412400	0.430190
H831	H83	0.135520	0.374350	0.429590
C1411	C141	0.143200	0.451600	0.450100
C1421	C142	0.119100	0.509500	0.451870
H841	H84	0.133900	0.537750	0.465010
C1431	C143	0.070900	0.520800	0.432140
H851	H85	0.051250	0.556310	0.434310
C1441	C144	0.194500	0.440300	0.471000
C1451	C145	0.216900	0.470100	0.493320
H861	H86	0.206380	0.507230	0.500090
C1461	C146	0.299400	0.444000	0.526900
C1471	C147	0.338000	0.403700	0.538650
H871	H87	0.337470	0.366160	0.530440
C1481	C148	0.378200	0.414800	0.562230
H881	H88	0.402430	0.385120	0.569410
C1491	C149	0.381000	0.469600	0.574310
C1501	C150	0.342400	0.513000	0.564570
H891	H89	0.342500	0.549630	0.573850
C1511	C151	0.302900	0.501100	0.540270
H901	H90	0.278830	0.530900	0.533020
C1521	C152	0.424900	0.480200	0.598300
Cu61	Cu6	0.055820	0.015490	0.138950
O211	O21	0.032200	0.070400	0.169960
O221	O22	0.934700	0.044500	0.170070
O231	O23	0.570300	0.467100	0.607940
O241	O24	0.543050	0.561300	0.607410
N311	N31	0.931900	0.245600	0.271600
N321	N32	0.876600	0.247700	0.285900
N331	N33	0.881400	0.289000	0.306000
N341	N34	0.775700	0.608500	0.467500
N351	N35	0.733700	0.609600	0.486700
N361	N36	0.742300	0.564800	0.504070
C1531	C153	0.977300	0.075400	0.179780
C1541	C154	0.965200	0.121500	0.202930
C1551	C155	0.008700	0.153500	0.213100
H911	H91	0.046000	0.149000	0.204890
C1561	C156	0.999800	0.192800	0.235500
H921	H92	0.031150	0.215150	0.242520
C1571	C157	0.947900	0.200300	0.247600
C1581	C158	0.899300	0.168000	0.238200
H931	H93	0.862320	0.172810	0.246720
C1591	C159	0.909900	0.128400	0.215300
H941	H94	0.879140	0.105780	0.207940
C1601	C160	0.966500	0.284700	0.286300
H951	H95	0.006470	0.289790	0.283040
C1611	C161	0.933100	0.315500	0.306700
C1621	C162	0.952300	0.360700	0.326540
C1631	C163	0.007800	0.385400	0.326250
H961	H96	0.035600	0.372180	0.312410
C1641	C164	0.021300	0.427300	0.345420
H971	H97	0.058820	0.443130	0.344500
C1651	C165	0.981500	0.450100	0.367720
C1661	C166	0.926600	0.425600	0.367500
H981	H98	0.897670	0.440520	0.380230
C1671	C167	0.913700	0.377700	0.348100
H991	H99	0.878340	0.357810	0.350180
C1681	C168	0.948300	0.517100	0.410170
C1691	C169	0.923400	0.571300	0.410870
H1001	H100	0.937280	0.599250	0.397290
C1701	C170	0.879100	0.587600	0.430190
H1011	H101	0.864480	0.625650	0.429590
C1711	C171	0.856800	0.548400	0.450100
C1721	C172	0.880900	0.490500	0.451870
H1021	H102	0.866100	0.462250	0.465010
C1731	C173	0.929100	0.479200	0.432140
H1031	H103	0.948750	0.443690	0.434310
C1741	C174	0.805500	0.559700	0.471000
C1751	C175	0.783100	0.529900	0.493320
H1041	H104	0.793620	0.492770	0.500090
C1761	C176	0.700600	0.556000	0.526900
C1771	C177	0.662000	0.596300	0.538650
H1051	H105	0.662530	0.633840	0.530440
C1781	C178	0.621800	0.585200	0.562230
H1061	H106	0.597570	0.614880	0.569410
C1791	C179	0.619000	0.530400	0.574310
C1801	C180	0.657600	0.487000	0.564570
H1071	H107	0.657500	0.450370	0.573850
C1811	C181	0.697100	0.498900	0.540270
H1081	H108	0.721170	0.469100	0.533020
C1821	C182	0.575100	0.519800	0.598300
Cu71	Cu7	0.484510	0.555820	0.638950
O251	O25	0.429600	0.532200	0.669960
O261	O26	0.455500	0.434700	0.670070
O271	O27	0.032900	0.070300	0.107940
O281	O28	0.938700	0.043050	0.107410
N371	N37	0.254400	0.431900	0.771600
N381	N38	0.252300	0.376600	0.785900
N391	N39	0.211000	0.381400	0.806000
N401	N40	0.891500	0.275700	0.967500
N411	N41	0.890400	0.233700	0.986700
N421	N42	0.935200	0.242300	0.004070
C1831	C183	0.424600	0.477300	0.679780
C1841	C184	0.378500	0.465200	0.702930
C1851	C185	0.346500	0.508700	0.713100
H1091	H109	0.351000	0.546000	0.704890
C1861	C186	0.307200	0.499800	0.735500
H1101	H110	0.284850	0.531150	0.742520
C1871	C187	0.299700	0.447900	0.747600
C1881	C188	0.332000	0.399300	0.738200
H1111	H111	0.327190	0.362320	0.746720
C1891	C189	0.371600	0.409900	0.715300
H1121	H112	0.394220	0.379140	0.707940
C1901	C190	0.215300	0.466500	0.786300
H1131	H113	0.210210	0.506470	0.783040
C1911	C191	0.184500	0.433100	0.806700
C1921	C192	0.139300	0.452300	0.826540
C1931	C193	0.114600	0.507800	0.826250
H1141	H114	0.127820	0.535600	0.812410
C1941	C194	0.072700	0.521300	0.845420
H1151	H115	0.056870	0.558820	0.844500
C1951	C195	0.049900	0.481500	0.867720
C1961	C196	0.074400	0.426600	0.867500
H1161	H116	0.059480	0.397670	0.880230
C1971	C197	0.122300	0.413700	0.848100
H1171	H117	0.142190	0.378340	0.850180
C1981	C198	0.982900	0.448300	0.910170
C1991	C199	0.928700	0.423400	0.910870
H1181	H118	0.900750	0.437280	0.897290
C2001	C200	0.912400	0.379100	0.930190
H1191	H119	0.874350	0.364480	0.929590
C2011	C201	0.951600	0.356800	0.950100
C2021	C202	0.009500	0.380900	0.951870
H1201	H120	0.037750	0.366100	0.965010
C2031	C203	0.020800	0.429100	0.932140
H1211	H121	0.056310	0.448750	0.934310
C2041	C204	0.940300	0.305500	0.971000
C2051	C205	0.970100	0.283100	0.993320
H1221	H122	0.007230	0.293620	0.000090
C2061	C206	0.944000	0.200600	0.026900
C2071	C207	0.903700	0.162000	0.038650
H1231	H123	0.866160	0.162530	0.030440
C2081	C208	0.914800	0.121800	0.062230
H1241	H124	0.885120	0.097570	0.069410
C2091	C209	0.969600	0.119000	0.074310
C2101	C210	0.013000	0.157600	0.064570
H1251	H125	0.049630	0.157500	0.073850
C2111	C211	0.001100	0.197100	0.040270
H1261	H126	0.030900	0.221170	0.033020
C2121	C212	0.980200	0.075100	0.098300
Cu81	Cu8	0.515490	0.444180	0.638950
O291	O29	0.570400	0.467800	0.669960
O301	O30	0.544500	0.565300	0.670070
O311	O31	0.967100	0.929700	0.107940
O321	O32	0.061300	0.956950	0.107410
N431	N43	0.745600	0.568100	0.771600
N441	N44	0.747700	0.623400	0.785900
N451	N45	0.789000	0.618600	0.806000
N461	N46	0.108500	0.724300	0.967500
N471	N47	0.109600	0.766300	0.986700
N481	N48	0.064800	0.757700	0.004070
C2131	C213	0.575400	0.522700	0.679780
C2141	C214	0.621500	0.534800	0.702930
C2151	C215	0.653500	0.491300	0.713100
H1271	H127	0.649000	0.454000	0.704890
C2161	C216	0.692800	0.500200	0.735500
H1281	H128	0.715150	0.468850	0.742520
C2171	C217	0.700300	0.552100	0.747600
C2181	C218	0.668000	0.600700	0.738200
H1291	H129	0.672810	0.637680	0.746720
C2191	C219	0.628400	0.590100	0.715300
H1301	H130	0.605780	0.620860	0.707940
C2201	C220	0.784700	0.533500	0.786300
H1311	H131	0.789790	0.493530	0.783040
C2211	C221	0.815500	0.566900	0.806700
C2221	C222	0.860700	0.547700	0.826540
C2231	C223	0.885400	0.492200	0.826250
H1321	H132	0.872180	0.464400	0.812410
C2241	C224	0.927300	0.478700	0.845420
H1331	H133	0.943130	0.441180	0.844500
C2251	C225	0.950100	0.518500	0.867720
C2261	C226	0.925600	0.573400	0.867500
H1341	H134	0.940520	0.602330	0.880230
C2271	C227	0.877700	0.586300	0.848100
H1351	H135	0.857810	0.621660	0.850180
C2281	C228	0.017100	0.551700	0.910170
C2291	C229	0.071300	0.576600	0.910870
H1361	H136	0.099250	0.562720	0.897290
C2301	C230	0.087600	0.620900	0.930190
H1371	H137	0.125650	0.635520	0.929590
C2311	C231	0.048400	0.643200	0.950100
C2321	C232	0.990500	0.619100	0.951870
H1381	H138	0.962250	0.633900	0.965010
C2331	C233	0.979200	0.570900	0.932140
H1391	H139	0.943690	0.551250	0.934310
C2341	C234	0.059700	0.694500	0.971000
C2351	C235	0.029900	0.716900	0.993320
H1401	H140	0.992770	0.706380	0.000090
C2361	C236	0.056000	0.799400	0.026900
C2371	C237	0.096300	0.838000	0.038650
H1411	H141	0.133840	0.837470	0.030440
C2381	C238	0.085200	0.878200	0.062230
H1421	H142	0.114880	0.902430	0.069410
C2391	C239	0.030400	0.881000	0.074310
C2401	C240	0.987000	0.842400	0.064570
H1431	H143	0.950370	0.842500	0.073850
C2411	C241	0.998900	0.802900	0.040270
H1441	H144	0.969100	0.778830	0.033020
C2421	C242	0.019800	0.924900	0.098300
C2431	C243	0.000000	0.500000	0.389900
C2441	C244	0.000000	0.500000	0.889900
