data_NAVFUM_clean_PM
_symmetry_space_group_name_H-M	'P1'
_cell_length_a	7.728600
_cell_length_b	7.587400
_cell_length_c	17.981600
_cell_angle_alpha	90.000000
_cell_angle_beta	98.214000
_cell_angle_gamma	90.000000
_symmetry_Int_Tables_number 1

loop_
_symmetry_equiv_pos_as_xyz
'x,y,z'

loop_
_atom_site_label
_atom_site_type_symbol
_atom_site_fract_x
_atom_site_fract_y
_atom_site_fract_z
Fe11	Fe1	0.624590	0.938670	0.363130
Fe21	Fe2	0.724450	0.815280	0.692500
P11	P1	0.550160	0.071340	0.190100
H11	H1	0.658000	0.140300	0.201100
O11	O1	0.423100	0.179700	0.135550
O21	O2	0.207700	0.653800	0.123430
O31	O3	0.593400	0.961400	0.592930
O41	O4	0.479000	0.045500	0.264430
O51	O5	0.298900	0.090900	0.513940
O61	O6	0.154900	0.359200	0.201490
O71	O7	0.597300	0.901100	0.155130
O81	O8	0.897700	0.471700	0.224250
O91	O9	0.947600	0.752900	0.140860
C11	C1	0.036900	0.475300	0.196300
C21	C2	0.066800	0.641200	0.149500
C31	C3	0.586400	0.961800	0.521800
Fe31	Fe3	0.375410	0.438670	0.136870
Fe41	Fe4	0.275550	0.315280	0.807500
P21	P2	0.449840	0.571340	0.309900
H21	H2	0.342000	0.640300	0.298900
O101	O10	0.576900	0.679700	0.364450
O111	O11	0.792300	0.153800	0.376570
O121	O12	0.406600	0.461400	0.907070
O131	O13	0.521000	0.545500	0.235570
O141	O14	0.701100	0.590900	0.986060
O151	O15	0.845100	0.859200	0.298510
O161	O16	0.402700	0.401100	0.344870
O171	O17	0.102300	0.971700	0.275750
O181	O18	0.052400	0.252900	0.359140
C41	C4	0.963100	0.975300	0.303700
C51	C5	0.933200	0.141200	0.350500
C61	C6	0.413600	0.461800	0.978200
Fe51	Fe5	0.375410	0.061330	0.636870
Fe61	Fe6	0.275550	0.184720	0.307500
P31	P3	0.449840	0.928660	0.809900
H31	H3	0.342000	0.859700	0.798900
O191	O19	0.576900	0.820300	0.864450
O201	O20	0.792300	0.346200	0.876570
O211	O21	0.406600	0.038600	0.407070
O221	O22	0.521000	0.954500	0.735570
O231	O23	0.701100	0.909100	0.486060
O241	O24	0.845100	0.640800	0.798510
O251	O25	0.402700	0.098900	0.844870
O261	O26	0.102300	0.528300	0.775750
O271	O27	0.052400	0.247100	0.859140
C71	C7	0.963100	0.524700	0.803700
C81	C8	0.933200	0.358800	0.850500
C91	C9	0.413600	0.038200	0.478200
Fe71	Fe7	0.624590	0.561330	0.863130
Fe81	Fe8	0.724450	0.684720	0.192500
P41	P4	0.550160	0.428660	0.690100
H41	H4	0.658000	0.359700	0.701100
O281	O28	0.423100	0.320300	0.635550
O291	O29	0.207700	0.846200	0.623430
O301	O30	0.593400	0.538600	0.092930
O311	O31	0.479000	0.454500	0.764430
O321	O32	0.298900	0.409100	0.013940
O331	O33	0.154900	0.140800	0.701490
O341	O34	0.597300	0.598900	0.655130
O351	O35	0.897700	0.028300	0.724250
O361	O36	0.947600	0.747100	0.640860
C101	C10	0.036900	0.024700	0.696300
C111	C11	0.066800	0.858800	0.649500
C121	C12	0.586400	0.538200	0.021800
