data_NAVLIG_clean_PM
_symmetry_space_group_name_H-M	'P1'
_cell_length_a	17.398000
_cell_length_b	17.398000
_cell_length_c	8.080800
_cell_angle_alpha	90.000000
_cell_angle_beta	90.000000
_cell_angle_gamma	90.000000
_symmetry_Int_Tables_number 1

loop_
_symmetry_equiv_pos_as_xyz
'x,y,z'

loop_
_atom_site_label
_atom_site_type_symbol
_atom_site_fract_x
_atom_site_fract_y
_atom_site_fract_z
N11	N1	0.906900	0.998800	0.156200
N21	N2	0.591700	0.002700	0.101300
C11	C1	0.905800	0.947200	0.275300
H11	H1	0.938200	0.904800	0.267300
C21	C2	0.858900	0.953500	0.410300
H21	H2	0.865300	0.920500	0.499700
C31	C3	0.800100	0.010500	0.414600
C41	C4	0.804800	0.062400	0.285100
H31	H3	0.771100	0.103800	0.282100
C51	C5	0.858200	0.054200	0.160700
H41	H4	0.859000	0.090400	0.076100
C61	C6	0.746100	0.021100	0.549700
H51	H5	0.711900	0.062100	0.542000
C71	C7	0.741800	0.978100	0.679700
H61	H6	0.771800	0.933900	0.676800
C81	C8	0.696400	0.988700	0.831400
C91	C9	0.696100	0.936300	0.957100
H71	H7	0.729200	0.894300	0.955200
C101	C10	0.646200	0.946900	0.085700
H81	H8	0.649900	0.912100	0.172600
C111	C11	0.601300	0.055900	0.985000
H91	H9	0.570800	0.099700	0.991100
C121	C12	0.653000	0.051200	0.854700
H101	H10	0.657500	0.092400	0.782000
N31	N3	0.406900	0.498800	0.656200
N41	N4	0.091700	0.502700	0.601300
C131	C13	0.405800	0.447200	0.775300
H111	H11	0.438200	0.404800	0.767300
C141	C14	0.358900	0.453500	0.910300
H121	H12	0.365300	0.420500	0.999700
C151	C15	0.300100	0.510500	0.914600
C161	C16	0.304800	0.562400	0.785100
H131	H13	0.271100	0.603800	0.782100
C171	C17	0.358200	0.554200	0.660700
H141	H14	0.359000	0.590400	0.576100
C181	C18	0.246100	0.521100	0.049700
H151	H15	0.211900	0.562100	0.042000
C191	C19	0.241800	0.478100	0.179700
H161	H16	0.271800	0.433900	0.176800
C201	C20	0.196400	0.488700	0.331400
C211	C21	0.196100	0.436300	0.457100
H171	H17	0.229200	0.394300	0.455200
C221	C22	0.146200	0.446900	0.585700
H181	H18	0.149900	0.412100	0.672600
C231	C23	0.101300	0.555900	0.485000
H191	H19	0.070800	0.599700	0.491100
C241	C24	0.153000	0.551200	0.354700
H201	H20	0.157500	0.592400	0.282000
N51	N5	0.093100	0.001200	0.156200
N61	N6	0.408300	0.997300	0.101300
C251	C25	0.094200	0.052800	0.275300
H211	H21	0.061800	0.095200	0.267300
C261	C26	0.141100	0.046500	0.410300
H221	H22	0.134700	0.079500	0.499700
C271	C27	0.199900	0.989500	0.414600
C281	C28	0.195200	0.937600	0.285100
H231	H23	0.228900	0.896200	0.282100
C291	C29	0.141800	0.945800	0.160700
H241	H24	0.141000	0.909600	0.076100
C301	C30	0.253900	0.978900	0.549700
H251	H25	0.288100	0.937900	0.542000
C311	C31	0.258200	0.021900	0.679700
H261	H26	0.228200	0.066100	0.676800
C321	C32	0.303600	0.011300	0.831400
C331	C33	0.303900	0.063700	0.957100
H271	H27	0.270800	0.105700	0.955200
C341	C34	0.353800	0.053100	0.085700
H281	H28	0.350100	0.087900	0.172600
C351	C35	0.398700	0.944100	0.985000
H291	H29	0.429200	0.900300	0.991100
C361	C36	0.347000	0.948800	0.854700
H301	H30	0.342500	0.907600	0.782000
N71	N7	0.593100	0.501200	0.656200
N81	N8	0.908300	0.497300	0.601300
C371	C37	0.594200	0.552800	0.775300
H311	H31	0.561800	0.595200	0.767300
C381	C38	0.641100	0.546500	0.910300
H321	H32	0.634700	0.579500	0.999700
C391	C39	0.699900	0.489500	0.914600
C401	C40	0.695200	0.437600	0.785100
H331	H33	0.728900	0.396200	0.782100
C411	C41	0.641800	0.445800	0.660700
H341	H34	0.641000	0.409600	0.576100
C421	C42	0.753900	0.478900	0.049700
H351	H35	0.788100	0.437900	0.042000
C431	C43	0.758200	0.521900	0.179700
H361	H36	0.728200	0.566100	0.176800
C441	C44	0.803600	0.511300	0.331400
C451	C45	0.803900	0.563700	0.457100
H371	H37	0.770800	0.605700	0.455200
C461	C46	0.853800	0.553100	0.585700
H381	H38	0.850100	0.587900	0.672600
C471	C47	0.898700	0.444100	0.485000
H391	H39	0.929200	0.400300	0.491100
C481	C48	0.847000	0.448800	0.354700
H401	H40	0.842500	0.407600	0.282000
N91	N9	0.998800	0.093100	0.843800
N101	N10	0.002700	0.408300	0.898700
C491	C49	0.947200	0.094200	0.724700
H411	H41	0.904800	0.061800	0.732700
C501	C50	0.953500	0.141100	0.589700
H421	H42	0.920500	0.134700	0.500300
C511	C51	0.010500	0.199900	0.585400
C521	C52	0.062400	0.195200	0.714900
H431	H43	0.103800	0.228900	0.717900
C531	C53	0.054200	0.141800	0.839300
H441	H44	0.090400	0.141000	0.923900
C541	C54	0.021100	0.253900	0.450300
H451	H45	0.062100	0.288100	0.458000
C551	C55	0.978100	0.258200	0.320300
H461	H46	0.933900	0.228200	0.323200
C561	C56	0.988700	0.303600	0.168600
C571	C57	0.936300	0.303900	0.042900
H471	H47	0.894300	0.270800	0.044800
C581	C58	0.946900	0.353800	0.914300
H481	H48	0.912100	0.350100	0.827400
C591	C59	0.055900	0.398700	0.015000
H491	H49	0.099700	0.429200	0.008900
C601	C60	0.051200	0.347000	0.145300
H501	H50	0.092400	0.342500	0.218000
N111	N11	0.498800	0.593100	0.343800
N121	N12	0.502700	0.908300	0.398700
C611	C61	0.447200	0.594200	0.224700
H511	H51	0.404800	0.561800	0.232700
C621	C62	0.453500	0.641100	0.089700
H521	H52	0.420500	0.634700	0.000300
C631	C63	0.510500	0.699900	0.085400
C641	C64	0.562400	0.695200	0.214900
H531	H53	0.603800	0.728900	0.217900
C651	C65	0.554200	0.641800	0.339300
H541	H54	0.590400	0.641000	0.423900
C661	C66	0.521100	0.753900	0.950300
H551	H55	0.562100	0.788100	0.958000
C671	C67	0.478100	0.758200	0.820300
H561	H56	0.433900	0.728200	0.823200
C681	C68	0.488700	0.803600	0.668600
C691	C69	0.436300	0.803900	0.542900
H571	H57	0.394300	0.770800	0.544800
C701	C70	0.446900	0.853800	0.414300
H581	H58	0.412100	0.850100	0.327400
C711	C71	0.555900	0.898700	0.515000
H591	H59	0.599700	0.929200	0.508900
C721	C72	0.551200	0.847000	0.645300
H601	H60	0.592400	0.842500	0.718000
N131	N13	0.001200	0.906900	0.843800
N141	N14	0.997300	0.591700	0.898700
C731	C73	0.052800	0.905800	0.724700
H611	H61	0.095200	0.938200	0.732700
C741	C74	0.046500	0.858900	0.589700
H621	H62	0.079500	0.865300	0.500300
C751	C75	0.989500	0.800100	0.585400
C761	C76	0.937600	0.804800	0.714900
H631	H63	0.896200	0.771100	0.717900
C771	C77	0.945800	0.858200	0.839300
H641	H64	0.909600	0.859000	0.923900
C781	C78	0.978900	0.746100	0.450300
H651	H65	0.937900	0.711900	0.458000
C791	C79	0.021900	0.741800	0.320300
H661	H66	0.066100	0.771800	0.323200
C801	C80	0.011300	0.696400	0.168600
C811	C81	0.063700	0.696100	0.042900
H671	H67	0.105700	0.729200	0.044800
C821	C82	0.053100	0.646200	0.914300
H681	H68	0.087900	0.649900	0.827400
C831	C83	0.944100	0.601300	0.015000
H691	H69	0.900300	0.570800	0.008900
C841	C84	0.948800	0.653000	0.145300
H701	H70	0.907600	0.657500	0.218000
N151	N15	0.501200	0.406900	0.343800
N161	N16	0.497300	0.091700	0.398700
C851	C85	0.552800	0.405800	0.224700
H711	H71	0.595200	0.438200	0.232700
C861	C86	0.546500	0.358900	0.089700
H721	H72	0.579500	0.365300	0.000300
C871	C87	0.489500	0.300100	0.085400
C881	C88	0.437600	0.304800	0.214900
H731	H73	0.396200	0.271100	0.217900
C891	C89	0.445800	0.358200	0.339300
H741	H74	0.409600	0.359000	0.423900
C901	C90	0.478900	0.246100	0.950300
H751	H75	0.437900	0.211900	0.958000
C911	C91	0.521900	0.241800	0.820300
H761	H76	0.566100	0.271800	0.823200
C921	C92	0.511300	0.196400	0.668600
C931	C93	0.563700	0.196100	0.542900
H771	H77	0.605700	0.229200	0.544800
C941	C94	0.553100	0.146200	0.414300
H781	H78	0.587900	0.149900	0.327400
C951	C95	0.444100	0.101300	0.515000
H791	H79	0.400300	0.070800	0.508900
C961	C96	0.448800	0.153000	0.645300
H801	H80	0.407600	0.157500	0.718000
Cu11	Cu1	0.000000	0.000000	0.000000
Cu21	Cu2	0.500000	0.500000	0.500000
Cu31	Cu3	0.500000	0.000000	0.250000
Cu41	Cu4	0.000000	0.500000	0.750000
