data_NAWDUN_clean_PM
_symmetry_space_group_name_H-M	'P1'
_cell_length_a	18.405900
_cell_length_b	18.764500
_cell_length_c	34.521100
_cell_angle_alpha	90.000000
_cell_angle_beta	90.000000
_cell_angle_gamma	90.000000
_symmetry_Int_Tables_number 1

loop_
_symmetry_equiv_pos_as_xyz
'x,y,z'

loop_
_atom_site_label
_atom_site_type_symbol
_atom_site_fract_x
_atom_site_fract_y
_atom_site_fract_z
Cu11	Cu1	0.882210	0.271050	0.968630
Cu21	Cu2	0.618430	0.228530	0.531680
Cu31	Cu3	0.545180	0.289580	0.474550
Cu41	Cu4	0.955550	0.210610	0.025750
O11	O1	0.857100	0.188500	0.047900
O21	O2	0.558000	0.877000	0.493500
O31	O3	0.374200	0.826700	0.945360
O41	O4	0.135700	0.189600	0.550200
O51	O5	0.452200	0.194900	0.950700
O61	O6	0.204500	0.245700	0.501950
O71	O7	0.446900	0.872300	0.992830
O81	O8	0.551600	0.196800	0.447660
O91	O9	0.477700	0.213900	0.055170
O101	O10	0.463100	0.257000	0.505740
O111	O11	0.401300	0.140700	0.000950
O121	O12	0.805300	0.250800	0.003610
O131	O13	0.620300	0.823800	0.446900
O141	O14	0.603100	0.142900	0.500900
O151	O15	0.524500	0.218600	0.557380
O161	O16	0.539700	0.258800	0.004550
C11	C1	0.467700	0.225900	0.537700
C21	C2	0.713000	0.065500	0.157900
H11	H1	0.740900	0.046500	0.137900
C31	C3	0.619800	0.112800	0.215400
C41	C4	0.735700	0.200000	0.054200
C51	C5	0.411700	0.074500	0.944300
C61	C6	0.425000	0.131000	0.749700
C71	C7	0.395500	0.178200	0.595200
H21	H2	0.438700	0.173900	0.609000
C81	C8	0.395600	0.212400	0.555900
C91	C9	0.671200	0.221500	0.037600
H31	H3	0.670700	0.243900	0.013600
C101	C10	0.671400	0.159300	0.111800
C111	C11	0.589400	0.949000	0.442000
C121	C12	0.669000	0.057900	0.224200
C131	C13	0.606900	0.018500	0.383900
C141	C14	0.670000	0.127800	0.150000
C151	C15	0.412600	0.874900	0.961500
C161	C16	0.579400	0.069500	0.316100
H41	H4	0.541400	0.097000	0.325700
C171	C17	0.715100	0.030700	0.195400
H51	H5	0.745600	0.992200	0.200100
C181	C18	0.410100	0.009100	0.963100
H61	H6	0.414500	0.007500	0.989900
C191	C19	0.397200	0.078600	0.778900
C201	C20	0.338900	0.033700	0.763200
C211	C21	0.613400	0.017900	0.338800
C221	C22	0.806200	0.214900	0.035100
C231	C23	0.267700	0.201500	0.555600
C241	C24	0.575900	0.008900	0.462400
H71	H7	0.565400	0.006000	0.488700
C251	C25	0.336400	0.054400	0.720500
C261	C26	0.334200	0.154100	0.610300
C271	C27	0.604000	0.077700	0.279800
C281	C28	0.691500	0.982400	0.284200
H81	H8	0.726500	0.953200	0.273100
C291	C29	0.402000	0.945100	0.942200
C301	C30	0.379000	0.144300	0.679300
H91	H9	0.408200	0.183800	0.674400
C311	C31	0.621400	0.148000	0.178000
H101	H10	0.588900	0.184800	0.172900
C321	C32	0.397200	0.011400	0.881800
C331	C33	0.604200	0.951800	0.401500
H111	H11	0.611800	0.910300	0.387200
C341	C34	0.596200	0.078800	0.403800
H121	H12	0.600800	0.122600	0.391400
C351	C35	0.333600	0.224200	0.538300
H131	H13	0.332900	0.247500	0.514500
C361	C36	0.265700	0.169200	0.590700
H141	H14	0.221600	0.157000	0.602000
C371	C37	0.195600	0.211800	0.532700
C381	C38	0.287200	0.030700	0.691800
H151	H15	0.255800	0.993200	0.697200
C391	C39	0.333500	0.115900	0.649300
C401	C40	0.579600	0.210200	0.263300
H161	H16	0.557900	0.240900	0.243900
H171	H17	0.551300	0.215700	0.286900
C411	C41	0.415500	0.209900	0.761500
H181	H18	0.446600	0.218200	0.783700
H191	H19	0.434600	0.238600	0.740400
C421	C42	0.425000	0.141100	0.966500
C431	C43	0.602600	0.208100	0.058900
C441	C44	0.604600	0.178700	0.092500
H201	H20	0.560900	0.169400	0.105000
C451	C45	0.673700	0.979500	0.324300
H211	H21	0.701800	0.952100	0.341100
C461	C46	0.411600	0.077700	0.904300
H221	H22	0.420300	0.120500	0.891600
C471	C47	0.649800	0.035600	0.261600
C481	C48	0.285300	0.061800	0.656900
H231	H23	0.252100	0.047100	0.638200
C491	C49	0.327100	0.972200	0.822600
H241	H24	0.307400	0.934100	0.836300
C501	C50	0.390100	0.949200	0.902900
H251	H25	0.376500	0.907900	0.889800
C511	C51	0.410300	0.071700	0.819000
H261	H26	0.442900	0.103000	0.830600
C521	C52	0.570900	0.132200	0.249400
C531	C53	0.377200	0.021100	0.841600
C541	C54	0.578000	0.143700	0.466100
C551	C55	0.490100	0.123000	0.241400
H271	H27	0.462500	0.138400	0.263800
H281	H28	0.476300	0.152800	0.219600
C561	C56	0.505800	0.116100	0.742200
H291	H29	0.531000	0.127000	0.766200
H301	H30	0.521600	0.151200	0.723400
C571	C57	0.379600	0.115000	0.713300
C581	C58	0.535600	0.232700	0.038800
C591	C59	0.577500	0.076000	0.444100
C601	C60	0.309300	0.982500	0.784800
H311	H31	0.275000	0.952600	0.773600
C611	C61	0.471600	0.045900	0.232300
H321	H32	0.514100	0.019100	0.241400
C621	C62	0.535700	0.044200	0.728300
H331	H33	0.504000	0.003000	0.732900
C631	C63	0.592800	0.877500	0.462600
C641	C64	0.613400	0.037600	0.744800
H341	H34	0.636800	0.083900	0.745300
H351	H35	0.642300	0.005900	0.728800
C651	C65	0.562400	0.052900	0.686800
H361	H36	0.581400	0.008300	0.677700
H371	H37	0.522800	0.067600	0.670600
H381	H38	0.600000	0.088400	0.686100
C661	C66	0.408900	0.012700	0.253600
H391	H39	0.412500	0.023600	0.280700
H401	H40	0.364100	0.031400	0.243600
H411	H41	0.409900	0.962000	0.250100
C671	C67	0.469000	0.030700	0.189500
H421	H42	0.516000	0.009000	0.184700
H431	H43	0.434500	0.991700	0.187900
C681	C68	0.301600	0.202200	0.804200
H441	H44	0.254300	0.225000	0.803900
H451	H45	0.325600	0.220600	0.827100
C691	C69	0.308200	0.240400	0.731000
C701	C70	0.656100	0.238100	0.271500
H461	H46	0.688700	0.217700	0.252000
C711	C71	0.688500	0.222200	0.311300
H471	H47	0.695800	0.171300	0.314200
H481	H48	0.735300	0.245500	0.313800
C721	C72	0.657600	0.320200	0.266800
H491	H49	0.637700	0.332800	0.242000
H501	H50	0.629300	0.341800	0.286900
H511	H51	0.706900	0.336800	0.268400
C731	C73	0.638400	0.248500	0.341900
H521	H52	0.658700	0.238500	0.366900
H531	H53	0.631700	0.298900	0.339100
H541	H54	0.592300	0.224900	0.339500
C741	C74	0.606700	0.007300	0.786500
H551	H55	0.654200	0.002500	0.797700
H561	H56	0.578100	0.039200	0.802100
H571	H57	0.583500	0.961400	0.785600
C751	C75	0.455200	0.070400	0.152800
H581	H58	0.459200	0.038400	0.131200
H591	H59	0.407200	0.090400	0.153500
H601	H60	0.490200	0.108000	0.150200
C761	C76	0.283400	0.124600	0.815700
H611	H61	0.256200	0.124500	0.839400
H621	H62	0.255200	0.102800	0.795500
H631	H63	0.327700	0.098300	0.819200
C771	C77	0.341700	0.239200	0.771300
H641	H64	0.348700	0.288900	0.779200
C781	C78	0.733800	0.165400	0.092000
H651	H65	0.776500	0.147400	0.102600
Cu51	Cu5	0.617790	0.728950	0.468630
Cu61	Cu6	0.881570	0.771470	0.031680
Cu71	Cu7	0.954820	0.710420	0.974550
Cu81	Cu8	0.544450	0.789390	0.525750
O171	O17	0.642900	0.811500	0.547900
O181	O18	0.942000	0.123000	0.993500
O191	O19	0.125800	0.173300	0.445360
O201	O20	0.364300	0.810400	0.050200
O211	O21	0.047800	0.805100	0.450700
O221	O22	0.295500	0.754300	0.001950
O231	O23	0.053100	0.127700	0.492830
O241	O24	0.948400	0.803200	0.947660
O251	O25	0.022300	0.786100	0.555170
O261	O26	0.036900	0.743000	0.005740
O271	O27	0.098700	0.859300	0.500950
O281	O28	0.694700	0.749200	0.503610
O291	O29	0.879700	0.176200	0.946900
O301	O30	0.896900	0.857100	0.000900
O311	O31	0.975500	0.781400	0.057380
O321	O32	0.960300	0.741200	0.504550
C791	C79	0.032300	0.774100	0.037700
C801	C80	0.787000	0.934500	0.657900
H661	H66	0.759100	0.953500	0.637900
C811	C81	0.880200	0.887200	0.715400
C821	C82	0.764300	0.800000	0.554200
C831	C83	0.088300	0.925500	0.444300
C841	C84	0.075000	0.869000	0.249700
C851	C85	0.104500	0.821800	0.095200
H671	H67	0.061300	0.826100	0.109000
C861	C86	0.104400	0.787600	0.055900
C871	C87	0.828800	0.778500	0.537600
H681	H68	0.829300	0.756100	0.513600
C881	C88	0.828600	0.840700	0.611800
C891	C89	0.910600	0.051000	0.942000
C901	C90	0.831000	0.942100	0.724200
C911	C91	0.893100	0.981500	0.883900
C921	C92	0.830000	0.872200	0.650000
C931	C93	0.087400	0.125100	0.461500
C941	C94	0.920600	0.930500	0.816100
H691	H69	0.958600	0.903000	0.825700
C951	C95	0.784900	0.969300	0.695400
H701	H70	0.754400	0.007800	0.700100
C961	C96	0.089900	0.990900	0.463100
H711	H71	0.085500	0.992500	0.489900
C971	C97	0.102800	0.921400	0.278900
C981	C98	0.161100	0.966300	0.263200
C991	C99	0.886600	0.982100	0.838800
C1001	C100	0.693800	0.785100	0.535100
C1011	C101	0.232300	0.798500	0.055600
C1021	C102	0.924100	0.991100	0.962400
H721	H72	0.934600	0.994000	0.988700
C1031	C103	0.163600	0.945600	0.220500
C1041	C104	0.165800	0.845900	0.110300
C1051	C105	0.896000	0.922300	0.779800
C1061	C106	0.808500	0.017600	0.784200
H731	H73	0.773500	0.046800	0.773100
C1071	C107	0.098000	0.054900	0.442200
C1081	C108	0.121000	0.855700	0.179300
H741	H74	0.091800	0.816200	0.174400
C1091	C109	0.878600	0.852000	0.678000
H751	H75	0.911100	0.815200	0.672900
C1101	C110	0.102800	0.988600	0.381800
C1111	C111	0.895800	0.048200	0.901500
H761	H76	0.888200	0.089700	0.887200
C1121	C112	0.903800	0.921200	0.903800
H771	H77	0.899200	0.877400	0.891400
C1131	C113	0.166400	0.775800	0.038300
H781	H78	0.167100	0.752500	0.014500
C1141	C114	0.234300	0.830800	0.090700
H791	H79	0.278400	0.843000	0.102000
C1151	C115	0.304400	0.788200	0.032700
C1161	C116	0.212800	0.969300	0.191800
H801	H80	0.244200	0.006800	0.197200
C1171	C117	0.166500	0.884100	0.149300
C1181	C118	0.920400	0.789800	0.763300
H811	H81	0.942100	0.759100	0.743900
H821	H82	0.948700	0.784300	0.786900
C1191	C119	0.084500	0.790100	0.261500
H831	H83	0.053400	0.781800	0.283700
H841	H84	0.065400	0.761400	0.240400
C1201	C120	0.075000	0.858900	0.466500
C1211	C121	0.897400	0.791900	0.558900
C1221	C122	0.895400	0.821300	0.592500
H851	H85	0.939100	0.830600	0.605000
C1231	C123	0.826300	0.020500	0.824300
H861	H86	0.798200	0.047900	0.841100
C1241	C124	0.088400	0.922300	0.404300
H871	H87	0.079700	0.879500	0.391600
C1251	C125	0.850200	0.964400	0.761600
C1261	C126	0.214700	0.938200	0.156900
H881	H88	0.247900	0.952900	0.138200
C1271	C127	0.172900	0.027800	0.322600
H891	H89	0.192600	0.065900	0.336300
C1281	C128	0.109900	0.050800	0.402900
H901	H90	0.123500	0.092100	0.389800
C1291	C129	0.089700	0.928300	0.319000
H911	H91	0.057100	0.897000	0.330600
C1301	C130	0.929100	0.867800	0.749400
C1311	C131	0.122800	0.978900	0.341600
C1321	C132	0.922000	0.856300	0.966100
C1331	C133	0.009900	0.877000	0.741400
H921	H92	0.037500	0.861600	0.763800
H931	H93	0.023700	0.847200	0.719600
C1341	C134	0.994200	0.883900	0.242200
H941	H94	0.969000	0.873000	0.266200
H951	H95	0.978400	0.848800	0.223400
C1351	C135	0.120400	0.885000	0.213300
C1361	C136	0.964400	0.767300	0.538800
C1371	C137	0.922500	0.924000	0.944100
C1381	C138	0.190700	0.017500	0.284800
H961	H96	0.225000	0.047400	0.273600
C1391	C139	0.028400	0.954100	0.732300
H971	H97	0.985900	0.980900	0.741400
C1401	C140	0.964300	0.955800	0.228300
H981	H98	0.996000	0.997000	0.232900
C1411	C141	0.907200	0.122500	0.962600
C1421	C142	0.886600	0.962400	0.244800
H991	H99	0.863200	0.916100	0.245300
H1001	H100	0.857700	0.994100	0.228800
C1431	C143	0.937600	0.947100	0.186800
H1011	H101	0.918600	0.991700	0.177700
H1021	H102	0.977200	0.932400	0.170600
H1031	H103	0.900000	0.911600	0.186100
C1441	C144	0.091100	0.987300	0.753600
H1041	H104	0.087500	0.976400	0.780700
H1051	H105	0.135900	0.968600	0.743600
H1061	H106	0.090100	0.038000	0.750100
C1451	C145	0.031000	0.969300	0.689500
H1071	H107	0.984000	0.991000	0.684700
H1081	H108	0.065500	0.008300	0.687900
C1461	C146	0.198400	0.797800	0.304200
H1091	H109	0.245700	0.775000	0.303900
H1101	H110	0.174400	0.779400	0.327100
C1471	C147	0.191800	0.759600	0.231000
C1481	C148	0.843900	0.761900	0.771500
H1111	H111	0.811300	0.782300	0.752000
C1491	C149	0.811500	0.777800	0.811300
H1121	H112	0.804200	0.828700	0.814200
H1131	H113	0.764700	0.754500	0.813800
C1501	C150	0.842400	0.679800	0.766800
H1141	H114	0.862300	0.667200	0.742000
H1151	H115	0.870700	0.658200	0.786900
H1161	H116	0.793100	0.663200	0.768400
C1511	C151	0.861600	0.751500	0.841900
H1171	H117	0.841300	0.761500	0.866900
H1181	H118	0.868300	0.701100	0.839100
H1191	H119	0.907700	0.775100	0.839500
C1521	C152	0.893300	0.992700	0.286500
H1201	H120	0.845800	0.997500	0.297700
H1211	H121	0.921900	0.960800	0.302100
H1221	H122	0.916500	0.038600	0.285600
C1531	C153	0.044800	0.929600	0.652800
H1231	H123	0.040800	0.961600	0.631200
H1241	H124	0.092800	0.909600	0.653500
H1251	H125	0.009800	0.892000	0.650200
C1541	C154	0.216600	0.875400	0.315700
H1261	H126	0.243800	0.875500	0.339400
H1271	H127	0.244800	0.897200	0.295500
H1281	H128	0.172300	0.901700	0.319200
C1551	C155	0.158300	0.760800	0.271300
H1291	H129	0.151300	0.711100	0.279200
C1561	C156	0.766200	0.834600	0.592000
H1301	H130	0.723500	0.852600	0.602600
Cu91	Cu9	0.117790	0.771050	0.531370
Cu101	Cu10	0.381570	0.728530	0.968320
Cu111	Cu11	0.454820	0.789580	0.025450
Cu121	Cu12	0.044450	0.710610	0.474250
O331	O33	0.142900	0.688500	0.452100
O341	O34	0.442000	0.377000	0.006500
O351	O35	0.625800	0.326700	0.554640
O361	O36	0.864300	0.689600	0.949800
O371	O37	0.547800	0.694900	0.549300
O381	O38	0.795500	0.745700	0.998050
O391	O39	0.553100	0.372300	0.507170
O401	O40	0.448400	0.696800	0.052340
O411	O41	0.522300	0.713900	0.444830
O421	O42	0.536900	0.757000	0.994260
O431	O43	0.598700	0.640700	0.499050
O441	O44	0.194700	0.750800	0.496390
O451	O45	0.379700	0.323800	0.053100
O461	O46	0.396900	0.642900	0.999100
O471	O47	0.475500	0.718600	0.942620
O481	O48	0.460300	0.758800	0.495450
C1571	C157	0.532300	0.725900	0.962300
C1581	C158	0.287000	0.565500	0.342100
H1311	H131	0.259100	0.546500	0.362100
C1591	C159	0.380200	0.612800	0.284600
C1601	C160	0.264300	0.700000	0.445800
C1611	C161	0.588300	0.574500	0.555700
C1621	C162	0.575000	0.631000	0.750300
C1631	C163	0.604500	0.678200	0.904800
H1321	H132	0.561300	0.673900	0.891000
C1641	C164	0.604400	0.712400	0.944100
C1651	C165	0.328800	0.721500	0.462400
H1331	H133	0.329300	0.743900	0.486400
C1661	C166	0.328600	0.659300	0.388200
C1671	C167	0.410600	0.449000	0.058000
C1681	C168	0.331000	0.557900	0.275800
C1691	C169	0.393100	0.518500	0.116100
C1701	C170	0.330000	0.627800	0.350000
C1711	C171	0.587400	0.374900	0.538500
C1721	C172	0.420600	0.569500	0.183900
H1341	H134	0.458600	0.597000	0.174300
C1731	C173	0.284900	0.530700	0.304600
H1351	H135	0.254400	0.492200	0.299900
C1741	C174	0.589900	0.509100	0.536900
H1361	H136	0.585500	0.507500	0.510100
C1751	C175	0.602800	0.578600	0.721100
C1761	C176	0.661100	0.533700	0.736800
C1771	C177	0.386600	0.517900	0.161200
C1781	C178	0.193800	0.714900	0.464900
C1791	C179	0.732300	0.701500	0.944400
C1801	C180	0.424100	0.508900	0.037600
H1371	H137	0.434600	0.506000	0.011300
C1811	C181	0.663600	0.554400	0.779500
C1821	C182	0.665800	0.654100	0.889700
C1831	C183	0.396000	0.577700	0.220200
C1841	C184	0.308500	0.482400	0.215800
H1381	H138	0.273500	0.453200	0.226900
C1851	C185	0.598000	0.445100	0.557800
C1861	C186	0.621000	0.644300	0.820700
H1391	H139	0.591800	0.683800	0.825600
C1871	C187	0.378600	0.648000	0.322000
H1401	H140	0.411100	0.684800	0.327100
C1881	C188	0.602800	0.511400	0.618200
C1891	C189	0.395800	0.451800	0.098500
H1411	H141	0.388200	0.410300	0.112800
C1901	C190	0.403800	0.578800	0.096200
H1421	H142	0.399200	0.622600	0.108600
C1911	C191	0.666400	0.724200	0.961700
H1431	H143	0.667100	0.747500	0.985500
C1921	C192	0.734300	0.669200	0.909300
H1441	H144	0.778400	0.657000	0.898000
C1931	C193	0.804400	0.711800	0.967300
C1941	C194	0.712800	0.530700	0.808200
H1451	H145	0.744200	0.493200	0.802800
C1951	C195	0.666500	0.615900	0.850700
C1961	C196	0.420400	0.710200	0.236700
H1461	H146	0.442100	0.740900	0.256100
H1471	H147	0.448700	0.715700	0.213100
C1971	C197	0.584500	0.709900	0.738500
H1481	H148	0.553400	0.718200	0.716300
H1491	H149	0.565400	0.738600	0.759600
C1981	C198	0.575000	0.641100	0.533500
C1991	C199	0.397400	0.708100	0.441100
C2001	C200	0.395400	0.678700	0.407500
H1501	H150	0.439100	0.669400	0.395000
C2011	C201	0.326300	0.479500	0.175700
H1511	H151	0.298200	0.452100	0.158900
C2021	C202	0.588400	0.577700	0.595700
H1521	H152	0.579700	0.620500	0.608400
C2031	C203	0.350200	0.535600	0.238400
C2041	C204	0.714700	0.561800	0.843100
H1531	H153	0.747900	0.547100	0.861800
C2051	C205	0.672900	0.472200	0.677400
H1541	H154	0.692600	0.434100	0.663700
C2061	C206	0.609900	0.449200	0.597100
H1551	H155	0.623500	0.407900	0.610200
C2071	C207	0.589700	0.571700	0.681000
H1561	H156	0.557100	0.603000	0.669400
C2081	C208	0.429100	0.632200	0.250600
C2091	C209	0.622800	0.521100	0.658400
C2101	C210	0.422000	0.643700	0.033900
C2111	C211	0.509900	0.623000	0.258600
H1571	H157	0.537500	0.638400	0.236200
H1581	H158	0.523700	0.652800	0.280400
C2121	C212	0.494200	0.616100	0.757800
H1591	H159	0.469000	0.627000	0.733800
H1601	H160	0.478400	0.651200	0.776600
C2131	C213	0.620400	0.615000	0.786700
C2141	C214	0.464400	0.732700	0.461200
C2151	C215	0.422500	0.576000	0.055900
C2161	C216	0.690700	0.482500	0.715200
H1611	H161	0.725000	0.452600	0.726400
C2171	C217	0.528400	0.545900	0.267700
H1621	H162	0.485900	0.519100	0.258600
C2181	C218	0.464300	0.544200	0.771700
H1631	H163	0.496000	0.503000	0.767100
C2191	C219	0.407200	0.377500	0.037400
C2201	C220	0.386600	0.537600	0.755200
H1641	H164	0.363200	0.583900	0.754700
H1651	H165	0.357700	0.505900	0.771200
C2211	C221	0.437600	0.552900	0.813200
H1661	H166	0.418600	0.508300	0.822300
H1671	H167	0.477200	0.567600	0.829400
H1681	H168	0.400000	0.588400	0.813900
C2221	C222	0.591100	0.512700	0.246400
H1691	H169	0.587500	0.523600	0.219300
H1701	H170	0.635900	0.531400	0.256400
H1711	H171	0.590100	0.462000	0.249900
C2231	C223	0.531000	0.530700	0.310500
H1721	H172	0.484000	0.509000	0.315300
H1731	H173	0.565500	0.491700	0.312100
C2241	C224	0.698400	0.702200	0.695800
H1741	H174	0.745700	0.725000	0.696100
H1751	H175	0.674400	0.720600	0.672900
C2251	C225	0.691800	0.740400	0.769000
C2261	C226	0.343900	0.738100	0.228500
H1761	H176	0.311300	0.717700	0.248000
C2271	C227	0.311500	0.722200	0.188700
H1771	H177	0.304200	0.671300	0.185800
H1781	H178	0.264700	0.745500	0.186200
C2281	C228	0.342400	0.820200	0.233200
H1791	H179	0.362300	0.832800	0.258000
H1801	H180	0.370700	0.841800	0.213100
H1811	H181	0.293100	0.836800	0.231600
C2291	C229	0.361600	0.748500	0.158100
H1821	H182	0.341300	0.738500	0.133100
H1831	H183	0.368300	0.798900	0.160900
H1841	H184	0.407700	0.724900	0.160500
C2301	C230	0.393300	0.507300	0.713500
H1851	H185	0.345800	0.502500	0.702300
H1861	H186	0.421900	0.539200	0.697900
H1871	H187	0.416500	0.461400	0.714400
C2311	C231	0.544800	0.570400	0.347200
H1881	H188	0.540800	0.538400	0.368800
H1891	H189	0.592800	0.590400	0.346500
H1901	H190	0.509800	0.608000	0.349800
C2321	C232	0.716600	0.624600	0.684300
H1911	H191	0.743800	0.624500	0.660600
H1921	H192	0.744800	0.602800	0.704500
H1931	H193	0.672300	0.598300	0.680800
C2331	C233	0.658300	0.739200	0.728700
H1941	H194	0.651300	0.788900	0.720800
C2341	C234	0.266200	0.665400	0.408000
H1951	H195	0.223500	0.647400	0.397400
Cu131	Cu13	0.382210	0.228950	0.031370
Cu141	Cu14	0.118430	0.271470	0.468320
Cu151	Cu15	0.045180	0.210420	0.525450
Cu161	Cu16	0.455550	0.289390	0.974250
O491	O49	0.357100	0.311500	0.952100
O501	O50	0.058000	0.623000	0.506500
O511	O51	0.874200	0.673300	0.054640
O521	O52	0.635700	0.310400	0.449800
O531	O53	0.952200	0.305100	0.049300
O541	O54	0.704500	0.254300	0.498050
O551	O55	0.946900	0.627700	0.007170
O561	O56	0.051600	0.303200	0.552340
O571	O57	0.977700	0.286100	0.944830
O581	O58	0.963100	0.243000	0.494260
O591	O59	0.901300	0.359300	0.999050
O601	O60	0.305300	0.249200	0.996390
O611	O61	0.120300	0.676200	0.553100
O621	O62	0.103100	0.357100	0.499100
O631	O63	0.024500	0.281400	0.442620
O641	O64	0.039700	0.241200	0.995450
C2351	C235	0.967700	0.274100	0.462300
C2361	C236	0.213000	0.434500	0.842100
H1961	H196	0.240900	0.453500	0.862100
C2371	C237	0.119800	0.387200	0.784600
C2381	C238	0.235700	0.300000	0.945800
C2391	C239	0.911700	0.425500	0.055700
C2401	C240	0.925000	0.369000	0.250300
C2411	C241	0.895500	0.321800	0.404800
H1971	H197	0.938700	0.326100	0.391000
C2421	C242	0.895600	0.287600	0.444100
C2431	C243	0.171200	0.278500	0.962400
H1981	H198	0.170700	0.256100	0.986400
C2441	C244	0.171400	0.340700	0.888200
C2451	C245	0.089400	0.551000	0.558000
C2461	C246	0.169000	0.442100	0.775800
C2471	C247	0.106900	0.481500	0.616100
C2481	C248	0.170000	0.372200	0.850000
C2491	C249	0.912600	0.625100	0.038500
C2501	C250	0.079400	0.430500	0.683900
H1991	H199	0.041400	0.403000	0.674300
C2511	C251	0.215100	0.469300	0.804600
H2001	H200	0.245600	0.507800	0.799900
C2521	C252	0.910100	0.490900	0.036900
H2011	H201	0.914500	0.492500	0.010100
C2531	C253	0.897200	0.421400	0.221100
C2541	C254	0.838900	0.466300	0.236800
C2551	C255	0.113400	0.482100	0.661200
C2561	C256	0.306200	0.285100	0.964900
C2571	C257	0.767700	0.298500	0.444400
C2581	C258	0.075900	0.491100	0.537600
H2021	H202	0.065400	0.494000	0.511300
C2591	C259	0.836400	0.445600	0.279500
C2601	C260	0.834200	0.345900	0.389700
C2611	C261	0.104000	0.422300	0.720200
C2621	C262	0.191500	0.517600	0.715800
H2031	H203	0.226500	0.546800	0.726900
C2631	C263	0.902000	0.554900	0.057800
C2641	C264	0.879000	0.355700	0.320700
H2041	H204	0.908200	0.316200	0.325600
C2651	C265	0.121400	0.352000	0.822000
H2051	H205	0.088900	0.315200	0.827100
C2661	C266	0.897200	0.488600	0.118200
C2671	C267	0.104200	0.548200	0.598500
H2061	H206	0.111800	0.589700	0.612800
C2681	C268	0.096200	0.421200	0.596200
H2071	H207	0.100800	0.377400	0.608600
C2691	C269	0.833600	0.275800	0.461700
H2081	H208	0.832900	0.252500	0.485500
C2701	C270	0.765700	0.330800	0.409300
H2091	H209	0.721600	0.343000	0.398000
C2711	C271	0.695600	0.288200	0.467300
C2721	C272	0.787200	0.469300	0.308200
H2101	H210	0.755800	0.506800	0.302800
C2731	C273	0.833500	0.384100	0.350700
C2741	C274	0.079600	0.289800	0.736700
H2111	H211	0.057900	0.259100	0.756100
H2121	H212	0.051300	0.284300	0.713100
C2751	C275	0.915500	0.290100	0.238500
H2131	H213	0.946600	0.281800	0.216300
H2141	H214	0.934600	0.261400	0.259600
C2761	C276	0.925000	0.358900	0.033500
C2771	C277	0.102600	0.291900	0.941100
C2781	C278	0.104600	0.321300	0.907500
H2151	H215	0.060900	0.330600	0.895000
C2791	C279	0.173700	0.520500	0.675700
H2161	H216	0.201800	0.547900	0.658900
C2801	C280	0.911600	0.422300	0.095700
H2171	H217	0.920300	0.379500	0.108400
C2811	C281	0.149800	0.464400	0.738400
C2821	C282	0.785300	0.438200	0.343100
H2181	H218	0.752100	0.452900	0.361800
C2831	C283	0.827100	0.527800	0.177400
H2191	H219	0.807400	0.565900	0.163700
C2841	C284	0.890100	0.550800	0.097100
H2201	H220	0.876500	0.592100	0.110200
C2851	C285	0.910300	0.428300	0.181000
H2211	H221	0.942900	0.397000	0.169400
C2861	C286	0.070900	0.367800	0.750600
C2871	C287	0.877200	0.478900	0.158400
C2881	C288	0.078000	0.356300	0.533900
C2891	C289	0.990100	0.377000	0.758600
H2221	H222	0.962500	0.361600	0.736200
H2231	H223	0.976300	0.347200	0.780400
C2901	C290	0.005800	0.383900	0.257800
H2241	H224	0.031000	0.373000	0.233800
H2251	H225	0.021600	0.348800	0.276600
C2911	C291	0.879600	0.385000	0.286700
C2921	C292	0.035600	0.267300	0.961200
C2931	C293	0.077500	0.424000	0.555900
C2941	C294	0.809300	0.517500	0.215200
H2261	H226	0.775000	0.547400	0.226400
C2951	C295	0.971600	0.454100	0.767700
H2271	H227	0.014100	0.480900	0.758600
C2961	C296	0.035700	0.455800	0.271700
H2281	H228	0.004000	0.497000	0.267100
C2971	C297	0.092800	0.622500	0.537400
C2981	C298	0.113400	0.462400	0.255200
H2291	H229	0.136800	0.416100	0.254700
H2301	H230	0.142300	0.494100	0.271200
C2991	C299	0.062400	0.447100	0.313200
H2311	H231	0.081400	0.491700	0.322300
H2321	H232	0.022800	0.432400	0.329400
H2331	H233	0.100000	0.411600	0.313900
C3001	C300	0.908900	0.487300	0.746400
H2341	H234	0.912500	0.476400	0.719300
H2351	H235	0.864100	0.468600	0.756400
H2361	H236	0.909900	0.538000	0.749900
C3011	C301	0.969000	0.469300	0.810500
H2371	H237	0.016000	0.491000	0.815300
H2381	H238	0.934500	0.508300	0.812100
C3021	C302	0.801600	0.297800	0.195800
H2391	H239	0.754300	0.275000	0.196100
H2401	H240	0.825600	0.279400	0.172900
C3031	C303	0.808200	0.259600	0.269000
C3041	C304	0.156100	0.261900	0.728500
H2411	H241	0.188700	0.282300	0.748000
C3051	C305	0.188500	0.277800	0.688700
H2421	H242	0.195800	0.328700	0.685800
H2431	H243	0.235300	0.254500	0.686200
C3061	C306	0.157600	0.179800	0.733200
H2441	H244	0.137700	0.167200	0.758000
H2451	H245	0.129300	0.158200	0.713100
H2461	H246	0.206900	0.163200	0.731600
C3071	C307	0.138400	0.251500	0.658100
H2471	H247	0.158700	0.261500	0.633100
H2481	H248	0.131700	0.201100	0.660900
H2491	H249	0.092300	0.275100	0.660500
C3081	C308	0.106700	0.492700	0.213500
H2501	H250	0.154200	0.497500	0.202300
H2511	H251	0.078100	0.460800	0.197900
H2521	H252	0.083500	0.538600	0.214400
C3091	C309	0.955200	0.429600	0.847200
H2531	H253	0.959200	0.461600	0.868800
H2541	H254	0.907200	0.409600	0.846500
H2551	H255	0.990200	0.392000	0.849800
C3101	C310	0.783400	0.375400	0.184300
H2561	H256	0.756200	0.375500	0.160600
H2571	H257	0.755200	0.397200	0.204500
H2581	H258	0.827700	0.401700	0.180800
C3111	C311	0.841700	0.260800	0.228700
H2591	H259	0.848700	0.211100	0.220800
C3121	C312	0.233800	0.334600	0.908000
H2601	H260	0.276500	0.352600	0.897400
