data_NAWWUG_clean_PM
_symmetry_space_group_name_H-M	'P1'
_cell_length_a	20.395000
_cell_length_b	6.941000
_cell_length_c	20.070000
_cell_angle_alpha	90.000000
_cell_angle_beta	119.180000
_cell_angle_gamma	90.000000
_symmetry_Int_Tables_number 1

loop_
_symmetry_equiv_pos_as_xyz
'x,y,z'

loop_
_atom_site_label
_atom_site_type_symbol
_atom_site_fract_x
_atom_site_fract_y
_atom_site_fract_z
Ni11	Ni1	0.420710	0.510440	0.130410
O11	O1	0.434000	0.488800	0.532900
O21	O2	0.321800	0.484200	0.521100
C11	C1	0.364800	0.484800	0.491200
C21	C2	0.331400	0.482500	0.405100
C31	C3	0.378100	0.493200	0.374300
H11	H1	0.431000	0.500900	0.406200
C41	C4	0.255900	0.465000	0.361300
H21	H2	0.225500	0.455700	0.385000
O31	O3	0.364600	0.506700	0.188200
O41	O4	0.465200	0.511400	0.303500
O51	O5	0.106900	0.404000	0.275300
O61	O6	0.105400	0.457700	0.165700
C51	C5	0.397200	0.505300	0.261300
C61	C6	0.346600	0.492700	0.295100
C71	C7	0.268700	0.476600	0.249100
H31	H3	0.247600	0.476700	0.195100
C81	C8	0.221700	0.460300	0.281000
C91	C9	0.139200	0.439600	0.237300
C101	C10	0.479900	0.107800	0.142100
H41	H4	0.523700	0.174400	0.149700
N11	N1	0.419600	0.211200	0.131100
N21	N2	0.421100	0.805900	0.132400
C111	C11	0.480700	0.914500	0.142900
H51	H5	0.525200	0.850600	0.151100
C121	C12	0.363500	0.913600	0.126800
H61	H6	0.320900	0.849000	0.123400
C131	C13	0.363100	0.106500	0.125700
H71	H7	0.319900	0.171500	0.120700
C141	C14	0.055400	0.002100	0.307700
H81	H8	0.095000	0.068300	0.349300
C151	C15	0.053600	0.801200	0.305600
H91	H9	0.093600	0.735100	0.346800
Ni21	Ni2	0.579290	0.510440	0.369590
O71	O7	0.566000	0.488800	0.967100
O81	O8	0.678200	0.484200	0.978900
C161	C16	0.635200	0.484800	0.008800
C171	C17	0.668600	0.482500	0.094900
C181	C18	0.621900	0.493200	0.125700
H101	H10	0.569000	0.500900	0.093800
C191	C19	0.744100	0.465000	0.138700
H111	H11	0.774500	0.455700	0.115000
O91	O9	0.635400	0.506700	0.311800
O101	O10	0.534800	0.511400	0.196500
O111	O11	0.893100	0.404000	0.224700
O121	O12	0.894600	0.457700	0.334300
C201	C20	0.602800	0.505300	0.238700
C211	C21	0.653400	0.492700	0.204900
C221	C22	0.731300	0.476600	0.250900
H121	H12	0.752400	0.476700	0.304900
C231	C23	0.778300	0.460300	0.219000
C241	C24	0.860800	0.439600	0.262700
C251	C25	0.520100	0.107800	0.357900
H131	H13	0.476300	0.174400	0.350300
N31	N3	0.580400	0.211200	0.368900
N41	N4	0.578900	0.805900	0.367600
C261	C26	0.519300	0.914500	0.357100
H141	H14	0.474800	0.850600	0.348900
C271	C27	0.636500	0.913600	0.373200
H151	H15	0.679100	0.849000	0.376600
C281	C28	0.636900	0.106500	0.374300
H161	H16	0.680100	0.171500	0.379300
C291	C29	0.944600	0.002100	0.192300
H171	H17	0.905000	0.068300	0.150700
C301	C30	0.946400	0.801200	0.194400
H181	H18	0.906400	0.735100	0.153200
Ni31	Ni3	0.579290	0.489560	0.869590
O131	O13	0.566000	0.511200	0.467100
O141	O14	0.678200	0.515800	0.478900
C311	C31	0.635200	0.515200	0.508800
C321	C32	0.668600	0.517500	0.594900
C331	C33	0.621900	0.506800	0.625700
H191	H19	0.569000	0.499100	0.593800
C341	C34	0.744100	0.535000	0.638700
H201	H20	0.774500	0.544300	0.615000
O151	O15	0.635400	0.493300	0.811800
O161	O16	0.534800	0.488600	0.696500
O171	O17	0.893100	0.596000	0.724700
O181	O18	0.894600	0.542300	0.834300
C351	C35	0.602800	0.494700	0.738700
C361	C36	0.653400	0.507300	0.704900
C371	C37	0.731300	0.523400	0.750900
H211	H21	0.752400	0.523300	0.804900
C381	C38	0.778300	0.539700	0.719000
C391	C39	0.860800	0.560400	0.762700
C401	C40	0.520100	0.892200	0.857900
H221	H22	0.476300	0.825600	0.850300
N51	N5	0.580400	0.788800	0.868900
N61	N6	0.578900	0.194100	0.867600
C411	C41	0.519300	0.085500	0.857100
H231	H23	0.474800	0.149400	0.848900
C421	C42	0.636500	0.086400	0.873200
H241	H24	0.679100	0.151000	0.876600
C431	C43	0.636900	0.893500	0.874300
H251	H25	0.680100	0.828500	0.879300
C441	C44	0.944600	0.997900	0.692300
H261	H26	0.905000	0.931700	0.650700
C451	C45	0.946400	0.198800	0.694400
H271	H27	0.906400	0.264900	0.653200
Ni41	Ni4	0.420710	0.489560	0.630410
O191	O19	0.434000	0.511200	0.032900
O201	O20	0.321800	0.515800	0.021100
C461	C46	0.364800	0.515200	0.991200
C471	C47	0.331400	0.517500	0.905100
C481	C48	0.378100	0.506800	0.874300
H281	H28	0.431000	0.499100	0.906200
C491	C49	0.255900	0.535000	0.861300
H291	H29	0.225500	0.544300	0.885000
O211	O21	0.364600	0.493300	0.688200
O221	O22	0.465200	0.488600	0.803500
O231	O23	0.106900	0.596000	0.775300
O241	O24	0.105400	0.542300	0.665700
C501	C50	0.397200	0.494700	0.761300
C511	C51	0.346600	0.507300	0.795100
C521	C52	0.268700	0.523400	0.749100
H301	H30	0.247600	0.523300	0.695100
C531	C53	0.221700	0.539700	0.781000
C541	C54	0.139200	0.560400	0.737300
C551	C55	0.479900	0.892200	0.642100
H311	H31	0.523700	0.825600	0.649700
N71	N7	0.419600	0.788800	0.631100
N81	N8	0.421100	0.194100	0.632400
C561	C56	0.480700	0.085500	0.642900
H321	H32	0.525200	0.149400	0.651100
C571	C57	0.363500	0.086400	0.626800
H331	H33	0.320900	0.151000	0.623400
C581	C58	0.363100	0.893500	0.625700
H341	H34	0.319900	0.828500	0.620700
C591	C59	0.055400	0.997900	0.807700
H351	H35	0.095000	0.931700	0.849300
C601	C60	0.053600	0.198800	0.805600
H361	H36	0.093600	0.264900	0.846800
Ni51	Ni5	0.000000	0.402300	0.250000
N91	N9	0.000000	0.100200	0.250000
N101	N10	0.000000	0.692900	0.250000
Ni61	Ni6	0.000000	0.597700	0.750000
N111	N11	0.000000	0.899800	0.750000
N121	N12	0.000000	0.307100	0.750000
