data_NAYGUR_clean_PM
_symmetry_space_group_name_H-M	'P1'
_cell_length_a	6.967600
_cell_length_b	17.411300
_cell_length_c	18.627800
_cell_angle_alpha	90.000000
_cell_angle_beta	90.000000
_cell_angle_gamma	90.000000
_symmetry_Int_Tables_number 1

loop_
_symmetry_equiv_pos_as_xyz
'x,y,z'

loop_
_atom_site_label
_atom_site_type_symbol
_atom_site_fract_x
_atom_site_fract_y
_atom_site_fract_z
C11	C1	0.912000	0.604670	0.589880
H11	H1	0.785500	0.589100	0.602200
C21	C2	0.218700	0.607260	0.579360
H21	H2	0.350500	0.593800	0.583000
C31	C3	0.089200	0.388500	0.905350
H31	H3	0.213700	0.401200	0.888300
C41	C4	0.783500	0.391170	0.924350
H41	H4	0.652300	0.406000	0.923000
C51	C5	0.905400	0.493620	0.841500
H51	H5	0.996800	0.534300	0.855800
H61	H6	0.773800	0.514500	0.846100
C61	C6	0.941400	0.471780	0.764880
H71	H7	0.874400	0.429200	0.745100
C71	C7	0.062700	0.509630	0.724300
H81	H8	0.137300	0.549300	0.745400
C81	C8	0.088200	0.492960	0.646560
H91	H9	0.215500	0.469300	0.638300
H101	H10	0.988500	0.456400	0.630300
N11	N1	0.956600	0.667960	0.555180
N21	N2	0.072800	0.565550	0.605180
N31	N3	0.047600	0.330360	0.947880
N41	N4	0.927200	0.426960	0.889950
N51	N5	0.152300	0.669910	0.548150
N61	N6	0.853000	0.332500	0.960150
Cu11	Cu1	0.707790	0.250640	0.008220
C91	C9	0.588000	0.395330	0.089880
H111	H11	0.714500	0.410900	0.102200
C101	C10	0.281300	0.392740	0.079360
H121	H12	0.149500	0.406200	0.083000
C111	C11	0.410800	0.611500	0.405350
H131	H13	0.286300	0.598800	0.388300
C121	C12	0.716500	0.608830	0.424350
H141	H14	0.847700	0.594000	0.423000
C131	C13	0.594600	0.506380	0.341500
H151	H15	0.503200	0.465700	0.355800
H161	H16	0.726200	0.485500	0.346100
C141	C14	0.558600	0.528220	0.264880
H171	H17	0.625600	0.570800	0.245100
C151	C15	0.437300	0.490370	0.224300
H181	H18	0.362700	0.450700	0.245400
C161	C16	0.411800	0.507040	0.146560
H191	H19	0.284500	0.530700	0.138300
H201	H20	0.511500	0.543600	0.130300
N71	N7	0.543400	0.332040	0.055180
N81	N8	0.427200	0.434450	0.105180
N91	N9	0.452400	0.669640	0.447880
N101	N10	0.572800	0.573040	0.389950
N111	N11	0.347700	0.330090	0.048150
N121	N12	0.647000	0.667500	0.460150
Cu21	Cu2	0.792210	0.749360	0.508220
C171	C17	0.088000	0.104670	0.910120
H211	H21	0.214500	0.089100	0.897800
C181	C18	0.781300	0.107260	0.920640
H221	H22	0.649500	0.093800	0.917000
C191	C19	0.910800	0.888500	0.594650
H231	H23	0.786300	0.901200	0.611700
C201	C20	0.216500	0.891170	0.575650
H241	H24	0.347700	0.906000	0.577000
C211	C21	0.094600	0.993620	0.658500
H251	H25	0.003200	0.034300	0.644200
H261	H26	0.226200	0.014500	0.653900
C221	C22	0.058600	0.971780	0.735120
H271	H27	0.125600	0.929200	0.754900
C231	C23	0.937300	0.009630	0.775700
H281	H28	0.862700	0.049300	0.754600
C241	C24	0.911800	0.992960	0.853440
H291	H29	0.784500	0.969300	0.861700
H301	H30	0.011500	0.956400	0.869700
N131	N13	0.043400	0.167960	0.944820
N141	N14	0.927200	0.065550	0.894820
N151	N15	0.952400	0.830360	0.552120
N161	N16	0.072800	0.926960	0.610050
N171	N17	0.847700	0.169910	0.951850
N181	N18	0.147000	0.832500	0.539850
Cu31	Cu3	0.292210	0.750640	0.491780
C251	C25	0.412000	0.895330	0.410120
H311	H31	0.285500	0.910900	0.397800
C261	C26	0.718700	0.892740	0.420640
H321	H32	0.850500	0.906200	0.417000
C271	C27	0.589200	0.111500	0.094650
H331	H33	0.713700	0.098800	0.111700
C281	C28	0.283500	0.108830	0.075650
H341	H34	0.152300	0.094000	0.077000
C291	C29	0.405400	0.006380	0.158500
H351	H35	0.496800	0.965700	0.144200
H361	H36	0.273800	0.985500	0.153900
C301	C30	0.441400	0.028220	0.235120
H371	H37	0.374400	0.070800	0.254900
C311	C31	0.562700	0.990370	0.275700
H381	H38	0.637300	0.950700	0.254600
C321	C32	0.588200	0.007040	0.353440
H391	H39	0.715500	0.030700	0.361700
H401	H40	0.488500	0.043600	0.369700
N191	N19	0.456600	0.832040	0.444820
N201	N20	0.572800	0.934450	0.394820
N211	N21	0.547600	0.169640	0.052120
N221	N22	0.427200	0.073040	0.110050
N231	N23	0.652300	0.830090	0.451850
N241	N24	0.353000	0.167500	0.039850
Cu41	Cu4	0.207790	0.249360	0.991780
