data_NAYZOE_clean_PM
_symmetry_space_group_name_H-M	'P1'
_cell_length_a	23.211000
_cell_length_b	23.211000
_cell_length_c	23.211000
_cell_angle_alpha	90.000000
_cell_angle_beta	90.000000
_cell_angle_gamma	90.000000
_symmetry_Int_Tables_number 1

loop_
_symmetry_equiv_pos_as_xyz
'x,y,z'

loop_
_atom_site_label
_atom_site_type_symbol
_atom_site_fract_x
_atom_site_fract_y
_atom_site_fract_z
Cu11	Cu1	0.693520	0.500000	0.000000
Cu21	Cu2	0.306480	0.500000	0.000000
Cu31	Cu3	0.000000	0.693520	0.500000
Cu41	Cu4	0.000000	0.306480	0.500000
Cu51	Cu5	0.500000	0.000000	0.693520
Cu61	Cu6	0.500000	0.000000	0.306480
Cu71	Cu7	0.000000	0.193520	0.500000
Cu81	Cu8	0.000000	0.806480	0.500000
Cu91	Cu9	0.193520	0.500000	0.000000
Cu101	Cu10	0.806480	0.500000	0.000000
Cu111	Cu11	0.500000	0.000000	0.806480
Cu121	Cu12	0.500000	0.000000	0.193520
H11	H1	0.665500	0.629800	0.871100
H21	H2	0.664800	0.695700	0.796700
H31	H3	0.334500	0.370200	0.871100
H41	H4	0.335200	0.304300	0.796700
H51	H5	0.334500	0.629800	0.128900
H61	H6	0.335200	0.695700	0.203300
H71	H7	0.665500	0.370200	0.128900
H81	H8	0.664800	0.304300	0.203300
H91	H9	0.871100	0.665500	0.629800
H101	H10	0.796700	0.664800	0.695700
H111	H11	0.871100	0.334500	0.370200
H121	H12	0.796700	0.335200	0.304300
H131	H13	0.128900	0.334500	0.629800
H141	H14	0.203300	0.335200	0.695700
H151	H15	0.128900	0.665500	0.370200
H161	H16	0.203300	0.664800	0.304300
H171	H17	0.629800	0.871100	0.665500
H181	H18	0.695700	0.796700	0.664800
H191	H19	0.370200	0.871100	0.334500
H201	H20	0.304300	0.796700	0.335200
H211	H21	0.629800	0.128900	0.334500
H221	H22	0.695700	0.203300	0.335200
H231	H23	0.370200	0.128900	0.665500
H241	H24	0.304300	0.203300	0.664800
H251	H25	0.129800	0.165500	0.628900
H261	H26	0.195700	0.164800	0.703300
H271	H27	0.870200	0.834500	0.628900
H281	H28	0.804300	0.835200	0.703300
H291	H29	0.129800	0.834500	0.371100
H301	H30	0.195700	0.835200	0.296700
H311	H31	0.870200	0.165500	0.371100
H321	H32	0.804300	0.164800	0.296700
H331	H33	0.165500	0.371100	0.870200
H341	H34	0.164800	0.296700	0.804300
H351	H35	0.834500	0.371100	0.129800
H361	H36	0.835200	0.296700	0.195700
H371	H37	0.834500	0.628900	0.870200
H381	H38	0.835200	0.703300	0.804300
H391	H39	0.165500	0.628900	0.129800
H401	H40	0.164800	0.703300	0.195700
H411	H41	0.371100	0.129800	0.834500
H421	H42	0.296700	0.195700	0.835200
H431	H43	0.371100	0.870200	0.165500
H441	H44	0.296700	0.804300	0.164800
H451	H45	0.628900	0.129800	0.165500
H461	H46	0.703300	0.195700	0.164800
H471	H47	0.628900	0.870200	0.834500
H481	H48	0.703300	0.804300	0.835200
H491	H49	0.334500	0.370200	0.128900
H501	H50	0.335200	0.304300	0.203300
H511	H51	0.665500	0.629800	0.128900
H521	H52	0.664800	0.695700	0.203300
H531	H53	0.665500	0.370200	0.871100
H541	H54	0.664800	0.304300	0.796700
H551	H55	0.334500	0.629800	0.871100
H561	H56	0.335200	0.695700	0.796700
H571	H57	0.128900	0.334500	0.370200
H581	H58	0.203300	0.335200	0.304300
H591	H59	0.128900	0.665500	0.629800
H601	H60	0.203300	0.664800	0.695700
H611	H61	0.871100	0.665500	0.370200
H621	H62	0.796700	0.664800	0.304300
H631	H63	0.871100	0.334500	0.629800
H641	H64	0.796700	0.335200	0.695700
H651	H65	0.370200	0.128900	0.334500
H661	H66	0.304300	0.203300	0.335200
H671	H67	0.629800	0.128900	0.665500
H681	H68	0.695700	0.203300	0.664800
H691	H69	0.370200	0.871100	0.665500
H701	H70	0.304300	0.796700	0.664800
H711	H71	0.629800	0.871100	0.334500
H721	H72	0.695700	0.796700	0.335200
H731	H73	0.870200	0.834500	0.371100
H741	H74	0.804300	0.835200	0.296700
H751	H75	0.129800	0.165500	0.371100
H761	H76	0.195700	0.164800	0.296700
H771	H77	0.870200	0.165500	0.628900
H781	H78	0.804300	0.164800	0.703300
H791	H79	0.129800	0.834500	0.628900
H801	H80	0.195700	0.835200	0.703300
H811	H81	0.834500	0.628900	0.129800
H821	H82	0.835200	0.703300	0.195700
H831	H83	0.165500	0.628900	0.870200
H841	H84	0.164800	0.703300	0.804300
H851	H85	0.165500	0.371100	0.129800
H861	H86	0.164800	0.296700	0.195700
H871	H87	0.834500	0.371100	0.870200
H881	H88	0.835200	0.296700	0.804300
H891	H89	0.628900	0.870200	0.165500
H901	H90	0.703300	0.804300	0.164800
H911	H91	0.628900	0.129800	0.834500
H921	H92	0.703300	0.195700	0.835200
H931	H93	0.371100	0.870200	0.834500
H941	H94	0.296700	0.804300	0.835200
H951	H95	0.371100	0.129800	0.165500
H961	H96	0.296700	0.195700	0.164800
C11	C1	0.700400	0.642800	0.856500
C21	C2	0.699700	0.684000	0.812600
C31	C3	0.299600	0.357200	0.856500
C41	C4	0.300300	0.316000	0.812600
C51	C5	0.299600	0.642800	0.143500
C61	C6	0.300300	0.684000	0.187400
C71	C7	0.700400	0.357200	0.143500
C81	C8	0.699700	0.316000	0.187400
C91	C9	0.856500	0.700400	0.642800
C101	C10	0.812600	0.699700	0.684000
C111	C11	0.856500	0.299600	0.357200
C121	C12	0.812600	0.300300	0.316000
C131	C13	0.143500	0.299600	0.642800
C141	C14	0.187400	0.300300	0.684000
C151	C15	0.143500	0.700400	0.357200
C161	C16	0.187400	0.699700	0.316000
C171	C17	0.642800	0.856500	0.700400
C181	C18	0.684000	0.812600	0.699700
C191	C19	0.357200	0.856500	0.299600
C201	C20	0.316000	0.812600	0.300300
C211	C21	0.642800	0.143500	0.299600
C221	C22	0.684000	0.187400	0.300300
C231	C23	0.357200	0.143500	0.700400
C241	C24	0.316000	0.187400	0.699700
C251	C25	0.142800	0.200400	0.643500
C261	C26	0.184000	0.199700	0.687400
C271	C27	0.857200	0.799600	0.643500
C281	C28	0.816000	0.800300	0.687400
C291	C29	0.142800	0.799600	0.356500
C301	C30	0.184000	0.800300	0.312600
C311	C31	0.857200	0.200400	0.356500
C321	C32	0.816000	0.199700	0.312600
C331	C33	0.200400	0.356500	0.857200
C341	C34	0.199700	0.312600	0.816000
C351	C35	0.799600	0.356500	0.142800
C361	C36	0.800300	0.312600	0.184000
C371	C37	0.799600	0.643500	0.857200
C381	C38	0.800300	0.687400	0.816000
C391	C39	0.200400	0.643500	0.142800
C401	C40	0.199700	0.687400	0.184000
C411	C41	0.356500	0.142800	0.799600
C421	C42	0.312600	0.184000	0.800300
C431	C43	0.356500	0.857200	0.200400
C441	C44	0.312600	0.816000	0.199700
C451	C45	0.643500	0.142800	0.200400
C461	C46	0.687400	0.184000	0.199700
C471	C47	0.643500	0.857200	0.799600
C481	C48	0.687400	0.816000	0.800300
C491	C49	0.299600	0.357200	0.143500
C501	C50	0.300300	0.316000	0.187400
C511	C51	0.700400	0.642800	0.143500
C521	C52	0.699700	0.684000	0.187400
C531	C53	0.700400	0.357200	0.856500
C541	C54	0.699700	0.316000	0.812600
C551	C55	0.299600	0.642800	0.856500
C561	C56	0.300300	0.684000	0.812600
C571	C57	0.143500	0.299600	0.357200
C581	C58	0.187400	0.300300	0.316000
C591	C59	0.143500	0.700400	0.642800
C601	C60	0.187400	0.699700	0.684000
C611	C61	0.856500	0.700400	0.357200
C621	C62	0.812600	0.699700	0.316000
C631	C63	0.856500	0.299600	0.642800
C641	C64	0.812600	0.300300	0.684000
C651	C65	0.357200	0.143500	0.299600
C661	C66	0.316000	0.187400	0.300300
C671	C67	0.642800	0.143500	0.700400
C681	C68	0.684000	0.187400	0.699700
C691	C69	0.357200	0.856500	0.700400
C701	C70	0.316000	0.812600	0.699700
C711	C71	0.642800	0.856500	0.299600
C721	C72	0.684000	0.812600	0.300300
C731	C73	0.857200	0.799600	0.356500
C741	C74	0.816000	0.800300	0.312600
C751	C75	0.142800	0.200400	0.356500
C761	C76	0.184000	0.199700	0.312600
C771	C77	0.857200	0.200400	0.643500
C781	C78	0.816000	0.199700	0.687400
C791	C79	0.142800	0.799600	0.643500
C801	C80	0.184000	0.800300	0.687400
C811	C81	0.799600	0.643500	0.142800
C821	C82	0.800300	0.687400	0.184000
C831	C83	0.200400	0.643500	0.857200
C841	C84	0.199700	0.687400	0.816000
C851	C85	0.200400	0.356500	0.142800
C861	C86	0.199700	0.312600	0.184000
C871	C87	0.799600	0.356500	0.857200
C881	C88	0.800300	0.312600	0.816000
C891	C89	0.643500	0.857200	0.200400
C901	C90	0.687400	0.816000	0.199700
C911	C91	0.643500	0.142800	0.799600
C921	C92	0.687400	0.184000	0.800300
C931	C93	0.356500	0.857200	0.799600
C941	C94	0.312600	0.816000	0.800300
C951	C95	0.356500	0.142800	0.200400
C961	C96	0.312600	0.184000	0.199700
C971	C97	0.750000	0.577600	0.922400
C981	C98	0.750000	0.621000	0.879000
C991	C99	0.750000	0.706900	0.793100
C1001	C100	0.250000	0.422400	0.922400
C1011	C101	0.250000	0.379000	0.879000
C1021	C102	0.250000	0.293100	0.793100
C1031	C103	0.250000	0.577600	0.077600
C1041	C104	0.250000	0.621000	0.121000
C1051	C105	0.250000	0.706900	0.206900
C1061	C106	0.750000	0.422400	0.077600
C1071	C107	0.750000	0.379000	0.121000
C1081	C108	0.750000	0.293100	0.206900
C1091	C109	0.922400	0.750000	0.577600
C1101	C110	0.879000	0.750000	0.621000
C1111	C111	0.793100	0.750000	0.706900
C1121	C112	0.922400	0.250000	0.422400
C1131	C113	0.879000	0.250000	0.379000
C1141	C114	0.793100	0.250000	0.293100
C1151	C115	0.077600	0.250000	0.577600
C1161	C116	0.121000	0.250000	0.621000
C1171	C117	0.206900	0.250000	0.706900
C1181	C118	0.077600	0.750000	0.422400
C1191	C119	0.121000	0.750000	0.379000
C1201	C120	0.206900	0.750000	0.293100
C1211	C121	0.577600	0.922400	0.750000
C1221	C122	0.621000	0.879000	0.750000
C1231	C123	0.706900	0.793100	0.750000
C1241	C124	0.422400	0.922400	0.250000
C1251	C125	0.379000	0.879000	0.250000
C1261	C126	0.293100	0.793100	0.250000
C1271	C127	0.577600	0.077600	0.250000
C1281	C128	0.621000	0.121000	0.250000
C1291	C129	0.706900	0.206900	0.250000
C1301	C130	0.422400	0.077600	0.750000
C1311	C131	0.379000	0.121000	0.750000
C1321	C132	0.293100	0.206900	0.750000
C1331	C133	0.250000	0.422400	0.077600
C1341	C134	0.250000	0.379000	0.121000
C1351	C135	0.250000	0.293100	0.206900
C1361	C136	0.750000	0.577600	0.077600
C1371	C137	0.750000	0.621000	0.121000
C1381	C138	0.750000	0.706900	0.206900
C1391	C139	0.750000	0.422400	0.922400
C1401	C140	0.750000	0.379000	0.879000
C1411	C141	0.750000	0.293100	0.793100
C1421	C142	0.250000	0.577600	0.922400
C1431	C143	0.250000	0.621000	0.879000
C1441	C144	0.250000	0.706900	0.793100
C1451	C145	0.077600	0.250000	0.422400
C1461	C146	0.121000	0.250000	0.379000
C1471	C147	0.206900	0.250000	0.293100
C1481	C148	0.077600	0.750000	0.577600
C1491	C149	0.121000	0.750000	0.621000
C1501	C150	0.206900	0.750000	0.706900
C1511	C151	0.922400	0.750000	0.422400
C1521	C152	0.879000	0.750000	0.379000
C1531	C153	0.793100	0.750000	0.293100
C1541	C154	0.922400	0.250000	0.577600
C1551	C155	0.879000	0.250000	0.621000
C1561	C156	0.793100	0.250000	0.706900
C1571	C157	0.422400	0.077600	0.250000
C1581	C158	0.379000	0.121000	0.250000
C1591	C159	0.293100	0.206900	0.250000
C1601	C160	0.577600	0.077600	0.750000
C1611	C161	0.621000	0.121000	0.750000
C1621	C162	0.706900	0.206900	0.750000
C1631	C163	0.422400	0.922400	0.750000
C1641	C164	0.379000	0.879000	0.750000
C1651	C165	0.293100	0.793100	0.750000
C1661	C166	0.577600	0.922400	0.250000
C1671	C167	0.621000	0.879000	0.250000
C1681	C168	0.706900	0.793100	0.250000
N11	N1	0.750000	0.750000	0.750000
N21	N2	0.250000	0.250000	0.750000
N31	N3	0.250000	0.750000	0.250000
N41	N4	0.750000	0.250000	0.250000
N51	N5	0.250000	0.250000	0.250000
N61	N6	0.750000	0.750000	0.250000
N71	N7	0.750000	0.250000	0.750000
N81	N8	0.250000	0.750000	0.750000
O11	O1	0.702720	0.559000	0.941030
O21	O2	0.297280	0.441000	0.941030
O31	O3	0.297280	0.559000	0.058970
O41	O4	0.702720	0.441000	0.058970
O51	O5	0.941030	0.702720	0.559000
O61	O6	0.941030	0.297280	0.441000
O71	O7	0.058970	0.297280	0.559000
O81	O8	0.058970	0.702720	0.441000
O91	O9	0.559000	0.941030	0.702720
O101	O10	0.441000	0.941030	0.297280
O111	O11	0.559000	0.058970	0.297280
O121	O12	0.441000	0.058970	0.702720
O131	O13	0.059000	0.202720	0.558970
O141	O14	0.941000	0.797280	0.558970
O151	O15	0.059000	0.797280	0.441030
O161	O16	0.941000	0.202720	0.441030
O171	O17	0.202720	0.441030	0.941000
O181	O18	0.797280	0.441030	0.059000
O191	O19	0.797280	0.558970	0.941000
O201	O20	0.202720	0.558970	0.059000
O211	O21	0.441030	0.059000	0.797280
O221	O22	0.441030	0.941000	0.202720
O231	O23	0.558970	0.059000	0.202720
O241	O24	0.558970	0.941000	0.797280
O251	O25	0.297280	0.441000	0.058970
O261	O26	0.702720	0.559000	0.058970
O271	O27	0.702720	0.441000	0.941030
O281	O28	0.297280	0.559000	0.941030
O291	O29	0.058970	0.297280	0.441000
O301	O30	0.058970	0.702720	0.559000
O311	O31	0.941030	0.702720	0.441000
O321	O32	0.941030	0.297280	0.559000
O331	O33	0.441000	0.058970	0.297280
O341	O34	0.559000	0.058970	0.702720
O351	O35	0.441000	0.941030	0.702720
O361	O36	0.559000	0.941030	0.297280
O371	O37	0.941000	0.797280	0.441030
O381	O38	0.059000	0.202720	0.441030
O391	O39	0.941000	0.202720	0.558970
O401	O40	0.059000	0.797280	0.558970
O411	O41	0.797280	0.558970	0.059000
O421	O42	0.202720	0.558970	0.941000
O431	O43	0.202720	0.441030	0.059000
O441	O44	0.797280	0.441030	0.941000
O451	O45	0.558970	0.941000	0.202720
O461	O46	0.558970	0.059000	0.797280
O471	O47	0.441030	0.941000	0.797280
O481	O48	0.441030	0.059000	0.202720
