data_ncomms11831_ncomms11831-s2_clean_PM
_symmetry_space_group_name_H-M	'P1'
_cell_length_a	11.619300
_cell_length_b	5.566700
_cell_length_c	22.931200
_cell_angle_alpha	90.000000
_cell_angle_beta	100.897000
_cell_angle_gamma	90.000000
_symmetry_Int_Tables_number 1

loop_
_symmetry_equiv_pos_as_xyz
'x,y,z'

loop_
_atom_site_label
_atom_site_type_symbol
_atom_site_fract_x
_atom_site_fract_y
_atom_site_fract_z
C11	C1	0.493200	0.258600	0.262000
C21	C2	0.399800	0.211100	0.299100
C31	C3	0.312100	0.378900	0.300100
H11	H1	0.314200	0.528700	0.280400
C41	C4	0.220800	0.328200	0.329900
H21	H2	0.159700	0.441300	0.330400
C51	C5	0.220900	0.109600	0.358900
C61	C6	0.310900	0.941300	0.360300
H31	H3	0.311000	0.795800	0.382000
C71	C7	0.400200	0.991200	0.329300
H41	H4	0.460900	0.877700	0.328600
C81	C8	0.149000	0.111900	0.470200
C91	C9	0.119400	0.334000	0.490100
H51	H5	0.080300	0.450200	0.463000
C101	C10	0.148200	0.383700	0.550800
H61	H6	0.129800	0.536100	0.565200
C111	C11	0.203600	0.211400	0.590000
C121	C12	0.236700	0.990500	0.569300
H71	H7	0.277500	0.875900	0.596200
C131	C13	0.209500	0.939800	0.508800
H81	H8	0.231700	0.791000	0.493900
C141	C14	0.227500	0.262400	0.655700
O11	O1	0.512400	0.475500	0.252210
O21	O2	0.540900	0.080800	0.243720
O31	O3	0.005400	0.195800	0.371240
O41	O4	0.086600	0.779600	0.390540
O51	O5	0.237100	0.476800	0.672650
O61	O6	0.240600	0.085000	0.690660
S11	S1	0.103230	0.036400	0.394140
Ca11	Ca1	0.637200	0.743310	0.221170
C151	C15	0.006800	0.758600	0.238000
C161	C16	0.100200	0.711100	0.200900
C171	C17	0.187900	0.878900	0.199900
H91	H9	0.185800	0.028700	0.219600
C181	C18	0.279200	0.828200	0.170100
H101	H10	0.340300	0.941300	0.169600
C191	C19	0.279100	0.609600	0.141100
C201	C20	0.189100	0.441300	0.139700
H111	H11	0.189000	0.295800	0.118000
C211	C21	0.099800	0.491200	0.170700
H121	H12	0.039100	0.377700	0.171400
C221	C22	0.351000	0.611900	0.029800
C231	C23	0.380600	0.834000	0.009900
H131	H13	0.419700	0.950200	0.037000
C241	C24	0.351800	0.883700	0.949200
H141	H14	0.370200	0.036100	0.934800
C251	C25	0.296400	0.711400	0.910000
C261	C26	0.263300	0.490500	0.930700
H151	H15	0.222500	0.375900	0.903800
C271	C27	0.290500	0.439800	0.991200
H161	H16	0.268300	0.291000	0.006100
C281	C28	0.272500	0.762400	0.844300
O71	O7	0.987600	0.975500	0.247790
O81	O8	0.959100	0.580800	0.256280
O91	O9	0.494600	0.695800	0.128760
O101	O10	0.413400	0.279600	0.109460
O111	O11	0.262900	0.976800	0.827350
O121	O12	0.259400	0.585000	0.809340
S21	S2	0.396770	0.536400	0.105860
Ca21	Ca2	0.862800	0.243310	0.278830
C291	C29	0.506800	0.741400	0.738000
C301	C30	0.600200	0.788900	0.700900
C311	C31	0.687900	0.621100	0.699900
H171	H17	0.685800	0.471300	0.719600
C321	C32	0.779200	0.671800	0.670100
H181	H18	0.840300	0.558700	0.669600
C331	C33	0.779100	0.890400	0.641100
C341	C34	0.689100	0.058700	0.639700
H191	H19	0.689000	0.204200	0.618000
C351	C35	0.599800	0.008800	0.670700
H201	H20	0.539100	0.122300	0.671400
C361	C36	0.851000	0.888100	0.529800
C371	C37	0.880600	0.666000	0.509900
H211	H21	0.919700	0.549800	0.537000
C381	C38	0.851800	0.616300	0.449200
H221	H22	0.870200	0.463900	0.434800
C391	C39	0.796400	0.788600	0.410000
C401	C40	0.763300	0.009500	0.430700
H231	H23	0.722500	0.124100	0.403800
C411	C41	0.790500	0.060200	0.491200
H241	H24	0.768300	0.209000	0.506100
C421	C42	0.772500	0.737600	0.344300
O131	O13	0.487600	0.524500	0.747790
O141	O14	0.459100	0.919200	0.756280
O151	O15	0.994600	0.804200	0.628760
O161	O16	0.913400	0.220400	0.609460
O171	O17	0.762900	0.523200	0.327350
O181	O18	0.759400	0.915000	0.309340
S31	S3	0.896770	0.963600	0.605860
Ca31	Ca3	0.362800	0.256690	0.778830
C431	C43	0.993200	0.241400	0.762000
C441	C44	0.899800	0.288900	0.799100
C451	C45	0.812100	0.121100	0.800100
H251	H25	0.814200	0.971300	0.780400
C461	C46	0.720800	0.171800	0.829900
H261	H26	0.659700	0.058700	0.830400
C471	C47	0.720900	0.390400	0.858900
C481	C48	0.810900	0.558700	0.860300
H271	H27	0.811000	0.704200	0.882000
C491	C49	0.900200	0.508800	0.829300
H281	H28	0.960900	0.622300	0.828600
C501	C50	0.649000	0.388100	0.970200
C511	C51	0.619400	0.166000	0.990100
H291	H29	0.580300	0.049800	0.963000
C521	C52	0.648200	0.116300	0.050800
H301	H30	0.629800	0.963900	0.065200
C531	C53	0.703600	0.288600	0.090000
C541	C54	0.736700	0.509500	0.069300
H311	H31	0.777500	0.624100	0.096200
C551	C55	0.709500	0.560200	0.008800
H321	H32	0.731700	0.709000	0.993900
C561	C56	0.727500	0.237600	0.155700
O191	O19	0.012400	0.024500	0.752210
O201	O20	0.040900	0.419200	0.743720
O211	O21	0.505400	0.304200	0.871240
O221	O22	0.586600	0.720400	0.890540
O231	O23	0.737100	0.023200	0.172650
O241	O24	0.740600	0.415000	0.190660
S41	S4	0.603230	0.463600	0.894140
Ca41	Ca4	0.137200	0.756690	0.721170
