data_NEDVOJ_charged_PM
_symmetry_space_group_name_H-M	'P1'
_cell_length_a	11.725800
_cell_length_b	15.448900
_cell_length_c	16.710700
_cell_angle_alpha	106.787000
_cell_angle_beta	98.064000
_cell_angle_gamma	107.788000
_symmetry_Int_Tables_number 1

loop_
_symmetry_equiv_pos_as_xyz
'x,y,z'

loop_
_atom_site_label
_atom_site_type_symbol
_atom_site_fract_x
_atom_site_fract_y
_atom_site_fract_z
Mn11	Mn1	0.180160	0.880540	0.899230
Mn21	Mn2	0.819840	0.119460	0.100770
Mn31	Mn3	0.500000	0.000000	0.000000
H11	H1	0.240200	0.726200	0.663500
H21	H2	0.280300	0.652800	0.531600
H31	H3	0.643100	0.826900	0.631100
H41	H4	0.600200	0.900600	0.762400
H51	H5	0.375700	0.572500	0.450800
H61	H6	0.352400	0.645900	0.405900
H71	H7	0.146400	0.153200	0.112000
H81	H8	0.222700	0.313000	0.212000
H91	H9	0.543300	0.362700	0.137400
H101	H10	0.470100	0.202700	0.042100
H111	H11	0.304000	0.475400	0.280300
H121	H12	0.379000	0.439100	0.343600
H131	H13	0.496700	0.816300	0.106100
H141	H14	0.531200	0.738500	0.202800
H151	H15	0.164300	0.638600	0.187300
H161	H16	0.130400	0.711300	0.087900
H171	H17	0.520900	0.618300	0.253100
H181	H18	0.534000	0.711900	0.332800
H191	H19	0.891400	0.646400	0.655100
H201	H20	0.762300	0.584200	0.517100
H211	H21	0.795900	0.855100	0.528000
H221	H22	0.932000	0.918100	0.663200
H231	H23	0.626700	0.548400	0.349700
H241	H24	0.593000	0.555600	0.440500
H251	H25	0.759800	0.273800	0.336500
H261	H26	0.719700	0.347200	0.468400
H271	H27	0.356900	0.173100	0.368900
H281	H28	0.399800	0.099400	0.237600
H291	H29	0.624300	0.427500	0.549200
H301	H30	0.647600	0.354100	0.594100
H311	H31	0.853600	0.846800	0.888000
H321	H32	0.777300	0.687000	0.788000
H331	H33	0.456700	0.637300	0.862600
H341	H34	0.529900	0.797300	0.957900
H351	H35	0.696000	0.524600	0.719700
H361	H36	0.621000	0.560900	0.656400
H371	H37	0.503300	0.183700	0.893900
H381	H38	0.468800	0.261500	0.797200
H391	H39	0.835700	0.361400	0.812700
H401	H40	0.869600	0.288700	0.912100
H411	H41	0.479100	0.381700	0.746900
H421	H42	0.466000	0.288100	0.667200
H431	H43	0.108600	0.353600	0.344900
H441	H44	0.237700	0.415800	0.482900
H451	H45	0.204100	0.144900	0.472000
H461	H46	0.068000	0.081900	0.336800
H471	H47	0.373300	0.451600	0.650300
H481	H48	0.407000	0.444400	0.559500
C11	C1	0.392000	0.863700	0.808200
C21	C2	0.415700	0.819400	0.725600
C31	C3	0.322200	0.746600	0.656800
C41	C4	0.344900	0.702300	0.578300
C51	C5	0.464000	0.733600	0.571900
C61	C6	0.561400	0.806900	0.638500
C71	C7	0.535700	0.850200	0.716200
C81	C8	0.416800	0.624700	0.429800
C91	C9	0.255500	0.060300	0.007900
C101	C10	0.302000	0.162900	0.068900
C111	C11	0.227900	0.195500	0.118300
C121	C12	0.272700	0.290500	0.177300
C131	C13	0.390800	0.351200	0.184600
C141	C14	0.463300	0.319500	0.133300
C151	C15	0.419600	0.225000	0.076200
C161	C16	0.387400	0.479000	0.306300
C171	C17	0.292000	0.818300	0.023000
C181	C18	0.309800	0.768800	0.085200
C191	C19	0.428700	0.778500	0.121400
C201	C20	0.449800	0.733600	0.179800
C211	C21	0.349900	0.681400	0.204200
C221	C22	0.232100	0.673800	0.170000
C231	C23	0.212200	0.717000	0.111200
C241	C24	0.482100	0.643200	0.299100
C251	C25	0.006300	0.827700	0.762500
C261	C26	0.923700	0.788500	0.673800
C271	C27	0.872500	0.689300	0.629300
C281	C28	0.794300	0.652200	0.547800
C291	C29	0.762600	0.712100	0.510900
C301	C30	0.815400	0.812700	0.554100
C311	C31	0.895500	0.849700	0.634300
C321	C32	0.597800	0.585900	0.395700
C331	C33	0.469800	0.582700	0.357930
C341	C34	0.608000	0.136300	0.191800
C351	C35	0.584300	0.180600	0.274400
C361	C36	0.677800	0.253400	0.343200
C371	C37	0.655100	0.297700	0.421700
C381	C38	0.536000	0.266400	0.428100
C391	C39	0.438600	0.193100	0.361500
C401	C40	0.464300	0.149800	0.283800
C411	C41	0.583200	0.375300	0.570200
C421	C42	0.744500	0.939700	0.992100
C431	C43	0.698000	0.837100	0.931100
C441	C44	0.772100	0.804500	0.881700
C451	C45	0.727300	0.709500	0.822700
C461	C46	0.609200	0.648800	0.815400
C471	C47	0.536700	0.680500	0.866700
C481	C48	0.580400	0.775000	0.923800
C491	C49	0.612600	0.521000	0.693700
C501	C50	0.708000	0.181700	0.977000
C511	C51	0.690200	0.231200	0.914800
C521	C52	0.571300	0.221500	0.878600
C531	C53	0.550200	0.266400	0.820200
C541	C54	0.650100	0.318600	0.795800
C551	C55	0.767900	0.326200	0.830000
C561	C56	0.787800	0.283000	0.888800
C571	C57	0.517900	0.356800	0.700900
C581	C58	0.993700	0.172300	0.237500
C591	C59	0.076300	0.211500	0.326200
C601	C60	0.127500	0.310700	0.370700
C611	C61	0.205700	0.347800	0.452200
C621	C62	0.237400	0.287900	0.489100
C631	C63	0.184600	0.187300	0.445900
C641	C64	0.104500	0.150300	0.365700
C651	C65	0.402200	0.414100	0.604300
C661	C66	0.530200	0.417300	0.642070
O11	O1	0.484700	0.928300	0.865930
O21	O2	0.282800	0.843120	0.813000
O31	O3	0.497700	0.699500	0.497000
O41	O4	0.145700	0.004480	0.996320
O51	O5	0.327800	0.030470	0.967010
O61	O6	0.444900	0.445300	0.240800
O71	O7	0.385400	0.866930	0.005600
O81	O8	0.182900	0.808800	0.989660
O91	O9	0.360500	0.635000	0.262280
O101	O10	0.065700	0.917970	0.798450
O111	O11	0.016800	0.769950	0.800610
O121	O12	0.682600	0.682400	0.432480
O131	O13	0.515300	0.071700	0.134070
O141	O14	0.717200	0.156880	0.187000
O151	O15	0.502300	0.300500	0.503000
O161	O16	0.854300	0.995520	0.003680
O171	O17	0.672200	0.969530	0.032990
O181	O18	0.555100	0.554700	0.759200
O191	O19	0.614600	0.133070	0.994400
O201	O20	0.817100	0.191200	0.010340
O211	O21	0.639500	0.365000	0.737720
O221	O22	0.934300	0.082030	0.201550
O231	O23	0.983200	0.230050	0.199390
O241	O24	0.317400	0.317600	0.567520
H491	H49	0.955100	0.822400	0.137900
H501	H50	0.880400	0.832700	0.055500
H511	H51	0.004900	0.810800	0.052500
H521	H52	0.208700	0.948700	0.150200
H531	H53	0.192300	0.043900	0.209400
H541	H54	0.140800	0.943900	0.226400
C671	C67	0.962900	0.845300	0.089300
C681	C68	0.154100	0.973100	0.182000
N11	N1	0.033100	0.946800	0.121100
H551	H55	0.044900	0.177600	0.862100
H561	H56	0.119600	0.167300	0.944500
H571	H57	0.995100	0.189200	0.947500
H581	H58	0.791300	0.051300	0.849800
H591	H59	0.807700	0.956100	0.790600
H601	H60	0.859200	0.056100	0.773600
C691	C69	0.037100	0.154700	0.910700
C701	C70	0.845900	0.026900	0.818000
N21	N2	0.966900	0.053200	0.878900
