data_NEDWAW_clean_PM
_symmetry_space_group_name_H-M	'P1'
_cell_length_a	13.431900
_cell_length_b	16.216000
_cell_length_c	16.291100
_cell_angle_alpha	108.099000
_cell_angle_beta	102.652000
_cell_angle_gamma	106.188000
_symmetry_Int_Tables_number 1

loop_
_symmetry_equiv_pos_as_xyz
'x,y,z'

loop_
_atom_site_label
_atom_site_type_symbol
_atom_site_fract_x
_atom_site_fract_y
_atom_site_fract_z
Mn11	Mn1	0.204880	0.377990	0.399360
Mn21	Mn2	0.795120	0.622010	0.600640
Mn31	Mn3	0.500000	0.500000	0.500000
H11	H1	0.329800	0.108000	0.874600
H21	H2	0.445500	0.188800	0.943100
H31	H3	0.540500	0.329900	0.250600
H41	H4	0.551400	0.223900	0.119100
H51	H5	0.224100	0.095400	0.027200
H61	H6	0.537900	0.217700	0.703900
H71	H7	0.203100	0.641600	0.630600
H81	H8	0.517700	0.305100	0.617200
H91	H9	0.611000	0.054200	0.882200
H101	H10	0.559800	0.053700	0.962400
H111	H11	0.525300	0.095400	0.757500
H121	H12	0.525000	0.189200	0.829400
H131	H13	0.266200	0.799300	0.725900
H141	H14	0.726900	0.082400	0.040100
H151	H15	0.460100	0.695200	0.537600
H161	H16	0.525300	0.850700	0.635700
H171	H17	0.882300	0.144200	0.169600
H181	H18	0.319100	0.960600	0.768300
H191	H19	0.386200	0.937400	0.847100
H201	H20	0.215500	0.198900	0.157100
H211	H21	0.752600	0.343700	0.068200
H221	H22	0.914800	0.405700	0.192700
H231	H23	0.209500	0.107000	0.637100
H241	H24	0.188300	0.198500	0.554200
H251	H25	0.670200	0.892000	0.125400
H261	H26	0.554500	0.811200	0.056900
H271	H27	0.459500	0.670100	0.749400
H281	H28	0.448600	0.776100	0.880900
H291	H29	0.775900	0.904600	0.972800
H301	H30	0.462100	0.782300	0.296100
H311	H31	0.796900	0.358400	0.369400
H321	H32	0.482300	0.694900	0.382800
H331	H33	0.389000	0.945800	0.117800
H341	H34	0.440200	0.946300	0.037600
H351	H35	0.474700	0.904600	0.242500
H361	H36	0.475000	0.810800	0.170600
H371	H37	0.733800	0.200700	0.274100
H381	H38	0.273100	0.917600	0.959900
H391	H39	0.539900	0.304800	0.462400
H401	H40	0.474700	0.149300	0.364300
H411	H41	0.117700	0.855800	0.830400
H421	H42	0.680900	0.039400	0.231700
H431	H43	0.613800	0.062600	0.152900
H441	H44	0.784500	0.801100	0.842900
H451	H45	0.247400	0.656300	0.931800
H461	H46	0.085200	0.594300	0.807300
H471	H47	0.790500	0.893000	0.362900
H481	H48	0.811700	0.801500	0.445800
C11	C1	0.368900	0.345100	0.299700
C21	C2	0.404000	0.120300	0.914600
C31	C3	0.475000	0.282300	0.204800
C41	C4	0.481900	0.218400	0.126400
C51	C5	0.388500	0.148900	0.061200
C61	C6	0.289900	0.143000	0.072600
C71	C7	0.466800	0.214300	0.674000
C81	C8	0.374900	0.157700	0.681800
C91	C9	0.725500	0.208700	0.042400
C101	C10	0.325900	0.651500	0.574500
C111	C11	0.268600	0.684200	0.631400
C121	C12	0.462900	0.072800	0.858000
C131	C13	0.454200	0.265800	0.622300
C141	C14	0.571600	0.084000	0.919300
C151	C15	0.482700	0.121400	0.793800
C161	C16	0.306300	0.777700	0.688500
C171	C17	0.764000	0.148200	0.071900
C181	C18	0.402300	0.839300	0.691000
C191	C19	0.421100	0.715700	0.576700
C201	C20	0.459500	0.807900	0.634400
C211	C21	0.856900	0.185400	0.148200
C221	C22	0.017700	0.320000	0.274800
C231	C23	0.913700	0.279900	0.194000
C241	C24	0.378100	0.276900	0.215700
C251	C25	0.286300	0.552100	0.516100
C261	C26	0.340000	0.322700	0.526300
C271	C27	0.352400	0.262100	0.577900
C281	C28	0.393500	0.969400	0.804600
C291	C29	0.284900	0.205200	0.149400
C301	C30	0.780300	0.302700	0.088000
C311	C31	0.875800	0.339900	0.163000
C321	C32	0.272700	0.149700	0.634900
C331	C33	0.259700	0.202600	0.584300
C341	C34	0.631100	0.654900	0.700300
C351	C35	0.596000	0.879700	0.085400
C361	C36	0.525000	0.717700	0.795200
C371	C37	0.518100	0.781600	0.873600
C381	C38	0.611500	0.851100	0.938800
C391	C39	0.710100	0.857000	0.927400
C401	C40	0.533200	0.785700	0.326000
C411	C41	0.625100	0.842300	0.318200
C421	C42	0.274500	0.791300	0.957600
C431	C43	0.674100	0.348500	0.425500
C441	C44	0.731400	0.315800	0.368600
C451	C45	0.537100	0.927200	0.142000
C461	C46	0.545800	0.734200	0.377700
C471	C47	0.428400	0.916000	0.080700
C481	C48	0.517300	0.878600	0.206200
C491	C49	0.693700	0.222300	0.311500
C501	C50	0.236000	0.851800	0.928100
C511	C51	0.597700	0.160700	0.309000
C521	C52	0.578900	0.284300	0.423300
C531	C53	0.540500	0.192100	0.365600
C541	C54	0.143100	0.814600	0.851800
C551	C55	0.982300	0.680000	0.725200
C561	C56	0.086300	0.720100	0.806000
C571	C57	0.621900	0.723100	0.784300
C581	C58	0.713700	0.447900	0.483900
C591	C59	0.660000	0.677300	0.473700
C601	C60	0.647600	0.737900	0.422100
C611	C61	0.606500	0.030600	0.195400
C621	C62	0.715100	0.794800	0.850600
C631	C63	0.219700	0.697300	0.912000
C641	C64	0.124200	0.660100	0.837000
C651	C65	0.727300	0.850300	0.365100
C661	C66	0.740300	0.797400	0.415700
O11	O1	0.456400	0.407940	0.358250
O21	O2	0.634800	0.181610	0.968810
O31	O3	0.394100	0.085090	0.985990
O41	O4	0.448300	0.931790	0.745450
O51	O5	0.377700	0.106070	0.734260
O61	O6	0.196600	0.496060	0.509840
O71	O7	0.275900	0.331400	0.304010
O81	O8	0.341200	0.521660	0.466980
O91	O9	0.425700	0.382630	0.531830
O101	O10	0.038200	0.268800	0.314630
O111	O11	0.084200	0.402800	0.298380
O121	O12	0.243000	0.308900	0.483040
O131	O13	0.543600	0.592060	0.641750
O141	O14	0.365200	0.818390	0.031190
O151	O15	0.605900	0.914910	0.014010
O161	O16	0.551700	0.068210	0.254550
O171	O17	0.622300	0.893930	0.265740
O181	O18	0.803400	0.503940	0.490160
O191	O19	0.724100	0.668600	0.695990
O201	O20	0.658800	0.478340	0.533020
O211	O21	0.574300	0.617370	0.468170
O221	O22	0.961800	0.731200	0.685370
O231	O23	0.915800	0.597200	0.701620
O241	O24	0.757000	0.691100	0.516960
