data_NEDWIE_clean_PM
_symmetry_space_group_name_H-M	'P1'
_cell_length_a	15.680200
_cell_length_b	16.618700
_cell_length_c	16.863100
_cell_angle_alpha	98.782000
_cell_angle_beta	109.215000
_cell_angle_gamma	114.858000
_symmetry_Int_Tables_number 1

loop_
_symmetry_equiv_pos_as_xyz
'x,y,z'

loop_
_atom_site_label
_atom_site_type_symbol
_atom_site_fract_x
_atom_site_fract_y
_atom_site_fract_z
Mn11	Mn1	0.500000	0.500000	0.500000
Ni11	Ni1	0.332560	0.250610	0.406360
Ni21	Ni2	0.667440	0.749390	0.593640
Ni31	Ni3	0.500000	0.000000	0.500000
H11	H1	0.167800	0.242300	0.571900
H21	H2	0.089600	0.259300	0.661200
H31	H3	0.258000	0.538800	0.736200
H41	H4	0.334600	0.524100	0.643600
H51	H5	0.124000	0.528400	0.777500
H61	H6	0.220800	0.533000	0.855000
H71	H7	0.949500	0.350200	0.777600
H81	H8	0.927500	0.404100	0.849400
H91	H9	0.776200	0.305300	0.732600
H101	H10	0.600700	0.245900	0.631600
H111	H11	0.693200	0.468200	0.544900
H121	H12	0.864900	0.527900	0.646800
H131	H13	0.099900	0.359500	0.894700
H141	H14	0.198800	0.458800	0.965500
H151	H15	0.035700	0.265700	0.035100
H161	H16	0.131900	0.253200	0.165300
H171	H17	0.336500	0.527200	0.259000
H181	H18	0.245200	0.544500	0.129500
H191	H19	0.087500	0.602500	0.889900
H201	H20	0.067200	0.557300	0.964100
H211	H21	0.393400	0.713600	0.117800
H221	H22	0.455300	0.833900	0.246100
H231	H23	0.181300	0.828600	0.153800
H241	H24	0.118300	0.708100	0.027300
H251	H25	0.832200	0.757700	0.428100
H261	H26	0.910400	0.740700	0.338800
H271	H27	0.742000	0.461200	0.263800
H281	H28	0.665400	0.475900	0.356400
H291	H29	0.876000	0.471600	0.222500
H301	H30	0.779200	0.467000	0.145000
H311	H31	0.050500	0.649800	0.222400
H321	H32	0.072500	0.595900	0.150600
H331	H33	0.223800	0.694700	0.267400
H341	H34	0.399300	0.754100	0.368400
H351	H35	0.306800	0.531800	0.455100
H361	H36	0.135100	0.472100	0.353200
H371	H37	0.900100	0.640500	0.105300
H381	H38	0.801200	0.541200	0.034500
H391	H39	0.964300	0.734300	0.964900
H401	H40	0.868100	0.746800	0.834700
H411	H41	0.663500	0.472800	0.741000
H421	H42	0.754800	0.455500	0.870500
H431	H43	0.912500	0.397500	0.110100
H441	H44	0.932800	0.442700	0.035900
H451	H45	0.606600	0.286400	0.882200
H461	H46	0.544700	0.166100	0.753900
H471	H47	0.818700	0.171400	0.846200
H481	H48	0.881700	0.291900	0.972700
C11	C1	0.311000	0.371300	0.538900
C21	C2	0.258600	0.381300	0.597400
C31	C3	0.186400	0.303600	0.604800
C41	C4	0.141700	0.313800	0.658600
C51	C5	0.170400	0.402200	0.710200
C61	C6	0.239600	0.477800	0.702700
C71	C7	0.284700	0.469200	0.647500
C81	C8	0.144700	0.494200	0.816100
C91	C9	0.084600	0.475000	0.872100
C101	C10	0.966400	0.412900	0.812600
C111	C11	0.836000	0.419000	0.697100
C121	C12	0.759300	0.338000	0.694100
C131	C13	0.654500	0.302600	0.633800
C141	C14	0.629400	0.350000	0.577600
C151	C15	0.709600	0.434800	0.582800
C161	C16	0.811200	0.469600	0.642400
C171	C17	0.519700	0.312700	0.516400
C181	C18	0.121600	0.423100	0.931900
C191	C19	0.130700	0.406100	0.067700
C201	C20	0.097900	0.320000	0.079900
C211	C21	0.155600	0.313000	0.157700
C221	C22	0.244100	0.387500	0.222900
C231	C23	0.275600	0.473400	0.212400
C241	C24	0.221100	0.484100	0.135800
C251	C25	0.306100	0.378400	0.307400
C261	C26	0.107900	0.568300	0.928800
C271	C27	0.249400	0.696900	0.059900
C281	C28	0.349100	0.736100	0.125600
C291	C29	0.385500	0.806900	0.202000
C301	C30	0.322000	0.840300	0.216500
C311	C31	0.224200	0.803500	0.147800
C321	C32	0.187200	0.733200	0.072400
C331	C33	0.357500	0.909900	0.304400
C341	C34	0.689000	0.628700	0.461100
C351	C35	0.741400	0.618700	0.402600
C361	C36	0.813600	0.696400	0.395200
C371	C37	0.858300	0.686200	0.341400
C381	C38	0.829600	0.597800	0.289800
C391	C39	0.760400	0.522200	0.297300
C401	C40	0.715300	0.530800	0.352500
C411	C41	0.855300	0.505800	0.183900
C421	C42	0.915400	0.525000	0.127900
C431	C43	0.033600	0.587100	0.187400
C441	C44	0.164000	0.581000	0.302900
C451	C45	0.240700	0.662000	0.305900
C461	C46	0.345500	0.697400	0.366200
C471	C47	0.370600	0.650000	0.422400
C481	C48	0.290400	0.565200	0.417200
C491	C49	0.188800	0.530400	0.357600
C501	C50	0.480300	0.687300	0.483600
C511	C51	0.878400	0.576900	0.068100
C521	C52	0.869300	0.593900	0.932300
C531	C53	0.902100	0.680000	0.920100
C541	C54	0.844400	0.687000	0.842300
C551	C55	0.755900	0.612500	0.777100
C561	C56	0.724400	0.526600	0.787600
C571	C57	0.778900	0.515900	0.864200
C581	C58	0.693900	0.621600	0.692600
C591	C59	0.892100	0.431700	0.071200
C601	C60	0.750600	0.303100	0.940100
C611	C61	0.650900	0.263900	0.874400
C621	C62	0.614500	0.193100	0.798000
C631	C63	0.678000	0.159700	0.783500
C641	C64	0.775800	0.196500	0.852200
C651	C65	0.812800	0.266800	0.927600
C661	C66	0.642500	0.090100	0.695600
O11	O1	0.372900	0.445100	0.535400
O21	O2	0.288200	0.290300	0.499200
O31	O3	0.119200	0.404200	0.762600
O41	O4	0.939300	0.460900	0.754700
O51	O5	0.448800	0.232200	0.504200
O61	O6	0.494600	0.363500	0.474700
O71	O7	0.074500	0.415800	0.992600
O81	O8	0.264500	0.299600	0.317500
O91	O9	0.393100	0.449500	0.361300
O101	O10	0.217700	0.623600	0.987500
O111	O11	0.301500	0.947200	0.306700
O121	O12	0.438600	0.925500	0.366500
O131	O13	0.627100	0.554900	0.464600
O141	O14	0.711800	0.709700	0.500800
O151	O15	0.880800	0.595800	0.237400
O161	O16	0.060700	0.539100	0.245300
O171	O17	0.551200	0.767800	0.495800
O181	O18	0.505400	0.636500	0.525300
O191	O19	0.925500	0.584200	0.007400
O201	O20	0.735500	0.700400	0.682500
O211	O21	0.606900	0.550500	0.638700
O221	O22	0.782300	0.376400	0.012500
O231	O23	0.698500	0.052800	0.693300
O241	O24	0.561400	0.074500	0.633500
