data_NEGMUI_clean_PM
_symmetry_space_group_name_H-M	'P1'
_cell_length_a	13.049000
_cell_length_b	13.900900
_cell_length_c	13.900900
_cell_angle_alpha	90.000000
_cell_angle_beta	90.000000
_cell_angle_gamma	90.000000
_symmetry_Int_Tables_number 1

loop_
_symmetry_equiv_pos_as_xyz
'x,y,z'

loop_
_atom_site_label
_atom_site_type_symbol
_atom_site_fract_x
_atom_site_fract_y
_atom_site_fract_z
Gd11	Gd1	0.883820	0.713080	0.213070
Gd21	Gd2	0.883820	0.286920	0.786930
Gd31	Gd3	0.116180	0.213070	0.286920
Gd41	Gd4	0.116180	0.786930	0.713080
H11	H1	0.765900	0.838900	0.660300
H21	H2	0.610200	0.778100	0.719600
H31	H3	0.458200	0.839900	0.660900
H41	H4	0.552400	0.816500	0.318500
H51	H5	0.765900	0.161100	0.339700
H61	H6	0.610200	0.221900	0.280400
H71	H7	0.458200	0.160100	0.339100
H81	H8	0.552400	0.183500	0.681500
H91	H9	0.234100	0.660300	0.161100
H101	H10	0.389800	0.719600	0.221900
H111	H11	0.541800	0.660900	0.160100
H121	H12	0.447600	0.318500	0.183500
H131	H13	0.234100	0.339700	0.838900
H141	H14	0.389800	0.280400	0.778100
H151	H15	0.541800	0.339100	0.839900
H161	H16	0.447600	0.681500	0.816500
Ru11	Ru1	0.830300	0.000000	0.500000
Ru21	Ru2	0.392320	0.000000	0.500000
Ru31	Ru3	0.169700	0.500000	0.000000
Ru41	Ru4	0.607680	0.500000	0.000000
C11	C1	0.612300	0.962300	0.537200
C21	C2	0.702700	0.862900	0.636200
C31	C3	0.610700	0.826900	0.671800
C41	C4	0.521300	0.863500	0.636200
C51	C5	0.841700	0.898800	0.394500
C61	C6	0.933400	0.925200	0.573900
C71	C7	0.377100	0.103700	0.602400
C81	C8	0.714300	0.572100	0.066700
C91	C9	0.659900	0.712000	0.336500
C101	C10	0.614200	0.791300	0.292500
C111	C11	0.656700	0.834600	0.211600
C121	C12	0.600700	0.665300	0.421500
C131	C13	0.598100	0.918400	0.164800
C141	C14	0.612300	0.037700	0.462800
C151	C15	0.702700	0.137100	0.363800
C161	C16	0.610700	0.173100	0.328200
C171	C17	0.521300	0.136500	0.363800
C181	C18	0.841700	0.101200	0.605500
C191	C19	0.933400	0.074800	0.426100
C201	C20	0.377100	0.896300	0.397600
C211	C21	0.714300	0.427900	0.933300
C221	C22	0.659900	0.288000	0.663500
C231	C23	0.614200	0.208700	0.707500
C241	C24	0.656700	0.165400	0.788400
C251	C25	0.600700	0.334700	0.578500
C261	C26	0.598100	0.081600	0.835200
C271	C27	0.387700	0.537200	0.037700
C281	C28	0.297300	0.636200	0.137100
C291	C29	0.389300	0.671800	0.173100
C301	C30	0.478700	0.636200	0.136500
C311	C31	0.158300	0.394500	0.101200
C321	C32	0.066600	0.573900	0.074800
C331	C33	0.622900	0.602400	0.896300
C341	C34	0.285700	0.066700	0.427900
C351	C35	0.340100	0.336500	0.288000
C361	C36	0.385800	0.292500	0.208700
C371	C37	0.343300	0.211600	0.165400
C381	C38	0.399300	0.421500	0.334700
C391	C39	0.401900	0.164800	0.081600
C401	C40	0.387700	0.462800	0.962300
C411	C41	0.297300	0.363800	0.862900
C421	C42	0.389300	0.328200	0.826900
C431	C43	0.478700	0.363800	0.863500
C441	C44	0.158300	0.605500	0.898800
C451	C45	0.066600	0.426100	0.925200
C461	C46	0.622900	0.397600	0.103700
C471	C47	0.285700	0.933300	0.572100
C481	C48	0.340100	0.663500	0.712000
C491	C49	0.385800	0.707500	0.791300
C501	C50	0.343300	0.788400	0.834600
C511	C51	0.399300	0.578500	0.665300
C521	C52	0.401900	0.835200	0.918400
N11	N1	0.703000	0.931100	0.568100
N21	N2	0.519200	0.931700	0.567400
N31	N3	0.776100	0.616800	0.105900
N41	N4	0.859500	0.844600	0.335300
N51	N5	0.990200	0.882500	0.620000
N61	N6	0.356500	0.158900	0.661500
N71	N7	0.703000	0.068900	0.431900
N81	N8	0.519200	0.068300	0.432600
N91	N9	0.776100	0.383200	0.894100
N101	N10	0.859500	0.155400	0.664700
N111	N11	0.990200	0.117500	0.380000
N121	N12	0.356500	0.841100	0.338500
N131	N13	0.297000	0.568100	0.068900
N141	N14	0.480800	0.567400	0.068300
N151	N15	0.223900	0.105900	0.383200
N161	N16	0.140500	0.335300	0.155400
N171	N17	0.009800	0.620000	0.117500
N181	N18	0.643500	0.661500	0.841100
N191	N19	0.297000	0.431900	0.931100
N201	N20	0.480800	0.432600	0.931700
N211	N21	0.223900	0.894100	0.616800
N221	N22	0.140500	0.664700	0.844600
N231	N23	0.009800	0.380000	0.882500
N241	N24	0.643500	0.338500	0.158900
O11	O1	0.741300	0.668300	0.315500
O21	O2	0.739400	0.814200	0.169500
O31	O3	0.741300	0.331700	0.684500
O41	O4	0.739400	0.185800	0.830500
O51	O5	0.258700	0.315500	0.331700
O61	O6	0.260600	0.169500	0.185800
O71	O7	0.258700	0.684500	0.668300
O81	O8	0.260600	0.830500	0.814200
F11	F1	0.661800	0.663700	0.503300
F21	F2	0.521800	0.713100	0.452700
F31	F3	0.586300	0.571200	0.415400
F41	F4	0.506300	0.883800	0.135100
F51	F5	0.644900	0.958000	0.099100
F61	F6	0.573900	0.982900	0.233800
F71	F7	0.661800	0.336300	0.496700
F81	F8	0.521800	0.286900	0.547300
F91	F9	0.586300	0.428800	0.584600
F101	F10	0.506300	0.116200	0.864900
F111	F11	0.644900	0.042000	0.900900
F121	F12	0.573900	0.017100	0.766200
F131	F13	0.338200	0.503300	0.336300
F141	F14	0.478200	0.452700	0.286900
F151	F15	0.413700	0.415400	0.428800
F161	F16	0.493700	0.135100	0.116200
F171	F17	0.355100	0.099100	0.042000
F181	F18	0.426100	0.233800	0.017100
F191	F19	0.338200	0.496700	0.663700
F201	F20	0.478200	0.547300	0.713100
F211	F21	0.413700	0.584600	0.571200
F221	F22	0.493700	0.864900	0.883800
F231	F23	0.355100	0.900900	0.958000
F241	F24	0.426100	0.766200	0.982900
