data_NEGZUW_clean_PM
_symmetry_space_group_name_H-M	'P1'
_cell_length_a	17.299900
_cell_length_b	18.039600
_cell_length_c	24.677000
_cell_angle_alpha	90.000000
_cell_angle_beta	90.000000
_cell_angle_gamma	90.000000
_symmetry_Int_Tables_number 1

loop_
_symmetry_equiv_pos_as_xyz
'x,y,z'

loop_
_atom_site_label
_atom_site_type_symbol
_atom_site_fract_x
_atom_site_fract_y
_atom_site_fract_z
V11	V1	0.836830	0.305520	0.907680
V21	V2	0.904200	0.301750	0.023130
V31	V3	0.681790	0.386370	0.884940
V41	V4	0.682060	0.216700	0.885560
V51	V5	0.336830	0.194480	0.592320
V61	V6	0.404200	0.198250	0.476870
V71	V7	0.181790	0.113630	0.615060
V81	V8	0.182060	0.283300	0.614440
V91	V9	0.663170	0.305520	0.092320
V101	V10	0.595800	0.301750	0.976870
V111	V11	0.818210	0.386370	0.115060
V121	V12	0.817940	0.216700	0.114440
V131	V13	0.163170	0.194480	0.407680
V141	V14	0.095800	0.198250	0.523130
V151	V15	0.318210	0.113630	0.384940
V161	V16	0.317940	0.283300	0.385560
V171	V17	0.163170	0.694480	0.092320
V181	V18	0.095800	0.698250	0.976870
V191	V19	0.318210	0.613630	0.115060
V201	V20	0.317940	0.783300	0.114440
V211	V21	0.663170	0.805520	0.407680
V221	V22	0.595800	0.801750	0.523130
V231	V23	0.818210	0.886370	0.384940
V241	V24	0.817940	0.716700	0.385560
V251	V25	0.336830	0.694480	0.907680
V261	V26	0.404200	0.698250	0.023130
V271	V27	0.181790	0.613630	0.884940
V281	V28	0.182060	0.783300	0.885560
V291	V29	0.836830	0.805520	0.592320
V301	V30	0.904200	0.801750	0.476870
V311	V31	0.681790	0.886370	0.615060
V321	V32	0.682060	0.716700	0.614440
V331	V33	0.750000	0.392990	0.000000
V341	V34	0.750000	0.211930	0.000000
V351	V35	0.250000	0.107010	0.500000
V361	V36	0.250000	0.288070	0.500000
V371	V37	0.250000	0.607010	0.000000
V381	V38	0.250000	0.788070	0.000000
V391	V39	0.750000	0.892990	0.500000
V401	V40	0.750000	0.711930	0.500000
Zn11	Zn1	0.698610	0.349220	0.667290
Zn21	Zn2	0.850810	0.150520	0.832250
Zn31	Zn3	0.904360	0.070780	0.703710
Zn41	Zn4	0.198610	0.150780	0.832710
Zn51	Zn5	0.350810	0.349480	0.667750
Zn61	Zn6	0.404360	0.429220	0.796290
Zn71	Zn7	0.801390	0.349220	0.332710
Zn81	Zn8	0.649190	0.150520	0.167750
Zn91	Zn9	0.595640	0.070780	0.296290
Zn101	Zn10	0.301390	0.150780	0.167290
Zn111	Zn11	0.149190	0.349480	0.332250
Zn121	Zn12	0.095640	0.429220	0.203710
Zn131	Zn13	0.301390	0.650780	0.332710
Zn141	Zn14	0.149190	0.849480	0.167750
Zn151	Zn15	0.095640	0.929220	0.296290
Zn161	Zn16	0.801390	0.849220	0.167290
Zn171	Zn17	0.649190	0.650520	0.332250
Zn181	Zn18	0.595640	0.570780	0.203710
Zn191	Zn19	0.198610	0.650780	0.667290
Zn201	Zn20	0.350810	0.849480	0.832250
Zn211	Zn21	0.404360	0.929220	0.703710
Zn221	Zn22	0.698610	0.849220	0.832710
Zn231	Zn23	0.850810	0.650520	0.667750
Zn241	Zn24	0.904360	0.570780	0.796290
H11	H1	0.747500	0.008900	0.871800
H21	H2	0.747500	0.282500	0.776000
H31	H3	0.799900	0.918000	0.732900
H41	H4	0.090500	0.095400	0.732700
H51	H5	0.800200	0.200300	0.633900
H61	H6	0.028400	0.189800	0.868800
H71	H7	0.247500	0.491100	0.628200
H81	H8	0.247500	0.217500	0.724000
H91	H9	0.299900	0.582000	0.767100
H101	H10	0.590500	0.404600	0.767300
H111	H11	0.300200	0.299700	0.866100
H121	H12	0.528400	0.310200	0.631200
H131	H13	0.752500	0.008900	0.128200
H141	H14	0.752500	0.282500	0.224000
H151	H15	0.700100	0.918000	0.267100
H161	H16	0.409500	0.095400	0.267300
H171	H17	0.699800	0.200300	0.366100
H181	H18	0.471600	0.189800	0.131200
H191	H19	0.252500	0.491100	0.371800
H201	H20	0.252500	0.217500	0.276000
H211	H21	0.200100	0.582000	0.232900
H221	H22	0.909500	0.404600	0.232700
H231	H23	0.199800	0.299700	0.133900
H241	H24	0.971600	0.310200	0.368800
H251	H25	0.252500	0.991100	0.128200
H261	H26	0.252500	0.717500	0.224000
H271	H27	0.200100	0.082000	0.267100
H281	H28	0.909500	0.904600	0.267300
H291	H29	0.199800	0.799700	0.366100
H301	H30	0.971600	0.810200	0.131200
H311	H31	0.752500	0.508900	0.371800
H321	H32	0.752500	0.782500	0.276000
H331	H33	0.700100	0.418000	0.232900
H341	H34	0.409500	0.595400	0.232700
H351	H35	0.699800	0.700300	0.133900
H361	H36	0.471600	0.689800	0.368800
H371	H37	0.247500	0.991100	0.871800
H381	H38	0.247500	0.717500	0.776000
H391	H39	0.299900	0.082000	0.732900
H401	H40	0.590500	0.904600	0.732700
H411	H41	0.300200	0.799700	0.633900
H421	H42	0.528400	0.810200	0.868800
H431	H43	0.747500	0.508900	0.628200
H441	H44	0.747500	0.782500	0.724000
H451	H45	0.799900	0.418000	0.767100
H461	H46	0.090500	0.595400	0.767300
H471	H47	0.800200	0.700300	0.866100
H481	H48	0.028400	0.689800	0.631200
C11	C1	0.768900	0.000500	0.836860
C21	C2	0.768700	0.251900	0.748340
C31	C3	0.797300	0.951700	0.762390
C41	C4	0.060100	0.115300	0.761290
C51	C5	0.797100	0.207700	0.672000
C61	C6	0.026900	0.166100	0.834450
C71	C7	0.268900	0.499500	0.663140
C81	C8	0.268700	0.248100	0.751660
C91	C9	0.297300	0.548300	0.737610
C101	C10	0.560100	0.384700	0.738710
C111	C11	0.297100	0.292300	0.828000
C121	C12	0.526900	0.333900	0.665550
C131	C13	0.731100	0.000500	0.163140
C141	C14	0.731300	0.251900	0.251660
C151	C15	0.702700	0.951700	0.237610
C161	C16	0.439900	0.115300	0.238710
C171	C17	0.702900	0.207700	0.328000
C181	C18	0.473100	0.166100	0.165550
C191	C19	0.231100	0.499500	0.336860
C201	C20	0.231300	0.248100	0.248340
C211	C21	0.202700	0.548300	0.262390
C221	C22	0.939900	0.384700	0.261290
C231	C23	0.202900	0.292300	0.172000
C241	C24	0.973100	0.333900	0.334450
C251	C25	0.231100	0.999500	0.163140
C261	C26	0.231300	0.748100	0.251660
C271	C27	0.202700	0.048300	0.237610
C281	C28	0.939900	0.884700	0.238710
C291	C29	0.202900	0.792300	0.328000
C301	C30	0.973100	0.833900	0.165550
C311	C31	0.731100	0.500500	0.336860
C321	C32	0.731300	0.751900	0.248340
C331	C33	0.702700	0.451700	0.262390
C341	C34	0.439900	0.615300	0.261290
C351	C35	0.702900	0.707700	0.172000
C361	C36	0.473100	0.666100	0.334450
C371	C37	0.268900	0.999500	0.836860
C381	C38	0.268700	0.748100	0.748340
C391	C39	0.297300	0.048300	0.762390
C401	C40	0.560100	0.884700	0.761290
C411	C41	0.297100	0.792300	0.672000
C421	C42	0.526900	0.833900	0.834450
C431	C43	0.768900	0.500500	0.663140
C441	C44	0.768700	0.751900	0.751660
C451	C45	0.797300	0.451700	0.737610
C461	C46	0.060100	0.615300	0.738710
C471	C47	0.797100	0.707700	0.828000
C481	C48	0.026900	0.666100	0.665550
N11	N1	0.756200	0.262650	0.695510
N21	N2	0.755700	0.939000	0.807720
N31	N3	0.814000	0.047320	0.812380
N41	N4	0.962910	0.149000	0.809040
N51	N5	0.833500	0.015200	0.763360
N61	N6	0.832250	0.165560	0.707970
N71	N7	0.813100	0.194800	0.757910
N81	N8	0.984150	0.115840	0.761370
N91	N9	0.090100	0.146500	0.806530
N101	N10	0.256200	0.237350	0.804490
N111	N11	0.255700	0.561000	0.692280
N121	N12	0.314000	0.452680	0.687620
N131	N13	0.462910	0.351000	0.690960
N141	N14	0.333500	0.484800	0.736640
N151	N15	0.332250	0.334440	0.792030
N161	N16	0.313100	0.305200	0.742090
N171	N17	0.484150	0.384160	0.738630
N181	N18	0.590100	0.353500	0.693470
N191	N19	0.743800	0.262650	0.304490
N201	N20	0.744300	0.939000	0.192280
N211	N21	0.686000	0.047320	0.187620
N221	N22	0.537090	0.149000	0.190960
N231	N23	0.666500	0.015200	0.236640
N241	N24	0.667750	0.165560	0.292030
N251	N25	0.686900	0.194800	0.242090
N261	N26	0.515850	0.115840	0.238630
N271	N27	0.409900	0.146500	0.193470
N281	N28	0.243800	0.237350	0.195510
N291	N29	0.244300	0.561000	0.307720
N301	N30	0.186000	0.452680	0.312380
N311	N31	0.037090	0.351000	0.309040
N321	N32	0.166500	0.484800	0.263360
N331	N33	0.167750	0.334440	0.207970
N341	N34	0.186900	0.305200	0.257910
N351	N35	0.015850	0.384160	0.261370
N361	N36	0.909900	0.353500	0.306530
N371	N37	0.243800	0.737350	0.304490
N381	N38	0.244300	0.061000	0.192280
N391	N39	0.186000	0.952680	0.187620
N401	N40	0.037090	0.851000	0.190960
N411	N41	0.166500	0.984800	0.236640
N421	N42	0.167750	0.834440	0.292030
N431	N43	0.186900	0.805200	0.242090
N441	N44	0.015850	0.884160	0.238630
N451	N45	0.909900	0.853500	0.193470
N461	N46	0.743800	0.762650	0.195510
N471	N47	0.744300	0.439000	0.307720
N481	N48	0.686000	0.547320	0.312380
N491	N49	0.537090	0.649000	0.309040
N501	N50	0.666500	0.515200	0.263360
N511	N51	0.667750	0.665560	0.207970
N521	N52	0.686900	0.694800	0.257910
N531	N53	0.515850	0.615840	0.261370
N541	N54	0.409900	0.646500	0.306530
N551	N55	0.256200	0.737350	0.695510
N561	N56	0.255700	0.061000	0.807720
N571	N57	0.314000	0.952680	0.812380
N581	N58	0.462910	0.851000	0.809040
N591	N59	0.333500	0.984800	0.763360
N601	N60	0.332250	0.834440	0.707970
N611	N61	0.313100	0.805200	0.757910
N621	N62	0.484150	0.884160	0.761370
N631	N63	0.590100	0.853500	0.806530
N641	N64	0.756200	0.762650	0.804490
N651	N65	0.755700	0.439000	0.692280
N661	N66	0.814000	0.547320	0.687620
N671	N67	0.962910	0.649000	0.690960
N681	N68	0.833500	0.515200	0.736640
N691	N69	0.832250	0.665560	0.792030
N701	N70	0.813100	0.694800	0.742090
N711	N71	0.984150	0.615840	0.738630
N721	N72	0.090100	0.646500	0.693470
O11	O1	0.720520	0.155130	0.949610
O21	O2	0.851170	0.234200	0.971200
O31	O3	0.720340	0.448840	0.949130
O41	O4	0.661260	0.301540	0.847600
O51	O5	0.851650	0.371030	0.971240
O61	O6	0.907790	0.375970	0.073480
O71	O7	0.721310	0.302270	0.949570
O81	O8	0.907510	0.227190	0.073200
O91	O9	0.789830	0.377360	0.869940
O101	O10	0.790610	0.226640	0.871400
O111	O11	0.220520	0.344870	0.550390
O121	O12	0.351170	0.265800	0.528800
O131	O13	0.220340	0.051160	0.550870
O141	O14	0.161260	0.198460	0.652400
O151	O15	0.351650	0.128970	0.528760
O161	O16	0.407790	0.124030	0.426520
O171	O17	0.221310	0.197730	0.550430
O181	O18	0.407510	0.272810	0.426800
O191	O19	0.289830	0.122640	0.630060
O201	O20	0.290610	0.273360	0.628600
O211	O21	0.779480	0.155130	0.050390
O221	O22	0.648830	0.234200	0.028800
O231	O23	0.779660	0.448840	0.050870
O241	O24	0.838740	0.301540	0.152400
O251	O25	0.648350	0.371030	0.028760
O261	O26	0.592210	0.375970	0.926520
O271	O27	0.778690	0.302270	0.050430
O281	O28	0.592490	0.227190	0.926800
O291	O29	0.710170	0.377360	0.130060
O301	O30	0.709390	0.226640	0.128600
O311	O31	0.279480	0.344870	0.449610
O321	O32	0.148830	0.265800	0.471200
O331	O33	0.279660	0.051160	0.449130
O341	O34	0.338740	0.198460	0.347600
O351	O35	0.148350	0.128970	0.471240
O361	O36	0.092210	0.124030	0.573480
O371	O37	0.278690	0.197730	0.449570
O381	O38	0.092490	0.272810	0.573200
O391	O39	0.210170	0.122640	0.369940
O401	O40	0.209390	0.273360	0.371400
O411	O41	0.279480	0.844870	0.050390
O421	O42	0.148830	0.765800	0.028800
O431	O43	0.279660	0.551160	0.050870
O441	O44	0.338740	0.698460	0.152400
O451	O45	0.148350	0.628970	0.028760
O461	O46	0.092210	0.624030	0.926520
O471	O47	0.278690	0.697730	0.050430
O481	O48	0.092490	0.772810	0.926800
O491	O49	0.210170	0.622640	0.130060
O501	O50	0.209390	0.773360	0.128600
O511	O51	0.779480	0.655130	0.449610
O521	O52	0.648830	0.734200	0.471200
O531	O53	0.779660	0.948840	0.449130
O541	O54	0.838740	0.801540	0.347600
O551	O55	0.648350	0.871030	0.471240
O561	O56	0.592210	0.875970	0.573480
O571	O57	0.778690	0.802270	0.449570
O581	O58	0.592490	0.727190	0.573200
O591	O59	0.710170	0.877360	0.369940
O601	O60	0.709390	0.726640	0.371400
O611	O61	0.220520	0.844870	0.949610
O621	O62	0.351170	0.765800	0.971200
O631	O63	0.220340	0.551160	0.949130
O641	O64	0.161260	0.698460	0.847600
O651	O65	0.351650	0.628970	0.971240
O661	O66	0.407790	0.624030	0.073480
O671	O67	0.221310	0.697730	0.949570
O681	O68	0.407510	0.772810	0.073200
O691	O69	0.289830	0.622640	0.869940
O701	O70	0.290610	0.773360	0.871400
O711	O71	0.720520	0.655130	0.550390
O721	O72	0.851170	0.734200	0.528800
O731	O73	0.720340	0.948840	0.550870
O741	O74	0.661260	0.801540	0.652400
O751	O75	0.851650	0.871030	0.528760
O761	O76	0.907790	0.875970	0.426520
O771	O77	0.721310	0.802270	0.550430
O781	O78	0.907510	0.727190	0.426800
O791	O79	0.789830	0.877360	0.630060
O801	O80	0.790610	0.726640	0.628600
