data_NEHGEO_clean_PM
_symmetry_space_group_name_H-M	'P1'
_cell_length_a	22.559700
_cell_length_b	22.559700
_cell_length_c	22.559700
_cell_angle_alpha	90.000000
_cell_angle_beta	90.000000
_cell_angle_gamma	90.000000
_symmetry_Int_Tables_number 1

loop_
_symmetry_equiv_pos_as_xyz
'x,y,z'

loop_
_atom_site_label
_atom_site_type_symbol
_atom_site_fract_x
_atom_site_fract_y
_atom_site_fract_z
C11	C1	0.452750	0.449230	0.141820
C21	C2	0.432130	0.428530	0.201670
C31	C3	0.372280	0.421740	0.214650
H11	H1	0.344000	0.427600	0.185200
C41	C4	0.354680	0.406200	0.271610
H21	H2	0.314600	0.401700	0.280300
C51	C5	0.396920	0.397450	0.315600
C61	C6	0.456770	0.404250	0.302630
H31	H3	0.485000	0.398400	0.332100
C71	C7	0.474370	0.419780	0.245660
H41	H4	0.514400	0.424300	0.237000
Zn11	Zn1	0.427750	0.453720	0.012530
O11	O1	0.415710	0.453110	0.101930
O21	O2	0.502950	0.465870	0.135010
C81	C8	0.047250	0.550770	0.641820
C91	C9	0.067870	0.571470	0.701670
C101	C10	0.127720	0.578260	0.714650
H51	H5	0.156000	0.572400	0.685200
C111	C11	0.145320	0.593800	0.771610
H61	H6	0.185400	0.598300	0.780300
C121	C12	0.103080	0.602550	0.815600
C131	C13	0.043230	0.595750	0.802630
H71	H7	0.015000	0.601600	0.832100
C141	C14	0.025630	0.580220	0.745660
H81	H8	0.985600	0.575700	0.737000
Zn21	Zn2	0.072250	0.546280	0.512530
O31	O3	0.084290	0.546890	0.601930
O41	O4	0.997050	0.534130	0.635010
C151	C15	0.547250	0.949230	0.358180
C161	C16	0.567870	0.928530	0.298330
C171	C17	0.627720	0.921740	0.285350
H91	H9	0.656000	0.927600	0.314800
C181	C18	0.645320	0.906200	0.228390
H101	H10	0.685400	0.901700	0.219700
C191	C19	0.603080	0.897450	0.184400
C201	C20	0.543230	0.904250	0.197370
H111	H11	0.515000	0.898400	0.167900
C211	C21	0.525630	0.919780	0.254340
H121	H12	0.485600	0.924300	0.263000
Zn31	Zn3	0.572250	0.953720	0.487470
O51	O5	0.584290	0.953110	0.398070
O61	O6	0.497050	0.965870	0.364990
C221	C22	0.952750	0.050770	0.858180
C231	C23	0.932130	0.071470	0.798330
C241	C24	0.872280	0.078260	0.785350
H131	H13	0.844000	0.072400	0.814800
C251	C25	0.854680	0.093800	0.728390
H141	H14	0.814600	0.098300	0.719700
C261	C26	0.896920	0.102550	0.684400
C271	C27	0.956770	0.095750	0.697370
H151	H15	0.985000	0.101600	0.667900
C281	C28	0.974370	0.080220	0.754340
H161	H16	0.014400	0.075700	0.763000
Zn41	Zn4	0.927750	0.046280	0.987470
O71	O7	0.915710	0.046890	0.898070
O81	O8	0.002950	0.034130	0.864990
C291	C29	0.141820	0.452750	0.449230
C301	C30	0.201670	0.432130	0.428530
C311	C31	0.214650	0.372280	0.421740
H171	H17	0.185200	0.344000	0.427600
C321	C32	0.271610	0.354680	0.406200
H181	H18	0.280300	0.314600	0.401700
C331	C33	0.315600	0.396920	0.397450
C341	C34	0.302630	0.456770	0.404250
H191	H19	0.332100	0.485000	0.398400
C351	C35	0.245660	0.474370	0.419780
H201	H20	0.237000	0.514400	0.424300
Zn51	Zn5	0.012530	0.427750	0.453720
O91	O9	0.101930	0.415710	0.453110
O101	O10	0.135010	0.502950	0.465870
C361	C36	0.641820	0.047250	0.550770
C371	C37	0.701670	0.067870	0.571470
C381	C38	0.714650	0.127720	0.578260
H211	H21	0.685200	0.156000	0.572400
C391	C39	0.771610	0.145320	0.593800
H221	H22	0.780300	0.185400	0.598300
C401	C40	0.815600	0.103080	0.602550
C411	C41	0.802630	0.043230	0.595750
H231	H23	0.832100	0.015000	0.601600
C421	C42	0.745660	0.025630	0.580220
H241	H24	0.737000	0.985600	0.575700
Zn61	Zn6	0.512530	0.072250	0.546280
O111	O11	0.601930	0.084290	0.546890
O121	O12	0.635010	0.997050	0.534130
C431	C43	0.358180	0.547250	0.949230
C441	C44	0.298330	0.567870	0.928530
C451	C45	0.285350	0.627720	0.921740
H251	H25	0.314800	0.656000	0.927600
C461	C46	0.228390	0.645320	0.906200
H261	H26	0.219700	0.685400	0.901700
C471	C47	0.184400	0.603080	0.897450
C481	C48	0.197370	0.543230	0.904250
H271	H27	0.167900	0.515000	0.898400
C491	C49	0.254340	0.525630	0.919780
H281	H28	0.263000	0.485600	0.924300
Zn71	Zn7	0.487470	0.572250	0.953720
O131	O13	0.398070	0.584290	0.953110
O141	O14	0.364990	0.497050	0.965870
C501	C50	0.858180	0.952750	0.050770
C511	C51	0.798330	0.932130	0.071470
C521	C52	0.785350	0.872280	0.078260
H291	H29	0.814800	0.844000	0.072400
C531	C53	0.728390	0.854680	0.093800
H301	H30	0.719700	0.814600	0.098300
C541	C54	0.684400	0.896920	0.102550
C551	C55	0.697370	0.956770	0.095750
H311	H31	0.667900	0.985000	0.101600
C561	C56	0.754340	0.974370	0.080220
H321	H32	0.763000	0.014400	0.075700
Zn81	Zn8	0.987470	0.927750	0.046280
O151	O15	0.898070	0.915710	0.046890
O161	O16	0.864990	0.002950	0.034130
C571	C57	0.449230	0.141820	0.452750
C581	C58	0.428530	0.201670	0.432130
C591	C59	0.421740	0.214650	0.372280
H331	H33	0.427600	0.185200	0.344000
C601	C60	0.406200	0.271610	0.354680
H341	H34	0.401700	0.280300	0.314600
C611	C61	0.397450	0.315600	0.396920
C621	C62	0.404250	0.302630	0.456770
H351	H35	0.398400	0.332100	0.485000
C631	C63	0.419780	0.245660	0.474370
H361	H36	0.424300	0.237000	0.514400
Zn91	Zn9	0.453720	0.012530	0.427750
O171	O17	0.453110	0.101930	0.415710
O181	O18	0.465870	0.135010	0.502950
C641	C64	0.550770	0.641820	0.047250
C651	C65	0.571470	0.701670	0.067870
C661	C66	0.578260	0.714650	0.127720
H371	H37	0.572400	0.685200	0.156000
C671	C67	0.593800	0.771610	0.145320
H381	H38	0.598300	0.780300	0.185400
C681	C68	0.602550	0.815600	0.103080
C691	C69	0.595750	0.802630	0.043230
H391	H39	0.601600	0.832100	0.015000
C701	C70	0.580220	0.745660	0.025630
H401	H40	0.575700	0.737000	0.985600
Zn101	Zn10	0.546280	0.512530	0.072250
O191	O19	0.546890	0.601930	0.084290
O201	O20	0.534130	0.635010	0.997050
C711	C71	0.949230	0.358180	0.547250
C721	C72	0.928530	0.298330	0.567870
C731	C73	0.921740	0.285350	0.627720
H411	H41	0.927600	0.314800	0.656000
C741	C74	0.906200	0.228390	0.645320
H421	H42	0.901700	0.219700	0.685400
C751	C75	0.897450	0.184400	0.603080
C761	C76	0.904250	0.197370	0.543230
H431	H43	0.898400	0.167900	0.515000
C771	C77	0.919780	0.254340	0.525630
H441	H44	0.924300	0.263000	0.485600
Zn111	Zn11	0.953720	0.487470	0.572250
O211	O21	0.953110	0.398070	0.584290
O221	O22	0.965870	0.364990	0.497050
C781	C78	0.050770	0.858180	0.952750
C791	C79	0.071470	0.798330	0.932130
C801	C80	0.078260	0.785350	0.872280
H451	H45	0.072400	0.814800	0.844000
C811	C81	0.093800	0.728390	0.854680
H461	H46	0.098300	0.719700	0.814600
C821	C82	0.102550	0.684400	0.896920
C831	C83	0.095750	0.697370	0.956770
H471	H47	0.101600	0.667900	0.985000
C841	C84	0.080220	0.754340	0.974370
H481	H48	0.075700	0.763000	0.014400
Zn121	Zn12	0.046280	0.987470	0.927750
O231	O23	0.046890	0.898070	0.915710
O241	O24	0.034130	0.864990	0.002950
C851	C85	0.547250	0.550770	0.858180
C861	C86	0.567870	0.571470	0.798330
C871	C87	0.627720	0.578260	0.785350
H491	H49	0.656000	0.572400	0.814800
C881	C88	0.645320	0.593800	0.728390
H501	H50	0.685400	0.598300	0.719700
C891	C89	0.603080	0.602550	0.684400
C901	C90	0.543230	0.595750	0.697370
H511	H51	0.515000	0.601600	0.667900
C911	C91	0.525630	0.580220	0.754340
H521	H52	0.485600	0.575700	0.763000
Zn131	Zn13	0.572250	0.546280	0.987470
O251	O25	0.584290	0.546890	0.898070
O261	O26	0.497050	0.534130	0.864990
C921	C92	0.952750	0.449230	0.358180
C931	C93	0.932130	0.428530	0.298330
C941	C94	0.872280	0.421740	0.285350
H531	H53	0.844000	0.427600	0.314800
C951	C95	0.854680	0.406200	0.228390
H541	H54	0.814600	0.401700	0.219700
C961	C96	0.896920	0.397450	0.184400
C971	C97	0.956770	0.404250	0.197370
H551	H55	0.985000	0.398400	0.167900
C981	C98	0.974370	0.419780	0.254340
H561	H56	0.014400	0.424300	0.263000
Zn141	Zn14	0.927750	0.453720	0.487470
O271	O27	0.915710	0.453110	0.398070
O281	O28	0.002950	0.465870	0.364990
C991	C99	0.452750	0.050770	0.641820
C1001	C100	0.432130	0.071470	0.701670
C1011	C101	0.372280	0.078260	0.714650
H571	H57	0.344000	0.072400	0.685200
C1021	C102	0.354680	0.093800	0.771610
H581	H58	0.314600	0.098300	0.780300
C1031	C103	0.396920	0.102550	0.815600
C1041	C104	0.456770	0.095750	0.802630
H591	H59	0.485000	0.101600	0.832100
C1051	C105	0.474370	0.080220	0.745660
H601	H60	0.514400	0.075700	0.737000
Zn151	Zn15	0.427750	0.046280	0.512530
O291	O29	0.415710	0.046890	0.601930
O301	O30	0.502950	0.034130	0.635010
C1061	C106	0.047250	0.949230	0.141820
C1071	C107	0.067870	0.928530	0.201670
C1081	C108	0.127720	0.921740	0.214650
H611	H61	0.156000	0.927600	0.185200
C1091	C109	0.145320	0.906200	0.271610
H621	H62	0.185400	0.901700	0.280300
C1101	C110	0.103080	0.897450	0.315600
C1111	C111	0.043230	0.904250	0.302630
H631	H63	0.015000	0.898400	0.332100
C1121	C112	0.025630	0.919780	0.245660
H641	H64	0.985600	0.924300	0.237000
Zn161	Zn16	0.072250	0.953720	0.012530
O311	O31	0.084290	0.953110	0.101930
O321	O32	0.997050	0.965870	0.135010
C1131	C113	0.858180	0.547250	0.550770
C1141	C114	0.798330	0.567870	0.571470
C1151	C115	0.785350	0.627720	0.578260
H651	H65	0.814800	0.656000	0.572400
C1161	C116	0.728390	0.645320	0.593800
H661	H66	0.719700	0.685400	0.598300
C1171	C117	0.684400	0.603080	0.602550
C1181	C118	0.697370	0.543230	0.595750
H671	H67	0.667900	0.515000	0.601600
C1191	C119	0.754340	0.525630	0.580220
H681	H68	0.763000	0.485600	0.575700
Zn171	Zn17	0.987470	0.572250	0.546280
O331	O33	0.898070	0.584290	0.546890
O341	O34	0.864990	0.497050	0.534130
C1201	C120	0.358180	0.952750	0.449230
C1211	C121	0.298330	0.932130	0.428530
C1221	C122	0.285350	0.872280	0.421740
H691	H69	0.314800	0.844000	0.427600
C1231	C123	0.228390	0.854680	0.406200
H701	H70	0.219700	0.814600	0.401700
C1241	C124	0.184400	0.896920	0.397450
C1251	C125	0.197370	0.956770	0.404250
H711	H71	0.167900	0.985000	0.398400
C1261	C126	0.254340	0.974370	0.419780
H721	H72	0.263000	0.014400	0.424300
Zn181	Zn18	0.487470	0.927750	0.453720
O351	O35	0.398070	0.915710	0.453110
O361	O36	0.364990	0.002950	0.465870
C1271	C127	0.641820	0.452750	0.050770
C1281	C128	0.701670	0.432130	0.071470
C1291	C129	0.714650	0.372280	0.078260
H731	H73	0.685200	0.344000	0.072400
C1301	C130	0.771610	0.354680	0.093800
H741	H74	0.780300	0.314600	0.098300
C1311	C131	0.815600	0.396920	0.102550
C1321	C132	0.802630	0.456770	0.095750
H751	H75	0.832100	0.485000	0.101600
C1331	C133	0.745660	0.474370	0.080220
H761	H76	0.737000	0.514400	0.075700
Zn191	Zn19	0.512530	0.427750	0.046280
O371	O37	0.601930	0.415710	0.046890
O381	O38	0.635010	0.502950	0.034130
C1341	C134	0.141820	0.047250	0.949230
C1351	C135	0.201670	0.067870	0.928530
C1361	C136	0.214650	0.127720	0.921740
H771	H77	0.185200	0.156000	0.927600
C1371	C137	0.271610	0.145320	0.906200
H781	H78	0.280300	0.185400	0.901700
C1381	C138	0.315600	0.103080	0.897450
C1391	C139	0.302630	0.043230	0.904250
H791	H79	0.332100	0.015000	0.898400
C1401	C140	0.245660	0.025630	0.919780
H801	H80	0.237000	0.985600	0.924300
Zn201	Zn20	0.012530	0.072250	0.953720
O391	O39	0.101930	0.084290	0.953110
O401	O40	0.135010	0.997050	0.965870
C1411	C141	0.550770	0.858180	0.547250
C1421	C142	0.571470	0.798330	0.567870
C1431	C143	0.578260	0.785350	0.627720
H811	H81	0.572400	0.814800	0.656000
C1441	C144	0.593800	0.728390	0.645320
H821	H82	0.598300	0.719700	0.685400
C1451	C145	0.602550	0.684400	0.603080
C1461	C146	0.595750	0.697370	0.543230
H831	H83	0.601600	0.667900	0.515000
C1471	C147	0.580220	0.754340	0.525630
H841	H84	0.575700	0.763000	0.485600
Zn211	Zn21	0.546280	0.987470	0.572250
O411	O41	0.546890	0.898070	0.584290
O421	O42	0.534130	0.864990	0.497050
C1481	C148	0.449230	0.358180	0.952750
C1491	C149	0.428530	0.298330	0.932130
C1501	C150	0.421740	0.285350	0.872280
H851	H85	0.427600	0.314800	0.844000
C1511	C151	0.406200	0.228390	0.854680
H861	H86	0.401700	0.219700	0.814600
C1521	C152	0.397450	0.184400	0.896920
C1531	C153	0.404250	0.197370	0.956770
H871	H87	0.398400	0.167900	0.985000
C1541	C154	0.419780	0.254340	0.974370
H881	H88	0.424300	0.263000	0.014400
Zn221	Zn22	0.453720	0.487470	0.927750
O431	O43	0.453110	0.398070	0.915710
O441	O44	0.465870	0.364990	0.002950
C1551	C155	0.050770	0.641820	0.452750
C1561	C156	0.071470	0.701670	0.432130
C1571	C157	0.078260	0.714650	0.372280
H891	H89	0.072400	0.685200	0.344000
C1581	C158	0.093800	0.771610	0.354680
H901	H90	0.098300	0.780300	0.314600
C1591	C159	0.102550	0.815600	0.396920
C1601	C160	0.095750	0.802630	0.456770
H911	H91	0.101600	0.832100	0.485000
C1611	C161	0.080220	0.745660	0.474370
H921	H92	0.075700	0.737000	0.514400
Zn231	Zn23	0.046280	0.512530	0.427750
O451	O45	0.046890	0.601930	0.415710
O461	O46	0.034130	0.635010	0.502950
C1621	C162	0.949230	0.141820	0.047250
C1631	C163	0.928530	0.201670	0.067870
C1641	C164	0.921740	0.214650	0.127720
H931	H93	0.927600	0.185200	0.156000
C1651	C165	0.906200	0.271610	0.145320
H941	H94	0.901700	0.280300	0.185400
C1661	C166	0.897450	0.315600	0.103080
C1671	C167	0.904250	0.302630	0.043230
H951	H95	0.898400	0.332100	0.015000
C1681	C168	0.919780	0.245660	0.025630
H961	H96	0.924300	0.237000	0.985600
Zn241	Zn24	0.953720	0.012530	0.072250
O471	O47	0.953110	0.101930	0.084290
O481	O48	0.965870	0.135010	0.997050
C1691	C169	0.383700	0.383700	0.383700
H971	H97	0.408800	0.408800	0.408800
C1701	C170	0.116300	0.616300	0.883700
H981	H98	0.091200	0.591200	0.908800
C1711	C171	0.616300	0.883700	0.116300
H991	H99	0.591200	0.908800	0.091200
C1721	C172	0.883700	0.116300	0.616300
H1001	H100	0.908800	0.091200	0.591200
C1731	C173	0.616300	0.616300	0.616300
H1011	H101	0.591200	0.591200	0.591200
C1741	C174	0.883700	0.383700	0.116300
H1021	H102	0.908800	0.408800	0.091200
C1751	C175	0.383700	0.116300	0.883700
H1031	H103	0.408800	0.091200	0.908800
C1761	C176	0.116300	0.883700	0.383700
H1041	H104	0.091200	0.908800	0.408800
O491	O49	0.500000	0.500000	0.000000
O501	O50	0.000000	0.500000	0.500000
O511	O51	0.500000	0.000000	0.500000
O521	O52	0.000000	0.000000	0.000000
C1771	C177	0.952750	0.949230	0.641820
C1781	C178	0.932130	0.928530	0.701670
C1791	C179	0.872280	0.921740	0.714650
H1051	H105	0.844000	0.927600	0.685200
C1801	C180	0.854680	0.906200	0.771610
H1061	H106	0.814600	0.901700	0.780300
C1811	C181	0.896920	0.897450	0.815600
C1821	C182	0.956770	0.904250	0.802630
H1071	H107	0.985000	0.898400	0.832100
C1831	C183	0.974370	0.919780	0.745660
H1081	H108	0.014400	0.924300	0.737000
Zn251	Zn25	0.927750	0.953720	0.512530
O531	O53	0.915710	0.953110	0.601930
O541	O54	0.002950	0.965870	0.635010
C1841	C184	0.547250	0.050770	0.141820
C1851	C185	0.567870	0.071470	0.201670
C1861	C186	0.627720	0.078260	0.214650
H1091	H109	0.656000	0.072400	0.185200
C1871	C187	0.645320	0.093800	0.271610
H1101	H110	0.685400	0.098300	0.280300
C1881	C188	0.603080	0.102550	0.315600
C1891	C189	0.543230	0.095750	0.302630
H1111	H111	0.515000	0.101600	0.332100
C1901	C190	0.525630	0.080220	0.245660
H1121	H112	0.485600	0.075700	0.237000
Zn261	Zn26	0.572250	0.046280	0.012530
O551	O55	0.584290	0.046890	0.101930
O561	O56	0.497050	0.034130	0.135010
C1911	C191	0.047250	0.449230	0.858180
C1921	C192	0.067870	0.428530	0.798330
C1931	C193	0.127720	0.421740	0.785350
H1131	H113	0.156000	0.427600	0.814800
C1941	C194	0.145320	0.406200	0.728390
H1141	H114	0.185400	0.401700	0.719700
C1951	C195	0.103080	0.397450	0.684400
C1961	C196	0.043230	0.404250	0.697370
H1151	H115	0.015000	0.398400	0.667900
C1971	C197	0.025630	0.419780	0.754340
H1161	H116	0.985600	0.424300	0.763000
Zn271	Zn27	0.072250	0.453720	0.987470
O571	O57	0.084290	0.453110	0.898070
O581	O58	0.997050	0.465870	0.864990
C1981	C198	0.452750	0.550770	0.358180
C1991	C199	0.432130	0.571470	0.298330
C2001	C200	0.372280	0.578260	0.285350
H1171	H117	0.344000	0.572400	0.314800
C2011	C201	0.354680	0.593800	0.228390
H1181	H118	0.314600	0.598300	0.219700
C2021	C202	0.396920	0.602550	0.184400
C2031	C203	0.456770	0.595750	0.197370
H1191	H119	0.485000	0.601600	0.167900
C2041	C204	0.474370	0.580220	0.254340
H1201	H120	0.514400	0.575700	0.263000
Zn281	Zn28	0.427750	0.546280	0.487470
O591	O59	0.415710	0.546890	0.398070
O601	O60	0.502950	0.534130	0.364990
C2051	C205	0.641820	0.952750	0.949230
C2061	C206	0.701670	0.932130	0.928530
C2071	C207	0.714650	0.872280	0.921740
H1211	H121	0.685200	0.844000	0.927600
C2081	C208	0.771610	0.854680	0.906200
H1221	H122	0.780300	0.814600	0.901700
C2091	C209	0.815600	0.896920	0.897450
C2101	C210	0.802630	0.956770	0.904250
H1231	H123	0.832100	0.985000	0.898400
C2111	C211	0.745660	0.974370	0.919780
H1241	H124	0.737000	0.014400	0.924300
Zn291	Zn29	0.512530	0.927750	0.953720
O611	O61	0.601930	0.915710	0.953110
O621	O62	0.635010	0.002950	0.965870
C2121	C212	0.141820	0.547250	0.050770
C2131	C213	0.201670	0.567870	0.071470
C2141	C214	0.214650	0.627720	0.078260
H1251	H125	0.185200	0.656000	0.072400
C2151	C215	0.271610	0.645320	0.093800
H1261	H126	0.280300	0.685400	0.098300
C2161	C216	0.315600	0.603080	0.102550
C2171	C217	0.302630	0.543230	0.095750
H1271	H127	0.332100	0.515000	0.101600
C2181	C218	0.245660	0.525630	0.080220
H1281	H128	0.237000	0.485600	0.075700
Zn301	Zn30	0.012530	0.572250	0.046280
O631	O63	0.101930	0.584290	0.046890
O641	O64	0.135010	0.497050	0.034130
C2191	C219	0.858180	0.047250	0.449230
C2201	C220	0.798330	0.067870	0.428530
C2211	C221	0.785350	0.127720	0.421740
H1291	H129	0.814800	0.156000	0.427600
C2221	C222	0.728390	0.145320	0.406200
H1301	H130	0.719700	0.185400	0.401700
C2231	C223	0.684400	0.103080	0.397450
C2241	C224	0.697370	0.043230	0.404250
H1311	H131	0.667900	0.015000	0.398400
C2251	C225	0.754340	0.025630	0.419780
H1321	H132	0.763000	0.985600	0.424300
Zn311	Zn31	0.987470	0.072250	0.453720
O651	O65	0.898070	0.084290	0.453110
O661	O66	0.864990	0.997050	0.465870
C2261	C226	0.358180	0.452750	0.550770
C2271	C227	0.298330	0.432130	0.571470
C2281	C228	0.285350	0.372280	0.578260
H1331	H133	0.314800	0.344000	0.572400
C2291	C229	0.228390	0.354680	0.593800
H1341	H134	0.219700	0.314600	0.598300
C2301	C230	0.184400	0.396920	0.602550
C2311	C231	0.197370	0.456770	0.595750
H1351	H135	0.167900	0.485000	0.601600
C2321	C232	0.254340	0.474370	0.580220
H1361	H136	0.263000	0.514400	0.575700
Zn321	Zn32	0.487470	0.427750	0.546280
O671	O67	0.398070	0.415710	0.546890
O681	O68	0.364990	0.502950	0.534130
C2331	C233	0.949230	0.641820	0.952750
C2341	C234	0.928530	0.701670	0.932130
C2351	C235	0.921740	0.714650	0.872280
H1371	H137	0.927600	0.685200	0.844000
C2361	C236	0.906200	0.771610	0.854680
H1381	H138	0.901700	0.780300	0.814600
C2371	C237	0.897450	0.815600	0.896920
C2381	C238	0.904250	0.802630	0.956770
H1391	H139	0.898400	0.832100	0.985000
C2391	C239	0.919780	0.745660	0.974370
H1401	H140	0.924300	0.737000	0.014400
Zn331	Zn33	0.953720	0.512530	0.927750
O691	O69	0.953110	0.601930	0.915710
O701	O70	0.965870	0.635010	0.002950
C2401	C240	0.050770	0.141820	0.547250
C2411	C241	0.071470	0.201670	0.567870
C2421	C242	0.078260	0.214650	0.627720
H1411	H141	0.072400	0.185200	0.656000
C2431	C243	0.093800	0.271610	0.645320
H1421	H142	0.098300	0.280300	0.685400
C2441	C244	0.102550	0.315600	0.603080
C2451	C245	0.095750	0.302630	0.543230
H1431	H143	0.101600	0.332100	0.515000
C2461	C246	0.080220	0.245660	0.525630
H1441	H144	0.075700	0.237000	0.485600
Zn341	Zn34	0.046280	0.012530	0.572250
O711	O71	0.046890	0.101930	0.584290
O721	O72	0.034130	0.135010	0.497050
C2471	C247	0.449230	0.858180	0.047250
C2481	C248	0.428530	0.798330	0.067870
C2491	C249	0.421740	0.785350	0.127720
H1451	H145	0.427600	0.814800	0.156000
C2501	C250	0.406200	0.728390	0.145320
H1461	H146	0.401700	0.719700	0.185400
C2511	C251	0.397450	0.684400	0.103080
C2521	C252	0.404250	0.697370	0.043230
H1471	H147	0.398400	0.667900	0.015000
C2531	C253	0.419780	0.754340	0.025630
H1481	H148	0.424300	0.763000	0.985600
Zn351	Zn35	0.453720	0.987470	0.072250
O731	O73	0.453110	0.898070	0.084290
O741	O74	0.465870	0.864990	0.997050
C2541	C254	0.550770	0.358180	0.452750
C2551	C255	0.571470	0.298330	0.432130
C2561	C256	0.578260	0.285350	0.372280
H1491	H149	0.572400	0.314800	0.344000
C2571	C257	0.593800	0.228390	0.354680
H1501	H150	0.598300	0.219700	0.314600
C2581	C258	0.602550	0.184400	0.396920
C2591	C259	0.595750	0.197370	0.456770
H1511	H151	0.601600	0.167900	0.485000
C2601	C260	0.580220	0.254340	0.474370
H1521	H152	0.575700	0.263000	0.514400
Zn361	Zn36	0.546280	0.487470	0.427750
O751	O75	0.546890	0.398070	0.415710
O761	O76	0.534130	0.364990	0.502950
C2611	C261	0.047250	0.050770	0.358180
C2621	C262	0.067870	0.071470	0.298330
C2631	C263	0.127720	0.078260	0.285350
H1531	H153	0.156000	0.072400	0.314800
C2641	C264	0.145320	0.093800	0.228390
H1541	H154	0.185400	0.098300	0.219700
C2651	C265	0.103080	0.102550	0.184400
C2661	C266	0.043230	0.095750	0.197370
H1551	H155	0.015000	0.101600	0.167900
C2671	C267	0.025630	0.080220	0.254340
H1561	H156	0.985600	0.075700	0.263000
Zn371	Zn37	0.072250	0.046280	0.487470
O771	O77	0.084290	0.046890	0.398070
O781	O78	0.997050	0.034130	0.364990
C2681	C268	0.452750	0.949230	0.858180
C2691	C269	0.432130	0.928530	0.798330
C2701	C270	0.372280	0.921740	0.785350
H1571	H157	0.344000	0.927600	0.814800
C2711	C271	0.354680	0.906200	0.728390
H1581	H158	0.314600	0.901700	0.719700
C2721	C272	0.396920	0.897450	0.684400
C2731	C273	0.456770	0.904250	0.697370
H1591	H159	0.485000	0.898400	0.667900
C2741	C274	0.474370	0.919780	0.754340
H1601	H160	0.514400	0.924300	0.763000
Zn381	Zn38	0.427750	0.953720	0.987470
O791	O79	0.415710	0.953110	0.898070
O801	O80	0.502950	0.965870	0.864990
C2751	C275	0.952750	0.550770	0.141820
C2761	C276	0.932130	0.571470	0.201670
C2771	C277	0.872280	0.578260	0.214650
H1611	H161	0.844000	0.572400	0.185200
C2781	C278	0.854680	0.593800	0.271610
H1621	H162	0.814600	0.598300	0.280300
C2791	C279	0.896920	0.602550	0.315600
C2801	C280	0.956770	0.595750	0.302630
H1631	H163	0.985000	0.601600	0.332100
C2811	C281	0.974370	0.580220	0.245660
H1641	H164	0.014400	0.575700	0.237000
Zn391	Zn39	0.927750	0.546280	0.012530
O811	O81	0.915710	0.546890	0.101930
O821	O82	0.002950	0.534130	0.135010
C2821	C282	0.547250	0.449230	0.641820
C2831	C283	0.567870	0.428530	0.701670
C2841	C284	0.627720	0.421740	0.714650
H1651	H165	0.656000	0.427600	0.685200
C2851	C285	0.645320	0.406200	0.771610
H1661	H166	0.685400	0.401700	0.780300
C2861	C286	0.603080	0.397450	0.815600
C2871	C287	0.543230	0.404250	0.802630
H1671	H167	0.515000	0.398400	0.832100
C2881	C288	0.525630	0.419780	0.745660
H1681	H168	0.485600	0.424300	0.737000
Zn401	Zn40	0.572250	0.453720	0.512530
O831	O83	0.584290	0.453110	0.601930
O841	O84	0.497050	0.465870	0.635010
C2891	C289	0.358180	0.047250	0.050770
C2901	C290	0.298330	0.067870	0.071470
C2911	C291	0.285350	0.127720	0.078260
H1691	H169	0.314800	0.156000	0.072400
C2921	C292	0.228390	0.145320	0.093800
H1701	H170	0.219700	0.185400	0.098300
C2931	C293	0.184400	0.103080	0.102550
C2941	C294	0.197370	0.043230	0.095750
H1711	H171	0.167900	0.015000	0.101600
C2951	C295	0.254340	0.025630	0.080220
H1721	H172	0.263000	0.985600	0.075700
Zn411	Zn41	0.487470	0.072250	0.046280
O851	O85	0.398070	0.084290	0.046890
O861	O86	0.364990	0.997050	0.034130
C2961	C296	0.858180	0.452750	0.949230
C2971	C297	0.798330	0.432130	0.928530
C2981	C298	0.785350	0.372280	0.921740
H1731	H173	0.814800	0.344000	0.927600
C2991	C299	0.728390	0.354680	0.906200
H1741	H174	0.719700	0.314600	0.901700
C3001	C300	0.684400	0.396920	0.897450
C3011	C301	0.697370	0.456770	0.904250
H1751	H175	0.667900	0.485000	0.898400
C3021	C302	0.754340	0.474370	0.919780
H1761	H176	0.763000	0.514400	0.924300
Zn421	Zn42	0.987470	0.427750	0.953720
O871	O87	0.898070	0.415710	0.953110
O881	O88	0.864990	0.502950	0.965870
C3031	C303	0.141820	0.952750	0.550770
C3041	C304	0.201670	0.932130	0.571470
C3051	C305	0.214650	0.872280	0.578260
H1771	H177	0.185200	0.844000	0.572400
C3061	C306	0.271610	0.854680	0.593800
H1781	H178	0.280300	0.814600	0.598300
C3071	C307	0.315600	0.896920	0.602550
C3081	C308	0.302630	0.956770	0.595750
H1791	H179	0.332100	0.985000	0.601600
C3091	C309	0.245660	0.974370	0.580220
H1801	H180	0.237000	0.014400	0.575700
Zn431	Zn43	0.012530	0.927750	0.546280
O891	O89	0.101930	0.915710	0.546890
O901	O90	0.135010	0.002950	0.534130
C3101	C310	0.641820	0.547250	0.449230
C3111	C311	0.701670	0.567870	0.428530
C3121	C312	0.714650	0.627720	0.421740
H1811	H181	0.685200	0.656000	0.427600
C3131	C313	0.771610	0.645320	0.406200
H1821	H182	0.780300	0.685400	0.401700
C3141	C314	0.815600	0.603080	0.397450
C3151	C315	0.802630	0.543230	0.404250
H1831	H183	0.832100	0.515000	0.398400
C3161	C316	0.745660	0.525630	0.419780
H1841	H184	0.737000	0.485600	0.424300
Zn441	Zn44	0.512530	0.572250	0.453720
O911	O91	0.601930	0.584290	0.453110
O921	O92	0.635010	0.497050	0.465870
C3171	C317	0.050770	0.358180	0.047250
C3181	C318	0.071470	0.298330	0.067870
C3191	C319	0.078260	0.285350	0.127720
H1851	H185	0.072400	0.314800	0.156000
C3201	C320	0.093800	0.228390	0.145320
H1861	H186	0.098300	0.219700	0.185400
C3211	C321	0.102550	0.184400	0.103080
C3221	C322	0.095750	0.197370	0.043230
H1871	H187	0.101600	0.167900	0.015000
C3231	C323	0.080220	0.254340	0.025630
H1881	H188	0.075700	0.263000	0.985600
Zn451	Zn45	0.046280	0.487470	0.072250
O931	O93	0.046890	0.398070	0.084290
O941	O94	0.034130	0.364990	0.997050
C3241	C324	0.949230	0.858180	0.452750
C3251	C325	0.928530	0.798330	0.432130
C3261	C326	0.921740	0.785350	0.372280
H1891	H189	0.927600	0.814800	0.344000
C3271	C327	0.906200	0.728390	0.354680
H1901	H190	0.901700	0.719700	0.314600
C3281	C328	0.897450	0.684400	0.396920
C3291	C329	0.904250	0.697370	0.456770
H1911	H191	0.898400	0.667900	0.485000
C3301	C330	0.919780	0.754340	0.474370
H1921	H192	0.924300	0.763000	0.514400
Zn461	Zn46	0.953720	0.987470	0.427750
O951	O95	0.953110	0.898070	0.415710
O961	O96	0.965870	0.864990	0.502950
C3311	C331	0.550770	0.141820	0.952750
C3321	C332	0.571470	0.201670	0.932130
C3331	C333	0.578260	0.214650	0.872280
H1931	H193	0.572400	0.185200	0.844000
C3341	C334	0.593800	0.271610	0.854680
H1941	H194	0.598300	0.280300	0.814600
C3351	C335	0.602550	0.315600	0.896920
C3361	C336	0.595750	0.302630	0.956770
H1951	H195	0.601600	0.332100	0.985000
C3371	C337	0.580220	0.245660	0.974370
H1961	H196	0.575700	0.237000	0.014400
Zn471	Zn47	0.546280	0.012530	0.927750
O971	O97	0.546890	0.101930	0.915710
O981	O98	0.534130	0.135010	0.002950
C3381	C338	0.449230	0.641820	0.547250
C3391	C339	0.428530	0.701670	0.567870
C3401	C340	0.421740	0.714650	0.627720
H1971	H197	0.427600	0.685200	0.656000
C3411	C341	0.406200	0.771610	0.645320
H1981	H198	0.401700	0.780300	0.685400
C3421	C342	0.397450	0.815600	0.603080
C3431	C343	0.404250	0.802630	0.543230
H1991	H199	0.398400	0.832100	0.515000
C3441	C344	0.419780	0.745660	0.525630
H2001	H200	0.424300	0.737000	0.485600
Zn481	Zn48	0.453720	0.512530	0.572250
O991	O99	0.453110	0.601930	0.584290
O1001	O100	0.465870	0.635010	0.497050
C3451	C345	0.883700	0.883700	0.883700
H2011	H201	0.908800	0.908800	0.908800
C3461	C346	0.616300	0.116300	0.383700
H2021	H202	0.591200	0.091200	0.408800
C3471	C347	0.116300	0.383700	0.616300
H2031	H203	0.091200	0.408800	0.591200
C3481	C348	0.383700	0.616300	0.116300
H2041	H204	0.408800	0.591200	0.091200
C3491	C349	0.116300	0.116300	0.116300
H2051	H205	0.091200	0.091200	0.091200
C3501	C350	0.383700	0.883700	0.616300
H2061	H206	0.408800	0.908800	0.591200
C3511	C351	0.883700	0.616300	0.383700
H2071	H207	0.908800	0.591200	0.408800
C3521	C352	0.616300	0.383700	0.883700
H2081	H208	0.591200	0.408800	0.908800
O1011	O101	0.000000	0.000000	0.500000
O1021	O102	0.500000	0.000000	0.000000
O1031	O103	0.000000	0.500000	0.000000
O1041	O104	0.500000	0.500000	0.500000
