data_NEJSOM_clean_PM
_symmetry_space_group_name_H-M	'P1'
_cell_length_a	10.806000
_cell_length_b	10.834000
_cell_length_c	16.270000
_cell_angle_alpha	90.492000
_cell_angle_beta	97.154000
_cell_angle_gamma	90.855000
_symmetry_Int_Tables_number 1

loop_
_symmetry_equiv_pos_as_xyz
'x,y,z'

loop_
_atom_site_label
_atom_site_type_symbol
_atom_site_fract_x
_atom_site_fract_y
_atom_site_fract_z
Cu11	Cu1	0.316280	0.840510	0.777230
Cu21	Cu2	0.284230	0.837820	0.612780
H11	H1	0.503300	0.889400	0.935200
H21	H2	0.515800	0.885900	0.077400
H31	H3	0.166100	0.753900	0.054500
H41	H4	0.166700	0.751900	0.913800
H51	H5	0.667700	0.836500	0.571000
H61	H6	0.880000	0.833200	0.568400
H71	H7	0.718400	0.844700	0.820100
H81	H8	0.932300	0.843400	0.818400
H91	H9	0.273400	0.229100	0.573100
H101	H10	0.171700	0.807700	0.186300
H111	H11	0.316600	0.450800	0.819800
H121	H12	0.316900	0.236600	0.821600
H131	H13	0.445400	0.844000	0.334900
H141	H14	0.423300	0.845900	0.203500
H151	H15	0.277200	0.442000	0.572100
H161	H16	0.084500	0.830200	0.455600
H171	H17	0.071700	0.821400	0.313700
H181	H18	0.447500	0.851300	0.475600
C11	C1	0.432600	0.864300	0.959500
C21	C2	0.440400	0.863400	0.045100
C31	C3	0.338600	0.829900	0.083000
C41	C4	0.235900	0.784800	0.031700
C51	C5	0.236200	0.785400	0.947500
C61	C6	0.721700	0.837900	0.621000
C71	C7	0.672800	0.841400	0.696000
C81	C8	0.847800	0.836300	0.619400
C91	C9	0.300800	0.605100	0.694500
C101	C10	0.298900	0.467700	0.695000
C111	C11	0.751400	0.843000	0.769300
C121	C12	0.928800	0.839200	0.693000
C131	C13	0.878700	0.842100	0.768200
C141	C14	0.066100	0.837000	0.692100
C151	C15	0.283600	0.273400	0.623500
C161	C16	0.296400	0.211100	0.696800
C171	C17	0.250800	0.822100	0.216200
C181	C18	0.309300	0.405900	0.769700
C191	C19	0.299300	0.072300	0.697700
C201	C20	0.533600	0.842300	0.697200
C211	C21	0.308800	0.278100	0.770800
C221	C22	0.369900	0.839800	0.357900
C231	C23	0.344000	0.833700	0.173300
C241	C24	0.285400	0.400700	0.623000
C251	C25	0.158400	0.831700	0.430700
C261	C26	0.150400	0.826600	0.345600
C271	C27	0.257300	0.829300	0.306800
C281	C28	0.370300	0.844000	0.442100
N11	N1	0.267400	0.838400	0.479000
N21	N2	0.331900	0.831900	0.910800
O11	O1	0.105500	0.831900	0.622390
O21	O2	0.311700	0.659700	0.763270
O31	O3	0.289800	0.655900	0.625140
O41	O4	0.316600	0.021300	0.767380
O51	O5	0.133600	0.840800	0.760990
O61	O6	0.283600	0.017900	0.629170
O71	O7	0.494700	0.842600	0.766820
O81	O8	0.467000	0.843400	0.628370
Cu31	Cu3	0.683720	0.159490	0.222770
Cu41	Cu4	0.715770	0.162180	0.387220
H191	H19	0.496700	0.110600	0.064800
H201	H20	0.484200	0.114100	0.922600
H211	H21	0.833900	0.246100	0.945500
H221	H22	0.833300	0.248100	0.086200
H231	H23	0.332300	0.163500	0.429000
H241	H24	0.120000	0.166800	0.431600
H251	H25	0.281600	0.155300	0.179900
H261	H26	0.067700	0.156600	0.181600
H271	H27	0.726600	0.770900	0.426900
H281	H28	0.828300	0.192300	0.813700
H291	H29	0.683400	0.549200	0.180200
H301	H30	0.683100	0.763400	0.178400
H311	H31	0.554600	0.156000	0.665100
H321	H32	0.576700	0.154100	0.796500
H331	H33	0.722800	0.558000	0.427900
H341	H34	0.915500	0.169800	0.544400
H351	H35	0.928300	0.178600	0.686300
H361	H36	0.552500	0.148700	0.524400
C291	C29	0.567400	0.135700	0.040500
C301	C30	0.559600	0.136600	0.954900
C311	C31	0.661400	0.170100	0.917000
C321	C32	0.764100	0.215200	0.968300
C331	C33	0.763800	0.214600	0.052500
C341	C34	0.278300	0.162100	0.379000
C351	C35	0.327200	0.158600	0.304000
C361	C36	0.152200	0.163700	0.380600
C371	C37	0.699200	0.394900	0.305500
C381	C38	0.701100	0.532300	0.305000
C391	C39	0.248600	0.157000	0.230700
C401	C40	0.071200	0.160800	0.307000
C411	C41	0.121300	0.157900	0.231800
C421	C42	0.933900	0.163000	0.307900
C431	C43	0.716400	0.726600	0.376500
C441	C44	0.703600	0.788900	0.303200
C451	C45	0.749200	0.177900	0.783800
C461	C46	0.690700	0.594100	0.230300
C471	C47	0.700700	0.927700	0.302300
C481	C48	0.466400	0.157700	0.302800
C491	C49	0.691200	0.721900	0.229200
C501	C50	0.630100	0.160200	0.642100
C511	C51	0.656000	0.166300	0.826700
C521	C52	0.714600	0.599300	0.377000
C531	C53	0.841600	0.168300	0.569300
C541	C54	0.849600	0.173400	0.654400
C551	C55	0.742700	0.170700	0.693200
C561	C56	0.629700	0.156000	0.557900
N31	N3	0.732600	0.161600	0.521000
N41	N4	0.668100	0.168100	0.089200
O91	O9	0.894500	0.168100	0.377610
O101	O10	0.688300	0.340300	0.236730
O111	O11	0.710200	0.344100	0.374860
O121	O12	0.683400	0.978700	0.232620
O131	O13	0.866400	0.159200	0.239010
O141	O14	0.716400	0.982100	0.370830
O151	O15	0.505300	0.157400	0.233180
O161	O16	0.533000	0.156600	0.371630
