data_NEKMUN_clean_PM
_symmetry_space_group_name_H-M	'P1'
_cell_length_a	19.936000
_cell_length_b	10.251000
_cell_length_c	17.910000
_cell_angle_alpha	90.000000
_cell_angle_beta	94.734000
_cell_angle_gamma	90.000000
_symmetry_Int_Tables_number 1

loop_
_symmetry_equiv_pos_as_xyz
'x,y,z'

loop_
_atom_site_label
_atom_site_type_symbol
_atom_site_fract_x
_atom_site_fract_y
_atom_site_fract_z
Co11	Co1	0.855540	0.253130	0.935080
Co21	Co2	0.752090	0.452560	0.835250
O11	O1	0.770570	0.256100	0.987890
O21	O2	0.695520	0.365300	0.910910
O31	O3	0.704670	0.112800	0.237350
O41	O4	0.594360	0.116600	0.255430
O51	O5	0.482050	0.355600	0.037650
O61	O6	0.414920	0.455800	0.144990
O71	O7	0.310880	0.383700	0.158730
O81	O8	0.903950	0.120600	0.002330
O91	O9	0.837880	0.032700	0.911950
O101	O10	0.811290	0.550500	0.915400
O111	O11	0.892480	0.426000	0.973550
O121	O12	0.037970	0.751800	0.123920
O131	O13	0.171730	0.691200	0.170750
O141	O14	0.160990	0.517800	0.240490
C11	C1	0.713980	0.306200	0.970300
C21	C2	0.661870	0.291600	0.027300
C31	C3	0.596360	0.334500	0.007900
H11	H1	0.585500	0.375900	0.962300
C41	C4	0.547620	0.314200	0.057900
C51	C5	0.563150	0.253900	0.126300
H21	H2	0.529900	0.241600	0.159000
C61	C6	0.628730	0.211600	0.146000
C71	C7	0.678400	0.230000	0.095300
H31	H3	0.722100	0.200900	0.107300
C81	C8	0.644210	0.140500	0.219000
C91	C9	0.434230	0.257900	0.035900
C101	C10	0.442700	0.147100	0.992800
H41	H4	0.482300	0.136000	0.969500
C111	C11	0.392900	0.053800	0.984600
H51	H5	0.399800	0.978400	0.957300
C121	C12	0.332800	0.071300	0.016500
H61	H6	0.298500	0.009900	0.009300
C131	C13	0.324240	0.181100	0.059400
H71	H7	0.283500	0.193700	0.080200
C141	C14	0.375360	0.274000	0.072200
C151	C15	0.365320	0.379700	0.128200
C161	C16	0.878830	0.020300	0.967700
C171	C17	0.902950	0.889900	0.996000
C181	C18	0.956060	0.882200	0.050700
H81	H8	0.975600	0.957500	0.071700
C191	C19	0.979560	0.760200	0.073800
C201	C20	0.951130	0.646200	0.044900
H91	H9	0.967800	0.565400	0.061200
C211	C21	0.897080	0.654700	0.990900
C221	C22	0.873840	0.776200	0.966200
H101	H10	0.838300	0.781500	0.929300
C231	C23	0.864150	0.534500	0.957100
C241	C24	0.029290	0.750400	0.200600
C251	C25	0.975930	0.812100	0.230500
H111	H11	0.944300	0.857400	0.199400
C261	C26	0.969950	0.805900	0.307100
H121	H12	0.933800	0.846600	0.327000
C271	C27	0.016700	0.740300	0.354300
H131	H13	0.012200	0.737000	0.405500
C281	C28	0.071380	0.678400	0.323700
H141	H14	0.103100	0.633600	0.354900
C291	C29	0.078130	0.684200	0.246900
C301	C30	0.139120	0.624500	0.217800
H151	H15	0.416000	0.506000	0.184000
Co31	Co3	0.144460	0.753130	0.564920
Co41	Co4	0.247910	0.952560	0.664750
O151	O15	0.229430	0.756100	0.512110
O161	O16	0.304480	0.865300	0.589090
O171	O17	0.295330	0.612800	0.262650
O181	O18	0.405640	0.616600	0.244570
O191	O19	0.517950	0.855600	0.462350
O201	O20	0.585080	0.955800	0.355010
O211	O21	0.689120	0.883700	0.341270
O221	O22	0.096050	0.620600	0.497670
O231	O23	0.162120	0.532700	0.588050
O241	O24	0.188710	0.050500	0.584600
O251	O25	0.107520	0.926000	0.526450
O261	O26	0.962030	0.251800	0.376080
O271	O27	0.828270	0.191200	0.329250
O281	O28	0.839010	0.017800	0.259510
C311	C31	0.286020	0.806200	0.529700
C321	C32	0.338130	0.791600	0.472700
C331	C33	0.403640	0.834500	0.492100
H161	H16	0.414500	0.875900	0.537700
C341	C34	0.452380	0.814200	0.442100
C351	C35	0.436850	0.753900	0.373700
H171	H17	0.470100	0.741600	0.341000
C361	C36	0.371270	0.711600	0.354000
C371	C37	0.321600	0.730000	0.404700
H181	H18	0.277900	0.700900	0.392700
C381	C38	0.355790	0.640500	0.281000
C391	C39	0.565770	0.757900	0.464100
C401	C40	0.557300	0.647100	0.507200
H191	H19	0.517700	0.636000	0.530500
C411	C41	0.607100	0.553800	0.515400
H201	H20	0.600200	0.478400	0.542700
C421	C42	0.667200	0.571300	0.483500
H211	H21	0.701500	0.509900	0.490700
C431	C43	0.675760	0.681100	0.440600
H221	H22	0.716500	0.693700	0.419800
C441	C44	0.624640	0.774000	0.427800
C451	C45	0.634680	0.879700	0.371800
C461	C46	0.121170	0.520300	0.532300
C471	C47	0.097050	0.389900	0.504000
C481	C48	0.043940	0.382200	0.449300
H231	H23	0.024400	0.457500	0.428300
C491	C49	0.020440	0.260200	0.426200
C501	C50	0.048870	0.146200	0.455100
H241	H24	0.032200	0.065400	0.438800
C511	C51	0.102920	0.154700	0.509100
C521	C52	0.126160	0.276200	0.533800
H251	H25	0.161700	0.281500	0.570700
C531	C53	0.135850	0.034500	0.542900
C541	C54	0.970710	0.250400	0.299400
C551	C55	0.024070	0.312100	0.269500
H261	H26	0.055700	0.357400	0.300600
C561	C56	0.030050	0.305900	0.192900
H271	H27	0.066200	0.346600	0.173000
C571	C57	0.983300	0.240300	0.145700
H281	H28	0.987800	0.237000	0.094500
C581	C58	0.928620	0.178400	0.176300
H291	H29	0.896900	0.133600	0.145100
C591	C59	0.921870	0.184200	0.253100
C601	C60	0.860880	0.124500	0.282200
H301	H30	0.584000	0.006000	0.316000
Co51	Co5	0.144460	0.746870	0.064920
Co61	Co6	0.247910	0.547440	0.164750
O291	O29	0.229430	0.743900	0.012110
O301	O30	0.304480	0.634700	0.089090
O311	O31	0.295330	0.887200	0.762650
O321	O32	0.405640	0.883400	0.744570
O331	O33	0.517950	0.644400	0.962350
O341	O34	0.585080	0.544200	0.855010
O351	O35	0.689120	0.616300	0.841270
O361	O36	0.096050	0.879400	0.997670
O371	O37	0.162120	0.967300	0.088050
O381	O38	0.188710	0.449500	0.084600
O391	O39	0.107520	0.574000	0.026450
O401	O40	0.962030	0.248200	0.876080
O411	O41	0.828270	0.308800	0.829250
O421	O42	0.839010	0.482200	0.759510
C611	C61	0.286020	0.693800	0.029700
C621	C62	0.338130	0.708400	0.972700
C631	C63	0.403640	0.665500	0.992100
H311	H31	0.414500	0.624100	0.037700
C641	C64	0.452380	0.685800	0.942100
C651	C65	0.436850	0.746100	0.873700
H321	H32	0.470100	0.758400	0.841000
C661	C66	0.371270	0.788400	0.854000
C671	C67	0.321600	0.770000	0.904700
H331	H33	0.277900	0.799100	0.892700
C681	C68	0.355790	0.859500	0.781000
C691	C69	0.565770	0.742100	0.964100
C701	C70	0.557300	0.852900	0.007200
H341	H34	0.517700	0.864000	0.030500
C711	C71	0.607100	0.946200	0.015400
H351	H35	0.600200	0.021600	0.042700
C721	C72	0.667200	0.928700	0.983500
H361	H36	0.701500	0.990100	0.990700
C731	C73	0.675760	0.818900	0.940600
H371	H37	0.716500	0.806300	0.919800
C741	C74	0.624640	0.726000	0.927800
C751	C75	0.634680	0.620300	0.871800
C761	C76	0.121170	0.979700	0.032300
C771	C77	0.097050	0.110100	0.004000
C781	C78	0.043940	0.117800	0.949300
H381	H38	0.024400	0.042500	0.928300
C791	C79	0.020440	0.239800	0.926200
C801	C80	0.048870	0.353800	0.955100
H391	H39	0.032200	0.434600	0.938800
C811	C81	0.102920	0.345300	0.009100
C821	C82	0.126160	0.223800	0.033800
H401	H40	0.161700	0.218500	0.070700
C831	C83	0.135850	0.465500	0.042900
C841	C84	0.970710	0.249600	0.799400
C851	C85	0.024070	0.187900	0.769500
H411	H41	0.055700	0.142600	0.800600
C861	C86	0.030050	0.194100	0.692900
H421	H42	0.066200	0.153400	0.673000
C871	C87	0.983300	0.259700	0.645700
H431	H43	0.987800	0.263000	0.594500
C881	C88	0.928620	0.321600	0.676300
H441	H44	0.896900	0.366400	0.645100
C891	C89	0.921870	0.315800	0.753100
C901	C90	0.860880	0.375500	0.782200
H451	H45	0.584000	0.494000	0.816000
Co71	Co7	0.855540	0.246870	0.435080
Co81	Co8	0.752090	0.047440	0.335250
O431	O43	0.770570	0.243900	0.487890
O441	O44	0.695520	0.134700	0.410910
O451	O45	0.704670	0.387200	0.737350
O461	O46	0.594360	0.383400	0.755430
O471	O47	0.482050	0.144400	0.537650
O481	O48	0.414920	0.044200	0.644990
O491	O49	0.310880	0.116300	0.658730
O501	O50	0.903950	0.379400	0.502330
O511	O51	0.837880	0.467300	0.411950
O521	O52	0.811290	0.949500	0.415400
O531	O53	0.892480	0.074000	0.473550
O541	O54	0.037970	0.748200	0.623920
O551	O55	0.171730	0.808800	0.670750
O561	O56	0.160990	0.982200	0.740490
C911	C91	0.713980	0.193800	0.470300
C921	C92	0.661870	0.208400	0.527300
C931	C93	0.596360	0.165500	0.507900
H461	H46	0.585500	0.124100	0.462300
C941	C94	0.547620	0.185800	0.557900
C951	C95	0.563150	0.246100	0.626300
H471	H47	0.529900	0.258400	0.659000
C961	C96	0.628730	0.288400	0.646000
C971	C97	0.678400	0.270000	0.595300
H481	H48	0.722100	0.299100	0.607300
C981	C98	0.644210	0.359500	0.719000
C991	C99	0.434230	0.242100	0.535900
C1001	C100	0.442700	0.352900	0.492800
H491	H49	0.482300	0.364000	0.469500
C1011	C101	0.392900	0.446200	0.484600
H501	H50	0.399800	0.521600	0.457300
C1021	C102	0.332800	0.428700	0.516500
H511	H51	0.298500	0.490100	0.509300
C1031	C103	0.324240	0.318900	0.559400
H521	H52	0.283500	0.306300	0.580200
C1041	C104	0.375360	0.226000	0.572200
C1051	C105	0.365320	0.120300	0.628200
C1061	C106	0.878830	0.479700	0.467700
C1071	C107	0.902950	0.610100	0.496000
C1081	C108	0.956060	0.617800	0.550700
H531	H53	0.975600	0.542500	0.571700
C1091	C109	0.979560	0.739800	0.573800
C1101	C110	0.951130	0.853800	0.544900
H541	H54	0.967800	0.934600	0.561200
C1111	C111	0.897080	0.845300	0.490900
C1121	C112	0.873840	0.723800	0.466200
H551	H55	0.838300	0.718500	0.429300
C1131	C113	0.864150	0.965500	0.457100
C1141	C114	0.029290	0.749600	0.700600
C1151	C115	0.975930	0.687900	0.730500
H561	H56	0.944300	0.642600	0.699400
C1161	C116	0.969950	0.694100	0.807100
H571	H57	0.933800	0.653400	0.827000
C1171	C117	0.016700	0.759700	0.854300
H581	H58	0.012200	0.763000	0.905500
C1181	C118	0.071380	0.821600	0.823700
H591	H59	0.103100	0.866400	0.854900
C1191	C119	0.078130	0.815800	0.746900
C1201	C120	0.139120	0.875500	0.717800
H601	H60	0.416000	0.994000	0.684000
