data_NEKREB_clean_PM
_symmetry_space_group_name_H-M	'P1'
_cell_length_a	16.341700
_cell_length_b	16.341700
_cell_length_c	16.341700
_cell_angle_alpha	90.000000
_cell_angle_beta	90.000000
_cell_angle_gamma	90.000000
_symmetry_Int_Tables_number 1

loop_
_symmetry_equiv_pos_as_xyz
'x,y,z'

loop_
_atom_site_label
_atom_site_type_symbol
_atom_site_fract_x
_atom_site_fract_y
_atom_site_fract_z
N11	N1	0.583570	0.685760	0.311710
C11	C1	0.606380	0.708170	0.388410
H11	H1	0.578660	0.751680	0.415190
N21	N2	0.916430	0.814240	0.311710
C21	C2	0.893620	0.791830	0.388410
H21	H2	0.921340	0.748320	0.415190
N31	N3	0.916430	0.685760	0.188290
C31	C3	0.893620	0.708170	0.111590
H31	H3	0.921340	0.751680	0.084810
N41	N4	0.583570	0.814240	0.188290
C41	C4	0.606380	0.791830	0.111590
H41	H4	0.578660	0.748320	0.084810
N51	N5	0.311710	0.583570	0.685760
C51	C5	0.388410	0.606380	0.708170
H51	H5	0.415190	0.578660	0.751680
N61	N6	0.311710	0.916430	0.814240
C61	C6	0.388410	0.893620	0.791830
H61	H6	0.415190	0.921340	0.748320
N71	N7	0.188290	0.916430	0.685760
C71	C7	0.111590	0.893620	0.708170
H71	H7	0.084810	0.921340	0.751680
N81	N8	0.188290	0.583570	0.814240
C81	C8	0.111590	0.606380	0.791830
H81	H8	0.084810	0.578660	0.748320
N91	N9	0.685760	0.311710	0.583570
C91	C9	0.708170	0.388410	0.606380
H91	H9	0.751680	0.415190	0.578660
N101	N10	0.814240	0.311710	0.916430
C101	C10	0.791830	0.388410	0.893620
H101	H10	0.748320	0.415190	0.921340
N111	N11	0.685760	0.188290	0.916430
C111	C11	0.708170	0.111590	0.893620
H111	H11	0.751680	0.084810	0.921340
N121	N12	0.814240	0.188290	0.583570
C121	C12	0.791830	0.111590	0.606380
H121	H12	0.748320	0.084810	0.578660
N131	N13	0.185760	0.083570	0.688290
C131	C13	0.208170	0.106380	0.611590
H131	H13	0.251680	0.078660	0.584810
N141	N14	0.314240	0.416430	0.688290
C141	C14	0.291830	0.393620	0.611590
H141	H14	0.248320	0.421340	0.584810
N151	N15	0.185760	0.416430	0.811710
C151	C15	0.208170	0.393620	0.888410
H151	H15	0.251680	0.421340	0.915190
N161	N16	0.314240	0.083570	0.811710
C161	C16	0.291830	0.106380	0.888410
H161	H16	0.248320	0.078660	0.915190
N171	N17	0.083570	0.811710	0.314240
C171	C17	0.106380	0.888410	0.291830
H171	H17	0.078660	0.915190	0.248320
N181	N18	0.416430	0.811710	0.185760
C181	C18	0.393620	0.888410	0.208170
H181	H18	0.421340	0.915190	0.251680
N191	N19	0.416430	0.688290	0.314240
C191	C19	0.393620	0.611590	0.291830
H191	H19	0.421340	0.584810	0.248320
N201	N20	0.083570	0.688290	0.185760
C201	C20	0.106380	0.611590	0.208170
H201	H20	0.078660	0.584810	0.251680
N211	N21	0.811710	0.185760	0.416430
C211	C21	0.888410	0.208170	0.393620
H211	H21	0.915190	0.251680	0.421340
N221	N22	0.811710	0.314240	0.083570
C221	C22	0.888410	0.291830	0.106380
H221	H22	0.915190	0.248320	0.078660
N231	N23	0.688290	0.185760	0.083570
C231	C23	0.611590	0.208170	0.106380
H231	H23	0.584810	0.251680	0.078660
N241	N24	0.688290	0.314240	0.416430
C241	C24	0.611590	0.291830	0.393620
H241	H24	0.584810	0.248320	0.421340
N251	N25	0.416430	0.314240	0.688290
C251	C25	0.393620	0.291830	0.611590
H251	H25	0.421340	0.248320	0.584810
N261	N26	0.083570	0.185760	0.688290
C261	C26	0.106380	0.208170	0.611590
H261	H26	0.078660	0.251680	0.584810
N271	N27	0.083570	0.314240	0.811710
C271	C27	0.106380	0.291830	0.888410
H271	H27	0.078660	0.248320	0.915190
N281	N28	0.416430	0.185760	0.811710
C281	C28	0.393620	0.208170	0.888410
H281	H28	0.421340	0.251680	0.915190
N291	N29	0.688290	0.416430	0.314240
C291	C29	0.611590	0.393620	0.291830
H291	H29	0.584810	0.421340	0.248320
N301	N30	0.688290	0.083570	0.185760
C301	C30	0.611590	0.106380	0.208170
H301	H30	0.584810	0.078660	0.251680
N311	N31	0.811710	0.083570	0.314240
C311	C31	0.888410	0.106380	0.291830
H311	H31	0.915190	0.078660	0.248320
N321	N32	0.811710	0.416430	0.185760
C321	C32	0.888410	0.393620	0.208170
H321	H32	0.915190	0.421340	0.251680
N331	N33	0.314240	0.688290	0.416430
C331	C33	0.291830	0.611590	0.393620
H331	H33	0.248320	0.584810	0.421340
N341	N34	0.185760	0.688290	0.083570
C341	C34	0.208170	0.611590	0.106380
H341	H34	0.251680	0.584810	0.078660
N351	N35	0.314240	0.811710	0.083570
C351	C35	0.291830	0.888410	0.106380
H351	H35	0.248320	0.915190	0.078660
N361	N36	0.185760	0.811710	0.416430
C361	C36	0.208170	0.888410	0.393620
H361	H36	0.251680	0.915190	0.421340
N371	N37	0.814240	0.916430	0.311710
C371	C37	0.791830	0.893620	0.388410
H371	H37	0.748320	0.921340	0.415190
N381	N38	0.685760	0.583570	0.311710
C381	C38	0.708170	0.606380	0.388410
H381	H38	0.751680	0.578660	0.415190
N391	N39	0.814240	0.583570	0.188290
C391	C39	0.791830	0.606380	0.111590
H391	H39	0.748320	0.578660	0.084810
N401	N40	0.685760	0.916430	0.188290
C401	C40	0.708170	0.893620	0.111590
H401	H40	0.751680	0.921340	0.084810
N411	N41	0.916430	0.188290	0.685760
C411	C41	0.893620	0.111590	0.708170
H411	H41	0.921340	0.084810	0.751680
N421	N42	0.583570	0.188290	0.814240
C421	C42	0.606380	0.111590	0.791830
H421	H42	0.578660	0.084810	0.748320
N431	N43	0.583570	0.311710	0.685760
C431	C43	0.606380	0.388410	0.708170
H431	H43	0.578660	0.415190	0.751680
N441	N44	0.916430	0.311710	0.814240
C441	C44	0.893620	0.388410	0.791830
H441	H44	0.921340	0.415190	0.748320
N451	N45	0.188290	0.814240	0.583570
C451	C45	0.111590	0.791830	0.606380
H451	H45	0.084810	0.748320	0.578660
N461	N46	0.188290	0.685760	0.916430
C461	C46	0.111590	0.708170	0.893620
H461	H46	0.084810	0.751680	0.921340
N471	N47	0.311710	0.814240	0.916430
C471	C47	0.388410	0.791830	0.893620
H471	H47	0.415190	0.748320	0.921340
N481	N48	0.311710	0.685760	0.583570
C481	C48	0.388410	0.708170	0.606380
H481	H48	0.415190	0.751680	0.578660
Pd11	Pd1	0.500000	0.750000	0.250000
Pd21	Pd2	0.000000	0.750000	0.250000
Pd31	Pd3	0.250000	0.500000	0.750000
Pd41	Pd4	0.250000	0.000000	0.750000
Pd51	Pd5	0.750000	0.250000	0.500000
Pd61	Pd6	0.750000	0.250000	0.000000
Pd71	Pd7	0.500000	0.250000	0.750000
Pd81	Pd8	0.000000	0.250000	0.750000
Pd91	Pd9	0.750000	0.500000	0.250000
Pd101	Pd10	0.750000	0.000000	0.250000
Pd111	Pd11	0.250000	0.750000	0.500000
Pd121	Pd12	0.250000	0.750000	0.000000
C491	C49	0.623540	0.623540	0.273130
C501	C50	0.668410	0.668410	0.426990
O11	O1	0.602910	0.602910	0.202420
H491	H49	0.684090	0.684090	0.480730
C511	C51	0.876460	0.876460	0.273130
C521	C52	0.831600	0.831600	0.426990
O21	O2	0.897100	0.897100	0.202420
H501	H50	0.815920	0.815920	0.480730
C531	C53	0.876460	0.623540	0.226870
C541	C54	0.831600	0.668410	0.073010
O31	O3	0.897100	0.602910	0.297580
H511	H51	0.815920	0.684090	0.019270
C551	C55	0.623540	0.876460	0.226870
C561	C56	0.668410	0.831600	0.073010
O41	O4	0.602910	0.897100	0.297580
H521	H52	0.684090	0.815920	0.019270
C571	C57	0.273130	0.623540	0.623540
C581	C58	0.426990	0.668410	0.668410
O51	O5	0.202420	0.602910	0.602910
H531	H53	0.480730	0.684090	0.684090
C591	C59	0.273130	0.876460	0.876460
C601	C60	0.426990	0.831600	0.831600
O61	O6	0.202420	0.897100	0.897100
H541	H54	0.480730	0.815920	0.815920
C611	C61	0.226870	0.876460	0.623540
C621	C62	0.073010	0.831600	0.668410
O71	O7	0.297580	0.897100	0.602910
H551	H55	0.019270	0.815920	0.684090
C631	C63	0.226870	0.623540	0.876460
C641	C64	0.073010	0.668410	0.831600
O81	O8	0.297580	0.602910	0.897100
H561	H56	0.019270	0.684090	0.815920
C651	C65	0.623540	0.273130	0.623540
C661	C66	0.668410	0.426990	0.668410
O91	O9	0.602910	0.202420	0.602910
H571	H57	0.684090	0.480730	0.684090
C671	C67	0.876460	0.273130	0.876460
C681	C68	0.831600	0.426990	0.831600
O101	O10	0.897100	0.202420	0.897100
H581	H58	0.815920	0.480730	0.815920
C691	C69	0.623540	0.226870	0.876460
C701	C70	0.668410	0.073010	0.831600
O111	O11	0.602910	0.297580	0.897100
H591	H59	0.684090	0.019270	0.815920
C711	C71	0.876460	0.226870	0.623540
C721	C72	0.831600	0.073010	0.668410
O121	O12	0.897100	0.297580	0.602910
H601	H60	0.815920	0.019270	0.684090
C731	C73	0.123540	0.123540	0.726870
C741	C74	0.168410	0.168410	0.573010
O131	O13	0.102910	0.102910	0.797580
H611	H61	0.184090	0.184090	0.519270
C751	C75	0.376460	0.376460	0.726870
C761	C76	0.331590	0.331590	0.573010
O141	O14	0.397100	0.397100	0.797580
H621	H62	0.315920	0.315920	0.519270
C771	C77	0.123540	0.376460	0.773130
C781	C78	0.168410	0.331590	0.926990
O151	O15	0.102910	0.397100	0.702420
H631	H63	0.184090	0.315920	0.980730
C791	C79	0.376460	0.123540	0.773130
C801	C80	0.331590	0.168410	0.926990
O161	O16	0.397100	0.102910	0.702420
H641	H64	0.315920	0.184090	0.980730
C811	C81	0.123540	0.773130	0.376460
C821	C82	0.168410	0.926990	0.331590
O171	O17	0.102910	0.702420	0.397100
H651	H65	0.184090	0.980730	0.315920
C831	C83	0.376460	0.773130	0.123540
C841	C84	0.331590	0.926990	0.168410
O181	O18	0.397100	0.702420	0.102910
H661	H66	0.315920	0.980730	0.184090
C851	C85	0.376460	0.726870	0.376460
C861	C86	0.331590	0.573010	0.331590
O191	O19	0.397100	0.797580	0.397100
H671	H67	0.315920	0.519270	0.315920
C871	C87	0.123540	0.726870	0.123540
C881	C88	0.168410	0.573010	0.168410
O201	O20	0.102910	0.797580	0.102910
H681	H68	0.184090	0.519270	0.184090
C891	C89	0.773130	0.123540	0.376460
C901	C90	0.926990	0.168410	0.331590
O211	O21	0.702420	0.102910	0.397100
H691	H69	0.980730	0.184090	0.315920
C911	C91	0.773130	0.376460	0.123540
C921	C92	0.926990	0.331590	0.168410
O221	O22	0.702420	0.397100	0.102910
H701	H70	0.980730	0.315920	0.184090
C931	C93	0.726870	0.123540	0.123540
C941	C94	0.573010	0.168410	0.168410
O231	O23	0.797580	0.102910	0.102910
H711	H71	0.519270	0.184090	0.184090
C951	C95	0.726870	0.376460	0.376460
C961	C96	0.573010	0.331590	0.331590
O241	O24	0.797580	0.397100	0.397100
H721	H72	0.519270	0.315920	0.315920
