data_NEPWIQ_clean_PM
_symmetry_space_group_name_H-M	'P1'
_cell_length_a	9.202100
_cell_length_b	9.202100
_cell_length_c	14.197300
_cell_angle_alpha	79.839000
_cell_angle_beta	79.839300
_cell_angle_gamma	117.106000
_symmetry_Int_Tables_number 1

loop_
_symmetry_equiv_pos_as_xyz
'x,y,z'

loop_
_atom_site_label
_atom_site_type_symbol
_atom_site_fract_x
_atom_site_fract_y
_atom_site_fract_z
Er11	Er1	0.008680	0.758680	0.982640
Er21	Er2	0.241320	0.991320	0.517360
Er31	Er3	0.991320	0.241320	0.017360
Er41	Er4	0.758680	0.008680	0.482640
H11	H1	0.394900	0.816900	0.069600
H21	H2	0.535500	0.613500	0.069600
H31	H3	0.183100	0.605100	0.430400
H41	H4	0.386500	0.464500	0.430400
H51	H5	0.605100	0.183100	0.930400
H61	H6	0.464500	0.386500	0.930400
H71	H7	0.816900	0.394900	0.569600
H81	H8	0.613500	0.535500	0.569600
C11	C1	0.240060	0.572060	0.059480
C21	C2	0.397420	0.718220	0.065560
C31	C3	0.700460	0.868460	0.059480
C41	C4	0.537020	0.716220	0.065560
C51	C5	0.427940	0.759940	0.440520
C61	C6	0.281780	0.602580	0.434440
C71	C7	0.131540	0.299540	0.440520
C81	C8	0.283780	0.462980	0.434440
C91	C9	0.759940	0.427940	0.940520
C101	C10	0.602580	0.281780	0.934440
C111	C11	0.299540	0.131540	0.940520
C121	C12	0.462980	0.283780	0.934440
C131	C13	0.572060	0.240060	0.559480
C141	C14	0.718220	0.397420	0.565560
C151	C15	0.868460	0.700460	0.559480
C161	C16	0.716220	0.537020	0.565560
C171	C17	0.075600	0.924400	0.750000
C181	C18	0.174400	0.825600	0.750000
C191	C19	0.924400	0.075600	0.250000
C201	C20	0.825600	0.174400	0.250000
O11	O1	0.131980	0.606820	0.034800
O21	O2	0.220290	0.424490	0.074620
O31	O3	0.007010	0.926830	0.833360
O41	O4	0.833220	0.858380	0.034800
O51	O5	0.705090	0.000890	0.074620
O61	O6	0.159630	0.739810	0.833360
O71	O7	0.393180	0.868020	0.465200
O81	O8	0.575510	0.779710	0.425380
O91	O9	0.073170	0.992990	0.666640
O101	O10	0.141620	0.166780	0.465200
O111	O11	0.999110	0.294910	0.425380
O121	O12	0.260190	0.840370	0.666640
O131	O13	0.868020	0.393180	0.965200
O141	O14	0.779710	0.575510	0.925380
O151	O15	0.992990	0.073170	0.166640
O161	O16	0.166780	0.141620	0.965200
O171	O17	0.294910	0.999110	0.925380
O181	O18	0.840370	0.260190	0.166640
O191	O19	0.606820	0.131980	0.534800
O201	O20	0.424490	0.220290	0.574620
O211	O21	0.926830	0.007010	0.333360
O221	O22	0.858380	0.833220	0.534800
O231	O23	0.000890	0.705090	0.574620
O241	O24	0.739810	0.159630	0.333360
