data_NERTAH_clean_PM
_symmetry_space_group_name_H-M	'P1'
_cell_length_a	9.570000
_cell_length_b	23.288000
_cell_length_c	24.207000
_cell_angle_alpha	105.705000
_cell_angle_beta	90.000000
_cell_angle_gamma	90.000000
_symmetry_Int_Tables_number 1

loop_
_symmetry_equiv_pos_as_xyz
'x,y,z'

loop_
_atom_site_label
_atom_site_type_symbol
_atom_site_fract_x
_atom_site_fract_y
_atom_site_fract_z
Cu11	Cu1	0.957250	0.737740	0.517210
Cu21	Cu2	0.563520	0.738090	0.424580
Cu31	Cu3	0.353620	0.726040	0.620300
Cu41	Cu4	0.457250	0.262260	0.982790
Cu51	Cu5	0.063520	0.261910	0.075420
Cu61	Cu6	0.853620	0.273960	0.879700
Cu71	Cu7	0.042750	0.262260	0.482790
Cu81	Cu8	0.436480	0.261910	0.575420
Cu91	Cu9	0.646380	0.273960	0.379700
Cu101	Cu10	0.542750	0.737740	0.017210
Cu111	Cu11	0.936480	0.738090	0.924580
Cu121	Cu12	0.146380	0.726040	0.120300
P11	P1	0.819300	0.810770	0.435980
P21	P2	0.294100	0.783640	0.485210
P31	P3	0.081500	0.661620	0.596550
P41	P4	0.603000	0.689560	0.544980
P51	P5	0.319300	0.189230	0.064020
P61	P6	0.794100	0.216360	0.014790
P71	P7	0.581500	0.338380	0.903450
P81	P8	0.103000	0.310440	0.955020
P91	P9	0.180700	0.189230	0.564020
P101	P10	0.705900	0.216360	0.514790
P111	P11	0.918500	0.338380	0.403450
P121	P12	0.397000	0.310440	0.455020
P131	P13	0.680700	0.810770	0.935980
P141	P14	0.205900	0.783640	0.985210
P151	P15	0.418500	0.661620	0.096550
P161	P16	0.897000	0.689560	0.044980
H11	H1	0.707700	0.826600	0.526300
H21	H2	0.701900	0.886600	0.505800
H31	H3	0.411700	0.872000	0.531900
H41	H4	0.483400	0.816200	0.547700
H51	H5	0.585400	0.865100	0.402200
H61	H6	0.432100	0.837800	0.400800
H71	H7	0.419400	0.940000	0.420500
H81	H8	0.358500	0.918600	0.472700
H91	H9	0.626000	0.970700	0.476500
H101	H10	0.543800	0.957700	0.529400
H111	H11	0.189700	0.589700	0.520900
H121	H12	0.196900	0.653900	0.508700
H131	H13	0.405900	0.662000	0.487600
H141	H14	0.484800	0.603900	0.494900
H151	H15	0.341500	0.603400	0.629100
H161	H16	0.492400	0.597300	0.600100
H171	H17	0.388900	0.504200	0.584700
H181	H18	0.256100	0.525500	0.556100
H191	H19	0.388200	0.524600	0.474000
H201	H20	0.382600	0.460300	0.485800
H211	H21	0.895500	0.606400	0.479600
H221	H22	0.922600	0.524600	0.404200
H231	H23	0.104000	0.631000	0.317400
H241	H24	0.073400	0.710100	0.397100
H251	H25	0.255500	0.343500	0.156000
H261	H26	0.254200	0.440400	0.216500
H271	H27	0.864800	0.463800	0.166600
H281	H28	0.873700	0.369600	0.107400
H291	H29	0.950000	0.487500	0.298100
H301	H30	0.114200	0.489200	0.309300
H311	H31	0.984000	0.547100	0.231400
H321	H32	0.149800	0.543700	0.240700
H331	H33	0.833300	0.768200	0.637900
H341	H34	0.792400	0.849800	0.714000
H351	H35	0.944200	0.953800	0.618000
H361	H36	0.011500	0.869200	0.548600
H371	H37	0.688000	0.158200	0.861800
H381	H38	0.727800	0.058200	0.814500
H391	H39	0.068700	0.104500	0.743700
H401	H40	0.040200	0.199900	0.797400
H411	H41	0.989000	0.986400	0.765800
H421	H42	0.999300	0.006400	0.707600
H431	H43	0.756900	0.958800	0.749300
H441	H44	0.742700	0.992500	0.699900
H451	H45	0.207700	0.173400	0.973700
H461	H46	0.201900	0.113400	0.994200
H471	H47	0.911700	0.128000	0.968100
H481	H48	0.983400	0.183800	0.952300
H491	H49	0.085400	0.134900	0.097800
H501	H50	0.932100	0.162200	0.099200
H511	H51	0.919400	0.060000	0.079500
H521	H52	0.858500	0.081400	0.027300
H531	H53	0.126000	0.029300	0.023500
H541	H54	0.043800	0.042300	0.970600
H551	H55	0.689700	0.410300	0.979100
H561	H56	0.696900	0.346100	0.991300
H571	H57	0.905900	0.338000	0.012400
H581	H58	0.984800	0.396100	0.005100
H591	H59	0.841500	0.396600	0.870900
H601	H60	0.992400	0.402700	0.899900
H611	H61	0.888900	0.495800	0.915300
H621	H62	0.756100	0.474500	0.943900
H631	H63	0.888200	0.475400	0.026000
H641	H64	0.882600	0.539700	0.014200
H651	H65	0.395500	0.393600	0.020400
H661	H66	0.422600	0.475400	0.095800
H671	H67	0.604000	0.369000	0.182600
H681	H68	0.573400	0.289900	0.102900
H691	H69	0.755500	0.656500	0.344000
H701	H70	0.754200	0.559600	0.283500
H711	H71	0.364800	0.536200	0.333400
H721	H72	0.373700	0.630400	0.392600
H731	H73	0.450000	0.512500	0.201900
H741	H74	0.614200	0.510800	0.190700
H751	H75	0.484000	0.452900	0.268600
H761	H76	0.649800	0.456300	0.259300
H771	H77	0.333300	0.231800	0.862100
H781	H78	0.292400	0.150200	0.786000
H791	H79	0.444200	0.046200	0.882000
H801	H80	0.511500	0.130800	0.951400
H811	H81	0.188000	0.841800	0.638200
H821	H82	0.227800	0.941800	0.685500
H831	H83	0.568700	0.895500	0.756300
H841	H84	0.540200	0.800100	0.702600
H851	H85	0.489000	0.013600	0.734200
H861	H86	0.499300	0.993600	0.792400
H871	H87	0.256900	0.041200	0.750700
H881	H88	0.242700	0.007500	0.800100
H891	H89	0.292300	0.173400	0.473700
H901	H90	0.298100	0.113400	0.494200
H911	H91	0.588300	0.128000	0.468100
H921	H92	0.516600	0.183800	0.452300
H931	H93	0.414600	0.134900	0.597800
H941	H94	0.567900	0.162200	0.599200
H951	H95	0.580600	0.060000	0.579500
H961	H96	0.641500	0.081400	0.527300
H971	H97	0.374000	0.029300	0.523500
H981	H98	0.456200	0.042300	0.470600
H991	H99	0.810300	0.410300	0.479100
H1001	H100	0.803100	0.346100	0.491300
H1011	H101	0.594100	0.338000	0.512400
H1021	H102	0.515200	0.396100	0.505100
H1031	H103	0.658500	0.396600	0.370900
H1041	H104	0.507600	0.402700	0.399900
H1051	H105	0.611100	0.495800	0.415300
H1061	H106	0.743900	0.474500	0.443900
H1071	H107	0.611800	0.475400	0.526000
H1081	H108	0.617400	0.539700	0.514200
H1091	H109	0.104500	0.393600	0.520400
H1101	H110	0.077400	0.475400	0.595800
H1111	H111	0.896000	0.369000	0.682600
H1121	H112	0.926600	0.289900	0.602900
H1131	H113	0.744500	0.656500	0.844000
H1141	H114	0.745800	0.559600	0.783500
H1151	H115	0.135200	0.536200	0.833400
H1161	H116	0.126300	0.630400	0.892600
H1171	H117	0.050000	0.512500	0.701900
H1181	H118	0.885800	0.510800	0.690700
H1191	H119	0.016000	0.452900	0.768600
H1201	H120	0.850200	0.456300	0.759300
H1211	H121	0.166700	0.231800	0.362100
H1221	H122	0.207600	0.150200	0.286000
H1231	H123	0.055800	0.046200	0.382000
H1241	H124	0.988500	0.130800	0.451400
H1251	H125	0.312000	0.841800	0.138200
H1261	H126	0.272200	0.941800	0.185500
H1271	H127	0.931300	0.895500	0.256300
H1281	H128	0.959800	0.800100	0.202600
H1291	H129	0.011000	0.013600	0.234200
H1301	H130	0.000700	0.993600	0.292400
H1311	H131	0.243100	0.041200	0.250700
H1321	H132	0.257300	0.007500	0.300100
H1331	H133	0.792300	0.826600	0.026300
H1341	H134	0.798100	0.886600	0.005800
H1351	H135	0.088300	0.872000	0.031900
H1361	H136	0.016600	0.816200	0.047700
H1371	H137	0.914600	0.865100	0.902200
H1381	H138	0.067900	0.837800	0.900800
H1391	H139	0.080600	0.940000	0.920500
H1401	H140	0.141500	0.918600	0.972700
H1411	H141	0.874000	0.970700	0.976500
H1421	H142	0.956200	0.957700	0.029400
H1431	H143	0.310300	0.589700	0.020900
H1441	H144	0.303100	0.653900	0.008700
H1451	H145	0.094100	0.662000	0.987600
H1461	H146	0.015200	0.603900	0.994900
H1471	H147	0.158500	0.603400	0.129100
H1481	H148	0.007600	0.597300	0.100100
H1491	H149	0.111100	0.504200	0.084700
H1501	H150	0.243900	0.525500	0.056100
H1511	H151	0.111800	0.524600	0.974000
H1521	H152	0.117400	0.460300	0.985800
H1531	H153	0.604500	0.606400	0.979600
H1541	H154	0.577400	0.524600	0.904200
H1551	H155	0.396000	0.631000	0.817400
H1561	H156	0.426600	0.710100	0.897100
H1571	H157	0.244500	0.343500	0.656000
H1581	H158	0.245800	0.440400	0.716500
H1591	H159	0.635200	0.463800	0.666600
H1601	H160	0.626300	0.369600	0.607400
H1611	H161	0.550000	0.487500	0.798100
H1621	H162	0.385800	0.489200	0.809300
H1631	H163	0.516000	0.547100	0.731400
H1641	H164	0.350200	0.543700	0.740700
H1651	H165	0.666700	0.768200	0.137900
H1661	H166	0.707600	0.849800	0.214000
H1671	H167	0.555800	0.953800	0.118000
H1681	H168	0.488500	0.869200	0.048600
H1691	H169	0.812000	0.158200	0.361800
H1701	H170	0.772200	0.058200	0.314500
H1711	H171	0.431300	0.104500	0.243700
H1721	H172	0.459800	0.199900	0.297400
H1731	H173	0.511000	0.986400	0.265800
H1741	H174	0.500700	0.006400	0.207600
H1751	H175	0.743100	0.958800	0.249300
H1761	H176	0.757300	0.992500	0.199900
C11	C1	0.691800	0.842700	0.493000
C21	C2	0.442400	0.830200	0.516100
C31	C3	0.504100	0.861600	0.426400
C41	C4	0.446000	0.923400	0.452500
C51	C5	0.532100	0.969400	0.493300
C61	C6	0.207900	0.632600	0.538600
C71	C7	0.453200	0.644500	0.515600
C81	C8	0.391000	0.593900	0.591800
C91	C9	0.359000	0.529200	0.559600
C101	C10	0.419800	0.501300	0.500400
C111	C11	0.938800	0.611600	0.445900
C121	C12	0.954600	0.562200	0.401000
C131	C13	0.016300	0.566300	0.350900
C141	C14	0.060800	0.624700	0.350700
C151	C15	0.041600	0.671700	0.398100
C161	C16	0.174900	0.367800	0.158100
C171	C17	0.173600	0.426000	0.194200
C181	C18	0.063900	0.461900	0.198400
C191	C19	0.946200	0.440100	0.165100
C201	C20	0.953000	0.383800	0.130700
C211	C21	0.034600	0.512500	0.300700
C221	C22	0.060100	0.522600	0.241100
C231	C23	0.859300	0.806400	0.634300
C241	C24	0.828500	0.855000	0.679100
C251	C25	0.851000	0.912300	0.672700
C261	C26	0.921900	0.915700	0.622900
C271	C27	0.960000	0.865300	0.580900
C281	C28	0.768900	0.147400	0.838500
C291	C29	0.791600	0.087500	0.809300
C301	C30	0.902400	0.070200	0.773600
C311	C31	0.991200	0.114100	0.769100
C321	C32	0.971900	0.171100	0.799900
C331	C33	0.937500	0.005800	0.740300
C341	C34	0.806700	0.969100	0.717400
C351	C35	0.191800	0.157300	0.007000
C361	C36	0.942400	0.169800	0.983900
C371	C37	0.004100	0.138400	0.073600
C381	C38	0.946000	0.076600	0.047500
C391	C39	0.032100	0.030600	0.006700
C401	C40	0.707900	0.367400	0.961400
C411	C41	0.953200	0.355500	0.984400
C421	C42	0.891000	0.406100	0.908200
C431	C43	0.859000	0.470800	0.940400
C441	C44	0.919800	0.498700	0.999600
C451	C45	0.438800	0.388400	0.054100
C461	C46	0.454600	0.437800	0.099000
C471	C47	0.516300	0.433700	0.149100
C481	C48	0.560800	0.375300	0.149300
C491	C49	0.541600	0.328300	0.101900
C501	C50	0.674900	0.632200	0.341900
C511	C51	0.673600	0.574000	0.305800
C521	C52	0.563900	0.538100	0.301600
C531	C53	0.446200	0.559900	0.334900
C541	C54	0.453000	0.616200	0.369300
C551	C55	0.534600	0.487500	0.199300
C561	C56	0.560100	0.477400	0.258900
C571	C57	0.359300	0.193600	0.865700
C581	C58	0.328500	0.145000	0.820900
C591	C59	0.351000	0.087700	0.827300
C601	C60	0.421900	0.084300	0.877100
C611	C61	0.460000	0.134700	0.919100
C621	C62	0.268900	0.852600	0.661500
C631	C63	0.291600	0.912500	0.690700
C641	C64	0.402400	0.929800	0.726400
C651	C65	0.491200	0.885900	0.730900
C661	C66	0.471900	0.828900	0.700100
C671	C67	0.437500	0.994200	0.759700
C681	C68	0.306700	0.030900	0.782600
C691	C69	0.308200	0.157300	0.507000
C701	C70	0.557600	0.169800	0.483900
C711	C71	0.495900	0.138400	0.573600
C721	C72	0.554000	0.076600	0.547500
C731	C73	0.467900	0.030600	0.506700
C741	C74	0.792100	0.367400	0.461400
C751	C75	0.546800	0.355500	0.484400
C761	C76	0.609000	0.406100	0.408200
C771	C77	0.641000	0.470800	0.440400
C781	C78	0.580200	0.498700	0.499600
C791	C79	0.061200	0.388400	0.554100
C801	C80	0.045400	0.437800	0.599000
C811	C81	0.983700	0.433700	0.649100
C821	C82	0.939200	0.375300	0.649300
C831	C83	0.958400	0.328300	0.601900
C841	C84	0.825100	0.632200	0.841900
C851	C85	0.826400	0.574000	0.805800
C861	C86	0.936100	0.538100	0.801600
C871	C87	0.053800	0.559900	0.834900
C881	C88	0.047000	0.616200	0.869300
C891	C89	0.965400	0.487500	0.699300
C901	C90	0.939900	0.477400	0.758900
C911	C91	0.140700	0.193600	0.365700
C921	C92	0.171500	0.145000	0.320900
C931	C93	0.149000	0.087700	0.327300
C941	C94	0.078100	0.084300	0.377100
C951	C95	0.040000	0.134700	0.419100
C961	C96	0.231100	0.852600	0.161500
C971	C97	0.208400	0.912500	0.190700
C981	C98	0.097600	0.929800	0.226400
C991	C99	0.008800	0.885900	0.230900
C1001	C100	0.028100	0.828900	0.200100
C1011	C101	0.062500	0.994200	0.259700
C1021	C102	0.193300	0.030900	0.282600
C1031	C103	0.808200	0.842700	0.993000
C1041	C104	0.057600	0.830200	0.016100
C1051	C105	0.995900	0.861600	0.926400
C1061	C106	0.054000	0.923400	0.952500
C1071	C107	0.967900	0.969400	0.993300
C1081	C108	0.292100	0.632600	0.038600
C1091	C109	0.046800	0.644500	0.015600
C1101	C110	0.109000	0.593900	0.091800
C1111	C111	0.141000	0.529200	0.059600
C1121	C112	0.080200	0.501300	0.000400
C1131	C113	0.561200	0.611600	0.945900
C1141	C114	0.545400	0.562200	0.901000
C1151	C115	0.483700	0.566300	0.850900
C1161	C116	0.439200	0.624700	0.850700
C1171	C117	0.458400	0.671700	0.898100
C1181	C118	0.325100	0.367800	0.658100
C1191	C119	0.326400	0.426000	0.694200
C1201	C120	0.436100	0.461900	0.698400
C1211	C121	0.553800	0.440100	0.665100
C1221	C122	0.547000	0.383800	0.630700
C1231	C123	0.465400	0.512500	0.800700
C1241	C124	0.439900	0.522600	0.741100
C1251	C125	0.640700	0.806400	0.134300
C1261	C126	0.671500	0.855000	0.179100
C1271	C127	0.649000	0.912300	0.172700
C1281	C128	0.578100	0.915700	0.122900
C1291	C129	0.540000	0.865300	0.080900
C1301	C130	0.731100	0.147400	0.338500
C1311	C131	0.708400	0.087500	0.309300
C1321	C132	0.597600	0.070200	0.273600
C1331	C133	0.508800	0.114100	0.269100
C1341	C134	0.528100	0.171100	0.299900
C1351	C135	0.562500	0.005800	0.240300
C1361	C136	0.693300	0.969100	0.217400
N11	N1	0.550600	0.826600	0.469400
N21	N2	0.351800	0.640500	0.561200
N31	N3	0.978800	0.665900	0.446700
N41	N4	0.059800	0.346500	0.126300
N51	N5	0.924500	0.809100	0.585100
N61	N6	0.859900	0.189300	0.834200
N71	N7	0.050600	0.173400	0.030600
N81	N8	0.851800	0.359500	0.938800
N91	N9	0.478800	0.334100	0.053300
N101	N10	0.559800	0.653500	0.373700
N111	N11	0.424500	0.190900	0.914900
N121	N12	0.359900	0.810700	0.665800
N131	N13	0.449400	0.173400	0.530600
N141	N14	0.648200	0.359500	0.438800
N151	N15	0.021200	0.334100	0.553300
N161	N16	0.940200	0.653500	0.873700
N171	N17	0.075500	0.190900	0.414900
N181	N18	0.140100	0.810700	0.165800
N191	N19	0.949400	0.826600	0.969400
N201	N20	0.148200	0.640500	0.061200
N211	N21	0.521200	0.665900	0.946700
N221	N22	0.440200	0.346500	0.626300
N231	N23	0.575500	0.809100	0.085100
N241	N24	0.640100	0.189300	0.334200
O11	O1	0.739300	0.758000	0.396300
O21	O2	0.943500	0.790700	0.466400
O31	O3	0.869800	0.854600	0.405600
O41	O4	0.364600	0.733000	0.437300
O51	O5	0.213000	0.763200	0.528800
O61	O6	0.198800	0.821200	0.454300
O71	O7	0.162300	0.715300	0.636700
O81	O8	0.955900	0.683400	0.566500
O91	O9	0.038800	0.615400	0.625000
O101	O10	0.542800	0.736600	0.596800
O111	O11	0.706400	0.646600	0.566000
O121	O12	0.670400	0.713500	0.500200
O131	O13	0.239300	0.242000	0.103700
O141	O14	0.443500	0.209300	0.033600
O151	O15	0.369800	0.145400	0.094400
O161	O16	0.864600	0.267000	0.062700
O171	O17	0.713000	0.236800	0.971200
O181	O18	0.698800	0.178800	0.045700
O191	O19	0.662300	0.284700	0.863300
O201	O20	0.455900	0.316600	0.933500
O211	O21	0.538800	0.384600	0.875000
O221	O22	0.042800	0.263400	0.903200
O231	O23	0.206400	0.353400	0.934000
O241	O24	0.170400	0.286500	0.999800
O251	O25	0.260700	0.242000	0.603700
O261	O26	0.056500	0.209300	0.533600
O271	O27	0.130200	0.145400	0.594400
O281	O28	0.635400	0.267000	0.562700
O291	O29	0.787000	0.236800	0.471200
O301	O30	0.801200	0.178800	0.545700
O311	O31	0.837700	0.284700	0.363300
O321	O32	0.044100	0.316600	0.433500
O331	O33	0.961200	0.384600	0.375000
O341	O34	0.457200	0.263400	0.403200
O351	O35	0.293600	0.353400	0.434000
O361	O36	0.329600	0.286500	0.499800
O371	O37	0.760700	0.758000	0.896300
O381	O38	0.556500	0.790700	0.966400
O391	O39	0.630200	0.854600	0.905600
O401	O40	0.135400	0.733000	0.937300
O411	O41	0.287000	0.763200	0.028800
O421	O42	0.301200	0.821200	0.954300
O431	O43	0.337700	0.715300	0.136700
O441	O44	0.544100	0.683400	0.066500
O451	O45	0.461200	0.615400	0.125000
O461	O46	0.957200	0.736600	0.096800
O471	O47	0.793600	0.646600	0.066000
O481	O48	0.829600	0.713500	0.000200
