data_NERVOV_clean_PM
_symmetry_space_group_name_H-M	'P1'
_cell_length_a	10.667100
_cell_length_b	12.006300
_cell_length_c	14.065800
_cell_angle_alpha	106.718000
_cell_angle_beta	102.279000
_cell_angle_gamma	111.190000
_symmetry_Int_Tables_number 1

loop_
_symmetry_equiv_pos_as_xyz
'x,y,z'

loop_
_atom_site_label
_atom_site_type_symbol
_atom_site_fract_x
_atom_site_fract_y
_atom_site_fract_z
Co11	Co1	0.806510	0.504210	0.785970
Co21	Co2	0.547870	0.768290	0.309750
Co31	Co3	0.193490	0.495790	0.214030
Co41	Co4	0.452130	0.231710	0.690250
H11	H1	0.523000	0.446000	0.686000
H21	H2	0.575000	0.476000	0.793000
H31	H3	0.974600	0.799300	0.859000
H41	H4	0.877700	0.833200	0.385900
H51	H5	0.054400	0.822400	0.321300
H61	H6	0.002500	0.736600	0.138900
H71	H7	0.593700	0.660400	0.099600
H81	H8	0.728700	0.988800	0.249300
H91	H9	0.840100	0.211900	0.308900
H101	H10	0.836600	0.338200	0.467200
H111	H11	0.619500	0.010000	0.498800
H121	H12	0.697700	0.537900	0.580700
H131	H13	0.003400	0.963800	0.800800
H141	H14	0.870300	0.913600	0.627700
H151	H15	0.066700	0.533300	0.706000
H161	H16	0.306200	0.586500	0.770100
H171	H17	0.424000	0.662300	0.953000
H181	H18	0.047700	0.604900	0.989200
H191	H19	0.477000	0.554000	0.314000
H201	H20	0.425000	0.524000	0.207000
H211	H21	0.025400	0.200700	0.141000
H221	H22	0.122300	0.166800	0.614100
H231	H23	0.945600	0.177600	0.678700
H241	H24	0.997500	0.263400	0.861100
H251	H25	0.406300	0.339600	0.900400
H261	H26	0.271300	0.011200	0.750700
H271	H27	0.159900	0.788100	0.691100
H281	H28	0.163400	0.661800	0.532800
H291	H29	0.380500	0.990000	0.501200
H301	H30	0.302300	0.462100	0.419300
H311	H31	0.996600	0.036200	0.199200
H321	H32	0.129700	0.086400	0.372300
H331	H33	0.933300	0.466700	0.294000
H341	H34	0.693800	0.413500	0.229900
H351	H35	0.576000	0.337700	0.047000
H361	H36	0.952300	0.395100	0.010800
C11	C1	0.922300	0.778400	0.789100
C21	C2	0.854300	0.795700	0.312900
C31	C3	0.961600	0.790700	0.274500
C41	C4	0.930900	0.738700	0.166200
C51	C5	0.790100	0.689600	0.099500
C61	C6	0.688300	0.695500	0.144710
C71	C7	0.741800	0.627800	0.979940
C81	C8	0.728700	0.038600	0.313600
C91	C9	0.794600	0.172700	0.348400
C101	C10	0.792100	0.247700	0.442300
C111	C11	0.722400	0.186400	0.498880
C121	C12	0.663100	0.051500	0.459690
C131	C13	0.699800	0.261300	0.594300
C141	C14	0.758400	0.624800	0.625590
C151	C15	0.939600	0.877900	0.755100
C161	C16	0.860700	0.847900	0.652300
C171	C17	0.767400	0.719600	0.585800
C181	C18	0.669200	0.682000	0.475600
C191	C19	0.112000	0.560200	0.778500
C201	C20	0.256100	0.593200	0.816500
C211	C21	0.326100	0.637000	0.925300
C221	C22	0.246900	0.642200	0.991190
C231	C23	0.101600	0.603700	0.945280
C241	C24	0.307000	0.678600	0.109140
C251	C25	0.077700	0.221600	0.210900
C261	C26	0.145700	0.204300	0.687100
C271	C27	0.038400	0.209300	0.725500
C281	C28	0.069100	0.261300	0.833800
C291	C29	0.209900	0.310400	0.900500
C301	C30	0.311700	0.304500	0.855290
C311	C31	0.258200	0.372200	0.020060
C321	C32	0.271300	0.961400	0.686400
C331	C33	0.205400	0.827300	0.651600
C341	C34	0.207900	0.752300	0.557700
C351	C35	0.277600	0.813600	0.501120
C361	C36	0.336900	0.948500	0.540310
C371	C37	0.300200	0.738700	0.405700
C381	C38	0.241600	0.375200	0.374410
C391	C39	0.060400	0.122100	0.244900
C401	C40	0.139300	0.152100	0.347700
C411	C41	0.232600	0.280400	0.414200
C421	C42	0.330800	0.318000	0.524400
C431	C43	0.888000	0.439800	0.221500
C441	C44	0.743900	0.406800	0.183500
C451	C45	0.673900	0.363000	0.074700
C461	C46	0.753100	0.357800	0.008810
C471	C47	0.898400	0.396300	0.054720
C481	C48	0.693000	0.321400	0.890860
N11	N1	0.717500	0.748600	0.249440
N21	N2	0.664900	0.977200	0.368660
N31	N3	0.833900	0.653300	0.726310
N41	N4	0.034200	0.565100	0.841380
N51	N5	0.282500	0.251400	0.750560
N61	N6	0.335100	0.022800	0.631340
N71	N7	0.166100	0.346700	0.273690
N81	N8	0.965800	0.434900	0.158620
O11	O1	0.836670	0.630660	0.939200
O21	O2	0.609440	0.575400	0.930190
O31	O3	0.783410	0.381490	0.640370
O41	O4	0.597030	0.197680	0.617320
O51	O5	0.665400	0.774910	0.452010
O61	O6	0.597400	0.563600	0.417030
O71	O7	0.217200	0.637900	0.151040
O81	O8	0.441520	0.746530	0.156720
O91	O9	0.576050	0.438560	0.741780
O101	O10	0.163330	0.369340	0.060800
O111	O11	0.390560	0.424600	0.069810
O121	O12	0.216590	0.618510	0.359630
O131	O13	0.402970	0.802320	0.382680
O141	O14	0.334600	0.225090	0.547990
O151	O15	0.402600	0.436400	0.582970
O161	O16	0.782800	0.362100	0.848960
O171	O17	0.558480	0.253470	0.843280
O181	O18	0.423950	0.561440	0.258220
