data_NESVEO_charged_PM
_symmetry_space_group_name_H-M	'P1'
_cell_length_a	19.222300
_cell_length_b	19.222300
_cell_length_c	19.222300
_cell_angle_alpha	69.978400
_cell_angle_beta	71.624000
_cell_angle_gamma	110.022000
_symmetry_Int_Tables_number 1

loop_
_symmetry_equiv_pos_as_xyz
'x,y,z'

loop_
_atom_site_label
_atom_site_type_symbol
_atom_site_fract_x
_atom_site_fract_y
_atom_site_fract_z
Zn11	Zn1	0.214550	0.536630	0.936400
Zn21	Zn2	0.526970	0.463370	0.322080
Zn31	Zn3	0.677920	0.150950	0.785450
Zn41	Zn4	0.063600	0.849050	0.473030
Zn51	Zn5	0.785450	0.463370	0.063600
Zn61	Zn6	0.473030	0.536630	0.677920
Zn71	Zn7	0.322080	0.849050	0.214550
Zn81	Zn8	0.936400	0.150950	0.526970
Zn91	Zn9	0.391820	0.678800	0.713020
Zn101	Zn10	0.608180	0.321200	0.286980
Zn111	Zn11	0.713020	0.104840	0.608180
Zn121	Zn12	0.286980	0.895160	0.391820
H11	H1	0.211900	0.720300	0.640400
H21	H2	0.973000	0.675700	0.720700
H31	H3	0.038800	0.570200	0.888800
H41	H4	0.176100	0.340800	0.046300
H51	H5	0.183700	0.216300	0.074200
H61	H6	0.639300	0.279700	0.508400
H71	H7	0.603600	0.324300	0.702700
H81	H8	0.541000	0.429800	0.531400
H91	H9	0.612900	0.659200	0.164700
H101	H10	0.709500	0.783700	0.032600
H111	H11	0.491600	0.852300	0.788100
H121	H12	0.297300	0.693700	0.027000
H131	H13	0.468600	0.927600	0.961200
H141	H14	0.835300	0.222400	0.823900
H151	H15	0.967400	0.257900	0.816300
H161	H16	0.359600	0.147700	0.360700
H171	H17	0.279300	0.306300	0.396400
H181	H18	0.111200	0.072400	0.459000
H191	H19	0.953700	0.777600	0.387100
H201	H20	0.925800	0.742100	0.290500
H211	H21	0.788100	0.279700	0.359600
H221	H22	0.027000	0.324300	0.279300
H231	H23	0.961200	0.429800	0.111200
H241	H24	0.823900	0.659200	0.953700
H251	H25	0.816300	0.783700	0.925800
H261	H26	0.360700	0.720300	0.491600
H271	H27	0.396400	0.675700	0.297300
H281	H28	0.459000	0.570200	0.468600
H291	H29	0.387100	0.340800	0.835300
H301	H30	0.290500	0.216300	0.967400
H311	H31	0.508400	0.147700	0.211900
H321	H32	0.702700	0.306300	0.973000
H331	H33	0.531400	0.072400	0.038800
H341	H34	0.164700	0.777600	0.176100
H351	H35	0.032600	0.742100	0.183700
H361	H36	0.640400	0.852300	0.639300
H371	H37	0.720700	0.693700	0.603600
H381	H38	0.888800	0.927600	0.541000
H391	H39	0.046300	0.222400	0.612900
H401	H40	0.074200	0.257900	0.709500
C11	C1	0.117290	0.764200	0.577910
C21	C2	0.096050	0.707920	0.666810
C31	C3	0.157180	0.695040	0.684340
C41	C4	0.013930	0.668100	0.732770
C51	C5	0.902400	0.574980	0.887460
C61	C6	0.991530	0.616700	0.817170
C71	C7	0.198930	0.627900	0.790570
C81	C8	0.135710	0.643810	0.768500
C91	C9	0.052990	0.604900	0.833310
C101	C10	0.271800	0.411400	0.921000
C111	C11	0.215300	0.339000	0.004700
C121	C12	0.221300	0.265800	0.021300
C131	C13	0.657890	0.235800	0.646910
C141	C14	0.625270	0.292080	0.611870
C151	C15	0.620620	0.304960	0.537860
C161	C16	0.599130	0.331900	0.654170
C171	C17	0.537560	0.425020	0.672580
C181	C18	0.566130	0.383300	0.625170
C191	C19	0.581530	0.372100	0.428970
C201	C20	0.587690	0.356190	0.508100
C211	C21	0.561790	0.395100	0.551910
C221	C22	0.667600	0.588600	0.139600
C231	C23	0.656300	0.661000	0.123700
C241	C24	0.712900	0.734200	0.044500
C251	C25	0.353090	0.695200	0.882710
C261	C26	0.388130	0.762860	0.903950
C271	C27	0.462140	0.841520	0.842820
C281	C28	0.345830	0.746700	0.986070
C291	C29	0.327420	0.789860	0.097600
C301	C30	0.374830	0.808700	0.008470
C311	C31	0.571030	0.989500	0.801070
C321	C32	0.491900	0.904210	0.864290
C331	C33	0.448090	0.886300	0.947010
C341	C34	0.860400	0.192800	0.728200
C351	C35	0.876300	0.220000	0.784700
C361	C36	0.955500	0.242600	0.778700
C371	C37	0.422090	0.304800	0.342110
C381	C38	0.333190	0.237140	0.374730
C391	C39	0.315660	0.158480	0.379380
C401	C40	0.267230	0.253300	0.400870
C411	C41	0.112540	0.210140	0.462440
C421	C42	0.182830	0.191300	0.433870
C431	C43	0.209430	0.010500	0.418470
C441	C44	0.231500	0.095790	0.412310
C451	C45	0.166690	0.113700	0.438210
C461	C46	0.079000	0.807200	0.332400
C471	C47	0.995300	0.780000	0.343700
C481	C48	0.978700	0.757400	0.287100
C491	C49	0.882710	0.235800	0.422090
C501	C50	0.903950	0.292080	0.333190
C511	C51	0.842820	0.304960	0.315660
C521	C52	0.986070	0.331900	0.267230
C531	C53	0.097600	0.425020	0.112540
C541	C54	0.008470	0.383300	0.182830
C551	C55	0.801070	0.372100	0.209430
C561	C56	0.864290	0.356190	0.231500
C571	C57	0.947010	0.395100	0.166690
C581	C58	0.728200	0.588600	0.079000
C591	C59	0.784700	0.661000	0.995300
C601	C60	0.778700	0.734200	0.978700
C611	C61	0.342110	0.764200	0.353090
C621	C62	0.374730	0.707920	0.388130
C631	C63	0.379380	0.695040	0.462140
C641	C64	0.400870	0.668100	0.345830
C651	C65	0.462440	0.574980	0.327420
C661	C66	0.433870	0.616700	0.374830
C671	C67	0.418470	0.627900	0.571030
C681	C68	0.412310	0.643810	0.491900
C691	C69	0.438210	0.604900	0.448090
C701	C70	0.332400	0.411400	0.860400
C711	C71	0.343700	0.339000	0.876300
C721	C72	0.287100	0.265800	0.955500
C731	C73	0.646910	0.304800	0.117290
C741	C74	0.611870	0.237140	0.096050
C751	C75	0.537860	0.158480	0.157180
C761	C76	0.654170	0.253300	0.013930
C771	C77	0.672580	0.210140	0.902400
C781	C78	0.625170	0.191300	0.991530
C791	C79	0.428970	0.010500	0.198930
C801	C80	0.508100	0.095790	0.135710
C811	C81	0.551910	0.113700	0.052990
C821	C82	0.139600	0.807200	0.271800
C831	C83	0.123700	0.780000	0.215300
C841	C84	0.044500	0.757400	0.221300
C851	C85	0.577910	0.695200	0.657890
C861	C86	0.666810	0.762860	0.625270
C871	C87	0.684340	0.841520	0.620620
C881	C88	0.732770	0.746700	0.599130
C891	C89	0.887460	0.789860	0.537560
C901	C90	0.817170	0.808700	0.566130
C911	C91	0.790570	0.989500	0.581530
C921	C92	0.768500	0.904210	0.587690
C931	C93	0.833310	0.886300	0.561790
C941	C94	0.921000	0.192800	0.667600
C951	C95	0.004700	0.220000	0.656300
C961	C96	0.021300	0.242600	0.712900
N11	N1	0.278730	0.490300	0.885990
N21	N2	0.623710	0.509700	0.211570
N31	N3	0.788430	0.164720	0.721270
N41	N4	0.114010	0.835280	0.376290
N51	N5	0.721270	0.509700	0.114010
N61	N6	0.376290	0.490300	0.788430
N71	N7	0.211570	0.835280	0.278730
N81	N8	0.885990	0.164720	0.623710
N91	N9	0.343410	0.537180	0.806230
N101	N10	0.656590	0.462820	0.193770
N111	N11	0.806230	0.149640	0.656590
N121	N12	0.193770	0.850360	0.343410
O11	O1	0.846340	0.578830	0.871130
O21	O2	0.190790	0.800370	0.518780
O31	O3	0.271910	0.661490	0.733960
O41	O4	0.051300	0.757800	0.570700
O51	O5	0.166100	0.566300	0.864800
O61	O6	0.893820	0.540470	0.961650
O71	O7	0.550040	0.421170	0.732490
O81	O8	0.680850	0.199630	0.609580
O91	O9	0.604550	0.338510	0.389580
O101	O10	0.671500	0.242200	0.706500
O111	O11	0.568900	0.433700	0.400200
O121	O12	0.497880	0.459530	0.646650
O131	O13	0.267510	0.717470	0.153660
O141	O14	0.390420	0.709570	0.809210
O151	O15	0.610420	0.005870	0.728090
O161	O16	0.293500	0.622000	0.948700
O171	O17	0.599800	0.030900	0.833900
O181	O18	0.353350	0.855470	0.106180
O191	O19	0.128870	0.282530	0.449960
O201	O20	0.481220	0.290430	0.319150
O211	O21	0.266040	0.994130	0.395450
O221	O22	0.429300	0.378000	0.328500
O231	O23	0.135200	0.969100	0.431100
O241	O24	0.038350	0.144530	0.502120
O251	O25	0.153660	0.421170	0.128870
O261	O26	0.809210	0.199630	0.481220
O271	O27	0.728090	0.338510	0.266040
O281	O28	0.948700	0.242200	0.429300
O291	O29	0.833900	0.433700	0.135200
O301	O30	0.106180	0.459530	0.038350
O311	O31	0.449960	0.578830	0.267510
O321	O32	0.319150	0.800370	0.390420
O331	O33	0.395450	0.661490	0.610420
O341	O34	0.328500	0.757800	0.293500
O351	O35	0.431100	0.566300	0.599800
O361	O36	0.502120	0.540470	0.353350
O371	O37	0.732490	0.282530	0.846340
O381	O38	0.609580	0.290430	0.190790
O391	O39	0.389580	0.994130	0.271910
O401	O40	0.706500	0.378000	0.051300
O411	O41	0.400200	0.969100	0.166100
O421	O42	0.646650	0.144530	0.893820
O431	O43	0.871130	0.717470	0.550040
O441	O44	0.518780	0.709570	0.680850
O451	O45	0.733960	0.005870	0.604550
O461	O46	0.570700	0.622000	0.671500
O471	O47	0.864800	0.030900	0.568900
O481	O48	0.961650	0.855470	0.497880
O491	O49	0.443600	0.813700	0.629900
O501	O50	0.556400	0.186300	0.370100
O511	O51	0.629900	0.073500	0.556400
O521	O52	0.370100	0.926500	0.443600
