data_NETFEY_clean_PM
_symmetry_space_group_name_H-M	'P1'
_cell_length_a	10.922100
_cell_length_b	19.266000
_cell_length_c	19.453700
_cell_angle_alpha	90.000000
_cell_angle_beta	98.385000
_cell_angle_gamma	90.000000
_symmetry_Int_Tables_number 1

loop_
_symmetry_equiv_pos_as_xyz
'x,y,z'

loop_
_atom_site_label
_atom_site_type_symbol
_atom_site_fract_x
_atom_site_fract_y
_atom_site_fract_z
Nd11	Nd1	0.584990	0.374860	0.857840
N11	N1	0.757100	0.463770	0.917660
C11	C1	0.744300	0.509200	0.968300
H11	H1	0.675600	0.504900	0.992000
C21	C2	0.828600	0.562400	0.987200
N21	N2	0.929900	0.568400	0.956000
C31	C3	0.945800	0.522500	0.906300
H21	H2	0.016500	0.525600	0.884100
C41	C4	0.859500	0.470400	0.886900
C51	C5	0.807400	0.614700	0.041100
H31	H3	0.871100	0.610000	0.081100
H41	H4	0.726900	0.606900	0.055100
H51	H5	0.810400	0.661000	0.021900
C61	C6	0.872300	0.420100	0.829400
O11	O1	0.973300	0.418040	0.805840
O21	O2	0.779400	0.383670	0.808020
N31	N3	0.468000	0.259190	0.888860
C71	C7	0.515500	0.207800	0.929100
H61	H6	0.597600	0.211500	0.951300
C81	C8	0.447700	0.148000	0.939800
N41	N4	0.333100	0.139900	0.906700
C91	C9	0.284600	0.192000	0.865900
H71	H7	0.203500	0.187700	0.842300
C101	C10	0.351000	0.252100	0.857500
C111	C11	0.501200	0.092400	0.988300
H81	H8	0.447600	0.084600	0.023200
H91	H9	0.582500	0.106500	0.010900
H101	H10	0.508500	0.049800	0.962600
C121	C12	0.296800	0.312200	0.815000
O31	O3	0.188100	0.306590	0.783360
O41	O4	0.363700	0.365470	0.814370
N51	N5	0.488700	0.492070	0.873340
N61	N6	0.544800	0.376890	0.982000
N71	N7	0.576600	0.286500	0.763100
Nd21	Nd2	0.049360	0.370880	0.701130
W11	W1	0.461590	0.661780	0.853310
C131	C13	0.480600	0.551600	0.868000
C141	C14	0.536700	0.364100	0.039300
C151	C15	0.558900	0.242800	0.722500
C161	C16	0.645200	0.642900	0.828000
N81	N8	0.742300	0.634400	0.812400
C171	C17	0.272400	0.627300	0.836500
N91	N9	0.171000	0.607800	0.826700
C181	C18	0.431200	0.613800	0.750400
N101	N10	0.414800	0.586000	0.697600
C191	C19	0.350600	0.742000	0.894000
N111	N11	0.290000	0.782800	0.914900
C201	C20	0.591500	0.737200	0.905700
N121	N12	0.661300	0.777900	0.931000
Nd31	Nd3	0.415010	0.874860	0.642160
N131	N13	0.242900	0.963770	0.582340
C211	C21	0.255700	0.009200	0.531700
H111	H11	0.324400	0.004900	0.508000
C221	C22	0.171400	0.062400	0.512800
N141	N14	0.070100	0.068400	0.544000
C231	C23	0.054200	0.022500	0.593700
H121	H12	0.983500	0.025600	0.615900
C241	C24	0.140500	0.970400	0.613100
C251	C25	0.192600	0.114700	0.458900
H131	H13	0.128900	0.110000	0.418900
H141	H14	0.273100	0.106900	0.444900
H151	H15	0.189600	0.161000	0.478100
C261	C26	0.127700	0.920100	0.670600
O51	O5	0.026700	0.918040	0.694160
O61	O6	0.220600	0.883670	0.691980
N151	N15	0.532000	0.759190	0.611140
C271	C27	0.484500	0.707800	0.570900
H161	H16	0.402400	0.711500	0.548700
C281	C28	0.552300	0.648000	0.560200
N161	N16	0.666900	0.639900	0.593300
C291	C29	0.715400	0.692000	0.634100
H171	H17	0.796500	0.687700	0.657700
C301	C30	0.649000	0.752100	0.642500
C311	C31	0.498800	0.592400	0.511700
H181	H18	0.552400	0.584600	0.476800
H191	H19	0.417500	0.606500	0.489100
H201	H20	0.491500	0.549800	0.537400
C321	C32	0.703200	0.812200	0.685000
O71	O7	0.811900	0.806590	0.716640
O81	O8	0.636300	0.865470	0.685630
N171	N17	0.511300	0.992070	0.626660
N181	N18	0.455200	0.876890	0.518000
N191	N19	0.423400	0.786500	0.736900
Nd41	Nd4	0.950640	0.870880	0.798870
W21	W2	0.538410	0.161780	0.646690
C331	C33	0.519400	0.051600	0.632000
C341	C34	0.463300	0.864100	0.460700
C351	C35	0.441100	0.742800	0.777500
C361	C36	0.354800	0.142900	0.672000
N201	N20	0.257700	0.134400	0.687600
C371	C37	0.727600	0.127300	0.663500
N211	N21	0.829000	0.107800	0.673300
C381	C38	0.568800	0.113800	0.749600
N221	N22	0.585200	0.086000	0.802400
C391	C39	0.649400	0.242000	0.606000
N231	N23	0.710000	0.282800	0.585100
C401	C40	0.408500	0.237200	0.594300
N241	N24	0.338700	0.277900	0.569000
Nd51	Nd5	0.415010	0.625140	0.142160
N251	N25	0.242900	0.536230	0.082340
C411	C41	0.255700	0.490800	0.031700
H211	H21	0.324400	0.495100	0.008000
C421	C42	0.171400	0.437600	0.012800
N261	N26	0.070100	0.431600	0.044000
C431	C43	0.054200	0.477500	0.093700
H221	H22	0.983500	0.474400	0.115900
C441	C44	0.140500	0.529600	0.113100
C451	C45	0.192600	0.385300	0.958900
H231	H23	0.128900	0.390000	0.918900
H241	H24	0.273100	0.393100	0.944900
H251	H25	0.189600	0.339000	0.978100
C461	C46	0.127700	0.579900	0.170600
O91	O9	0.026700	0.581960	0.194160
O101	O10	0.220600	0.616330	0.191980
N271	N27	0.532000	0.740810	0.111140
C471	C47	0.484500	0.792200	0.070900
H261	H26	0.402400	0.788500	0.048700
C481	C48	0.552300	0.852000	0.060200
N281	N28	0.666900	0.860100	0.093300
C491	C49	0.715400	0.808000	0.134100
H271	H27	0.796500	0.812300	0.157700
C501	C50	0.649000	0.747900	0.142500
C511	C51	0.498800	0.907600	0.011700
H281	H28	0.552400	0.915400	0.976800
H291	H29	0.417500	0.893500	0.989100
H301	H30	0.491500	0.950200	0.037400
C521	C52	0.703200	0.687800	0.185000
O111	O11	0.811900	0.693410	0.216640
O121	O12	0.636300	0.634530	0.185630
N291	N29	0.511300	0.507930	0.126660
N301	N30	0.455200	0.623110	0.018000
N311	N31	0.423400	0.713500	0.236900
Nd61	Nd6	0.950640	0.629120	0.298870
W31	W3	0.538410	0.338220	0.146690
C531	C53	0.519400	0.448400	0.132000
C541	C54	0.463300	0.635900	0.960700
C551	C55	0.441100	0.757200	0.277500
C561	C56	0.354800	0.357100	0.172000
N321	N32	0.257700	0.365600	0.187600
C571	C57	0.727600	0.372700	0.163500
N331	N33	0.829000	0.392200	0.173300
C581	C58	0.568800	0.386200	0.249600
N341	N34	0.585200	0.414000	0.302400
C591	C59	0.649400	0.258000	0.106000
N351	N35	0.710000	0.217200	0.085100
C601	C60	0.408500	0.262800	0.094300
N361	N36	0.338700	0.222100	0.069000
Nd71	Nd7	0.584990	0.125140	0.357840
N371	N37	0.757100	0.036230	0.417660
C611	C61	0.744300	0.990800	0.468300
H311	H31	0.675600	0.995100	0.492000
C621	C62	0.828600	0.937600	0.487200
N381	N38	0.929900	0.931600	0.456000
C631	C63	0.945800	0.977500	0.406300
H321	H32	0.016500	0.974400	0.384100
C641	C64	0.859500	0.029600	0.386900
C651	C65	0.807400	0.885300	0.541100
H331	H33	0.871100	0.890000	0.581100
H341	H34	0.726900	0.893100	0.555100
H351	H35	0.810400	0.839000	0.521900
C661	C66	0.872300	0.079900	0.329400
O131	O13	0.973300	0.081960	0.305840
O141	O14	0.779400	0.116330	0.308020
N391	N39	0.468000	0.240810	0.388860
C671	C67	0.515500	0.292200	0.429100
H361	H36	0.597600	0.288500	0.451300
C681	C68	0.447700	0.352000	0.439800
N401	N40	0.333100	0.360100	0.406700
C691	C69	0.284600	0.308000	0.365900
H371	H37	0.203500	0.312300	0.342300
C701	C70	0.351000	0.247900	0.357500
C711	C71	0.501200	0.407600	0.488300
H381	H38	0.447600	0.415400	0.523200
H391	H39	0.582500	0.393500	0.510900
H401	H40	0.508500	0.450200	0.462600
C721	C72	0.296800	0.187800	0.315000
O151	O15	0.188100	0.193410	0.283360
O161	O16	0.363700	0.134530	0.314370
N411	N41	0.488700	0.007930	0.373340
N421	N42	0.544800	0.123110	0.482000
N431	N43	0.576600	0.213500	0.263100
Nd81	Nd8	0.049360	0.129120	0.201130
W41	W4	0.461590	0.838220	0.353310
C731	C73	0.480600	0.948400	0.368000
C741	C74	0.536700	0.135900	0.539300
C751	C75	0.558900	0.257200	0.222500
C761	C76	0.645200	0.857100	0.328000
N441	N44	0.742300	0.865600	0.312400
C771	C77	0.272400	0.872700	0.336500
N451	N45	0.171000	0.892200	0.326700
C781	C78	0.431200	0.886200	0.250400
N461	N46	0.414800	0.914000	0.197600
C791	C79	0.350600	0.758000	0.394000
N471	N47	0.290000	0.717200	0.414900
C801	C80	0.591500	0.762800	0.405700
N481	N48	0.661300	0.722100	0.431000
