data_NEVJOP_clean_PM
_symmetry_space_group_name_H-M	'P1'
_cell_length_a	15.799100
_cell_length_b	11.425700
_cell_length_c	18.758200
_cell_angle_alpha	90.000000
_cell_angle_beta	103.367000
_cell_angle_gamma	90.000000
_symmetry_Int_Tables_number 1

loop_
_symmetry_equiv_pos_as_xyz
'x,y,z'

loop_
_atom_site_label
_atom_site_type_symbol
_atom_site_fract_x
_atom_site_fract_y
_atom_site_fract_z
Zn11	Zn1	0.578980	0.683560	0.193970
Zn21	Zn2	0.773750	0.808380	0.170130
Zn31	Zn3	0.582960	0.090880	0.999660
O11	O1	0.435000	0.068300	0.151270
O21	O2	0.514530	0.204790	0.926110
O31	O3	0.454510	0.380140	0.907040
O41	O4	0.640410	0.019030	0.099690
O51	O5	0.770180	0.991030	0.172000
O61	O6	0.878040	0.551060	0.242180
O71	O7	0.762150	0.625970	0.163660
N11	N1	0.583810	0.250670	0.075090
N21	N2	0.295820	0.887800	0.030910
N31	N3	0.891420	0.824800	0.131430
N41	N4	0.462410	0.702000	0.222670
C11	C1	0.712410	0.056400	0.137210
C21	C2	0.731720	0.186100	0.141860
C31	C3	0.816750	0.216100	0.177750
H11	H1	0.857900	0.155300	0.193200
C41	C4	0.843040	0.330900	0.191490
H21	H2	0.901200	0.348800	0.216100
C51	C5	0.782970	0.419400	0.168650
C61	C6	0.699470	0.393200	0.129950
H31	H3	0.659600	0.455000	0.113300
C71	C7	0.672700	0.277800	0.114970
C81	C8	0.809080	0.542700	0.191980
C91	C9	0.531070	0.213200	0.127610
H41	H4	0.495200	0.280600	0.136100
H51	H5	0.571500	0.194600	0.175000
C101	C10	0.471070	0.108800	0.105300
C111	C11	0.541250	0.345700	0.025710
C121	C12	0.500070	0.305200	0.948360
C131	C13	0.261100	0.783100	0.039430
H61	H6	0.294100	0.715400	0.034300
C141	C14	0.181800	0.767400	0.054930
H71	H7	0.160300	0.690800	0.059700
C151	C15	0.132200	0.866200	0.063720
C161	C16	0.167400	0.973700	0.055300
H81	H8	0.136200	0.042900	0.060900
C171	C17	0.247600	0.981500	0.038820
H91	H9	0.270000	0.057100	0.032700
C181	C18	0.047090	0.853100	0.084400
C191	C19	0.994600	0.755900	0.065100
H101	H10	0.010500	0.696600	0.035200
C201	C20	0.918200	0.745400	0.089900
H111	H11	0.883500	0.677500	0.076400
C211	C21	0.942100	0.920200	0.147900
H121	H12	0.924200	0.979300	0.176900
C221	C22	0.018000	0.937600	0.125500
H131	H13	0.050400	0.007600	0.138300
C231	C23	0.414400	0.800200	0.210590
H141	H14	0.438700	0.867800	0.193700
C241	C24	0.332000	0.806500	0.221690
H151	H15	0.300300	0.877800	0.213200
C251	C25	0.295150	0.708500	0.245330
C261	C26	0.345300	0.607500	0.259400
H161	H16	0.321200	0.538300	0.274600
C271	C27	0.428600	0.607130	0.251470
H171	H17	0.464000	0.540200	0.266100
H181	H18	0.499300	0.379400	0.051900
H191	H19	0.581900	0.401600	0.024300
O81	O8	0.661000	0.810080	0.216800
O91	O9	0.461110	0.071680	0.039000
Zn41	Zn4	0.921020	0.683560	0.306030
Zn51	Zn5	0.726250	0.808380	0.329870
Zn61	Zn6	0.917040	0.090880	0.500350
O101	O10	0.065000	0.068300	0.348730
O111	O11	0.985470	0.204790	0.573890
O121	O12	0.045490	0.380140	0.592960
O131	O13	0.859590	0.019030	0.400310
O141	O14	0.729820	0.991030	0.328000
O151	O15	0.621960	0.551060	0.257820
O161	O16	0.737850	0.625970	0.336340
N51	N5	0.916190	0.250670	0.424910
N61	N6	0.204180	0.887800	0.469090
N71	N7	0.608580	0.824800	0.368570
N81	N8	0.037590	0.702000	0.277330
C281	C28	0.787590	0.056400	0.362790
C291	C29	0.768280	0.186100	0.358140
C301	C30	0.683250	0.216100	0.322250
H201	H20	0.642100	0.155300	0.306800
C311	C31	0.656960	0.330900	0.308510
H211	H21	0.598800	0.348800	0.283900
C321	C32	0.717030	0.419400	0.331350
C331	C33	0.800530	0.393200	0.370050
H221	H22	0.840400	0.455000	0.386700
C341	C34	0.827300	0.277800	0.385030
C351	C35	0.690920	0.542700	0.308020
C361	C36	0.968930	0.213200	0.372390
H231	H23	0.004800	0.280600	0.363900
H241	H24	0.928500	0.194600	0.325000
C371	C37	0.028930	0.108800	0.394700
C381	C38	0.958750	0.345700	0.474290
C391	C39	0.999930	0.305200	0.551640
C401	C40	0.238900	0.783100	0.460570
H251	H25	0.205900	0.715400	0.465700
C411	C41	0.318200	0.767400	0.445070
H261	H26	0.339700	0.690800	0.440300
C421	C42	0.367800	0.866200	0.436280
C431	C43	0.332600	0.973700	0.444700
H271	H27	0.363800	0.042900	0.439100
C441	C44	0.252400	0.981500	0.461180
H281	H28	0.230000	0.057100	0.467300
C451	C45	0.452910	0.853100	0.415600
C461	C46	0.505400	0.755900	0.434900
H291	H29	0.489500	0.696600	0.464800
C471	C47	0.581800	0.745400	0.410100
H301	H30	0.616500	0.677500	0.423600
C481	C48	0.557900	0.920200	0.352100
H311	H31	0.575800	0.979300	0.323100
C491	C49	0.482000	0.937600	0.374500
H321	H32	0.449600	0.007600	0.361700
C501	C50	0.085600	0.800200	0.289410
H331	H33	0.061300	0.867800	0.306300
C511	C51	0.168000	0.806500	0.278310
H341	H34	0.199700	0.877800	0.286800
C521	C52	0.204850	0.708500	0.254670
C531	C53	0.154700	0.607500	0.240600
H351	H35	0.178800	0.538300	0.225400
C541	C54	0.071400	0.607130	0.248530
H361	H36	0.036000	0.540200	0.233900
H371	H37	0.000700	0.379400	0.448100
H381	H38	0.918100	0.401600	0.475700
O171	O17	0.839000	0.810080	0.283200
O181	O18	0.038890	0.071680	0.461000
Zn71	Zn7	0.421020	0.316440	0.806040
Zn81	Zn8	0.226250	0.191620	0.829870
Zn91	Zn9	0.417040	0.909120	0.000350
O191	O19	0.565000	0.931700	0.848730
O201	O20	0.485470	0.795210	0.073890
O211	O21	0.545490	0.619860	0.092960
O221	O22	0.359590	0.980970	0.900310
O231	O23	0.229820	0.008970	0.828000
O241	O24	0.121960	0.448940	0.757820
O251	O25	0.237850	0.374030	0.836340
N91	N9	0.416190	0.749330	0.924910
N101	N10	0.704180	0.112200	0.969090
N111	N11	0.108580	0.175200	0.868570
N121	N12	0.537590	0.298000	0.777330
C551	C55	0.287590	0.943600	0.862790
C561	C56	0.268280	0.813900	0.858140
C571	C57	0.183250	0.783900	0.822250
H391	H39	0.142100	0.844700	0.806800
C581	C58	0.156960	0.669100	0.808510
H401	H40	0.098800	0.651200	0.783900
C591	C59	0.217030	0.580600	0.831350
C601	C60	0.300530	0.606800	0.870050
H411	H41	0.340400	0.545000	0.886700
C611	C61	0.327300	0.722200	0.885030
C621	C62	0.190920	0.457300	0.808020
C631	C63	0.468930	0.786800	0.872390
H421	H42	0.504800	0.719400	0.863900
H431	H43	0.428500	0.805400	0.825000
C641	C64	0.528930	0.891200	0.894700
C651	C65	0.458750	0.654300	0.974290
C661	C66	0.499930	0.694800	0.051640
C671	C67	0.738900	0.216900	0.960570
H441	H44	0.705900	0.284600	0.965700
C681	C68	0.818200	0.232600	0.945070
H451	H45	0.839700	0.309200	0.940300
C691	C69	0.867800	0.133800	0.936280
C701	C70	0.832600	0.026300	0.944700
H461	H46	0.863800	0.957100	0.939100
C711	C71	0.752400	0.018500	0.961180
H471	H47	0.730000	0.942900	0.967300
C721	C72	0.952910	0.146900	0.915600
C731	C73	0.005400	0.244100	0.934900
H481	H48	0.989500	0.303400	0.964800
C741	C74	0.081800	0.254600	0.910100
H491	H49	0.116500	0.322500	0.923600
C751	C75	0.057900	0.079800	0.852100
H501	H50	0.075800	0.020700	0.823100
C761	C76	0.982000	0.062400	0.874500
H511	H51	0.949600	0.992400	0.861700
C771	C77	0.585600	0.199800	0.789410
H521	H52	0.561300	0.132200	0.806300
C781	C78	0.668000	0.193500	0.778310
H531	H53	0.699700	0.122200	0.786800
C791	C79	0.704850	0.291500	0.754670
C801	C80	0.654700	0.392500	0.740600
H541	H54	0.678800	0.461700	0.725400
C811	C81	0.571400	0.392870	0.748530
H551	H55	0.536000	0.459800	0.733900
H561	H56	0.500700	0.620600	0.948100
H571	H57	0.418100	0.598400	0.975700
O261	O26	0.339000	0.189920	0.783200
O271	O27	0.538890	0.928320	0.961000
Zn101	Zn10	0.078980	0.316440	0.693970
Zn111	Zn11	0.273750	0.191620	0.670130
Zn121	Zn12	0.082960	0.909120	0.499650
O281	O28	0.935000	0.931700	0.651270
O291	O29	0.014530	0.795210	0.426110
O301	O30	0.954510	0.619860	0.407040
O311	O31	0.140410	0.980970	0.599690
O321	O32	0.270180	0.008970	0.672000
O331	O33	0.378040	0.448940	0.742180
O341	O34	0.262150	0.374030	0.663660
N131	N13	0.083810	0.749330	0.575090
N141	N14	0.795820	0.112200	0.530910
N151	N15	0.391420	0.175200	0.631430
N161	N16	0.962410	0.298000	0.722670
C821	C82	0.212410	0.943600	0.637210
C831	C83	0.231720	0.813900	0.641860
C841	C84	0.316750	0.783900	0.677750
H581	H58	0.357900	0.844700	0.693200
C851	C85	0.343040	0.669100	0.691490
H591	H59	0.401200	0.651200	0.716100
C861	C86	0.282970	0.580600	0.668650
C871	C87	0.199470	0.606800	0.629950
H601	H60	0.159600	0.545000	0.613300
C881	C88	0.172700	0.722200	0.614970
C891	C89	0.309080	0.457300	0.691980
C901	C90	0.031070	0.786800	0.627610
H611	H61	0.995200	0.719400	0.636100
H621	H62	0.071500	0.805400	0.675000
C911	C91	0.971070	0.891200	0.605300
C921	C92	0.041250	0.654300	0.525710
C931	C93	0.000070	0.694800	0.448360
C941	C94	0.761100	0.216900	0.539430
H631	H63	0.794100	0.284600	0.534300
C951	C95	0.681800	0.232600	0.554930
H641	H64	0.660300	0.309200	0.559700
C961	C96	0.632200	0.133800	0.563720
C971	C97	0.667400	0.026300	0.555300
H651	H65	0.636200	0.957100	0.560900
C981	C98	0.747600	0.018500	0.538820
H661	H66	0.770000	0.942900	0.532700
C991	C99	0.547090	0.146900	0.584400
C1001	C100	0.494600	0.244100	0.565100
H671	H67	0.510500	0.303400	0.535200
C1011	C101	0.418200	0.254600	0.589900
H681	H68	0.383500	0.322500	0.576400
C1021	C102	0.442100	0.079800	0.647900
H691	H69	0.424200	0.020700	0.676900
C1031	C103	0.518000	0.062400	0.625500
H701	H70	0.550400	0.992400	0.638300
C1041	C104	0.914400	0.199800	0.710590
H711	H71	0.938700	0.132200	0.693700
C1051	C105	0.832000	0.193500	0.721690
H721	H72	0.800300	0.122200	0.713200
C1061	C106	0.795150	0.291500	0.745330
C1071	C107	0.845300	0.392500	0.759400
H731	H73	0.821200	0.461700	0.774600
C1081	C108	0.928600	0.392870	0.751470
H741	H74	0.964000	0.459800	0.766100
H751	H75	0.999300	0.620600	0.551900
H761	H76	0.081900	0.598400	0.524300
O351	O35	0.161000	0.189920	0.716800
O361	O36	0.961110	0.928320	0.539000
