data_NEVPUA_charged_PM
_symmetry_space_group_name_H-M	'P1'
_cell_length_a	13.256000
_cell_length_b	18.193000
_cell_length_c	18.193000
_cell_angle_alpha	90.000000
_cell_angle_beta	90.000000
_cell_angle_gamma	90.000000
_symmetry_Int_Tables_number 1

loop_
_symmetry_equiv_pos_as_xyz
'x,y,z'

loop_
_atom_site_label
_atom_site_type_symbol
_atom_site_fract_x
_atom_site_fract_y
_atom_site_fract_z
Cd11	Cd1	0.750000	0.750000	0.250000
Cl11	Cl1	0.858350	0.855450	0.213670
Cl21	Cl2	0.858350	0.644550	0.286330
Cl31	Cl3	0.641650	0.713670	0.144550
Cl41	Cl4	0.641650	0.786330	0.355450
Cd21	Cd2	0.250000	0.250000	0.750000
Cl51	Cl5	0.358350	0.286330	0.855450
Cl61	Cl6	0.358350	0.213670	0.644550
Cl71	Cl7	0.141650	0.144550	0.786330
Cl81	Cl8	0.141650	0.355450	0.713670
Cd31	Cd3	0.750000	0.250000	0.750000
Cl91	Cl9	0.641650	0.144550	0.713670
Cl101	Cl10	0.641650	0.355450	0.786330
Cl111	Cl11	0.858350	0.286330	0.644550
Cl121	Cl12	0.858350	0.213670	0.855450
Cd41	Cd4	0.250000	0.750000	0.250000
Cl131	Cl13	0.141650	0.713670	0.355450
Cl141	Cl14	0.141650	0.786330	0.144550
Cl151	Cl15	0.358350	0.855450	0.286330
Cl161	Cl16	0.358350	0.644550	0.213670
Cu11	Cu1	0.767280	0.988330	0.511670
Cu21	Cu2	0.767280	0.511670	0.988330
Cu31	Cu3	0.267280	0.988330	0.988330
Cu41	Cu4	0.267280	0.511670	0.511670
Cu51	Cu5	0.732720	0.011670	0.011670
Cu61	Cu6	0.732720	0.488330	0.488330
Cu71	Cu7	0.232720	0.011670	0.488330
Cu81	Cu8	0.232720	0.488330	0.011670
Cu91	Cu9	0.500000	0.000000	0.500000
Cu101	Cu10	0.500000	0.500000	0.000000
Cu111	Cu11	0.000000	0.000000	0.000000
Cu121	Cu12	0.000000	0.500000	0.500000
H11	H1	0.487900	0.980300	0.325100
H21	H2	0.790400	0.965700	0.330200
H31	H3	0.559800	0.870700	0.205000
H41	H4	0.721200	0.056700	0.188100
H51	H5	0.487900	0.519700	0.174900
H61	H6	0.790400	0.534300	0.169800
H71	H7	0.559800	0.629300	0.295000
H81	H8	0.721200	0.443300	0.311900
H91	H9	0.987900	0.174900	0.980300
H101	H10	0.290400	0.169800	0.965700
H111	H11	0.059800	0.295000	0.870700
H121	H12	0.221200	0.311900	0.056700
H131	H13	0.987900	0.325100	0.519700
H141	H14	0.290400	0.330200	0.534300
H151	H15	0.059800	0.205000	0.629300
H161	H16	0.221200	0.188100	0.443300
H171	H17	0.012100	0.019700	0.825100
H181	H18	0.709600	0.034300	0.830200
H191	H19	0.940200	0.129300	0.705000
H201	H20	0.778800	0.943300	0.688100
H211	H21	0.012100	0.480300	0.674900
H221	H22	0.709600	0.465700	0.669800
H231	H23	0.940200	0.370700	0.795000
H241	H24	0.778800	0.556700	0.811900
H251	H25	0.512100	0.825100	0.480300
H261	H26	0.209600	0.830200	0.465700
H271	H27	0.440200	0.705000	0.370700
H281	H28	0.278800	0.688100	0.556700
H291	H29	0.512100	0.674900	0.019700
H301	H30	0.209600	0.669800	0.034300
H311	H31	0.440200	0.795000	0.129300
H321	H32	0.278800	0.811900	0.943300
H331	H33	0.512100	0.019700	0.674900
H341	H34	0.209600	0.034300	0.669800
H351	H35	0.440200	0.129300	0.795000
H361	H36	0.278800	0.943300	0.811900
H371	H37	0.512100	0.480300	0.825100
H381	H38	0.209600	0.465700	0.830200
H391	H39	0.440200	0.370700	0.705000
H401	H40	0.278800	0.556700	0.688100
H411	H41	0.012100	0.825100	0.019700
H421	H42	0.709600	0.830200	0.034300
H431	H43	0.940200	0.705000	0.129300
H441	H44	0.778800	0.688100	0.943300
H451	H45	0.012100	0.674900	0.480300
H461	H46	0.709600	0.669800	0.465700
H471	H47	0.940200	0.795000	0.370700
H481	H48	0.778800	0.811900	0.556700
H491	H49	0.987900	0.980300	0.174900
H501	H50	0.290400	0.965700	0.169800
H511	H51	0.059800	0.870700	0.295000
H521	H52	0.221200	0.056700	0.311900
H531	H53	0.987900	0.519700	0.325100
H541	H54	0.290400	0.534300	0.330200
H551	H55	0.059800	0.629300	0.205000
H561	H56	0.221200	0.443300	0.188100
H571	H57	0.487900	0.174900	0.519700
H581	H58	0.790400	0.169800	0.534300
H591	H59	0.559800	0.295000	0.629300
H601	H60	0.721200	0.311900	0.443300
H611	H61	0.487900	0.325100	0.980300
H621	H62	0.790400	0.330200	0.965700
H631	H63	0.559800	0.205000	0.870700
H641	H64	0.721200	0.188100	0.056700
C11	C1	0.556300	0.978600	0.342300
C21	C2	0.721300	0.970500	0.345200
C31	C3	0.596300	0.911500	0.184600
C41	C4	0.684100	0.013100	0.175800
C51	C5	0.556300	0.521400	0.157700
C61	C6	0.721300	0.529500	0.154800
C71	C7	0.596300	0.588500	0.315400
C81	C8	0.684100	0.486900	0.324200
C91	C9	0.056300	0.157700	0.978600
C101	C10	0.221300	0.154800	0.970500
C111	C11	0.096300	0.315400	0.911500
C121	C12	0.184100	0.324200	0.013100
C131	C13	0.056300	0.342300	0.521400
C141	C14	0.221300	0.345200	0.529500
C151	C15	0.096300	0.184600	0.588500
C161	C16	0.184100	0.175800	0.486900
C171	C17	0.943700	0.021400	0.842300
C181	C18	0.778700	0.029500	0.845200
C191	C19	0.903700	0.088500	0.684600
C201	C20	0.815900	0.986900	0.675800
C211	C21	0.943700	0.478600	0.657700
C221	C22	0.778700	0.470500	0.654800
C231	C23	0.903700	0.411500	0.815400
C241	C24	0.815900	0.513100	0.824200
C251	C25	0.443700	0.842300	0.478600
C261	C26	0.278700	0.845200	0.470500
C271	C27	0.403700	0.684600	0.411500
C281	C28	0.315900	0.675800	0.513100
C291	C29	0.443700	0.657700	0.021400
C301	C30	0.278700	0.654800	0.029500
C311	C31	0.403700	0.815400	0.088500
C321	C32	0.315900	0.824200	0.986900
C331	C33	0.443700	0.021400	0.657700
C341	C34	0.278700	0.029500	0.654800
C351	C35	0.403700	0.088500	0.815400
C361	C36	0.315900	0.986900	0.824200
C371	C37	0.443700	0.478600	0.842300
C381	C38	0.278700	0.470500	0.845200
C391	C39	0.403700	0.411500	0.684600
C401	C40	0.315900	0.513100	0.675800
C411	C41	0.943700	0.842300	0.021400
C421	C42	0.778700	0.845200	0.029500
C431	C43	0.903700	0.684600	0.088500
C441	C44	0.815900	0.675800	0.986900
C451	C45	0.943700	0.657700	0.478600
C461	C46	0.778700	0.654800	0.470500
C471	C47	0.903700	0.815400	0.411500
C481	C48	0.815900	0.824200	0.513100
C491	C49	0.056300	0.978600	0.157700
C501	C50	0.221300	0.970500	0.154800
C511	C51	0.096300	0.911500	0.315400
C521	C52	0.184100	0.013100	0.324200
C531	C53	0.056300	0.521400	0.342300
C541	C54	0.221300	0.529500	0.345200
C551	C55	0.096300	0.588500	0.184600
C561	C56	0.184100	0.486900	0.175800
C571	C57	0.556300	0.157700	0.521400
C581	C58	0.721300	0.154800	0.529500
C591	C59	0.596300	0.315400	0.588500
C601	C60	0.684100	0.324200	0.486900
C611	C61	0.556300	0.342300	0.978600
C621	C62	0.721300	0.345200	0.970500
C631	C63	0.596300	0.184600	0.911500
C641	C64	0.684100	0.175800	0.013100
N11	N1	0.585300	0.981450	0.410450
N21	N2	0.689500	0.977060	0.412320
N31	N3	0.639300	0.972200	0.299670
N41	N4	0.610900	0.923300	0.115000
N51	N5	0.666700	0.988300	0.109800
N61	N6	0.639900	0.966200	0.224040
N71	N7	0.585300	0.518550	0.089550
N81	N8	0.689500	0.522940	0.087680
N91	N9	0.639300	0.527800	0.200330
N101	N10	0.610900	0.576700	0.385000
N111	N11	0.666700	0.511700	0.390200
N121	N12	0.639900	0.533800	0.275960
N131	N13	0.085300	0.089550	0.981450
N141	N14	0.189500	0.087680	0.977060
N151	N15	0.139300	0.200330	0.972200
N161	N16	0.110900	0.385000	0.923300
N171	N17	0.166700	0.390200	0.988300
N181	N18	0.139900	0.275960	0.966200
N191	N19	0.085300	0.410450	0.518550
N201	N20	0.189500	0.412320	0.522940
N211	N21	0.139300	0.299670	0.527800
N221	N22	0.110900	0.115000	0.576700
N231	N23	0.166700	0.109800	0.511700
N241	N24	0.139900	0.224040	0.533800
N251	N25	0.914700	0.018550	0.910450
N261	N26	0.810500	0.022940	0.912320
N271	N27	0.860700	0.027800	0.799670
N281	N28	0.889100	0.076700	0.615000
N291	N29	0.833300	0.011700	0.609800
N301	N30	0.860100	0.033800	0.724040
N311	N31	0.914700	0.481450	0.589550
N321	N32	0.810500	0.477060	0.587680
N331	N33	0.860700	0.472200	0.700330
N341	N34	0.889100	0.423300	0.885000
N351	N35	0.833300	0.488300	0.890200
N361	N36	0.860100	0.466200	0.775960
N371	N37	0.414700	0.910450	0.481450
N381	N38	0.310500	0.912320	0.477060
N391	N39	0.360700	0.799670	0.472200
N401	N40	0.389100	0.615000	0.423300
N411	N41	0.333300	0.609800	0.488300
N421	N42	0.360100	0.724040	0.466200
N431	N43	0.414700	0.589550	0.018550
N441	N44	0.310500	0.587680	0.022940
N451	N45	0.360700	0.700330	0.027800
N461	N46	0.389100	0.885000	0.076700
N471	N47	0.333300	0.890200	0.011700
N481	N48	0.360100	0.775960	0.033800
N491	N49	0.414700	0.018550	0.589550
N501	N50	0.310500	0.022940	0.587680
N511	N51	0.360700	0.027800	0.700330
N521	N52	0.389100	0.076700	0.885000
N531	N53	0.333300	0.011700	0.890200
N541	N54	0.360100	0.033800	0.775960
N551	N55	0.414700	0.481450	0.910450
N561	N56	0.310500	0.477060	0.912320
N571	N57	0.360700	0.472200	0.799670
N581	N58	0.389100	0.423300	0.615000
N591	N59	0.333300	0.488300	0.609800
N601	N60	0.360100	0.466200	0.724040
N611	N61	0.914700	0.910450	0.018550
N621	N62	0.810500	0.912320	0.022940
N631	N63	0.860700	0.799670	0.027800
N641	N64	0.889100	0.615000	0.076700
N651	N65	0.833300	0.609800	0.011700
N661	N66	0.860100	0.724040	0.033800
N671	N67	0.914700	0.589550	0.481450
N681	N68	0.810500	0.587680	0.477060
N691	N69	0.860700	0.700330	0.472200
N701	N70	0.889100	0.885000	0.423300
N711	N71	0.833300	0.890200	0.488300
N721	N72	0.860100	0.775960	0.466200
N731	N73	0.085300	0.981450	0.089550
N741	N74	0.189500	0.977060	0.087680
N751	N75	0.139300	0.972200	0.200330
N761	N76	0.110900	0.923300	0.385000
N771	N77	0.166700	0.988300	0.390200
N781	N78	0.139900	0.966200	0.275960
N791	N79	0.085300	0.518550	0.410450
N801	N80	0.189500	0.522940	0.412320
N811	N81	0.139300	0.527800	0.299670
N821	N82	0.110900	0.576700	0.115000
N831	N83	0.166700	0.511700	0.109800
N841	N84	0.139900	0.533800	0.224040
N851	N85	0.585300	0.089550	0.518550
N861	N86	0.689500	0.087680	0.522940
N871	N87	0.639300	0.200330	0.527800
N881	N88	0.610900	0.385000	0.576700
N891	N89	0.666700	0.390200	0.511700
N901	N90	0.639900	0.275960	0.533800
N911	N91	0.585300	0.410450	0.981450
N921	N92	0.689500	0.412320	0.977060
N931	N93	0.639300	0.299670	0.972200
N941	N94	0.610900	0.115000	0.923300
N951	N95	0.666700	0.109800	0.988300
N961	N96	0.639900	0.224040	0.966200
Cl171	Cl17	0.623060	0.920040	0.579960
Cl181	Cl18	0.623060	0.579960	0.920040
Cl191	Cl19	0.123060	0.920040	0.920040
Cl201	Cl20	0.123060	0.579960	0.579960
Cl211	Cl21	0.876940	0.079960	0.079960
Cl221	Cl22	0.876940	0.420040	0.420040
Cl231	Cl23	0.376940	0.079960	0.420040
Cl241	Cl24	0.376940	0.420040	0.079960
