data_NEVQAH_charged_PM
_symmetry_space_group_name_H-M	'P1'
_cell_length_a	13.234200
_cell_length_b	18.080800
_cell_length_c	18.080800
_cell_angle_alpha	90.000000
_cell_angle_beta	90.000000
_cell_angle_gamma	90.000000
_symmetry_Int_Tables_number 1

loop_
_symmetry_equiv_pos_as_xyz
'x,y,z'

loop_
_atom_site_label
_atom_site_type_symbol
_atom_site_fract_x
_atom_site_fract_y
_atom_site_fract_z
Cu11	Cu1	0.765010	0.988440	0.511560
Cu21	Cu2	0.765010	0.511560	0.988440
Cu31	Cu3	0.265010	0.988440	0.988440
Cu41	Cu4	0.265010	0.511560	0.511560
Cu51	Cu5	0.734990	0.011560	0.011560
Cu61	Cu6	0.734990	0.488440	0.488440
Cu71	Cu7	0.234990	0.011560	0.488440
Cu81	Cu8	0.234990	0.488440	0.011560
Cu91	Cu9	0.500000	0.000000	0.500000
Cu101	Cu10	0.500000	0.500000	0.000000
Cu111	Cu11	0.000000	0.000000	0.000000
Cu121	Cu12	0.000000	0.500000	0.500000
H11	H1	0.488400	0.980100	0.325100
H21	H2	0.790900	0.966200	0.329900
H31	H3	0.560900	0.870700	0.203900
H41	H4	0.721300	0.056600	0.187300
H51	H5	0.488400	0.519900	0.174900
H61	H6	0.790900	0.533800	0.170100
H71	H7	0.560900	0.629300	0.296100
H81	H8	0.721300	0.443400	0.312700
H91	H9	0.988400	0.174900	0.980100
H101	H10	0.290900	0.170100	0.966200
H111	H11	0.060900	0.296100	0.870700
H121	H12	0.221300	0.312700	0.056600
H131	H13	0.988400	0.325100	0.519900
H141	H14	0.290900	0.329900	0.533800
H151	H15	0.060900	0.203900	0.629300
H161	H16	0.221300	0.187300	0.443400
H171	H17	0.011600	0.019900	0.825100
H181	H18	0.709100	0.033800	0.829900
H191	H19	0.939100	0.129300	0.703900
H201	H20	0.778700	0.943400	0.687300
H211	H21	0.011600	0.480100	0.674900
H221	H22	0.709100	0.466200	0.670100
H231	H23	0.939100	0.370700	0.796100
H241	H24	0.778700	0.556600	0.812700
H251	H25	0.511600	0.825100	0.480100
H261	H26	0.209100	0.829900	0.466200
H271	H27	0.439100	0.703900	0.370700
H281	H28	0.278700	0.687300	0.556600
H291	H29	0.511600	0.674900	0.019900
H301	H30	0.209100	0.670100	0.033800
H311	H31	0.439100	0.796100	0.129300
H321	H32	0.278700	0.812700	0.943400
H331	H33	0.511600	0.019900	0.674900
H341	H34	0.209100	0.033800	0.670100
H351	H35	0.439100	0.129300	0.796100
H361	H36	0.278700	0.943400	0.812700
H371	H37	0.511600	0.480100	0.825100
H381	H38	0.209100	0.466200	0.829900
H391	H39	0.439100	0.370700	0.703900
H401	H40	0.278700	0.556600	0.687300
H411	H41	0.011600	0.825100	0.019900
H421	H42	0.709100	0.829900	0.033800
H431	H43	0.939100	0.703900	0.129300
H441	H44	0.778700	0.687300	0.943400
H451	H45	0.011600	0.674900	0.480100
H461	H46	0.709100	0.670100	0.466200
H471	H47	0.939100	0.796100	0.370700
H481	H48	0.778700	0.812700	0.556600
H491	H49	0.988400	0.980100	0.174900
H501	H50	0.290900	0.966200	0.170100
H511	H51	0.060900	0.870700	0.296100
H521	H52	0.221300	0.056600	0.312700
H531	H53	0.988400	0.519900	0.325100
H541	H54	0.290900	0.533800	0.329900
H551	H55	0.060900	0.629300	0.203900
H561	H56	0.221300	0.443400	0.187300
H571	H57	0.488400	0.174900	0.519900
H581	H58	0.790900	0.170100	0.533800
H591	H59	0.560900	0.296100	0.629300
H601	H60	0.721300	0.312700	0.443400
H611	H61	0.488400	0.325100	0.980100
H621	H62	0.790900	0.329900	0.966200
H631	H63	0.560900	0.203900	0.870700
H641	H64	0.721300	0.187300	0.056600
C11	C1	0.556900	0.978400	0.342300
C21	C2	0.721800	0.971000	0.345000
C31	C3	0.597400	0.911500	0.183500
C41	C4	0.684200	0.013000	0.175100
C51	C5	0.556900	0.521600	0.157700
C61	C6	0.721800	0.529000	0.155000
C71	C7	0.597400	0.588500	0.316500
C81	C8	0.684200	0.487000	0.324900
C91	C9	0.056900	0.157700	0.978400
C101	C10	0.221800	0.155000	0.971000
C111	C11	0.097400	0.316500	0.911500
C121	C12	0.184200	0.324900	0.013000
C131	C13	0.056900	0.342300	0.521600
C141	C14	0.221800	0.345000	0.529000
C151	C15	0.097400	0.183500	0.588500
C161	C16	0.184200	0.175100	0.487000
C171	C17	0.943100	0.021600	0.842300
C181	C18	0.778200	0.029000	0.845000
C191	C19	0.902600	0.088500	0.683500
C201	C20	0.815800	0.987000	0.675100
C211	C21	0.943100	0.478400	0.657700
C221	C22	0.778200	0.471000	0.655000
C231	C23	0.902600	0.411500	0.816500
C241	C24	0.815800	0.513000	0.824900
C251	C25	0.443100	0.842300	0.478400
C261	C26	0.278200	0.845000	0.471000
C271	C27	0.402600	0.683500	0.411500
C281	C28	0.315800	0.675100	0.513000
C291	C29	0.443100	0.657700	0.021600
C301	C30	0.278200	0.655000	0.029000
C311	C31	0.402600	0.816500	0.088500
C321	C32	0.315800	0.824900	0.987000
C331	C33	0.443100	0.021600	0.657700
C341	C34	0.278200	0.029000	0.655000
C351	C35	0.402600	0.088500	0.816500
C361	C36	0.315800	0.987000	0.824900
C371	C37	0.443100	0.478400	0.842300
C381	C38	0.278200	0.471000	0.845000
C391	C39	0.402600	0.411500	0.683500
C401	C40	0.315800	0.513000	0.675100
C411	C41	0.943100	0.842300	0.021600
C421	C42	0.778200	0.845000	0.029000
C431	C43	0.902600	0.683500	0.088500
C441	C44	0.815800	0.675100	0.987000
C451	C45	0.943100	0.657700	0.478400
C461	C46	0.778200	0.655000	0.471000
C471	C47	0.902600	0.816500	0.411500
C481	C48	0.815800	0.824900	0.513000
C491	C49	0.056900	0.978400	0.157700
C501	C50	0.221800	0.971000	0.155000
C511	C51	0.097400	0.911500	0.316500
C521	C52	0.184200	0.013000	0.324900
C531	C53	0.056900	0.521600	0.342300
C541	C54	0.221800	0.529000	0.345000
C551	C55	0.097400	0.588500	0.183500
C561	C56	0.184200	0.487000	0.175100
C571	C57	0.556900	0.157700	0.521600
C581	C58	0.721800	0.155000	0.529000
C591	C59	0.597400	0.316500	0.588500
C601	C60	0.684200	0.324900	0.487000
C611	C61	0.556900	0.342300	0.978400
C621	C62	0.721800	0.345000	0.971000
C631	C63	0.597400	0.183500	0.911500
C641	C64	0.684200	0.175100	0.013000
N11	N1	0.585500	0.980600	0.410400
N21	N2	0.689900	0.977300	0.412800
N31	N3	0.639500	0.971700	0.299200
N41	N4	0.612900	0.922500	0.113700
N51	N5	0.668200	0.988000	0.109100
N61	N6	0.639900	0.965800	0.223300
N71	N7	0.585500	0.519400	0.089600
N81	N8	0.689900	0.522700	0.087200
N91	N9	0.639500	0.528300	0.200800
N101	N10	0.612900	0.577500	0.386300
N111	N11	0.668200	0.512000	0.390900
N121	N12	0.639900	0.534200	0.276700
N131	N13	0.085500	0.089600	0.980600
N141	N14	0.189900	0.087200	0.977300
N151	N15	0.139500	0.200800	0.971700
N161	N16	0.112900	0.386300	0.922500
N171	N17	0.168200	0.390900	0.988000
N181	N18	0.139900	0.276700	0.965800
N191	N19	0.085500	0.410400	0.519400
N201	N20	0.189900	0.412800	0.522700
N211	N21	0.139500	0.299200	0.528300
N221	N22	0.112900	0.113700	0.577500
N231	N23	0.168200	0.109100	0.512000
N241	N24	0.139900	0.223300	0.534200
N251	N25	0.914500	0.019400	0.910400
N261	N26	0.810100	0.022700	0.912800
N271	N27	0.860500	0.028300	0.799200
N281	N28	0.887100	0.077500	0.613700
N291	N29	0.831800	0.012000	0.609100
N301	N30	0.860100	0.034200	0.723300
N311	N31	0.914500	0.480600	0.589600
N321	N32	0.810100	0.477300	0.587200
N331	N33	0.860500	0.471700	0.700800
N341	N34	0.887100	0.422500	0.886300
N351	N35	0.831800	0.488000	0.890900
N361	N36	0.860100	0.465800	0.776700
N371	N37	0.414500	0.910400	0.480600
N381	N38	0.310100	0.912800	0.477300
N391	N39	0.360500	0.799200	0.471700
N401	N40	0.387100	0.613700	0.422500
N411	N41	0.331800	0.609100	0.488000
N421	N42	0.360100	0.723300	0.465800
N431	N43	0.414500	0.589600	0.019400
N441	N44	0.310100	0.587200	0.022700
N451	N45	0.360500	0.700800	0.028300
N461	N46	0.387100	0.886300	0.077500
N471	N47	0.331800	0.890900	0.012000
N481	N48	0.360100	0.776700	0.034200
N491	N49	0.414500	0.019400	0.589600
N501	N50	0.310100	0.022700	0.587200
N511	N51	0.360500	0.028300	0.700800
N521	N52	0.387100	0.077500	0.886300
N531	N53	0.331800	0.012000	0.890900
N541	N54	0.360100	0.034200	0.776700
N551	N55	0.414500	0.480600	0.910400
N561	N56	0.310100	0.477300	0.912800
N571	N57	0.360500	0.471700	0.799200
N581	N58	0.387100	0.422500	0.613700
N591	N59	0.331800	0.488000	0.609100
N601	N60	0.360100	0.465800	0.723300
N611	N61	0.914500	0.910400	0.019400
N621	N62	0.810100	0.912800	0.022700
N631	N63	0.860500	0.799200	0.028300
N641	N64	0.887100	0.613700	0.077500
N651	N65	0.831800	0.609100	0.012000
N661	N66	0.860100	0.723300	0.034200
N671	N67	0.914500	0.589600	0.480600
N681	N68	0.810100	0.587200	0.477300
N691	N69	0.860500	0.700800	0.471700
N701	N70	0.887100	0.886300	0.422500
N711	N71	0.831800	0.890900	0.488000
N721	N72	0.860100	0.776700	0.465800
N731	N73	0.085500	0.980600	0.089600
N741	N74	0.189900	0.977300	0.087200
N751	N75	0.139500	0.971700	0.200800
N761	N76	0.112900	0.922500	0.386300
N771	N77	0.168200	0.988000	0.390900
N781	N78	0.139900	0.965800	0.276700
N791	N79	0.085500	0.519400	0.410400
N801	N80	0.189900	0.522700	0.412800
N811	N81	0.139500	0.528300	0.299200
N821	N82	0.112900	0.577500	0.113700
N831	N83	0.168200	0.512000	0.109100
N841	N84	0.139900	0.534200	0.223300
N851	N85	0.585500	0.089600	0.519400
N861	N86	0.689900	0.087200	0.522700
N871	N87	0.639500	0.200800	0.528300
N881	N88	0.612900	0.386300	0.577500
N891	N89	0.668200	0.390900	0.512000
N901	N90	0.639900	0.276700	0.534200
N911	N91	0.585500	0.410400	0.980600
N921	N92	0.689900	0.412800	0.977300
N931	N93	0.639500	0.299200	0.971700
N941	N94	0.612900	0.113700	0.922500
N951	N95	0.668200	0.109100	0.988000
N961	N96	0.639900	0.223300	0.965800
Cl11	Cl1	0.623200	0.920000	0.580000
Cl21	Cl2	0.623200	0.580000	0.920000
Cl31	Cl3	0.123200	0.920000	0.920000
Cl41	Cl4	0.123200	0.580000	0.580000
Cl51	Cl5	0.876800	0.080000	0.080000
Cl61	Cl6	0.876800	0.420000	0.420000
Cl71	Cl7	0.376800	0.080000	0.420000
Cl81	Cl8	0.376800	0.420000	0.080000
Hg11	Hg1	0.750000	0.750000	0.250000
Cl91	Cl9	0.858810	0.856400	0.213440
Cl101	Cl10	0.858810	0.643600	0.286560
Cl111	Cl11	0.641190	0.713440	0.143600
Cl121	Cl12	0.641190	0.786560	0.356400
Hg21	Hg2	0.250000	0.250000	0.750000
Cl131	Cl13	0.358810	0.286560	0.856400
Cl141	Cl14	0.358810	0.213440	0.643600
Cl151	Cl15	0.141190	0.143600	0.786560
Cl161	Cl16	0.141190	0.356400	0.713440
Hg31	Hg3	0.750000	0.250000	0.750000
Cl171	Cl17	0.641190	0.143600	0.713440
Cl181	Cl18	0.641190	0.356400	0.786560
Cl191	Cl19	0.858810	0.286560	0.643600
Cl201	Cl20	0.858810	0.213440	0.856400
Hg41	Hg4	0.250000	0.750000	0.250000
Cl211	Cl21	0.141190	0.713440	0.356400
Cl221	Cl22	0.141190	0.786560	0.143600
Cl231	Cl23	0.358810	0.856400	0.286560
Cl241	Cl24	0.358810	0.643600	0.213440
