data_NEVVAM01_clean_PM
_symmetry_space_group_name_H-M	'P1'
_cell_length_a	10.767000
_cell_length_b	14.345000
_cell_length_c	17.049000
_cell_angle_alpha	90.000000
_cell_angle_beta	106.518000
_cell_angle_gamma	90.000000
_symmetry_Int_Tables_number 1

loop_
_symmetry_equiv_pos_as_xyz
'x,y,z'

loop_
_atom_site_label
_atom_site_type_symbol
_atom_site_fract_x
_atom_site_fract_y
_atom_site_fract_z
Co11	Co1	0.446910	0.473480	0.405500
Co21	Co2	0.053090	0.973480	0.094500
Co31	Co3	0.553090	0.526520	0.594500
Co41	Co4	0.249140	0.908680	0.999260
Co51	Co5	0.948170	0.528420	0.407010
Co61	Co6	0.448170	0.971580	0.907010
Co71	Co7	0.749140	0.591320	0.499260
Co81	Co8	0.750860	0.091320	0.000740
Co91	Co9	0.551830	0.028420	0.092990
Co101	Co10	0.250860	0.408680	0.500740
Co111	Co11	0.946910	0.026520	0.905500
Co121	Co12	0.051830	0.471580	0.592990
H11	H1	0.015200	0.866800	0.967500
H21	H2	0.867000	0.289500	0.743500
H31	H3	0.484800	0.366800	0.532500
H41	H4	0.070000	0.187100	0.342800
H51	H5	0.930000	0.812900	0.657200
H61	H6	0.430000	0.687100	0.157200
H71	H7	0.014100	0.931900	0.751500
H81	H8	0.985900	0.068100	0.248500
H91	H9	0.133000	0.710500	0.256500
H101	H10	0.023000	0.367900	0.468700
H111	H11	0.049600	0.701400	0.827300
H121	H12	0.485900	0.431900	0.748500
H131	H13	0.529400	0.080200	0.763300
H141	H14	0.477000	0.867900	0.031300
H151	H15	0.984800	0.133200	0.032500
H161	H16	0.549600	0.798600	0.327300
H171	H17	0.523000	0.132100	0.968700
H181	H18	0.470600	0.919800	0.236700
H191	H19	0.633000	0.789500	0.756500
H201	H20	0.367000	0.210500	0.243500
H211	H21	0.970600	0.580200	0.736700
H221	H22	0.514100	0.568100	0.251500
H231	H23	0.977000	0.632100	0.531300
H241	H24	0.130000	0.204800	0.748300
H251	H25	0.370000	0.704800	0.751700
H261	H26	0.029400	0.419800	0.263300
H271	H27	0.515200	0.633200	0.467500
H281	H28	0.450400	0.201400	0.672700
H291	H29	0.630000	0.295200	0.248300
H301	H30	0.870000	0.795200	0.251700
H311	H31	0.950400	0.298600	0.172700
H321	H32	0.570000	0.312900	0.842800
C11	C1	0.304100	0.563730	0.639480
C21	C2	0.763500	0.890720	0.805880
C31	C3	0.775300	0.785910	0.699510
C41	C4	0.063800	0.097050	0.248730
C51	C5	0.598300	0.821350	0.293910
C61	C6	0.195900	0.063730	0.860520
C71	C7	0.766100	0.699480	0.352990
C81	C8	0.448000	0.105370	0.760220
C91	C9	0.224700	0.214090	0.300490
C101	C10	0.612000	0.330850	0.803830
C111	C11	0.552000	0.894630	0.239780
C121	C12	0.266100	0.800520	0.852990
C131	C13	0.233900	0.300520	0.647010
C141	C14	0.724700	0.285910	0.800490
C151	C15	0.236500	0.109280	0.194120
C161	C16	0.789400	0.316820	0.745650
C171	C17	0.273600	0.295910	0.357070
C181	C18	0.782000	0.282400	0.202940
C191	C19	0.236400	0.606190	0.696710
C201	C20	0.901700	0.321350	0.206090
C211	C21	0.112000	0.169150	0.303830
C221	C22	0.289600	0.680120	0.748430
C231	C23	0.710400	0.319880	0.251570
C241	C24	0.802000	0.431530	0.634810
C251	C25	0.726400	0.704090	0.642930
C261	C26	0.289400	0.183180	0.245650
C271	C27	0.052000	0.605370	0.739780
C281	C28	0.282000	0.217600	0.702940
C291	C29	0.275300	0.714090	0.199510
C301	C30	0.098300	0.678650	0.793910
C311	C31	0.198000	0.568470	0.365190
C321	C32	0.436200	0.597050	0.251270
C331	C33	0.718000	0.782400	0.297060
C341	C34	0.563800	0.402950	0.748730
C351	C35	0.888000	0.830850	0.696170
C361	C36	0.736400	0.893810	0.196710
C371	C37	0.226400	0.795910	0.142930
C381	C38	0.388000	0.669150	0.196170
C391	C39	0.936200	0.902950	0.751270
C401	C40	0.789600	0.819880	0.248430
C411	C41	0.218000	0.717600	0.797060
C421	C42	0.733900	0.199480	0.147010
C431	C43	0.736500	0.390720	0.694120
C441	C44	0.263600	0.106190	0.803290
C451	C45	0.804100	0.936270	0.139480
C461	C46	0.773600	0.204090	0.857070
C471	C47	0.263500	0.609280	0.305880
C481	C48	0.948000	0.394630	0.260220
C491	C49	0.302000	0.068470	0.134810
C501	C50	0.710600	0.816820	0.754350
C511	C51	0.210600	0.683180	0.254350
C521	C52	0.695900	0.436270	0.360520
C531	C53	0.210400	0.180120	0.751570
C541	C54	0.763600	0.393810	0.303290
C551	C55	0.401700	0.178650	0.706090
C561	C56	0.698000	0.931530	0.865190
N11	N1	0.618540	0.929880	0.191570
N21	N2	0.381460	0.070120	0.808430
N31	N3	0.376110	0.568410	0.305820
N41	N4	0.623890	0.431590	0.694180
N51	N5	0.876110	0.931590	0.805820
N61	N6	0.118540	0.570120	0.691570
N71	N7	0.881460	0.429880	0.308430
N81	N8	0.123890	0.068410	0.194180
O11	O1	0.847540	0.146630	0.836720
O21	O2	0.265870	0.511100	0.415710
O31	O3	0.265870	0.799460	0.080590
O41	O4	0.234130	0.011100	0.084290
O51	O5	0.552110	0.080330	0.979150
O61	O6	0.652460	0.646630	0.663280
O71	O7	0.765870	0.700540	0.580590
O81	O8	0.843840	0.644110	0.334500
O91	O9	0.343840	0.855890	0.834500
O101	O10	0.947890	0.580330	0.520850
O111	O11	0.765870	0.988900	0.915710
O121	O12	0.156160	0.355890	0.665500
O131	O13	0.584760	0.909410	0.859630
O141	O14	0.735470	0.987370	0.084570
O151	O15	0.578770	0.418400	0.349860
O161	O16	0.220960	0.805560	0.913220
O171	O17	0.915240	0.409410	0.640370
O181	O18	0.084760	0.590590	0.359630
O191	O19	0.734130	0.488900	0.584290
O201	O20	0.952990	0.081300	0.020970
O211	O21	0.415240	0.090590	0.140370
O221	O22	0.720960	0.694440	0.413220
O231	O23	0.734130	0.200540	0.919410
O241	O24	0.921230	0.918400	0.150140
O251	O25	0.234130	0.299460	0.419410
O261	O26	0.421230	0.581600	0.650140
O271	O27	0.779040	0.194440	0.086780
O281	O28	0.452990	0.418700	0.520970
O291	O29	0.152460	0.853370	0.163280
O301	O30	0.547010	0.581300	0.479030
O311	O31	0.078770	0.081600	0.849860
O321	O32	0.447890	0.919670	0.020850
O331	O33	0.656160	0.144110	0.165500
O341	O34	0.235470	0.512630	0.584570
O351	O35	0.347540	0.353370	0.336720
O361	O36	0.052110	0.419670	0.479150
O371	O37	0.264530	0.012630	0.915430
O381	O38	0.047010	0.918700	0.979030
O391	O39	0.279040	0.305560	0.586780
O401	O40	0.764530	0.487370	0.415430
