data_NEXXIZ_clean_PM
_symmetry_space_group_name_H-M	'P1'
_cell_length_a	12.960000
_cell_length_b	21.189300
_cell_length_c	21.189300
_cell_angle_alpha	84.401500
_cell_angle_beta	72.192900
_cell_angle_gamma	72.192800
_symmetry_Int_Tables_number 1

loop_
_symmetry_equiv_pos_as_xyz
'x,y,z'

loop_
_atom_site_label
_atom_site_type_symbol
_atom_site_fract_x
_atom_site_fract_y
_atom_site_fract_z
Li11	Li1	0.953100	0.514150	0.048850
Li21	Li2	0.193170	0.954040	0.522420
Li31	Li3	0.797960	0.006370	0.563310
Li41	Li4	0.946900	0.304900	0.978700
Li51	Li5	0.516100	0.485850	0.951150
Li61	Li6	0.669630	0.045960	0.477580
Li71	Li7	0.367640	0.993630	0.436690
Li81	Li8	0.230500	0.695100	0.021300
Li91	Li9	0.016100	0.951150	0.485850
Li101	Li10	0.169630	0.477580	0.045960
Li111	Li11	0.867640	0.436690	0.993630
Li121	Li12	0.730500	0.021300	0.695100
Li131	Li13	0.453100	0.048850	0.514150
Li141	Li14	0.693170	0.522420	0.954040
Li151	Li15	0.297960	0.563310	0.006370
Li161	Li16	0.446900	0.978700	0.304900
H11	H1	0.080700	0.572000	0.940800
H21	H2	0.173200	0.652100	0.894900
H31	H3	0.955700	0.722400	0.784400
H41	H4	0.866000	0.642600	0.830200
H51	H5	0.861600	0.915600	0.750200
H61	H6	0.924700	0.840400	0.828800
H71	H7	0.233100	0.770000	0.692400
H81	H8	0.171000	0.848000	0.616200
H91	H9	0.267200	0.773400	0.790200
H101	H10	0.237300	0.740800	0.862400
H111	H11	0.283100	0.695400	0.797800
H121	H12	0.012900	0.070700	0.558500
H131	H13	0.840600	0.127000	0.632400
H141	H14	0.989100	0.254900	0.671700
H151	H15	0.162700	0.196200	0.600400
H161	H16	0.906400	0.272300	0.867700
H171	H17	0.914800	0.208800	0.781400
H181	H18	0.644500	0.344300	0.747100
H191	H19	0.629200	0.404900	0.837100
H201	H20	0.593500	0.428000	0.059200
H211	H21	0.720200	0.347900	0.105100
H221	H22	0.462500	0.277600	0.215600
H231	H23	0.338800	0.357400	0.169800
H241	H24	0.527400	0.084400	0.249800
H251	H25	0.593900	0.159600	0.171200
H261	H26	0.695500	0.230000	0.307600
H271	H27	0.635200	0.152000	0.383800
H281	H28	0.830800	0.226600	0.209800
H291	H29	0.840500	0.259200	0.137600
H301	H30	0.776300	0.304600	0.202200
H311	H31	0.642100	0.929300	0.441500
H321	H32	0.600000	0.873000	0.367600
H331	H33	0.915700	0.745100	0.328300
H341	H34	0.959300	0.803800	0.399600
H351	H35	0.046400	0.727700	0.132300
H361	H36	0.905000	0.791200	0.218600
H371	H37	0.735900	0.655700	0.252900
H381	H38	0.871200	0.595100	0.162900
H391	H39	0.093500	0.059200	0.428000
H401	H40	0.220200	0.105100	0.347900
H411	H41	0.962500	0.215600	0.277600
H421	H42	0.838800	0.169800	0.357400
H431	H43	0.027400	0.249800	0.084400
H441	H44	0.093900	0.171200	0.159600
H451	H45	0.195500	0.307600	0.230000
H461	H46	0.135200	0.383800	0.152000
H471	H47	0.330800	0.209800	0.226600
H481	H48	0.340500	0.137600	0.259200
H491	H49	0.276300	0.202200	0.304600
H501	H50	0.142100	0.441500	0.929300
H511	H51	0.100000	0.367600	0.873000
H521	H52	0.415700	0.328300	0.745100
H531	H53	0.459300	0.399600	0.803800
H541	H54	0.546400	0.132300	0.727700
H551	H55	0.405000	0.218600	0.791200
H561	H56	0.235900	0.252900	0.655700
H571	H57	0.371200	0.162900	0.595100
H581	H58	0.580700	0.940800	0.572000
H591	H59	0.673200	0.894900	0.652100
H601	H60	0.455700	0.784400	0.722400
H611	H61	0.366000	0.830200	0.642600
H621	H62	0.361600	0.750200	0.915600
H631	H63	0.424700	0.828800	0.840400
H641	H64	0.733100	0.692400	0.770000
H651	H65	0.671000	0.616200	0.848000
H661	H66	0.767200	0.790200	0.773400
H671	H67	0.737300	0.862400	0.740800
H681	H68	0.783100	0.797800	0.695400
H691	H69	0.512900	0.558500	0.070700
H701	H70	0.340600	0.632400	0.127000
H711	H71	0.489100	0.671700	0.254900
H721	H72	0.662700	0.600400	0.196200
H731	H73	0.406400	0.867700	0.272300
H741	H74	0.414800	0.781400	0.208800
H751	H75	0.144500	0.747100	0.344300
H761	H76	0.129200	0.837100	0.404900
C11	C1	0.906380	0.546730	0.918170
C21	C2	0.965530	0.598100	0.888880
C31	C3	0.055300	0.602510	0.908930
C41	C4	0.108860	0.651260	0.882800
C51	C5	0.067970	0.698980	0.838660
C61	C6	0.980170	0.692970	0.817250
C71	C7	0.928620	0.644450	0.843490
C81	C8	0.971120	0.935320	0.623200
C91	C9	0.011310	0.889420	0.675280
C101	C10	0.936740	0.886630	0.738890
C111	C11	0.973720	0.841190	0.785170
C121	C12	0.082550	0.796870	0.767630
C131	C13	0.158390	0.799330	0.704090
C141	C14	0.120790	0.845800	0.659220
C151	C15	0.236500	0.739110	0.816490
C161	C16	0.217310	0.088450	0.529510
C171	C17	0.104770	0.127130	0.573010
C181	C18	0.008600	0.107750	0.582170
C191	C19	0.905390	0.141840	0.625580
C201	C20	0.896950	0.197250	0.658850
C211	C21	0.993720	0.217080	0.649080
C221	C22	0.097250	0.182200	0.606500
C231	C23	0.762210	0.390530	0.913590
C241	C24	0.767080	0.345900	0.860840
C251	C25	0.851990	0.287370	0.843850
C261	C26	0.857680	0.250120	0.791320
C271	C27	0.784310	0.270690	0.753290
C281	C28	0.698240	0.329060	0.771260
C291	C29	0.689940	0.365410	0.824910
C301	C30	0.689300	0.244800	0.678400
C311	C31	0.371280	0.453270	0.081830
C321	C32	0.452510	0.401900	0.111120
C331	C33	0.566740	0.397490	0.091070
C341	C34	0.642920	0.348740	0.117200
C351	C35	0.605610	0.301020	0.161340
C361	C36	0.490390	0.307030	0.182750
C371	C37	0.416560	0.355550	0.156510
C381	C38	0.529640	0.064680	0.376800
C391	C39	0.576010	0.110580	0.324720
C401	C40	0.562260	0.113370	0.261110
C411	C41	0.600080	0.158810	0.214830
C421	C42	0.647050	0.203130	0.232370
C431	C43	0.661810	0.200670	0.295910
C441	C44	0.625810	0.154200	0.340780
C451	C45	0.792100	0.260890	0.183510
C461	C46	0.835270	0.911550	0.470490
C471	C47	0.804910	0.872870	0.426990
C481	C48	0.698520	0.892250	0.417830
C491	C49	0.672810	0.858160	0.374420
C501	C50	0.753050	0.802750	0.341150
C511	C51	0.859880	0.782920	0.350920
C521	C52	0.885950	0.817800	0.393500
C531	C53	0.066330	0.609470	0.086410
C541	C54	0.973820	0.654100	0.139160
C551	C55	0.983210	0.712630	0.156150
C561	C56	0.899120	0.749880	0.208680
C571	C57	0.808290	0.729310	0.246710
C581	C58	0.798560	0.670940	0.228740
C591	C59	0.880260	0.634590	0.175090
C601	C60	0.612500	0.755200	0.321600
C611	C61	0.871280	0.081830	0.453270
C621	C62	0.952510	0.111120	0.401900
C631	C63	0.066740	0.091070	0.397490
C641	C64	0.142920	0.117200	0.348740
C651	C65	0.105610	0.161340	0.301020
C661	C66	0.990390	0.182750	0.307030
C671	C67	0.916560	0.156510	0.355550
C681	C68	0.029640	0.376800	0.064680
C691	C69	0.076010	0.324720	0.110580
C701	C70	0.062260	0.261110	0.113370
C711	C71	0.100080	0.214830	0.158810
C721	C72	0.147050	0.232370	0.203130
C731	C73	0.161810	0.295910	0.200670
C741	C74	0.125810	0.340780	0.154200
C751	C75	0.292100	0.183510	0.260890
C761	C76	0.335270	0.470490	0.911550
C771	C77	0.304910	0.426990	0.872870
C781	C78	0.198520	0.417830	0.892250
C791	C79	0.172810	0.374420	0.858160
C801	C80	0.253050	0.341150	0.802750
C811	C81	0.359880	0.350920	0.782920
C821	C82	0.385950	0.393500	0.817800
C831	C83	0.566330	0.086410	0.609470
C841	C84	0.473820	0.139160	0.654100
C851	C85	0.483210	0.156150	0.712630
C861	C86	0.399120	0.208680	0.749880
C871	C87	0.308290	0.246710	0.729310
C881	C88	0.298560	0.228740	0.670940
C891	C89	0.380260	0.175090	0.634590
C901	C90	0.112500	0.321600	0.755200
C911	C91	0.406380	0.918170	0.546730
C921	C92	0.465530	0.888880	0.598100
C931	C93	0.555300	0.908930	0.602510
C941	C94	0.608860	0.882800	0.651260
C951	C95	0.567970	0.838660	0.698980
C961	C96	0.480170	0.817250	0.692970
C971	C97	0.428620	0.843490	0.644450
C981	C98	0.471120	0.623200	0.935320
C991	C99	0.511310	0.675280	0.889420
C1001	C100	0.436740	0.738890	0.886630
C1011	C101	0.473720	0.785170	0.841190
C1021	C102	0.582550	0.767630	0.796870
C1031	C103	0.658390	0.704090	0.799330
C1041	C104	0.620790	0.659220	0.845800
C1051	C105	0.736500	0.816490	0.739110
C1061	C106	0.717310	0.529510	0.088450
C1071	C107	0.604770	0.573010	0.127130
C1081	C108	0.508600	0.582170	0.107750
C1091	C109	0.405390	0.625580	0.141840
C1101	C110	0.396950	0.658850	0.197250
C1111	C111	0.493720	0.649080	0.217080
C1121	C112	0.597250	0.606500	0.182200
C1131	C113	0.262210	0.913590	0.390530
C1141	C114	0.267080	0.860840	0.345900
C1151	C115	0.351990	0.843850	0.287370
C1161	C116	0.357680	0.791320	0.250120
C1171	C117	0.284310	0.753290	0.270690
C1181	C118	0.198240	0.771260	0.329060
C1191	C119	0.189940	0.824910	0.365410
C1201	C120	0.189300	0.678400	0.244800
N11	N1	0.118780	0.750470	0.815010
N21	N2	0.791880	0.233920	0.700520
N31	N3	0.684260	0.249530	0.184990
N41	N4	0.726320	0.766080	0.299480
N51	N5	0.184260	0.184990	0.249530
N61	N6	0.226320	0.299480	0.766080
N71	N7	0.618780	0.815010	0.750470
N81	N8	0.291880	0.700520	0.233920
O11	O1	0.941650	0.507390	0.961230
O21	O2	0.824010	0.545350	0.899310
O31	O3	0.046280	0.941870	0.571010
O41	O4	0.866760	0.963090	0.633850
O51	O5	0.219540	0.039110	0.499350
O61	O6	0.302450	0.107260	0.525140
O71	O7	0.843030	0.376790	0.938350
O81	O8	0.676970	0.440140	0.929060
O91	O9	0.410270	0.492610	0.038770
O101	O10	0.268670	0.454650	0.100690
O111	O11	0.559160	0.058130	0.428990
O121	O12	0.463700	0.036910	0.366150
O131	O13	0.758000	0.960890	0.500650
O141	O14	0.934850	0.892740	0.474860
O151	O15	0.158170	0.623210	0.061650
O161	O16	0.046170	0.559860	0.070940
O171	O17	0.910270	0.038770	0.492610
O181	O18	0.768670	0.100690	0.454650
O191	O19	0.059160	0.428990	0.058130
O201	O20	0.963700	0.366150	0.036910
O211	O21	0.258000	0.500650	0.960890
O221	O22	0.434850	0.474860	0.892740
O231	O23	0.658170	0.061650	0.623210
O241	O24	0.546170	0.070940	0.559860
O251	O25	0.441650	0.961230	0.507390
O261	O26	0.324010	0.899310	0.545350
O271	O27	0.546280	0.571010	0.941870
O281	O28	0.366760	0.633850	0.963090
O291	O29	0.719540	0.499350	0.039110
O301	O30	0.802450	0.525140	0.107260
O311	O31	0.343030	0.938350	0.376790
O321	O32	0.176970	0.929060	0.440140
