data_NEZWOG_clean_PM
_symmetry_space_group_name_H-M	'P1'
_cell_length_a	11.266800
_cell_length_b	13.360400
_cell_length_c	26.282000
_cell_angle_alpha	90.000000
_cell_angle_beta	90.000000
_cell_angle_gamma	90.000000
_symmetry_Int_Tables_number 1

loop_
_symmetry_equiv_pos_as_xyz
'x,y,z'

loop_
_atom_site_label
_atom_site_type_symbol
_atom_site_fract_x
_atom_site_fract_y
_atom_site_fract_z
La11	La1	0.972210	0.658590	0.218520
La21	La2	0.472210	0.841410	0.281480
La31	La3	0.527790	0.658590	0.781480
La41	La4	0.027790	0.841410	0.718520
La51	La5	0.027790	0.341410	0.781480
La61	La6	0.527790	0.158590	0.718520
La71	La7	0.472210	0.341410	0.218520
La81	La8	0.972210	0.158590	0.281480
La91	La9	0.250000	0.488700	0.000000
La101	La10	0.750000	0.011300	0.500000
La111	La11	0.750000	0.511300	0.000000
La121	La12	0.250000	0.988700	0.500000
P11	P1	0.139900	0.816300	0.311080
P21	P2	0.294600	0.707500	0.085990
P31	P3	0.639900	0.683700	0.188920
P41	P4	0.794600	0.792500	0.414010
P51	P5	0.360100	0.816300	0.688920
P61	P6	0.205400	0.707500	0.914010
P71	P7	0.860100	0.683700	0.811080
P81	P8	0.705400	0.792500	0.585990
P91	P9	0.860100	0.183700	0.688920
P101	P10	0.705400	0.292500	0.914010
P111	P11	0.360100	0.316300	0.811080
P121	P12	0.205400	0.207500	0.585990
P131	P13	0.639900	0.183700	0.311080
P141	P14	0.794600	0.292500	0.085990
P151	P15	0.139900	0.316300	0.188920
P161	P16	0.294600	0.207500	0.414010
C11	C1	0.061000	0.910600	0.274600
C21	C2	0.927300	0.906200	0.276500
C31	C3	0.202400	0.647900	0.133600
C41	C4	0.095300	0.600400	0.109100
C51	C5	0.561000	0.589400	0.225400
C61	C6	0.427300	0.593800	0.223500
C71	C7	0.702400	0.852100	0.366400
C81	C8	0.595300	0.899600	0.390900
C91	C9	0.439000	0.910600	0.725400
C101	C10	0.572700	0.906200	0.723500
C111	C11	0.297600	0.647900	0.866400
C121	C12	0.404700	0.600400	0.890900
C131	C13	0.939000	0.589400	0.774600
C141	C14	0.072700	0.593800	0.776500
C151	C15	0.797600	0.852100	0.633600
C161	C16	0.904700	0.899600	0.609100
C171	C17	0.939000	0.089400	0.725400
C181	C18	0.072700	0.093800	0.723500
C191	C19	0.797600	0.352100	0.866400
C201	C20	0.904700	0.399600	0.890900
C211	C21	0.439000	0.410600	0.774600
C221	C22	0.572700	0.406200	0.776500
C231	C23	0.297600	0.147900	0.633600
C241	C24	0.404700	0.100400	0.609100
C251	C25	0.561000	0.089400	0.274600
C261	C26	0.427300	0.093800	0.276500
C271	C27	0.702400	0.352100	0.133600
C281	C28	0.595300	0.399600	0.109100
C291	C29	0.061000	0.410600	0.225400
C301	C30	0.927300	0.406200	0.223500
C311	C31	0.202400	0.147900	0.366400
C321	C32	0.095300	0.100400	0.390900
O11	O1	0.130800	0.716000	0.282900
O21	O2	0.083000	0.811700	0.364300
O31	O3	0.269600	0.851300	0.315300
O41	O4	0.131000	0.996900	0.269700
O51	O5	0.879600	0.823800	0.269600
O61	O6	0.873500	0.982600	0.289700
O71	O7	0.348300	0.625200	0.052000
O81	O8	0.215700	0.778800	0.054800
O91	O9	0.393000	0.766200	0.114000
O101	O10	0.206100	0.698200	0.180300
O111	O11	0.113800	0.545600	0.071900
O121	O12	0.999200	0.611100	0.131200
O131	O13	0.630800	0.784000	0.217100
O141	O14	0.583000	0.688300	0.135700
O151	O15	0.769600	0.648700	0.184700
O161	O16	0.631000	0.503100	0.230300
O171	O17	0.379600	0.676200	0.230400
O181	O18	0.373500	0.517400	0.210300
O191	O19	0.848300	0.874800	0.448000
O201	O20	0.715700	0.721200	0.445200
O211	O21	0.893000	0.733800	0.386000
O221	O22	0.706100	0.801800	0.319700
O231	O23	0.613800	0.954400	0.428100
O241	O24	0.499200	0.888900	0.368800
O251	O25	0.369200	0.716000	0.717100
O261	O26	0.417000	0.811700	0.635700
O271	O27	0.230400	0.851300	0.684700
O281	O28	0.369000	0.996900	0.730300
O291	O29	0.620400	0.823800	0.730400
O301	O30	0.626500	0.982600	0.710300
O311	O31	0.151700	0.625200	0.948000
O321	O32	0.284300	0.778800	0.945200
O331	O33	0.107000	0.766200	0.886000
O341	O34	0.293900	0.698200	0.819700
O351	O35	0.386200	0.545600	0.928100
O361	O36	0.500800	0.611100	0.868800
O371	O37	0.869200	0.784000	0.782900
O381	O38	0.917000	0.688300	0.864300
O391	O39	0.730400	0.648700	0.815300
O401	O40	0.869000	0.503100	0.769700
O411	O41	0.120400	0.676200	0.769600
O421	O42	0.126500	0.517400	0.789700
O431	O43	0.651700	0.874800	0.552000
O441	O44	0.784300	0.721200	0.554800
O451	O45	0.607000	0.733800	0.614000
O461	O46	0.793900	0.801800	0.680300
O471	O47	0.886200	0.954400	0.571900
O481	O48	0.000800	0.888900	0.631200
O491	O49	0.869200	0.284000	0.717100
O501	O50	0.917000	0.188300	0.635700
O511	O51	0.730400	0.148700	0.684700
O521	O52	0.869000	0.003100	0.730300
O531	O53	0.120400	0.176200	0.730400
O541	O54	0.126500	0.017400	0.710300
O551	O55	0.651700	0.374800	0.948000
O561	O56	0.784300	0.221200	0.945200
O571	O57	0.607000	0.233800	0.886000
O581	O58	0.793900	0.301800	0.819700
O591	O59	0.886200	0.454400	0.928100
O601	O60	0.000800	0.388900	0.868800
O611	O61	0.369200	0.216000	0.782900
O621	O62	0.417000	0.311700	0.864300
O631	O63	0.230400	0.351300	0.815300
O641	O64	0.369000	0.496900	0.769700
O651	O65	0.620400	0.323800	0.769600
O661	O66	0.626500	0.482600	0.789700
O671	O67	0.151700	0.125200	0.552000
O681	O68	0.284300	0.278800	0.554800
O691	O69	0.107000	0.266200	0.614000
O701	O70	0.293900	0.198200	0.680300
O711	O71	0.386200	0.045600	0.571900
O721	O72	0.500800	0.111100	0.631200
O731	O73	0.630800	0.284000	0.282900
O741	O74	0.583000	0.188300	0.364300
O751	O75	0.769600	0.148700	0.315300
O761	O76	0.631000	0.003100	0.269700
O771	O77	0.379600	0.176200	0.269600
O781	O78	0.373500	0.017400	0.289700
O791	O79	0.848300	0.374800	0.052000
O801	O80	0.715700	0.221200	0.054800
O811	O81	0.893000	0.233800	0.114000
O821	O82	0.706100	0.301800	0.180300
O831	O83	0.613800	0.454400	0.071900
O841	O84	0.499200	0.388900	0.131200
O851	O85	0.130800	0.216000	0.217100
O861	O86	0.083000	0.311700	0.135700
O871	O87	0.269600	0.351300	0.184700
O881	O88	0.131000	0.496900	0.230300
O891	O89	0.879600	0.323800	0.230400
O901	O90	0.873500	0.482600	0.210300
O911	O91	0.348300	0.125200	0.448000
O921	O92	0.215700	0.278800	0.445200
O931	O93	0.393000	0.266200	0.386000
O941	O94	0.206100	0.198200	0.319700
O951	O95	0.113800	0.045600	0.428100
O961	O96	0.999200	0.111100	0.368800
