data_NIBHUC_clean_PM
_symmetry_space_group_name_H-M	'P1'
_cell_length_a	37.291100
_cell_length_b	37.291100
_cell_length_c	37.513200
_cell_angle_alpha	60.195700
_cell_angle_beta	60.195700
_cell_angle_gamma	60.000000
_symmetry_Int_Tables_number 1

loop_
_symmetry_equiv_pos_as_xyz
'x,y,z'

loop_
_atom_site_label
_atom_site_type_symbol
_atom_site_fract_x
_atom_site_fract_y
_atom_site_fract_z
Cu11	Cu1	0.908050	0.372690	0.275970
Cu21	Cu2	0.372690	0.443290	0.275970
Cu31	Cu3	0.443290	0.908050	0.275970
Cu41	Cu4	0.908050	0.443290	0.275970
Cu51	Cu5	0.372690	0.908050	0.275970
Cu61	Cu6	0.443290	0.372690	0.275970
Cu71	Cu7	0.908330	0.908330	0.810010
Cu81	Cu8	0.907070	0.907070	0.741170
Cu91	Cu9	0.908330	0.373330	0.810010
Cu101	Cu10	0.907070	0.444690	0.741170
Cu111	Cu11	0.373330	0.908330	0.810010
Cu121	Cu12	0.444690	0.907070	0.741170
H11	H1	0.888100	0.043600	0.768400
H21	H2	0.883200	0.118700	0.731500
H31	H3	0.879900	0.115600	0.631900
H41	H4	0.894200	0.041900	0.661300
H51	H5	0.924900	0.772100	0.889300
H61	H6	0.939900	0.696200	0.919900
H71	H7	0.939300	0.695600	0.812200
H81	H8	0.931900	0.768200	0.780400
H91	H9	0.938500	0.552200	0.065700
H101	H10	0.929700	0.518400	0.140100
H111	H11	0.037600	0.295900	0.264900
H121	H12	0.109200	0.261000	0.264900
H131	H13	0.883400	0.299500	0.411100
H141	H14	0.886500	0.258300	0.486700
H151	H15	0.779600	0.410900	0.290400
H161	H16	0.706700	0.445400	0.295500
H171	H17	0.043600	0.299900	0.768400
H181	H18	0.118700	0.266600	0.731500
H191	H19	0.115600	0.372600	0.631900
H201	H20	0.041900	0.402600	0.661300
H211	H21	0.772100	0.413700	0.889300
H221	H22	0.696200	0.444000	0.919900
H231	H23	0.695600	0.552900	0.812200
H241	H24	0.768200	0.519500	0.780400
H251	H25	0.552200	0.443600	0.065700
H261	H26	0.518400	0.411800	0.140100
H271	H27	0.295900	0.401600	0.264900
H281	H28	0.261000	0.364900	0.264900
H291	H29	0.299500	0.406000	0.411100
H301	H30	0.258300	0.368500	0.486700
H311	H31	0.410900	0.519100	0.290400
H321	H32	0.445400	0.552400	0.295500
H331	H33	0.299900	0.888100	0.768400
H341	H34	0.266600	0.883200	0.731500
H351	H35	0.372600	0.879900	0.631900
H361	H36	0.402600	0.894200	0.661300
H371	H37	0.413700	0.924900	0.889300
H381	H38	0.444000	0.939900	0.919900
H391	H39	0.552900	0.939300	0.812200
H401	H40	0.519500	0.931900	0.780400
H411	H41	0.443600	0.938500	0.065700
H421	H42	0.411800	0.929700	0.140100
H431	H43	0.401600	0.037600	0.264900
H441	H44	0.364900	0.109200	0.264900
H451	H45	0.406000	0.883400	0.411100
H461	H46	0.368500	0.886500	0.486700
H471	H47	0.519100	0.779600	0.290400
H481	H48	0.552400	0.706700	0.295500
H491	H49	0.888100	0.299900	0.768400
H501	H50	0.883200	0.266600	0.731500
H511	H51	0.879900	0.372600	0.631900
H521	H52	0.894200	0.402600	0.661300
H531	H53	0.924900	0.413700	0.889300
H541	H54	0.939900	0.444000	0.919900
H551	H55	0.939300	0.552900	0.812200
H561	H56	0.931900	0.519500	0.780400
H571	H57	0.938500	0.443600	0.065700
H581	H58	0.929700	0.411800	0.140100
H591	H59	0.037600	0.401600	0.264900
H601	H60	0.109200	0.364900	0.264900
H611	H61	0.883400	0.406000	0.411100
H621	H62	0.886500	0.368500	0.486700
H631	H63	0.779600	0.519100	0.290400
H641	H64	0.706700	0.552400	0.295500
H651	H65	0.043600	0.888100	0.768400
H661	H66	0.118700	0.883200	0.731500
H671	H67	0.115600	0.879900	0.631900
H681	H68	0.041900	0.894200	0.661300
H691	H69	0.772100	0.924900	0.889300
H701	H70	0.696200	0.939900	0.919900
H711	H71	0.695600	0.939300	0.812200
H721	H72	0.768200	0.931900	0.780400
H731	H73	0.552200	0.938500	0.065700
H741	H74	0.518400	0.929700	0.140100
H751	H75	0.295900	0.037600	0.264900
H761	H76	0.261000	0.109200	0.264900
H771	H77	0.299500	0.883400	0.411100
H781	H78	0.258300	0.886500	0.486700
H791	H79	0.410900	0.779600	0.290400
H801	H80	0.445400	0.706700	0.295500
H811	H81	0.299900	0.043600	0.768400
H821	H82	0.266600	0.118700	0.731500
H831	H83	0.372600	0.115600	0.631900
H841	H84	0.402600	0.041900	0.661300
H851	H85	0.413700	0.772100	0.889300
H861	H86	0.444000	0.696200	0.919900
H871	H87	0.552900	0.695600	0.812200
H881	H88	0.519500	0.768200	0.780400
H891	H89	0.443600	0.552200	0.065700
H901	H90	0.411800	0.518400	0.140100
H911	H91	0.401600	0.295900	0.264900
H921	H92	0.364900	0.261000	0.264900
H931	H93	0.406000	0.299500	0.411100
H941	H94	0.368500	0.258300	0.486700
H951	H95	0.519100	0.410900	0.290400
H961	H96	0.552400	0.445400	0.295500
C11	C1	0.895300	0.988100	0.744700
C21	C2	0.891100	0.033200	0.718900
C31	C3	0.887900	0.057000	0.739900
C41	C4	0.883900	0.104200	0.716800
C51	C5	0.881300	0.127900	0.676300
C61	C6	0.883400	0.102000	0.658900
C71	C7	0.890100	0.056400	0.678100
C81	C8	0.876200	0.170200	0.662200
C91	C9	0.879900	0.224600	0.600100
C101	C10	0.921400	0.827900	0.810100
C111	C11	0.930400	0.775900	0.831400
C121	C12	0.930300	0.755900	0.873700
C131	C13	0.938900	0.711000	0.891700
C141	C14	0.945400	0.689400	0.868300
C151	C15	0.939300	0.710800	0.825700
C161	C16	0.933700	0.753100	0.808300
C171	C17	0.948200	0.645500	0.891400
C181	C18	0.948200	0.581900	0.948700
C191	C19	0.937000	0.524100	0.080700
C201	C20	0.931600	0.504600	0.123900
C211	C21	0.054400	0.310100	0.261300
C221	C22	0.095900	0.290900	0.261000
C231	C23	0.884600	0.313900	0.424600
C241	C24	0.886500	0.287000	0.472000
C251	C25	0.762900	0.438800	0.292800
C261	C26	0.720500	0.460400	0.295500
C271	C27	0.988100	0.371900	0.744700
C281	C28	0.033200	0.356800	0.718900
C291	C29	0.057000	0.315200	0.739900
C301	C30	0.104200	0.295100	0.716800
C311	C31	0.127900	0.314500	0.676300
C321	C32	0.102000	0.355700	0.658900
C331	C33	0.056400	0.375400	0.678100
C341	C34	0.170200	0.291400	0.662200
C351	C35	0.224600	0.295400	0.600100
C361	C36	0.827900	0.440600	0.810100
C371	C37	0.775900	0.462300	0.831400
C381	C38	0.755900	0.440100	0.873700
C391	C39	0.711000	0.458400	0.891700
C401	C40	0.689400	0.496900	0.868300
C411	C41	0.710800	0.524200	0.825700
C421	C42	0.753100	0.504900	0.808300
C431	C43	0.645500	0.514900	0.891400
C441	C44	0.581900	0.521200	0.948700
C451	C45	0.524100	0.458200	0.080700
C461	C46	0.504600	0.439900	0.123900
C471	C47	0.310100	0.374200	0.261300
C481	C48	0.290900	0.352200	0.261000
C491	C49	0.313900	0.376900	0.424600
C501	C50	0.287000	0.354500	0.472000
C511	C51	0.438800	0.505500	0.292800
C521	C52	0.460400	0.523600	0.295500
C531	C53	0.371900	0.895300	0.744700
C541	C54	0.356800	0.891100	0.718900
C551	C55	0.315200	0.887900	0.739900
C561	C56	0.295100	0.883900	0.716800
C571	C57	0.314500	0.881300	0.676300
C581	C58	0.355700	0.883400	0.658900
C591	C59	0.375400	0.890100	0.678100
C601	C60	0.291400	0.876200	0.662200
C611	C61	0.295400	0.879900	0.600100
C621	C62	0.440600	0.921400	0.810100
C631	C63	0.462300	0.930400	0.831400
C641	C64	0.440100	0.930300	0.873700
C651	C65	0.458400	0.938900	0.891700
C661	C66	0.496900	0.945400	0.868300
C671	C67	0.524200	0.939300	0.825700
C681	C68	0.504900	0.933700	0.808300
C691	C69	0.514900	0.948200	0.891400
C701	C70	0.521200	0.948200	0.948700
C711	C71	0.458200	0.937000	0.080700
C721	C72	0.439900	0.931600	0.123900
C731	C73	0.374200	0.054400	0.261300
C741	C74	0.352200	0.095900	0.261000
C751	C75	0.376900	0.884600	0.424600
C761	C76	0.354500	0.886500	0.472000
C771	C77	0.505500	0.762900	0.292800
C781	C78	0.523600	0.720500	0.295500
C791	C79	0.895300	0.371900	0.744700
C801	C80	0.891100	0.356800	0.718900
C811	C81	0.887900	0.315200	0.739900
C821	C82	0.883900	0.295100	0.716800
C831	C83	0.881300	0.314500	0.676300
C841	C84	0.883400	0.355700	0.658900
C851	C85	0.890100	0.375400	0.678100
C861	C86	0.876200	0.291400	0.662200
C871	C87	0.879900	0.295400	0.600100
C881	C88	0.921400	0.440600	0.810100
C891	C89	0.930400	0.462300	0.831400
C901	C90	0.930300	0.440100	0.873700
C911	C91	0.938900	0.458400	0.891700
C921	C92	0.945400	0.496900	0.868300
C931	C93	0.939300	0.524200	0.825700
C941	C94	0.933700	0.504900	0.808300
C951	C95	0.948200	0.514900	0.891400
C961	C96	0.948200	0.521200	0.948700
C971	C97	0.937000	0.458200	0.080700
C981	C98	0.931600	0.439900	0.123900
C991	C99	0.054400	0.374200	0.261300
C1001	C100	0.095900	0.352200	0.261000
C1011	C101	0.884600	0.376900	0.424600
C1021	C102	0.886500	0.354500	0.472000
C1031	C103	0.762900	0.505500	0.292800
C1041	C104	0.720500	0.523600	0.295500
C1051	C105	0.988100	0.895300	0.744700
C1061	C106	0.033200	0.891100	0.718900
C1071	C107	0.057000	0.887900	0.739900
C1081	C108	0.104200	0.883900	0.716800
C1091	C109	0.127900	0.881300	0.676300
C1101	C110	0.102000	0.883400	0.658900
C1111	C111	0.056400	0.890100	0.678100
C1121	C112	0.170200	0.876200	0.662200
C1131	C113	0.224600	0.879900	0.600100
C1141	C114	0.827900	0.921400	0.810100
C1151	C115	0.775900	0.930400	0.831400
C1161	C116	0.755900	0.930300	0.873700
C1171	C117	0.711000	0.938900	0.891700
C1181	C118	0.689400	0.945400	0.868300
C1191	C119	0.710800	0.939300	0.825700
C1201	C120	0.753100	0.933700	0.808300
C1211	C121	0.645500	0.948200	0.891400
C1221	C122	0.581900	0.948200	0.948700
C1231	C123	0.524100	0.937000	0.080700
C1241	C124	0.504600	0.931600	0.123900
C1251	C125	0.310100	0.054400	0.261300
C1261	C126	0.290900	0.095900	0.261000
C1271	C127	0.313900	0.884600	0.424600
C1281	C128	0.287000	0.886500	0.472000
C1291	C129	0.438800	0.762900	0.292800
C1301	C130	0.460400	0.720500	0.295500
C1311	C131	0.371900	0.988100	0.744700
C1321	C132	0.356800	0.033200	0.718900
C1331	C133	0.315200	0.057000	0.739900
C1341	C134	0.295100	0.104200	0.716800
C1351	C135	0.314500	0.127900	0.676300
C1361	C136	0.355700	0.102000	0.658900
C1371	C137	0.375400	0.056400	0.678100
C1381	C138	0.291400	0.170200	0.662200
C1391	C139	0.295400	0.224600	0.600100
C1401	C140	0.440600	0.827900	0.810100
C1411	C141	0.462300	0.775900	0.831400
C1421	C142	0.440100	0.755900	0.873700
C1431	C143	0.458400	0.711000	0.891700
C1441	C144	0.496900	0.689400	0.868300
C1451	C145	0.524200	0.710800	0.825700
C1461	C146	0.504900	0.753100	0.808300
C1471	C147	0.514900	0.645500	0.891400
C1481	C148	0.521200	0.581900	0.948700
C1491	C149	0.458200	0.524100	0.080700
C1501	C150	0.439900	0.504600	0.123900
C1511	C151	0.374200	0.310100	0.261300
C1521	C152	0.352200	0.290900	0.261000
C1531	C153	0.376900	0.313900	0.424600
C1541	C154	0.354500	0.287000	0.472000
C1551	C155	0.505500	0.438800	0.292800
C1561	C156	0.523600	0.460400	0.295500
C1571	C157	0.878400	0.231950	0.657700
C1581	C158	0.908000	0.374200	0.343600
C1591	C159	0.884300	0.357700	0.400300
C1601	C160	0.888100	0.311250	0.489400
C1611	C161	0.879700	0.294450	0.531400
C1621	C162	0.231950	0.231950	0.657700
C1631	C163	0.374200	0.374200	0.343600
C1641	C164	0.357700	0.357700	0.400300
C1651	C165	0.311250	0.311250	0.489400
C1661	C166	0.294450	0.294450	0.531400
C1671	C167	0.231950	0.878400	0.657700
C1681	C168	0.374200	0.908000	0.343600
C1691	C169	0.357700	0.884300	0.400300
C1701	C170	0.311250	0.888100	0.489400
C1711	C171	0.294450	0.879700	0.531400
C1721	C172	0.952000	0.579650	0.888700
C1731	C173	0.948600	0.520900	0.009600
C1741	C174	0.940000	0.499850	0.060300
C1751	C175	0.929100	0.464650	0.141600
C1761	C176	0.926600	0.439800	0.193800
C1771	C177	0.995100	0.372100	0.260700
C1781	C178	0.040700	0.351700	0.255900
C1791	C179	0.119900	0.312400	0.255300
C1801	C180	0.171700	0.287700	0.252900
C1811	C181	0.821800	0.444800	0.288600
C1821	C182	0.776800	0.464300	0.294600
C1831	C183	0.693400	0.503900	0.298800
C1841	C184	0.652400	0.521400	0.304800
C1851	C185	0.579650	0.579650	0.888700
C1861	C186	0.520900	0.520900	0.009600
C1871	C187	0.499850	0.499850	0.060300
C1881	C188	0.464650	0.464650	0.141600
C1891	C189	0.439800	0.439800	0.193800
C1901	C190	0.372100	0.372100	0.260700
C1911	C191	0.351700	0.351700	0.255900
C1921	C192	0.312400	0.312400	0.255300
C1931	C193	0.287700	0.287700	0.252900
C1941	C194	0.444800	0.444800	0.288600
C1951	C195	0.464300	0.464300	0.294600
C1961	C196	0.503900	0.503900	0.298800
C1971	C197	0.521400	0.521400	0.304800
C1981	C198	0.579650	0.952000	0.888700
C1991	C199	0.520900	0.948600	0.009600
C2001	C200	0.499850	0.940000	0.060300
C2011	C201	0.464650	0.929100	0.141600
C2021	C202	0.439800	0.926600	0.193800
C2031	C203	0.372100	0.995100	0.260700
C2041	C204	0.351700	0.040700	0.255900
C2051	C205	0.312400	0.119900	0.255300
C2061	C206	0.287700	0.171700	0.252900
C2071	C207	0.444800	0.821800	0.288600
C2081	C208	0.464300	0.776800	0.294600
C2091	C209	0.503900	0.693400	0.298800
C2101	C210	0.521400	0.652400	0.304800
C2111	C211	0.228250	0.228250	0.252300
C2121	C212	0.228250	0.291200	0.252300
C2131	C213	0.291200	0.228250	0.252300
C2141	C214	0.587500	0.521100	0.303900
C2151	C215	0.521100	0.587500	0.303900
C2161	C216	0.587500	0.587500	0.303900
N11	N1	0.876800	0.191500	0.680200
N21	N2	0.875000	0.185000	0.622000
N31	N3	0.947300	0.621800	0.934000
N41	N4	0.949300	0.621800	0.869800
N51	N5	0.948300	0.561700	0.991300
N61	N6	0.189100	0.246500	0.252300
N71	N7	0.877900	0.252400	0.553900
N81	N8	0.630400	0.506700	0.302400
N91	N9	0.191500	0.251500	0.680200
N101	N10	0.185000	0.318000	0.622000
N111	N11	0.621800	0.496900	0.934000
N121	N12	0.621800	0.559100	0.869800
N131	N13	0.561700	0.498700	0.991300
N141	N14	0.246500	0.312100	0.252300
N151	N15	0.252400	0.315800	0.553900
N161	N16	0.506700	0.560500	0.302400
N171	N17	0.251500	0.876800	0.680200
N181	N18	0.318000	0.875000	0.622000
N191	N19	0.496900	0.947300	0.934000
N201	N20	0.559100	0.949300	0.869800
N211	N21	0.498700	0.948300	0.991300
N221	N22	0.312100	0.189100	0.252300
N231	N23	0.315800	0.877900	0.553900
N241	N24	0.560500	0.630400	0.302400
N251	N25	0.876800	0.251500	0.680200
N261	N26	0.875000	0.318000	0.622000
N271	N27	0.947300	0.496900	0.934000
N281	N28	0.949300	0.559100	0.869800
N291	N29	0.948300	0.498700	0.991300
N301	N30	0.189100	0.312100	0.252300
N311	N31	0.877900	0.315800	0.553900
N321	N32	0.630400	0.560500	0.302400
N331	N33	0.191500	0.876800	0.680200
N341	N34	0.185000	0.875000	0.622000
N351	N35	0.621800	0.947300	0.934000
N361	N36	0.621800	0.949300	0.869800
N371	N37	0.561700	0.948300	0.991300
N381	N38	0.246500	0.189100	0.252300
N391	N39	0.252400	0.877900	0.553900
N401	N40	0.506700	0.630400	0.302400
N411	N41	0.251500	0.191500	0.680200
N421	N42	0.318000	0.185000	0.622000
N431	N43	0.496900	0.621800	0.934000
N441	N44	0.559100	0.621800	0.869800
N451	N45	0.498700	0.561700	0.991300
N461	N46	0.312100	0.246500	0.252300
N471	N47	0.315800	0.252400	0.553900
N481	N48	0.560500	0.506700	0.302400
N491	N49	0.880700	0.252100	0.615100
N501	N50	0.252100	0.252100	0.615100
N511	N51	0.252100	0.880700	0.615100
N521	N52	0.948300	0.559750	0.932200
N531	N53	0.559750	0.559750	0.932200
N541	N54	0.559750	0.948300	0.932200
N551	N55	0.249130	0.249130	0.252610
N561	N56	0.564970	0.564970	0.305090
O11	O1	0.897100	0.970900	0.779800
O21	O2	0.897040	0.970940	0.718480
O31	O3	0.918000	0.845000	0.774100
O41	O4	0.919300	0.845600	0.832300
O51	O5	0.920800	0.404100	0.212400
O61	O6	0.965200	0.353000	0.266400
O71	O7	0.892000	0.352300	0.340600
O81	O8	0.846700	0.406100	0.283800
O91	O9	0.970900	0.352200	0.779800
O101	O10	0.970940	0.413540	0.718480
O111	O11	0.845000	0.462900	0.774100
O121	O12	0.845600	0.402800	0.832300
O131	O13	0.404100	0.462700	0.212400
O141	O14	0.353000	0.415400	0.266400
O151	O15	0.352300	0.415100	0.340600
O161	O16	0.406100	0.463400	0.283800
O171	O17	0.352200	0.897100	0.779800
O181	O18	0.413540	0.897040	0.718480
O191	O19	0.462900	0.918000	0.774100
O201	O20	0.402800	0.919300	0.832300
O211	O21	0.462700	0.920800	0.212400
O221	O22	0.415400	0.965200	0.266400
O231	O23	0.415100	0.892000	0.340600
O241	O24	0.463400	0.846700	0.283800
O251	O25	0.897100	0.352200	0.779800
O261	O26	0.897040	0.413540	0.718480
O271	O27	0.918000	0.462900	0.774100
O281	O28	0.919300	0.402800	0.832300
O291	O29	0.920800	0.462700	0.212400
O301	O30	0.965200	0.415400	0.266400
O311	O31	0.892000	0.415100	0.340600
O321	O32	0.846700	0.463400	0.283800
O331	O33	0.970900	0.897100	0.779800
O341	O34	0.970940	0.897040	0.718480
O351	O35	0.845000	0.918000	0.774100
O361	O36	0.845600	0.919300	0.832300
O371	O37	0.404100	0.920800	0.212400
O381	O38	0.353000	0.965200	0.266400
O391	O39	0.352300	0.892000	0.340600
O401	O40	0.406100	0.846700	0.283800
O411	O41	0.352200	0.970900	0.779800
O421	O42	0.413540	0.970940	0.718480
O431	O43	0.462900	0.845000	0.774100
O441	O44	0.402800	0.845600	0.832300
O451	O45	0.462700	0.404100	0.212400
O461	O46	0.415400	0.353000	0.266400
O471	O47	0.415100	0.352300	0.340600
O481	O48	0.463400	0.406100	0.283800
Cu131	Cu13	0.091950	0.556710	0.724030
Cu141	Cu14	0.627310	0.091950	0.724030
Cu151	Cu15	0.556710	0.627310	0.724030
Cu161	Cu16	0.091950	0.627310	0.724030
Cu171	Cu17	0.627310	0.556710	0.724030
Cu181	Cu18	0.556710	0.091950	0.724030
Cu191	Cu19	0.091670	0.626670	0.189990
Cu201	Cu20	0.092920	0.555310	0.258850
Cu211	Cu21	0.091670	0.091670	0.189990
Cu221	Cu22	0.092920	0.092920	0.258850
Cu231	Cu23	0.626670	0.091670	0.189990
Cu241	Cu24	0.555310	0.092920	0.258850
H971	H97	0.111900	0.700100	0.231600
H981	H98	0.116800	0.733400	0.268500
H991	H99	0.120100	0.627400	0.368100
H1001	H100	0.105800	0.597400	0.338700
H1011	H101	0.075100	0.586300	0.110700
H1021	H102	0.060100	0.556000	0.080100
H1031	H103	0.060700	0.447100	0.187800
H1041	H104	0.068100	0.480500	0.219600
H1051	H105	0.061500	0.556400	0.934300
H1061	H106	0.070300	0.588200	0.859900
H1071	H107	0.962400	0.598400	0.735100
H1081	H108	0.890800	0.635100	0.735100
H1091	H109	0.116600	0.594000	0.588900
H1101	H110	0.113500	0.631500	0.513300
H1111	H111	0.220400	0.480900	0.709600
H1121	H112	0.293300	0.447600	0.704500
H1131	H113	0.956400	0.111900	0.231600
H1141	H114	0.881300	0.116800	0.268500
H1151	H115	0.884400	0.120100	0.368100
H1161	H116	0.958100	0.105800	0.338700
H1171	H117	0.227900	0.075100	0.110700
H1181	H118	0.303800	0.060100	0.080100
H1191	H119	0.304400	0.060700	0.187800
H1201	H120	0.231800	0.068100	0.219600
H1211	H121	0.447800	0.061500	0.934300
H1221	H122	0.481600	0.070300	0.859900
H1231	H123	0.704100	0.962400	0.735100
H1241	H124	0.739000	0.890800	0.735100
H1251	H125	0.700500	0.116600	0.588900
H1261	H126	0.741700	0.113500	0.513300
H1271	H127	0.589100	0.220400	0.709600
H1281	H128	0.554600	0.293300	0.704500
H1291	H129	0.700100	0.956400	0.231600
H1301	H130	0.733400	0.881300	0.268500
H1311	H131	0.627400	0.884400	0.368100
H1321	H132	0.597400	0.958100	0.338700
H1331	H133	0.586300	0.227900	0.110700
H1341	H134	0.556000	0.303800	0.080100
H1351	H135	0.447100	0.304400	0.187800
H1361	H136	0.480500	0.231800	0.219600
H1371	H137	0.556400	0.447800	0.934300
H1381	H138	0.588200	0.481600	0.859900
H1391	H139	0.598400	0.704100	0.735100
H1401	H140	0.635100	0.739000	0.735100
H1411	H141	0.594000	0.700500	0.588900
H1421	H142	0.631500	0.741700	0.513300
H1431	H143	0.480900	0.589100	0.709600
H1441	H144	0.447600	0.554600	0.704500
H1451	H145	0.111900	0.956400	0.231600
H1461	H146	0.116800	0.881300	0.268500
H1471	H147	0.120100	0.884400	0.368100
H1481	H148	0.105800	0.958100	0.338700
H1491	H149	0.075100	0.227900	0.110700
H1501	H150	0.060100	0.303800	0.080100
H1511	H151	0.060700	0.304400	0.187800
H1521	H152	0.068100	0.231800	0.219600
H1531	H153	0.061500	0.447800	0.934300
H1541	H154	0.070300	0.481600	0.859900
H1551	H155	0.962400	0.704100	0.735100
H1561	H156	0.890800	0.739000	0.735100
H1571	H157	0.116600	0.700500	0.588900
H1581	H158	0.113500	0.741700	0.513300
H1591	H159	0.220400	0.589100	0.709600
H1601	H160	0.293300	0.554600	0.704500
H1611	H161	0.956400	0.700100	0.231600
H1621	H162	0.881300	0.733400	0.268500
H1631	H163	0.884400	0.627400	0.368100
H1641	H164	0.958100	0.597400	0.338700
H1651	H165	0.227900	0.586300	0.110700
H1661	H166	0.303800	0.556000	0.080100
H1671	H167	0.304400	0.447100	0.187800
H1681	H168	0.231800	0.480500	0.219600
H1691	H169	0.447800	0.556400	0.934300
H1701	H170	0.481600	0.588200	0.859900
H1711	H171	0.704100	0.598400	0.735100
H1721	H172	0.739000	0.635100	0.735100
H1731	H173	0.700500	0.594000	0.588900
H1741	H174	0.741700	0.631500	0.513300
H1751	H175	0.589100	0.480900	0.709600
H1761	H176	0.554600	0.447600	0.704500
H1771	H177	0.700100	0.111900	0.231600
H1781	H178	0.733400	0.116800	0.268500
H1791	H179	0.627400	0.120100	0.368100
H1801	H180	0.597400	0.105800	0.338700
H1811	H181	0.586300	0.075100	0.110700
H1821	H182	0.556000	0.060100	0.080100
H1831	H183	0.447100	0.060700	0.187800
H1841	H184	0.480500	0.068100	0.219600
H1851	H185	0.556400	0.061500	0.934300
H1861	H186	0.588200	0.070300	0.859900
H1871	H187	0.598400	0.962400	0.735100
H1881	H188	0.635100	0.890800	0.735100
H1891	H189	0.594000	0.116600	0.588900
H1901	H190	0.631500	0.113500	0.513300
H1911	H191	0.480900	0.220400	0.709600
H1921	H192	0.447600	0.293300	0.704500
C2171	C217	0.104700	0.628100	0.255300
C2181	C218	0.108900	0.643200	0.281100
C2191	C219	0.112100	0.684800	0.260100
C2201	C220	0.116100	0.704900	0.283200
C2211	C221	0.118700	0.685500	0.323700
C2221	C222	0.116600	0.644300	0.341100
C2231	C223	0.109900	0.624600	0.321900
C2241	C224	0.123800	0.708600	0.337800
C2251	C225	0.120100	0.704600	0.399900
C2261	C226	0.078600	0.559400	0.189900
C2271	C227	0.069600	0.537700	0.168600
C2281	C228	0.069700	0.559900	0.126300
C2291	C229	0.061100	0.541600	0.108300
C2301	C230	0.054600	0.503100	0.131700
C2311	C231	0.060700	0.475800	0.174300
C2321	C232	0.066300	0.495100	0.191700
C2331	C233	0.051800	0.485100	0.108600
C2341	C234	0.051800	0.478800	0.051300
C2351	C235	0.063000	0.541800	0.919300
C2361	C236	0.068400	0.560100	0.876100
C2371	C237	0.945600	0.625800	0.738700
C2381	C238	0.904100	0.647800	0.739000
C2391	C239	0.115400	0.623100	0.575400
C2401	C240	0.113500	0.645500	0.528000
C2411	C241	0.237100	0.494500	0.707200
C2421	C242	0.279500	0.476400	0.704500
C2431	C243	0.011900	0.104700	0.255300
C2441	C244	0.966800	0.108900	0.281100
C2451	C245	0.943000	0.112100	0.260100
C2461	C246	0.895800	0.116100	0.283200
C2471	C247	0.872100	0.118700	0.323700
C2481	C248	0.898000	0.116600	0.341100
C2491	C249	0.943600	0.109900	0.321900
C2501	C250	0.829800	0.123800	0.337800
C2511	C251	0.775400	0.120100	0.399900
C2521	C252	0.172100	0.078600	0.189900
C2531	C253	0.224100	0.069600	0.168600
C2541	C254	0.244100	0.069700	0.126300
C2551	C255	0.289000	0.061100	0.108300
C2561	C256	0.310600	0.054600	0.131700
C2571	C257	0.289200	0.060700	0.174300
C2581	C258	0.246900	0.066300	0.191700
C2591	C259	0.354500	0.051800	0.108600
C2601	C260	0.418100	0.051800	0.051300
C2611	C261	0.475900	0.063000	0.919300
C2621	C262	0.495400	0.068400	0.876100
C2631	C263	0.689900	0.945600	0.738700
C2641	C264	0.709100	0.904100	0.739000
C2651	C265	0.686100	0.115400	0.575400
C2661	C266	0.713000	0.113500	0.528000
C2671	C267	0.561200	0.237100	0.707200
C2681	C268	0.539600	0.279500	0.704500
C2691	C269	0.628100	0.011900	0.255300
C2701	C270	0.643200	0.966800	0.281100
C2711	C271	0.684800	0.943000	0.260100
C2721	C272	0.704900	0.895800	0.283200
C2731	C273	0.685500	0.872100	0.323700
C2741	C274	0.644300	0.898000	0.341100
C2751	C275	0.624600	0.943600	0.321900
C2761	C276	0.708600	0.829800	0.337800
C2771	C277	0.704600	0.775400	0.399900
C2781	C278	0.559400	0.172100	0.189900
C2791	C279	0.537700	0.224100	0.168600
C2801	C280	0.559900	0.244100	0.126300
C2811	C281	0.541600	0.289000	0.108300
C2821	C282	0.503100	0.310600	0.131700
C2831	C283	0.475800	0.289200	0.174300
C2841	C284	0.495100	0.246900	0.191700
C2851	C285	0.485100	0.354500	0.108600
C2861	C286	0.478800	0.418100	0.051300
C2871	C287	0.541800	0.475900	0.919300
C2881	C288	0.560100	0.495400	0.876100
C2891	C289	0.625800	0.689900	0.738700
C2901	C290	0.647800	0.709100	0.739000
C2911	C291	0.623100	0.686100	0.575400
C2921	C292	0.645500	0.713000	0.528000
C2931	C293	0.494500	0.561200	0.707200
C2941	C294	0.476400	0.539600	0.704500
C2951	C295	0.104700	0.011900	0.255300
C2961	C296	0.108900	0.966800	0.281100
C2971	C297	0.112100	0.943000	0.260100
C2981	C298	0.116100	0.895800	0.283200
C2991	C299	0.118700	0.872100	0.323700
C3001	C300	0.116600	0.898000	0.341100
C3011	C301	0.109900	0.943600	0.321900
C3021	C302	0.123800	0.829800	0.337800
C3031	C303	0.120100	0.775400	0.399900
C3041	C304	0.078600	0.172100	0.189900
C3051	C305	0.069600	0.224100	0.168600
C3061	C306	0.069700	0.244100	0.126300
C3071	C307	0.061100	0.289000	0.108300
C3081	C308	0.054600	0.310600	0.131700
C3091	C309	0.060700	0.289200	0.174300
C3101	C310	0.066300	0.246900	0.191700
C3111	C311	0.051800	0.354500	0.108600
C3121	C312	0.051800	0.418100	0.051300
C3131	C313	0.063000	0.475900	0.919300
C3141	C314	0.068400	0.495400	0.876100
C3151	C315	0.945600	0.689900	0.738700
C3161	C316	0.904100	0.709100	0.739000
C3171	C317	0.115400	0.686100	0.575400
C3181	C318	0.113500	0.713000	0.528000
C3191	C319	0.237100	0.561200	0.707200
C3201	C320	0.279500	0.539600	0.704500
C3211	C321	0.011900	0.628100	0.255300
C3221	C322	0.966800	0.643200	0.281100
C3231	C323	0.943000	0.684800	0.260100
C3241	C324	0.895800	0.704900	0.283200
C3251	C325	0.872100	0.685500	0.323700
C3261	C326	0.898000	0.644300	0.341100
C3271	C327	0.943600	0.624600	0.321900
C3281	C328	0.829800	0.708600	0.337800
C3291	C329	0.775400	0.704600	0.399900
C3301	C330	0.172100	0.559400	0.189900
C3311	C331	0.224100	0.537700	0.168600
C3321	C332	0.244100	0.559900	0.126300
C3331	C333	0.289000	0.541600	0.108300
C3341	C334	0.310600	0.503100	0.131700
C3351	C335	0.289200	0.475800	0.174300
C3361	C336	0.246900	0.495100	0.191700
C3371	C337	0.354500	0.485100	0.108600
C3381	C338	0.418100	0.478800	0.051300
C3391	C339	0.475900	0.541800	0.919300
C3401	C340	0.495400	0.560100	0.876100
C3411	C341	0.689900	0.625800	0.738700
C3421	C342	0.709100	0.647800	0.739000
C3431	C343	0.686100	0.623100	0.575400
C3441	C344	0.713000	0.645500	0.528000
C3451	C345	0.561200	0.494500	0.707200
C3461	C346	0.539600	0.476400	0.704500
C3471	C347	0.628100	0.104700	0.255300
C3481	C348	0.643200	0.108900	0.281100
C3491	C349	0.684800	0.112100	0.260100
C3501	C350	0.704900	0.116100	0.283200
C3511	C351	0.685500	0.118700	0.323700
C3521	C352	0.644300	0.116600	0.341100
C3531	C353	0.624600	0.109900	0.321900
C3541	C354	0.708600	0.123800	0.337800
C3551	C355	0.704600	0.120100	0.399900
C3561	C356	0.559400	0.078600	0.189900
C3571	C357	0.537700	0.069600	0.168600
C3581	C358	0.559900	0.069700	0.126300
C3591	C359	0.541600	0.061100	0.108300
C3601	C360	0.503100	0.054600	0.131700
C3611	C361	0.475800	0.060700	0.174300
C3621	C362	0.495100	0.066300	0.191700
C3631	C363	0.485100	0.051800	0.108600
C3641	C364	0.478800	0.051800	0.051300
C3651	C365	0.541800	0.063000	0.919300
C3661	C366	0.560100	0.068400	0.876100
C3671	C367	0.625800	0.945600	0.738700
C3681	C368	0.647800	0.904100	0.739000
C3691	C369	0.623100	0.115400	0.575400
C3701	C370	0.645500	0.113500	0.528000
C3711	C371	0.494500	0.237100	0.707200
C3721	C372	0.476400	0.279500	0.704500
C3731	C373	0.121600	0.768050	0.342300
C3741	C374	0.092000	0.625800	0.656400
C3751	C375	0.115700	0.642300	0.599700
C3761	C376	0.111900	0.688750	0.510600
C3771	C377	0.120300	0.705550	0.468600
C3781	C378	0.768050	0.121600	0.342300
C3791	C379	0.625800	0.092000	0.656400
C3801	C380	0.642300	0.115700	0.599700
C3811	C381	0.688750	0.111900	0.510600
C3821	C382	0.705550	0.120300	0.468600
C3831	C383	0.768050	0.768050	0.342300
C3841	C384	0.625800	0.625800	0.656400
C3851	C385	0.642300	0.642300	0.599700
C3861	C386	0.688750	0.688750	0.510600
C3871	C387	0.705550	0.705550	0.468600
C3881	C388	0.048000	0.420350	0.111300
C3891	C389	0.051400	0.479100	0.990400
C3901	C390	0.060000	0.500150	0.939700
C3911	C391	0.070900	0.535350	0.858400
C3921	C392	0.073400	0.560200	0.806200
C3931	C393	0.004900	0.627900	0.739300
C3941	C394	0.959300	0.648300	0.744100
C3951	C395	0.880100	0.687600	0.744700
C3961	C396	0.828300	0.712300	0.747100
C3971	C397	0.178200	0.555200	0.711400
C3981	C398	0.223200	0.535700	0.705400
C3991	C399	0.306600	0.496100	0.701200
C4001	C400	0.347600	0.478600	0.695200
C4011	C401	0.420350	0.048000	0.111300
C4021	C402	0.479100	0.051400	0.990400
C4031	C403	0.500150	0.060000	0.939700
C4041	C404	0.535350	0.070900	0.858400
C4051	C405	0.560200	0.073400	0.806200
C4061	C406	0.627900	0.004900	0.739300
C4071	C407	0.648300	0.959300	0.744100
C4081	C408	0.687600	0.880100	0.744700
C4091	C409	0.712300	0.828300	0.747100
C4101	C410	0.555200	0.178200	0.711400
C4111	C411	0.535700	0.223200	0.705400
C4121	C412	0.496100	0.306600	0.701200
C4131	C413	0.478600	0.347600	0.695200
C4141	C414	0.420350	0.420350	0.111300
C4151	C415	0.479100	0.479100	0.990400
C4161	C416	0.500150	0.500150	0.939700
C4171	C417	0.535350	0.535350	0.858400
C4181	C418	0.560200	0.560200	0.806200
C4191	C419	0.627900	0.627900	0.739300
C4201	C420	0.648300	0.648300	0.744100
C4211	C421	0.687600	0.687600	0.744700
C4221	C422	0.712300	0.712300	0.747100
C4231	C423	0.555200	0.555200	0.711400
C4241	C424	0.535700	0.535700	0.705400
C4251	C425	0.496100	0.496100	0.701200
C4261	C426	0.478600	0.478600	0.695200
C4271	C427	0.771750	0.708800	0.747700
C4281	C428	0.771750	0.771750	0.747700
C4291	C429	0.708800	0.771750	0.747700
C4301	C430	0.412500	0.412500	0.696100
C4311	C431	0.478900	0.412500	0.696100
C4321	C432	0.412500	0.478900	0.696100
N571	N57	0.123200	0.748500	0.319800
N581	N58	0.125000	0.682000	0.378000
N591	N59	0.052700	0.503100	0.066000
N601	N60	0.050700	0.440900	0.130200
N611	N61	0.051700	0.501300	0.008700
N621	N62	0.810900	0.687900	0.747700
N631	N63	0.122100	0.684200	0.446100
N641	N64	0.369600	0.439500	0.697600
N651	N65	0.808500	0.123200	0.319800
N661	N66	0.815000	0.125000	0.378000
N671	N67	0.378200	0.052700	0.066000
N681	N68	0.378200	0.050700	0.130200
N691	N69	0.438300	0.051700	0.008700
N701	N70	0.753500	0.810900	0.747700
N711	N71	0.747600	0.122100	0.446100
N721	N72	0.493300	0.369600	0.697600
N731	N73	0.748500	0.808500	0.319800
N741	N74	0.682000	0.815000	0.378000
N751	N75	0.503100	0.378200	0.066000
N761	N76	0.440900	0.378200	0.130200
N771	N77	0.501300	0.438300	0.008700
N781	N78	0.687900	0.753500	0.747700
N791	N79	0.684200	0.747600	0.446100
N801	N80	0.439500	0.493300	0.697600
N811	N81	0.123200	0.808500	0.319800
N821	N82	0.125000	0.815000	0.378000
N831	N83	0.052700	0.378200	0.066000
N841	N84	0.050700	0.378200	0.130200
N851	N85	0.051700	0.438300	0.008700
N861	N86	0.810900	0.753500	0.747700
N871	N87	0.122100	0.747600	0.446100
N881	N88	0.369600	0.493300	0.697600
N891	N89	0.808500	0.748500	0.319800
N901	N90	0.815000	0.682000	0.378000
N911	N91	0.378200	0.503100	0.066000
N921	N92	0.378200	0.440900	0.130200
N931	N93	0.438300	0.501300	0.008700
N941	N94	0.753500	0.687900	0.747700
N951	N95	0.747600	0.684200	0.446100
N961	N96	0.493300	0.439500	0.697600
N971	N97	0.748500	0.123200	0.319800
N981	N98	0.682000	0.125000	0.378000
N991	N99	0.503100	0.052700	0.066000
N1001	N100	0.440900	0.050700	0.130200
N1011	N101	0.501300	0.051700	0.008700
N1021	N102	0.687900	0.810900	0.747700
N1031	N103	0.684200	0.122100	0.446100
N1041	N104	0.439500	0.369600	0.697600
N1051	N105	0.119300	0.747900	0.384900
N1061	N106	0.747900	0.119300	0.384900
N1071	N107	0.747900	0.747900	0.384900
N1081	N108	0.051700	0.440250	0.067800
N1091	N109	0.440250	0.051700	0.067800
N1101	N110	0.440250	0.440250	0.067800
N1111	N111	0.750870	0.750870	0.747390
N1121	N112	0.435030	0.435030	0.694910
O491	O49	0.102900	0.647800	0.220200
O501	O50	0.102960	0.586460	0.281520
O511	O51	0.082000	0.537100	0.225900
O521	O52	0.080700	0.597200	0.167700
O531	O53	0.079200	0.537300	0.787600
O541	O54	0.034800	0.584600	0.733600
O551	O55	0.108000	0.584900	0.659400
O561	O56	0.153300	0.536600	0.716200
O571	O57	0.029100	0.102900	0.220200
O581	O58	0.029060	0.102960	0.281520
O591	O59	0.155000	0.082000	0.225900
O601	O60	0.154400	0.080700	0.167700
O611	O61	0.595900	0.079200	0.787600
O621	O62	0.647000	0.034800	0.733600
O631	O63	0.647700	0.108000	0.659400
O641	O64	0.593900	0.153300	0.716200
O651	O65	0.647800	0.029100	0.220200
O661	O66	0.586460	0.029060	0.281520
O671	O67	0.537100	0.155000	0.225900
O681	O68	0.597200	0.154400	0.167700
O691	O69	0.537300	0.595900	0.787600
O701	O70	0.584600	0.647000	0.733600
O711	O71	0.584900	0.647700	0.659400
O721	O72	0.536600	0.593900	0.716200
O731	O73	0.102900	0.029100	0.220200
O741	O74	0.102960	0.029060	0.281520
O751	O75	0.082000	0.155000	0.225900
O761	O76	0.080700	0.154400	0.167700
O771	O77	0.079200	0.595900	0.787600
O781	O78	0.034800	0.647000	0.733600
O791	O79	0.108000	0.647700	0.659400
O801	O80	0.153300	0.593900	0.716200
O811	O81	0.029100	0.647800	0.220200
O821	O82	0.029060	0.586460	0.281520
O831	O83	0.155000	0.537100	0.225900
O841	O84	0.154400	0.597200	0.167700
O851	O85	0.595900	0.537300	0.787600
O861	O86	0.647000	0.584600	0.733600
O871	O87	0.647700	0.584900	0.659400
O881	O88	0.593900	0.536600	0.716200
O891	O89	0.647800	0.102900	0.220200
O901	O90	0.586460	0.102960	0.281520
O911	O91	0.537100	0.082000	0.225900
O921	O92	0.597200	0.080700	0.167700
O931	O93	0.537300	0.079200	0.787600
O941	O94	0.584600	0.034800	0.733600
O951	O95	0.584900	0.108000	0.659400
O961	O96	0.536600	0.153300	0.716200
