data_NIBHOW_clean_PM
_symmetry_space_group_name_H-M	'P1'
_cell_length_a	32.976600
_cell_length_b	32.976600
_cell_length_c	32.976600
_cell_angle_alpha	60.000000
_cell_angle_beta	60.000000
_cell_angle_gamma	60.000000
_symmetry_Int_Tables_number 1

loop_
_symmetry_equiv_pos_as_xyz
'x,y,z'

loop_
_atom_site_label
_atom_site_type_symbol
_atom_site_fract_x
_atom_site_fract_y
_atom_site_fract_z
Cu11	Cu1	0.959730	0.500000	0.040270
Cu21	Cu2	0.500000	0.959730	0.500000
Cu31	Cu3	0.040270	0.500000	0.959730
Cu41	Cu4	0.500000	0.040270	0.500000
Cu51	Cu5	0.959730	0.040270	0.500000
Cu61	Cu6	0.500000	0.500000	0.040270
Cu71	Cu7	0.040270	0.959730	0.500000
Cu81	Cu8	0.500000	0.500000	0.959730
Cu91	Cu9	0.959730	0.500000	0.500000
Cu101	Cu10	0.500000	0.040270	0.959730
Cu111	Cu11	0.040270	0.500000	0.500000
Cu121	Cu12	0.500000	0.959730	0.040270
H11	H1	0.126700	0.523900	0.003900
H21	H2	0.165700	0.527700	0.043900
H31	H3	0.523900	0.126700	0.345500
H41	H4	0.527700	0.165700	0.262700
H51	H5	0.003900	0.345500	0.126700
H61	H6	0.043900	0.262700	0.165700
H71	H7	0.345500	0.003900	0.523900
H81	H8	0.262700	0.043900	0.527700
H91	H9	0.126700	0.003900	0.345500
H101	H10	0.165700	0.043900	0.262700
H111	H11	0.523900	0.345500	0.003900
H121	H12	0.527700	0.262700	0.043900
H131	H13	0.003900	0.126700	0.523900
H141	H14	0.043900	0.165700	0.527700
H151	H15	0.345500	0.523900	0.126700
H161	H16	0.262700	0.527700	0.165700
H171	H17	0.126700	0.345500	0.523900
H181	H18	0.165700	0.262700	0.527700
H191	H19	0.523900	0.003900	0.126700
H201	H20	0.527700	0.043900	0.165700
H211	H21	0.003900	0.523900	0.345500
H221	H22	0.043900	0.527700	0.262700
H231	H23	0.345500	0.126700	0.003900
H241	H24	0.262700	0.165700	0.043900
H251	H25	0.476100	0.873300	0.996100
H261	H26	0.472300	0.834300	0.956100
H271	H27	0.873300	0.476100	0.654500
H281	H28	0.834300	0.472300	0.737300
H291	H29	0.654500	0.996100	0.873300
H301	H30	0.737300	0.956100	0.834300
H311	H31	0.996100	0.654500	0.476100
H321	H32	0.956100	0.737300	0.472300
H331	H33	0.996100	0.873300	0.654500
H341	H34	0.956100	0.834300	0.737300
H351	H35	0.654500	0.476100	0.996100
H361	H36	0.737300	0.472300	0.956100
H371	H37	0.873300	0.996100	0.476100
H381	H38	0.834300	0.956100	0.472300
H391	H39	0.476100	0.654500	0.873300
H401	H40	0.472300	0.737300	0.834300
H411	H41	0.654500	0.873300	0.476100
H421	H42	0.737300	0.834300	0.472300
H431	H43	0.996100	0.476100	0.873300
H441	H44	0.956100	0.472300	0.834300
H451	H45	0.476100	0.996100	0.654500
H461	H46	0.472300	0.956100	0.737300
H471	H47	0.873300	0.654500	0.996100
H481	H48	0.834300	0.737300	0.956100
H491	H49	0.873300	0.476100	0.996100
H501	H50	0.834300	0.472300	0.956100
H511	H51	0.476100	0.873300	0.654500
H521	H52	0.472300	0.834300	0.737300
H531	H53	0.996100	0.654500	0.873300
H541	H54	0.956100	0.737300	0.834300
H551	H55	0.654500	0.996100	0.476100
H561	H56	0.737300	0.956100	0.472300
H571	H57	0.873300	0.996100	0.654500
H581	H58	0.834300	0.956100	0.737300
H591	H59	0.476100	0.654500	0.996100
H601	H60	0.472300	0.737300	0.956100
H611	H61	0.996100	0.873300	0.476100
H621	H62	0.956100	0.834300	0.472300
H631	H63	0.654500	0.476100	0.873300
H641	H64	0.737300	0.472300	0.834300
H651	H65	0.873300	0.654500	0.476100
H661	H66	0.834300	0.737300	0.472300
H671	H67	0.476100	0.996100	0.873300
H681	H68	0.472300	0.956100	0.834300
H691	H69	0.996100	0.476100	0.654500
H701	H70	0.956100	0.472300	0.737300
H711	H71	0.654500	0.873300	0.996100
H721	H72	0.737300	0.834300	0.956100
H731	H73	0.523900	0.126700	0.003900
H741	H74	0.527700	0.165700	0.043900
H751	H75	0.126700	0.523900	0.345500
H761	H76	0.165700	0.527700	0.262700
H771	H77	0.345500	0.003900	0.126700
H781	H78	0.262700	0.043900	0.165700
H791	H79	0.003900	0.345500	0.523900
H801	H80	0.043900	0.262700	0.527700
H811	H81	0.003900	0.126700	0.345500
H821	H82	0.043900	0.165700	0.262700
H831	H83	0.345500	0.523900	0.003900
H841	H84	0.262700	0.527700	0.043900
H851	H85	0.126700	0.003900	0.523900
H861	H86	0.165700	0.043900	0.527700
H871	H87	0.523900	0.345500	0.126700
H881	H88	0.527700	0.262700	0.165700
H891	H89	0.345500	0.126700	0.523900
H901	H90	0.262700	0.165700	0.527700
H911	H91	0.003900	0.523900	0.126700
H921	H92	0.043900	0.527700	0.165700
H931	H93	0.523900	0.003900	0.345500
H941	H94	0.527700	0.043900	0.262700
H951	H95	0.126700	0.345500	0.003900
H961	H96	0.165700	0.262700	0.043900
C11	C1	0.110210	0.523630	0.036930
C21	C2	0.133150	0.526710	0.060570
C31	C3	0.523630	0.110210	0.329230
C41	C4	0.526710	0.133150	0.279570
C51	C5	0.036930	0.329230	0.110210
C61	C6	0.060570	0.279570	0.133150
C71	C7	0.329230	0.036930	0.523630
C81	C8	0.279570	0.060570	0.526710
C91	C9	0.110210	0.036930	0.329230
C101	C10	0.133150	0.060570	0.279570
C111	C11	0.523630	0.329230	0.036930
C121	C12	0.526710	0.279570	0.060570
C131	C13	0.036930	0.110210	0.523630
C141	C14	0.060570	0.133150	0.526710
C151	C15	0.329230	0.523630	0.110210
C161	C16	0.279570	0.526710	0.133150
C171	C17	0.110210	0.329230	0.523630
C181	C18	0.133150	0.279570	0.526710
C191	C19	0.523630	0.036930	0.110210
C201	C20	0.526710	0.060570	0.133150
C211	C21	0.036930	0.523630	0.329230
C221	C22	0.060570	0.526710	0.279570
C231	C23	0.329230	0.110210	0.036930
C241	C24	0.279570	0.133150	0.060570
C251	C25	0.476370	0.889790	0.963070
C261	C26	0.473290	0.866850	0.939430
C271	C27	0.889790	0.476370	0.670770
C281	C28	0.866850	0.473290	0.720430
C291	C29	0.670770	0.963070	0.889790
C301	C30	0.720430	0.939430	0.866850
C311	C31	0.963070	0.670770	0.476370
C321	C32	0.939430	0.720430	0.473290
C331	C33	0.963070	0.889790	0.670770
C341	C34	0.939430	0.866850	0.720430
C351	C35	0.670770	0.476370	0.963070
C361	C36	0.720430	0.473290	0.939430
C371	C37	0.889790	0.963070	0.476370
C381	C38	0.866850	0.939430	0.473290
C391	C39	0.476370	0.670770	0.889790
C401	C40	0.473290	0.720430	0.866850
C411	C41	0.670770	0.889790	0.476370
C421	C42	0.720430	0.866850	0.473290
C431	C43	0.963070	0.476370	0.889790
C441	C44	0.939430	0.473290	0.866850
C451	C45	0.476370	0.963070	0.670770
C461	C46	0.473290	0.939430	0.720430
C471	C47	0.889790	0.670770	0.963070
C481	C48	0.866850	0.720430	0.939430
C491	C49	0.889790	0.476370	0.963070
C501	C50	0.866850	0.473290	0.939430
C511	C51	0.476370	0.889790	0.670770
C521	C52	0.473290	0.866850	0.720430
C531	C53	0.963070	0.670770	0.889790
C541	C54	0.939430	0.720430	0.866850
C551	C55	0.670770	0.963070	0.476370
C561	C56	0.720430	0.939430	0.473290
C571	C57	0.889790	0.963070	0.670770
C581	C58	0.866850	0.939430	0.720430
C591	C59	0.476370	0.670770	0.963070
C601	C60	0.473290	0.720430	0.939430
C611	C61	0.963070	0.889790	0.476370
C621	C62	0.939430	0.866850	0.473290
C631	C63	0.670770	0.476370	0.889790
C641	C64	0.720430	0.473290	0.866850
C651	C65	0.889790	0.670770	0.476370
C661	C66	0.866850	0.720430	0.473290
C671	C67	0.476370	0.963070	0.889790
C681	C68	0.473290	0.939430	0.866850
C691	C69	0.963070	0.476370	0.670770
C701	C70	0.939430	0.473290	0.720430
C711	C71	0.670770	0.889790	0.963070
C721	C72	0.720430	0.866850	0.939430
C731	C73	0.523630	0.110210	0.036930
C741	C74	0.526710	0.133150	0.060570
C751	C75	0.110210	0.523630	0.329230
C761	C76	0.133150	0.526710	0.279570
C771	C77	0.329230	0.036930	0.110210
C781	C78	0.279570	0.060570	0.133150
C791	C79	0.036930	0.329230	0.523630
C801	C80	0.060570	0.279570	0.526710
C811	C81	0.036930	0.110210	0.329230
C821	C82	0.060570	0.133150	0.279570
C831	C83	0.329230	0.523630	0.036930
C841	C84	0.279570	0.526710	0.060570
C851	C85	0.110210	0.036930	0.523630
C861	C86	0.133150	0.060570	0.526710
C871	C87	0.523630	0.329230	0.110210
C881	C88	0.526710	0.279570	0.133150
C891	C89	0.329230	0.110210	0.523630
C901	C90	0.279570	0.133150	0.526710
C911	C91	0.036930	0.523630	0.110210
C921	C92	0.060570	0.526710	0.133150
C931	C93	0.523630	0.036930	0.329230
C941	C94	0.526710	0.060570	0.279570
C951	C95	0.110210	0.329230	0.036930
C961	C96	0.133150	0.279570	0.060570
C971	C97	0.038200	0.513140	0.038200
C981	C98	0.062550	0.519970	0.062550
C991	C99	0.108340	0.528460	0.108340
C1001	C100	0.133620	0.531800	0.133620
C1011	C101	0.513140	0.038200	0.410460
C1021	C102	0.519970	0.062550	0.354930
C1031	C103	0.528460	0.108340	0.254860
C1041	C104	0.531800	0.133620	0.200960
C1051	C105	0.038200	0.410460	0.038200
C1061	C106	0.062550	0.354930	0.062550
C1071	C107	0.108340	0.254860	0.108340
C1081	C108	0.133620	0.200960	0.133620
C1091	C109	0.410460	0.038200	0.513140
C1101	C110	0.354930	0.062550	0.519970
C1111	C111	0.254860	0.108340	0.528460
C1121	C112	0.200960	0.133620	0.531800
C1131	C113	0.038200	0.038200	0.410460
C1141	C114	0.062550	0.062550	0.354930
C1151	C115	0.108340	0.108340	0.254860
C1161	C116	0.133620	0.133620	0.200960
C1171	C117	0.513140	0.410460	0.038200
C1181	C118	0.519970	0.354930	0.062550
C1191	C119	0.528460	0.254860	0.108340
C1201	C120	0.531800	0.200960	0.133620
C1211	C121	0.038200	0.038200	0.513140
C1221	C122	0.062550	0.062550	0.519970
C1231	C123	0.108340	0.108340	0.528460
C1241	C124	0.133620	0.133620	0.531800
C1251	C125	0.410460	0.513140	0.038200
C1261	C126	0.354930	0.519970	0.062550
C1271	C127	0.254860	0.528460	0.108340
C1281	C128	0.200960	0.531800	0.133620
C1291	C129	0.038200	0.410460	0.513140
C1301	C130	0.062550	0.354930	0.519970
C1311	C131	0.108340	0.254860	0.528460
C1321	C132	0.133620	0.200960	0.531800
C1331	C133	0.513140	0.038200	0.038200
C1341	C134	0.519970	0.062550	0.062550
C1351	C135	0.528460	0.108340	0.108340
C1361	C136	0.531800	0.133620	0.133620
C1371	C137	0.038200	0.513140	0.410460
C1381	C138	0.062550	0.519970	0.354930
C1391	C139	0.108340	0.528460	0.254860
C1401	C140	0.133620	0.531800	0.200960
C1411	C141	0.410460	0.038200	0.038200
C1421	C142	0.354930	0.062550	0.062550
C1431	C143	0.254860	0.108340	0.108340
C1441	C144	0.200960	0.133620	0.133620
C1451	C145	0.486860	0.961800	0.961800
C1461	C146	0.480030	0.937450	0.937450
C1471	C147	0.471540	0.891660	0.891660
C1481	C148	0.468200	0.866380	0.866380
C1491	C149	0.961800	0.486860	0.589540
C1501	C150	0.937450	0.480030	0.645070
C1511	C151	0.891660	0.471540	0.745140
C1521	C152	0.866380	0.468200	0.799040
C1531	C153	0.589540	0.961800	0.961800
C1541	C154	0.645070	0.937450	0.937450
C1551	C155	0.745140	0.891660	0.891660
C1561	C156	0.799040	0.866380	0.866380
C1571	C157	0.961800	0.589540	0.486860
C1581	C158	0.937450	0.645070	0.480030
C1591	C159	0.891660	0.745140	0.471540
C1601	C160	0.866380	0.799040	0.468200
C1611	C161	0.961800	0.961800	0.589540
C1621	C162	0.937450	0.937450	0.645070
C1631	C163	0.891660	0.891660	0.745140
C1641	C164	0.866380	0.866380	0.799040
C1651	C165	0.589540	0.486860	0.961800
C1661	C166	0.645070	0.480030	0.937450
C1671	C167	0.745140	0.471540	0.891660
C1681	C168	0.799040	0.468200	0.866380
C1691	C169	0.961800	0.961800	0.486860
C1701	C170	0.937450	0.937450	0.480030
C1711	C171	0.891660	0.891660	0.471540
C1721	C172	0.866380	0.866380	0.468200
C1731	C173	0.486860	0.589540	0.961800
C1741	C174	0.480030	0.645070	0.937450
C1751	C175	0.471540	0.745140	0.891660
C1761	C176	0.468200	0.799040	0.866380
C1771	C177	0.589540	0.961800	0.486860
C1781	C178	0.645070	0.937450	0.480030
C1791	C179	0.745140	0.891660	0.471540
C1801	C180	0.799040	0.866380	0.468200
C1811	C181	0.961800	0.486860	0.961800
C1821	C182	0.937450	0.480030	0.937450
C1831	C183	0.891660	0.471540	0.891660
C1841	C184	0.866380	0.468200	0.866380
C1851	C185	0.486860	0.961800	0.589540
C1861	C186	0.480030	0.937450	0.645070
C1871	C187	0.471540	0.891660	0.745140
C1881	C188	0.468200	0.866380	0.799040
C1891	C189	0.961800	0.589540	0.961800
C1901	C190	0.937450	0.645070	0.937450
C1911	C191	0.891660	0.745140	0.891660
C1921	C192	0.866380	0.799040	0.866380
N11	N1	0.180000	0.531440	0.108560
N21	N2	0.531440	0.180000	0.180000
N31	N3	0.108560	0.180000	0.180000
N41	N4	0.180000	0.108560	0.531440
N51	N5	0.180000	0.108560	0.180000
N61	N6	0.531440	0.180000	0.108560
N71	N7	0.108560	0.180000	0.531440
N81	N8	0.180000	0.531440	0.180000
N91	N9	0.180000	0.180000	0.531440
N101	N10	0.531440	0.108560	0.180000
N111	N11	0.108560	0.531440	0.180000
N121	N12	0.180000	0.180000	0.108560
N131	N13	0.468560	0.820000	0.891440
N141	N14	0.820000	0.468560	0.820000
N151	N15	0.820000	0.891440	0.820000
N161	N16	0.891440	0.820000	0.468560
N171	N17	0.891440	0.820000	0.820000
N181	N18	0.820000	0.468560	0.891440
N191	N19	0.820000	0.891440	0.468560
N201	N20	0.468560	0.820000	0.820000
N211	N21	0.820000	0.820000	0.468560
N221	N22	0.891440	0.468560	0.820000
N231	N23	0.468560	0.891440	0.820000
N241	N24	0.820000	0.820000	0.891440
O11	O1	0.995560	0.512940	0.063580
O21	O2	0.512940	0.995560	0.427920
O31	O3	0.063580	0.427920	0.995560
O41	O4	0.427920	0.063580	0.512940
O51	O5	0.995560	0.063580	0.427920
O61	O6	0.512940	0.427920	0.063580
O71	O7	0.063580	0.995560	0.512940
O81	O8	0.427920	0.512940	0.995560
O91	O9	0.995560	0.427920	0.512940
O101	O10	0.512940	0.063580	0.995560
O111	O11	0.063580	0.512940	0.427920
O121	O12	0.427920	0.995560	0.063580
O131	O13	0.487060	0.004440	0.936420
O141	O14	0.004440	0.487060	0.572080
O151	O15	0.572080	0.936420	0.004440
O161	O16	0.936420	0.572080	0.487060
O171	O17	0.936420	0.004440	0.572080
O181	O18	0.572080	0.487060	0.936420
O191	O19	0.004440	0.936420	0.487060
O201	O20	0.487060	0.572080	0.004440
O211	O21	0.572080	0.004440	0.487060
O221	O22	0.936420	0.487060	0.004440
O231	O23	0.487060	0.936420	0.572080
O241	O24	0.004440	0.572080	0.936420
O251	O25	0.004440	0.487060	0.936420
O261	O26	0.487060	0.004440	0.572080
O271	O27	0.936420	0.572080	0.004440
O281	O28	0.572080	0.936420	0.487060
O291	O29	0.004440	0.936420	0.572080
O301	O30	0.487060	0.572080	0.936420
O311	O31	0.936420	0.004440	0.487060
O321	O32	0.572080	0.487060	0.004440
O331	O33	0.004440	0.572080	0.487060
O341	O34	0.487060	0.936420	0.004440
O351	O35	0.936420	0.487060	0.572080
O361	O36	0.572080	0.004440	0.936420
O371	O37	0.512940	0.995560	0.063580
O381	O38	0.995560	0.512940	0.427920
O391	O39	0.427920	0.063580	0.995560
O401	O40	0.063580	0.427920	0.512940
O411	O41	0.063580	0.995560	0.427920
O421	O42	0.427920	0.512940	0.063580
O431	O43	0.995560	0.063580	0.512940
O441	O44	0.512940	0.427920	0.995560
O451	O45	0.427920	0.995560	0.512940
O461	O46	0.063580	0.512940	0.995560
O471	O47	0.512940	0.063580	0.427920
O481	O48	0.995560	0.427920	0.063580
