data_NIBXUT_clean_PM
_symmetry_space_group_name_H-M	'P1'
_cell_length_a	11.075700
_cell_length_b	13.043300
_cell_length_c	25.701400
_cell_angle_alpha	90.000000
_cell_angle_beta	90.000000
_cell_angle_gamma	90.000000
_symmetry_Int_Tables_number 1

loop_
_symmetry_equiv_pos_as_xyz
'x,y,z'

loop_
_atom_site_label
_atom_site_type_symbol
_atom_site_fract_x
_atom_site_fract_y
_atom_site_fract_z
Gd11	Gd1	0.979420	0.657030	0.218780
Gd21	Gd2	0.479420	0.842970	0.281220
Gd31	Gd3	0.520580	0.657030	0.781220
Gd41	Gd4	0.020580	0.842970	0.718780
Gd51	Gd5	0.020580	0.342970	0.781220
Gd61	Gd6	0.520580	0.157030	0.718780
Gd71	Gd7	0.479420	0.342970	0.218780
Gd81	Gd8	0.979420	0.157030	0.281220
Gd91	Gd9	0.250000	0.492130	0.000000
Gd101	Gd10	0.750000	0.007870	0.500000
Gd111	Gd11	0.750000	0.507870	0.000000
Gd121	Gd12	0.250000	0.992130	0.500000
P11	P1	0.152750	0.811440	0.303960
P21	P2	0.310990	0.701740	0.081650
P31	P3	0.652750	0.688560	0.196040
P41	P4	0.810990	0.798260	0.418350
P51	P5	0.347250	0.811440	0.696040
P61	P6	0.189010	0.701740	0.918350
P71	P7	0.847250	0.688560	0.803960
P81	P8	0.689010	0.798260	0.581650
P91	P9	0.847250	0.188560	0.696040
P101	P10	0.689010	0.298260	0.918350
P111	P11	0.347250	0.311440	0.803960
P121	P12	0.189010	0.201740	0.581650
P131	P13	0.652750	0.188560	0.303960
P141	P14	0.810990	0.298260	0.081650
P151	P15	0.152750	0.311440	0.196040
P161	P16	0.310990	0.201740	0.418350
H11	H1	0.100600	0.890600	0.224600
H21	H2	0.195200	0.008400	0.274900
H31	H3	0.262600	0.573700	0.141500
H41	H4	0.248000	0.685900	0.192300
H51	H5	0.600600	0.609400	0.275400
H61	H6	0.695200	0.491600	0.225100
H71	H7	0.762600	0.926300	0.358500
H81	H8	0.748000	0.814100	0.307700
H91	H9	0.399400	0.890600	0.775400
H101	H10	0.304800	0.008400	0.725100
H111	H11	0.237400	0.573700	0.858500
H121	H12	0.252000	0.685900	0.807700
H131	H13	0.899400	0.609400	0.724600
H141	H14	0.804800	0.491600	0.774900
H151	H15	0.737400	0.926300	0.641500
H161	H16	0.752000	0.814100	0.692300
H171	H17	0.899400	0.109400	0.775400
H181	H18	0.804800	0.991600	0.725100
H191	H19	0.737400	0.426300	0.858500
H201	H20	0.752000	0.314100	0.807700
H211	H21	0.399400	0.390600	0.724600
H221	H22	0.304800	0.508400	0.774900
H231	H23	0.237400	0.073700	0.641500
H241	H24	0.252000	0.185900	0.692300
H251	H25	0.600600	0.109400	0.224600
H261	H26	0.695200	0.991600	0.274900
H271	H27	0.762600	0.426300	0.141500
H281	H28	0.748000	0.314100	0.192300
H291	H29	0.100600	0.390600	0.275400
H301	H30	0.195200	0.508400	0.225100
H311	H31	0.262600	0.073700	0.358500
H321	H32	0.248000	0.185900	0.307700
C11	C1	0.081800	0.907300	0.261700
C21	C2	0.945100	0.901700	0.269890
C31	C3	0.215800	0.634800	0.129450
C41	C4	0.098900	0.594100	0.104800
C51	C5	0.581800	0.592700	0.238300
C61	C6	0.445100	0.598300	0.230110
C71	C7	0.715800	0.865200	0.370550
C81	C8	0.598900	0.905900	0.395200
C91	C9	0.418200	0.907300	0.738300
C101	C10	0.554900	0.901700	0.730110
C111	C11	0.284200	0.634800	0.870550
C121	C12	0.401100	0.594100	0.895200
C131	C13	0.918200	0.592700	0.761700
C141	C14	0.054900	0.598300	0.769890
C151	C15	0.784200	0.865200	0.629450
C161	C16	0.901100	0.905900	0.604800
C171	C17	0.918200	0.092700	0.738300
C181	C18	0.054900	0.098300	0.730110
C191	C19	0.784200	0.365200	0.870550
C201	C20	0.901100	0.405900	0.895200
C211	C21	0.418200	0.407300	0.761700
C221	C22	0.554900	0.401700	0.769890
C231	C23	0.284200	0.134800	0.629450
C241	C24	0.401100	0.094100	0.604800
C251	C25	0.581800	0.092700	0.261700
C261	C26	0.445100	0.098300	0.269890
C271	C27	0.715800	0.365200	0.129450
C281	C28	0.598900	0.405900	0.104800
C291	C29	0.081800	0.407300	0.238300
C301	C30	0.945100	0.401700	0.230110
C311	C31	0.215800	0.134800	0.370550
C321	C32	0.098900	0.094100	0.395200
O11	O1	0.121500	0.708900	0.280850
O21	O2	0.098700	0.827600	0.359460
O31	O3	0.283300	0.837800	0.307220
O41	O4	0.122100	0.008600	0.272740
O51	O5	0.897300	0.814700	0.264480
O61	O6	0.889300	0.982700	0.281090
O71	O7	0.358100	0.617800	0.046210
O81	O8	0.234400	0.779500	0.050480
O91	O9	0.408000	0.757800	0.112410
O101	O10	0.185500	0.692700	0.175120
O111	O11	0.104400	0.557700	0.060390
O121	O12	0.003500	0.601100	0.131560
O131	O13	0.621500	0.791100	0.219150
O141	O14	0.598700	0.672400	0.140540
O151	O15	0.783300	0.662200	0.192780
O161	O16	0.622100	0.491400	0.227260
O171	O17	0.397300	0.685300	0.235520
O181	O18	0.389300	0.517300	0.218910
O191	O19	0.858100	0.882200	0.453790
O201	O20	0.734400	0.720500	0.449520
O211	O21	0.908000	0.742200	0.387590
O221	O22	0.685500	0.807300	0.324880
O231	O23	0.604400	0.942300	0.439610
O241	O24	0.503500	0.898900	0.368440
O251	O25	0.378500	0.708900	0.719150
O261	O26	0.401300	0.827600	0.640540
O271	O27	0.216700	0.837800	0.692780
O281	O28	0.377900	0.008600	0.727260
O291	O29	0.602700	0.814700	0.735520
O301	O30	0.610700	0.982700	0.718910
O311	O31	0.141900	0.617800	0.953790
O321	O32	0.265600	0.779500	0.949520
O331	O33	0.092000	0.757800	0.887590
O341	O34	0.314500	0.692700	0.824880
O351	O35	0.395600	0.557700	0.939610
O361	O36	0.496500	0.601100	0.868440
O371	O37	0.878500	0.791100	0.780850
O381	O38	0.901300	0.672400	0.859460
O391	O39	0.716700	0.662200	0.807220
O401	O40	0.877900	0.491400	0.772740
O411	O41	0.102700	0.685300	0.764480
O421	O42	0.110700	0.517300	0.781090
O431	O43	0.641900	0.882200	0.546210
O441	O44	0.765600	0.720500	0.550480
O451	O45	0.592000	0.742200	0.612410
O461	O46	0.814500	0.807300	0.675120
O471	O47	0.895600	0.942300	0.560390
O481	O48	0.996500	0.898900	0.631560
O491	O49	0.878500	0.291100	0.719150
O501	O50	0.901300	0.172400	0.640540
O511	O51	0.716700	0.162200	0.692780
O521	O52	0.877900	0.991400	0.727260
O531	O53	0.102700	0.185300	0.735520
O541	O54	0.110700	0.017300	0.718910
O551	O55	0.641900	0.382200	0.953790
O561	O56	0.765600	0.220500	0.949520
O571	O57	0.592000	0.242200	0.887590
O581	O58	0.814500	0.307300	0.824880
O591	O59	0.895600	0.442300	0.939610
O601	O60	0.996500	0.398900	0.868440
O611	O61	0.378500	0.208900	0.780850
O621	O62	0.401300	0.327600	0.859460
O631	O63	0.216700	0.337800	0.807220
O641	O64	0.377900	0.508600	0.772740
O651	O65	0.602700	0.314700	0.764480
O661	O66	0.610700	0.482700	0.781090
O671	O67	0.141900	0.117800	0.546210
O681	O68	0.265600	0.279500	0.550480
O691	O69	0.092000	0.257800	0.612410
O701	O70	0.314500	0.192700	0.675120
O711	O71	0.395600	0.057700	0.560390
O721	O72	0.496500	0.101100	0.631560
O731	O73	0.621500	0.291100	0.280850
O741	O74	0.598700	0.172400	0.359460
O751	O75	0.783300	0.162200	0.307220
O761	O76	0.622100	0.991400	0.272740
O771	O77	0.397300	0.185300	0.264480
O781	O78	0.389300	0.017300	0.281090
O791	O79	0.858100	0.382200	0.046210
O801	O80	0.734400	0.220500	0.050480
O811	O81	0.908000	0.242200	0.112410
O821	O82	0.685500	0.307300	0.175120
O831	O83	0.604400	0.442300	0.060390
O841	O84	0.503500	0.398900	0.131560
O851	O85	0.121500	0.208900	0.219150
O861	O86	0.098700	0.327600	0.140540
O871	O87	0.283300	0.337800	0.192780
O881	O88	0.122100	0.508600	0.227260
O891	O89	0.897300	0.314700	0.235520
O901	O90	0.889300	0.482700	0.218910
O911	O91	0.358100	0.117800	0.453790
O921	O92	0.234400	0.279500	0.449520
O931	O93	0.408000	0.257800	0.387590
O941	O94	0.185500	0.192700	0.324880
O951	O95	0.104400	0.057700	0.439610
O961	O96	0.003500	0.101100	0.368440
