data_NICCAE_clean_PM
_symmetry_space_group_name_H-M	'P1'
_cell_length_a	24.729300
_cell_length_b	8.944200
_cell_length_c	9.980600
_cell_angle_alpha	90.000000
_cell_angle_beta	90.000000
_cell_angle_gamma	90.000000
_symmetry_Int_Tables_number 1

loop_
_symmetry_equiv_pos_as_xyz
'x,y,z'

loop_
_atom_site_label
_atom_site_type_symbol
_atom_site_fract_x
_atom_site_fract_y
_atom_site_fract_z
Al11	Al1	0.385300	0.872810	0.782950
Al21	Al2	0.230540	0.169230	0.481980
P11	P1	0.338840	0.955040	0.511240
P21	P2	0.302740	0.612770	0.794400
O11	O1	0.505500	0.638000	0.629400
O21	O2	0.451270	0.840200	0.739100
O31	O3	0.354460	0.980600	0.659400
O41	O4	0.289180	0.043100	0.477100
O51	O5	0.386860	0.016900	0.427900
O61	O6	0.331980	0.789000	0.485300
O71	O7	0.356860	0.695700	0.811700
O81	O8	0.307240	0.471800	0.876800
O91	O9	0.295490	0.576100	0.646100
O101	O10	0.256490	0.717100	0.837200
Al31	Al3	0.114700	0.627190	0.282950
Al41	Al4	0.269460	0.330770	0.981980
P31	P3	0.161160	0.544960	0.011240
P41	P4	0.197260	0.887230	0.294400
O111	O11	0.994500	0.862000	0.129400
O121	O12	0.048730	0.659800	0.239100
O131	O13	0.145540	0.519400	0.159400
O141	O14	0.210820	0.456900	0.977100
O151	O15	0.113140	0.483100	0.927900
O161	O16	0.168020	0.711000	0.985300
O171	O17	0.143140	0.804300	0.311700
O181	O18	0.192760	0.028200	0.376800
O191	O19	0.204510	0.923900	0.146100
O201	O20	0.243510	0.782900	0.337200
Al51	Al5	0.614700	0.872810	0.717050
Al61	Al6	0.769460	0.169230	0.018020
P51	P5	0.661160	0.955040	0.988760
P61	P6	0.697260	0.612770	0.705600
O211	O21	0.494500	0.638000	0.870600
O221	O22	0.548730	0.840200	0.760900
O231	O23	0.645540	0.980600	0.840600
O241	O24	0.710820	0.043100	0.022900
O251	O25	0.613140	0.016900	0.072100
O261	O26	0.668020	0.789000	0.014700
O271	O27	0.643140	0.695700	0.688300
O281	O28	0.692760	0.471800	0.623200
O291	O29	0.704510	0.576100	0.853900
O301	O30	0.743510	0.717100	0.662800
Al71	Al7	0.885300	0.627190	0.217050
Al81	Al8	0.730540	0.330770	0.518020
P71	P7	0.838840	0.544960	0.488760
P81	P8	0.802740	0.887230	0.205600
O311	O31	0.005500	0.862000	0.370600
O321	O32	0.951270	0.659800	0.260900
O331	O33	0.854460	0.519400	0.340600
O341	O34	0.789180	0.456900	0.522900
O351	O35	0.886860	0.483100	0.572100
O361	O36	0.831980	0.711000	0.514700
O371	O37	0.856860	0.804300	0.188300
O381	O38	0.807240	0.028200	0.123200
O391	O39	0.795490	0.923900	0.353900
O401	O40	0.756490	0.782900	0.162800
Al91	Al9	0.614700	0.127190	0.217050
Al101	Al10	0.769460	0.830770	0.518020
P91	P9	0.661160	0.044960	0.488760
P101	P10	0.697260	0.387230	0.205600
O411	O41	0.494500	0.362000	0.370600
O421	O42	0.548730	0.159800	0.260900
O431	O43	0.645540	0.019400	0.340600
O441	O44	0.710820	0.956900	0.522900
O451	O45	0.613140	0.983100	0.572100
O461	O46	0.668020	0.211000	0.514700
O471	O47	0.643140	0.304300	0.188300
O481	O48	0.692760	0.528200	0.123200
O491	O49	0.704510	0.423900	0.353900
O501	O50	0.743510	0.282900	0.162800
Al111	Al11	0.885300	0.372810	0.717050
Al121	Al12	0.730540	0.669230	0.018020
P111	P11	0.838840	0.455040	0.988760
P121	P12	0.802740	0.112770	0.705600
O511	O51	0.005500	0.138000	0.870600
O521	O52	0.951270	0.340200	0.760900
O531	O53	0.854460	0.480600	0.840600
O541	O54	0.789180	0.543100	0.022900
O551	O55	0.886860	0.516900	0.072100
O561	O56	0.831980	0.289000	0.014700
O571	O57	0.856860	0.195700	0.688300
O581	O58	0.807240	0.971800	0.623200
O591	O59	0.795490	0.076100	0.853900
O601	O60	0.756490	0.217100	0.662800
Al131	Al13	0.385300	0.127190	0.282950
Al141	Al14	0.230540	0.830770	0.981980
P131	P13	0.338840	0.044960	0.011240
P141	P14	0.302740	0.387230	0.294400
O611	O61	0.505500	0.362000	0.129400
O621	O62	0.451270	0.159800	0.239100
O631	O63	0.354460	0.019400	0.159400
O641	O64	0.289180	0.956900	0.977100
O651	O65	0.386860	0.983100	0.927900
O661	O66	0.331980	0.211000	0.985300
O671	O67	0.356860	0.304300	0.311700
O681	O68	0.307240	0.528200	0.376800
O691	O69	0.295490	0.423900	0.146100
O701	O70	0.256490	0.282900	0.337200
Al151	Al15	0.114700	0.372810	0.782950
Al161	Al16	0.269460	0.669230	0.481980
P151	P15	0.161160	0.455040	0.511240
P161	P16	0.197260	0.112770	0.794400
O711	O71	0.994500	0.138000	0.629400
O721	O72	0.048730	0.340200	0.739100
O731	O73	0.145540	0.480600	0.659400
O741	O74	0.210820	0.543100	0.477100
O751	O75	0.113140	0.516900	0.427900
O761	O76	0.168020	0.289000	0.485300
O771	O77	0.143140	0.195700	0.811700
O781	O78	0.192760	0.971800	0.876800
O791	O79	0.204510	0.076100	0.646100
O801	O80	0.243510	0.217100	0.837200
P171	P17	0.500000	0.735500	0.750000
P181	P18	0.000000	0.764500	0.250000
P191	P19	0.500000	0.264500	0.250000
P201	P20	0.000000	0.235500	0.750000
