data_NIFTIH_clean_PM
_symmetry_space_group_name_H-M	'P1'
_cell_length_a	14.766000
_cell_length_b	17.640900
_cell_length_c	17.640900
_cell_angle_alpha	79.912300
_cell_angle_beta	65.259100
_cell_angle_gamma	65.259000
_symmetry_Int_Tables_number 1

loop_
_symmetry_equiv_pos_as_xyz
'x,y,z'

loop_
_atom_site_label
_atom_site_type_symbol
_atom_site_fract_x
_atom_site_fract_y
_atom_site_fract_z
Cd11	Cd1	0.537730	0.582800	0.426780
Cd21	Cd2	0.047310	0.917200	0.073220
Cd31	Cd3	0.964510	0.573220	0.082800
Cd41	Cd4	0.120530	0.926780	0.417200
Cd51	Cd5	0.462270	0.417200	0.573220
Cd61	Cd6	0.952690	0.082800	0.926780
Cd71	Cd7	0.035490	0.426780	0.917200
Cd81	Cd8	0.879470	0.073220	0.582800
H11	H1	0.673800	0.430800	0.168600
H21	H2	0.748000	0.748400	0.219400
H31	H3	0.759800	0.851300	0.279900
H41	H4	0.778100	0.587900	0.411500
H51	H5	0.780800	0.869300	0.525900
H61	H6	0.824200	0.733100	0.575900
H71	H7	0.788600	0.634200	0.530200
H81	H8	0.772400	0.895600	0.391400
H91	H9	0.773200	0.069200	0.331400
H101	H10	0.215800	0.751600	0.280600
H111	H11	0.391000	0.648700	0.220100
H121	H12	0.277500	0.912100	0.088500
H131	H13	0.676000	0.630700	0.974100
H141	H14	0.633200	0.766900	0.924100
H151	H15	0.453000	0.865800	0.969800
H161	H16	0.559400	0.604400	0.108600
H171	H17	0.842400	0.831400	0.930800
H181	H18	0.967400	0.780600	0.248400
H191	H19	0.039700	0.720100	0.351300
H201	H20	0.189600	0.588500	0.087900
H211	H21	0.306700	0.474100	0.369300
H221	H22	0.400100	0.424100	0.233100
H231	H23	0.318800	0.469800	0.134200
H241	H24	0.163800	0.608600	0.395600
H251	H25	0.104600	0.668600	0.569200
H261	H26	0.496400	0.719400	0.251600
H271	H27	0.611100	0.779900	0.148700
H281	H28	0.366000	0.911500	0.412100
H291	H29	0.650100	0.025900	0.130700
H301	H30	0.557300	0.075900	0.266900
H311	H31	0.422800	0.030200	0.365800
H321	H32	0.668000	0.891400	0.104400
H331	H33	0.326200	0.569200	0.831400
H341	H34	0.252000	0.251600	0.780600
H351	H35	0.240200	0.148700	0.720100
H361	H36	0.221900	0.412100	0.588500
H371	H37	0.219200	0.130700	0.474100
H381	H38	0.175800	0.266900	0.424100
H391	H39	0.211400	0.365800	0.469800
H401	H40	0.227600	0.104400	0.608600
H411	H41	0.226800	0.930800	0.668600
H421	H42	0.784200	0.248400	0.719400
H431	H43	0.609000	0.351300	0.779900
H441	H44	0.722500	0.087900	0.911500
H451	H45	0.324000	0.369300	0.025900
H461	H46	0.366800	0.233100	0.075900
H471	H47	0.547000	0.134200	0.030200
H481	H48	0.440600	0.395600	0.891400
H491	H49	0.157600	0.168600	0.069200
H501	H50	0.032600	0.219400	0.751600
H511	H51	0.960300	0.279900	0.648700
H521	H52	0.810400	0.411500	0.912100
H531	H53	0.693300	0.525900	0.630700
H541	H54	0.599900	0.575900	0.766900
H551	H55	0.681200	0.530200	0.865800
H561	H56	0.836200	0.391400	0.604400
H571	H57	0.895400	0.331400	0.430800
H581	H58	0.503600	0.280600	0.748400
H591	H59	0.388900	0.220100	0.851300
H601	H60	0.634000	0.088500	0.587900
H611	H61	0.349900	0.974100	0.869300
H621	H62	0.442700	0.924100	0.733100
H631	H63	0.577200	0.969800	0.634200
H641	H64	0.332000	0.108600	0.895600
C11	C1	0.751800	0.599100	0.266900
C21	C2	0.684400	0.518700	0.247300
C31	C3	0.610300	0.476600	0.268600
C41	C4	0.771300	0.521700	0.174300
C51	C5	0.820900	0.477700	0.094500
C61	C6	0.763400	0.658400	0.307800
C71	C7	0.756200	0.737400	0.270200
C81	C8	0.780700	0.701300	0.422500
C91	C9	0.766600	0.781600	0.386200
C101	C10	0.760700	0.800700	0.306500
C111	C11	0.774700	0.639200	0.385600
C121	C12	0.785200	0.827700	0.497100
C131	C13	0.803000	0.746100	0.530900
C141	C14	0.790400	0.683100	0.500900
C151	C15	0.774400	0.845300	0.419100
C161	C16	0.117800	0.900900	0.233100
C171	C17	0.950400	0.981300	0.252700
C181	C18	0.855500	0.023400	0.231400
C191	C19	0.967300	0.978300	0.325700
C201	C20	0.893100	0.022300	0.405500
C211	C21	0.229600	0.841600	0.192200
C221	C22	0.263800	0.762600	0.229800
C231	C23	0.404500	0.798700	0.077500
C241	C24	0.434400	0.718400	0.113800
C251	C25	0.367900	0.699300	0.193500
C261	C26	0.299500	0.860800	0.114400
C271	C27	0.610000	0.672300	0.002900
C281	C28	0.580000	0.753900	0.969100
C291	C29	0.474400	0.816900	0.999100
C301	C30	0.538800	0.654700	0.080900
C311	C31	0.018700	0.733100	0.099100
C321	C32	0.931700	0.752700	0.018700
C331	C33	0.878900	0.731400	0.976600
C341	C34	0.945600	0.825700	0.021700
C351	C35	0.915400	0.905500	0.977700
C361	C36	0.071200	0.692200	0.158400
C371	C37	0.026400	0.729800	0.237400
C381	C38	0.203200	0.577500	0.201300
C391	C39	0.152800	0.613800	0.281600
C401	C40	0.067200	0.693500	0.300700
C411	C41	0.160300	0.614400	0.139200
C421	C42	0.282300	0.502900	0.327700
C431	C43	0.333900	0.469100	0.246100
C441	C44	0.291300	0.499100	0.183100
C451	C45	0.193500	0.580900	0.345300
C461	C46	0.350900	0.766900	0.400900
C471	C47	0.203100	0.747300	0.481300
C481	C48	0.086900	0.768600	0.523400
C491	C49	0.293000	0.674300	0.478300
C501	C50	0.298600	0.594500	0.522300
C511	C51	0.421800	0.807800	0.341600
C521	C52	0.493600	0.770200	0.262600
C531	C53	0.482000	0.922500	0.298700
C541	C54	0.548200	0.886200	0.218400
C551	C55	0.561400	0.806500	0.199300
C561	C56	0.413900	0.885600	0.360800
C571	C57	0.612900	0.997100	0.172300
C581	C58	0.549100	0.030900	0.253900
C591	C59	0.473500	0.000900	0.316900
C601	C60	0.619700	0.919100	0.154700
C611	C61	0.248200	0.400900	0.733100
C621	C62	0.315600	0.481300	0.752700
C631	C63	0.389700	0.523400	0.731400
C641	C64	0.228700	0.478300	0.825700
C651	C65	0.179100	0.522300	0.905500
C661	C66	0.236600	0.341600	0.692200
C671	C67	0.243800	0.262600	0.729800
C681	C68	0.219300	0.298700	0.577500
C691	C69	0.233400	0.218400	0.613800
C701	C70	0.239300	0.199300	0.693500
C711	C71	0.225300	0.360800	0.614400
C721	C72	0.214800	0.172300	0.502900
C731	C73	0.197000	0.253900	0.469100
C741	C74	0.209600	0.316900	0.499100
C751	C75	0.225600	0.154700	0.580900
C761	C76	0.882200	0.099100	0.766900
C771	C77	0.049600	0.018700	0.747300
C781	C78	0.144500	0.976600	0.768600
C791	C79	0.032700	0.021700	0.674300
C801	C80	0.106900	0.977700	0.594500
C811	C81	0.770400	0.158400	0.807800
C821	C82	0.736200	0.237400	0.770200
C831	C83	0.595500	0.201300	0.922500
C841	C84	0.565600	0.281600	0.886200
C851	C85	0.632100	0.300700	0.806500
C861	C86	0.700500	0.139200	0.885600
C871	C87	0.390000	0.327700	0.997100
C881	C88	0.420000	0.246100	0.030900
C891	C89	0.525600	0.183100	0.000900
C901	C90	0.461200	0.345300	0.919100
C911	C91	0.981300	0.266900	0.900900
C921	C92	0.068300	0.247300	0.981300
C931	C93	0.121100	0.268600	0.023400
C941	C94	0.054400	0.174300	0.978300
C951	C95	0.084600	0.094500	0.022300
C961	C96	0.928800	0.307800	0.841600
C971	C97	0.973600	0.270200	0.762600
C981	C98	0.796800	0.422500	0.798700
C991	C99	0.847200	0.386200	0.718400
C1001	C100	0.932800	0.306500	0.699300
C1011	C101	0.839700	0.385600	0.860800
C1021	C102	0.717700	0.497100	0.672300
C1031	C103	0.666100	0.530900	0.753900
C1041	C104	0.708700	0.500900	0.816900
C1051	C105	0.806500	0.419100	0.654700
C1061	C106	0.649100	0.233100	0.599100
C1071	C107	0.796900	0.252700	0.518700
C1081	C108	0.913100	0.231400	0.476600
C1091	C109	0.707000	0.325700	0.521700
C1101	C110	0.701400	0.405500	0.477700
C1111	C111	0.578200	0.192200	0.658400
C1121	C112	0.506400	0.229800	0.737400
C1131	C113	0.518000	0.077500	0.701300
C1141	C114	0.451800	0.113800	0.781600
C1151	C115	0.438600	0.193500	0.800700
C1161	C116	0.586100	0.114400	0.639200
C1171	C117	0.387100	0.002900	0.827700
C1181	C118	0.450900	0.969100	0.746100
C1191	C119	0.526500	0.999100	0.683100
C1201	C120	0.380300	0.080900	0.845300
N11	N1	0.671400	0.569500	0.305900
N21	N2	0.811600	0.572400	0.188400
N31	N3	0.046800	0.930500	0.194100
N41	N4	0.072400	0.927600	0.311600
N51	N5	0.977300	0.694100	0.069500
N61	N6	0.000000	0.811600	0.072400
N71	N7	0.240900	0.805900	0.430500
N81	N8	0.384000	0.688400	0.427600
N91	N9	0.328600	0.430500	0.694100
N101	N10	0.188400	0.427600	0.811600
N111	N11	0.953200	0.069500	0.805900
N121	N12	0.927600	0.072400	0.688400
N131	N13	0.022700	0.305900	0.930500
N141	N14	0.000000	0.188400	0.927600
N151	N15	0.759100	0.194100	0.569500
N161	N16	0.616000	0.311600	0.572400
O11	O1	0.537000	0.484900	0.338300
O21	O2	0.623800	0.428800	0.212000
O31	O3	0.902700	0.487800	0.041200
O41	O4	0.781300	0.431000	0.083600
O51	O5	0.860200	0.015100	0.161700
O61	O6	0.764600	0.071200	0.288000
O71	O7	0.931700	0.012200	0.458800
O81	O8	0.795900	0.069000	0.416400
O91	O9	0.875300	0.661700	0.984900
O101	O10	0.835800	0.788000	0.928800
O111	O11	0.943900	0.958800	0.987800
O121	O12	0.864900	0.916400	0.931000
O131	O13	0.021900	0.838300	0.515100
O141	O14	0.052600	0.712000	0.571200
O151	O15	0.390500	0.541200	0.512200
O161	O16	0.212300	0.583600	0.569000
O171	O17	0.463000	0.515100	0.661700
O181	O18	0.376200	0.571200	0.788000
O191	O19	0.097300	0.512200	0.958800
O201	O20	0.218700	0.569000	0.916400
O211	O21	0.139800	0.984900	0.838300
O221	O22	0.235400	0.928800	0.712000
O231	O23	0.068300	0.987800	0.541200
O241	O24	0.204100	0.931000	0.583600
O251	O25	0.124700	0.338300	0.015100
O261	O26	0.164200	0.212000	0.071200
O271	O27	0.056100	0.041200	0.012200
O281	O28	0.135100	0.083600	0.069000
O291	O29	0.978100	0.161700	0.484900
O301	O30	0.947400	0.288000	0.428800
O311	O31	0.609500	0.458800	0.487800
O321	O32	0.787700	0.416400	0.431000
