data_NIFZOT_charged_PM
_symmetry_space_group_name_H-M	'P1'
_cell_length_a	18.561700
_cell_length_b	18.714400
_cell_length_c	49.078300
_cell_angle_alpha	90.000000
_cell_angle_beta	90.000000
_cell_angle_gamma	90.000000
_symmetry_Int_Tables_number 1

loop_
_symmetry_equiv_pos_as_xyz
'x,y,z'

loop_
_atom_site_label
_atom_site_type_symbol
_atom_site_fract_x
_atom_site_fract_y
_atom_site_fract_z
Gd11	Gd1	0.698440	0.079560	0.621450
Gd21	Gd2	0.858310	0.903170	0.622460
Gd31	Gd3	0.803200	0.020160	0.875760
Gd41	Gd4	0.198440	0.920440	0.878550
Gd51	Gd5	0.358310	0.096830	0.877540
Gd61	Gd6	0.303200	0.979840	0.624230
Gd71	Gd7	0.801560	0.579560	0.378550
Gd81	Gd8	0.641690	0.403170	0.377540
Gd91	Gd9	0.696800	0.520160	0.124230
Gd101	Gd10	0.301560	0.420440	0.121450
Gd111	Gd11	0.141690	0.596830	0.122460
Gd121	Gd12	0.196800	0.479840	0.375760
Gd131	Gd13	0.301560	0.920440	0.378550
Gd141	Gd14	0.141690	0.096830	0.377540
Gd151	Gd15	0.196800	0.979840	0.124230
Gd161	Gd16	0.801560	0.079560	0.121450
Gd171	Gd17	0.641690	0.903170	0.122460
Gd181	Gd18	0.696800	0.020160	0.375760
Gd191	Gd19	0.198440	0.420440	0.621450
Gd201	Gd20	0.358310	0.596830	0.622460
Gd211	Gd21	0.303200	0.479840	0.875760
Gd221	Gd22	0.698440	0.579560	0.878550
Gd231	Gd23	0.858310	0.403170	0.877540
Gd241	Gd24	0.803200	0.520160	0.624230
Co11	Co1	0.535990	0.882840	0.753630
Co21	Co2	0.887820	0.753020	0.998120
Co31	Co3	0.035990	0.117160	0.746370
Co41	Co4	0.387820	0.246980	0.501880
Co51	Co5	0.964010	0.382840	0.246370
Co61	Co6	0.612180	0.253020	0.001880
Co71	Co7	0.464010	0.617160	0.253630
Co81	Co8	0.112180	0.746980	0.498120
Co91	Co9	0.464010	0.117160	0.246370
Co101	Co10	0.112180	0.246980	0.001880
Co111	Co11	0.964010	0.882840	0.253630
Co121	Co12	0.612180	0.753020	0.498120
Co131	Co13	0.035990	0.617160	0.753630
Co141	Co14	0.387820	0.746980	0.998120
Co151	Co15	0.535990	0.382840	0.746370
Co161	Co16	0.887820	0.253020	0.501880
H11	H1	0.832200	0.168300	0.550600
H21	H2	0.974300	0.009500	0.561600
H31	H3	0.034000	0.048500	0.522900
H41	H4	0.086000	0.090300	0.485900
H51	H5	0.124000	0.130700	0.444000
H61	H6	0.964200	0.272000	0.444700
H71	H7	0.706000	0.820600	0.543500
H81	H8	0.584300	0.979100	0.573000
H91	H9	0.504800	0.960200	0.537600
H101	H10	0.436200	0.939500	0.501900
H111	H11	0.374700	0.915400	0.461900
H121	H12	0.512100	0.754600	0.448000
H131	H13	0.609000	0.949000	0.701700
H141	H14	0.752200	0.803500	0.675900
H151	H15	0.727900	0.736700	0.714300
H161	H16	0.712400	0.687500	0.753400
H171	H17	0.686600	0.639200	0.796600
H181	H18	0.543300	0.794200	0.807900
H191	H19	0.518700	0.795800	0.698000
H201	H20	0.365700	0.649800	0.710600
H211	H21	0.349100	0.697700	0.754300
H221	H22	0.335400	0.749000	0.793000
H231	H23	0.308400	0.823900	0.829400
H241	H24	0.462700	0.957000	0.803800
H251	H25	0.437500	0.918300	0.705100
H261	H26	0.446700	0.128900	0.693600
H271	H27	0.512700	0.138900	0.733200
H281	H28	0.562400	0.139200	0.775000
H291	H29	0.630300	0.128400	0.813700
H301	H30	0.639200	0.918500	0.802700
H311	H31	0.868900	0.839800	0.945300
H321	H32	0.655600	0.863800	0.935800
H331	H33	0.639600	0.792100	0.974000
H341	H34	0.632800	0.722000	0.009800
H351	H35	0.636600	0.644400	0.047000
H361	H36	0.850800	0.647300	0.043800
H371	H37	0.516200	0.674700	0.851000
H381	H38	0.569100	0.989900	0.616000
H391	H39	0.549100	0.041600	0.634800
H401	H40	0.715700	0.232300	0.622600
H411	H41	0.774300	0.206500	0.637200
H421	H42	0.001200	0.949800	0.614700
H431	H43	0.008200	0.885600	0.628700
H441	H44	0.774600	0.171400	0.873800
H451	H45	0.840800	0.166300	0.886800
H461	H46	0.931700	0.097400	0.889600
H471	H47	0.937700	0.033900	0.904000
H481	H48	0.332200	0.831700	0.949400
H491	H49	0.474300	0.990500	0.938400
H501	H50	0.534000	0.951500	0.977100
H511	H51	0.586000	0.909700	0.014100
H521	H52	0.624000	0.869300	0.056000
H531	H53	0.464200	0.728000	0.055300
H541	H54	0.206000	0.179400	0.956500
H551	H55	0.084300	0.020900	0.927000
H561	H56	0.004800	0.039800	0.962400
H571	H57	0.936200	0.060500	0.998100
H581	H58	0.874700	0.084600	0.038100
H591	H59	0.012100	0.245400	0.052000
H601	H60	0.109000	0.051000	0.798300
H611	H61	0.252200	0.196500	0.824100
H621	H62	0.227900	0.263300	0.785700
H631	H63	0.212400	0.312500	0.746600
H641	H64	0.186600	0.360800	0.703400
H651	H65	0.043300	0.205800	0.692100
H661	H66	0.018700	0.204200	0.802000
H671	H67	0.865700	0.350200	0.789400
H681	H68	0.849100	0.302300	0.745700
H691	H69	0.835400	0.251000	0.707000
H701	H70	0.808400	0.176100	0.670600
H711	H71	0.962700	0.043000	0.696200
H721	H72	0.937500	0.081700	0.794900
H731	H73	0.946700	0.871100	0.806400
H741	H74	0.012700	0.861100	0.766800
H751	H75	0.062400	0.860800	0.725000
H761	H76	0.130300	0.871600	0.686300
H771	H77	0.139200	0.081500	0.697300
H781	H78	0.368900	0.160200	0.554700
H791	H79	0.155600	0.136200	0.564200
H801	H80	0.139600	0.207900	0.526000
H811	H81	0.132800	0.278000	0.490200
H821	H82	0.136600	0.355600	0.453000
H831	H83	0.350800	0.352700	0.456200
H841	H84	0.016200	0.325300	0.649000
H851	H85	0.069100	0.010100	0.884000
H861	H86	0.049100	0.958400	0.865200
H871	H87	0.215700	0.767700	0.877400
H881	H88	0.274300	0.793500	0.862800
H891	H89	0.501200	0.050200	0.885300
H901	H90	0.508200	0.114400	0.871300
H911	H91	0.274600	0.828600	0.626200
H921	H92	0.340800	0.833700	0.613200
H931	H93	0.431700	0.902600	0.610400
H941	H94	0.437700	0.966100	0.596000
H951	H95	0.667800	0.668300	0.449400
H961	H96	0.525700	0.509500	0.438400
H971	H97	0.466000	0.548500	0.477100
H981	H98	0.414000	0.590300	0.514100
H991	H99	0.376000	0.630700	0.556000
H1001	H100	0.535800	0.772000	0.555300
H1011	H101	0.794000	0.320600	0.456500
H1021	H102	0.915700	0.479100	0.427000
H1031	H103	0.995200	0.460200	0.462400
H1041	H104	0.063800	0.439500	0.498100
H1051	H105	0.125300	0.415400	0.538100
H1061	H106	0.987900	0.254600	0.552000
H1071	H107	0.891000	0.449000	0.298300
H1081	H108	0.747800	0.303500	0.324100
H1091	H109	0.772100	0.236700	0.285700
H1101	H110	0.787600	0.187500	0.246600
H1111	H111	0.813400	0.139200	0.203400
H1121	H112	0.956700	0.294200	0.192100
H1131	H113	0.981300	0.295800	0.302000
H1141	H114	0.134300	0.149800	0.289400
H1151	H115	0.150900	0.197700	0.245700
H1161	H116	0.164600	0.249000	0.207000
H1171	H117	0.191600	0.323900	0.170600
H1181	H118	0.037300	0.457000	0.196200
H1191	H119	0.062500	0.418300	0.294900
H1201	H120	0.053300	0.628900	0.306400
H1211	H121	0.987300	0.638900	0.266800
H1221	H122	0.937600	0.639200	0.225000
H1231	H123	0.869700	0.628400	0.186300
H1241	H124	0.860800	0.418500	0.197300
H1251	H125	0.631100	0.339800	0.054700
H1261	H126	0.844400	0.363800	0.064200
H1271	H127	0.860400	0.292100	0.026000
H1281	H128	0.867200	0.222000	0.990200
H1291	H129	0.863400	0.144400	0.953000
H1301	H130	0.649200	0.147300	0.956200
H1311	H131	0.983800	0.174700	0.149000
H1321	H132	0.930900	0.489900	0.384000
H1331	H133	0.950900	0.541600	0.365200
H1341	H134	0.784300	0.732300	0.377400
H1351	H135	0.725700	0.706500	0.362800
H1361	H136	0.498800	0.449800	0.385300
H1371	H137	0.491800	0.385600	0.371300
H1381	H138	0.725400	0.671400	0.126200
H1391	H139	0.659200	0.666300	0.113200
H1401	H140	0.568300	0.597400	0.110400
H1411	H141	0.562300	0.533900	0.096000
H1421	H142	0.167800	0.331700	0.050600
H1431	H143	0.025700	0.490500	0.061600
H1441	H144	0.966000	0.451500	0.022900
H1451	H145	0.914000	0.409700	0.985900
H1461	H146	0.876000	0.369300	0.944000
H1471	H147	0.035800	0.228000	0.944700
H1481	H148	0.294000	0.679400	0.043500
H1491	H149	0.415700	0.520900	0.073000
H1501	H150	0.495200	0.539800	0.037600
H1511	H151	0.563800	0.560500	0.001900
H1521	H152	0.625300	0.584600	0.961900
H1531	H153	0.487900	0.745400	0.948000
H1541	H154	0.391000	0.551000	0.201700
H1551	H155	0.247800	0.696500	0.175900
H1561	H156	0.272100	0.763300	0.214300
H1571	H157	0.287600	0.812500	0.253400
H1581	H158	0.313400	0.860800	0.296600
H1591	H159	0.456700	0.705800	0.307900
H1601	H160	0.481300	0.704200	0.198000
H1611	H161	0.634300	0.850200	0.210600
H1621	H162	0.650900	0.802300	0.254300
H1631	H163	0.664600	0.751000	0.293000
H1641	H164	0.691600	0.676100	0.329400
H1651	H165	0.537300	0.543000	0.303800
H1661	H166	0.562500	0.581700	0.205100
H1671	H167	0.553300	0.371100	0.193600
H1681	H168	0.487300	0.361100	0.233200
H1691	H169	0.437600	0.360800	0.275000
H1701	H170	0.369700	0.371600	0.313700
H1711	H171	0.360800	0.581500	0.302700
H1721	H172	0.131100	0.660200	0.445300
H1731	H173	0.344400	0.636200	0.435800
H1741	H174	0.360400	0.707900	0.474000
H1751	H175	0.367200	0.778000	0.509800
H1761	H176	0.363400	0.855600	0.547000
H1771	H177	0.149200	0.852700	0.543800
H1781	H178	0.483800	0.825300	0.351000
H1791	H179	0.430900	0.510100	0.116000
H1801	H180	0.450900	0.458400	0.134800
H1811	H181	0.284300	0.267700	0.122600
H1821	H182	0.225700	0.293500	0.137200
H1831	H183	0.998800	0.550200	0.114700
H1841	H184	0.991800	0.614400	0.128700
H1851	H185	0.225400	0.328600	0.373800
H1861	H186	0.159200	0.333700	0.386800
H1871	H187	0.068300	0.402600	0.389600
H1881	H188	0.062300	0.466100	0.404000
H1891	H189	0.167800	0.831700	0.449400
H1901	H190	0.025700	0.990500	0.438400
H1911	H191	0.966000	0.951500	0.477100
H1921	H192	0.914000	0.909700	0.514100
H1931	H193	0.876000	0.869300	0.556000
H1941	H194	0.035800	0.728000	0.555300
H1951	H195	0.294000	0.179400	0.456500
H1961	H196	0.415700	0.020900	0.427000
H1971	H197	0.495200	0.039800	0.462400
H1981	H198	0.563800	0.060500	0.498100
H1991	H199	0.625300	0.084600	0.538100
H2001	H200	0.487900	0.245400	0.552000
H2011	H201	0.391000	0.051000	0.298300
H2021	H202	0.247800	0.196500	0.324100
H2031	H203	0.272100	0.263300	0.285700
H2041	H204	0.287600	0.312500	0.246600
H2051	H205	0.313400	0.360800	0.203400
H2061	H206	0.456700	0.205800	0.192100
H2071	H207	0.481300	0.204200	0.302000
H2081	H208	0.634300	0.350200	0.289400
H2091	H209	0.650900	0.302300	0.245700
H2101	H210	0.664600	0.251000	0.207000
H2111	H211	0.691600	0.176100	0.170600
H2121	H212	0.537300	0.043000	0.196200
H2131	H213	0.562500	0.081700	0.294900
H2141	H214	0.553300	0.871100	0.306400
H2151	H215	0.487300	0.861100	0.266800
H2161	H216	0.437600	0.860800	0.225000
H2171	H217	0.369700	0.871600	0.186300
H2181	H218	0.360800	0.081500	0.197300
H2191	H219	0.131100	0.160200	0.054700
H2201	H220	0.344400	0.136200	0.064200
H2211	H221	0.360400	0.207900	0.026000
H2221	H222	0.367200	0.278000	0.990200
H2231	H223	0.363400	0.355600	0.953000
H2241	H224	0.149200	0.352700	0.956200
H2251	H225	0.483800	0.325300	0.149000
H2261	H226	0.430900	0.010100	0.384000
H2271	H227	0.450900	0.958400	0.365200
H2281	H228	0.284300	0.767700	0.377400
H2291	H229	0.225700	0.793500	0.362800
H2301	H230	0.998800	0.050200	0.385300
H2311	H231	0.991800	0.114400	0.371300
H2321	H232	0.225400	0.828600	0.126200
H2331	H233	0.159200	0.833700	0.113200
H2341	H234	0.068300	0.902600	0.110400
H2351	H235	0.062300	0.966100	0.096000
H2361	H236	0.667800	0.168300	0.050600
H2371	H237	0.525700	0.009500	0.061600
H2381	H238	0.466000	0.048500	0.022900
H2391	H239	0.414000	0.090300	0.985900
H2401	H240	0.376000	0.130700	0.944000
H2411	H241	0.535800	0.272000	0.944700
H2421	H242	0.794000	0.820600	0.043500
H2431	H243	0.915700	0.979100	0.073000
H2441	H244	0.995200	0.960200	0.037600
H2451	H245	0.063800	0.939500	0.001900
H2461	H246	0.125300	0.915400	0.961900
H2471	H247	0.987900	0.754600	0.948000
H2481	H248	0.891000	0.949000	0.201700
H2491	H249	0.747800	0.803500	0.175900
H2501	H250	0.772100	0.736700	0.214300
H2511	H251	0.787600	0.687500	0.253400
H2521	H252	0.813400	0.639200	0.296600
H2531	H253	0.956700	0.794200	0.307900
H2541	H254	0.981300	0.795800	0.198000
H2551	H255	0.134300	0.649800	0.210600
H2561	H256	0.150900	0.697700	0.254300
H2571	H257	0.164600	0.749000	0.293000
H2581	H258	0.191600	0.823900	0.329400
H2591	H259	0.037300	0.957000	0.303800
H2601	H260	0.062500	0.918300	0.205100
H2611	H261	0.053300	0.128900	0.193600
H2621	H262	0.987300	0.138900	0.233200
H2631	H263	0.937600	0.139200	0.275000
H2641	H264	0.869700	0.128400	0.313700
H2651	H265	0.860800	0.918500	0.302700
H2661	H266	0.631100	0.839800	0.445300
H2671	H267	0.844400	0.863800	0.435800
H2681	H268	0.860400	0.792100	0.474000
H2691	H269	0.867200	0.722000	0.509800
H2701	H270	0.863400	0.644400	0.547000
H2711	H271	0.649200	0.647300	0.543800
H2721	H272	0.983800	0.674700	0.351000
H2731	H273	0.930900	0.989900	0.116000
H2741	H274	0.950900	0.041600	0.134800
H2751	H275	0.784300	0.232300	0.122600
H2761	H276	0.725700	0.206500	0.137200
H2771	H277	0.498800	0.949800	0.114700
H2781	H278	0.491800	0.885600	0.128700
H2791	H279	0.725400	0.171400	0.373800
H2801	H280	0.659200	0.166300	0.386800
H2811	H281	0.568300	0.097400	0.389600
H2821	H282	0.562300	0.033900	0.404000
H2831	H283	0.332200	0.331700	0.550600
H2841	H284	0.474300	0.490500	0.561600
H2851	H285	0.534000	0.451500	0.522900
H2861	H286	0.586000	0.409700	0.485900
H2871	H287	0.624000	0.369300	0.444000
H2881	H288	0.464200	0.228000	0.444700
H2891	H289	0.206000	0.679400	0.543500
H2901	H290	0.084300	0.520900	0.573000
H2911	H291	0.004800	0.539800	0.537600
H2921	H292	0.936200	0.560500	0.501900
H2931	H293	0.874700	0.584600	0.461900
H2941	H294	0.012100	0.745400	0.448000
H2951	H295	0.109000	0.551000	0.701700
H2961	H296	0.252200	0.696500	0.675900
H2971	H297	0.227900	0.763300	0.714300
H2981	H298	0.212400	0.812500	0.753400
H2991	H299	0.186600	0.860800	0.796600
H3001	H300	0.043300	0.705800	0.807900
H3011	H301	0.018700	0.704200	0.698000
H3021	H302	0.865700	0.850200	0.710600
H3031	H303	0.849100	0.802300	0.754300
H3041	H304	0.835400	0.751000	0.793000
H3051	H305	0.808400	0.676100	0.829400
H3061	H306	0.962700	0.543000	0.803800
H3071	H307	0.937500	0.581700	0.705100
H3081	H308	0.946700	0.371100	0.693600
H3091	H309	0.012700	0.361100	0.733200
H3101	H310	0.062400	0.360800	0.775000
H3111	H311	0.130300	0.371600	0.813700
H3121	H312	0.139200	0.581500	0.802700
H3131	H313	0.368900	0.660200	0.945300
H3141	H314	0.155600	0.636200	0.935800
H3151	H315	0.139600	0.707900	0.974000
H3161	H316	0.132800	0.778000	0.009800
H3171	H317	0.136600	0.855600	0.047000
H3181	H318	0.350800	0.852700	0.043800
H3191	H319	0.016200	0.825300	0.851000
H3201	H320	0.069100	0.510100	0.616000
H3211	H321	0.049100	0.458400	0.634800
H3221	H322	0.215700	0.267700	0.622600
H3231	H323	0.274300	0.293500	0.637200
H3241	H324	0.501200	0.550200	0.614700
H3251	H325	0.508200	0.614400	0.628700
H3261	H326	0.274600	0.328600	0.873800
H3271	H327	0.340800	0.333700	0.886800
H3281	H328	0.431700	0.402600	0.889600
H3291	H329	0.437700	0.466100	0.904000
H3301	H330	0.832200	0.668300	0.949400
H3311	H331	0.974300	0.509500	0.938400
H3321	H332	0.034000	0.548500	0.977100
H3331	H333	0.086000	0.590300	0.014100
H3341	H334	0.124000	0.630700	0.056000
H3351	H335	0.964200	0.772000	0.055300
H3361	H336	0.706000	0.320600	0.956500
H3371	H337	0.584300	0.479100	0.927000
H3381	H338	0.504800	0.460200	0.962400
H3391	H339	0.436200	0.439500	0.998100
H3401	H340	0.374700	0.415400	0.038100
H3411	H341	0.512100	0.254600	0.052000
H3421	H342	0.609000	0.449000	0.798300
H3431	H343	0.752200	0.303500	0.824100
H3441	H344	0.727900	0.236700	0.785700
H3451	H345	0.712400	0.187500	0.746600
H3461	H346	0.686600	0.139200	0.703400
H3471	H347	0.543300	0.294200	0.692100
H3481	H348	0.518700	0.295800	0.802000
H3491	H349	0.365700	0.149800	0.789400
H3501	H350	0.349100	0.197700	0.745700
H3511	H351	0.335400	0.249000	0.707000
H3521	H352	0.308400	0.323900	0.670600
H3531	H353	0.462700	0.457000	0.696200
H3541	H354	0.437500	0.418300	0.794900
H3551	H355	0.446700	0.628900	0.806400
H3561	H356	0.512700	0.638900	0.766800
H3571	H357	0.562400	0.639200	0.725000
H3581	H358	0.630300	0.628400	0.686300
H3591	H359	0.639200	0.418500	0.697300
H3601	H360	0.868900	0.339800	0.554700
H3611	H361	0.655600	0.363800	0.564200
H3621	H362	0.639600	0.292100	0.526000
H3631	H363	0.632800	0.222000	0.490200
H3641	H364	0.636600	0.144400	0.453000
H3651	H365	0.850800	0.147300	0.456200
H3661	H366	0.516200	0.174700	0.649000
H3671	H367	0.569100	0.489900	0.884000
H3681	H368	0.549100	0.541600	0.865200
H3691	H369	0.715700	0.732300	0.877400
H3701	H370	0.774300	0.706500	0.862800
H3711	H371	0.001200	0.449800	0.885300
H3721	H372	0.008200	0.385600	0.871300
H3731	H373	0.774600	0.671400	0.626200
H3741	H374	0.840800	0.666300	0.613200
H3751	H375	0.931700	0.597400	0.610400
H3761	H376	0.937700	0.533900	0.596000
C11	C1	0.846800	0.054400	0.581920
C21	C2	0.872300	0.142900	0.544660
C31	C3	0.893600	0.081600	0.558810
C41	C4	0.956600	0.047600	0.551450
C51	C5	0.992500	0.071900	0.528640
C61	C6	0.968300	0.129000	0.514560
C71	C7	0.000200	0.155000	0.488640
C81	C8	0.060900	0.126500	0.477060
C91	C9	0.084200	0.151400	0.452440
C101	C10	0.048300	0.207400	0.440170
C111	C11	0.988800	0.234700	0.453060
C121	C12	0.073400	0.241800	0.414000
C131	C13	0.712000	0.919400	0.583310
C141	C14	0.665400	0.849600	0.542350
C151	C15	0.657100	0.903700	0.561620
C161	C16	0.594000	0.944400	0.559980
C171	C17	0.546300	0.932500	0.538930
C181	C18	0.559700	0.880000	0.519880
C191	C19	0.512800	0.864600	0.496770
C201	C20	0.452100	0.903400	0.490360
C211	C21	0.414900	0.888300	0.466630
C221	C22	0.437400	0.832900	0.449900
C231	C23	0.497100	0.793000	0.458600
C241	C24	0.399100	0.815100	0.423580
C251	C25	0.704700	0.931500	0.660990
C261	C26	0.633700	0.906300	0.704300
C271	C27	0.685100	0.885900	0.684720
C281	C28	0.719400	0.820200	0.688780
C291	C29	0.705000	0.780300	0.711490
C301	C30	0.656000	0.806000	0.730120
C311	C31	0.642900	0.769500	0.756600
C321	C32	0.678700	0.709100	0.764750
C331	C33	0.663400	0.680500	0.790700
C341	C34	0.614500	0.713600	0.807000
C351	C35	0.578300	0.773100	0.797030
C361	C36	0.596600	0.686000	0.834840
C371	C37	0.450900	0.693000	0.670680
C381	C38	0.483600	0.776200	0.709330
C391	C39	0.442100	0.719300	0.699390
C401	C40	0.392600	0.688900	0.716360
C411	C41	0.382900	0.717400	0.742490
C421	C42	0.423900	0.774500	0.750350
C431	C43	0.410400	0.814000	0.776300
C441	C44	0.359100	0.792400	0.795020
C451	C45	0.343600	0.836700	0.816870
C461	C46	0.380600	0.899600	0.819850
C471	C47	0.435700	0.915700	0.801270
C481	C48	0.359300	0.951900	0.842330
C491	C49	0.388100	0.011500	0.670080
C501	C50	0.453400	0.963200	0.710640
C511	C51	0.433300	0.021600	0.695360
C521	C52	0.457700	0.088400	0.703750
C531	C53	0.497700	0.094400	0.726960
C541	C54	0.515600	0.032800	0.741060
C551	C55	0.559500	0.032600	0.766440
C561	C56	0.577900	0.094500	0.780880
C571	C57	0.618800	0.087900	0.803560
C581	C58	0.643600	0.022300	0.811910
C591	C59	0.622900	0.963100	0.797020
C601	C60	0.692100	0.014100	0.836500
C611	C61	0.777000	0.903600	0.911350
C621	C62	0.822200	0.830200	0.951120
C631	C63	0.764000	0.858300	0.935960
C641	C64	0.695200	0.844900	0.944900
C651	C65	0.685900	0.802500	0.967870
C661	C66	0.744100	0.776100	0.981610
C671	C67	0.740700	0.727900	0.005200
C681	C68	0.676600	0.706100	0.016700
C691	C69	0.679100	0.659800	0.038800
C701	C70	0.742200	0.637800	0.048100
C711	C71	0.806900	0.662200	0.036700
C721	C72	0.740700	0.588300	0.073500
C731	C73	0.346800	0.945600	0.918080
C741	C74	0.372300	0.857100	0.955340
C751	C75	0.393600	0.918400	0.941190
C761	C76	0.456600	0.952400	0.948550
C771	C77	0.492500	0.928100	0.971360
C781	C78	0.468300	0.871000	0.985440
C791	C79	0.500200	0.845000	0.011360
C801	C80	0.560900	0.873500	0.022940
C811	C81	0.584200	0.848600	0.047560
C821	C82	0.548300	0.792600	0.059830
C831	C83	0.488800	0.765300	0.046940
C841	C84	0.573400	0.758200	0.086000
C851	C85	0.212000	0.080600	0.916690
C861	C86	0.165400	0.150400	0.957650
C871	C87	0.157100	0.096300	0.938380
C881	C88	0.094000	0.055600	0.940020
C891	C89	0.046300	0.067500	0.961070
C901	C90	0.059700	0.120000	0.980120
C911	C91	0.012800	0.135400	0.003230
C921	C92	0.952100	0.096600	0.009640
C931	C93	0.914900	0.111700	0.033370
C941	C94	0.937400	0.167100	0.050100
C951	C95	0.997100	0.207000	0.041400
C961	C96	0.899100	0.184900	0.076420
C971	C97	0.204700	0.068500	0.839010
C981	C98	0.133700	0.093700	0.795700
C991	C99	0.185100	0.114100	0.815280
C1001	C100	0.219400	0.179800	0.811220
C1011	C101	0.205000	0.219700	0.788510
C1021	C102	0.156000	0.194000	0.769880
C1031	C103	0.142900	0.230500	0.743400
C1041	C104	0.178700	0.290900	0.735250
C1051	C105	0.163400	0.319500	0.709300
C1061	C106	0.114500	0.286400	0.693000
C1071	C107	0.078300	0.226900	0.702970
C1081	C108	0.096600	0.314000	0.665160
C1091	C109	0.950900	0.307000	0.829320
C1101	C110	0.983600	0.223800	0.790670
C1111	C111	0.942100	0.280700	0.800610
C1121	C112	0.892600	0.311100	0.783640
C1131	C113	0.882900	0.282600	0.757510
C1141	C114	0.923900	0.225500	0.749650
C1151	C115	0.910400	0.186000	0.723700
C1161	C116	0.859100	0.207600	0.704980
C1171	C117	0.843600	0.163300	0.683130
C1181	C118	0.880600	0.100400	0.680150
C1191	C119	0.935700	0.084300	0.698730
C1201	C120	0.859300	0.048100	0.657670
C1211	C121	0.888100	0.988500	0.829920
C1221	C122	0.953400	0.036800	0.789360
C1231	C123	0.933300	0.978400	0.804640
C1241	C124	0.957700	0.911600	0.796250
C1251	C125	0.997700	0.905600	0.773040
C1261	C126	0.015600	0.967200	0.758940
C1271	C127	0.059500	0.967400	0.733560
C1281	C128	0.077900	0.905500	0.719120
C1291	C129	0.118800	0.912100	0.696440
C1301	C130	0.143600	0.977700	0.688090
C1311	C131	0.122900	0.036900	0.702980
C1321	C132	0.192100	0.985900	0.663500
C1331	C133	0.277000	0.096400	0.588650
C1341	C134	0.322200	0.169800	0.548880
C1351	C135	0.264000	0.141700	0.564040
C1361	C136	0.195200	0.155100	0.555100
C1371	C137	0.185900	0.197500	0.532130
C1381	C138	0.244100	0.223900	0.518390
C1391	C139	0.240700	0.272100	0.494800
C1401	C140	0.176600	0.293900	0.483300
C1411	C141	0.179100	0.340200	0.461200
C1421	C142	0.242200	0.362200	0.451900
C1431	C143	0.306900	0.337800	0.463300
C1441	C144	0.240700	0.411700	0.426500
C1451	C145	0.653200	0.554400	0.418080
C1461	C146	0.627700	0.642900	0.455340
C1471	C147	0.606400	0.581600	0.441190
C1481	C148	0.543400	0.547600	0.448550
C1491	C149	0.507500	0.571900	0.471360
C1501	C150	0.531700	0.629000	0.485440
C1511	C151	0.499800	0.655000	0.511360
C1521	C152	0.439100	0.626500	0.522940
C1531	C153	0.415800	0.651400	0.547560
C1541	C154	0.451700	0.707400	0.559830
C1551	C155	0.511200	0.734700	0.546940
C1561	C156	0.426600	0.741800	0.586000
C1571	C157	0.788000	0.419400	0.416690
C1581	C158	0.834600	0.349600	0.457650
C1591	C159	0.842900	0.403700	0.438380
C1601	C160	0.906000	0.444400	0.440020
C1611	C161	0.953700	0.432500	0.461070
C1621	C162	0.940300	0.380000	0.480120
C1631	C163	0.987200	0.364600	0.503230
C1641	C164	0.047900	0.403400	0.509640
C1651	C165	0.085100	0.388300	0.533370
C1661	C166	0.062600	0.332900	0.550100
C1671	C167	0.002900	0.293000	0.541400
C1681	C168	0.100900	0.315100	0.576420
C1691	C169	0.795300	0.431500	0.339010
C1701	C170	0.866300	0.406300	0.295700
C1711	C171	0.814900	0.385900	0.315280
C1721	C172	0.780600	0.320200	0.311220
C1731	C173	0.795000	0.280300	0.288510
C1741	C174	0.844000	0.306000	0.269880
C1751	C175	0.857100	0.269500	0.243400
C1761	C176	0.821300	0.209100	0.235250
C1771	C177	0.836600	0.180500	0.209300
C1781	C178	0.885500	0.213600	0.193000
C1791	C179	0.921700	0.273100	0.202970
C1801	C180	0.903400	0.186000	0.165160
C1811	C181	0.049100	0.193000	0.329320
C1821	C182	0.016400	0.276200	0.290670
C1831	C183	0.057900	0.219300	0.300610
C1841	C184	0.107400	0.188900	0.283640
C1851	C185	0.117100	0.217400	0.257510
C1861	C186	0.076100	0.274500	0.249650
C1871	C187	0.089600	0.314000	0.223700
C1881	C188	0.140900	0.292400	0.204980
C1891	C189	0.156400	0.336700	0.183130
C1901	C190	0.119400	0.399600	0.180150
C1911	C191	0.064300	0.415700	0.198730
C1921	C192	0.140700	0.451900	0.157670
C1931	C193	0.111900	0.511500	0.329920
C1941	C194	0.046600	0.463200	0.289360
C1951	C195	0.066700	0.521600	0.304640
C1961	C196	0.042300	0.588400	0.296250
C1971	C197	0.002300	0.594400	0.273040
C1981	C198	0.984400	0.532800	0.258940
C1991	C199	0.940500	0.532600	0.233560
C2001	C200	0.922100	0.594500	0.219120
C2011	C201	0.881200	0.587900	0.196440
C2021	C202	0.856400	0.522300	0.188090
C2031	C203	0.877100	0.463100	0.202980
C2041	C204	0.807900	0.514100	0.163500
C2051	C205	0.723000	0.403600	0.088650
C2061	C206	0.677800	0.330200	0.048880
C2071	C207	0.736000	0.358300	0.064040
C2081	C208	0.804800	0.344900	0.055100
C2091	C209	0.814100	0.302500	0.032130
C2101	C210	0.755900	0.276100	0.018390
C2111	C211	0.759300	0.227900	0.994800
C2121	C212	0.823400	0.206100	0.983300
C2131	C213	0.820900	0.159800	0.961200
C2141	C214	0.757800	0.137800	0.951900
C2151	C215	0.693100	0.162200	0.963300
C2161	C216	0.759300	0.088300	0.926500
C2171	C217	0.153200	0.445600	0.081920
C2181	C218	0.127700	0.357100	0.044660
C2191	C219	0.106400	0.418400	0.058810
C2201	C220	0.043400	0.452400	0.051450
C2211	C221	0.007500	0.428100	0.028640
C2221	C222	0.031700	0.371000	0.014560
C2231	C223	0.999800	0.345000	0.988640
C2241	C224	0.939100	0.373500	0.977060
C2251	C225	0.915800	0.348600	0.952440
C2261	C226	0.951700	0.292600	0.940170
C2271	C227	0.011200	0.265300	0.953060
C2281	C228	0.926600	0.258200	0.914000
C2291	C229	0.288000	0.580600	0.083310
C2301	C230	0.334600	0.650400	0.042350
C2311	C231	0.342900	0.596300	0.061620
C2321	C232	0.406000	0.555600	0.059980
C2331	C233	0.453700	0.567500	0.038930
C2341	C234	0.440300	0.620000	0.019880
C2351	C235	0.487200	0.635400	0.996770
C2361	C236	0.547900	0.596600	0.990360
C2371	C237	0.585100	0.611700	0.966630
C2381	C238	0.562600	0.667100	0.949900
C2391	C239	0.502900	0.707000	0.958600
C2401	C240	0.600900	0.684900	0.923580
C2411	C241	0.295300	0.568500	0.160990
C2421	C242	0.366300	0.593700	0.204300
C2431	C243	0.314900	0.614100	0.184720
C2441	C244	0.280600	0.679800	0.188780
C2451	C245	0.295000	0.719700	0.211490
C2461	C246	0.344000	0.694000	0.230120
C2471	C247	0.357100	0.730500	0.256600
C2481	C248	0.321300	0.790900	0.264750
C2491	C249	0.336600	0.819500	0.290700
C2501	C250	0.385500	0.786400	0.307000
C2511	C251	0.421700	0.726900	0.297030
C2521	C252	0.403400	0.814000	0.334840
C2531	C253	0.549100	0.807000	0.170680
C2541	C254	0.516400	0.723800	0.209330
C2551	C255	0.557900	0.780700	0.199390
C2561	C256	0.607400	0.811100	0.216360
C2571	C257	0.617100	0.782600	0.242490
C2581	C258	0.576100	0.725500	0.250350
C2591	C259	0.589600	0.686000	0.276300
C2601	C260	0.640900	0.707600	0.295020
C2611	C261	0.656400	0.663300	0.316870
C2621	C262	0.619400	0.600400	0.319850
C2631	C263	0.564300	0.584300	0.301270
C2641	C264	0.640700	0.548100	0.342330
C2651	C265	0.611900	0.488500	0.170080
C2661	C266	0.546600	0.536800	0.210640
C2671	C267	0.566700	0.478400	0.195360
C2681	C268	0.542300	0.411600	0.203750
C2691	C269	0.502300	0.405600	0.226960
C2701	C270	0.484400	0.467200	0.241060
C2711	C271	0.440500	0.467400	0.266440
C2721	C272	0.422100	0.405500	0.280880
C2731	C273	0.381200	0.412100	0.303560
C2741	C274	0.356400	0.477700	0.311910
C2751	C275	0.377100	0.536900	0.297020
C2761	C276	0.307900	0.485900	0.336500
C2771	C277	0.223000	0.596400	0.411350
C2781	C278	0.177800	0.669800	0.451120
C2791	C279	0.236000	0.641700	0.435960
C2801	C280	0.304800	0.655100	0.444900
C2811	C281	0.314100	0.697500	0.467870
C2821	C282	0.255900	0.723900	0.481610
C2831	C283	0.259300	0.772100	0.505200
C2841	C284	0.323400	0.793900	0.516700
C2851	C285	0.320900	0.840200	0.538800
C2861	C286	0.257800	0.862200	0.548100
C2871	C287	0.193100	0.837800	0.536700
C2881	C288	0.259300	0.911700	0.573500
C2891	C289	0.153200	0.945600	0.418080
C2901	C290	0.127700	0.857100	0.455340
C2911	C291	0.106400	0.918400	0.441190
C2921	C292	0.043400	0.952400	0.448550
C2931	C293	0.007500	0.928100	0.471360
C2941	C294	0.031700	0.871000	0.485440
C2951	C295	0.999800	0.845000	0.511360
C2961	C296	0.939100	0.873500	0.522940
C2971	C297	0.915800	0.848600	0.547560
C2981	C298	0.951700	0.792600	0.559830
C2991	C299	0.011200	0.765300	0.546940
C3001	C300	0.926600	0.758200	0.586000
C3011	C301	0.288000	0.080600	0.416690
C3021	C302	0.334600	0.150400	0.457650
C3031	C303	0.342900	0.096300	0.438380
C3041	C304	0.406000	0.055600	0.440020
C3051	C305	0.453700	0.067500	0.461070
C3061	C306	0.440300	0.120000	0.480120
C3071	C307	0.487200	0.135400	0.503230
C3081	C308	0.547900	0.096600	0.509640
C3091	C309	0.585100	0.111700	0.533370
C3101	C310	0.562600	0.167100	0.550100
C3111	C311	0.502900	0.207000	0.541400
C3121	C312	0.600900	0.184900	0.576420
C3131	C313	0.295300	0.068500	0.339010
C3141	C314	0.366300	0.093700	0.295700
C3151	C315	0.314900	0.114100	0.315280
C3161	C316	0.280600	0.179800	0.311220
C3171	C317	0.295000	0.219700	0.288510
C3181	C318	0.344000	0.194000	0.269880
C3191	C319	0.357100	0.230500	0.243400
C3201	C320	0.321300	0.290900	0.235250
C3211	C321	0.336600	0.319500	0.209300
C3221	C322	0.385500	0.286400	0.193000
C3231	C323	0.421700	0.226900	0.202970
C3241	C324	0.403400	0.314000	0.165160
C3251	C325	0.549100	0.307000	0.329320
C3261	C326	0.516400	0.223800	0.290670
C3271	C327	0.557900	0.280700	0.300610
C3281	C328	0.607400	0.311100	0.283640
C3291	C329	0.617100	0.282600	0.257510
C3301	C330	0.576100	0.225500	0.249650
C3311	C331	0.589600	0.186000	0.223700
C3321	C332	0.640900	0.207600	0.204980
C3331	C333	0.656400	0.163300	0.183130
C3341	C334	0.619400	0.100400	0.180150
C3351	C335	0.564300	0.084300	0.198730
C3361	C336	0.640700	0.048100	0.157670
C3371	C337	0.611900	0.988500	0.329920
C3381	C338	0.546600	0.036800	0.289360
C3391	C339	0.566700	0.978400	0.304640
C3401	C340	0.542300	0.911600	0.296250
C3411	C341	0.502300	0.905600	0.273040
C3421	C342	0.484400	0.967200	0.258940
C3431	C343	0.440500	0.967400	0.233560
C3441	C344	0.422100	0.905500	0.219120
C3451	C345	0.381200	0.912100	0.196440
C3461	C346	0.356400	0.977700	0.188090
C3471	C347	0.377100	0.036900	0.202980
C3481	C348	0.307900	0.985900	0.163500
C3491	C349	0.223000	0.096400	0.088650
C3501	C350	0.177800	0.169800	0.048880
C3511	C351	0.236000	0.141700	0.064040
C3521	C352	0.304800	0.155100	0.055100
C3531	C353	0.314100	0.197500	0.032130
C3541	C354	0.255900	0.223900	0.018390
C3551	C355	0.259300	0.272100	0.994800
C3561	C356	0.323400	0.293900	0.983300
C3571	C357	0.320900	0.340200	0.961200
C3581	C358	0.257800	0.362200	0.951900
C3591	C359	0.193100	0.337800	0.963300
C3601	C360	0.259300	0.411700	0.926500
C3611	C361	0.653200	0.054400	0.081920
C3621	C362	0.627700	0.142900	0.044660
C3631	C363	0.606400	0.081600	0.058810
C3641	C364	0.543400	0.047600	0.051450
C3651	C365	0.507500	0.071900	0.028640
C3661	C366	0.531700	0.129000	0.014560
C3671	C367	0.499800	0.155000	0.988640
C3681	C368	0.439100	0.126500	0.977060
C3691	C369	0.415800	0.151400	0.952440
C3701	C370	0.451700	0.207400	0.940170
C3711	C371	0.511200	0.234700	0.953060
C3721	C372	0.426600	0.241800	0.914000
C3731	C373	0.788000	0.919400	0.083310
C3741	C374	0.834600	0.849600	0.042350
C3751	C375	0.842900	0.903700	0.061620
C3761	C376	0.906000	0.944400	0.059980
C3771	C377	0.953700	0.932500	0.038930
C3781	C378	0.940300	0.880000	0.019880
C3791	C379	0.987200	0.864600	0.996770
C3801	C380	0.047900	0.903400	0.990360
C3811	C381	0.085100	0.888300	0.966630
C3821	C382	0.062600	0.832900	0.949900
C3831	C383	0.002900	0.793000	0.958600
C3841	C384	0.100900	0.815100	0.923580
C3851	C385	0.795300	0.931500	0.160990
C3861	C386	0.866300	0.906300	0.204300
C3871	C387	0.814900	0.885900	0.184720
C3881	C388	0.780600	0.820200	0.188780
C3891	C389	0.795000	0.780300	0.211490
C3901	C390	0.844000	0.806000	0.230120
C3911	C391	0.857100	0.769500	0.256600
C3921	C392	0.821300	0.709100	0.264750
C3931	C393	0.836600	0.680500	0.290700
C3941	C394	0.885500	0.713600	0.307000
C3951	C395	0.921700	0.773100	0.297030
C3961	C396	0.903400	0.686000	0.334840
C3971	C397	0.049100	0.693000	0.170680
C3981	C398	0.016400	0.776200	0.209330
C3991	C399	0.057900	0.719300	0.199390
C4001	C400	0.107400	0.688900	0.216360
C4011	C401	0.117100	0.717400	0.242490
C4021	C402	0.076100	0.774500	0.250350
C4031	C403	0.089600	0.814000	0.276300
C4041	C404	0.140900	0.792400	0.295020
C4051	C405	0.156400	0.836700	0.316870
C4061	C406	0.119400	0.899600	0.319850
C4071	C407	0.064300	0.915700	0.301270
C4081	C408	0.140700	0.951900	0.342330
C4091	C409	0.111900	0.011500	0.170080
C4101	C410	0.046600	0.963200	0.210640
C4111	C411	0.066700	0.021600	0.195360
C4121	C412	0.042300	0.088400	0.203750
C4131	C413	0.002300	0.094400	0.226960
C4141	C414	0.984400	0.032800	0.241060
C4151	C415	0.940500	0.032600	0.266440
C4161	C416	0.922100	0.094500	0.280880
C4171	C417	0.881200	0.087900	0.303560
C4181	C418	0.856400	0.022300	0.311910
C4191	C419	0.877100	0.963100	0.297020
C4201	C420	0.807900	0.014100	0.336500
C4211	C421	0.723000	0.903600	0.411350
C4221	C422	0.677800	0.830200	0.451120
C4231	C423	0.736000	0.858300	0.435960
C4241	C424	0.804800	0.844900	0.444900
C4251	C425	0.814100	0.802500	0.467870
C4261	C426	0.755900	0.776100	0.481610
C4271	C427	0.759300	0.727900	0.505200
C4281	C428	0.823400	0.706100	0.516700
C4291	C429	0.820900	0.659800	0.538800
C4301	C430	0.757800	0.637800	0.548100
C4311	C431	0.693100	0.662200	0.536700
C4321	C432	0.759300	0.588300	0.573500
C4331	C433	0.346800	0.445600	0.581920
C4341	C434	0.372300	0.357100	0.544660
C4351	C435	0.393600	0.418400	0.558810
C4361	C436	0.456600	0.452400	0.551450
C4371	C437	0.492500	0.428100	0.528640
C4381	C438	0.468300	0.371000	0.514560
C4391	C439	0.500200	0.345000	0.488640
C4401	C440	0.560900	0.373500	0.477060
C4411	C441	0.584200	0.348600	0.452440
C4421	C442	0.548300	0.292600	0.440170
C4431	C443	0.488800	0.265300	0.453060
C4441	C444	0.573400	0.258200	0.414000
C4451	C445	0.212000	0.580600	0.583310
C4461	C446	0.165400	0.650400	0.542350
C4471	C447	0.157100	0.596300	0.561620
C4481	C448	0.094000	0.555600	0.559980
C4491	C449	0.046300	0.567500	0.538930
C4501	C450	0.059700	0.620000	0.519880
C4511	C451	0.012800	0.635400	0.496770
C4521	C452	0.952100	0.596600	0.490360
C4531	C453	0.914900	0.611700	0.466630
C4541	C454	0.937400	0.667100	0.449900
C4551	C455	0.997100	0.707000	0.458600
C4561	C456	0.899100	0.684900	0.423580
C4571	C457	0.204700	0.568500	0.660990
C4581	C458	0.133700	0.593700	0.704300
C4591	C459	0.185100	0.614100	0.684720
C4601	C460	0.219400	0.679800	0.688780
C4611	C461	0.205000	0.719700	0.711490
C4621	C462	0.156000	0.694000	0.730120
C4631	C463	0.142900	0.730500	0.756600
C4641	C464	0.178700	0.790900	0.764750
C4651	C465	0.163400	0.819500	0.790700
C4661	C466	0.114500	0.786400	0.807000
C4671	C467	0.078300	0.726900	0.797030
C4681	C468	0.096600	0.814000	0.834840
C4691	C469	0.950900	0.807000	0.670680
C4701	C470	0.983600	0.723800	0.709330
C4711	C471	0.942100	0.780700	0.699390
C4721	C472	0.892600	0.811100	0.716360
C4731	C473	0.882900	0.782600	0.742490
C4741	C474	0.923900	0.725500	0.750350
C4751	C475	0.910400	0.686000	0.776300
C4761	C476	0.859100	0.707600	0.795020
C4771	C477	0.843600	0.663300	0.816870
C4781	C478	0.880600	0.600400	0.819850
C4791	C479	0.935700	0.584300	0.801270
C4801	C480	0.859300	0.548100	0.842330
C4811	C481	0.888100	0.488500	0.670080
C4821	C482	0.953400	0.536800	0.710640
C4831	C483	0.933300	0.478400	0.695360
C4841	C484	0.957700	0.411600	0.703750
C4851	C485	0.997700	0.405600	0.726960
C4861	C486	0.015600	0.467200	0.741060
C4871	C487	0.059500	0.467400	0.766440
C4881	C488	0.077900	0.405500	0.780880
C4891	C489	0.118800	0.412100	0.803560
C4901	C490	0.143600	0.477700	0.811910
C4911	C491	0.122900	0.536900	0.797020
C4921	C492	0.192100	0.485900	0.836500
C4931	C493	0.277000	0.596400	0.911350
C4941	C494	0.322200	0.669800	0.951120
C4951	C495	0.264000	0.641700	0.935960
C4961	C496	0.195200	0.655100	0.944900
C4971	C497	0.185900	0.697500	0.967870
C4981	C498	0.244100	0.723900	0.981610
C4991	C499	0.240700	0.772100	0.005200
C5001	C500	0.176600	0.793900	0.016700
C5011	C501	0.179100	0.840200	0.038800
C5021	C502	0.242200	0.862200	0.048100
C5031	C503	0.306900	0.837800	0.036700
C5041	C504	0.240700	0.911700	0.073500
C5051	C505	0.846800	0.554400	0.918080
C5061	C506	0.872300	0.642900	0.955340
C5071	C507	0.893600	0.581600	0.941190
C5081	C508	0.956600	0.547600	0.948550
C5091	C509	0.992500	0.571900	0.971360
C5101	C510	0.968300	0.629000	0.985440
C5111	C511	0.000200	0.655000	0.011360
C5121	C512	0.060900	0.626500	0.022940
C5131	C513	0.084200	0.651400	0.047560
C5141	C514	0.048300	0.707400	0.059830
C5151	C515	0.988800	0.734700	0.046940
C5161	C516	0.073400	0.741800	0.086000
C5171	C517	0.712000	0.419400	0.916690
C5181	C518	0.665400	0.349600	0.957650
C5191	C519	0.657100	0.403700	0.938380
C5201	C520	0.594000	0.444400	0.940020
C5211	C521	0.546300	0.432500	0.961070
C5221	C522	0.559700	0.380000	0.980120
C5231	C523	0.512800	0.364600	0.003230
C5241	C524	0.452100	0.403400	0.009640
C5251	C525	0.414900	0.388300	0.033370
C5261	C526	0.437400	0.332900	0.050100
C5271	C527	0.497100	0.293000	0.041400
C5281	C528	0.399100	0.315100	0.076420
C5291	C529	0.704700	0.431500	0.839010
C5301	C530	0.633700	0.406300	0.795700
C5311	C531	0.685100	0.385900	0.815280
C5321	C532	0.719400	0.320200	0.811220
C5331	C533	0.705000	0.280300	0.788510
C5341	C534	0.656000	0.306000	0.769880
C5351	C535	0.642900	0.269500	0.743400
C5361	C536	0.678700	0.209100	0.735250
C5371	C537	0.663400	0.180500	0.709300
C5381	C538	0.614500	0.213600	0.693000
C5391	C539	0.578300	0.273100	0.702970
C5401	C540	0.596600	0.186000	0.665160
C5411	C541	0.450900	0.193000	0.829320
C5421	C542	0.483600	0.276200	0.790670
C5431	C543	0.442100	0.219300	0.800610
C5441	C544	0.392600	0.188900	0.783640
C5451	C545	0.382900	0.217400	0.757510
C5461	C546	0.423900	0.274500	0.749650
C5471	C547	0.410400	0.314000	0.723700
C5481	C548	0.359100	0.292400	0.704980
C5491	C549	0.343600	0.336700	0.683130
C5501	C550	0.380600	0.399600	0.680150
C5511	C551	0.435700	0.415700	0.698730
C5521	C552	0.359300	0.451900	0.657670
C5531	C553	0.388100	0.511500	0.829920
C5541	C554	0.453400	0.463200	0.789360
C5551	C555	0.433300	0.521600	0.804640
C5561	C556	0.457700	0.588400	0.796250
C5571	C557	0.497700	0.594400	0.773040
C5581	C558	0.515600	0.532800	0.758940
C5591	C559	0.559500	0.532600	0.733560
C5601	C560	0.577900	0.594500	0.719120
C5611	C561	0.618800	0.587900	0.696440
C5621	C562	0.643600	0.522300	0.688090
C5631	C563	0.622900	0.463100	0.702980
C5641	C564	0.692100	0.514100	0.663500
C5651	C565	0.777000	0.403600	0.588650
C5661	C566	0.822200	0.330200	0.548880
C5671	C567	0.764000	0.358300	0.564040
C5681	C568	0.695200	0.344900	0.555100
C5691	C569	0.685900	0.302500	0.532130
C5701	C570	0.744100	0.276100	0.518390
C5711	C571	0.740700	0.227900	0.494800
C5721	C572	0.676600	0.206100	0.483300
C5731	C573	0.679100	0.159800	0.461200
C5741	C574	0.742200	0.137800	0.451900
C5751	C575	0.806900	0.162200	0.463300
C5761	C576	0.740700	0.088300	0.426500
N11	N1	0.963900	0.210500	0.477340
N21	N2	0.908200	0.165900	0.522870
N31	N3	0.533000	0.808000	0.481330
N41	N4	0.618600	0.837200	0.522400
N51	N5	0.618500	0.867800	0.726300
N61	N6	0.591400	0.801500	0.772470
N71	N7	0.475100	0.803700	0.734390
N81	N8	0.450400	0.874200	0.780280
N91	N9	0.494300	0.967300	0.732850
N101	N10	0.580700	0.966000	0.774930
N111	N11	0.812800	0.790800	0.973330
N121	N12	0.805000	0.708300	0.014850
N131	N13	0.463900	0.789500	0.022660
N141	N14	0.408200	0.834100	0.977130
N151	N15	0.033000	0.192000	0.018670
N161	N16	0.118600	0.162800	0.977600
N171	N17	0.118500	0.132200	0.773700
N181	N18	0.091400	0.198500	0.727530
N191	N19	0.975100	0.196300	0.765610
N201	N20	0.950400	0.125800	0.719720
N211	N21	0.994300	0.032700	0.767150
N221	N22	0.080700	0.034000	0.725070
N231	N23	0.312800	0.209200	0.526670
N241	N24	0.305000	0.291700	0.485150
N251	N25	0.536100	0.710500	0.522660
N261	N26	0.591800	0.665900	0.477130
N271	N27	0.967000	0.308000	0.518670
N281	N28	0.881400	0.337200	0.477600
N291	N29	0.881500	0.367800	0.273700
N301	N30	0.908600	0.301500	0.227530
N311	N31	0.024900	0.303700	0.265610
N321	N32	0.049600	0.374200	0.219720
N331	N33	0.005700	0.467300	0.267150
N341	N34	0.919300	0.466000	0.225070
N351	N35	0.687200	0.290800	0.026670
N361	N36	0.695000	0.208300	0.985150
N371	N37	0.036100	0.289500	0.977340
N381	N38	0.091800	0.334100	0.022870
N391	N39	0.467000	0.692000	0.981330
N401	N40	0.381400	0.662800	0.022400
N411	N41	0.381500	0.632200	0.226300
N421	N42	0.408600	0.698500	0.272470
N431	N43	0.524900	0.696300	0.234390
N441	N44	0.549600	0.625800	0.280280
N451	N45	0.505700	0.532700	0.232850
N461	N46	0.419300	0.534000	0.274930
N471	N47	0.187200	0.709200	0.473330
N481	N48	0.195000	0.791700	0.514850
N491	N49	0.036100	0.789500	0.522660
N501	N50	0.091800	0.834100	0.477130
N511	N51	0.467000	0.192000	0.518670
N521	N52	0.381400	0.162800	0.477600
N531	N53	0.381500	0.132200	0.273700
N541	N54	0.408600	0.198500	0.227530
N551	N55	0.524900	0.196300	0.265610
N561	N56	0.549600	0.125800	0.219720
N571	N57	0.505700	0.032700	0.267150
N581	N58	0.419300	0.034000	0.225070
N591	N59	0.187200	0.209200	0.026670
N601	N60	0.195000	0.291700	0.985150
N611	N61	0.536100	0.210500	0.977340
N621	N62	0.591800	0.165900	0.022870
N631	N63	0.967000	0.808000	0.981330
N641	N64	0.881400	0.837200	0.022400
N651	N65	0.881500	0.867800	0.226300
N661	N66	0.908600	0.801500	0.272470
N671	N67	0.024900	0.803700	0.234390
N681	N68	0.049600	0.874200	0.280280
N691	N69	0.005700	0.967300	0.232850
N701	N70	0.919300	0.966000	0.274930
N711	N71	0.687200	0.790800	0.473330
N721	N72	0.695000	0.708300	0.514850
N731	N73	0.463900	0.289500	0.477340
N741	N74	0.408200	0.334100	0.522870
N751	N75	0.033000	0.692000	0.481330
N761	N76	0.118600	0.662800	0.522400
N771	N77	0.118500	0.632200	0.726300
N781	N78	0.091400	0.698500	0.772470
N791	N79	0.975100	0.696300	0.734390
N801	N80	0.950400	0.625800	0.780280
N811	N81	0.994300	0.532700	0.732850
N821	N82	0.080700	0.534000	0.774930
N831	N83	0.312800	0.709200	0.973330
N841	N84	0.305000	0.791700	0.014850
N851	N85	0.963900	0.710500	0.022660
N861	N86	0.908200	0.665900	0.977130
N871	N87	0.533000	0.308000	0.018670
N881	N88	0.618600	0.337200	0.977600
N891	N89	0.618500	0.367800	0.773700
N901	N90	0.591400	0.301500	0.727530
N911	N91	0.475100	0.303700	0.765610
N921	N92	0.450400	0.374200	0.719720
N931	N93	0.494300	0.467300	0.767150
N941	N94	0.580700	0.466000	0.725070
N951	N95	0.812800	0.290800	0.526670
N961	N96	0.805000	0.208300	0.485150
O11	O1	0.793500	0.090600	0.588280
O21	O2	0.868300	0.996900	0.592600
O31	O3	0.055400	0.304000	0.409670
O41	O4	0.115100	0.204600	0.399260
O51	O5	0.700900	0.974900	0.596490
O61	O6	0.763100	0.876900	0.586880
O71	O7	0.408000	0.755000	0.413840
O81	O8	0.670600	0.987900	0.657010
O91	O9	0.640300	0.642900	0.845050
O101	O10	0.540100	0.708500	0.845420
O111	O11	0.510600	0.700300	0.660010
O121	O12	0.398900	0.662500	0.660060
O131	O13	0.303400	0.937400	0.854900
O141	O14	0.398100	0.006400	0.845760
O151	O15	0.358000	0.951300	0.667370
O161	O16	0.383500	0.059600	0.652810
O171	O17	0.726400	0.957400	0.839430
O181	O18	0.698200	0.065200	0.852090
O191	O19	0.724200	0.929700	0.899180
O201	O20	0.840600	0.916700	0.904890
O211	O21	0.684900	0.556500	0.078050
O221	O22	0.795600	0.585500	0.086210
O231	O23	0.570000	0.036100	0.619270
O241	O24	0.750400	0.200700	0.622370
O251	O25	0.986400	0.907100	0.615340
O261	O26	0.817000	0.151400	0.872970
O271	O27	0.927300	0.051700	0.888130
O281	O28	0.362600	0.864200	0.414070
O291	O29	0.756400	0.909500	0.646790
O301	O30	0.293500	0.909400	0.911720
O311	O31	0.368300	0.003100	0.907400
O321	O32	0.555400	0.696000	0.090330
O331	O33	0.615100	0.795400	0.100740
O341	O34	0.200900	0.025100	0.903510
O351	O35	0.263100	0.123100	0.913120
O361	O36	0.908000	0.245000	0.086160
O371	O37	0.170600	0.012100	0.842990
O381	O38	0.140300	0.357100	0.654950
O391	O39	0.040100	0.291500	0.654580
O401	O40	0.010600	0.299700	0.839990
O411	O41	0.898900	0.337500	0.839940
O421	O42	0.803400	0.062600	0.645100
O431	O43	0.898100	0.993600	0.654240
O441	O44	0.858000	0.048700	0.832630
O451	O45	0.883500	0.940400	0.847190
O461	O46	0.226400	0.042600	0.660570
O471	O47	0.198200	0.934800	0.647910
O481	O48	0.224200	0.070300	0.600820
O491	O49	0.340600	0.083300	0.595110
O501	O50	0.184900	0.443500	0.421950
O511	O51	0.295600	0.414500	0.413790
O521	O52	0.070000	0.963900	0.880730
O531	O53	0.250400	0.799300	0.877630
O541	O54	0.486400	0.092900	0.884660
O551	O55	0.317000	0.848600	0.627030
O561	O56	0.427300	0.948300	0.611870
O571	O57	0.862600	0.135800	0.085930
O581	O58	0.256400	0.090500	0.853210
O591	O59	0.706500	0.590600	0.411720
O601	O60	0.631700	0.496900	0.407400
O611	O61	0.444600	0.804000	0.590330
O621	O62	0.384900	0.704600	0.600740
O631	O63	0.799100	0.474900	0.403510
O641	O64	0.736900	0.376900	0.413120
O651	O65	0.092000	0.255000	0.586160
O661	O66	0.829400	0.487900	0.342990
O671	O67	0.859700	0.142900	0.154950
O681	O68	0.959900	0.208500	0.154580
O691	O69	0.989400	0.200300	0.339990
O701	O70	0.101100	0.162500	0.339940
O711	O71	0.196600	0.437400	0.145100
O721	O72	0.101900	0.506400	0.154240
O731	O73	0.142000	0.451300	0.332630
O741	O74	0.116500	0.559600	0.347190
O751	O75	0.773600	0.457400	0.160570
O761	O76	0.801800	0.565200	0.147910
O771	O77	0.775800	0.429700	0.100820
O781	O78	0.659400	0.416700	0.095110
O791	O79	0.815100	0.056500	0.921950
O801	O80	0.704400	0.085500	0.913790
O811	O81	0.930000	0.536100	0.380730
O821	O82	0.749600	0.700700	0.377630
O831	O83	0.513600	0.407100	0.384660
O841	O84	0.683000	0.651400	0.127030
O851	O85	0.572700	0.551700	0.111870
O861	O86	0.137400	0.364200	0.585930
O871	O87	0.743600	0.409500	0.353210
O881	O88	0.206500	0.409400	0.088280
O891	O89	0.131700	0.503100	0.092600
O901	O90	0.944600	0.196000	0.909670
O911	O91	0.884900	0.295400	0.899260
O921	O92	0.299100	0.525100	0.096490
O931	O93	0.236900	0.623100	0.086880
O941	O94	0.592000	0.745000	0.913840
O951	O95	0.329400	0.512100	0.157010
O961	O96	0.359700	0.857100	0.345050
O971	O97	0.459900	0.791500	0.345420
O981	O98	0.489400	0.799700	0.160010
O991	O99	0.601100	0.837500	0.160060
O1001	O100	0.696600	0.562600	0.354900
O1011	O101	0.601900	0.493600	0.345760
O1021	O102	0.642000	0.548700	0.167370
O1031	O103	0.616500	0.440400	0.152810
O1041	O104	0.273600	0.542600	0.339430
O1051	O105	0.301800	0.434800	0.352090
O1061	O106	0.275800	0.570300	0.399180
O1071	O107	0.159400	0.583300	0.404890
O1081	O108	0.315100	0.943500	0.578050
O1091	O109	0.204400	0.914500	0.586210
O1101	O110	0.430000	0.463900	0.119270
O1111	O111	0.249600	0.299300	0.122370
O1121	O112	0.013600	0.592900	0.115340
O1131	O113	0.183000	0.348600	0.372970
O1141	O114	0.072700	0.448300	0.388130
O1151	O115	0.637400	0.635800	0.914070
O1161	O116	0.243600	0.590500	0.146790
O1171	O117	0.206500	0.909400	0.411720
O1181	O118	0.131700	0.003100	0.407400
O1191	O119	0.944600	0.696000	0.590330
O1201	O120	0.884900	0.795400	0.600740
O1211	O121	0.299100	0.025100	0.403510
O1221	O122	0.236900	0.123100	0.413120
O1231	O123	0.592000	0.245000	0.586160
O1241	O124	0.329400	0.012100	0.342990
O1251	O125	0.359700	0.357100	0.154950
O1261	O126	0.459900	0.291500	0.154580
O1271	O127	0.489400	0.299700	0.339990
O1281	O128	0.601100	0.337500	0.339940
O1291	O129	0.696600	0.062600	0.145100
O1301	O130	0.601900	0.993600	0.154240
O1311	O131	0.642000	0.048700	0.332630
O1321	O132	0.616500	0.940400	0.347190
O1331	O133	0.273600	0.042600	0.160570
O1341	O134	0.301800	0.934800	0.147910
O1351	O135	0.275800	0.070300	0.100820
O1361	O136	0.159400	0.083300	0.095110
O1371	O137	0.315100	0.443500	0.921950
O1381	O138	0.204400	0.414500	0.913790
O1391	O139	0.430000	0.963900	0.380730
O1401	O140	0.249600	0.799300	0.377630
O1411	O141	0.013600	0.092900	0.384660
O1421	O142	0.183000	0.848600	0.127030
O1431	O143	0.072700	0.948300	0.111870
O1441	O144	0.637400	0.135800	0.585930
O1451	O145	0.243600	0.090500	0.353210
O1461	O146	0.706500	0.090600	0.088280
O1471	O147	0.631700	0.996900	0.092600
O1481	O148	0.444600	0.304000	0.909670
O1491	O149	0.384900	0.204600	0.899260
O1501	O150	0.799100	0.974900	0.096490
O1511	O151	0.736900	0.876900	0.086880
O1521	O152	0.092000	0.755000	0.913840
O1531	O153	0.829400	0.987900	0.157010
O1541	O154	0.859700	0.642900	0.345050
O1551	O155	0.959900	0.708500	0.345420
O1561	O156	0.989400	0.700300	0.160010
O1571	O157	0.101100	0.662500	0.160060
O1581	O158	0.196600	0.937400	0.354900
O1591	O159	0.101900	0.006400	0.345760
O1601	O160	0.142000	0.951300	0.167370
O1611	O161	0.116500	0.059600	0.152810
O1621	O162	0.773600	0.957400	0.339430
O1631	O163	0.801800	0.065200	0.352090
O1641	O164	0.775800	0.929700	0.399180
O1651	O165	0.659400	0.916700	0.404890
O1661	O166	0.815100	0.556500	0.578050
O1671	O167	0.704400	0.585500	0.586210
O1681	O168	0.930000	0.036100	0.119270
O1691	O169	0.749600	0.200700	0.122370
O1701	O170	0.513600	0.907100	0.115340
O1711	O171	0.683000	0.151400	0.372970
O1721	O172	0.572700	0.051700	0.388130
O1731	O173	0.137400	0.864200	0.914070
O1741	O174	0.743600	0.909500	0.146790
O1751	O175	0.293500	0.409400	0.588280
O1761	O176	0.368300	0.503100	0.592600
O1771	O177	0.555400	0.196000	0.409670
O1781	O178	0.615100	0.295400	0.399260
O1791	O179	0.200900	0.525100	0.596490
O1801	O180	0.263100	0.623100	0.586880
O1811	O181	0.908000	0.745000	0.413840
O1821	O182	0.170600	0.512100	0.657010
O1831	O183	0.140300	0.857100	0.845050
O1841	O184	0.040100	0.791500	0.845420
O1851	O185	0.010600	0.799700	0.660010
O1861	O186	0.898900	0.837500	0.660060
O1871	O187	0.803400	0.562600	0.854900
O1881	O188	0.898100	0.493600	0.845760
O1891	O189	0.858000	0.548700	0.667370
O1901	O190	0.883500	0.440400	0.652810
O1911	O191	0.226400	0.542600	0.839430
O1921	O192	0.198200	0.434800	0.852090
O1931	O193	0.224200	0.570300	0.899180
O1941	O194	0.340600	0.583300	0.904890
O1951	O195	0.184900	0.943500	0.078050
O1961	O196	0.295600	0.914500	0.086210
O1971	O197	0.070000	0.463900	0.619270
O1981	O198	0.250400	0.299300	0.622370
O1991	O199	0.486400	0.592900	0.615340
O2001	O200	0.317000	0.348600	0.872970
O2011	O201	0.427300	0.448300	0.888130
O2021	O202	0.862600	0.635800	0.414070
O2031	O203	0.256400	0.590500	0.646790
O2041	O204	0.793500	0.590600	0.911720
O2051	O205	0.868300	0.496900	0.907400
O2061	O206	0.055400	0.804000	0.090330
O2071	O207	0.115100	0.704600	0.100740
O2081	O208	0.700900	0.474900	0.903510
O2091	O209	0.763100	0.376900	0.913120
O2101	O210	0.408000	0.255000	0.086160
O2111	O211	0.670600	0.487900	0.842990
O2121	O212	0.640300	0.142900	0.654950
O2131	O213	0.540100	0.208500	0.654580
O2141	O214	0.510600	0.200300	0.839990
O2151	O215	0.398900	0.162500	0.839940
O2161	O216	0.303400	0.437400	0.645100
O2171	O217	0.398100	0.506400	0.654240
O2181	O218	0.358000	0.451300	0.832630
O2191	O219	0.383500	0.559600	0.847190
O2201	O220	0.726400	0.457400	0.660570
O2211	O221	0.698200	0.565200	0.647910
O2221	O222	0.724200	0.429700	0.600820
O2231	O223	0.840600	0.416700	0.595110
O2241	O224	0.684900	0.056500	0.421950
O2251	O225	0.795600	0.085500	0.413790
O2261	O226	0.570000	0.536100	0.880730
O2271	O227	0.750400	0.700700	0.877630
O2281	O228	0.986400	0.407100	0.884660
O2291	O229	0.817000	0.651400	0.627030
O2301	O230	0.927300	0.551700	0.611870
O2311	O231	0.362600	0.364200	0.085930
O2321	O232	0.756400	0.409500	0.853210
Cl11	Cl1	0.775730	0.496470	0.993480
O2331	O233	0.745100	0.561500	0.986520
O2341	O234	0.841700	0.511500	0.007760
O2351	O235	0.729500	0.459300	0.008900
O2361	O236	0.789600	0.445700	0.974200
Cl21	Cl2	0.275730	0.503530	0.506520
O2371	O237	0.245100	0.438500	0.513480
O2381	O238	0.341700	0.488500	0.492240
O2391	O239	0.229500	0.540700	0.491100
O2401	O240	0.289600	0.554300	0.525800
Cl31	Cl3	0.724270	0.996470	0.006520
O2411	O241	0.754900	0.061500	0.013480
O2421	O242	0.658300	0.011500	0.992240
O2431	O243	0.770500	0.959300	0.991100
O2441	O244	0.710400	0.945700	0.025800
Cl41	Cl4	0.224270	0.003530	0.493480
O2451	O245	0.254900	0.938500	0.486520
O2461	O246	0.158300	0.988500	0.507760
O2471	O247	0.270500	0.040700	0.508900
O2481	O248	0.210400	0.054300	0.474200
Cl51	Cl5	0.224270	0.503530	0.006520
O2491	O249	0.254900	0.438500	0.013480
O2501	O250	0.158300	0.488500	0.992240
O2511	O251	0.270500	0.540700	0.991100
O2521	O252	0.210400	0.554300	0.025800
Cl61	Cl6	0.724270	0.496470	0.493480
O2531	O253	0.754900	0.561500	0.486520
O2541	O254	0.658300	0.511500	0.507760
O2551	O255	0.770500	0.459300	0.508900
O2561	O256	0.710400	0.445700	0.474200
Cl71	Cl7	0.275730	0.003530	0.993480
O2571	O257	0.245100	0.938500	0.986520
O2581	O258	0.341700	0.988500	0.007760
O2591	O259	0.229500	0.040700	0.008900
O2601	O260	0.289600	0.054300	0.974200
Cl81	Cl8	0.775730	0.996470	0.506520
O2611	O261	0.745100	0.061500	0.513480
O2621	O262	0.841700	0.011500	0.492240
O2631	O263	0.729500	0.959300	0.491100
O2641	O264	0.789600	0.945700	0.525800
