data_NIFZEJ_charged_PM
_symmetry_space_group_name_H-M	'P1'
_cell_length_a	18.396500
_cell_length_b	18.556100
_cell_length_c	48.851300
_cell_angle_alpha	90.000000
_cell_angle_beta	90.000000
_cell_angle_gamma	90.000000
_symmetry_Int_Tables_number 1

loop_
_symmetry_equiv_pos_as_xyz
'x,y,z'

loop_
_atom_site_label
_atom_site_type_symbol
_atom_site_fract_x
_atom_site_fract_y
_atom_site_fract_z
Dy11	Dy1	0.799930	0.571460	0.878260
Dy21	Dy2	0.631080	0.401660	0.877740
Dy31	Dy3	0.682630	0.512880	0.624020
Dy41	Dy4	0.299930	0.428540	0.621740
Dy51	Dy5	0.131080	0.598340	0.622260
Dy61	Dy6	0.182630	0.487120	0.875980
Dy71	Dy7	0.700070	0.071460	0.121740
Dy81	Dy8	0.868920	0.901660	0.122260
Dy91	Dy9	0.817370	0.012880	0.375980
Dy101	Dy10	0.200070	0.928540	0.378260
Dy111	Dy11	0.368920	0.098340	0.377740
Dy121	Dy12	0.317370	0.987120	0.124020
Dy131	Dy13	0.200070	0.428540	0.121740
Dy141	Dy14	0.368920	0.598340	0.122260
Dy151	Dy15	0.317370	0.487120	0.375980
Dy161	Dy16	0.700070	0.571460	0.378260
Dy171	Dy17	0.868920	0.401660	0.377740
Dy181	Dy18	0.817370	0.512880	0.124020
Dy191	Dy19	0.299930	0.928540	0.878260
Dy201	Dy20	0.131080	0.098340	0.877740
Dy211	Dy21	0.182630	0.987120	0.624020
Dy221	Dy22	0.799930	0.071460	0.621740
Dy231	Dy23	0.631080	0.901660	0.622260
Dy241	Dy24	0.682630	0.012880	0.875980
Co11	Co1	0.108670	0.747480	0.997900
Co21	Co2	0.454750	0.614410	0.755170
Co31	Co3	0.608670	0.252520	0.502100
Co41	Co4	0.954750	0.385590	0.744830
Co51	Co5	0.391330	0.247480	0.002100
Co61	Co6	0.045250	0.114410	0.244830
Co71	Co7	0.891330	0.752520	0.497900
Co81	Co8	0.545250	0.885590	0.255170
Co91	Co9	0.891330	0.252520	0.002100
Co101	Co10	0.545250	0.385590	0.244830
Co111	Co11	0.391330	0.747480	0.497900
Co121	Co12	0.045250	0.614410	0.255170
Co131	Co13	0.608670	0.752520	0.997900
Co141	Co14	0.954750	0.885590	0.755170
Co151	Co15	0.108670	0.247480	0.502100
Co161	Co16	0.454750	0.114410	0.744830
H11	H1	0.962300	0.544900	0.868200
H21	H2	0.935300	0.475600	0.872400
H31	H3	0.796800	0.722900	0.888600
H41	H4	0.753400	0.721600	0.865800
H51	H5	0.004900	0.743100	0.948200
H61	H6	0.874300	0.575800	0.964000
H71	H7	0.530400	0.502000	0.940200
H81	H8	0.667000	0.666700	0.949900
H91	H9	0.681800	0.684600	0.832300
H101	H10	0.532100	0.544400	0.806200
H111	H11	0.943000	0.798100	0.810900
H121	H12	0.802200	0.637500	0.799700
H131	H13	0.938400	0.553700	0.003300
H141	H14	0.462000	0.544900	0.977700
H151	H15	0.655500	0.757400	0.794400
H161	H16	0.779400	0.682000	0.756000
H171	H17	0.208200	0.686100	0.043400
H181	H18	0.007800	0.539400	0.040100
H191	H19	0.409600	0.592100	0.015100
H201	H20	0.538100	0.775300	0.054700
H211	H21	0.644100	0.804300	0.753600
H221	H22	0.473900	0.698900	0.698700
H231	H23	0.549400	0.575400	0.704800
H241	H24	0.354600	0.577400	0.804800
H251	H25	0.762800	0.730400	0.715800
H261	H26	0.874200	0.948300	0.702600
H271	H27	0.090300	0.524800	0.075000
H281	H28	0.372100	0.638100	0.057400
H291	H29	0.626900	0.850000	0.710600
H301	H30	0.473600	0.353800	0.733900
H311	H31	0.425800	0.353900	0.776100
H321	H32	0.739000	0.795900	0.676500
H331	H33	0.538300	0.362600	0.693500
H341	H34	0.356100	0.363800	0.815700
H351	H35	0.632800	0.666800	0.625500
H361	H36	0.706600	0.671600	0.632900
H371	H37	0.520100	0.547300	0.606300
H381	H38	0.570700	0.531300	0.586600
H391	H39	0.864900	0.638600	0.539700
H401	H40	0.648400	0.631600	0.548300
H411	H41	0.637300	0.713200	0.512800
H421	H42	0.641800	0.791500	0.475500
H431	H43	0.873400	0.836800	0.444900
H441	H44	0.658200	0.859700	0.435400
H451	H45	0.465100	0.425200	0.892100
H461	H46	0.519000	0.394000	0.907500
H471	H47	0.462300	0.455100	0.631800
H481	H48	0.435300	0.524400	0.627600
H491	H49	0.296800	0.277100	0.611400
H501	H50	0.253400	0.278400	0.634200
H511	H51	0.504900	0.256900	0.551800
H521	H52	0.374300	0.424200	0.536000
H531	H53	0.030400	0.498000	0.559800
H541	H54	0.167000	0.333300	0.550100
H551	H55	0.181800	0.315400	0.667700
H561	H56	0.032100	0.455600	0.693800
H571	H57	0.443000	0.201900	0.689100
H581	H58	0.302200	0.362500	0.700300
H591	H59	0.438400	0.446300	0.496700
H601	H60	0.962000	0.455100	0.522300
H611	H61	0.155500	0.242600	0.705600
H621	H62	0.279400	0.318000	0.744000
H631	H63	0.708200	0.313900	0.456600
H641	H64	0.507800	0.460600	0.459900
H651	H65	0.909600	0.407900	0.484900
H661	H66	0.038100	0.224700	0.445300
H671	H67	0.144100	0.195700	0.746400
H681	H68	0.973900	0.301100	0.801300
H691	H69	0.049400	0.424600	0.795200
H701	H70	0.854600	0.422600	0.695200
H711	H71	0.262800	0.269600	0.784200
H721	H72	0.374200	0.051700	0.797400
H731	H73	0.590300	0.475200	0.425000
H741	H74	0.872100	0.361900	0.442600
H751	H75	0.126900	0.150000	0.789400
H761	H76	0.973600	0.646200	0.766100
H771	H77	0.925800	0.646100	0.723900
H781	H78	0.239000	0.204100	0.823500
H791	H79	0.038300	0.637400	0.806500
H801	H80	0.856100	0.636200	0.684300
H811	H81	0.132800	0.333200	0.874500
H821	H82	0.206600	0.328400	0.867100
H831	H83	0.020100	0.452700	0.893700
H841	H84	0.070700	0.468700	0.913400
H851	H85	0.364900	0.361400	0.960300
H861	H86	0.148400	0.368400	0.951700
H871	H87	0.137300	0.286800	0.987200
H881	H88	0.141800	0.208500	0.024500
H891	H89	0.373400	0.163200	0.055100
H901	H90	0.158200	0.140300	0.064600
H911	H91	0.965100	0.574800	0.607900
H921	H92	0.019000	0.606000	0.592500
H931	H93	0.537700	0.044900	0.131800
H941	H94	0.564700	0.975600	0.127600
H951	H95	0.703200	0.222900	0.111400
H961	H96	0.746600	0.221600	0.134200
H971	H97	0.495100	0.243100	0.051800
H981	H98	0.625700	0.075800	0.036000
H991	H99	0.969600	0.002000	0.059800
H1001	H100	0.833000	0.166700	0.050100
H1011	H101	0.818200	0.184600	0.167700
H1021	H102	0.967900	0.044400	0.193800
H1031	H103	0.557000	0.298100	0.189100
H1041	H104	0.697800	0.137500	0.200300
H1051	H105	0.561600	0.053700	0.996700
H1061	H106	0.038000	0.044900	0.022300
H1071	H107	0.844500	0.257400	0.205600
H1081	H108	0.720600	0.182000	0.244000
H1091	H109	0.291800	0.186100	0.956600
H1101	H110	0.492200	0.039400	0.959900
H1111	H111	0.090400	0.092100	0.984900
H1121	H112	0.961900	0.275300	0.945300
H1131	H113	0.855900	0.304300	0.246400
H1141	H114	0.026100	0.198900	0.301300
H1151	H115	0.950600	0.075400	0.295200
H1161	H116	0.145400	0.077400	0.195200
H1171	H117	0.737200	0.230400	0.284200
H1181	H118	0.625800	0.448300	0.297400
H1191	H119	0.409700	0.024800	0.925000
H1201	H120	0.127900	0.138100	0.942600
H1211	H121	0.873100	0.350000	0.289400
H1221	H122	0.026400	0.853800	0.266100
H1231	H123	0.074200	0.853900	0.223900
H1241	H124	0.761000	0.295900	0.323500
H1251	H125	0.961700	0.862600	0.306500
H1261	H126	0.143900	0.863800	0.184300
H1271	H127	0.867200	0.166800	0.374500
H1281	H128	0.793400	0.171600	0.367100
H1291	H129	0.979900	0.047300	0.393700
H1301	H130	0.929300	0.031300	0.413400
H1311	H131	0.635100	0.138600	0.460300
H1321	H132	0.851600	0.131600	0.451700
H1331	H133	0.862700	0.213200	0.487200
H1341	H134	0.858200	0.291500	0.524500
H1351	H135	0.626600	0.336800	0.555100
H1361	H136	0.841800	0.359700	0.564600
H1371	H137	0.034900	0.925200	0.107900
H1381	H138	0.981000	0.894000	0.092500
H1391	H139	0.037700	0.955100	0.368200
H1401	H140	0.064700	0.024400	0.372400
H1411	H141	0.203200	0.777100	0.388600
H1421	H142	0.246600	0.778400	0.365800
H1431	H143	0.995100	0.756900	0.448200
H1441	H144	0.125700	0.924200	0.464000
H1451	H145	0.469600	0.998000	0.440200
H1461	H146	0.333000	0.833300	0.449900
H1471	H147	0.318200	0.815400	0.332300
H1481	H148	0.467900	0.955600	0.306200
H1491	H149	0.057000	0.701900	0.310900
H1501	H150	0.197800	0.862500	0.299700
H1511	H151	0.061600	0.946300	0.503300
H1521	H152	0.538000	0.955100	0.477700
H1531	H153	0.344500	0.742600	0.294400
H1541	H154	0.220600	0.818000	0.256000
H1551	H155	0.791800	0.813900	0.543400
H1561	H156	0.992200	0.960600	0.540100
H1571	H157	0.590400	0.907900	0.515100
H1581	H158	0.461900	0.724700	0.554700
H1591	H159	0.355900	0.695700	0.253600
H1601	H160	0.526100	0.801100	0.198700
H1611	H161	0.450600	0.924600	0.204800
H1621	H162	0.645400	0.922600	0.304800
H1631	H163	0.237200	0.769600	0.215800
H1641	H164	0.125800	0.551700	0.202600
H1651	H165	0.909700	0.975200	0.575000
H1661	H166	0.627900	0.861900	0.557400
H1671	H167	0.373100	0.650000	0.210600
H1681	H168	0.526400	0.146200	0.233900
H1691	H169	0.574200	0.146100	0.276100
H1701	H170	0.261000	0.704100	0.176500
H1711	H171	0.461700	0.137400	0.193500
H1721	H172	0.643900	0.136200	0.315700
H1731	H173	0.367200	0.833200	0.125500
H1741	H174	0.293400	0.828400	0.132900
H1751	H175	0.479900	0.952700	0.106300
H1761	H176	0.429300	0.968700	0.086600
H1771	H177	0.135100	0.861400	0.039700
H1781	H178	0.351600	0.868400	0.048300
H1791	H179	0.362700	0.786800	0.012800
H1801	H180	0.358200	0.708500	0.975500
H1811	H181	0.126600	0.663200	0.944900
H1821	H182	0.341800	0.640300	0.935400
H1831	H183	0.534900	0.074800	0.392100
H1841	H184	0.481000	0.106000	0.407500
H1851	H185	0.037700	0.455100	0.131800
H1861	H186	0.064700	0.524400	0.127600
H1871	H187	0.203200	0.277100	0.111400
H1881	H188	0.246600	0.278400	0.134200
H1891	H189	0.995100	0.256900	0.051800
H1901	H190	0.125700	0.424200	0.036000
H1911	H191	0.469600	0.498000	0.059800
H1921	H192	0.333000	0.333300	0.050100
H1931	H193	0.318200	0.315400	0.167700
H1941	H194	0.467900	0.455600	0.193800
H1951	H195	0.057000	0.201900	0.189100
H1961	H196	0.197800	0.362500	0.200300
H1971	H197	0.061600	0.446300	0.996700
H1981	H198	0.538000	0.455100	0.022300
H1991	H199	0.344500	0.242600	0.205600
H2001	H200	0.220600	0.318000	0.244000
H2011	H201	0.791800	0.313900	0.956600
H2021	H202	0.992200	0.460600	0.959900
H2031	H203	0.590400	0.407900	0.984900
H2041	H204	0.461900	0.224700	0.945300
H2051	H205	0.355900	0.195700	0.246400
H2061	H206	0.526100	0.301100	0.301300
H2071	H207	0.450600	0.424600	0.295200
H2081	H208	0.645400	0.422600	0.195200
H2091	H209	0.237200	0.269600	0.284200
H2101	H210	0.125800	0.051700	0.297400
H2111	H211	0.909700	0.475200	0.925000
H2121	H212	0.627900	0.361900	0.942600
H2131	H213	0.373100	0.150000	0.289400
H2141	H214	0.526400	0.646200	0.266100
H2151	H215	0.574200	0.646100	0.223900
H2161	H216	0.261000	0.204100	0.323500
H2171	H217	0.461700	0.637400	0.306500
H2181	H218	0.643900	0.636200	0.184300
H2191	H219	0.367200	0.333200	0.374500
H2201	H220	0.293400	0.328400	0.367100
H2211	H221	0.479900	0.452700	0.393700
H2221	H222	0.429300	0.468700	0.413400
H2231	H223	0.135100	0.361400	0.460300
H2241	H224	0.351600	0.368400	0.451700
H2251	H225	0.362700	0.286800	0.487200
H2261	H226	0.358200	0.208500	0.524500
H2271	H227	0.126600	0.163200	0.555100
H2281	H228	0.341800	0.140300	0.564600
H2291	H229	0.534900	0.574800	0.107900
H2301	H230	0.481000	0.606000	0.092500
H2311	H231	0.537700	0.544900	0.368200
H2321	H232	0.564700	0.475600	0.372400
H2331	H233	0.703200	0.722900	0.388600
H2341	H234	0.746600	0.721600	0.365800
H2351	H235	0.495100	0.743100	0.448200
H2361	H236	0.625700	0.575800	0.464000
H2371	H237	0.969600	0.502000	0.440200
H2381	H238	0.833000	0.666700	0.449900
H2391	H239	0.818200	0.684600	0.332300
H2401	H240	0.967900	0.544400	0.306200
H2411	H241	0.557000	0.798100	0.310900
H2421	H242	0.697800	0.637500	0.299700
H2431	H243	0.561600	0.553700	0.503300
H2441	H244	0.038000	0.544900	0.477700
H2451	H245	0.844500	0.757400	0.294400
H2461	H246	0.720600	0.682000	0.256000
H2471	H247	0.291800	0.686100	0.543400
H2481	H248	0.492200	0.539400	0.540100
H2491	H249	0.090400	0.592100	0.515100
H2501	H250	0.961900	0.775300	0.554700
H2511	H251	0.855900	0.804300	0.253600
H2521	H252	0.026100	0.698900	0.198700
H2531	H253	0.950600	0.575400	0.204800
H2541	H254	0.145400	0.577400	0.304800
H2551	H255	0.737200	0.730400	0.215800
H2561	H256	0.625800	0.948300	0.202600
H2571	H257	0.409700	0.524800	0.575000
H2581	H258	0.127900	0.638100	0.557400
H2591	H259	0.873100	0.850000	0.210600
H2601	H260	0.026400	0.353800	0.233900
H2611	H261	0.074200	0.353900	0.276100
H2621	H262	0.761000	0.795900	0.176500
H2631	H263	0.961700	0.362600	0.193500
H2641	H264	0.143900	0.363800	0.315700
H2651	H265	0.867200	0.666800	0.125500
H2661	H266	0.793400	0.671600	0.132900
H2671	H267	0.979900	0.547300	0.106300
H2681	H268	0.929300	0.531300	0.086600
H2691	H269	0.635100	0.638600	0.039700
H2701	H270	0.851600	0.631600	0.048300
H2711	H271	0.862700	0.713200	0.012800
H2721	H272	0.858200	0.791500	0.975500
H2731	H273	0.626600	0.836800	0.944900
H2741	H274	0.841800	0.859700	0.935400
H2751	H275	0.034900	0.425200	0.392100
H2761	H276	0.981000	0.394000	0.407500
H2771	H277	0.462300	0.955100	0.868200
H2781	H278	0.435300	0.024400	0.872400
H2791	H279	0.296800	0.777100	0.888600
H2801	H280	0.253400	0.778400	0.865800
H2811	H281	0.504900	0.756900	0.948200
H2821	H282	0.374300	0.924200	0.964000
H2831	H283	0.030400	0.998000	0.940200
H2841	H284	0.167000	0.833300	0.949900
H2851	H285	0.181800	0.815400	0.832300
H2861	H286	0.032100	0.955600	0.806200
H2871	H287	0.443000	0.701900	0.810900
H2881	H288	0.302200	0.862500	0.799700
H2891	H289	0.438400	0.946300	0.003300
H2901	H290	0.962000	0.955100	0.977700
H2911	H291	0.155500	0.742600	0.794400
H2921	H292	0.279400	0.818000	0.756000
H2931	H293	0.708200	0.813900	0.043400
H2941	H294	0.507800	0.960600	0.040100
H2951	H295	0.909600	0.907900	0.015100
H2961	H296	0.038100	0.724700	0.054700
H2971	H297	0.144100	0.695700	0.753600
H2981	H298	0.973900	0.801100	0.698700
H2991	H299	0.049400	0.924600	0.704800
H3001	H300	0.854600	0.922600	0.804800
H3011	H301	0.262800	0.769600	0.715800
H3021	H302	0.374200	0.551700	0.702600
H3031	H303	0.590300	0.975200	0.075000
H3041	H304	0.872100	0.861900	0.057400
H3051	H305	0.126900	0.650000	0.710600
H3061	H306	0.973600	0.146200	0.733900
H3071	H307	0.925800	0.146100	0.776100
H3081	H308	0.239000	0.704100	0.676500
H3091	H309	0.038300	0.137400	0.693500
H3101	H310	0.856100	0.136200	0.815700
H3111	H311	0.132800	0.833200	0.625500
H3121	H312	0.206600	0.828400	0.632900
H3131	H313	0.020100	0.952700	0.606300
H3141	H314	0.070700	0.968700	0.586600
H3151	H315	0.364900	0.861400	0.539700
H3161	H316	0.148400	0.868400	0.548300
H3171	H317	0.137300	0.786800	0.512800
H3181	H318	0.141800	0.708500	0.475500
H3191	H319	0.373400	0.663200	0.444900
H3201	H320	0.158200	0.640300	0.435400
H3211	H321	0.965100	0.074800	0.892100
H3221	H322	0.019000	0.106000	0.907500
H3231	H323	0.962300	0.044900	0.631800
H3241	H324	0.935300	0.975600	0.627600
H3251	H325	0.796800	0.222900	0.611400
H3261	H326	0.753400	0.221600	0.634200
H3271	H327	0.004900	0.243100	0.551800
H3281	H328	0.874300	0.075800	0.536000
H3291	H329	0.530400	0.002000	0.559800
H3301	H330	0.667000	0.166700	0.550100
H3311	H331	0.681800	0.184600	0.667700
H3321	H332	0.532100	0.044400	0.693800
H3331	H333	0.943000	0.298100	0.689100
H3341	H334	0.802200	0.137500	0.700300
H3351	H335	0.938400	0.053700	0.496700
H3361	H336	0.462000	0.044900	0.522300
H3371	H337	0.655500	0.257400	0.705600
H3381	H338	0.779400	0.182000	0.744000
H3391	H339	0.208200	0.186100	0.456600
H3401	H340	0.007800	0.039400	0.459900
H3411	H341	0.409600	0.092100	0.484900
H3421	H342	0.538100	0.275300	0.445300
H3431	H343	0.644100	0.304300	0.746400
H3441	H344	0.473900	0.198900	0.801300
H3451	H345	0.549400	0.075400	0.795200
H3461	H346	0.354600	0.077400	0.695200
H3471	H347	0.762800	0.230400	0.784200
H3481	H348	0.874200	0.448300	0.797400
H3491	H349	0.090300	0.024800	0.425000
H3501	H350	0.372100	0.138100	0.442600
H3511	H351	0.626900	0.350000	0.789400
H3521	H352	0.473600	0.853800	0.766100
H3531	H353	0.425800	0.853900	0.723900
H3541	H354	0.739000	0.295900	0.823500
H3551	H355	0.538300	0.862600	0.806500
H3561	H356	0.356100	0.863800	0.684300
H3571	H357	0.632800	0.166800	0.874500
H3581	H358	0.706600	0.171600	0.867100
H3591	H359	0.520100	0.047300	0.893700
H3601	H360	0.570700	0.031300	0.913400
H3611	H361	0.864900	0.138600	0.960300
H3621	H362	0.648400	0.131600	0.951700
H3631	H363	0.637300	0.213200	0.987200
H3641	H364	0.641800	0.291500	0.024500
H3651	H365	0.873400	0.336800	0.055100
H3661	H366	0.658200	0.359700	0.064600
H3671	H367	0.465100	0.925200	0.607900
H3681	H368	0.519000	0.894000	0.592500
C11	C1	0.894100	0.669500	0.924000
C21	C2	0.655600	0.549500	0.919500
C31	C3	0.634800	0.551900	0.844900
C41	C4	0.895600	0.689300	0.838500
C51	C5	0.935700	0.659200	0.951100
C61	C6	0.608100	0.577700	0.942500
C71	C7	0.611300	0.604600	0.823000
C81	C8	0.875000	0.713100	0.809800
C91	C9	0.992900	0.703500	0.958900
C101	C10	0.914500	0.603900	0.968400
C111	C11	0.545500	0.542500	0.949800
C121	C12	0.626400	0.641100	0.955800
C131	C13	0.647500	0.669900	0.819400
C141	C14	0.558300	0.586700	0.803700
C151	C15	0.909700	0.774700	0.799700
C161	C16	0.826100	0.678500	0.793500
C171	C17	0.952400	0.590800	0.991600
C181	C18	0.504300	0.568200	0.972100
C191	C19	0.632600	0.713100	0.796800
C201	C20	0.812100	0.705200	0.767500
C211	C21	0.012000	0.633000	0.997700
C221	C22	0.529100	0.629900	0.985400
C231	C23	0.582200	0.687600	0.777900
C241	C24	0.847900	0.767300	0.758900
C251	C25	0.061100	0.620600	0.021200
C261	C26	0.496900	0.656600	0.010900
C271	C27	0.570600	0.724800	0.751100
C281	C28	0.833300	0.802600	0.732300
C291	C29	0.167700	0.656200	0.042700
C301	C30	0.049000	0.568400	0.041000
C311	C31	0.435700	0.629000	0.023400
C321	C32	0.511700	0.738200	0.046600
C331	C33	0.610100	0.783100	0.742000
C341	C34	0.508800	0.720200	0.709800
C351	C35	0.532900	0.530400	0.710400
C361	C36	0.474300	0.459800	0.742400
C371	C37	0.430300	0.460500	0.768100
C381	C38	0.369200	0.531900	0.799100
C391	C39	0.785000	0.774800	0.713000
C401	C40	0.851600	0.904000	0.705300
C411	C41	0.159500	0.602500	0.062700
C421	C42	0.098200	0.559700	0.061600
C431	C43	0.412900	0.656600	0.048700
C441	C44	0.452200	0.711800	0.060200
C451	C45	0.600300	0.810300	0.716400
C461	C46	0.549800	0.777800	0.699100
C471	C47	0.550000	0.470000	0.694300
C481	C48	0.489300	0.398500	0.727600
C491	C49	0.410900	0.398900	0.782300
C501	C50	0.346900	0.472300	0.814200
C511	C51	0.770600	0.814100	0.689700
C521	C52	0.803000	0.880400	0.685800
C531	C53	0.215500	0.590200	0.085200
C541	C54	0.429400	0.746600	0.086900
C551	C55	0.537300	0.799600	0.669800
C561	C56	0.590900	0.482900	0.668200
C571	C57	0.527600	0.403800	0.703500
C581	C58	0.369100	0.404600	0.805800
C591	C59	0.295400	0.481400	0.838100
C601	C60	0.783900	0.926300	0.661700
C611	C61	0.771800	0.571000	0.570200
C621	C62	0.756900	0.625900	0.547400
C631	C63	0.818800	0.654000	0.534400
C641	C64	0.689700	0.649000	0.539500
C651	C65	0.683000	0.698200	0.518500
C661	C66	0.744400	0.725000	0.506100
C671	C67	0.747000	0.774500	0.482100
C681	C68	0.688300	0.800500	0.468900
C691	C69	0.826200	0.827600	0.450900
C701	C70	0.698000	0.841400	0.444900
C711	C71	0.767900	0.853500	0.435800
C721	C72	0.784200	0.897200	0.410100
C731	C73	0.394100	0.330500	0.576000
C741	C74	0.155600	0.450500	0.580500
C751	C75	0.134800	0.448100	0.655100
C761	C76	0.395600	0.310700	0.661500
C771	C77	0.435700	0.340800	0.548900
C781	C78	0.108100	0.422300	0.557500
C791	C79	0.111300	0.395400	0.677000
C801	C80	0.375000	0.286900	0.690200
C811	C81	0.492900	0.296500	0.541100
C821	C82	0.414500	0.396100	0.531600
C831	C83	0.045500	0.457500	0.550200
C841	C84	0.126400	0.358900	0.544200
C851	C85	0.147500	0.330100	0.680600
C861	C86	0.058300	0.413300	0.696300
C871	C87	0.409700	0.225300	0.700300
C881	C88	0.326100	0.321500	0.706500
C891	C89	0.452400	0.409200	0.508400
C901	C90	0.004300	0.431800	0.527900
C911	C91	0.132600	0.286900	0.703200
C921	C92	0.312100	0.294800	0.732500
C931	C93	0.512000	0.367000	0.502300
C941	C94	0.029100	0.370100	0.514600
C951	C95	0.082200	0.312400	0.722100
C961	C96	0.347900	0.232700	0.741100
C971	C97	0.561100	0.379400	0.478800
C981	C98	0.996900	0.343400	0.489100
C991	C99	0.070600	0.275200	0.748900
C1001	C100	0.333300	0.197400	0.767700
C1011	C101	0.667700	0.343800	0.457300
C1021	C102	0.549000	0.431600	0.459000
C1031	C103	0.935700	0.371000	0.476600
C1041	C104	0.011700	0.261800	0.453400
C1051	C105	0.110100	0.216900	0.758000
C1061	C106	0.008800	0.279800	0.790200
C1071	C107	0.032900	0.469600	0.789600
C1081	C108	0.974300	0.540200	0.757600
C1091	C109	0.930300	0.539500	0.731900
C1101	C110	0.869200	0.468100	0.700900
C1111	C111	0.285000	0.225200	0.787000
C1121	C112	0.351600	0.096000	0.794700
C1131	C113	0.659500	0.397500	0.437300
C1141	C114	0.598200	0.440300	0.438400
C1151	C115	0.912900	0.343400	0.451300
C1161	C116	0.952200	0.288200	0.439800
C1171	C117	0.100300	0.189700	0.783600
C1181	C118	0.049800	0.222200	0.800900
C1191	C119	0.050000	0.530000	0.805700
C1201	C120	0.989300	0.601500	0.772400
C1211	C121	0.910900	0.601100	0.717700
C1221	C122	0.846900	0.527700	0.685800
C1231	C123	0.270600	0.185900	0.810300
C1241	C124	0.303000	0.119600	0.814200
C1251	C125	0.715500	0.409800	0.414800
C1261	C126	0.929400	0.253400	0.413100
C1271	C127	0.037300	0.200400	0.830200
C1281	C128	0.090900	0.517100	0.831800
C1291	C129	0.027600	0.596200	0.796500
C1301	C130	0.869100	0.595400	0.694200
C1311	C131	0.795400	0.518600	0.661900
C1321	C132	0.283900	0.073700	0.838300
C1331	C133	0.271800	0.429000	0.929800
C1341	C134	0.256900	0.374100	0.952600
C1351	C135	0.318800	0.346000	0.965600
C1361	C136	0.189700	0.351000	0.960500
C1371	C137	0.183000	0.301800	0.981500
C1381	C138	0.244400	0.275000	0.993900
C1391	C139	0.247000	0.225500	0.017900
C1401	C140	0.188300	0.199500	0.031100
C1411	C141	0.326200	0.172400	0.049100
C1421	C142	0.198000	0.158600	0.055100
C1431	C143	0.267900	0.146500	0.064200
C1441	C144	0.284200	0.102800	0.089900
C1451	C145	0.605900	0.169500	0.076000
C1461	C146	0.844400	0.049500	0.080500
C1471	C147	0.865200	0.051900	0.155100
C1481	C148	0.604400	0.189300	0.161500
C1491	C149	0.564300	0.159200	0.048900
C1501	C150	0.891900	0.077700	0.057500
C1511	C151	0.888700	0.104600	0.177000
C1521	C152	0.625000	0.213100	0.190200
C1531	C153	0.507100	0.203500	0.041100
C1541	C154	0.585500	0.103900	0.031600
C1551	C155	0.954500	0.042500	0.050200
C1561	C156	0.873600	0.141100	0.044200
C1571	C157	0.852500	0.169900	0.180600
C1581	C158	0.941700	0.086700	0.196300
C1591	C159	0.590300	0.274700	0.200300
C1601	C160	0.673900	0.178500	0.206500
C1611	C161	0.547600	0.090800	0.008400
C1621	C162	0.995700	0.068200	0.027900
C1631	C163	0.867400	0.213100	0.203200
C1641	C164	0.687900	0.205200	0.232500
C1651	C165	0.488000	0.133000	0.002300
C1661	C166	0.970900	0.129900	0.014600
C1671	C167	0.917800	0.187600	0.222100
C1681	C168	0.652100	0.267300	0.241100
C1691	C169	0.438900	0.120600	0.978800
C1701	C170	0.003100	0.156600	0.989100
C1711	C171	0.929400	0.224800	0.248900
C1721	C172	0.666700	0.302600	0.267700
C1731	C173	0.332300	0.156200	0.957300
C1741	C174	0.451000	0.068400	0.959000
C1751	C175	0.064300	0.129000	0.976600
C1761	C176	0.988300	0.238200	0.953400
C1771	C177	0.889900	0.283100	0.258000
C1781	C178	0.991200	0.220200	0.290200
C1791	C179	0.967100	0.030400	0.289600
C1801	C180	0.025700	0.959800	0.257600
C1811	C181	0.069700	0.960500	0.231900
C1821	C182	0.130800	0.031900	0.200900
C1831	C183	0.715000	0.274800	0.287000
C1841	C184	0.648400	0.404000	0.294700
C1851	C185	0.340500	0.102500	0.937300
C1861	C186	0.401800	0.059700	0.938400
C1871	C187	0.087100	0.156600	0.951300
C1881	C188	0.047800	0.211800	0.939800
C1891	C189	0.899700	0.310300	0.283600
C1901	C190	0.950200	0.277800	0.300900
C1911	C191	0.950000	0.970000	0.305700
C1921	C192	0.010700	0.898500	0.272400
C1931	C193	0.089100	0.898900	0.217700
C1941	C194	0.153100	0.972300	0.185800
C1951	C195	0.729400	0.314100	0.310300
C1961	C196	0.697000	0.380400	0.314200
C1971	C197	0.284500	0.090200	0.914800
C1981	C198	0.070600	0.246600	0.913100
C1991	C199	0.962700	0.299600	0.330200
C2001	C200	0.909100	0.982900	0.331800
C2011	C201	0.972400	0.903800	0.296500
C2021	C202	0.130900	0.904600	0.194200
C2031	C203	0.204600	0.981400	0.161900
C2041	C204	0.716100	0.426300	0.338300
C2051	C205	0.728200	0.071000	0.429800
C2061	C206	0.743100	0.125900	0.452600
C2071	C207	0.681200	0.154000	0.465600
C2081	C208	0.810300	0.149000	0.460500
C2091	C209	0.817000	0.198200	0.481500
C2101	C210	0.755600	0.225000	0.493900
C2111	C211	0.753000	0.274500	0.517900
C2121	C212	0.811700	0.300500	0.531100
C2131	C213	0.673800	0.327600	0.549100
C2141	C214	0.802000	0.341400	0.555100
C2151	C215	0.732100	0.353500	0.564200
C2161	C216	0.715800	0.397200	0.589900
C2171	C217	0.105900	0.830500	0.424000
C2181	C218	0.344400	0.950500	0.419500
C2191	C219	0.365200	0.948100	0.344900
C2201	C220	0.104400	0.810700	0.338500
C2211	C221	0.064300	0.840800	0.451100
C2221	C222	0.391900	0.922300	0.442500
C2231	C223	0.388700	0.895400	0.323000
C2241	C224	0.125000	0.786900	0.309800
C2251	C225	0.007100	0.796500	0.458900
C2261	C226	0.085500	0.896100	0.468400
C2271	C227	0.454500	0.957500	0.449800
C2281	C228	0.373600	0.858900	0.455800
C2291	C229	0.352500	0.830100	0.319400
C2301	C230	0.441700	0.913300	0.303700
C2311	C231	0.090300	0.725300	0.299700
C2321	C232	0.173900	0.821500	0.293500
C2331	C233	0.047600	0.909200	0.491600
C2341	C234	0.495700	0.931800	0.472100
C2351	C235	0.367400	0.786900	0.296800
C2361	C236	0.187900	0.794800	0.267500
C2371	C237	0.988000	0.867000	0.497700
C2381	C238	0.470900	0.870100	0.485400
C2391	C239	0.417800	0.812400	0.277900
C2401	C240	0.152100	0.732700	0.258900
C2411	C241	0.938900	0.879400	0.521200
C2421	C242	0.503100	0.843400	0.510900
C2431	C243	0.429400	0.775200	0.251100
C2441	C244	0.166700	0.697400	0.232300
C2451	C245	0.832300	0.843800	0.542700
C2461	C246	0.951000	0.931600	0.541000
C2471	C247	0.564300	0.871000	0.523400
C2481	C248	0.488300	0.761800	0.546600
C2491	C249	0.389900	0.716900	0.242000
C2501	C250	0.491200	0.779800	0.209800
C2511	C251	0.467100	0.969600	0.210400
C2521	C252	0.525700	0.040200	0.242400
C2531	C253	0.569700	0.039500	0.268100
C2541	C254	0.630800	0.968100	0.299100
C2551	C255	0.215000	0.725200	0.213000
C2561	C256	0.148400	0.596000	0.205300
C2571	C257	0.840500	0.897500	0.562700
C2581	C258	0.901800	0.940300	0.561600
C2591	C259	0.587100	0.843400	0.548700
C2601	C260	0.547800	0.788200	0.560200
C2611	C261	0.399700	0.689700	0.216400
C2621	C262	0.450200	0.722200	0.199100
C2631	C263	0.450000	0.030000	0.194300
C2641	C264	0.510700	0.101500	0.227600
C2651	C265	0.589100	0.101100	0.282300
C2661	C266	0.653100	0.027700	0.314200
C2671	C267	0.229400	0.685900	0.189700
C2681	C268	0.197000	0.619600	0.185800
C2691	C269	0.784500	0.909800	0.585200
C2701	C270	0.570600	0.753400	0.586900
C2711	C271	0.462700	0.700400	0.169800
C2721	C272	0.409100	0.017100	0.168200
C2731	C273	0.472400	0.096200	0.203500
C2741	C274	0.630900	0.095400	0.305800
C2751	C275	0.704600	0.018600	0.338100
C2761	C276	0.216100	0.573700	0.161700
C2771	C277	0.228200	0.929000	0.070200
C2781	C278	0.243100	0.874100	0.047400
C2791	C279	0.181200	0.846000	0.034400
C2801	C280	0.310300	0.851000	0.039500
C2811	C281	0.317000	0.801800	0.018500
C2821	C282	0.255600	0.775000	0.006100
C2831	C283	0.253000	0.725500	0.982100
C2841	C284	0.311700	0.699500	0.968900
C2851	C285	0.173800	0.672400	0.950900
C2861	C286	0.302000	0.658600	0.944900
C2871	C287	0.232100	0.646500	0.935800
C2881	C288	0.215800	0.602800	0.910100
C2891	C289	0.105900	0.330500	0.076000
C2901	C290	0.344400	0.450500	0.080500
C2911	C291	0.365200	0.448100	0.155100
C2921	C292	0.104400	0.310700	0.161500
C2931	C293	0.064300	0.340800	0.048900
C2941	C294	0.391900	0.422300	0.057500
C2951	C295	0.388700	0.395400	0.177000
C2961	C296	0.125000	0.286900	0.190200
C2971	C297	0.007100	0.296500	0.041100
C2981	C298	0.085500	0.396100	0.031600
C2991	C299	0.454500	0.457500	0.050200
C3001	C300	0.373600	0.358900	0.044200
C3011	C301	0.352500	0.330100	0.180600
C3021	C302	0.441700	0.413300	0.196300
C3031	C303	0.090300	0.225300	0.200300
C3041	C304	0.173900	0.321500	0.206500
C3051	C305	0.047600	0.409200	0.008400
C3061	C306	0.495700	0.431800	0.027900
C3071	C307	0.367400	0.286900	0.203200
C3081	C308	0.187900	0.294800	0.232500
C3091	C309	0.988000	0.367000	0.002300
C3101	C310	0.470900	0.370100	0.014600
C3111	C311	0.417800	0.312400	0.222100
C3121	C312	0.152100	0.232700	0.241100
C3131	C313	0.938900	0.379400	0.978800
C3141	C314	0.503100	0.343400	0.989100
C3151	C315	0.429400	0.275200	0.248900
C3161	C316	0.166700	0.197400	0.267700
C3171	C317	0.832300	0.343800	0.957300
C3181	C318	0.951000	0.431600	0.959000
C3191	C319	0.564300	0.371000	0.976600
C3201	C320	0.488300	0.261800	0.953400
C3211	C321	0.389900	0.216900	0.258000
C3221	C322	0.491200	0.279800	0.290200
C3231	C323	0.467100	0.469600	0.289600
C3241	C324	0.525700	0.540200	0.257600
C3251	C325	0.569700	0.539500	0.231900
C3261	C326	0.630800	0.468100	0.200900
C3271	C327	0.215000	0.225200	0.287000
C3281	C328	0.148400	0.096000	0.294700
C3291	C329	0.840500	0.397500	0.937300
C3301	C330	0.901800	0.440300	0.938400
C3311	C331	0.587100	0.343400	0.951300
C3321	C332	0.547800	0.288200	0.939800
C3331	C333	0.399700	0.189700	0.283600
C3341	C334	0.450200	0.222200	0.300900
C3351	C335	0.450000	0.530000	0.305700
C3361	C336	0.510700	0.601500	0.272400
C3371	C337	0.589100	0.601100	0.217700
C3381	C338	0.653100	0.527700	0.185800
C3391	C339	0.229400	0.185900	0.310300
C3401	C340	0.197000	0.119600	0.314200
C3411	C341	0.784500	0.409800	0.914800
C3421	C342	0.570600	0.253400	0.913100
C3431	C343	0.462700	0.200400	0.330200
C3441	C344	0.409100	0.517100	0.331800
C3451	C345	0.472400	0.596200	0.296500
C3461	C346	0.630900	0.595400	0.194200
C3471	C347	0.704600	0.518600	0.161900
C3481	C348	0.216100	0.073700	0.338300
C3491	C349	0.228200	0.429000	0.429800
C3501	C350	0.243100	0.374100	0.452600
C3511	C351	0.181200	0.346000	0.465600
C3521	C352	0.310300	0.351000	0.460500
C3531	C353	0.317000	0.301800	0.481500
C3541	C354	0.255600	0.275000	0.493900
C3551	C355	0.253000	0.225500	0.517900
C3561	C356	0.311700	0.199500	0.531100
C3571	C357	0.173800	0.172400	0.549100
C3581	C358	0.302000	0.158600	0.555100
C3591	C359	0.232100	0.146500	0.564200
C3601	C360	0.215800	0.102800	0.589900
C3611	C361	0.605900	0.669500	0.424000
C3621	C362	0.844400	0.549500	0.419500
C3631	C363	0.865200	0.551900	0.344900
C3641	C364	0.604400	0.689300	0.338500
C3651	C365	0.564300	0.659200	0.451100
C3661	C366	0.891900	0.577700	0.442500
C3671	C367	0.888700	0.604600	0.323000
C3681	C368	0.625000	0.713100	0.309800
C3691	C369	0.507100	0.703500	0.458900
C3701	C370	0.585500	0.603900	0.468400
C3711	C371	0.954500	0.542500	0.449800
C3721	C372	0.873600	0.641100	0.455800
C3731	C373	0.852500	0.669900	0.319400
C3741	C374	0.941700	0.586700	0.303700
C3751	C375	0.590300	0.774700	0.299700
C3761	C376	0.673900	0.678500	0.293500
C3771	C377	0.547600	0.590800	0.491600
C3781	C378	0.995700	0.568200	0.472100
C3791	C379	0.867400	0.713100	0.296800
C3801	C380	0.687900	0.705200	0.267500
C3811	C381	0.488000	0.633000	0.497700
C3821	C382	0.970900	0.629900	0.485400
C3831	C383	0.917800	0.687600	0.277900
C3841	C384	0.652100	0.767300	0.258900
C3851	C385	0.438900	0.620600	0.521200
C3861	C386	0.003100	0.656600	0.510900
C3871	C387	0.929400	0.724800	0.251100
C3881	C388	0.666700	0.802600	0.232300
C3891	C389	0.332300	0.656200	0.542700
C3901	C390	0.451000	0.568400	0.541000
C3911	C391	0.064300	0.629000	0.523400
C3921	C392	0.988300	0.738200	0.546600
C3931	C393	0.889900	0.783100	0.242000
C3941	C394	0.991200	0.720200	0.209800
C3951	C395	0.967100	0.530400	0.210400
C3961	C396	0.025700	0.459800	0.242400
C3971	C397	0.069700	0.460500	0.268100
C3981	C398	0.130800	0.531900	0.299100
C3991	C399	0.715000	0.774800	0.213000
C4001	C400	0.648400	0.904000	0.205300
C4011	C401	0.340500	0.602500	0.562700
C4021	C402	0.401800	0.559700	0.561600
C4031	C403	0.087100	0.656600	0.548700
C4041	C404	0.047800	0.711800	0.560200
C4051	C405	0.899700	0.810300	0.216400
C4061	C406	0.950200	0.777800	0.199100
C4071	C407	0.950000	0.470000	0.194300
C4081	C408	0.010700	0.398500	0.227600
C4091	C409	0.089100	0.398900	0.282300
C4101	C410	0.153100	0.472300	0.314200
C4111	C411	0.729400	0.814100	0.189700
C4121	C412	0.697000	0.880400	0.185800
C4131	C413	0.284500	0.590200	0.585200
C4141	C414	0.070600	0.746600	0.586900
C4151	C415	0.962700	0.799600	0.169800
C4161	C416	0.909100	0.482900	0.168200
C4171	C417	0.972400	0.403800	0.203500
C4181	C418	0.130900	0.404600	0.305800
C4191	C419	0.204600	0.481400	0.338100
C4201	C420	0.716100	0.926300	0.161700
C4211	C421	0.728200	0.571000	0.070200
C4221	C422	0.743100	0.625900	0.047400
C4231	C423	0.681200	0.654000	0.034400
C4241	C424	0.810300	0.649000	0.039500
C4251	C425	0.817000	0.698200	0.018500
C4261	C426	0.755600	0.725000	0.006100
C4271	C427	0.753000	0.774500	0.982100
C4281	C428	0.811700	0.800500	0.968900
C4291	C429	0.673800	0.827600	0.950900
C4301	C430	0.802000	0.841400	0.944900
C4311	C431	0.732100	0.853500	0.935800
C4321	C432	0.715800	0.897200	0.910100
C4331	C433	0.394100	0.830500	0.924000
C4341	C434	0.155600	0.950500	0.919500
C4351	C435	0.134800	0.948100	0.844900
C4361	C436	0.395600	0.810700	0.838500
C4371	C437	0.435700	0.840800	0.951100
C4381	C438	0.108100	0.922300	0.942500
C4391	C439	0.111300	0.895400	0.823000
C4401	C440	0.375000	0.786900	0.809800
C4411	C441	0.492900	0.796500	0.958900
C4421	C442	0.414500	0.896100	0.968400
C4431	C443	0.045500	0.957500	0.949800
C4441	C444	0.126400	0.858900	0.955800
C4451	C445	0.147500	0.830100	0.819400
C4461	C446	0.058300	0.913300	0.803700
C4471	C447	0.409700	0.725300	0.799700
C4481	C448	0.326100	0.821500	0.793500
C4491	C449	0.452400	0.909200	0.991600
C4501	C450	0.004300	0.931800	0.972100
C4511	C451	0.132600	0.786900	0.796800
C4521	C452	0.312100	0.794800	0.767500
C4531	C453	0.512000	0.867000	0.997700
C4541	C454	0.029100	0.870100	0.985400
C4551	C455	0.082200	0.812400	0.777900
C4561	C456	0.347900	0.732700	0.758900
C4571	C457	0.561100	0.879400	0.021200
C4581	C458	0.996900	0.843400	0.010900
C4591	C459	0.070600	0.775200	0.751100
C4601	C460	0.333300	0.697400	0.732300
C4611	C461	0.667700	0.843800	0.042700
C4621	C462	0.549000	0.931600	0.041000
C4631	C463	0.935700	0.871000	0.023400
C4641	C464	0.011700	0.761800	0.046600
C4651	C465	0.110100	0.716900	0.742000
C4661	C466	0.008800	0.779800	0.709800
C4671	C467	0.032900	0.969600	0.710400
C4681	C468	0.974300	0.040200	0.742400
C4691	C469	0.930300	0.039500	0.768100
C4701	C470	0.869200	0.968100	0.799100
C4711	C471	0.285000	0.725200	0.713000
C4721	C472	0.351600	0.596000	0.705300
C4731	C473	0.659500	0.897500	0.062700
C4741	C474	0.598200	0.940300	0.061600
C4751	C475	0.912900	0.843400	0.048700
C4761	C476	0.952200	0.788200	0.060200
C4771	C477	0.100300	0.689700	0.716400
C4781	C478	0.049800	0.722200	0.699100
C4791	C479	0.050000	0.030000	0.694300
C4801	C480	0.989300	0.101500	0.727600
C4811	C481	0.910900	0.101100	0.782300
C4821	C482	0.846900	0.027700	0.814200
C4831	C483	0.270600	0.685900	0.689700
C4841	C484	0.303000	0.619600	0.685800
C4851	C485	0.715500	0.909800	0.085200
C4861	C486	0.929400	0.753400	0.086900
C4871	C487	0.037300	0.700400	0.669800
C4881	C488	0.090900	0.017100	0.668200
C4891	C489	0.027600	0.096200	0.703500
C4901	C490	0.869100	0.095400	0.805800
C4911	C491	0.795400	0.018600	0.838100
C4921	C492	0.283900	0.573700	0.661700
C4931	C493	0.271800	0.929000	0.570200
C4941	C494	0.256900	0.874100	0.547400
C4951	C495	0.318800	0.846000	0.534400
C4961	C496	0.189700	0.851000	0.539500
C4971	C497	0.183000	0.801800	0.518500
C4981	C498	0.244400	0.775000	0.506100
C4991	C499	0.247000	0.725500	0.482100
C5001	C500	0.188300	0.699500	0.468900
C5011	C501	0.326200	0.672400	0.450900
C5021	C502	0.198000	0.658600	0.444900
C5031	C503	0.267900	0.646500	0.435800
C5041	C504	0.284200	0.602800	0.410100
C5051	C505	0.894100	0.169500	0.576000
C5061	C506	0.655600	0.049500	0.580500
C5071	C507	0.634800	0.051900	0.655100
C5081	C508	0.895600	0.189300	0.661500
C5091	C509	0.935700	0.159200	0.548900
C5101	C510	0.608100	0.077700	0.557500
C5111	C511	0.611300	0.104600	0.677000
C5121	C512	0.875000	0.213100	0.690200
C5131	C513	0.992900	0.203500	0.541100
C5141	C514	0.914500	0.103900	0.531600
C5151	C515	0.545500	0.042500	0.550200
C5161	C516	0.626400	0.141100	0.544200
C5171	C517	0.647500	0.169900	0.680600
C5181	C518	0.558300	0.086700	0.696300
C5191	C519	0.909700	0.274700	0.700300
C5201	C520	0.826100	0.178500	0.706500
C5211	C521	0.952400	0.090800	0.508400
C5221	C522	0.504300	0.068200	0.527900
C5231	C523	0.632600	0.213100	0.703200
C5241	C524	0.812100	0.205200	0.732500
C5251	C525	0.012000	0.133000	0.502300
C5261	C526	0.529100	0.129900	0.514600
C5271	C527	0.582200	0.187600	0.722100
C5281	C528	0.847900	0.267300	0.741100
C5291	C529	0.061100	0.120600	0.478800
C5301	C530	0.496900	0.156600	0.489100
C5311	C531	0.570600	0.224800	0.748900
C5321	C532	0.833300	0.302600	0.767700
C5331	C533	0.167700	0.156200	0.457300
C5341	C534	0.049000	0.068400	0.459000
C5351	C535	0.435700	0.129000	0.476600
C5361	C536	0.511700	0.238200	0.453400
C5371	C537	0.610100	0.283100	0.758000
C5381	C538	0.508800	0.220200	0.790200
C5391	C539	0.532900	0.030400	0.789600
C5401	C540	0.474300	0.959800	0.757600
C5411	C541	0.430300	0.960500	0.731900
C5421	C542	0.369200	0.031900	0.700900
C5431	C543	0.785000	0.274800	0.787000
C5441	C544	0.851600	0.404000	0.794700
C5451	C545	0.159500	0.102500	0.437300
C5461	C546	0.098200	0.059700	0.438400
C5471	C547	0.412900	0.156600	0.451300
C5481	C548	0.452200	0.211800	0.439800
C5491	C549	0.600300	0.310300	0.783600
C5501	C550	0.549800	0.277800	0.800900
C5511	C551	0.550000	0.970000	0.805700
C5521	C552	0.489300	0.898500	0.772400
C5531	C553	0.410900	0.898900	0.717700
C5541	C554	0.346900	0.972300	0.685800
C5551	C555	0.770600	0.314100	0.810300
C5561	C556	0.803000	0.380400	0.814200
C5571	C557	0.215500	0.090200	0.414800
C5581	C558	0.429400	0.246600	0.413100
C5591	C559	0.537300	0.299600	0.830200
C5601	C560	0.590900	0.982900	0.831800
C5611	C561	0.527600	0.903800	0.796500
C5621	C562	0.369100	0.904600	0.694200
C5631	C563	0.295400	0.981400	0.661900
C5641	C564	0.783900	0.426300	0.838300
C5651	C565	0.771800	0.071000	0.929800
C5661	C566	0.756900	0.125900	0.952600
C5671	C567	0.818800	0.154000	0.965600
C5681	C568	0.689700	0.149000	0.960500
C5691	C569	0.683000	0.198200	0.981500
C5701	C570	0.744400	0.225000	0.993900
C5711	C571	0.747000	0.274500	0.017900
C5721	C572	0.688300	0.300500	0.031100
C5731	C573	0.826200	0.327600	0.049100
C5741	C574	0.698000	0.341400	0.055100
C5751	C575	0.767900	0.353500	0.064200
C5761	C576	0.784200	0.397200	0.089900
N11	N1	0.031500	0.689700	0.981900
N21	N2	0.587500	0.666800	0.976800
N31	N3	0.543200	0.627000	0.781800
N41	N4	0.897300	0.801700	0.774600
N51	N5	0.119600	0.665800	0.022800
N61	N6	0.815900	0.789700	0.473900
N71	N7	0.811400	0.702900	0.514600
N81	N8	0.533800	0.712600	0.021900
N91	N9	0.517900	0.694800	0.735200
N101	N10	0.494200	0.525900	0.733300
N111	N11	0.411000	0.526700	0.776700
N121	N12	0.867900	0.866900	0.727800
N131	N13	0.531500	0.310300	0.518100
N141	N14	0.087500	0.333200	0.523200
N151	N15	0.043200	0.373000	0.718200
N161	N16	0.397300	0.198300	0.725400
N171	N17	0.619600	0.334200	0.477200
N181	N18	0.315900	0.210300	0.026100
N191	N19	0.311400	0.297100	0.985400
N201	N20	0.033800	0.287400	0.478100
N211	N21	0.017900	0.305200	0.764800
N221	N22	0.994200	0.474100	0.766700
N231	N23	0.911000	0.473300	0.723300
N241	N24	0.367900	0.133100	0.772200
N251	N25	0.468500	0.189700	0.018100
N261	N26	0.912500	0.166800	0.023200
N271	N27	0.956800	0.127000	0.218200
N281	N28	0.602700	0.301700	0.225400
N291	N29	0.380400	0.165800	0.977200
N301	N30	0.684100	0.289700	0.526100
N311	N31	0.688600	0.202900	0.485400
N321	N32	0.966200	0.212600	0.978100
N331	N33	0.982100	0.194800	0.264800
N341	N34	0.005800	0.025900	0.266700
N351	N35	0.089000	0.026700	0.223300
N361	N36	0.632100	0.366900	0.272200
N371	N37	0.968500	0.810300	0.481900
N381	N38	0.412500	0.833200	0.476800
N391	N39	0.456800	0.873000	0.281800
N401	N40	0.102700	0.698300	0.274600
N411	N41	0.880400	0.834200	0.522800
N421	N42	0.184100	0.710300	0.973900
N431	N43	0.188600	0.797100	0.014600
N441	N44	0.466200	0.787400	0.521900
N451	N45	0.482100	0.805200	0.235200
N461	N46	0.505800	0.974100	0.233300
N471	N47	0.589000	0.973300	0.276700
N481	N48	0.132100	0.633100	0.227800
N491	N49	0.968500	0.310300	0.018100
N501	N50	0.412500	0.333200	0.023200
N511	N51	0.456800	0.373000	0.218200
N521	N52	0.102700	0.198300	0.225400
N531	N53	0.880400	0.334200	0.977200
N541	N54	0.184100	0.210300	0.526100
N551	N55	0.188600	0.297100	0.485400
N561	N56	0.466200	0.287400	0.978100
N571	N57	0.482100	0.305200	0.264800
N581	N58	0.505800	0.474100	0.266700
N591	N59	0.589000	0.473300	0.223300
N601	N60	0.132100	0.133100	0.272200
N611	N61	0.468500	0.689700	0.481900
N621	N62	0.912500	0.666800	0.476800
N631	N63	0.956800	0.627000	0.281800
N641	N64	0.602700	0.801700	0.274600
N651	N65	0.380400	0.665800	0.522800
N661	N66	0.684100	0.789700	0.973900
N671	N67	0.688600	0.702900	0.014600
N681	N68	0.966200	0.712600	0.521900
N691	N69	0.982100	0.694800	0.235200
N701	N70	0.005800	0.525900	0.233300
N711	N71	0.089000	0.526700	0.276700
N721	N72	0.632100	0.866900	0.227800
N731	N73	0.531500	0.810300	0.981900
N741	N74	0.087500	0.833200	0.976800
N751	N75	0.043200	0.873000	0.781800
N761	N76	0.397300	0.698300	0.774600
N771	N77	0.619600	0.834200	0.022800
N781	N78	0.315900	0.710300	0.473900
N791	N79	0.311400	0.797100	0.514600
N801	N80	0.033800	0.787400	0.021900
N811	N81	0.017900	0.805200	0.735200
N821	N82	0.994200	0.974100	0.733300
N831	N83	0.911000	0.973300	0.776700
N841	N84	0.367900	0.633100	0.727800
N851	N85	0.031500	0.189700	0.518100
N861	N86	0.587500	0.166800	0.523200
N871	N87	0.543200	0.127000	0.718200
N881	N88	0.897300	0.301700	0.725400
N891	N89	0.119600	0.165800	0.477200
N901	N90	0.815900	0.289700	0.026100
N911	N91	0.811400	0.202900	0.985400
N921	N92	0.533800	0.212600	0.478100
N931	N93	0.517900	0.194800	0.764800
N941	N94	0.494200	0.025900	0.766700
N951	N95	0.411000	0.026700	0.723300
N961	N96	0.867900	0.366900	0.772200
O11	O1	0.867800	0.612900	0.914610
O21	O2	0.711100	0.585900	0.913890
O31	O3	0.691800	0.567800	0.856520
O41	O4	0.868600	0.629400	0.845600
O51	O5	0.932900	0.519200	0.877100
O61	O6	0.766700	0.697400	0.879700
O71	O7	0.205100	0.534700	0.098660
O81	O8	0.817700	0.982800	0.657500
O91	O9	0.887800	0.731900	0.915100
O101	O10	0.635000	0.492400	0.908920
O111	O11	0.595200	0.498600	0.848900
O121	O12	0.933600	0.728900	0.852400
O131	O13	0.268300	0.632700	0.088180
O141	O14	0.448800	0.810000	0.090500
O151	O15	0.392700	0.709200	0.103270
O161	O16	0.582000	0.842500	0.659800
O171	O17	0.482500	0.772600	0.657700
O181	O18	0.613500	0.545300	0.663700
O191	O19	0.600900	0.432100	0.652000
O201	O20	0.251000	0.532800	0.837300
O211	O21	0.296300	0.438300	0.857400
O221	O22	0.730600	0.903400	0.647700
O231	O23	0.715300	0.551600	0.582200
O241	O24	0.672200	0.643500	0.626500
O251	O25	0.565400	0.543700	0.603200
O261	O26	0.849400	0.916500	0.406800
O271	O27	0.735600	0.913100	0.394100
O281	O28	0.836400	0.551800	0.573800
O291	O29	0.510400	0.416200	0.892700
O301	O30	0.367800	0.387100	0.585390
O311	O31	0.211100	0.414100	0.586110
O321	O32	0.191800	0.432200	0.643480
O331	O33	0.368600	0.370600	0.654400
O341	O34	0.432900	0.480800	0.622900
O351	O35	0.266700	0.302600	0.620300
O361	O36	0.705100	0.465300	0.401340
O371	O37	0.317700	0.017200	0.842500
O381	O38	0.387800	0.268100	0.584900
O391	O39	0.135000	0.507600	0.591080
O401	O40	0.095200	0.501400	0.651100
O411	O41	0.433600	0.271100	0.647600
O421	O42	0.768300	0.367300	0.411820
O431	O43	0.948800	0.190000	0.409500
O441	O44	0.892700	0.290800	0.396730
O451	O45	0.082000	0.157500	0.840200
O461	O46	0.982500	0.227400	0.842300
O471	O47	0.113500	0.454700	0.836300
O481	O48	0.100900	0.567900	0.848000
O491	O49	0.751000	0.467200	0.662700
O501	O50	0.796300	0.561700	0.642600
O511	O51	0.230600	0.096600	0.852300
O521	O52	0.215300	0.448400	0.917800
O531	O53	0.172200	0.356500	0.873500
O541	O54	0.065400	0.456300	0.896800
O551	O55	0.349400	0.083500	0.093200
O561	O56	0.235600	0.086900	0.105900
O571	O57	0.336400	0.448200	0.926200
O581	O58	0.010400	0.583800	0.607300
O591	O59	0.632200	0.112900	0.085390
O601	O60	0.788900	0.085900	0.086110
O611	O61	0.808200	0.067800	0.143480
O621	O62	0.631400	0.129400	0.154400
O631	O63	0.567100	0.019200	0.122900
O641	O64	0.733300	0.197400	0.120300
O651	O65	0.294900	0.034700	0.901340
O661	O66	0.682300	0.482800	0.342500
O671	O67	0.612200	0.231900	0.084900
O681	O68	0.865000	0.992400	0.091080
O691	O69	0.904800	0.998600	0.151100
O701	O70	0.566400	0.228900	0.147600
O711	O71	0.231700	0.132700	0.911820
O721	O72	0.051200	0.310000	0.909500
O731	O73	0.107300	0.209200	0.896730
O741	O74	0.918000	0.342500	0.340200
O751	O75	0.017500	0.272600	0.342300
O761	O76	0.886500	0.045300	0.336300
O771	O77	0.899100	0.932100	0.348000
O781	O78	0.249000	0.032800	0.162700
O791	O79	0.203700	0.938300	0.142600
O801	O80	0.769400	0.403400	0.352300
O811	O81	0.784700	0.051600	0.417800
O821	O82	0.827800	0.143500	0.373500
O831	O83	0.934600	0.043700	0.396800
O841	O84	0.650600	0.416500	0.593200
O851	O85	0.764400	0.413100	0.605900
O861	O86	0.663600	0.051800	0.426200
O871	O87	0.989600	0.916200	0.107300
O881	O88	0.132200	0.887100	0.414610
O891	O89	0.288900	0.914100	0.413890
O901	O90	0.308200	0.932200	0.356520
O911	O91	0.131400	0.870600	0.345600
O921	O92	0.067100	0.980800	0.377100
O931	O93	0.233300	0.802600	0.379700
O941	O94	0.794900	0.965300	0.598660
O951	O95	0.182300	0.517200	0.157500
O961	O96	0.112200	0.768100	0.415100
O971	O97	0.365000	0.007600	0.408920
O981	O98	0.404800	0.001400	0.348900
O991	O99	0.066400	0.771100	0.352400
O1001	O100	0.731700	0.867300	0.588180
O1011	O101	0.551200	0.690000	0.590500
O1021	O102	0.607300	0.790800	0.603270
O1031	O103	0.418000	0.657500	0.159800
O1041	O104	0.517500	0.727400	0.157700
O1051	O105	0.386500	0.954700	0.163700
O1061	O106	0.399100	0.067900	0.152000
O1071	O107	0.749000	0.967200	0.337300
O1081	O108	0.703700	0.061700	0.357400
O1091	O109	0.269400	0.596600	0.147700
O1101	O110	0.284700	0.948400	0.082200
O1111	O111	0.327800	0.856500	0.126500
O1121	O112	0.434600	0.956300	0.103200
O1131	O113	0.150600	0.583500	0.906800
O1141	O114	0.264400	0.586900	0.894100
O1151	O115	0.163600	0.948200	0.073800
O1161	O116	0.489600	0.083800	0.392700
O1171	O117	0.132200	0.387100	0.085390
O1181	O118	0.288900	0.414100	0.086110
O1191	O119	0.308200	0.432200	0.143480
O1201	O120	0.131400	0.370600	0.154400
O1211	O121	0.067100	0.480800	0.122900
O1221	O122	0.233300	0.302600	0.120300
O1231	O123	0.794900	0.465300	0.901340
O1241	O124	0.182300	0.017200	0.342500
O1251	O125	0.112200	0.268100	0.084900
O1261	O126	0.365000	0.507600	0.091080
O1271	O127	0.404800	0.501400	0.151100
O1281	O128	0.066400	0.271100	0.147600
O1291	O129	0.731700	0.367300	0.911820
O1301	O130	0.551200	0.190000	0.909500
O1311	O131	0.607300	0.290800	0.896730
O1321	O132	0.418000	0.157500	0.340200
O1331	O133	0.517500	0.227400	0.342300
O1341	O134	0.386500	0.454700	0.336300
O1351	O135	0.399100	0.567900	0.348000
O1361	O136	0.749000	0.467200	0.162700
O1371	O137	0.703700	0.561700	0.142600
O1381	O138	0.269400	0.096600	0.352300
O1391	O139	0.284700	0.448400	0.417800
O1401	O140	0.327800	0.356500	0.373500
O1411	O141	0.434600	0.456300	0.396800
O1421	O142	0.150600	0.083500	0.593200
O1431	O143	0.264400	0.086900	0.605900
O1441	O144	0.163600	0.448200	0.426200
O1451	O145	0.489600	0.583800	0.107300
O1461	O146	0.632200	0.612900	0.414610
O1471	O147	0.788900	0.585900	0.413890
O1481	O148	0.808200	0.567800	0.356520
O1491	O149	0.631400	0.629400	0.345600
O1501	O150	0.567100	0.519200	0.377100
O1511	O151	0.733300	0.697400	0.379700
O1521	O152	0.294900	0.534700	0.598660
O1531	O153	0.682300	0.982800	0.157500
O1541	O154	0.612200	0.731900	0.415100
O1551	O155	0.865000	0.492400	0.408920
O1561	O156	0.904800	0.498600	0.348900
O1571	O157	0.566400	0.728900	0.352400
O1581	O158	0.231700	0.632700	0.588180
O1591	O159	0.051200	0.810000	0.590500
O1601	O160	0.107300	0.709200	0.603270
O1611	O161	0.918000	0.842500	0.159800
O1621	O162	0.017500	0.772600	0.157700
O1631	O163	0.886500	0.545300	0.163700
O1641	O164	0.899100	0.432100	0.152000
O1651	O165	0.249000	0.532800	0.337300
O1661	O166	0.203700	0.438300	0.357400
O1671	O167	0.769400	0.903400	0.147700
O1681	O168	0.784700	0.551600	0.082200
O1691	O169	0.827800	0.643500	0.126500
O1701	O170	0.934600	0.543700	0.103200
O1711	O171	0.650600	0.916500	0.906800
O1721	O172	0.764400	0.913100	0.894100
O1731	O173	0.663600	0.551800	0.073800
O1741	O174	0.989600	0.416200	0.392700
O1751	O175	0.367800	0.887100	0.914610
O1761	O176	0.211100	0.914100	0.913890
O1771	O177	0.191800	0.932200	0.856520
O1781	O178	0.368600	0.870600	0.845600
O1791	O179	0.432900	0.980800	0.877100
O1801	O180	0.266700	0.802600	0.879700
O1811	O181	0.705100	0.965300	0.098660
O1821	O182	0.317700	0.517200	0.657500
O1831	O183	0.387800	0.768100	0.915100
O1841	O184	0.135000	0.007600	0.908920
O1851	O185	0.095200	0.001400	0.848900
O1861	O186	0.433600	0.771100	0.852400
O1871	O187	0.768300	0.867300	0.088180
O1881	O188	0.948800	0.690000	0.090500
O1891	O189	0.892700	0.790800	0.103270
O1901	O190	0.082000	0.657500	0.659800
O1911	O191	0.982500	0.727400	0.657700
O1921	O192	0.113500	0.954700	0.663700
O1931	O193	0.100900	0.067900	0.652000
O1941	O194	0.751000	0.967200	0.837300
O1951	O195	0.796300	0.061700	0.857400
O1961	O196	0.230600	0.596600	0.647700
O1971	O197	0.215300	0.948400	0.582200
O1981	O198	0.172200	0.856500	0.626500
O1991	O199	0.065400	0.956300	0.603200
O2001	O200	0.349400	0.583500	0.406800
O2011	O201	0.235600	0.586900	0.394100
O2021	O202	0.336400	0.948200	0.573800
O2031	O203	0.010400	0.083800	0.892700
O2041	O204	0.867800	0.112900	0.585390
O2051	O205	0.711100	0.085900	0.586110
O2061	O206	0.691800	0.067800	0.643480
O2071	O207	0.868600	0.129400	0.654400
O2081	O208	0.932900	0.019200	0.622900
O2091	O209	0.766700	0.197400	0.620300
O2101	O210	0.205100	0.034700	0.401340
O2111	O211	0.817700	0.482800	0.842500
O2121	O212	0.887800	0.231900	0.584900
O2131	O213	0.635000	0.992400	0.591080
O2141	O214	0.595200	0.998600	0.651100
O2151	O215	0.933600	0.228900	0.647600
O2161	O216	0.268300	0.132700	0.411820
O2171	O217	0.448800	0.310000	0.409500
O2181	O218	0.392700	0.209200	0.396730
O2191	O219	0.582000	0.342500	0.840200
O2201	O220	0.482500	0.272600	0.842300
O2211	O221	0.613500	0.045300	0.836300
O2221	O222	0.600900	0.932100	0.848000
O2231	O223	0.251000	0.032800	0.662700
O2241	O224	0.296300	0.938300	0.642600
O2251	O225	0.730600	0.403400	0.852300
O2261	O226	0.715300	0.051600	0.917800
O2271	O227	0.672200	0.143500	0.873500
O2281	O228	0.565400	0.043700	0.896800
O2291	O229	0.849400	0.416500	0.093200
O2301	O230	0.735600	0.413100	0.105900
O2311	O231	0.836400	0.051800	0.926200
O2321	O232	0.510400	0.916200	0.607300
Cl11	Cl1	0.725000	0.494100	0.992160
O2331	O233	0.658100	0.503400	0.007100
O2341	O234	0.708700	0.454200	0.968000
O2351	O235	0.753500	0.563300	0.984800
O2361	O236	0.777500	0.455000	0.007800
Cl21	Cl2	0.705100	0.508900	0.761340
O2371	O237	0.641400	0.469600	0.759700
O2381	O238	0.707300	0.502600	0.791800
O2391	O239	0.676900	0.575900	0.748800
O2401	O240	0.760200	0.486500	0.743700
Cl31	Cl3	0.225000	0.505900	0.507840
O2411	O241	0.158100	0.496600	0.492900
O2421	O242	0.208700	0.545800	0.532000
O2431	O243	0.253500	0.436700	0.515200
O2441	O244	0.277500	0.545000	0.492200
Cl41	Cl4	0.205100	0.491100	0.738660
O2451	O245	0.141400	0.530400	0.740300
O2461	O246	0.207300	0.497400	0.708200
O2471	O247	0.176900	0.424100	0.751200
O2481	O248	0.260200	0.513500	0.756300
Cl51	Cl5	0.775000	0.994100	0.007840
O2491	O249	0.841900	0.003400	0.992900
O2501	O250	0.791300	0.954200	0.032000
O2511	O251	0.746500	0.063300	0.015200
O2521	O252	0.722500	0.955000	0.992200
Cl61	Cl6	0.794900	0.008900	0.238660
O2531	O253	0.858600	0.969600	0.240300
O2541	O254	0.792700	0.002600	0.208200
O2551	O255	0.823100	0.075900	0.251200
O2561	O256	0.739800	0.986500	0.256300
Cl71	Cl7	0.275000	0.005900	0.492160
O2571	O257	0.341900	0.996600	0.507100
O2581	O258	0.291300	0.045800	0.468000
O2591	O259	0.246500	0.936700	0.484800
O2601	O260	0.222500	0.045000	0.507800
Cl81	Cl8	0.294900	0.991100	0.261340
O2611	O261	0.358600	0.030400	0.259700
O2621	O262	0.292700	0.997400	0.291800
O2631	O263	0.323100	0.924100	0.248800
O2641	O264	0.239800	0.013500	0.243700
Cl91	Cl9	0.275000	0.505900	0.007840
O2651	O265	0.341900	0.496600	0.992900
O2661	O266	0.291300	0.545800	0.032000
O2671	O267	0.246500	0.436700	0.015200
O2681	O268	0.222500	0.545000	0.992200
Cl101	Cl10	0.294900	0.491100	0.238660
O2691	O269	0.358600	0.530400	0.240300
O2701	O270	0.292700	0.497400	0.208200
O2711	O271	0.323100	0.424100	0.251200
O2721	O272	0.239800	0.513500	0.256300
Cl111	Cl11	0.775000	0.494100	0.492160
O2731	O273	0.841900	0.503400	0.507100
O2741	O274	0.791300	0.454200	0.468000
O2751	O275	0.746500	0.563300	0.484800
O2761	O276	0.722500	0.455000	0.507800
Cl121	Cl12	0.794900	0.508900	0.261340
O2771	O277	0.858600	0.469600	0.259700
O2781	O278	0.792700	0.502600	0.291800
O2791	O279	0.823100	0.575900	0.248800
O2801	O280	0.739800	0.486500	0.243700
Cl131	Cl13	0.225000	0.005900	0.992160
O2811	O281	0.158100	0.996600	0.007100
O2821	O282	0.208700	0.045800	0.968000
O2831	O283	0.253500	0.936700	0.984800
O2841	O284	0.277500	0.045000	0.007800
Cl141	Cl14	0.205100	0.991100	0.761340
O2851	O285	0.141400	0.030400	0.759700
O2861	O286	0.207300	0.997400	0.791800
O2871	O287	0.176900	0.924100	0.748800
O2881	O288	0.260200	0.013500	0.743700
Cl151	Cl15	0.725000	0.994100	0.507840
O2891	O289	0.658100	0.003400	0.492900
O2901	O290	0.708700	0.954200	0.532000
O2911	O291	0.753500	0.063300	0.515200
O2921	O292	0.777500	0.955000	0.492200
Cl161	Cl16	0.705100	0.008900	0.738660
O2931	O293	0.641400	0.969600	0.740300
O2941	O294	0.707300	0.002600	0.708200
O2951	O295	0.676900	0.075900	0.751200
O2961	O296	0.760200	0.986500	0.756300
