data_NIFZAF_charged_PM
_symmetry_space_group_name_H-M	'P1'
_cell_length_a	18.606100
_cell_length_b	18.693900
_cell_length_c	48.617000
_cell_angle_alpha	90.000000
_cell_angle_beta	90.000000
_cell_angle_gamma	90.000000
_symmetry_Int_Tables_number 1

loop_
_symmetry_equiv_pos_as_xyz
'x,y,z'

loop_
_atom_site_label
_atom_site_type_symbol
_atom_site_fract_x
_atom_site_fract_y
_atom_site_fract_z
Ho11	Ho1	0.799700	0.425920	0.878440
Ho21	Ho2	0.636460	0.596390	0.877780
Ho31	Ho3	0.811870	0.485520	0.124510
Ho41	Ho4	0.299700	0.574080	0.621560
Ho51	Ho5	0.136460	0.403610	0.622220
Ho61	Ho6	0.311870	0.514480	0.375490
Ho71	Ho7	0.700300	0.925920	0.121560
Ho81	Ho8	0.863540	0.096390	0.122220
Ho91	Ho9	0.688130	0.985520	0.875490
Ho101	Ho10	0.200300	0.074080	0.378440
Ho111	Ho11	0.363540	0.903610	0.377780
Ho121	Ho12	0.188130	0.014480	0.624510
Ho131	Ho13	0.200300	0.574080	0.121560
Ho141	Ho14	0.363540	0.403610	0.122220
Ho151	Ho15	0.188130	0.514480	0.875490
Ho161	Ho16	0.700300	0.425920	0.378440
Ho171	Ho17	0.863540	0.596390	0.377780
Ho181	Ho18	0.688130	0.485520	0.624510
Ho191	Ho19	0.299700	0.074080	0.878440
Ho201	Ho20	0.136460	0.903610	0.877780
Ho211	Ho21	0.311870	0.014480	0.124510
Ho221	Ho22	0.799700	0.925920	0.621560
Ho231	Ho23	0.636460	0.096390	0.622220
Ho241	Ho24	0.811870	0.985520	0.375490
Co11	Co1	0.958610	0.117010	0.754350
Co21	Co2	0.892990	0.747160	0.001910
Co31	Co3	0.458610	0.882990	0.745650
Co41	Co4	0.392990	0.252840	0.498090
Co51	Co5	0.541390	0.617010	0.245650
Co61	Co6	0.607010	0.247160	0.998090
Co71	Co7	0.041390	0.382990	0.254350
Co81	Co8	0.107010	0.752840	0.501910
Co91	Co9	0.041390	0.882990	0.245650
Co101	Co10	0.107010	0.252840	0.998090
Co111	Co11	0.541390	0.117010	0.254350
Co121	Co12	0.607010	0.747160	0.501910
Co131	Co13	0.458610	0.382990	0.754350
Co141	Co14	0.392990	0.752840	0.001910
Co151	Co15	0.958610	0.617010	0.745650
Co161	Co16	0.892990	0.247160	0.498090
H11	H1	0.947100	0.205800	0.809500
H21	H2	0.808900	0.365100	0.796900
H31	H3	0.785200	0.317300	0.753800
H41	H4	0.769900	0.268400	0.714400
H51	H5	0.746400	0.204600	0.675000
H61	H6	0.882000	0.053500	0.701000
H71	H7	0.534800	0.454000	0.805900
H81	H8	0.688000	0.320000	0.830100
H91	H9	0.663300	0.249900	0.792900
H101	H10	0.649200	0.198100	0.753600
H111	H11	0.631200	0.149900	0.710100
H121	H12	0.478800	0.296600	0.697900
H131	H13	0.796600	0.684600	0.955300
H141	H14	0.912300	0.523300	0.925800
H151	H15	0.993700	0.540600	0.961100
H161	H16	0.061600	0.556400	0.996700
H171	H17	0.125700	0.579300	0.036000
H181	H18	0.994200	0.742600	0.052200
H191	H19	0.865000	0.857100	0.959000
H201	H20	0.653900	0.864400	0.950100
H211	H21	0.641300	0.785400	0.986700
H221	H22	0.645800	0.711900	0.025200
H231	H23	0.661300	0.641900	0.064600
H241	H24	0.872400	0.660600	0.054200
H251	H25	0.966400	0.725000	0.945400
H261	H26	0.128300	0.866000	0.944100
H271	H27	0.087800	0.909400	0.985800
H281	H28	0.036900	0.952300	0.023700
H291	H29	0.971000	0.994800	0.060500
H301	H30	0.834100	0.831900	0.049800
H311	H31	0.644000	0.579800	0.195800
H321	H32	0.635800	0.370400	0.184100
H331	H33	0.566200	0.359000	0.223500
H341	H34	0.517600	0.358700	0.265100
H351	H35	0.454300	0.366400	0.306300
H361	H36	0.446800	0.578600	0.295300
H371	H37	0.084000	0.668200	0.918000
H381	H38	0.490500	0.617200	0.897900
H391	H39	0.486800	0.555100	0.882900
H401	H40	0.783300	0.269200	0.887700
H411	H41	0.719500	0.287700	0.875500
H421	H42	0.945800	0.444200	0.866300
H431	H43	0.928000	0.514700	0.870200
H441	H44	0.950400	0.418200	0.098700
H451	H45	0.941800	0.491100	0.098200
H461	H46	0.858700	0.331200	0.121600
H471	H47	0.790900	0.328300	0.132700
H481	H48	0.447100	0.794200	0.690500
H491	H49	0.308900	0.634900	0.703100
H501	H50	0.285200	0.682700	0.746200
H511	H51	0.269900	0.731600	0.785600
H521	H52	0.246400	0.795400	0.825000
H531	H53	0.382000	0.946500	0.799000
H541	H54	0.034800	0.546000	0.694100
H551	H55	0.188000	0.680000	0.669900
H561	H56	0.163300	0.750100	0.707100
H571	H57	0.149200	0.801900	0.746400
H581	H58	0.131200	0.850100	0.789900
H591	H59	0.978800	0.703400	0.802100
H601	H60	0.296600	0.315400	0.544700
H611	H61	0.412300	0.476700	0.574200
H621	H62	0.493700	0.459400	0.538900
H631	H63	0.561600	0.443600	0.503300
H641	H64	0.625700	0.420700	0.464000
H651	H65	0.494200	0.257400	0.447800
H661	H66	0.365000	0.142900	0.541000
H671	H67	0.153900	0.135600	0.549900
H681	H68	0.141300	0.214600	0.513300
H691	H69	0.145800	0.288100	0.474800
H701	H70	0.161300	0.358100	0.435400
H711	H71	0.372400	0.339400	0.445800
H721	H72	0.466400	0.275000	0.554600
H731	H73	0.628300	0.134000	0.555900
H741	H74	0.587800	0.090600	0.514200
H751	H75	0.536900	0.047700	0.476300
H761	H76	0.471000	0.005200	0.439500
H771	H77	0.334100	0.168100	0.450200
H781	H78	0.144000	0.420200	0.304200
H791	H79	0.135800	0.629600	0.315900
H801	H80	0.066200	0.641000	0.276500
H811	H81	0.017600	0.641300	0.234900
H821	H82	0.954300	0.633600	0.193700
H831	H83	0.946800	0.421400	0.204700
H841	H84	0.584000	0.331800	0.582000
H851	H85	0.990500	0.382800	0.602100
H861	H86	0.986800	0.444900	0.617100
H871	H87	0.283300	0.730800	0.612300
H881	H88	0.219500	0.712300	0.624500
H891	H89	0.445800	0.555800	0.633700
H901	H90	0.428000	0.485300	0.629800
H911	H91	0.450400	0.581800	0.401300
H921	H92	0.441800	0.508900	0.401800
H931	H93	0.358700	0.668800	0.378400
H941	H94	0.290900	0.671700	0.367300
H951	H95	0.552900	0.705800	0.190500
H961	H96	0.691100	0.865100	0.203100
H971	H97	0.714800	0.817300	0.246200
H981	H98	0.730100	0.768400	0.285600
H991	H99	0.753600	0.704600	0.325000
H1001	H100	0.618000	0.553500	0.299000
H1011	H101	0.965200	0.954000	0.194100
H1021	H102	0.812000	0.820000	0.169900
H1031	H103	0.836700	0.749900	0.207100
H1041	H104	0.850800	0.698100	0.246400
H1051	H105	0.868800	0.649900	0.289900
H1061	H106	0.021200	0.796600	0.302100
H1071	H107	0.703400	0.184600	0.044700
H1081	H108	0.587700	0.023300	0.074200
H1091	H109	0.506300	0.040600	0.038900
H1101	H110	0.438400	0.056400	0.003300
H1111	H111	0.374300	0.079300	0.964000
H1121	H112	0.505800	0.242600	0.947800
H1131	H113	0.635000	0.357100	0.041000
H1141	H114	0.846100	0.364400	0.049900
H1151	H115	0.858700	0.285400	0.013300
H1161	H116	0.854200	0.211900	0.974800
H1171	H117	0.838700	0.141900	0.935400
H1181	H118	0.627600	0.160600	0.945800
H1191	H119	0.533600	0.225000	0.054600
H1201	H120	0.371700	0.366000	0.055900
H1211	H121	0.412200	0.409400	0.014200
H1221	H122	0.463100	0.452300	0.976300
H1231	H123	0.529000	0.494800	0.939500
H1241	H124	0.665900	0.331900	0.950200
H1251	H125	0.856000	0.079800	0.804200
H1261	H126	0.864200	0.870400	0.815900
H1271	H127	0.933800	0.859000	0.776500
H1281	H128	0.982400	0.858700	0.734900
H1291	H129	0.045700	0.866400	0.693700
H1301	H130	0.053200	0.078600	0.704700
H1311	H131	0.416000	0.168200	0.082000
H1321	H132	0.009500	0.117200	0.102100
H1331	H133	0.013200	0.055100	0.117100
H1341	H134	0.716700	0.769200	0.112300
H1351	H135	0.780500	0.787700	0.124500
H1361	H136	0.554200	0.944200	0.133700
H1371	H137	0.572000	0.014700	0.129800
H1381	H138	0.549600	0.918200	0.901300
H1391	H139	0.558200	0.991100	0.901800
H1401	H140	0.641300	0.831200	0.878400
H1411	H141	0.709100	0.828300	0.867300
H1421	H142	0.052900	0.294200	0.309500
H1431	H143	0.191100	0.134900	0.296900
H1441	H144	0.214800	0.182700	0.253800
H1451	H145	0.230100	0.231600	0.214400
H1461	H146	0.253600	0.295400	0.175000
H1471	H147	0.118000	0.446500	0.201000
H1481	H148	0.465200	0.046000	0.305900
H1491	H149	0.312000	0.180000	0.330100
H1501	H150	0.336700	0.250100	0.292900
H1511	H151	0.350800	0.301900	0.253600
H1521	H152	0.368800	0.350100	0.210100
H1531	H153	0.521200	0.203400	0.197900
H1541	H154	0.203400	0.815400	0.455300
H1551	H155	0.087700	0.976700	0.425800
H1561	H156	0.006300	0.959400	0.461100
H1571	H157	0.938400	0.943600	0.496700
H1581	H158	0.874300	0.920700	0.536000
H1591	H159	0.005800	0.757400	0.552200
H1601	H160	0.135000	0.642900	0.459000
H1611	H161	0.346100	0.635600	0.450100
H1621	H162	0.358700	0.714600	0.486700
H1631	H163	0.354200	0.788100	0.525200
H1641	H164	0.338700	0.858100	0.564600
H1651	H165	0.127600	0.839400	0.554200
H1661	H166	0.033600	0.775000	0.445400
H1671	H167	0.871700	0.634000	0.444100
H1681	H168	0.912200	0.590600	0.485800
H1691	H169	0.963100	0.547700	0.523700
H1701	H170	0.029000	0.505200	0.560500
H1711	H171	0.165900	0.668100	0.549800
H1721	H172	0.356000	0.920200	0.695800
H1731	H173	0.364200	0.129600	0.684100
H1741	H174	0.433800	0.141000	0.723500
H1751	H175	0.482400	0.141300	0.765100
H1761	H176	0.545700	0.133600	0.806300
H1771	H177	0.553200	0.921400	0.795300
H1781	H178	0.916000	0.831800	0.418000
H1791	H179	0.509500	0.882800	0.397900
H1801	H180	0.513200	0.944900	0.382900
H1811	H181	0.216700	0.230800	0.387700
H1821	H182	0.280500	0.212300	0.375500
H1831	H183	0.054200	0.055800	0.366300
H1841	H184	0.072000	0.985300	0.370200
H1851	H185	0.049600	0.081800	0.598700
H1861	H186	0.058200	0.008900	0.598200
H1871	H187	0.141300	0.168800	0.621600
H1881	H188	0.209100	0.171700	0.632700
H1891	H189	0.052900	0.794200	0.190500
H1901	H190	0.191100	0.634900	0.203100
H1911	H191	0.214800	0.682700	0.246200
H1921	H192	0.230100	0.731600	0.285600
H1931	H193	0.253600	0.795400	0.325000
H1941	H194	0.118000	0.946500	0.299000
H1951	H195	0.465200	0.546000	0.194100
H1961	H196	0.312000	0.680000	0.169900
H1971	H197	0.336700	0.750100	0.207100
H1981	H198	0.350800	0.801900	0.246400
H1991	H199	0.368800	0.850100	0.289900
H2001	H200	0.521200	0.703400	0.302100
H2011	H201	0.203400	0.315400	0.044700
H2021	H202	0.087700	0.476700	0.074200
H2031	H203	0.006300	0.459400	0.038900
H2041	H204	0.938400	0.443600	0.003300
H2051	H205	0.874300	0.420700	0.964000
H2061	H206	0.005800	0.257400	0.947800
H2071	H207	0.135000	0.142900	0.041000
H2081	H208	0.346100	0.135600	0.049900
H2091	H209	0.358700	0.214600	0.013300
H2101	H210	0.354200	0.288100	0.974800
H2111	H211	0.338700	0.358100	0.935400
H2121	H212	0.127600	0.339400	0.945800
H2131	H213	0.033600	0.275000	0.054600
H2141	H214	0.871700	0.134000	0.055900
H2151	H215	0.912200	0.090600	0.014200
H2161	H216	0.963100	0.047700	0.976300
H2171	H217	0.029000	0.005200	0.939500
H2181	H218	0.165900	0.168100	0.950200
H2191	H219	0.356000	0.420200	0.804200
H2201	H220	0.364200	0.629600	0.815900
H2211	H221	0.433800	0.641000	0.776500
H2221	H222	0.482400	0.641300	0.734900
H2231	H223	0.545700	0.633600	0.693700
H2241	H224	0.553200	0.421400	0.704700
H2251	H225	0.916000	0.331800	0.082000
H2261	H226	0.509500	0.382800	0.102100
H2271	H227	0.513200	0.444900	0.117100
H2281	H228	0.216700	0.730800	0.112300
H2291	H229	0.280500	0.712300	0.124500
H2301	H230	0.054200	0.555800	0.133700
H2311	H231	0.072000	0.485300	0.129800
H2321	H232	0.049600	0.581800	0.901300
H2331	H233	0.058200	0.508900	0.901800
H2341	H234	0.141300	0.668800	0.878400
H2351	H235	0.209100	0.671700	0.867300
H2361	H236	0.552900	0.205800	0.309500
H2371	H237	0.691100	0.365100	0.296900
H2381	H238	0.714800	0.317300	0.253800
H2391	H239	0.730100	0.268400	0.214400
H2401	H240	0.753600	0.204600	0.175000
H2411	H241	0.618000	0.053500	0.201000
H2421	H242	0.965200	0.454000	0.305900
H2431	H243	0.812000	0.320000	0.330100
H2441	H244	0.836700	0.249900	0.292900
H2451	H245	0.850800	0.198100	0.253600
H2461	H246	0.868800	0.149900	0.210100
H2471	H247	0.021200	0.296600	0.197900
H2481	H248	0.703400	0.684600	0.455300
H2491	H249	0.587700	0.523300	0.425800
H2501	H250	0.506300	0.540600	0.461100
H2511	H251	0.438400	0.556400	0.496700
H2521	H252	0.374300	0.579300	0.536000
H2531	H253	0.505800	0.742600	0.552200
H2541	H254	0.635000	0.857100	0.459000
H2551	H255	0.846100	0.864400	0.450100
H2561	H256	0.858700	0.785400	0.486700
H2571	H257	0.854200	0.711900	0.525200
H2581	H258	0.838700	0.641900	0.564600
H2591	H259	0.627600	0.660600	0.554200
H2601	H260	0.533600	0.725000	0.445400
H2611	H261	0.371700	0.866000	0.444100
H2621	H262	0.412200	0.909400	0.485800
H2631	H263	0.463100	0.952300	0.523700
H2641	H264	0.529000	0.994800	0.560500
H2651	H265	0.665900	0.831900	0.549800
H2661	H266	0.856000	0.579800	0.695800
H2671	H267	0.864200	0.370400	0.684100
H2681	H268	0.933800	0.359000	0.723500
H2691	H269	0.982400	0.358700	0.765100
H2701	H270	0.045700	0.366400	0.806300
H2711	H271	0.053200	0.578600	0.795300
H2721	H272	0.416000	0.668200	0.418000
H2731	H273	0.009500	0.617200	0.397900
H2741	H274	0.013200	0.555100	0.382900
H2751	H275	0.716700	0.269200	0.387700
H2761	H276	0.780500	0.287700	0.375500
H2771	H277	0.554200	0.444200	0.366300
H2781	H278	0.572000	0.514700	0.370200
H2791	H279	0.549600	0.418200	0.598700
H2801	H280	0.558200	0.491100	0.598200
H2811	H281	0.641300	0.331200	0.621600
H2821	H282	0.709100	0.328300	0.632700
H2831	H283	0.447100	0.294200	0.809500
H2841	H284	0.308900	0.134900	0.796900
H2851	H285	0.285200	0.182700	0.753800
H2861	H286	0.269900	0.231600	0.714400
H2871	H287	0.246400	0.295400	0.675000
H2881	H288	0.382000	0.446500	0.701000
H2891	H289	0.034800	0.046000	0.805900
H2901	H290	0.188000	0.180000	0.830100
H2911	H291	0.163300	0.250100	0.792900
H2921	H292	0.149200	0.301900	0.753600
H2931	H293	0.131200	0.350100	0.710100
H2941	H294	0.978800	0.203400	0.697900
H2951	H295	0.296600	0.815400	0.955300
H2961	H296	0.412300	0.976700	0.925800
H2971	H297	0.493700	0.959400	0.961100
H2981	H298	0.561600	0.943600	0.996700
H2991	H299	0.625700	0.920700	0.036000
H3001	H300	0.494200	0.757400	0.052200
H3011	H301	0.365000	0.642900	0.959000
H3021	H302	0.153900	0.635600	0.950100
H3031	H303	0.141300	0.714600	0.986700
H3041	H304	0.145800	0.788100	0.025200
H3051	H305	0.161300	0.858100	0.064600
H3061	H306	0.372400	0.839400	0.054200
H3071	H307	0.466400	0.775000	0.945400
H3081	H308	0.628300	0.634000	0.944100
H3091	H309	0.587800	0.590600	0.985800
H3101	H310	0.536900	0.547700	0.023700
H3111	H311	0.471000	0.505200	0.060500
H3121	H312	0.334100	0.668100	0.049800
H3131	H313	0.144000	0.920200	0.195800
H3141	H314	0.135800	0.129600	0.184100
H3151	H315	0.066200	0.141000	0.223500
H3161	H316	0.017600	0.141300	0.265100
H3171	H317	0.954300	0.133600	0.306300
H3181	H318	0.946800	0.921400	0.295300
H3191	H319	0.584000	0.831800	0.918000
H3201	H320	0.990500	0.882800	0.897900
H3211	H321	0.986800	0.944900	0.882900
H3221	H322	0.283300	0.230800	0.887700
H3231	H323	0.219500	0.212300	0.875500
H3241	H324	0.445800	0.055800	0.866300
H3251	H325	0.428000	0.985300	0.870200
H3261	H326	0.450400	0.081800	0.098700
H3271	H327	0.441800	0.008900	0.098200
H3281	H328	0.358700	0.168800	0.121600
H3291	H329	0.290900	0.171700	0.132700
H3301	H330	0.947100	0.705800	0.690500
H3311	H331	0.808900	0.865100	0.703100
H3321	H332	0.785200	0.817300	0.746200
H3331	H333	0.769900	0.768400	0.785600
H3341	H334	0.746400	0.704600	0.825000
H3351	H335	0.882000	0.553500	0.799000
H3361	H336	0.534800	0.954000	0.694100
H3371	H337	0.688000	0.820000	0.669900
H3381	H338	0.663300	0.749900	0.707100
H3391	H339	0.649200	0.698100	0.746400
H3401	H340	0.631200	0.649900	0.789900
H3411	H341	0.478800	0.796600	0.802100
H3421	H342	0.796600	0.184600	0.544700
H3431	H343	0.912300	0.023300	0.574200
H3441	H344	0.993700	0.040600	0.538900
H3451	H345	0.061600	0.056400	0.503300
H3461	H346	0.125700	0.079300	0.464000
H3471	H347	0.994200	0.242600	0.447800
H3481	H348	0.865000	0.357100	0.541000
H3491	H349	0.653900	0.364400	0.549900
H3501	H350	0.641300	0.285400	0.513300
H3511	H351	0.645800	0.211900	0.474800
H3521	H352	0.661300	0.141900	0.435400
H3531	H353	0.872400	0.160600	0.445800
H3541	H354	0.966400	0.225000	0.554600
H3551	H355	0.128300	0.366000	0.555900
H3561	H356	0.087800	0.409400	0.514200
H3571	H357	0.036900	0.452300	0.476300
H3581	H358	0.971000	0.494800	0.439500
H3591	H359	0.834100	0.331900	0.450200
H3601	H360	0.644000	0.079800	0.304200
H3611	H361	0.635800	0.870400	0.315900
H3621	H362	0.566200	0.859000	0.276500
H3631	H363	0.517600	0.858700	0.234900
H3641	H364	0.454300	0.866400	0.193700
H3651	H365	0.446800	0.078600	0.204700
H3661	H366	0.084000	0.168200	0.582000
H3671	H367	0.490500	0.117200	0.602100
H3681	H368	0.486800	0.055100	0.617100
H3691	H369	0.783300	0.769200	0.612300
H3701	H370	0.719500	0.787700	0.624500
H3711	H371	0.945800	0.944200	0.633700
H3721	H372	0.928000	0.014700	0.629800
H3731	H373	0.950400	0.918200	0.401300
H3741	H374	0.941800	0.991100	0.401800
H3751	H375	0.858700	0.831200	0.378400
H3761	H376	0.790900	0.828300	0.367300
C11	C1	0.897100	0.317400	0.836360
C21	C2	0.913800	0.228700	0.798300
C31	C3	0.879900	0.289600	0.808580
C41	C4	0.831900	0.323400	0.791290
C51	C5	0.817900	0.294900	0.765410
C61	C6	0.852900	0.232600	0.756720
C71	C7	0.838900	0.197100	0.730430
C81	C8	0.791800	0.224300	0.711470
C91	C9	0.777400	0.186300	0.688300
C101	C10	0.809400	0.119400	0.684580
C111	C11	0.858700	0.096900	0.703880
C121	C12	0.788300	0.072400	0.660930
C131	C13	0.639500	0.449900	0.843420
C141	C14	0.561700	0.412700	0.803040
C151	C15	0.615900	0.397400	0.821170
C161	C16	0.653100	0.333900	0.817480
C171	C17	0.638400	0.292500	0.795530
C181	C18	0.586200	0.313300	0.776960
C191	C19	0.574400	0.275800	0.750370
C201	C20	0.615100	0.217900	0.741830
C211	C21	0.605100	0.189600	0.715820
C221	C22	0.556500	0.220800	0.698770
C231	C23	0.514200	0.277200	0.709160
C241	C24	0.545100	0.194900	0.669200
C251	C25	0.786900	0.584600	0.915660
C261	C26	0.835800	0.654000	0.956790
C271	C27	0.843100	0.599200	0.937350
C281	C28	0.903700	0.558400	0.938950
C291	C29	0.952700	0.569000	0.960060
C301	C30	0.940900	0.620900	0.979260
C311	C31	0.988900	0.634200	0.002860
C321	C32	0.047800	0.593000	0.008480
C331	C33	0.085600	0.606900	0.031720
C341	C34	0.065000	0.661500	0.048990
C351	C35	0.007200	0.704000	0.041210
C361	C36	0.105300	0.675500	0.075800
C371	C37	0.771300	0.921600	0.926900
C381	C38	0.819500	0.842900	0.964700
C391	C39	0.760200	0.871700	0.951700
C401	C40	0.694500	0.848300	0.959400
C411	C41	0.686700	0.800100	0.981160
C421	C42	0.748400	0.774200	0.994470
C431	C43	0.750800	0.727400	0.017930
C441	C44	0.691700	0.701600	0.031600
C451	C45	0.700900	0.659800	0.055200
C461	C46	0.769500	0.645500	0.064200
C471	C47	0.825900	0.671800	0.048660
C481	C48	0.785000	0.600600	0.089370
C491	C49	0.076100	0.757800	0.913630
C501	C50	0.991100	0.762600	0.953560
C511	C51	0.050700	0.791300	0.940080
C521	C52	0.087900	0.846300	0.952390
C531	C53	0.063600	0.871700	0.977430
C541	C54	0.005100	0.842600	0.990140
C551	C55	0.970900	0.869900	0.015140
C561	C56	0.994700	0.929500	0.029030
C571	C57	0.955500	0.954900	0.050810
C581	C58	0.893300	0.920500	0.058040
C591	C59	0.874700	0.856900	0.044200
C601	C60	0.845000	0.948000	0.080760
C611	C61	0.700100	0.485800	0.162130
C621	C62	0.628200	0.534900	0.201310
C631	C63	0.649800	0.476100	0.186190
C641	C64	0.624400	0.410800	0.194400
C651	C65	0.582200	0.403700	0.217670
C661	C66	0.564700	0.465100	0.232050
C671	C67	0.521700	0.464200	0.257310
C681	C68	0.503700	0.403200	0.271780
C691	C69	0.465200	0.407300	0.296240
C701	C70	0.443700	0.473800	0.304990
C711	C71	0.462300	0.533700	0.289530
C721	C72	0.400800	0.483400	0.330680
C731	C73	0.397100	0.682600	0.663640
C741	C74	0.413800	0.771300	0.701700
C751	C75	0.379900	0.710400	0.691420
C761	C76	0.331900	0.676600	0.708710
C771	C77	0.317900	0.705100	0.734590
C781	C78	0.352900	0.767400	0.743280
C791	C79	0.338900	0.802900	0.769570
C801	C80	0.291800	0.775700	0.788530
C811	C81	0.277400	0.813700	0.811700
C821	C82	0.309400	0.880600	0.815420
C831	C83	0.358700	0.903100	0.796120
C841	C84	0.288300	0.927600	0.839070
C851	C85	0.139500	0.550100	0.656580
C861	C86	0.061700	0.587300	0.696960
C871	C87	0.115900	0.602600	0.678830
C881	C88	0.153100	0.666100	0.682520
C891	C89	0.138400	0.707500	0.704470
C901	C90	0.086200	0.686700	0.723040
C911	C91	0.074400	0.724200	0.749630
C921	C92	0.115100	0.782100	0.758170
C931	C93	0.105100	0.810400	0.784180
C941	C94	0.056500	0.779200	0.801230
C951	C95	0.014200	0.722800	0.790840
C961	C96	0.045100	0.805100	0.830800
C971	C97	0.286900	0.415400	0.584340
C981	C98	0.335800	0.346000	0.543210
C991	C99	0.343100	0.400800	0.562650
C1001	C100	0.403700	0.441600	0.561050
C1011	C101	0.452700	0.431000	0.539940
C1021	C102	0.440900	0.379100	0.520740
C1031	C103	0.488900	0.365800	0.497140
C1041	C104	0.547800	0.407000	0.491520
C1051	C105	0.585600	0.393100	0.468280
C1061	C106	0.565000	0.338500	0.451010
C1071	C107	0.507200	0.296000	0.458790
C1081	C108	0.605300	0.324500	0.424200
C1091	C109	0.271300	0.078400	0.573100
C1101	C110	0.319500	0.157100	0.535300
C1111	C111	0.260200	0.128300	0.548300
C1121	C112	0.194500	0.151700	0.540600
C1131	C113	0.186700	0.199900	0.518840
C1141	C114	0.248400	0.225800	0.505530
C1151	C115	0.250800	0.272600	0.482070
C1161	C116	0.191700	0.298400	0.468400
C1171	C117	0.200900	0.340200	0.444800
C1181	C118	0.269500	0.354500	0.435800
C1191	C119	0.325900	0.328200	0.451340
C1201	C120	0.285000	0.399400	0.410630
C1211	C121	0.576100	0.242200	0.586370
C1221	C122	0.491100	0.237400	0.546440
C1231	C123	0.550700	0.208700	0.559920
C1241	C124	0.587900	0.153700	0.547610
C1251	C125	0.563600	0.128300	0.522570
C1261	C126	0.505100	0.157400	0.509860
C1271	C127	0.470900	0.130100	0.484860
C1281	C128	0.494700	0.070500	0.470970
C1291	C129	0.455500	0.045100	0.449190
C1301	C130	0.393300	0.079500	0.441960
C1311	C131	0.374700	0.143100	0.455800
C1321	C132	0.345000	0.052000	0.419240
C1331	C133	0.200100	0.514200	0.337870
C1341	C134	0.128200	0.465100	0.298690
C1351	C135	0.149800	0.523900	0.313810
C1361	C136	0.124400	0.589200	0.305600
C1371	C137	0.082200	0.596300	0.282330
C1381	C138	0.064700	0.534900	0.267950
C1391	C139	0.021700	0.535800	0.242690
C1401	C140	0.003700	0.596800	0.228220
C1411	C141	0.965200	0.592700	0.203760
C1421	C142	0.943700	0.526200	0.195010
C1431	C143	0.962300	0.466300	0.210470
C1441	C144	0.900800	0.516600	0.169320
C1451	C145	0.602900	0.817400	0.163640
C1461	C146	0.586200	0.728700	0.201700
C1471	C147	0.620100	0.789600	0.191420
C1481	C148	0.668100	0.823400	0.208710
C1491	C149	0.682100	0.794900	0.234590
C1501	C150	0.647100	0.732600	0.243280
C1511	C151	0.661100	0.697100	0.269570
C1521	C152	0.708200	0.724300	0.288530
C1531	C153	0.722600	0.686300	0.311700
C1541	C154	0.690600	0.619400	0.315420
C1551	C155	0.641300	0.596900	0.296120
C1561	C156	0.711700	0.572400	0.339070
C1571	C157	0.860500	0.949900	0.156580
C1581	C158	0.938300	0.912700	0.196960
C1591	C159	0.884100	0.897400	0.178830
C1601	C160	0.846900	0.833900	0.182520
C1611	C161	0.861600	0.792500	0.204470
C1621	C162	0.913800	0.813300	0.223040
C1631	C163	0.925600	0.775800	0.249630
C1641	C164	0.884900	0.717900	0.258170
C1651	C165	0.894900	0.689600	0.284180
C1661	C166	0.943500	0.720800	0.301230
C1671	C167	0.985800	0.777200	0.290840
C1681	C168	0.954900	0.694900	0.330800
C1691	C169	0.713100	0.084600	0.084340
C1701	C170	0.664200	0.154000	0.043210
C1711	C171	0.656900	0.099200	0.062650
C1721	C172	0.596300	0.058400	0.061050
C1731	C173	0.547300	0.069000	0.039940
C1741	C174	0.559100	0.120900	0.020740
C1751	C175	0.511100	0.134200	0.997140
C1761	C176	0.452200	0.093000	0.991520
C1771	C177	0.414400	0.106900	0.968280
C1781	C178	0.435000	0.161500	0.951010
C1791	C179	0.492800	0.204000	0.958790
C1801	C180	0.394700	0.175500	0.924200
C1811	C181	0.728700	0.421600	0.073100
C1821	C182	0.680500	0.342900	0.035300
C1831	C183	0.739800	0.371700	0.048300
C1841	C184	0.805500	0.348300	0.040600
C1851	C185	0.813300	0.300100	0.018840
C1861	C186	0.751600	0.274200	0.005530
C1871	C187	0.749200	0.227400	0.982070
C1881	C188	0.808300	0.201600	0.968400
C1891	C189	0.799100	0.159800	0.944800
C1901	C190	0.730500	0.145500	0.935800
C1911	C191	0.674100	0.171800	0.951340
C1921	C192	0.715000	0.100600	0.910630
C1931	C193	0.423900	0.257800	0.086370
C1941	C194	0.508900	0.262600	0.046440
C1951	C195	0.449300	0.291300	0.059920
C1961	C196	0.412100	0.346300	0.047610
C1971	C197	0.436400	0.371700	0.022570
C1981	C198	0.494900	0.342600	0.009860
C1991	C199	0.529100	0.369900	0.984860
C2001	C200	0.505300	0.429500	0.970970
C2011	C201	0.544500	0.454900	0.949190
C2021	C202	0.606700	0.420500	0.941960
C2031	C203	0.625300	0.356900	0.955800
C2041	C204	0.655000	0.448000	0.919240
C2051	C205	0.799900	0.985800	0.837870
C2061	C206	0.871800	0.034900	0.798690
C2071	C207	0.850200	0.976100	0.813810
C2081	C208	0.875600	0.910800	0.805600
C2091	C209	0.917800	0.903700	0.782330
C2101	C210	0.935300	0.965100	0.767950
C2111	C211	0.978300	0.964200	0.742690
C2121	C212	0.996300	0.903200	0.728220
C2131	C213	0.034800	0.907300	0.703760
C2141	C214	0.056300	0.973800	0.695010
C2151	C215	0.037700	0.033700	0.710470
C2161	C216	0.099200	0.983400	0.669320
C2171	C217	0.102900	0.182600	0.336360
C2181	C218	0.086200	0.271300	0.298300
C2191	C219	0.120100	0.210400	0.308580
C2201	C220	0.168100	0.176600	0.291290
C2211	C221	0.182100	0.205100	0.265410
C2221	C222	0.147100	0.267400	0.256720
C2231	C223	0.161100	0.302900	0.230430
C2241	C224	0.208200	0.275700	0.211470
C2251	C225	0.222600	0.313700	0.188300
C2261	C226	0.190600	0.380600	0.184580
C2271	C227	0.141300	0.403100	0.203880
C2281	C228	0.211700	0.427600	0.160930
C2291	C229	0.360500	0.050100	0.343420
C2301	C230	0.438300	0.087300	0.303040
C2311	C231	0.384100	0.102600	0.321170
C2321	C232	0.346900	0.166100	0.317480
C2331	C233	0.361600	0.207500	0.295530
C2341	C234	0.413800	0.186700	0.276960
C2351	C235	0.425600	0.224200	0.250370
C2361	C236	0.384900	0.282100	0.241830
C2371	C237	0.394900	0.310400	0.215820
C2381	C238	0.443500	0.279200	0.198770
C2391	C239	0.485800	0.222800	0.209160
C2401	C240	0.454900	0.305100	0.169200
C2411	C241	0.213100	0.915400	0.415660
C2421	C242	0.164200	0.846000	0.456790
C2431	C243	0.156900	0.900800	0.437350
C2441	C244	0.096300	0.941600	0.438950
C2451	C245	0.047300	0.931000	0.460060
C2461	C246	0.059100	0.879100	0.479260
C2471	C247	0.011100	0.865800	0.502860
C2481	C248	0.952200	0.907000	0.508480
C2491	C249	0.914400	0.893100	0.531720
C2501	C250	0.935000	0.838500	0.548990
C2511	C251	0.992800	0.796000	0.541210
C2521	C252	0.894700	0.824500	0.575800
C2531	C253	0.228700	0.578400	0.426900
C2541	C254	0.180500	0.657100	0.464700
C2551	C255	0.239800	0.628300	0.451700
C2561	C256	0.305500	0.651700	0.459400
C2571	C257	0.313300	0.699900	0.481160
C2581	C258	0.251600	0.725800	0.494470
C2591	C259	0.249200	0.772600	0.517930
C2601	C260	0.308300	0.798400	0.531600
C2611	C261	0.299100	0.840200	0.555200
C2621	C262	0.230500	0.854500	0.564200
C2631	C263	0.174100	0.828200	0.548660
C2641	C264	0.215000	0.899400	0.589370
C2651	C265	0.923900	0.742200	0.413630
C2661	C266	0.008900	0.737400	0.453560
C2671	C267	0.949300	0.708700	0.440080
C2681	C268	0.912100	0.653700	0.452390
C2691	C269	0.936400	0.628300	0.477430
C2701	C270	0.994900	0.657400	0.490140
C2711	C271	0.029100	0.630100	0.515140
C2721	C272	0.005300	0.570500	0.529030
C2731	C273	0.044500	0.545100	0.550810
C2741	C274	0.106700	0.579500	0.558040
C2751	C275	0.125300	0.643100	0.544200
C2761	C276	0.155000	0.552000	0.580760
C2771	C277	0.299900	0.014200	0.662130
C2781	C278	0.371800	0.965100	0.701310
C2791	C279	0.350200	0.023900	0.686190
C2801	C280	0.375600	0.089200	0.694400
C2811	C281	0.417800	0.096300	0.717670
C2821	C282	0.435300	0.034900	0.732050
C2831	C283	0.478300	0.035800	0.757310
C2841	C284	0.496300	0.096800	0.771780
C2851	C285	0.534800	0.092700	0.796240
C2861	C286	0.556300	0.026200	0.804990
C2871	C287	0.537700	0.966300	0.789530
C2881	C288	0.599200	0.016600	0.830680
C2891	C289	0.102900	0.682600	0.163640
C2901	C290	0.086200	0.771300	0.201700
C2911	C291	0.120100	0.710400	0.191420
C2921	C292	0.168100	0.676600	0.208710
C2931	C293	0.182100	0.705100	0.234590
C2941	C294	0.147100	0.767400	0.243280
C2951	C295	0.161100	0.802900	0.269570
C2961	C296	0.208200	0.775700	0.288530
C2971	C297	0.222600	0.813700	0.311700
C2981	C298	0.190600	0.880600	0.315420
C2991	C299	0.141300	0.903100	0.296120
C3001	C300	0.211700	0.927600	0.339070
C3011	C301	0.360500	0.550100	0.156580
C3021	C302	0.438300	0.587300	0.196960
C3031	C303	0.384100	0.602600	0.178830
C3041	C304	0.346900	0.666100	0.182520
C3051	C305	0.361600	0.707500	0.204470
C3061	C306	0.413800	0.686700	0.223040
C3071	C307	0.425600	0.724200	0.249630
C3081	C308	0.384900	0.782100	0.258170
C3091	C309	0.394900	0.810400	0.284180
C3101	C310	0.443500	0.779200	0.301230
C3111	C311	0.485800	0.722800	0.290840
C3121	C312	0.454900	0.805100	0.330800
C3131	C313	0.213100	0.415400	0.084340
C3141	C314	0.164200	0.346000	0.043210
C3151	C315	0.156900	0.400800	0.062650
C3161	C316	0.096300	0.441600	0.061050
C3171	C317	0.047300	0.431000	0.039940
C3181	C318	0.059100	0.379100	0.020740
C3191	C319	0.011100	0.365800	0.997140
C3201	C320	0.952200	0.407000	0.991520
C3211	C321	0.914400	0.393100	0.968280
C3221	C322	0.935000	0.338500	0.951010
C3231	C323	0.992800	0.296000	0.958790
C3241	C324	0.894700	0.324500	0.924200
C3251	C325	0.228700	0.078400	0.073100
C3261	C326	0.180500	0.157100	0.035300
C3271	C327	0.239800	0.128300	0.048300
C3281	C328	0.305500	0.151700	0.040600
C3291	C329	0.313300	0.199900	0.018840
C3301	C330	0.251600	0.225800	0.005530
C3311	C331	0.249200	0.272600	0.982070
C3321	C332	0.308300	0.298400	0.968400
C3331	C333	0.299100	0.340200	0.944800
C3341	C334	0.230500	0.354500	0.935800
C3351	C335	0.174100	0.328200	0.951340
C3361	C336	0.215000	0.399400	0.910630
C3371	C337	0.923900	0.242200	0.086370
C3381	C338	0.008900	0.237400	0.046440
C3391	C339	0.949300	0.208700	0.059920
C3401	C340	0.912100	0.153700	0.047610
C3411	C341	0.936400	0.128300	0.022570
C3421	C342	0.994900	0.157400	0.009860
C3431	C343	0.029100	0.130100	0.984860
C3441	C344	0.005300	0.070500	0.970970
C3451	C345	0.044500	0.045100	0.949190
C3461	C346	0.106700	0.079500	0.941960
C3471	C347	0.125300	0.143100	0.955800
C3481	C348	0.155000	0.052000	0.919240
C3491	C349	0.299900	0.514200	0.837870
C3501	C350	0.371800	0.465100	0.798690
C3511	C351	0.350200	0.523900	0.813810
C3521	C352	0.375600	0.589200	0.805600
C3531	C353	0.417800	0.596300	0.782330
C3541	C354	0.435300	0.534900	0.767950
C3551	C355	0.478300	0.535800	0.742690
C3561	C356	0.496300	0.596800	0.728220
C3571	C357	0.534800	0.592700	0.703760
C3581	C358	0.556300	0.526200	0.695010
C3591	C359	0.537700	0.466300	0.710470
C3601	C360	0.599200	0.516600	0.669320
C3611	C361	0.602900	0.317400	0.336360
C3621	C362	0.586200	0.228700	0.298300
C3631	C363	0.620100	0.289600	0.308580
C3641	C364	0.668100	0.323400	0.291290
C3651	C365	0.682100	0.294900	0.265410
C3661	C366	0.647100	0.232600	0.256720
C3671	C367	0.661100	0.197100	0.230430
C3681	C368	0.708200	0.224300	0.211470
C3691	C369	0.722600	0.186300	0.188300
C3701	C370	0.690600	0.119400	0.184580
C3711	C371	0.641300	0.096900	0.203880
C3721	C372	0.711700	0.072400	0.160930
C3731	C373	0.860500	0.449900	0.343420
C3741	C374	0.938300	0.412700	0.303040
C3751	C375	0.884100	0.397400	0.321170
C3761	C376	0.846900	0.333900	0.317480
C3771	C377	0.861600	0.292500	0.295530
C3781	C378	0.913800	0.313300	0.276960
C3791	C379	0.925600	0.275800	0.250370
C3801	C380	0.884900	0.217900	0.241830
C3811	C381	0.894900	0.189600	0.215820
C3821	C382	0.943500	0.220800	0.198770
C3831	C383	0.985800	0.277200	0.209160
C3841	C384	0.954900	0.194900	0.169200
C3851	C385	0.713100	0.584600	0.415660
C3861	C386	0.664200	0.654000	0.456790
C3871	C387	0.656900	0.599200	0.437350
C3881	C388	0.596300	0.558400	0.438950
C3891	C389	0.547300	0.569000	0.460060
C3901	C390	0.559100	0.620900	0.479260
C3911	C391	0.511100	0.634200	0.502860
C3921	C392	0.452200	0.593000	0.508480
C3931	C393	0.414400	0.606900	0.531720
C3941	C394	0.435000	0.661500	0.548990
C3951	C395	0.492800	0.704000	0.541210
C3961	C396	0.394700	0.675500	0.575800
C3971	C397	0.728700	0.921600	0.426900
C3981	C398	0.680500	0.842900	0.464700
C3991	C399	0.739800	0.871700	0.451700
C4001	C400	0.805500	0.848300	0.459400
C4011	C401	0.813300	0.800100	0.481160
C4021	C402	0.751600	0.774200	0.494470
C4031	C403	0.749200	0.727400	0.517930
C4041	C404	0.808300	0.701600	0.531600
C4051	C405	0.799100	0.659800	0.555200
C4061	C406	0.730500	0.645500	0.564200
C4071	C407	0.674100	0.671800	0.548660
C4081	C408	0.715000	0.600600	0.589370
C4091	C409	0.423900	0.757800	0.413630
C4101	C410	0.508900	0.762600	0.453560
C4111	C411	0.449300	0.791300	0.440080
C4121	C412	0.412100	0.846300	0.452390
C4131	C413	0.436400	0.871700	0.477430
C4141	C414	0.494900	0.842600	0.490140
C4151	C415	0.529100	0.869900	0.515140
C4161	C416	0.505300	0.929500	0.529030
C4171	C417	0.544500	0.954900	0.550810
C4181	C418	0.606700	0.920500	0.558040
C4191	C419	0.625300	0.856900	0.544200
C4201	C420	0.655000	0.948000	0.580760
C4211	C421	0.799900	0.485800	0.662130
C4221	C422	0.871800	0.534900	0.701310
C4231	C423	0.850200	0.476100	0.686190
C4241	C424	0.875600	0.410800	0.694400
C4251	C425	0.917800	0.403700	0.717670
C4261	C426	0.935300	0.465100	0.732050
C4271	C427	0.978300	0.464200	0.757310
C4281	C428	0.996300	0.403200	0.771780
C4291	C429	0.034800	0.407300	0.796240
C4301	C430	0.056300	0.473800	0.804990
C4311	C431	0.037700	0.533700	0.789530
C4321	C432	0.099200	0.483400	0.830680
C4331	C433	0.397100	0.182600	0.836360
C4341	C434	0.413800	0.271300	0.798300
C4351	C435	0.379900	0.210400	0.808580
C4361	C436	0.331900	0.176600	0.791290
C4371	C437	0.317900	0.205100	0.765410
C4381	C438	0.352900	0.267400	0.756720
C4391	C439	0.338900	0.302900	0.730430
C4401	C440	0.291800	0.275700	0.711470
C4411	C441	0.277400	0.313700	0.688300
C4421	C442	0.309400	0.380600	0.684580
C4431	C443	0.358700	0.403100	0.703880
C4441	C444	0.288300	0.427600	0.660930
C4451	C445	0.139500	0.050100	0.843420
C4461	C446	0.061700	0.087300	0.803040
C4471	C447	0.115900	0.102600	0.821170
C4481	C448	0.153100	0.166100	0.817480
C4491	C449	0.138400	0.207500	0.795530
C4501	C450	0.086200	0.186700	0.776960
C4511	C451	0.074400	0.224200	0.750370
C4521	C452	0.115100	0.282100	0.741830
C4531	C453	0.105100	0.310400	0.715820
C4541	C454	0.056500	0.279200	0.698770
C4551	C455	0.014200	0.222800	0.709160
C4561	C456	0.045100	0.305100	0.669200
C4571	C457	0.286900	0.915400	0.915660
C4581	C458	0.335800	0.846000	0.956790
C4591	C459	0.343100	0.900800	0.937350
C4601	C460	0.403700	0.941600	0.938950
C4611	C461	0.452700	0.931000	0.960060
C4621	C462	0.440900	0.879100	0.979260
C4631	C463	0.488900	0.865800	0.002860
C4641	C464	0.547800	0.907000	0.008480
C4651	C465	0.585600	0.893100	0.031720
C4661	C466	0.565000	0.838500	0.048990
C4671	C467	0.507200	0.796000	0.041210
C4681	C468	0.605300	0.824500	0.075800
C4691	C469	0.271300	0.578400	0.926900
C4701	C470	0.319500	0.657100	0.964700
C4711	C471	0.260200	0.628300	0.951700
C4721	C472	0.194500	0.651700	0.959400
C4731	C473	0.186700	0.699900	0.981160
C4741	C474	0.248400	0.725800	0.994470
C4751	C475	0.250800	0.772600	0.017930
C4761	C476	0.191700	0.798400	0.031600
C4771	C477	0.200900	0.840200	0.055200
C4781	C478	0.269500	0.854500	0.064200
C4791	C479	0.325900	0.828200	0.048660
C4801	C480	0.285000	0.899400	0.089370
C4811	C481	0.576100	0.742200	0.913630
C4821	C482	0.491100	0.737400	0.953560
C4831	C483	0.550700	0.708700	0.940080
C4841	C484	0.587900	0.653700	0.952390
C4851	C485	0.563600	0.628300	0.977430
C4861	C486	0.505100	0.657400	0.990140
C4871	C487	0.470900	0.630100	0.015140
C4881	C488	0.494700	0.570500	0.029030
C4891	C489	0.455500	0.545100	0.050810
C4901	C490	0.393300	0.579500	0.058040
C4911	C491	0.374700	0.643100	0.044200
C4921	C492	0.345000	0.552000	0.080760
C4931	C493	0.200100	0.014200	0.162130
C4941	C494	0.128200	0.965100	0.201310
C4951	C495	0.149800	0.023900	0.186190
C4961	C496	0.124400	0.089200	0.194400
C4971	C497	0.082200	0.096300	0.217670
C4981	C498	0.064700	0.034900	0.232050
C4991	C499	0.021700	0.035800	0.257310
C5001	C500	0.003700	0.096800	0.271780
C5011	C501	0.965200	0.092700	0.296240
C5021	C502	0.943700	0.026200	0.304990
C5031	C503	0.962300	0.966300	0.289530
C5041	C504	0.900800	0.016600	0.330680
C5051	C505	0.897100	0.817400	0.663640
C5061	C506	0.913800	0.728700	0.701700
C5071	C507	0.879900	0.789600	0.691420
C5081	C508	0.831900	0.823400	0.708710
C5091	C509	0.817900	0.794900	0.734590
C5101	C510	0.852900	0.732600	0.743280
C5111	C511	0.838900	0.697100	0.769570
C5121	C512	0.791800	0.724300	0.788530
C5131	C513	0.777400	0.686300	0.811700
C5141	C514	0.809400	0.619400	0.815420
C5151	C515	0.858700	0.596900	0.796120
C5161	C516	0.788300	0.572400	0.839070
C5171	C517	0.639500	0.949900	0.656580
C5181	C518	0.561700	0.912700	0.696960
C5191	C519	0.615900	0.897400	0.678830
C5201	C520	0.653100	0.833900	0.682520
C5211	C521	0.638400	0.792500	0.704470
C5221	C522	0.586200	0.813300	0.723040
C5231	C523	0.574400	0.775800	0.749630
C5241	C524	0.615100	0.717900	0.758170
C5251	C525	0.605100	0.689600	0.784180
C5261	C526	0.556500	0.720800	0.801230
C5271	C527	0.514200	0.777200	0.790840
C5281	C528	0.545100	0.694900	0.830800
C5291	C529	0.786900	0.084600	0.584340
C5301	C530	0.835800	0.154000	0.543210
C5311	C531	0.843100	0.099200	0.562650
C5321	C532	0.903700	0.058400	0.561050
C5331	C533	0.952700	0.069000	0.539940
C5341	C534	0.940900	0.120900	0.520740
C5351	C535	0.988900	0.134200	0.497140
C5361	C536	0.047800	0.093000	0.491520
C5371	C537	0.085600	0.106900	0.468280
C5381	C538	0.065000	0.161500	0.451010
C5391	C539	0.007200	0.204000	0.458790
C5401	C540	0.105300	0.175500	0.424200
C5411	C541	0.771300	0.421600	0.573100
C5421	C542	0.819500	0.342900	0.535300
C5431	C543	0.760200	0.371700	0.548300
C5441	C544	0.694500	0.348300	0.540600
C5451	C545	0.686700	0.300100	0.518840
C5461	C546	0.748400	0.274200	0.505530
C5471	C547	0.750800	0.227400	0.482070
C5481	C548	0.691700	0.201600	0.468400
C5491	C549	0.700900	0.159800	0.444800
C5501	C550	0.769500	0.145500	0.435800
C5511	C551	0.825900	0.171800	0.451340
C5521	C552	0.785000	0.100600	0.410630
C5531	C553	0.076100	0.257800	0.586370
C5541	C554	0.991100	0.262600	0.546440
C5551	C555	0.050700	0.291300	0.559920
C5561	C556	0.087900	0.346300	0.547610
C5571	C557	0.063600	0.371700	0.522570
C5581	C558	0.005100	0.342600	0.509860
C5591	C559	0.970900	0.369900	0.484860
C5601	C560	0.994700	0.429500	0.470970
C5611	C561	0.955500	0.454900	0.449190
C5621	C562	0.893300	0.420500	0.441960
C5631	C563	0.874700	0.356900	0.455800
C5641	C564	0.845000	0.448000	0.419240
C5651	C565	0.700100	0.985800	0.337870
C5661	C566	0.628200	0.034900	0.298690
C5671	C567	0.649800	0.976100	0.313810
C5681	C568	0.624400	0.910800	0.305600
C5691	C569	0.582200	0.903700	0.282330
C5701	C570	0.564700	0.965100	0.267950
C5711	C571	0.521700	0.964200	0.242690
C5721	C572	0.503700	0.903200	0.228220
C5731	C573	0.465200	0.907300	0.203760
C5741	C574	0.443700	0.973800	0.195010
C5751	C575	0.462300	0.033700	0.210470
C5761	C576	0.400800	0.983400	0.169320
N11	N1	0.545600	0.371900	0.781630
N21	N2	0.522400	0.304000	0.734210
N31	N3	0.874800	0.134200	0.726400
N41	N4	0.901700	0.201100	0.773400
N51	N5	0.814300	0.795400	0.985230
N61	N6	0.818000	0.711300	0.026570
N71	N7	0.968300	0.787600	0.977920
N81	N8	0.912800	0.832000	0.023680
N91	N9	0.969800	0.690800	0.018380
N101	N10	0.882900	0.664700	0.977530
N111	N11	0.501800	0.528400	0.266750
N121	N12	0.585900	0.530600	0.223390
N131	N13	0.045600	0.628100	0.718370
N141	N14	0.022400	0.696000	0.765790
N151	N15	0.374800	0.865800	0.773600
N161	N16	0.401700	0.798900	0.726600
N171	N17	0.314300	0.204600	0.514770
N181	N18	0.318000	0.288700	0.473430
N191	N19	0.468300	0.212400	0.522080
N201	N20	0.412800	0.168000	0.476320
N211	N21	0.469800	0.309200	0.481620
N221	N22	0.382900	0.335300	0.522470
N231	N23	0.001800	0.471600	0.233250
N241	N24	0.085900	0.469400	0.276610
N251	N25	0.954400	0.871900	0.218370
N261	N26	0.977600	0.804000	0.265790
N271	N27	0.625200	0.634200	0.273600
N281	N28	0.598300	0.701100	0.226600
N291	N29	0.685700	0.295400	0.014770
N301	N30	0.682000	0.211300	0.973430
N311	N31	0.531700	0.287600	0.022080
N321	N32	0.587200	0.332000	0.976320
N331	N33	0.530200	0.190800	0.981620
N341	N34	0.617100	0.164700	0.022470
N351	N35	0.998200	0.028400	0.733250
N361	N36	0.914100	0.030600	0.776610
N371	N37	0.454400	0.128100	0.281630
N381	N38	0.477600	0.196000	0.234210
N391	N39	0.125200	0.365800	0.226400
N401	N40	0.098300	0.298900	0.273400
N411	N41	0.185700	0.704600	0.485230
N421	N42	0.182000	0.788700	0.526570
N431	N43	0.031700	0.712400	0.477920
N441	N44	0.087200	0.668000	0.523680
N451	N45	0.030200	0.809200	0.518380
N461	N46	0.117100	0.835300	0.477530
N471	N47	0.498200	0.971600	0.766750
N481	N48	0.414100	0.969400	0.723390
N491	N49	0.454400	0.628100	0.218370
N501	N50	0.477600	0.696000	0.265790
N511	N51	0.125200	0.865800	0.273600
N521	N52	0.098300	0.798900	0.226600
N531	N53	0.185700	0.204600	0.014770
N541	N54	0.182000	0.288700	0.973430
N551	N55	0.031700	0.212400	0.022080
N561	N56	0.087200	0.168000	0.976320
N571	N57	0.030200	0.309200	0.981620
N581	N58	0.117100	0.335300	0.022470
N591	N59	0.498200	0.471600	0.733250
N601	N60	0.414100	0.469400	0.776610
N611	N61	0.954400	0.371900	0.281630
N621	N62	0.977600	0.304000	0.234210
N631	N63	0.625200	0.134200	0.226400
N641	N64	0.598300	0.201100	0.273400
N651	N65	0.685700	0.795400	0.485230
N661	N66	0.682000	0.711300	0.526570
N671	N67	0.531700	0.787600	0.477920
N681	N68	0.587200	0.832000	0.523680
N691	N69	0.530200	0.690800	0.518380
N701	N70	0.617100	0.664700	0.477530
N711	N71	0.998200	0.528400	0.766750
N721	N72	0.914100	0.530600	0.723390
N731	N73	0.045600	0.128100	0.781630
N741	N74	0.022400	0.196000	0.734210
N751	N75	0.374800	0.365800	0.726400
N761	N76	0.401700	0.298900	0.773400
N771	N77	0.314300	0.704600	0.985230
N781	N78	0.318000	0.788700	0.026570
N791	N79	0.468300	0.712400	0.977920
N801	N80	0.412800	0.668000	0.023680
N811	N81	0.469800	0.809200	0.018380
N821	N82	0.382900	0.835300	0.977530
N831	N83	0.001800	0.971600	0.266750
N841	N84	0.085900	0.969400	0.223390
N851	N85	0.545600	0.871900	0.718370
N861	N86	0.522400	0.804000	0.765790
N871	N87	0.874800	0.634200	0.773600
N881	N88	0.901700	0.701100	0.726600
N891	N89	0.814300	0.295400	0.514770
N901	N90	0.818000	0.211300	0.473430
N911	N91	0.968300	0.287600	0.522080
N921	N92	0.912800	0.332000	0.476320
N931	N93	0.969800	0.190800	0.481620
N941	N94	0.882900	0.164700	0.522470
N951	N95	0.501800	0.028400	0.233250
N961	N96	0.585900	0.030600	0.276610
O11	O1	0.860600	0.368100	0.844840
O21	O2	0.945900	0.286900	0.849150
O31	O3	0.736000	0.094600	0.646680
O41	O4	0.822900	0.016400	0.656400
O51	O5	0.696100	0.435400	0.855620
O61	O6	0.600600	0.503000	0.848070
O71	O7	0.593100	0.158100	0.659110
O81	O8	0.489500	0.213800	0.657450
O91	O9	0.796900	0.528600	0.902560
O101	O10	0.734000	0.627300	0.912420
O111	O11	0.136200	0.621100	0.085520
O121	O12	0.106500	0.735700	0.085240
O131	O13	0.057800	0.695300	0.909370
O141	O14	0.113300	0.796200	0.897890
O151	O15	0.865200	0.005200	0.091880
O161	O16	0.791200	0.912100	0.087090
O171	O17	0.835400	0.942200	0.924090
O181	O18	0.716000	0.945300	0.917350
O191	O19	0.847800	0.580000	0.093490
O201	O20	0.733600	0.583700	0.104510
O211	O21	0.703200	0.438000	0.144190
O221	O22	0.740000	0.538600	0.161710
O231	O23	0.392000	0.434900	0.347640
O241	O24	0.374500	0.545100	0.334850
O251	O25	0.515300	0.587100	0.888830
O261	O26	0.761400	0.302700	0.879380
O271	O27	0.931400	0.474400	0.878120
O281	O28	0.928300	0.452900	0.106170
O291	O29	0.823300	0.356600	0.126930
O301	O30	0.360600	0.631900	0.655160
O311	O31	0.445900	0.713100	0.650850
O321	O32	0.236000	0.905400	0.853320
O331	O33	0.322900	0.983600	0.843600
O341	O34	0.196100	0.564600	0.644380
O351	O35	0.100600	0.497000	0.651930
O361	O36	0.093100	0.841900	0.840890
O371	O37	0.989500	0.786200	0.842550
O381	O38	0.296900	0.471400	0.597440
O391	O39	0.234000	0.372700	0.587580
O401	O40	0.636200	0.378900	0.414480
O411	O41	0.606500	0.264300	0.414760
O421	O42	0.557800	0.304700	0.590630
O431	O43	0.613300	0.203800	0.602110
O441	O44	0.365200	0.994800	0.408120
O451	O45	0.291200	0.087900	0.412910
O461	O46	0.335400	0.057800	0.575910
O471	O47	0.216000	0.054700	0.582650
O481	O48	0.347800	0.420000	0.406510
O491	O49	0.233600	0.416300	0.395490
O501	O50	0.203200	0.562000	0.355810
O511	O51	0.240000	0.461400	0.338290
O521	O52	0.892000	0.565100	0.152360
O531	O53	0.874500	0.454900	0.165150
O541	O54	0.015300	0.412900	0.611170
O551	O55	0.261400	0.697300	0.620620
O561	O56	0.431400	0.525600	0.621880
O571	O57	0.428300	0.547100	0.393830
O581	O58	0.323300	0.643400	0.373070
O591	O59	0.639400	0.868100	0.155160
O601	O60	0.554100	0.786900	0.150850
O611	O61	0.764000	0.594600	0.353320
O621	O62	0.677100	0.516400	0.343600
O631	O63	0.803900	0.935400	0.144380
O641	O64	0.899400	0.003000	0.151930
O651	O65	0.906900	0.658100	0.340890
O661	O66	0.010500	0.713800	0.342550
O671	O67	0.703100	0.028600	0.097440
O681	O68	0.766000	0.127300	0.087580
O691	O69	0.363800	0.121100	0.914480
O701	O70	0.393500	0.235700	0.914760
O711	O71	0.442200	0.195300	0.090630
O721	O72	0.386700	0.296200	0.102110
O731	O73	0.634800	0.505200	0.908120
O741	O74	0.708800	0.412100	0.912910
O751	O75	0.664600	0.442200	0.075910
O761	O76	0.784000	0.445300	0.082650
O771	O77	0.652200	0.080000	0.906510
O781	O78	0.766400	0.083700	0.895490
O791	O79	0.796800	0.938000	0.855810
O801	O80	0.760000	0.038600	0.838290
O811	O81	0.108000	0.934900	0.652360
O821	O82	0.125500	0.045100	0.665150
O831	O83	0.984700	0.087100	0.111170
O841	O84	0.738600	0.802700	0.120620
O851	O85	0.568600	0.974400	0.121880
O861	O86	0.571700	0.952900	0.893830
O871	O87	0.676700	0.856600	0.873070
O881	O88	0.139400	0.131900	0.344840
O891	O89	0.054100	0.213100	0.349150
O901	O90	0.264000	0.405400	0.146680
O911	O91	0.177100	0.483600	0.156400
O921	O92	0.303900	0.064600	0.355620
O931	O93	0.399400	0.997000	0.348070
O941	O94	0.406900	0.341900	0.159110
O951	O95	0.510500	0.286200	0.157450
O961	O96	0.203100	0.971400	0.402560
O971	O97	0.266000	0.872700	0.412420
O981	O98	0.863800	0.878900	0.585520
O991	O99	0.893500	0.764300	0.585240
O1001	O100	0.942200	0.804700	0.409370
O1011	O101	0.886700	0.703800	0.397890
O1021	O102	0.134800	0.494800	0.591880
O1031	O103	0.208800	0.587900	0.587090
O1041	O104	0.164600	0.557800	0.424090
O1051	O105	0.284000	0.554700	0.417350
O1061	O106	0.152200	0.920000	0.593490
O1071	O107	0.266400	0.916300	0.604510
O1081	O108	0.296800	0.062000	0.644190
O1091	O109	0.260000	0.961400	0.661710
O1101	O110	0.608000	0.065100	0.847640
O1111	O111	0.625500	0.954900	0.834850
O1121	O112	0.484700	0.912900	0.388830
O1131	O113	0.238600	0.197300	0.379380
O1141	O114	0.068600	0.025600	0.378120
O1151	O115	0.071700	0.047100	0.606170
O1161	O116	0.176700	0.143400	0.626930
O1171	O117	0.139400	0.631900	0.155160
O1181	O118	0.054100	0.713100	0.150850
O1191	O119	0.264000	0.905400	0.353320
O1201	O120	0.177100	0.983600	0.343600
O1211	O121	0.303900	0.564600	0.144380
O1221	O122	0.399400	0.497000	0.151930
O1231	O123	0.406900	0.841900	0.340890
O1241	O124	0.510500	0.786200	0.342550
O1251	O125	0.203100	0.471400	0.097440
O1261	O126	0.266000	0.372700	0.087580
O1271	O127	0.863800	0.378900	0.914480
O1281	O128	0.893500	0.264300	0.914760
O1291	O129	0.942200	0.304700	0.090630
O1301	O130	0.886700	0.203800	0.102110
O1311	O131	0.134800	0.994800	0.908120
O1321	O132	0.208800	0.087900	0.912910
O1331	O133	0.164600	0.057800	0.075910
O1341	O134	0.284000	0.054700	0.082650
O1351	O135	0.152200	0.420000	0.906510
O1361	O136	0.266400	0.416300	0.895490
O1371	O137	0.296800	0.562000	0.855810
O1381	O138	0.260000	0.461400	0.838290
O1391	O139	0.608000	0.565100	0.652360
O1401	O140	0.625500	0.454900	0.665150
O1411	O141	0.484700	0.412900	0.111170
O1421	O142	0.238600	0.697300	0.120620
O1431	O143	0.068600	0.525600	0.121880
O1441	O144	0.071700	0.547100	0.893830
O1451	O145	0.176700	0.643400	0.873070
O1461	O146	0.639400	0.368100	0.344840
O1471	O147	0.554100	0.286900	0.349150
O1481	O148	0.764000	0.094600	0.146680
O1491	O149	0.677100	0.016400	0.156400
O1501	O150	0.803900	0.435400	0.355620
O1511	O151	0.899400	0.503000	0.348070
O1521	O152	0.906900	0.158100	0.159110
O1531	O153	0.010500	0.213800	0.157450
O1541	O154	0.703100	0.528600	0.402560
O1551	O155	0.766000	0.627300	0.412420
O1561	O156	0.363800	0.621100	0.585520
O1571	O157	0.393500	0.735700	0.585240
O1581	O158	0.442200	0.695300	0.409370
O1591	O159	0.386700	0.796200	0.397890
O1601	O160	0.634800	0.005200	0.591880
O1611	O161	0.708800	0.912100	0.587090
O1621	O162	0.664600	0.942200	0.424090
O1631	O163	0.784000	0.945300	0.417350
O1641	O164	0.652200	0.580000	0.593490
O1651	O165	0.766400	0.583700	0.604510
O1661	O166	0.796800	0.438000	0.644190
O1671	O167	0.760000	0.538600	0.661710
O1681	O168	0.108000	0.434900	0.847640
O1691	O169	0.125500	0.545100	0.834850
O1701	O170	0.984700	0.587100	0.388830
O1711	O171	0.738600	0.302700	0.379380
O1721	O172	0.568600	0.474400	0.378120
O1731	O173	0.571700	0.452900	0.606170
O1741	O174	0.676700	0.356600	0.626930
O1751	O175	0.360600	0.131900	0.844840
O1761	O176	0.445900	0.213100	0.849150
O1771	O177	0.236000	0.405400	0.646680
O1781	O178	0.322900	0.483600	0.656400
O1791	O179	0.196100	0.064600	0.855620
O1801	O180	0.100600	0.997000	0.848070
O1811	O181	0.093100	0.341900	0.659110
O1821	O182	0.989500	0.286200	0.657450
O1831	O183	0.296900	0.971400	0.902560
O1841	O184	0.234000	0.872700	0.912420
O1851	O185	0.636200	0.878900	0.085520
O1861	O186	0.606500	0.764300	0.085240
O1871	O187	0.557800	0.804700	0.909370
O1881	O188	0.613300	0.703800	0.897890
O1891	O189	0.365200	0.494800	0.091880
O1901	O190	0.291200	0.587900	0.087090
O1911	O191	0.335400	0.557800	0.924090
O1921	O192	0.216000	0.554700	0.917350
O1931	O193	0.347800	0.920000	0.093490
O1941	O194	0.233600	0.916300	0.104510
O1951	O195	0.203200	0.062000	0.144190
O1961	O196	0.240000	0.961400	0.161710
O1971	O197	0.892000	0.065100	0.347640
O1981	O198	0.874500	0.954900	0.334850
O1991	O199	0.015300	0.912900	0.888830
O2001	O200	0.261400	0.197300	0.879380
O2011	O201	0.431400	0.025600	0.878120
O2021	O202	0.428300	0.047100	0.106170
O2031	O203	0.323300	0.143400	0.126930
O2041	O204	0.860600	0.868100	0.655160
O2051	O205	0.945900	0.786900	0.650850
O2061	O206	0.736000	0.594600	0.853320
O2071	O207	0.822900	0.516400	0.843600
O2081	O208	0.696100	0.935400	0.644380
O2091	O209	0.600600	0.003000	0.651930
O2101	O210	0.593100	0.658100	0.840890
O2111	O211	0.489500	0.713800	0.842550
O2121	O212	0.796900	0.028600	0.597440
O2131	O213	0.734000	0.127300	0.587580
O2141	O214	0.136200	0.121100	0.414480
O2151	O215	0.106500	0.235700	0.414760
O2161	O216	0.057800	0.195300	0.590630
O2171	O217	0.113300	0.296200	0.602110
O2181	O218	0.865200	0.505200	0.408120
O2191	O219	0.791200	0.412100	0.412910
O2201	O220	0.835400	0.442200	0.575910
O2211	O221	0.716000	0.445300	0.582650
O2221	O222	0.847800	0.080000	0.406510
O2231	O223	0.733600	0.083700	0.395490
O2241	O224	0.703200	0.938000	0.355810
O2251	O225	0.740000	0.038600	0.338290
O2261	O226	0.392000	0.934900	0.152360
O2271	O227	0.374500	0.045100	0.165150
O2281	O228	0.515300	0.087100	0.611170
O2291	O229	0.761400	0.802700	0.620620
O2301	O230	0.931400	0.974400	0.621880
O2311	O231	0.928300	0.952900	0.393830
O2321	O232	0.823300	0.856600	0.373070
Cl11	Cl1	0.725150	0.505700	0.993420
O2331	O233	0.775700	0.539800	0.009100
O2341	O234	0.751900	0.439200	0.985430
O2351	O235	0.710600	0.547400	0.969710
O2361	O236	0.659400	0.494400	0.007910
Cl21	Cl2	0.787300	0.498300	0.260750
O2371	O237	0.808100	0.423200	0.252900
O2381	O238	0.719100	0.465600	0.259800
O2391	O239	0.731500	0.514300	0.242400
O2401	O240	0.852600	0.536400	0.259600
Cl31	Cl3	0.225150	0.494300	0.506580
O2411	O241	0.275700	0.460200	0.490900
O2421	O242	0.251900	0.560800	0.514570
O2431	O243	0.210600	0.452600	0.530290
O2441	O244	0.159400	0.505600	0.492090
Cl41	Cl4	0.287300	0.501700	0.239250
O2451	O245	0.308100	0.576800	0.247100
O2461	O246	0.219100	0.534400	0.240200
O2471	O247	0.231500	0.485700	0.257600
O2481	O248	0.352600	0.463600	0.240400
Cl51	Cl5	0.774850	0.005700	0.006580
O2491	O249	0.724300	0.039800	0.990900
O2501	O250	0.748100	0.939200	0.014570
O2511	O251	0.789400	0.047400	0.030290
O2521	O252	0.840600	0.994400	0.992090
Cl61	Cl6	0.712700	0.998300	0.739250
O2531	O253	0.691900	0.923200	0.747100
O2541	O254	0.780900	0.965600	0.740200
O2551	O255	0.768500	0.014300	0.757600
O2561	O256	0.647400	0.036400	0.740400
Cl71	Cl7	0.274850	0.994300	0.493420
O2571	O257	0.224300	0.960200	0.509100
O2581	O258	0.248100	0.060800	0.485430
O2591	O259	0.289400	0.952600	0.469710
O2601	O260	0.340600	0.005600	0.507910
Cl81	Cl8	0.212700	0.001700	0.760750
O2611	O261	0.191900	0.076800	0.752900
O2621	O262	0.280900	0.034400	0.759800
O2631	O263	0.268500	0.985700	0.742400
O2641	O264	0.147400	0.963600	0.759600
Cl91	Cl9	0.274850	0.494300	0.006580
O2651	O265	0.224300	0.460200	0.990900
O2661	O266	0.248100	0.560800	0.014570
O2671	O267	0.289400	0.452600	0.030290
O2681	O268	0.340600	0.505600	0.992090
Cl101	Cl10	0.212700	0.501700	0.739250
O2691	O269	0.191900	0.576800	0.747100
O2701	O270	0.280900	0.534400	0.740200
O2711	O271	0.268500	0.485700	0.757600
O2721	O272	0.147400	0.463600	0.740400
Cl111	Cl11	0.774850	0.505700	0.493420
O2731	O273	0.724300	0.539800	0.509100
O2741	O274	0.748100	0.439200	0.485430
O2751	O275	0.789400	0.547400	0.469710
O2761	O276	0.840600	0.494400	0.507910
Cl121	Cl12	0.712700	0.498300	0.760750
O2771	O277	0.691900	0.423200	0.752900
O2781	O278	0.780900	0.465600	0.759800
O2791	O279	0.768500	0.514300	0.742400
O2801	O280	0.647400	0.536400	0.759600
Cl131	Cl13	0.225150	0.994300	0.993420
O2811	O281	0.275700	0.960200	0.009100
O2821	O282	0.251900	0.060800	0.985430
O2831	O283	0.210600	0.952600	0.969710
O2841	O284	0.159400	0.005600	0.007910
Cl141	Cl14	0.287300	0.001700	0.260750
O2851	O285	0.308100	0.076800	0.252900
O2861	O286	0.219100	0.034400	0.259800
O2871	O287	0.231500	0.985700	0.242400
O2881	O288	0.352600	0.963600	0.259600
Cl151	Cl15	0.725150	0.005700	0.506580
O2891	O289	0.775700	0.039800	0.490900
O2901	O290	0.751900	0.939200	0.514570
O2911	O291	0.710600	0.047400	0.530290
O2921	O292	0.659400	0.994400	0.492090
Cl161	Cl16	0.787300	0.998300	0.239250
O2931	O293	0.808100	0.923200	0.247100
O2941	O294	0.719100	0.965600	0.240200
O2951	O295	0.731500	0.014300	0.257600
O2961	O296	0.852600	0.036400	0.240400
