data_NIGGAM_clean_PM
_symmetry_space_group_name_H-M	'P1'
_cell_length_a	10.905100
_cell_length_b	10.905100
_cell_length_c	19.698000
_cell_angle_alpha	75.638500
_cell_angle_beta	75.638500
_cell_angle_gamma	64.554300
_symmetry_Int_Tables_number 1

loop_
_symmetry_equiv_pos_as_xyz
'x,y,z'

loop_
_atom_site_label
_atom_site_type_symbol
_atom_site_fract_x
_atom_site_fract_y
_atom_site_fract_z
Ho11	Ho1	0.254610	0.595470	0.083160
Ho21	Ho2	0.404530	0.745390	0.416840
Ho31	Ho3	0.745390	0.404530	0.916840
Ho41	Ho4	0.595470	0.254610	0.583160
H11	H1	0.480800	0.657400	0.173100
H21	H2	0.796300	0.691100	0.223800
H31	H3	0.831600	0.599600	0.032900
H41	H4	0.342600	0.519200	0.326900
H51	H5	0.308900	0.203700	0.276200
H61	H6	0.400400	0.168400	0.467100
H71	H7	0.519200	0.342600	0.826900
H81	H8	0.203700	0.308900	0.776200
H91	H9	0.168400	0.400400	0.967100
H101	H10	0.657400	0.480800	0.673100
H111	H11	0.691100	0.796300	0.723800
H121	H12	0.599600	0.831600	0.532900
C11	C1	0.982500	0.633900	0.108300
C21	C2	0.545600	0.703000	0.282500
C31	C3	0.586000	0.594000	0.043800
C41	C4	0.645000	0.622400	0.094500
C51	C5	0.570400	0.653400	0.161000
C61	C6	0.627100	0.678300	0.210100
C71	C7	0.758100	0.674100	0.191700
C81	C8	0.835100	0.644900	0.125600
C91	C9	0.779900	0.619100	0.077000
C101	C10	0.366100	0.017500	0.391700
C111	C11	0.297000	0.454400	0.217500
C121	C12	0.406000	0.414000	0.456200
C131	C13	0.377600	0.355000	0.405500
C141	C14	0.346600	0.429600	0.339000
C151	C15	0.321700	0.372900	0.289900
C161	C16	0.325900	0.241900	0.308300
C171	C17	0.355100	0.164900	0.374400
C181	C18	0.380900	0.220100	0.423000
C191	C19	0.017500	0.366100	0.891700
C201	C20	0.454400	0.297000	0.717500
C211	C21	0.414000	0.406000	0.956200
C221	C22	0.355000	0.377600	0.905500
C231	C23	0.429600	0.346600	0.839000
C241	C24	0.372900	0.321700	0.789900
C251	C25	0.241900	0.325900	0.808300
C261	C26	0.164900	0.355100	0.874400
C271	C27	0.220100	0.380900	0.923000
C281	C28	0.633900	0.982500	0.608300
C291	C29	0.703000	0.545600	0.782500
C301	C30	0.594000	0.586000	0.543800
C311	C31	0.622400	0.645000	0.594500
C321	C32	0.653400	0.570400	0.661000
C331	C33	0.678300	0.627100	0.710100
C341	C34	0.674100	0.758100	0.691700
C351	C35	0.644900	0.835100	0.625600
C361	C36	0.619100	0.779900	0.577000
O11	O1	0.056100	0.594300	0.052600
O21	O2	0.026800	0.665600	0.150800
O31	O3	0.604400	0.706200	0.329200
O41	O4	0.422800	0.717800	0.296500
O51	O5	0.473100	0.580300	0.066300
O61	O6	0.649400	0.582800	0.981800
O71	O7	0.405700	0.943900	0.447400
O81	O8	0.334400	0.973200	0.349200
O91	O9	0.293800	0.395600	0.170800
O101	O10	0.282200	0.577200	0.203500
O111	O11	0.419700	0.526900	0.433700
O121	O12	0.417200	0.350600	0.518200
O131	O13	0.943900	0.405700	0.947400
O141	O14	0.973200	0.334400	0.849200
O151	O15	0.395600	0.293800	0.670800
O161	O16	0.577200	0.282200	0.703500
O171	O17	0.526900	0.419700	0.933700
O181	O18	0.350600	0.417200	0.018200
O191	O19	0.594300	0.056100	0.552600
O201	O20	0.665600	0.026800	0.650800
O211	O21	0.706200	0.604400	0.829200
O221	O22	0.717800	0.422800	0.796500
O231	O23	0.580300	0.473100	0.566300
O241	O24	0.582800	0.649400	0.481800
