data_NIGGEQ_clean_PM
_symmetry_space_group_name_H-M	'P1'
_cell_length_a	10.866200
_cell_length_b	10.866200
_cell_length_c	19.632000
_cell_angle_alpha	75.610500
_cell_angle_beta	75.610500
_cell_angle_gamma	64.476500
_symmetry_Int_Tables_number 1

loop_
_symmetry_equiv_pos_as_xyz
'x,y,z'

loop_
_atom_site_label
_atom_site_type_symbol
_atom_site_fract_x
_atom_site_fract_y
_atom_site_fract_z
Tm11	Tm1	0.754360	0.095800	0.083070
Tm21	Tm2	0.904200	0.245640	0.416930
Tm31	Tm3	0.245640	0.904200	0.916930
Tm41	Tm4	0.095800	0.754360	0.583070
H11	H1	0.332400	0.098400	0.032000
H21	H2	0.981400	0.154800	0.172500
H31	H3	0.298300	0.192300	0.223100
H41	H4	0.901600	0.667600	0.468000
H51	H5	0.845200	0.018600	0.327500
H61	H6	0.807700	0.701700	0.276900
H71	H7	0.667600	0.901600	0.968000
H81	H8	0.018600	0.845200	0.827500
H91	H9	0.701700	0.807700	0.776900
H101	H10	0.098400	0.332400	0.532000
H111	H11	0.154800	0.981400	0.672500
H121	H12	0.192300	0.298300	0.723100
C11	C1	0.484600	0.131800	0.107900
C21	C2	0.336600	0.143000	0.125400
C31	C3	0.281300	0.117700	0.076500
C41	C4	0.147600	0.121800	0.095200
C51	C5	0.071000	0.151800	0.160800
C61	C6	0.128200	0.178000	0.210400
C71	C7	0.259800	0.174000	0.191300
C81	C8	0.044800	0.204400	0.283000
C91	C9	0.084900	0.091300	0.043800
C101	C10	0.868200	0.515400	0.392100
C111	C11	0.857000	0.663400	0.374600
C121	C12	0.882300	0.718700	0.423500
C131	C13	0.878200	0.852400	0.404800
C141	C14	0.848200	0.929000	0.339200
C151	C15	0.822000	0.871800	0.289600
C161	C16	0.826000	0.740200	0.308700
C171	C17	0.795600	0.955200	0.217000
C181	C18	0.908700	0.915100	0.456200
C191	C19	0.515400	0.868200	0.892100
C201	C20	0.663400	0.857000	0.874600
C211	C21	0.718700	0.882300	0.923500
C221	C22	0.852400	0.878200	0.904800
C231	C23	0.929000	0.848200	0.839200
C241	C24	0.871800	0.822000	0.789600
C251	C25	0.740200	0.826000	0.808700
C261	C26	0.955200	0.795600	0.717000
C271	C27	0.915100	0.908700	0.956200
C281	C28	0.131800	0.484600	0.607900
C291	C29	0.143000	0.336600	0.625400
C301	C30	0.117700	0.281300	0.576500
C311	C31	0.121800	0.147600	0.595200
C321	C32	0.151800	0.071000	0.660800
C331	C33	0.178000	0.128200	0.710400
C341	C34	0.174000	0.259800	0.691300
C351	C35	0.204400	0.044800	0.783000
C361	C36	0.091300	0.084900	0.543800
O11	O1	0.557300	0.090900	0.052800
O21	O2	0.529400	0.168800	0.148800
O31	O3	0.103800	0.208200	0.330200
O41	O4	0.923200	0.216400	0.296600
O51	O5	0.972500	0.079700	0.066300
O61	O6	0.149700	0.081300	0.981000
O71	O7	0.909100	0.442700	0.447200
O81	O8	0.831200	0.470600	0.351200
O91	O9	0.791800	0.896200	0.169800
O101	O10	0.783600	0.076800	0.203400
O111	O11	0.920300	0.027500	0.433700
O121	O12	0.918700	0.850300	0.519000
O131	O13	0.442700	0.909100	0.947200
O141	O14	0.470600	0.831200	0.851200
O151	O15	0.896200	0.791800	0.669800
O161	O16	0.076800	0.783600	0.703400
O171	O17	0.027500	0.920300	0.933700
O181	O18	0.850300	0.918700	0.019000
O191	O19	0.090900	0.557300	0.552800
O201	O20	0.168800	0.529400	0.648800
O211	O21	0.208200	0.103800	0.830200
O221	O22	0.216400	0.923200	0.796600
O231	O23	0.079700	0.972500	0.566300
O241	O24	0.081300	0.149700	0.481000
