data_NIGGIU_clean_PM
_symmetry_space_group_name_H-M	'P1'
_cell_length_a	10.830800
_cell_length_b	10.830800
_cell_length_c	19.557000
_cell_angle_alpha	75.692500
_cell_angle_beta	75.692500
_cell_angle_gamma	64.706700
_symmetry_Int_Tables_number 1

loop_
_symmetry_equiv_pos_as_xyz
'x,y,z'

loop_
_atom_site_label
_atom_site_type_symbol
_atom_site_fract_x
_atom_site_fract_y
_atom_site_fract_z
Yb11	Yb1	0.595750	0.254610	0.082930
Yb21	Yb2	0.745390	0.404250	0.417070
Yb31	Yb3	0.404250	0.745390	0.917070
Yb41	Yb4	0.254610	0.595750	0.582930
H11	H1	0.514000	0.344000	0.327000
H21	H2	0.223000	0.313000	0.284000
H31	H3	0.174000	0.400000	0.471000
H41	H4	0.656000	0.486000	0.173000
H51	H5	0.687000	0.777000	0.216000
H61	H6	0.600000	0.826000	0.029000
H71	H7	0.486000	0.656000	0.673000
H81	H8	0.777000	0.687000	0.716000
H91	H9	0.826000	0.600000	0.529000
H101	H10	0.344000	0.514000	0.827000
H111	H11	0.313000	0.223000	0.784000
H121	H12	0.400000	0.174000	0.971000
C11	C1	0.454000	0.295000	0.217200
C21	C2	0.374300	0.320700	0.289200
C31	C3	0.430200	0.347200	0.338300
C41	C4	0.353200	0.377400	0.405600
C51	C5	0.220600	0.382200	0.422700
C61	C6	0.163600	0.355200	0.374800
C71	C7	0.241100	0.325900	0.308100
C81	C8	0.017000	0.366200	0.392700
C91	C9	0.415300	0.408300	0.456700
C101	C10	0.705000	0.546000	0.282800
C111	C11	0.679300	0.625700	0.210800
C121	C12	0.652800	0.569800	0.161700
C131	C13	0.622600	0.646800	0.094400
C141	C14	0.617800	0.779400	0.077300
C151	C15	0.644800	0.836400	0.125200
C161	C16	0.674100	0.758900	0.191900
C171	C17	0.633800	0.983000	0.107300
C181	C18	0.591700	0.584700	0.043300
C191	C19	0.546000	0.705000	0.782800
C201	C20	0.625700	0.679300	0.710800
C211	C21	0.569800	0.652800	0.661700
C221	C22	0.646800	0.622600	0.594400
C231	C23	0.779400	0.617800	0.577300
C241	C24	0.836400	0.644800	0.625200
C251	C25	0.758900	0.674100	0.691900
C261	C26	0.983000	0.633800	0.607300
C271	C27	0.584700	0.591700	0.543300
C281	C28	0.295000	0.454000	0.717200
C291	C29	0.320700	0.374300	0.789200
C301	C30	0.347200	0.430200	0.838300
C311	C31	0.377400	0.353200	0.905600
C321	C32	0.382200	0.220600	0.922700
C331	C33	0.355200	0.163600	0.874800
C341	C34	0.325900	0.241100	0.808100
C351	C35	0.366200	0.017000	0.892700
C361	C36	0.408300	0.415300	0.956700
O11	O1	0.578900	0.281100	0.202900
O21	O2	0.396500	0.289500	0.170200
O31	O3	0.971100	0.327900	0.351200
O41	O4	0.939800	0.411200	0.446600
O51	O5	0.528600	0.421400	0.433200
O61	O6	0.349900	0.419700	0.518200
O71	O7	0.718900	0.421100	0.297100
O81	O8	0.710500	0.603500	0.329800
O91	O9	0.672100	0.028900	0.148800
O101	O10	0.588800	0.060200	0.053400
O111	O11	0.578600	0.471400	0.066800
O121	O12	0.580300	0.650100	0.981800
O131	O13	0.421100	0.718900	0.797100
O141	O14	0.603500	0.710500	0.829800
O151	O15	0.028900	0.672100	0.648800
O161	O16	0.060200	0.588800	0.553400
O171	O17	0.471400	0.578600	0.566800
O181	O18	0.650100	0.580300	0.481800
O191	O19	0.281100	0.578900	0.702900
O201	O20	0.289500	0.396500	0.670200
O211	O21	0.327900	0.971100	0.851200
O221	O22	0.411200	0.939800	0.946600
O231	O23	0.421400	0.528600	0.933200
O241	O24	0.419700	0.349900	0.018200
