data_NIGNUO_clean_PM
_symmetry_space_group_name_H-M	'P1'
_cell_length_a	23.715100
_cell_length_b	23.715100
_cell_length_c	23.715100
_cell_angle_alpha	109.471000
_cell_angle_beta	109.471000
_cell_angle_gamma	109.471000
_symmetry_Int_Tables_number 1

loop_
_symmetry_equiv_pos_as_xyz
'x,y,z'

loop_
_atom_site_label
_atom_site_type_symbol
_atom_site_fract_x
_atom_site_fract_y
_atom_site_fract_z
Co11	Co1	0.445120	0.559140	0.004260
Co21	Co2	0.554880	0.440860	0.995740
Co31	Co3	0.445120	0.440850	0.885980
Co41	Co4	0.554880	0.559150	0.114020
Co51	Co5	0.885980	0.445120	0.440860
Co61	Co6	0.114020	0.554880	0.559140
Co71	Co7	0.004270	0.445130	0.559150
Co81	Co8	0.995730	0.554870	0.440850
Co91	Co9	0.440860	0.995740	0.554880
Co101	Co10	0.559140	0.004260	0.445120
Co111	Co11	0.559140	0.114020	0.554870
Co121	Co12	0.440860	0.885980	0.445130
Co131	Co13	0.500000	0.668790	0.168790
Co141	Co14	0.500000	0.331210	0.831210
Co151	Co15	0.831210	0.500000	0.331210
Co161	Co16	0.168790	0.500000	0.668790
Co171	Co17	0.331210	0.831210	0.500000
Co181	Co18	0.668790	0.168790	0.500000
H11	H1	0.506200	0.888000	0.906800
H21	H2	0.540200	0.817300	0.940300
H31	H3	0.512200	0.725300	0.958900
H41	H4	0.514500	0.837100	0.129600
H51	H5	0.543700	0.930700	0.112800
H61	H6	0.981200	0.599400	0.093200
H71	H7	0.877000	0.599900	0.059700
H81	H8	0.766400	0.553300	0.041100
H91	H9	0.707500	0.384900	0.870400
H101	H10	0.817900	0.430900	0.887200
H111	H11	0.018800	0.112000	0.618200
H121	H12	0.123000	0.182700	0.722900
H131	H13	0.233600	0.274700	0.786900
H141	H14	0.292500	0.162900	0.677400
H151	H15	0.182100	0.069300	0.613000
H161	H16	0.493800	0.400600	0.381800
H171	H17	0.459800	0.400100	0.277100
H181	H18	0.487800	0.446700	0.213100
H191	H19	0.485500	0.615100	0.322600
H201	H20	0.456300	0.569100	0.387000
H211	H21	0.618200	0.018800	0.112000
H221	H22	0.722900	0.123000	0.182700
H231	H23	0.786900	0.233600	0.274700
H241	H24	0.677400	0.292500	0.162900
H251	H25	0.613000	0.182100	0.069300
H261	H26	0.381800	0.493800	0.400600
H271	H27	0.277100	0.459800	0.400100
H281	H28	0.213100	0.487800	0.446700
H291	H29	0.322600	0.485500	0.615100
H301	H30	0.387000	0.456300	0.569100
H311	H31	0.906800	0.506200	0.888000
H321	H32	0.940300	0.540200	0.817300
H331	H33	0.958900	0.512200	0.725300
H341	H34	0.129600	0.514500	0.837100
H351	H35	0.112800	0.543700	0.930700
H361	H36	0.093200	0.981200	0.599400
H371	H37	0.059700	0.877000	0.599900
H381	H38	0.041100	0.766400	0.553300
H391	H39	0.870400	0.707500	0.384900
H401	H40	0.887200	0.817900	0.430900
H411	H41	0.599400	0.093200	0.981200
H421	H42	0.599900	0.059700	0.877000
H431	H43	0.553300	0.041100	0.766400
H441	H44	0.384900	0.870400	0.707500
H451	H45	0.430900	0.887200	0.817900
H461	H46	0.888000	0.906800	0.506200
H471	H47	0.817300	0.940300	0.540200
H481	H48	0.725300	0.958900	0.512200
H491	H49	0.837100	0.129600	0.514500
H501	H50	0.930700	0.112800	0.543700
H511	H51	0.400600	0.381800	0.493800
H521	H52	0.400100	0.277100	0.459800
H531	H53	0.446700	0.213100	0.487800
H541	H54	0.615100	0.322600	0.485500
H551	H55	0.569100	0.387000	0.456300
H561	H56	0.112000	0.618200	0.018800
H571	H57	0.182700	0.722900	0.123000
H581	H58	0.274700	0.786900	0.233600
H591	H59	0.162900	0.677400	0.292500
H601	H60	0.069300	0.613000	0.182100
H611	H61	0.493800	0.112000	0.093200
H621	H62	0.459800	0.182700	0.059700
H631	H63	0.487800	0.274700	0.041100
H641	H64	0.485500	0.162900	0.870400
H651	H65	0.456300	0.069300	0.887200
H661	H66	0.018800	0.400600	0.906800
H671	H67	0.123000	0.400100	0.940300
H681	H68	0.233600	0.446700	0.958900
H691	H69	0.292500	0.615100	0.129600
H701	H70	0.182100	0.569100	0.112800
H711	H71	0.981200	0.888000	0.381800
H721	H72	0.877000	0.817300	0.277100
H731	H73	0.766400	0.725300	0.213100
H741	H74	0.707500	0.837100	0.322600
H751	H75	0.817900	0.930700	0.387000
H761	H76	0.506200	0.599400	0.618200
H771	H77	0.540200	0.599900	0.722900
H781	H78	0.512200	0.553300	0.786900
H791	H79	0.514500	0.384900	0.677400
H801	H80	0.543700	0.430900	0.613000
H811	H81	0.381800	0.981200	0.888000
H821	H82	0.277100	0.877000	0.817300
H831	H83	0.213100	0.766400	0.725300
H841	H84	0.322600	0.707500	0.837100
H851	H85	0.387000	0.817900	0.930700
H861	H86	0.618200	0.506200	0.599400
H871	H87	0.722900	0.540200	0.599900
H881	H88	0.786900	0.512200	0.553300
H891	H89	0.677400	0.514500	0.384900
H901	H90	0.613000	0.543700	0.430900
H911	H91	0.093200	0.493800	0.112000
H921	H92	0.059700	0.459800	0.182700
H931	H93	0.041100	0.487800	0.274700
H941	H94	0.870400	0.485500	0.162900
H951	H95	0.887200	0.456300	0.069300
H961	H96	0.906800	0.018800	0.400600
H971	H97	0.940300	0.123000	0.400100
H981	H98	0.958900	0.233600	0.446700
H991	H99	0.129600	0.292500	0.615100
H1001	H100	0.112800	0.182100	0.569100
H1011	H101	0.400600	0.906800	0.018800
H1021	H102	0.400100	0.940300	0.123000
H1031	H103	0.446700	0.958900	0.233600
H1041	H104	0.615100	0.129600	0.292500
H1051	H105	0.569100	0.112800	0.182100
H1061	H106	0.112000	0.093200	0.493800
H1071	H107	0.182700	0.059700	0.459800
H1081	H108	0.274700	0.041100	0.487800
H1091	H109	0.162900	0.870400	0.485500
H1101	H110	0.069300	0.887200	0.456300
H1111	H111	0.599400	0.618200	0.506200
H1121	H112	0.599900	0.722900	0.540200
H1131	H113	0.553300	0.786900	0.512200
H1141	H114	0.384900	0.677400	0.514500
H1151	H115	0.430900	0.613000	0.543700
H1161	H116	0.888000	0.381800	0.981200
H1171	H117	0.817300	0.277100	0.877000
H1181	H118	0.725300	0.213100	0.766400
H1191	H119	0.837100	0.322600	0.707500
H1201	H120	0.930700	0.387000	0.817900
C11	C1	0.534550	0.932990	0.944040
C21	C2	0.561520	0.943610	0.012290
C31	C3	0.544390	0.884720	0.024230
C41	C4	0.535250	0.821620	0.978550
C51	C5	0.519290	0.766880	0.990050
C61	C6	0.513600	0.773320	0.048320
C71	C7	0.520810	0.833760	0.092210
C81	C8	0.537320	0.889650	0.081550
C91	C9	0.498840	0.714220	0.062320
C101	C10	0.988950	0.590510	0.055960
C111	C11	0.931320	0.549230	0.987710
C121	C12	0.860490	0.520160	0.975770
C131	C13	0.843070	0.556700	0.021450
C141	C14	0.776830	0.529240	0.009950
C151	C15	0.725000	0.465280	0.951680
C161	C16	0.741550	0.428600	0.907790
C171	C17	0.808100	0.455770	0.918450
C181	C18	0.651900	0.436520	0.937680
C191	C19	0.011050	0.067010	0.601560
C201	C20	0.068680	0.056390	0.617910
C211	C21	0.139510	0.115280	0.659670
C221	C22	0.156930	0.178380	0.713630
C231	C23	0.223170	0.233120	0.752410
C241	C24	0.275000	0.226680	0.740280
C251	C25	0.258450	0.166240	0.687050
C261	C26	0.191900	0.110350	0.647670
C271	C27	0.348100	0.285780	0.784620
C281	C28	0.465450	0.409490	0.398440
C291	C29	0.438480	0.450770	0.382090
C301	C30	0.455610	0.479840	0.340330
C311	C31	0.464750	0.443300	0.286370
C321	C32	0.480710	0.470760	0.247590
C331	C33	0.486400	0.534720	0.259720
C341	C34	0.479190	0.571400	0.312950
C351	C35	0.462680	0.544230	0.352330
C361	C36	0.501160	0.563480	0.215380
C371	C37	0.601560	0.011050	0.067010
C381	C38	0.617910	0.068680	0.056390
C391	C39	0.659670	0.139510	0.115280
C401	C40	0.713630	0.156930	0.178380
C411	C41	0.752410	0.223170	0.233120
C421	C42	0.740280	0.275000	0.226680
C431	C43	0.687050	0.258450	0.166240
C441	C44	0.647670	0.191900	0.110350
C451	C45	0.784620	0.348100	0.285780
C461	C46	0.398440	0.465450	0.409490
C471	C47	0.382090	0.438480	0.450770
C481	C48	0.340330	0.455610	0.479840
C491	C49	0.286370	0.464750	0.443300
C501	C50	0.247590	0.480710	0.470760
C511	C51	0.259720	0.486400	0.534720
C521	C52	0.312950	0.479190	0.571400
C531	C53	0.352330	0.462680	0.544230
C541	C54	0.215380	0.501160	0.563480
C551	C55	0.944040	0.534550	0.932990
C561	C56	0.012290	0.561520	0.943610
C571	C57	0.024230	0.544390	0.884720
C581	C58	0.978550	0.535250	0.821620
C591	C59	0.990050	0.519290	0.766880
C601	C60	0.048320	0.513600	0.773320
C611	C61	0.092210	0.520810	0.833760
C621	C62	0.081550	0.537320	0.889650
C631	C63	0.062320	0.498840	0.714220
C641	C64	0.055960	0.988950	0.590510
C651	C65	0.987710	0.931320	0.549230
C661	C66	0.975770	0.860490	0.520160
C671	C67	0.021450	0.843070	0.556700
C681	C68	0.009950	0.776830	0.529240
C691	C69	0.951680	0.725000	0.465280
C701	C70	0.907790	0.741550	0.428600
C711	C71	0.918450	0.808100	0.455770
C721	C72	0.937680	0.651900	0.436520
C731	C73	0.590510	0.055960	0.988950
C741	C74	0.549230	0.987710	0.931320
C751	C75	0.520160	0.975770	0.860490
C761	C76	0.556700	0.021450	0.843070
C771	C77	0.529240	0.009950	0.776830
C781	C78	0.465280	0.951680	0.725000
C791	C79	0.428600	0.907790	0.741550
C801	C80	0.455770	0.918450	0.808100
C811	C81	0.436520	0.937680	0.651900
C821	C82	0.932990	0.944040	0.534550
C831	C83	0.943610	0.012290	0.561520
C841	C84	0.884720	0.024230	0.544390
C851	C85	0.821620	0.978550	0.535250
C861	C86	0.766880	0.990050	0.519290
C871	C87	0.773320	0.048320	0.513600
C881	C88	0.833760	0.092210	0.520810
C891	C89	0.889650	0.081550	0.537320
C901	C90	0.714220	0.062320	0.498840
C911	C91	0.409490	0.398440	0.465450
C921	C92	0.450770	0.382090	0.438480
C931	C93	0.479840	0.340330	0.455610
C941	C94	0.443300	0.286370	0.464750
C951	C95	0.470760	0.247590	0.480710
C961	C96	0.534720	0.259720	0.486400
C971	C97	0.571400	0.312950	0.479190
C981	C98	0.544230	0.352330	0.462680
C991	C99	0.563480	0.215380	0.501160
C1001	C100	0.067010	0.601560	0.011050
C1011	C101	0.056390	0.617910	0.068680
C1021	C102	0.115280	0.659670	0.139510
C1031	C103	0.178380	0.713630	0.156930
C1041	C104	0.233120	0.752410	0.223170
C1051	C105	0.226680	0.740280	0.275000
C1061	C106	0.166240	0.687050	0.258450
C1071	C107	0.110350	0.647670	0.191900
C1081	C108	0.285780	0.784620	0.348100
C1091	C109	0.465450	0.067010	0.055960
C1101	C110	0.438480	0.056390	0.987710
C1111	C111	0.455610	0.115280	0.975770
C1121	C112	0.464750	0.178380	0.021450
C1131	C113	0.480710	0.233120	0.009950
C1141	C114	0.486400	0.226680	0.951680
C1151	C115	0.479190	0.166240	0.907790
C1161	C116	0.462680	0.110350	0.918450
C1171	C117	0.501160	0.285780	0.937680
C1181	C118	0.011050	0.409490	0.944040
C1191	C119	0.068680	0.450770	0.012290
C1201	C120	0.139510	0.479840	0.024230
C1211	C121	0.156930	0.443300	0.978550
C1221	C122	0.223170	0.470760	0.990050
C1231	C123	0.275000	0.534720	0.048320
C1241	C124	0.258450	0.571400	0.092210
C1251	C125	0.191900	0.544230	0.081550
C1261	C126	0.348100	0.563480	0.062320
C1271	C127	0.988950	0.932990	0.398440
C1281	C128	0.931320	0.943610	0.382090
C1291	C129	0.860490	0.884720	0.340330
C1301	C130	0.843070	0.821620	0.286370
C1311	C131	0.776830	0.766880	0.247590
C1321	C132	0.725000	0.773320	0.259720
C1331	C133	0.741550	0.833760	0.312950
C1341	C134	0.808100	0.889650	0.352330
C1351	C135	0.651900	0.714220	0.215380
C1361	C136	0.534550	0.590510	0.601560
C1371	C137	0.561520	0.549230	0.617910
C1381	C138	0.544390	0.520160	0.659670
C1391	C139	0.535250	0.556700	0.713630
C1401	C140	0.519290	0.529240	0.752410
C1411	C141	0.513600	0.465280	0.740280
C1421	C142	0.520810	0.428600	0.687050
C1431	C143	0.537320	0.455770	0.647670
C1441	C144	0.498840	0.436520	0.784620
C1451	C145	0.398440	0.988950	0.932990
C1461	C146	0.382090	0.931320	0.943610
C1471	C147	0.340330	0.860490	0.884720
C1481	C148	0.286370	0.843070	0.821620
C1491	C149	0.247590	0.776830	0.766880
C1501	C150	0.259720	0.725000	0.773320
C1511	C151	0.312950	0.741550	0.833760
C1521	C152	0.352330	0.808100	0.889650
C1531	C153	0.215380	0.651900	0.714220
C1541	C154	0.601560	0.534550	0.590510
C1551	C155	0.617910	0.561520	0.549230
C1561	C156	0.659670	0.544390	0.520160
C1571	C157	0.713630	0.535250	0.556700
C1581	C158	0.752410	0.519290	0.529240
C1591	C159	0.740280	0.513600	0.465280
C1601	C160	0.687050	0.520810	0.428600
C1611	C161	0.647670	0.537320	0.455770
C1621	C162	0.784620	0.498840	0.436520
C1631	C163	0.055960	0.465450	0.067010
C1641	C164	0.987710	0.438480	0.056390
C1651	C165	0.975770	0.455610	0.115280
C1661	C166	0.021450	0.464750	0.178380
C1671	C167	0.009950	0.480710	0.233120
C1681	C168	0.951680	0.486400	0.226680
C1691	C169	0.907790	0.479190	0.166240
C1701	C170	0.918450	0.462680	0.110350
C1711	C171	0.937680	0.501160	0.285780
C1721	C172	0.944040	0.011050	0.409490
C1731	C173	0.012290	0.068680	0.450770
C1741	C174	0.024230	0.139510	0.479840
C1751	C175	0.978550	0.156930	0.443300
C1761	C176	0.990050	0.223170	0.470760
C1771	C177	0.048320	0.275000	0.534720
C1781	C178	0.092210	0.258450	0.571400
C1791	C179	0.081550	0.191900	0.544230
C1801	C180	0.062320	0.348100	0.563480
C1811	C181	0.409490	0.944040	0.011050
C1821	C182	0.450770	0.012290	0.068680
C1831	C183	0.479840	0.024230	0.139510
C1841	C184	0.443300	0.978550	0.156930
C1851	C185	0.470760	0.990050	0.223170
C1861	C186	0.534720	0.048320	0.275000
C1871	C187	0.571400	0.092210	0.258450
C1881	C188	0.544230	0.081550	0.191900
C1891	C189	0.563480	0.062320	0.348100
C1901	C190	0.067010	0.055960	0.465450
C1911	C191	0.056390	0.987710	0.438480
C1921	C192	0.115280	0.975770	0.455610
C1931	C193	0.178380	0.021450	0.464750
C1941	C194	0.233120	0.009950	0.480710
C1951	C195	0.226680	0.951680	0.486400
C1961	C196	0.166240	0.907790	0.479190
C1971	C197	0.110350	0.918450	0.462680
C1981	C198	0.285780	0.937680	0.501160
C1991	C199	0.590510	0.601560	0.534550
C2001	C200	0.549230	0.617910	0.561520
C2011	C201	0.520160	0.659670	0.544390
C2021	C202	0.556700	0.713630	0.535250
C2031	C203	0.529240	0.752410	0.519290
C2041	C204	0.465280	0.740280	0.513600
C2051	C205	0.428600	0.687050	0.520810
C2061	C206	0.455770	0.647670	0.537320
C2071	C207	0.436520	0.784620	0.498840
C2081	C208	0.932990	0.398440	0.988950
C2091	C209	0.943610	0.382090	0.931320
C2101	C210	0.884720	0.340330	0.860490
C2111	C211	0.821620	0.286370	0.843070
C2121	C212	0.766880	0.247590	0.776830
C2131	C213	0.773320	0.259720	0.725000
C2141	C214	0.833760	0.312950	0.741550
C2151	C215	0.889650	0.352330	0.808100
C2161	C216	0.714220	0.215380	0.651900
O11	O1	0.500040	0.724590	0.117150
O21	O2	0.481930	0.655930	0.014480
O31	O3	0.607440	0.382890	0.882850
O41	O4	0.641450	0.467450	0.985520
O51	O5	0.392560	0.275410	0.775450
O61	O6	0.358550	0.344070	0.826000
O71	O7	0.499960	0.617110	0.224550
O81	O8	0.518070	0.532550	0.174000
O91	O9	0.775450	0.392560	0.275410
O101	O10	0.826000	0.358550	0.344070
O111	O11	0.224550	0.499960	0.617110
O121	O12	0.174000	0.518070	0.532550
O131	O13	0.117150	0.500040	0.724590
O141	O14	0.014480	0.481930	0.655930
O151	O15	0.882850	0.607440	0.382890
O161	O16	0.985520	0.641450	0.467450
O171	O17	0.382890	0.882850	0.607440
O181	O18	0.467450	0.985520	0.641450
O191	O19	0.724590	0.117150	0.500040
O201	O20	0.655930	0.014480	0.481930
O211	O21	0.617110	0.224550	0.499960
O221	O22	0.532550	0.174000	0.518070
O231	O23	0.275410	0.775450	0.392560
O241	O24	0.344070	0.826000	0.358550
O251	O25	0.499960	0.275410	0.882850
O261	O26	0.518070	0.344070	0.985520
O271	O27	0.392560	0.617110	0.117150
O281	O28	0.358550	0.532550	0.014480
O291	O29	0.607440	0.724590	0.224550
O301	O30	0.641450	0.655930	0.174000
O311	O31	0.500040	0.382890	0.775450
O321	O32	0.481930	0.467450	0.826000
O331	O33	0.224550	0.607440	0.724590
O341	O34	0.174000	0.641450	0.655930
O351	O35	0.775450	0.500040	0.382890
O361	O36	0.826000	0.481930	0.467450
O371	O37	0.882850	0.499960	0.275410
O381	O38	0.985520	0.518070	0.344070
O391	O39	0.117150	0.392560	0.617110
O401	O40	0.014480	0.358550	0.532550
O411	O41	0.617110	0.117150	0.392560
O421	O42	0.532550	0.014480	0.358550
O431	O43	0.275410	0.882850	0.499960
O441	O44	0.344070	0.985520	0.518070
O451	O45	0.382890	0.775450	0.500040
O461	O46	0.467450	0.826000	0.481930
O471	O47	0.724590	0.224550	0.607440
O481	O48	0.655930	0.174000	0.641450
O491	O49	0.500000	0.589650	0.089650
O501	O50	0.500000	0.410350	0.910350
O511	O51	0.910350	0.500000	0.410350
O521	O52	0.089650	0.500000	0.589650
O531	O53	0.410350	0.910350	0.500000
O541	O54	0.589650	0.089650	0.500000
O551	O55	0.398890	0.500000	0.898890
O561	O56	0.601110	0.500000	0.101110
O571	O57	0.898890	0.398890	0.500000
O581	O58	0.101110	0.601110	0.500000
O591	O59	0.500000	0.101110	0.601110
O601	O60	0.500000	0.898890	0.398890
O611	O61	0.500000	0.500000	0.000000
O621	O62	0.000000	0.500000	0.500000
O631	O63	0.500000	0.000000	0.500000
