data_NIHBEM_clean_PM
_symmetry_space_group_name_H-M	'P1'
_cell_length_a	9.845900
_cell_length_b	11.291100
_cell_length_c	14.825000
_cell_angle_alpha	90.826600
_cell_angle_beta	90.000000
_cell_angle_gamma	90.000000
_symmetry_Int_Tables_number 1

loop_
_symmetry_equiv_pos_as_xyz
'x,y,z'

loop_
_atom_site_label
_atom_site_type_symbol
_atom_site_fract_x
_atom_site_fract_y
_atom_site_fract_z
Fe11	Fe1	0.918760	0.755080	0.133500
Fe21	Fe2	0.892160	0.262220	0.690050
Fe31	Fe3	0.418760	0.744920	0.366500
Fe41	Fe4	0.392160	0.237780	0.809950
Fe51	Fe5	0.081240	0.244920	0.866500
Fe61	Fe6	0.107840	0.737780	0.309950
Fe71	Fe7	0.581240	0.255080	0.633500
Fe81	Fe8	0.607840	0.762220	0.190050
Fe91	Fe9	0.000000	0.500000	0.000000
Fe101	Fe10	0.500000	0.000000	0.500000
Fe111	Fe11	0.000000	0.000000	0.000000
Fe121	Fe12	0.500000	0.500000	0.500000
H11	H1	0.754000	0.869100	0.364100
H21	H2	0.030000	0.469400	0.264400
H31	H3	0.613000	0.551900	0.045900
H41	H4	0.207000	0.979700	0.225700
H51	H5	0.154000	0.689700	0.931700
H61	H6	0.703000	0.988000	0.007000
H71	H7	0.254000	0.630900	0.135900
H81	H8	0.530000	0.030600	0.235600
H91	H9	0.113000	0.948100	0.454100
H101	H10	0.707000	0.520300	0.274300
H111	H11	0.654000	0.810300	0.568300
H121	H12	0.203000	0.512000	0.493000
H131	H13	0.246000	0.130900	0.635900
H141	H14	0.970000	0.530600	0.735600
H151	H15	0.387000	0.448100	0.954100
H161	H16	0.793000	0.020300	0.774300
H171	H17	0.846000	0.310300	0.068300
H181	H18	0.297000	0.012000	0.993000
H191	H19	0.746000	0.369100	0.864100
H201	H20	0.470000	0.969400	0.764400
H211	H21	0.887000	0.051900	0.545900
H221	H22	0.293000	0.479700	0.725700
H231	H23	0.346000	0.189700	0.431700
H241	H24	0.797000	0.488000	0.507000
C11	C1	0.826300	0.833070	0.329870
C21	C2	0.016900	0.513150	0.210150
C31	C3	0.708400	0.571510	0.053210
C41	C4	0.134200	0.952670	0.183870
C51	C5	0.105000	0.743050	0.968950
C61	C6	0.717400	0.929940	0.051440
C71	C7	0.326300	0.666930	0.170130
C81	C8	0.516900	0.986850	0.289850
C91	C9	0.208400	0.928490	0.446790
C101	C10	0.634200	0.547330	0.316130
C111	C11	0.605000	0.756950	0.531050
C121	C12	0.217400	0.570060	0.448560
C131	C13	0.173700	0.166930	0.670130
C141	C14	0.983100	0.486850	0.789850
C151	C15	0.291600	0.428490	0.946790
C161	C16	0.865800	0.047330	0.816130
C171	C17	0.895000	0.256950	0.031050
C181	C18	0.282600	0.070060	0.948560
C191	C19	0.673700	0.333070	0.829870
C201	C20	0.483100	0.013150	0.710150
C211	C21	0.791600	0.071510	0.553210
C221	C22	0.365800	0.452670	0.683870
C231	C23	0.395000	0.243050	0.468950
C241	C24	0.782600	0.429940	0.551440
O11	O1	0.799130	0.811430	0.246850
O21	O2	0.936770	0.813710	0.367910
O31	O3	0.002350	0.624360	0.218030
O41	O4	0.006930	0.454860	0.138860
O51	O5	0.740170	0.650290	0.111750
O61	O6	0.788940	0.515670	0.004270
O71	O7	0.084840	0.849630	0.194390
O81	O8	0.107440	0.021010	0.121910
O91	O9	0.026430	0.686830	0.023170
O101	O10	0.114990	0.850950	0.962850
O111	O11	0.840970	0.896850	0.061150
O121	O12	0.618180	0.894620	0.094920
O131	O13	0.299130	0.688570	0.253150
O141	O14	0.436770	0.686290	0.132090
O151	O15	0.502350	0.875640	0.281970
O161	O16	0.506930	0.045140	0.361140
O171	O17	0.240170	0.849710	0.388250
O181	O18	0.288940	0.984330	0.495730
O191	O19	0.584840	0.650370	0.305610
O201	O20	0.607440	0.478990	0.378090
O211	O21	0.526430	0.813170	0.476830
O221	O22	0.614990	0.649050	0.537150
O231	O23	0.340970	0.603150	0.438850
O241	O24	0.118180	0.605380	0.405080
O251	O25	0.200870	0.188570	0.753150
O261	O26	0.063230	0.186290	0.632090
O271	O27	0.997650	0.375640	0.781970
O281	O28	0.993070	0.545140	0.861140
O291	O29	0.259830	0.349710	0.888250
O301	O30	0.211060	0.484330	0.995730
O311	O31	0.915160	0.150370	0.805610
O321	O32	0.892560	0.978990	0.878090
O331	O33	0.973570	0.313170	0.976830
O341	O34	0.885010	0.149050	0.037150
O351	O35	0.159030	0.103150	0.938850
O361	O36	0.381820	0.105380	0.905080
O371	O37	0.700870	0.311430	0.746850
O381	O38	0.563230	0.313710	0.867910
O391	O39	0.497650	0.124360	0.718030
O401	O40	0.493070	0.954860	0.638860
O411	O41	0.759830	0.150290	0.611750
O421	O42	0.711060	0.015670	0.504270
O431	O43	0.415160	0.349630	0.694390
O441	O44	0.392560	0.521010	0.621910
O451	O45	0.473570	0.186830	0.523170
O461	O46	0.385010	0.350950	0.462850
O471	O47	0.659030	0.396850	0.561150
O481	O48	0.881820	0.394620	0.594920
