data_NIJSAC_clean_PM
_symmetry_space_group_name_H-M	'P1'
_cell_length_a	5.746700
_cell_length_b	17.963100
_cell_length_c	20.394400
_cell_angle_alpha	90.000000
_cell_angle_beta	90.000000
_cell_angle_gamma	90.000000
_symmetry_Int_Tables_number 1

loop_
_symmetry_equiv_pos_as_xyz
'x,y,z'

loop_
_atom_site_label
_atom_site_type_symbol
_atom_site_fract_x
_atom_site_fract_y
_atom_site_fract_z
Cu11	Cu1	0.144230	0.996170	0.708490
Cu21	Cu2	0.355770	0.003830	0.208490
Cu31	Cu3	0.644230	0.503830	0.291510
Cu41	Cu4	0.855770	0.496170	0.791510
H11	H1	0.972000	0.133200	0.065400
H21	H2	0.472000	0.366800	0.934600
H31	H3	0.297800	0.165200	0.276100
H41	H4	0.087200	0.716800	0.739100
H51	H5	0.412800	0.283200	0.239100
H61	H6	0.202200	0.834800	0.776100
H71	H7	0.702200	0.665200	0.223900
H81	H8	0.689800	0.938400	0.942500
H91	H9	0.826300	0.279500	0.665200
H101	H10	0.003500	0.658400	0.142700
H111	H11	0.371000	0.376000	0.128600
H121	H12	0.996500	0.158400	0.357300
H131	H13	0.238700	0.554900	0.194800
H141	H14	0.173700	0.779500	0.834800
H151	H15	0.114600	0.464000	0.373600
H161	H16	0.310200	0.438400	0.557500
H171	H17	0.352600	0.141400	0.775100
H181	H18	0.071400	0.347500	0.855500
H191	H19	0.911500	0.236600	0.333100
H201	H20	0.528000	0.866800	0.565400
H211	H21	0.326800	0.739600	0.708100
H221	H22	0.810200	0.061600	0.442500
H231	H23	0.147400	0.858600	0.275100
H241	H24	0.326300	0.220500	0.334800
H251	H25	0.912800	0.216800	0.760900
H261	H26	0.614600	0.036000	0.626400
H271	H27	0.928600	0.847500	0.644500
H281	H28	0.673200	0.239600	0.791900
H291	H29	0.129000	0.624000	0.628600
H301	H30	0.647400	0.641400	0.724900
H311	H31	0.189800	0.561600	0.057500
H321	H32	0.428600	0.652500	0.355500
H331	H33	0.761300	0.054900	0.305200
H341	H34	0.571400	0.152500	0.144500
H351	H35	0.826800	0.760400	0.291900
H361	H36	0.587200	0.783200	0.260900
H371	H37	0.503500	0.841600	0.857300
H381	H38	0.588500	0.763400	0.833100
H391	H39	0.871000	0.124000	0.871400
H401	H40	0.852600	0.358600	0.224900
H411	H41	0.028000	0.633200	0.434600
H421	H42	0.885400	0.964000	0.126400
H431	H43	0.088500	0.736600	0.166900
H441	H44	0.673700	0.720500	0.165200
H451	H45	0.496500	0.341600	0.642700
H461	H46	0.738700	0.945100	0.805200
H471	H47	0.411500	0.263400	0.666900
H481	H48	0.261300	0.445100	0.694800
H491	H49	0.629000	0.876000	0.371400
H501	H50	0.385400	0.536000	0.873600
H511	H51	0.797800	0.334800	0.723900
H521	H52	0.173200	0.260400	0.208100
C11	C1	0.052600	0.606430	0.591510
C21	C2	0.512800	0.809100	0.819360
C31	C3	0.116100	0.051160	0.902930
C41	C4	0.266700	0.973770	0.459240
C51	C5	0.395400	0.960240	0.955580
C61	C6	0.300400	0.032240	0.082030
C71	C7	0.051600	0.873520	0.240790
C81	C8	0.605200	0.865280	0.469330
C91	C9	0.242900	0.410790	0.728540
C101	C10	0.839400	0.518530	0.663720
C111	C11	0.767900	0.709120	0.203390
C121	C12	0.339400	0.981470	0.336280
C131	C13	0.178800	0.057960	0.020180
C141	C14	0.199600	0.967760	0.582030
C151	C15	0.905800	0.929740	0.160100
C161	C16	0.857900	0.856700	0.684740
C171	C17	0.233300	0.026230	0.959240
C181	C18	0.883900	0.551160	0.597070
C191	C19	0.604600	0.460240	0.544420
C201	C20	0.987200	0.190900	0.319360
C211	C21	0.594200	0.070260	0.660100
C221	C22	0.257100	0.589210	0.228540
C231	C23	0.160600	0.018530	0.836280
C241	C24	0.660600	0.481470	0.163720
C251	C25	0.821200	0.557960	0.479820
C261	C26	0.447400	0.393570	0.091510
C271	C27	0.750300	0.226410	0.751210
C281	C28	0.732100	0.290880	0.703390
C291	C29	0.321200	0.942040	0.520180
C301	C30	0.947400	0.106430	0.908490
C311	C31	0.508600	0.387700	0.975000
C321	C32	0.357900	0.643300	0.315260
C331	C33	0.699600	0.532240	0.417970
C341	C34	0.249700	0.726410	0.748790
C351	C35	0.267900	0.790880	0.796610
C361	C36	0.552600	0.893570	0.408490
C371	C37	0.142100	0.356700	0.815260
C381	C38	0.250300	0.273590	0.248790
C391	C39	0.678800	0.442040	0.979820
C401	C40	0.733300	0.473770	0.040760
C411	C41	0.894800	0.134720	0.969330
C421	C42	0.757100	0.910790	0.771460
C431	C43	0.394800	0.365280	0.030670
C441	C44	0.491400	0.887700	0.525000
C451	C45	0.742900	0.089210	0.271460
C461	C46	0.642100	0.143300	0.184740
C471	C47	0.991400	0.612300	0.475000
C481	C48	0.008600	0.112300	0.025000
C491	C49	0.405800	0.570260	0.839900
C501	C50	0.948400	0.373520	0.259210
C511	C51	0.800400	0.467760	0.917970
C521	C52	0.551600	0.626480	0.759210
C531	C53	0.104600	0.039760	0.455580
C541	C54	0.012800	0.690900	0.180640
C551	C55	0.448400	0.126480	0.740790
C561	C56	0.749700	0.773590	0.251210
C571	C57	0.766700	0.526230	0.540760
C581	C58	0.616100	0.448840	0.097070
C591	C59	0.105200	0.634720	0.530670
C601	C60	0.383900	0.948840	0.402930
C611	C61	0.094200	0.429740	0.339900
C621	C62	0.232100	0.209120	0.296610
C631	C63	0.895400	0.539760	0.044420
C641	C64	0.487200	0.309100	0.680640
N11	N1	0.092900	0.931070	0.201350
N21	N2	0.143700	0.340940	0.275770
N31	N3	0.592900	0.568930	0.798650
N41	N4	0.856300	0.840940	0.224230
N51	N5	0.110800	0.421100	0.781480
N61	N6	0.202700	0.311460	0.026160
N71	N7	0.389200	0.578900	0.281480
N81	N8	0.156500	0.654910	0.230800
N91	N9	0.297300	0.688540	0.526160
N101	N10	0.279700	0.308610	0.786650
N111	N11	0.656500	0.845090	0.769200
N121	N12	0.407100	0.068930	0.701350
N131	N13	0.220300	0.691390	0.286650
N141	N14	0.258000	0.623830	0.827930
N151	N15	0.907100	0.431070	0.298650
N161	N16	0.797300	0.811460	0.473840
N171	N17	0.720300	0.808610	0.713350
N181	N18	0.843500	0.154910	0.269200
N191	N19	0.758000	0.876170	0.172070
N201	N20	0.356300	0.659060	0.775770
N211	N21	0.889200	0.921100	0.718520
N221	N22	0.702700	0.188540	0.973840
N231	N23	0.242000	0.376170	0.327930
N241	N24	0.742000	0.123830	0.672070
N251	N25	0.779700	0.191390	0.213350
N261	N26	0.643700	0.159060	0.724230
N271	N27	0.610800	0.078900	0.218520
N281	N28	0.343500	0.345090	0.730800
O11	O1	0.042800	0.013880	0.579330
O21	O2	0.376100	0.702410	0.471800
O31	O3	0.222200	0.059700	0.135470
O41	O4	0.457200	0.986120	0.079330
O51	O5	0.628000	0.215990	0.923600
O61	O6	0.175800	0.102880	0.463320
O71	O7	0.458400	0.953460	0.289040
O81	O8	0.123900	0.297590	0.971800
O91	O9	0.324200	0.897120	0.963320
O101	O10	0.612500	0.976770	0.943870
O111	O11	0.128000	0.284010	0.076400
O121	O12	0.722200	0.440300	0.864530
O131	O13	0.112500	0.523230	0.056130
O141	O14	0.958400	0.546540	0.710960
O151	O15	0.801300	0.532350	0.171060
O161	O16	0.876100	0.797590	0.528200
O171	O17	0.372000	0.715990	0.576400
O181	O18	0.041600	0.046540	0.789040
O191	O19	0.777800	0.559700	0.364530
O201	O20	0.198700	0.032350	0.328940
O211	O21	0.277800	0.940300	0.635470
O221	O22	0.824200	0.602880	0.036680
O231	O23	0.957200	0.513880	0.920670
O241	O24	0.542800	0.486120	0.420670
O251	O25	0.675800	0.397120	0.536680
O261	O26	0.623900	0.202410	0.028200
O271	O27	0.541600	0.453460	0.210960
O281	O28	0.301300	0.967650	0.828940
O291	O29	0.387500	0.476770	0.556130
O301	O30	0.698700	0.467650	0.671060
O311	O31	0.887500	0.023230	0.443870
O321	O32	0.872000	0.784010	0.423600
