data_NIJZIP_clean_PM
_symmetry_space_group_name_H-M	'P1'
_cell_length_a	14.710000
_cell_length_b	15.091000
_cell_length_c	15.091000
_cell_angle_alpha	120.000000
_cell_angle_beta	90.000000
_cell_angle_gamma	90.000000
_symmetry_Int_Tables_number 1

loop_
_symmetry_equiv_pos_as_xyz
'x,y,z'

loop_
_atom_site_label
_atom_site_type_symbol
_atom_site_fract_x
_atom_site_fract_y
_atom_site_fract_z
Nd11	Nd1	0.750000	0.333330	0.666660
Nd21	Nd2	0.750000	0.666670	0.333340
Nd31	Nd3	0.250000	0.666670	0.333340
Nd41	Nd4	0.250000	0.333330	0.666660
Cu11	Cu1	0.500000	0.500000	0.000000
Cu21	Cu2	0.500000	0.500000	0.500000
Cu31	Cu3	0.500000	0.000000	0.500000
Cu41	Cu4	0.000000	0.500000	0.000000
Cu51	Cu5	0.000000	0.000000	0.500000
Cu61	Cu6	0.000000	0.500000	0.500000
C11	C1	0.701000	0.587000	0.855600
C21	C2	0.640600	0.514800	0.871700
C31	C3	0.701000	0.268600	0.413000
C41	C4	0.640600	0.356900	0.485200
C51	C5	0.701000	0.144400	0.731400
C61	C6	0.640600	0.128300	0.643100
C71	C7	0.701000	0.413000	0.144400
C81	C8	0.640600	0.485200	0.128300
C91	C9	0.701000	0.731400	0.587000
C101	C10	0.640600	0.643100	0.514800
C111	C11	0.701000	0.855600	0.268600
C121	C12	0.640600	0.871700	0.356900
C131	C13	0.799000	0.731400	0.144400
C141	C14	0.859400	0.643100	0.128300
C151	C15	0.799000	0.855600	0.587000
C161	C16	0.859400	0.871700	0.514800
C171	C17	0.799000	0.413000	0.268600
C181	C18	0.859400	0.485200	0.356900
C191	C19	0.799000	0.268600	0.855600
C201	C20	0.859400	0.356900	0.871700
C211	C21	0.799000	0.144400	0.413000
C221	C22	0.859400	0.128300	0.485200
C231	C23	0.799000	0.587000	0.731400
C241	C24	0.859400	0.514800	0.643100
C251	C25	0.299000	0.413000	0.144400
C261	C26	0.359400	0.485200	0.128300
C271	C27	0.299000	0.731400	0.587000
C281	C28	0.359400	0.643100	0.514800
C291	C29	0.299000	0.855600	0.268600
C301	C30	0.359400	0.871700	0.356900
C311	C31	0.299000	0.587000	0.855600
C321	C32	0.359400	0.514800	0.871700
C331	C33	0.299000	0.268600	0.413000
C341	C34	0.359400	0.356900	0.485200
C351	C35	0.299000	0.144400	0.731400
C361	C36	0.359400	0.128300	0.643100
C371	C37	0.201000	0.268600	0.855600
C381	C38	0.140600	0.356900	0.871700
C391	C39	0.201000	0.144400	0.413000
C401	C40	0.140600	0.128300	0.485200
C411	C41	0.201000	0.587000	0.731400
C421	C42	0.140600	0.514800	0.643100
C431	C43	0.201000	0.731400	0.144400
C441	C44	0.140600	0.643100	0.128300
C451	C45	0.201000	0.855600	0.587000
C461	C46	0.140600	0.871700	0.514800
C471	C47	0.201000	0.413000	0.268600
C481	C48	0.140600	0.485200	0.356900
O11	O1	0.640800	0.421500	0.806400
O21	O2	0.592500	0.556800	0.950300
O31	O3	0.640800	0.384900	0.578500
O41	O4	0.592500	0.393500	0.443200
O51	O5	0.640800	0.193600	0.615100
O61	O6	0.592500	0.049700	0.606500
O71	O7	0.640800	0.578500	0.193600
O81	O8	0.592500	0.443200	0.049700
O91	O9	0.640800	0.615100	0.421500
O101	O10	0.592500	0.606500	0.556800
O111	O11	0.640800	0.806400	0.384900
O121	O12	0.592500	0.950300	0.393500
O131	O13	0.859200	0.615100	0.193600
O141	O14	0.907500	0.606500	0.049700
O151	O15	0.859200	0.806400	0.421500
O161	O16	0.907500	0.950300	0.556800
O171	O17	0.859200	0.578500	0.384900
O181	O18	0.907500	0.443200	0.393500
O191	O19	0.859200	0.384900	0.806400
O201	O20	0.907500	0.393500	0.950300
O211	O21	0.859200	0.193600	0.578500
O221	O22	0.907500	0.049700	0.443200
O231	O23	0.859200	0.421500	0.615100
O241	O24	0.907500	0.556800	0.606500
O251	O25	0.359200	0.578500	0.193600
O261	O26	0.407500	0.443200	0.049700
O271	O27	0.359200	0.615100	0.421500
O281	O28	0.407500	0.606500	0.556800
O291	O29	0.359200	0.806400	0.384900
O301	O30	0.407500	0.950300	0.393500
O311	O31	0.359200	0.421500	0.806400
O321	O32	0.407500	0.556800	0.950300
O331	O33	0.359200	0.384900	0.578500
O341	O34	0.407500	0.393500	0.443200
O351	O35	0.359200	0.193600	0.615100
O361	O36	0.407500	0.049700	0.606500
O371	O37	0.140800	0.384900	0.806400
O381	O38	0.092500	0.393500	0.950300
O391	O39	0.140800	0.193600	0.578500
O401	O40	0.092500	0.049700	0.443200
O411	O41	0.140800	0.421500	0.615100
O421	O42	0.092500	0.556800	0.606500
O431	O43	0.140800	0.615100	0.193600
O441	O44	0.092500	0.606500	0.049700
O451	O45	0.140800	0.806400	0.421500
O461	O46	0.092500	0.950300	0.556800
O471	O47	0.140800	0.578500	0.384900
O481	O48	0.092500	0.443200	0.393500
O491	O49	0.750000	0.526200	0.763100
O501	O50	0.750000	0.236900	0.473800
O511	O51	0.750000	0.236900	0.763100
O521	O52	0.750000	0.473800	0.236900
O531	O53	0.750000	0.763100	0.526200
O541	O54	0.750000	0.763100	0.236900
O551	O55	0.250000	0.473800	0.236900
O561	O56	0.250000	0.763100	0.526200
O571	O57	0.250000	0.763100	0.236900
O581	O58	0.250000	0.526200	0.763100
O591	O59	0.250000	0.236900	0.473800
O601	O60	0.250000	0.236900	0.763100
