data_NIKDEQ_clean_PM
_symmetry_space_group_name_H-M	'P1'
_cell_length_a	10.456200
_cell_length_b	10.456200
_cell_length_c	14.264000
_cell_angle_alpha	83.321300
_cell_angle_beta	83.321300
_cell_angle_gamma	85.325900
_symmetry_Int_Tables_number 1

loop_
_symmetry_equiv_pos_as_xyz
'x,y,z'

loop_
_atom_site_label
_atom_site_type_symbol
_atom_site_fract_x
_atom_site_fract_y
_atom_site_fract_z
Gd11	Gd1	0.228800	0.771200	0.250000
Gd21	Gd2	0.771200	0.228800	0.750000
H11	H1	0.290200	0.168000	0.459600
H21	H2	0.804100	0.737700	0.408700
H31	H3	0.646400	0.682800	0.411600
H41	H4	0.561000	0.883000	0.353100
H51	H5	0.715400	0.869000	0.287800
H61	H6	0.689900	0.189500	0.333600
H71	H7	0.653200	0.081400	0.256900
H81	H8	0.464600	0.210600	0.300300
H91	H9	0.444600	0.049600	0.354000
H101	H10	0.519600	0.273200	0.445300
H111	H11	0.503200	0.114600	0.499300
H121	H12	0.690300	0.671100	0.661000
H131	H13	0.682100	0.576500	0.569100
H141	H14	0.905000	0.632400	0.507100
H151	H15	0.910000	0.708400	0.610800
H161	H16	0.882300	0.914300	0.413500
H171	H17	0.876000	0.031400	0.313200
H181	H18	0.967700	0.116900	0.434400
H191	H19	0.818600	0.200800	0.417200
H201	H20	0.832000	0.709800	0.040400
H211	H21	0.262300	0.195900	0.091300
H221	H22	0.317200	0.353600	0.088400
H231	H23	0.117000	0.439000	0.146900
H241	H24	0.131000	0.284600	0.212200
H251	H25	0.810500	0.310100	0.166400
H261	H26	0.918600	0.346800	0.243100
H271	H27	0.789400	0.535400	0.199700
H281	H28	0.950400	0.555400	0.146000
H291	H29	0.726800	0.480400	0.054700
H301	H30	0.885400	0.496800	0.000700
H311	H31	0.328900	0.309700	0.839000
H321	H32	0.423500	0.317900	0.930900
H331	H33	0.367600	0.095000	0.992900
H341	H34	0.291600	0.090000	0.889200
H351	H35	0.085700	0.117700	0.086500
H361	H36	0.968600	0.124000	0.186800
H371	H37	0.883100	0.032300	0.065600
H381	H38	0.799200	0.181400	0.082800
H391	H39	0.709800	0.832000	0.540400
H401	H40	0.195900	0.262300	0.591300
H411	H41	0.353600	0.317200	0.588400
H421	H42	0.439000	0.117000	0.646900
H431	H43	0.284600	0.131000	0.712200
H441	H44	0.310100	0.810500	0.666400
H451	H45	0.346800	0.918600	0.743100
H461	H46	0.535400	0.789400	0.699700
H471	H47	0.555400	0.950400	0.646000
H481	H48	0.480400	0.726800	0.554700
H491	H49	0.496800	0.885400	0.500700
H501	H50	0.309700	0.328900	0.339000
H511	H51	0.317900	0.423500	0.430900
H521	H52	0.095000	0.367600	0.492900
H531	H53	0.090000	0.291600	0.389200
H541	H54	0.117700	0.085700	0.586500
H551	H55	0.124000	0.968600	0.686800
H561	H56	0.032300	0.883100	0.565600
H571	H57	0.181400	0.799200	0.582800
H581	H58	0.168000	0.290200	0.959600
H591	H59	0.737700	0.804100	0.908700
H601	H60	0.682800	0.646400	0.911600
H611	H61	0.883000	0.561000	0.853100
H621	H62	0.869000	0.715400	0.787800
H631	H63	0.189500	0.689900	0.833600
H641	H64	0.081400	0.653200	0.756900
H651	H65	0.210600	0.464600	0.800300
H661	H66	0.049600	0.444600	0.854000
H671	H67	0.273200	0.519600	0.945300
H681	H68	0.114600	0.503200	0.999300
H691	H69	0.671100	0.690300	0.161000
H701	H70	0.576500	0.682100	0.069100
H711	H71	0.632400	0.905000	0.007100
H721	H72	0.708400	0.910000	0.110800
H731	H73	0.914300	0.882300	0.913500
H741	H74	0.031400	0.876000	0.813200
H751	H75	0.116900	0.967700	0.934400
H761	H76	0.200800	0.818600	0.917200
C11	C1	0.297000	0.241000	0.574200
C21	C2	0.336000	0.124000	0.642800
C31	C3	0.359600	0.893600	0.671100
C41	C4	0.502000	0.864000	0.647800
C51	C5	0.532100	0.810700	0.554000
C61	C6	0.280000	0.342000	0.411900
C71	C7	0.136000	0.364000	0.421000
C81	C8	0.100000	0.492000	0.365000
C91	C9	0.837400	0.005400	0.386600
C101	C10	0.863000	0.109000	0.446000
C111	C11	0.821600	0.083600	0.553000
C121	C12	0.759000	0.703000	0.925800
C131	C13	0.876000	0.664000	0.857200
C141	C14	0.106400	0.640400	0.828900
C151	C15	0.136000	0.498000	0.852200
C161	C16	0.189300	0.467900	0.946000
C171	C17	0.658000	0.720000	0.088100
C181	C18	0.636000	0.864000	0.079000
C191	C19	0.508000	0.900000	0.135000
C201	C20	0.994600	0.162600	0.113400
C211	C21	0.891000	0.137000	0.054000
C221	C22	0.916400	0.178400	0.947000
C231	C23	0.703000	0.759000	0.425800
C241	C24	0.664000	0.876000	0.357200
C251	C25	0.640400	0.106400	0.328900
C261	C26	0.498000	0.136000	0.352200
C271	C27	0.467900	0.189300	0.446000
C281	C28	0.720000	0.658000	0.588100
C291	C29	0.864000	0.636000	0.579000
C301	C30	0.900000	0.508000	0.635000
C311	C31	0.162600	0.994600	0.613400
C321	C32	0.137000	0.891000	0.554000
C331	C33	0.178400	0.916400	0.447000
C341	C34	0.241000	0.297000	0.074200
C351	C35	0.124000	0.336000	0.142800
C361	C36	0.893600	0.359600	0.171100
C371	C37	0.864000	0.502000	0.147800
C381	C38	0.810700	0.532100	0.054000
C391	C39	0.342000	0.280000	0.911900
C401	C40	0.364000	0.136000	0.921000
C411	C41	0.492000	0.100000	0.865000
C421	C42	0.005400	0.837400	0.886600
C431	C43	0.109000	0.863000	0.946000
C441	C44	0.083600	0.821600	0.053000
N11	N1	0.327000	0.221400	0.472800
N21	N2	0.304200	0.002800	0.610600
N31	N3	0.778600	0.673000	0.027200
N41	N4	0.997200	0.695800	0.889400
N51	N5	0.673000	0.778600	0.527200
N61	N6	0.695800	0.997200	0.389400
N71	N7	0.221400	0.327000	0.972800
N81	N8	0.002800	0.304200	0.110600
O11	O1	0.020800	0.477000	0.636400
O21	O2	0.186800	0.556800	0.321500
O31	O3	0.801700	0.971700	0.587100
O41	O4	0.862000	0.158000	0.600000
O51	O5	0.523000	0.979200	0.863600
O61	O6	0.443200	0.813200	0.178500
O71	O7	0.028300	0.198300	0.912900
O81	O8	0.842000	0.138000	0.900000
O91	O9	0.979200	0.523000	0.363600
O101	O10	0.813200	0.443200	0.678500
O111	O11	0.198300	0.028300	0.412900
O121	O12	0.138000	0.842000	0.400000
O131	O13	0.477000	0.020800	0.136400
O141	O14	0.556800	0.186800	0.821500
O151	O15	0.971700	0.801700	0.087100
O161	O16	0.158000	0.862000	0.100000
