data_NIKJUN_clean_PM
_symmetry_space_group_name_H-M	'P1'
_cell_length_a	16.137600
_cell_length_b	16.137600
_cell_length_c	30.937700
_cell_angle_alpha	100.763000
_cell_angle_beta	100.763000
_cell_angle_gamma	95.917000
_symmetry_Int_Tables_number 1

loop_
_symmetry_equiv_pos_as_xyz
'x,y,z'

loop_
_atom_site_label
_atom_site_type_symbol
_atom_site_fract_x
_atom_site_fract_y
_atom_site_fract_z
Dy11	Dy1	0.138570	0.688590	0.699440
Dy21	Dy2	0.515800	0.133360	0.087260
Dy31	Dy3	0.311410	0.861430	0.800560
Dy41	Dy4	0.866640	0.484200	0.412740
Dy51	Dy5	0.861430	0.311410	0.300560
Dy61	Dy6	0.484200	0.866640	0.912740
Dy71	Dy7	0.688590	0.138570	0.199440
Dy81	Dy8	0.133360	0.515800	0.587260
Cu11	Cu1	0.025590	0.640590	0.071570
Cu21	Cu2	0.359410	0.974410	0.428430
Cu31	Cu3	0.974410	0.359410	0.928430
Cu41	Cu4	0.640590	0.025590	0.571570
Cu51	Cu5	0.723570	0.276430	0.750000
Cu61	Cu6	0.276430	0.723570	0.250000
H11	H1	0.177400	0.430200	0.985000
H21	H2	0.125600	0.518800	0.930200
H31	H3	0.990600	0.807200	0.947200
H41	H4	0.906700	0.874700	0.000000
H51	H5	0.797000	0.778600	0.138400
H61	H6	0.848900	0.687100	0.189800
H71	H7	0.135000	0.549000	0.216100
H81	H8	0.228500	0.493700	0.165700
H91	H9	0.984200	0.580600	0.883600
H101	H10	0.018600	0.599000	0.816000
H111	H11	0.205100	0.790900	0.884400
H121	H12	0.168700	0.773700	0.951400
H131	H13	0.918800	0.951400	0.111300
H141	H14	0.818400	0.046200	0.123200
H151	H15	0.630700	0.871300	0.042400
H161	H16	0.724900	0.774100	0.032500
H171	H17	0.863800	0.522800	0.189600
H181	H18	0.836200	0.489600	0.255400
H191	H19	0.048500	0.644500	0.327000
H201	H20	0.079300	0.675700	0.260400
H211	H21	0.316500	0.498700	0.051000
H221	H22	0.413000	0.398800	0.054900
H231	H23	0.252700	0.251700	0.104600
H241	H24	0.156500	0.348500	0.099500
H251	H25	0.909800	0.098800	0.837400
H261	H26	0.818800	0.154000	0.888400
H271	H27	0.584200	0.355400	0.883700
H281	H28	0.524700	0.442500	0.830700
H291	H29	0.031300	0.147700	0.792400
H301	H30	0.125600	0.052400	0.793800
H311	H31	0.589400	0.141000	0.875000
H321	H32	0.564000	0.126600	0.945700
H331	H33	0.742100	0.321100	0.005700
H341	H34	0.773100	0.334900	0.938200
H351	H35	0.597000	0.580800	0.792300
H361	H36	0.501300	0.678700	0.792800
H371	H37	0.569800	0.822600	0.515000
H381	H38	0.481200	0.874400	0.569800
H391	H39	0.192800	0.009400	0.552800
H401	H40	0.125300	0.093300	0.500000
H411	H41	0.221400	0.203000	0.361600
H421	H42	0.312900	0.151100	0.310200
H431	H43	0.451000	0.865000	0.283900
H441	H44	0.506300	0.771500	0.334300
H451	H45	0.419400	0.015800	0.616400
H461	H46	0.401000	0.981400	0.684000
H471	H47	0.209100	0.794900	0.615600
H481	H48	0.226300	0.831300	0.548600
H491	H49	0.048600	0.081200	0.388700
H501	H50	0.953800	0.181600	0.376800
H511	H51	0.128700	0.369300	0.457600
H521	H52	0.225900	0.275100	0.467500
H531	H53	0.477200	0.136200	0.310400
H541	H54	0.510400	0.163800	0.244600
H551	H55	0.355500	0.951500	0.173000
H561	H56	0.324300	0.920700	0.239600
H571	H57	0.501300	0.683500	0.449000
H581	H58	0.601200	0.587000	0.445100
H591	H59	0.748300	0.747300	0.395400
H601	H60	0.651500	0.843500	0.400500
H611	H61	0.901200	0.090200	0.662600
H621	H62	0.846000	0.181200	0.611600
H631	H63	0.644600	0.415800	0.616300
H641	H64	0.557500	0.475300	0.669300
H651	H65	0.852300	0.968700	0.707600
H661	H66	0.947600	0.874400	0.706200
H671	H67	0.859000	0.410600	0.625000
H681	H68	0.873400	0.436000	0.554300
H691	H69	0.678900	0.257900	0.494300
H701	H70	0.665100	0.226900	0.561800
H711	H71	0.419200	0.403000	0.707700
H721	H72	0.321300	0.498700	0.707200
H731	H73	0.822600	0.569800	0.015000
H741	H74	0.874400	0.481200	0.069800
H751	H75	0.009400	0.192800	0.052800
H761	H76	0.093300	0.125300	0.000000
H771	H77	0.203000	0.221400	0.861600
H781	H78	0.151100	0.312900	0.810200
H791	H79	0.865000	0.451000	0.783900
H801	H80	0.771500	0.506300	0.834300
H811	H81	0.015800	0.419400	0.116400
H821	H82	0.981400	0.401000	0.184000
H831	H83	0.794900	0.209100	0.115600
H841	H84	0.831300	0.226300	0.048600
H851	H85	0.081200	0.048600	0.888700
H861	H86	0.181600	0.953800	0.876800
H871	H87	0.369300	0.128700	0.957600
H881	H88	0.275100	0.225900	0.967500
H891	H89	0.136200	0.477200	0.810400
H901	H90	0.163800	0.510400	0.744600
H911	H91	0.951500	0.355500	0.673000
H921	H92	0.920700	0.324300	0.739600
H931	H93	0.683500	0.501300	0.949000
H941	H94	0.587000	0.601200	0.945100
H951	H95	0.747300	0.748300	0.895400
H961	H96	0.843500	0.651500	0.900500
H971	H97	0.090200	0.901200	0.162600
H981	H98	0.181200	0.846000	0.111600
H991	H99	0.415800	0.644600	0.116300
H1001	H100	0.475300	0.557500	0.169300
H1011	H101	0.968700	0.852300	0.207600
H1021	H102	0.874400	0.947600	0.206200
H1031	H103	0.410600	0.859000	0.125000
H1041	H104	0.436000	0.873400	0.054300
H1051	H105	0.257900	0.678900	0.994300
H1061	H106	0.226900	0.665100	0.061800
H1071	H107	0.403000	0.419200	0.207700
H1081	H108	0.498700	0.321300	0.207200
H1091	H109	0.430200	0.177400	0.485000
H1101	H110	0.518800	0.125600	0.430200
H1111	H111	0.807200	0.990600	0.447200
H1121	H112	0.874700	0.906700	0.500000
H1131	H113	0.778600	0.797000	0.638400
H1141	H114	0.687100	0.848900	0.689800
H1151	H115	0.549000	0.135000	0.716100
H1161	H116	0.493700	0.228500	0.665700
H1171	H117	0.580600	0.984200	0.383600
H1181	H118	0.599000	0.018600	0.316000
H1191	H119	0.790900	0.205100	0.384400
H1201	H120	0.773700	0.168700	0.451400
H1211	H121	0.951400	0.918800	0.611300
H1221	H122	0.046200	0.818400	0.623200
H1231	H123	0.871300	0.630700	0.542400
H1241	H124	0.774100	0.724900	0.532500
H1251	H125	0.522800	0.863800	0.689600
H1261	H126	0.489600	0.836200	0.755400
H1271	H127	0.644500	0.048500	0.827000
H1281	H128	0.675700	0.079300	0.760400
H1291	H129	0.498700	0.316500	0.551000
H1301	H130	0.398800	0.413000	0.554900
H1311	H131	0.251700	0.252700	0.604600
H1321	H132	0.348500	0.156500	0.599500
H1331	H133	0.098800	0.909800	0.337400
H1341	H134	0.154000	0.818800	0.388400
H1351	H135	0.355400	0.584200	0.383700
H1361	H136	0.442500	0.524700	0.330700
H1371	H137	0.147700	0.031300	0.292400
H1381	H138	0.052400	0.125600	0.293800
H1391	H139	0.141000	0.589400	0.375000
H1401	H140	0.126600	0.564000	0.445700
H1411	H141	0.321100	0.742100	0.505700
H1421	H142	0.334900	0.773100	0.438200
H1431	H143	0.580800	0.597000	0.292300
H1441	H144	0.678700	0.501300	0.292800
C11	C1	0.130700	0.516900	0.032800
C21	C2	0.149800	0.479000	0.990800
C31	C3	0.120600	0.526800	0.960800
C41	C4	0.080800	0.591800	0.984300
C51	C5	0.053800	0.661000	0.967000
C61	C6	0.013800	0.720400	0.991400
C71	C7	0.981300	0.790100	0.973900
C81	C8	0.935000	0.826400	0.002300
C91	C9	0.937300	0.777300	0.037100
C101	C10	0.890000	0.786800	0.070500
C111	C11	0.894800	0.738800	0.103400
C121	C12	0.842300	0.745700	0.136700
C131	C13	0.871000	0.696600	0.164500
C141	C14	0.940400	0.660400	0.150000
C151	C15	0.995500	0.617500	0.174900
C161	C16	0.066600	0.588600	0.159800
C171	C17	0.129300	0.551300	0.185300
C181	C18	0.179500	0.519900	0.157800
C191	C19	0.144000	0.534200	0.114200
C201	C20	0.164100	0.497900	0.074000
C211	C21	0.073000	0.673200	0.923500
C221	C22	0.029400	0.623200	0.883800
C231	C23	0.050200	0.633800	0.843600
C241	C24	0.117400	0.695600	0.843400
C251	C25	0.160300	0.747500	0.884100
C261	C26	0.139100	0.737500	0.923800
C271	C27	0.142000	0.704800	0.800300
C281	C28	0.830300	0.851500	0.071300
C291	C29	0.859900	0.934300	0.098100
C301	C30	0.799800	0.991000	0.104700
C311	C31	0.712900	0.966500	0.084300
C321	C32	0.688800	0.887400	0.057400
C331	C33	0.745000	0.829200	0.050900
C341	C34	0.650400	0.024800	0.092600
C351	C35	0.976000	0.601600	0.218300
C361	C36	0.902600	0.546600	0.217400
C371	C37	0.886700	0.526700	0.256600
C381	C38	0.941400	0.558800	0.297400
C391	C39	0.012300	0.617700	0.298900
C401	C40	0.029700	0.637300	0.259200
C411	C41	0.928500	0.531500	0.338400
C421	C42	0.227200	0.434400	0.075800
C431	C43	0.303200	0.448800	0.062000
C441	C44	0.360700	0.389100	0.064200
C451	C45	0.341300	0.316900	0.079700
C461	C46	0.265600	0.301400	0.093400
C471	C47	0.209300	0.359700	0.090800
C481	C48	0.402600	0.253000	0.081900
C491	C49	0.841000	0.162200	0.789900
C501	C50	0.866600	0.133400	0.831200
C511	C51	0.818100	0.164300	0.859100
C521	C52	0.764400	0.216000	0.836900
C531	C53	0.702200	0.255000	0.855400
C541	C54	0.654300	0.308500	0.834300
C551	C55	0.597000	0.356600	0.855000
C561	C56	0.564700	0.404100	0.826300
C571	C57	0.602000	0.385600	0.788200
C581	C58	0.013500	0.091300	0.775100
C591	C59	0.070100	0.034500	0.775500
C601	C60	0.686800	0.240800	0.899300
C611	C61	0.622200	0.178200	0.901600
C621	C62	0.606300	0.171100	0.944600
C631	C63	0.647600	0.224200	0.984500
C641	C64	0.709700	0.283100	0.979300
C651	C65	0.728800	0.291600	0.938600
C661	C66	0.628500	0.216100	0.026200
C671	C67	0.540600	0.564000	0.774900
C681	C68	0.483800	0.622600	0.775300
C691	C69	0.483100	0.869300	0.467200
C701	C70	0.521000	0.850200	0.509200
C711	C71	0.473200	0.879400	0.539200
C721	C72	0.408200	0.919200	0.515700
C731	C73	0.339000	0.946200	0.533000
C741	C74	0.279600	0.986200	0.508600
C751	C75	0.209900	0.018700	0.526100
C761	C76	0.173600	0.065000	0.497700
C771	C77	0.222700	0.062700	0.462900
C781	C78	0.213200	0.110000	0.429500
C791	C79	0.261200	0.105200	0.396600
C801	C80	0.254300	0.157700	0.363300
C811	C81	0.303400	0.129000	0.335500
C821	C82	0.339600	0.059600	0.350000
C831	C83	0.382500	0.004500	0.325100
C841	C84	0.411400	0.933400	0.340200
C851	C85	0.448700	0.870700	0.314700
C861	C86	0.480100	0.820500	0.342200
C871	C87	0.465800	0.856000	0.385800
C881	C88	0.502100	0.835900	0.426000
C891	C89	0.326800	0.927000	0.576500
C901	C90	0.376800	0.970600	0.616200
C911	C91	0.366200	0.949800	0.656400
C921	C92	0.304400	0.882600	0.656600
C931	C93	0.252500	0.839700	0.615900
C941	C94	0.262500	0.860900	0.576200
C951	C95	0.295200	0.858000	0.699700
C961	C96	0.148500	0.169700	0.428700
C971	C97	0.065700	0.140100	0.401900
C981	C98	0.009000	0.200200	0.395300
C991	C99	0.033500	0.287100	0.415700
C1001	C100	0.112600	0.311200	0.442600
C1011	C101	0.170800	0.255000	0.449100
C1021	C102	0.975200	0.349600	0.407400
C1031	C103	0.398400	0.024000	0.281700
C1041	C104	0.453400	0.097400	0.282600
C1051	C105	0.473300	0.113300	0.243400
C1061	C106	0.441200	0.058600	0.202600
C1071	C107	0.382300	0.987700	0.201100
C1081	C108	0.362700	0.970300	0.240800
C1091	C109	0.468500	0.071500	0.161600
C1101	C110	0.565600	0.772800	0.424200
C1111	C111	0.551200	0.696800	0.438000
C1121	C112	0.610900	0.639300	0.435800
C1131	C113	0.683100	0.658700	0.420300
C1141	C114	0.698600	0.734400	0.406600
C1151	C115	0.640300	0.790700	0.409200
C1161	C116	0.747000	0.597400	0.418100
C1171	C117	0.837800	0.159000	0.710100
C1181	C118	0.866600	0.133400	0.668800
C1191	C119	0.835700	0.181900	0.640900
C1201	C120	0.784000	0.235600	0.663100
C1211	C121	0.745000	0.297800	0.644600
C1221	C122	0.691500	0.345700	0.665700
C1231	C123	0.643400	0.403000	0.645000
C1241	C124	0.595900	0.435300	0.673700
C1251	C125	0.614400	0.398000	0.711800
C1261	C126	0.908700	0.986500	0.724900
C1271	C127	0.965500	0.929900	0.724500
C1281	C128	0.759200	0.313200	0.600700
C1291	C129	0.821800	0.377800	0.598400
C1301	C130	0.828900	0.393700	0.555400
C1311	C131	0.775800	0.352400	0.515500
C1321	C132	0.716900	0.290300	0.520700
C1331	C133	0.708400	0.271200	0.561400
C1341	C134	0.783900	0.371500	0.473800
C1351	C135	0.436000	0.459400	0.725100
C1361	C136	0.377400	0.516200	0.724700
C1371	C137	0.869300	0.483100	0.967200
C1381	C138	0.850200	0.521000	0.009200
C1391	C139	0.879400	0.473200	0.039200
C1401	C140	0.919200	0.408200	0.015700
C1411	C141	0.946200	0.339000	0.033000
C1421	C142	0.986200	0.279600	0.008600
C1431	C143	0.018700	0.209900	0.026100
C1441	C144	0.065000	0.173600	0.997700
C1451	C145	0.062700	0.222700	0.962900
C1461	C146	0.110000	0.213200	0.929500
C1471	C147	0.105200	0.261200	0.896600
C1481	C148	0.157700	0.254300	0.863300
C1491	C149	0.129000	0.303400	0.835500
C1501	C150	0.059600	0.339600	0.850000
C1511	C151	0.004500	0.382500	0.825100
C1521	C152	0.933400	0.411400	0.840200
C1531	C153	0.870700	0.448700	0.814700
C1541	C154	0.820500	0.480100	0.842200
C1551	C155	0.856000	0.465800	0.885800
C1561	C156	0.835900	0.502100	0.926000
C1571	C157	0.927000	0.326800	0.076500
C1581	C158	0.970600	0.376800	0.116200
C1591	C159	0.949800	0.366200	0.156400
C1601	C160	0.882600	0.304400	0.156600
C1611	C161	0.839700	0.252500	0.115900
C1621	C162	0.860900	0.262500	0.076200
C1631	C163	0.858000	0.295200	0.199700
C1641	C164	0.169700	0.148500	0.928700
C1651	C165	0.140100	0.065700	0.901900
C1661	C166	0.200200	0.009000	0.895300
C1671	C167	0.287100	0.033500	0.915700
C1681	C168	0.311200	0.112600	0.942600
C1691	C169	0.255000	0.170800	0.949100
C1701	C170	0.349600	0.975200	0.907400
C1711	C171	0.024000	0.398400	0.781700
C1721	C172	0.097400	0.453400	0.782600
C1731	C173	0.113300	0.473300	0.743400
C1741	C174	0.058600	0.441200	0.702600
C1751	C175	0.987700	0.382300	0.701100
C1761	C176	0.970300	0.362700	0.740800
C1771	C177	0.071500	0.468500	0.661600
C1781	C178	0.772800	0.565600	0.924200
C1791	C179	0.696800	0.551200	0.938000
C1801	C180	0.639300	0.610900	0.935800
C1811	C181	0.658700	0.683100	0.920300
C1821	C182	0.734400	0.698600	0.906600
C1831	C183	0.790700	0.640300	0.909200
C1841	C184	0.597400	0.747000	0.918100
C1851	C185	0.159000	0.837800	0.210100
C1861	C186	0.133400	0.866600	0.168800
C1871	C187	0.181900	0.835700	0.140900
C1881	C188	0.235600	0.784000	0.163100
C1891	C189	0.297800	0.745000	0.144600
C1901	C190	0.345700	0.691500	0.165700
C1911	C191	0.403000	0.643400	0.145000
C1921	C192	0.435300	0.595900	0.173700
C1931	C193	0.398000	0.614400	0.211800
C1941	C194	0.986500	0.908700	0.224900
C1951	C195	0.929900	0.965500	0.224500
C1961	C196	0.313200	0.759200	0.100700
C1971	C197	0.377800	0.821800	0.098400
C1981	C198	0.393700	0.828900	0.055400
C1991	C199	0.352400	0.775800	0.015500
C2001	C200	0.290300	0.716900	0.020700
C2011	C201	0.271200	0.708400	0.061400
C2021	C202	0.371500	0.783900	0.973800
C2031	C203	0.459400	0.436000	0.225100
C2041	C204	0.516200	0.377400	0.224700
C2051	C205	0.516900	0.130700	0.532800
C2061	C206	0.479000	0.149800	0.490800
C2071	C207	0.526800	0.120600	0.460800
C2081	C208	0.591800	0.080800	0.484300
C2091	C209	0.661000	0.053800	0.467000
C2101	C210	0.720400	0.013800	0.491400
C2111	C211	0.790100	0.981300	0.473900
C2121	C212	0.826400	0.935000	0.502300
C2131	C213	0.777300	0.937300	0.537100
C2141	C214	0.786800	0.890000	0.570500
C2151	C215	0.738800	0.894800	0.603400
C2161	C216	0.745700	0.842300	0.636700
C2171	C217	0.696600	0.871000	0.664500
C2181	C218	0.660400	0.940400	0.650000
C2191	C219	0.617500	0.995500	0.674900
C2201	C220	0.588600	0.066600	0.659800
C2211	C221	0.551300	0.129300	0.685300
C2221	C222	0.519900	0.179500	0.657800
C2231	C223	0.534200	0.144000	0.614200
C2241	C224	0.497900	0.164100	0.574000
C2251	C225	0.673200	0.073000	0.423500
C2261	C226	0.623200	0.029400	0.383800
C2271	C227	0.633800	0.050200	0.343600
C2281	C228	0.695600	0.117400	0.343400
C2291	C229	0.747500	0.160300	0.384100
C2301	C230	0.737500	0.139100	0.423800
C2311	C231	0.704800	0.142000	0.300300
C2321	C232	0.851500	0.830300	0.571300
C2331	C233	0.934300	0.859900	0.598100
C2341	C234	0.991000	0.799800	0.604700
C2351	C235	0.966500	0.712900	0.584300
C2361	C236	0.887400	0.688800	0.557400
C2371	C237	0.829200	0.745000	0.550900
C2381	C238	0.024800	0.650400	0.592600
C2391	C239	0.601600	0.976000	0.718300
C2401	C240	0.546600	0.902600	0.717400
C2411	C241	0.526700	0.886700	0.756600
C2421	C242	0.558800	0.941400	0.797400
C2431	C243	0.617700	0.012300	0.798900
C2441	C244	0.637300	0.029700	0.759200
C2451	C245	0.531500	0.928500	0.838400
C2461	C246	0.434400	0.227200	0.575800
C2471	C247	0.448800	0.303200	0.562000
C2481	C248	0.389100	0.360700	0.564200
C2491	C249	0.316900	0.341300	0.579700
C2501	C250	0.301400	0.265600	0.593400
C2511	C251	0.359700	0.209300	0.590800
C2521	C252	0.253000	0.402600	0.581900
C2531	C253	0.162200	0.841000	0.289900
C2541	C254	0.133400	0.866600	0.331200
C2551	C255	0.164300	0.818100	0.359100
C2561	C256	0.216000	0.764400	0.336900
C2571	C257	0.255000	0.702200	0.355400
C2581	C258	0.308500	0.654300	0.334300
C2591	C259	0.356600	0.597000	0.355000
C2601	C260	0.404100	0.564700	0.326300
C2611	C261	0.385600	0.602000	0.288200
C2621	C262	0.091300	0.013500	0.275100
C2631	C263	0.034500	0.070100	0.275500
C2641	C264	0.240800	0.686800	0.399300
C2651	C265	0.178200	0.622200	0.401600
C2661	C266	0.171100	0.606300	0.444600
C2671	C267	0.224200	0.647600	0.484500
C2681	C268	0.283100	0.709700	0.479300
C2691	C269	0.291600	0.728800	0.438600
C2701	C270	0.216100	0.628500	0.526200
C2711	C271	0.564000	0.540600	0.274900
C2721	C272	0.622600	0.483800	0.275300
C2731	C273	0.867300	0.132700	0.750000
C2741	C274	0.579200	0.420800	0.750000
C2751	C275	0.930300	0.069700	0.750000
C2761	C276	0.050100	0.949900	0.750000
C2771	C277	0.108900	0.891100	0.750000
C2781	C278	0.517600	0.482400	0.750000
C2791	C279	0.400800	0.599200	0.750000
C2801	C280	0.338300	0.661700	0.750000
C2811	C281	0.132700	0.867300	0.250000
C2821	C282	0.420800	0.579200	0.250000
C2831	C283	0.069700	0.930300	0.250000
C2841	C284	0.949900	0.050100	0.250000
C2851	C285	0.891100	0.108900	0.250000
C2861	C286	0.482400	0.517600	0.250000
C2871	C287	0.599200	0.400800	0.250000
C2881	C288	0.661700	0.338300	0.250000
N11	N1	0.083000	0.582600	0.028070
N21	N2	0.988800	0.713400	0.030500
N31	N3	0.952200	0.684400	0.110710
N41	N4	0.078500	0.583500	0.117240
N51	N5	0.778900	0.215100	0.794280
N61	N6	0.656600	0.325200	0.792990
N71	N7	0.417400	0.917000	0.471930
N81	N8	0.286600	0.011200	0.469500
N91	N9	0.315600	0.047800	0.389290
N101	N10	0.416500	0.921500	0.382760
N111	N11	0.784900	0.221100	0.705720
N121	N12	0.674800	0.343400	0.707010
N131	N13	0.917000	0.417400	0.971930
N141	N14	0.011200	0.286600	0.969500
N151	N15	0.047800	0.315600	0.889290
N161	N16	0.921500	0.416500	0.882760
N171	N17	0.221100	0.784900	0.205720
N181	N18	0.343400	0.674800	0.207010
N191	N19	0.582600	0.083000	0.528070
N201	N20	0.713400	0.988800	0.530500
N211	N21	0.684400	0.952200	0.610710
N221	N22	0.583500	0.078500	0.617240
N231	N23	0.215100	0.778900	0.294280
N241	N24	0.325200	0.656600	0.292990
O11	O1	0.099120	0.658280	0.764230
O21	O2	0.205500	0.759500	0.801170
O31	O3	0.574810	0.003790	0.072390
O41	O4	0.675370	0.095230	0.120820
O51	O5	0.877080	0.460520	0.333370
O61	O6	0.963660	0.571540	0.376640
O71	O7	0.404000	0.206600	0.110200
O81	O8	0.453300	0.247100	0.054400
O91	O9	0.086630	0.815370	0.726020
O101	O10	0.653800	0.279200	0.059500
O111	O11	0.586600	0.152400	0.031300
O121	O12	0.362870	0.735530	0.772760
O131	O13	0.341720	0.900880	0.735770
O141	O14	0.240500	0.794500	0.698830
O151	O15	0.996210	0.425190	0.427610
O161	O16	0.904770	0.324630	0.379180
O171	O17	0.539480	0.122920	0.166630
O181	O18	0.428460	0.036340	0.123360
O191	O19	0.793400	0.596000	0.389800
O201	O20	0.752900	0.546700	0.445600
O211	O21	0.184630	0.913370	0.773980
O221	O22	0.720800	0.346200	0.440500
O231	O23	0.847600	0.413400	0.468700
O241	O24	0.264470	0.637130	0.727240
O251	O25	0.900880	0.341720	0.235770
O261	O26	0.794500	0.240500	0.198830
O271	O27	0.425190	0.996210	0.927610
O281	O28	0.324630	0.904770	0.879180
O291	O29	0.122920	0.539480	0.666630
O301	O30	0.036340	0.428460	0.623360
O311	O31	0.596000	0.793400	0.889800
O321	O32	0.546700	0.752900	0.945600
O331	O33	0.913370	0.184630	0.273980
O341	O34	0.346200	0.720800	0.940500
O351	O35	0.413400	0.847600	0.968700
O361	O36	0.637130	0.264470	0.227240
O371	O37	0.658280	0.099120	0.264230
O381	O38	0.759500	0.205500	0.301170
O391	O39	0.003790	0.574810	0.572390
O401	O40	0.095230	0.675370	0.620820
O411	O41	0.460520	0.877080	0.833370
O421	O42	0.571540	0.963660	0.876640
O431	O43	0.206600	0.404000	0.610200
O441	O44	0.247100	0.453300	0.554400
O451	O45	0.815370	0.086630	0.226020
O461	O46	0.279200	0.653800	0.559500
O471	O47	0.152400	0.586600	0.531300
O481	O48	0.735530	0.362870	0.272760
