data_NIKYOW02_clean_PM
_symmetry_space_group_name_H-M	'P1'
_cell_length_a	9.962700
_cell_length_b	11.420700
_cell_length_c	14.590700
_cell_angle_alpha	91.424900
_cell_angle_beta	90.000000
_cell_angle_gamma	90.000000
_symmetry_Int_Tables_number 1

loop_
_symmetry_equiv_pos_as_xyz
'x,y,z'

loop_
_atom_site_label
_atom_site_type_symbol
_atom_site_fract_x
_atom_site_fract_y
_atom_site_fract_z
Fe11	Fe1	0.920330	0.755460	0.132730
Fe21	Fe2	0.890940	0.259990	0.687750
Fe31	Fe3	0.420330	0.744540	0.367270
Fe41	Fe4	0.390940	0.240010	0.812250
Fe51	Fe5	0.079670	0.244540	0.867270
Fe61	Fe6	0.109060	0.740010	0.312250
Fe71	Fe7	0.579670	0.255460	0.632730
Fe81	Fe8	0.609060	0.759990	0.187750
Fe91	Fe9	0.000000	0.500000	0.000000
Fe101	Fe10	0.500000	0.000000	0.500000
Fe111	Fe11	0.000000	0.000000	0.000000
Fe121	Fe12	0.500000	0.500000	0.500000
H11	H1	0.756700	0.856200	0.368200
H21	H2	0.033600	0.478000	0.265100
H31	H3	0.621500	0.555500	0.042400
H41	H4	0.181200	0.983400	0.234600
H51	H5	0.159100	0.699700	0.928700
H61	H6	0.703100	0.984700	0.006200
H71	H7	0.256700	0.643800	0.131800
H81	H8	0.533600	0.022000	0.234900
H91	H9	0.121500	0.944500	0.457600
H101	H10	0.681200	0.516600	0.265400
H111	H11	0.659100	0.800300	0.571300
H121	H12	0.203100	0.515300	0.493800
H131	H13	0.243300	0.143800	0.631800
H141	H14	0.966400	0.522000	0.734900
H151	H15	0.378500	0.444500	0.957600
H161	H16	0.818800	0.016600	0.765400
H171	H17	0.840900	0.300300	0.071300
H181	H18	0.296900	0.015300	0.993800
H191	H19	0.743300	0.356200	0.868200
H201	H20	0.466400	0.978000	0.765100
H211	H21	0.878500	0.055500	0.542400
H221	H22	0.318800	0.483400	0.734600
H231	H23	0.340900	0.199700	0.428700
H241	H24	0.796900	0.484700	0.506200
C11	C1	0.826200	0.827030	0.331730
C21	C2	0.014500	0.517610	0.211710
C31	C3	0.712100	0.573500	0.048800
C41	C4	0.124900	0.954630	0.188430
C51	C5	0.104500	0.743670	0.968170
C61	C6	0.719800	0.927650	0.049150
C71	C7	0.326200	0.672970	0.168270
C81	C8	0.514500	0.982390	0.288290
C91	C9	0.212100	0.926500	0.451200
C101	C10	0.624900	0.545370	0.311570
C111	C11	0.604500	0.756330	0.531830
C121	C12	0.219800	0.572350	0.450850
C131	C13	0.173800	0.172970	0.668270
C141	C14	0.985500	0.482390	0.788290
C151	C15	0.287900	0.426500	0.951200
C161	C16	0.875100	0.045370	0.811570
C171	C17	0.895500	0.256330	0.031830
C181	C18	0.280200	0.072350	0.950850
C191	C19	0.673800	0.327030	0.831730
C201	C20	0.485500	0.017610	0.711710
C211	C21	0.787900	0.073500	0.548800
C221	C22	0.375100	0.454630	0.688430
C231	C23	0.395500	0.243670	0.468170
C241	C24	0.780200	0.427650	0.549150
O11	O1	0.799470	0.807150	0.247550
O21	O2	0.935470	0.811370	0.369870
O31	O3	0.005670	0.627590	0.218590
O41	O4	0.000200	0.457840	0.141340
O51	O5	0.742060	0.651810	0.107310
O61	O6	0.791500	0.517890	0.998690
O71	O7	0.081660	0.852190	0.197190
O81	O8	0.100900	0.020820	0.125620
O91	O9	0.027570	0.686980	0.021780
O101	O10	0.112800	0.849910	0.964110
O111	O11	0.842350	0.896730	0.059700
O121	O12	0.621910	0.889040	0.090440
O131	O13	0.299470	0.692850	0.252450
O141	O14	0.435470	0.688630	0.130130
O151	O15	0.505670	0.872410	0.281410
O161	O16	0.500200	0.042160	0.358660
O171	O17	0.242060	0.848190	0.392690
O181	O18	0.291500	0.982110	0.501310
O191	O19	0.581660	0.647810	0.302810
O201	O20	0.600900	0.479180	0.374380
O211	O21	0.527570	0.813020	0.478220
O221	O22	0.612800	0.650090	0.535890
O231	O23	0.342350	0.603270	0.440300
O241	O24	0.121910	0.610960	0.409560
O251	O25	0.200530	0.192850	0.752450
O261	O26	0.064530	0.188630	0.630130
O271	O27	0.994330	0.372410	0.781410
O281	O28	0.999800	0.542160	0.858660
O291	O29	0.257940	0.348190	0.892690
O301	O30	0.208500	0.482110	0.001310
O311	O31	0.918340	0.147810	0.802810
O321	O32	0.899100	0.979180	0.874380
O331	O33	0.972430	0.313020	0.978220
O341	O34	0.887200	0.150090	0.035890
O351	O35	0.157650	0.103270	0.940300
O361	O36	0.378090	0.110960	0.909560
O371	O37	0.700530	0.307150	0.747550
O381	O38	0.564530	0.311370	0.869870
O391	O39	0.494330	0.127590	0.718590
O401	O40	0.499800	0.957840	0.641340
O411	O41	0.757940	0.151810	0.607310
O421	O42	0.708500	0.017890	0.498690
O431	O43	0.418340	0.352190	0.697190
O441	O44	0.399100	0.520820	0.625620
O451	O45	0.472430	0.186980	0.521780
O461	O46	0.387200	0.349910	0.464110
O471	O47	0.657650	0.396730	0.559700
O481	O48	0.878090	0.389040	0.590440
