data_NIKYUC02_clean_PM
_symmetry_space_group_name_H-M	'P1'
_cell_length_a	10.085300
_cell_length_b	11.520000
_cell_length_c	14.959600
_cell_angle_alpha	91.466400
_cell_angle_beta	90.000000
_cell_angle_gamma	90.000000
_symmetry_Int_Tables_number 1

loop_
_symmetry_equiv_pos_as_xyz
'x,y,z'

loop_
_atom_site_label
_atom_site_type_symbol
_atom_site_fract_x
_atom_site_fract_y
_atom_site_fract_z
Fe11	Fe1	0.927910	0.755830	0.133610
Fe21	Fe2	0.878000	0.259600	0.694160
Fe31	Fe3	0.427910	0.744170	0.366390
Fe41	Fe4	0.378000	0.240400	0.805840
Fe51	Fe5	0.072090	0.244170	0.866390
Fe61	Fe6	0.122000	0.740400	0.305840
Fe71	Fe7	0.572090	0.255830	0.633610
Fe81	Fe8	0.622000	0.759600	0.194160
Fe91	Fe9	0.000000	0.500000	0.000000
Fe101	Fe10	0.500000	0.000000	0.500000
Fe111	Fe11	0.000000	0.000000	0.000000
Fe121	Fe12	0.500000	0.500000	0.500000
H11	H1	0.772000	0.845600	0.371600
H21	H2	0.061000	0.473800	0.258800
H31	H3	0.623000	0.559000	0.055000
H41	H4	0.218000	0.970200	0.215200
H51	H5	0.138000	0.698100	0.924100
H61	H6	0.715000	0.995500	0.027500
H71	H7	0.272000	0.654400	0.128400
H81	H8	0.561000	0.026200	0.241200
H91	H9	0.123000	0.941000	0.445000
H101	H10	0.718000	0.529800	0.284800
H111	H11	0.638000	0.801900	0.575900
H121	H12	0.215000	0.504500	0.472500
H131	H13	0.228000	0.154400	0.628400
H141	H14	0.939000	0.526200	0.741200
H151	H15	0.377000	0.441000	0.945000
H161	H16	0.782000	0.029800	0.784800
H171	H17	0.862000	0.301900	0.075900
H181	H18	0.285000	0.004500	0.972500
H191	H19	0.728000	0.345600	0.871600
H201	H20	0.439000	0.973800	0.758800
H211	H21	0.877000	0.059000	0.555000
H221	H22	0.282000	0.470200	0.715200
H231	H23	0.362000	0.198100	0.424100
H241	H24	0.785000	0.495500	0.527500
C11	C1	0.841100	0.819140	0.332340
C21	C2	0.036900	0.520450	0.204750
C31	C3	0.718500	0.571450	0.059250
C41	C4	0.143100	0.948110	0.178110
C51	C5	0.091600	0.742560	0.963960
C61	C6	0.731000	0.934440	0.063940
C71	C7	0.341100	0.680860	0.167660
C81	C8	0.536900	0.979550	0.295250
C91	C9	0.218500	0.928550	0.440750
C101	C10	0.643100	0.551890	0.321890
C111	C11	0.591600	0.757440	0.536040
C121	C12	0.231000	0.565560	0.436060
C131	C13	0.158900	0.180860	0.667660
C141	C14	0.963100	0.479550	0.795250
C151	C15	0.281500	0.428550	0.940750
C161	C16	0.856900	0.051890	0.821890
C171	C17	0.908400	0.257440	0.036040
C181	C18	0.269000	0.065560	0.936060
C191	C19	0.658900	0.319140	0.832340
C201	C20	0.463100	0.020450	0.704750
C211	C21	0.781500	0.071450	0.559250
C221	C22	0.356900	0.448110	0.678110
C231	C23	0.408400	0.242560	0.463960
C241	C24	0.769000	0.434440	0.563940
O11	O1	0.811880	0.802000	0.250480
O21	O2	0.951240	0.805610	0.366260
O31	O3	0.020300	0.629030	0.213290
O41	O4	0.018560	0.460860	0.136600
O51	O5	0.750540	0.654010	0.112400
O61	O6	0.793830	0.512770	0.011280
O71	O7	0.089680	0.850990	0.193550
O81	O8	0.118560	0.011570	0.115940
O91	O9	0.024780	0.687130	0.020950
O101	O10	0.098540	0.848080	0.957830
O111	O11	0.850280	0.900270	0.067330
O121	O12	0.636290	0.894800	0.105220
O131	O13	0.311880	0.698000	0.249520
O141	O14	0.451240	0.694390	0.133740
O151	O15	0.520300	0.870970	0.286710
O161	O16	0.518560	0.039140	0.363400
O171	O17	0.250540	0.845990	0.387600
O181	O18	0.293830	0.987230	0.488720
O191	O19	0.589680	0.649010	0.306450
O201	O20	0.618560	0.488430	0.384060
O211	O21	0.524780	0.812870	0.479050
O221	O22	0.598540	0.651920	0.542170
O231	O23	0.350280	0.599730	0.432670
O241	O24	0.136290	0.605200	0.394780
O251	O25	0.188120	0.198000	0.749520
O261	O26	0.048760	0.194390	0.633740
O271	O27	0.979700	0.370970	0.786710
O281	O28	0.981440	0.539140	0.863400
O291	O29	0.249460	0.345990	0.887600
O301	O30	0.206170	0.487230	0.988720
O311	O31	0.910320	0.149010	0.806450
O321	O32	0.881440	0.988430	0.884060
O331	O33	0.975220	0.312870	0.979050
O341	O34	0.901460	0.151920	0.042170
O351	O35	0.149720	0.099730	0.932670
O361	O36	0.363710	0.105200	0.894780
O371	O37	0.688120	0.302000	0.750480
O381	O38	0.548760	0.305610	0.866260
O391	O39	0.479700	0.129030	0.713290
O401	O40	0.481440	0.960860	0.636600
O411	O41	0.749460	0.154010	0.612400
O421	O42	0.706170	0.012770	0.511280
O431	O43	0.410320	0.350990	0.693550
O441	O44	0.381440	0.511570	0.615940
O451	O45	0.475220	0.187130	0.520950
O461	O46	0.401460	0.348080	0.457830
O471	O47	0.649720	0.400270	0.567330
O481	O48	0.863710	0.394800	0.605220
