data_NIKYUC_clean_PM
_symmetry_space_group_name_H-M	'P1'
_cell_length_a	9.914600
_cell_length_b	11.408100
_cell_length_c	14.844000
_cell_angle_alpha	91.165900
_cell_angle_beta	90.000000
_cell_angle_gamma	90.000000
_symmetry_Int_Tables_number 1

loop_
_symmetry_equiv_pos_as_xyz
'x,y,z'

loop_
_atom_site_label
_atom_site_type_symbol
_atom_site_fract_x
_atom_site_fract_y
_atom_site_fract_z
Fe11	Fe1	0.921620	0.756050	0.133810
Fe21	Fe2	0.887960	0.260860	0.690970
Fe31	Fe3	0.421620	0.743950	0.366190
Fe41	Fe4	0.387960	0.239140	0.809030
Fe51	Fe5	0.078380	0.243950	0.866190
Fe61	Fe6	0.112040	0.739140	0.309030
Fe71	Fe7	0.578380	0.256050	0.633810
Fe81	Fe8	0.612040	0.760860	0.190970
Fe91	Fe9	0.000000	0.500000	0.000000
Fe101	Fe10	0.500000	0.000000	0.500000
Fe111	Fe11	0.000000	0.000000	0.000000
Fe121	Fe12	0.500000	0.500000	0.500000
H11	H1	0.752800	0.846300	0.370000
H21	H2	0.054000	0.471100	0.261100
H31	H3	0.615000	0.550800	0.053800
H41	H4	0.200000	0.976800	0.228800
H51	H5	0.154400	0.693000	0.929900
H61	H6	0.706900	0.001700	0.022700
H71	H7	0.252800	0.653700	0.130000
H81	H8	0.554000	0.028900	0.238900
H91	H9	0.115000	0.949200	0.446200
H101	H10	0.700000	0.523200	0.271200
H111	H11	0.654400	0.807000	0.570100
H121	H12	0.206900	0.498300	0.477300
H131	H13	0.247200	0.153700	0.630000
H141	H14	0.946000	0.528900	0.738900
H151	H15	0.385000	0.449200	0.946200
H161	H16	0.800000	0.023200	0.771200
H171	H17	0.845600	0.307000	0.070100
H181	H18	0.293100	0.998300	0.977300
H191	H19	0.747200	0.346300	0.870000
H201	H20	0.446000	0.971100	0.761100
H211	H21	0.885000	0.050800	0.553800
H221	H22	0.300000	0.476800	0.728800
H231	H23	0.345600	0.193000	0.429900
H241	H24	0.793100	0.501700	0.522700
C11	C1	0.828500	0.819710	0.333030
C21	C2	0.028100	0.516100	0.207300
C31	C3	0.710000	0.570500	0.055100
C41	C4	0.136000	0.952730	0.183430
C51	C5	0.097720	0.741970	0.966270
C61	C6	0.722900	0.938520	0.061120
C71	C7	0.328500	0.680290	0.166970
C81	C8	0.528100	0.983900	0.292700
C91	C9	0.210000	0.929500	0.444900
C101	C10	0.636000	0.547270	0.316570
C111	C11	0.597720	0.758030	0.533730
C121	C12	0.222900	0.561480	0.438880
C131	C13	0.171500	0.180290	0.666970
C141	C14	0.971900	0.483900	0.792700
C151	C15	0.290000	0.429500	0.944900
C161	C16	0.864000	0.047270	0.816570
C171	C17	0.902280	0.258030	0.033730
C181	C18	0.277100	0.061480	0.938880
C191	C19	0.671500	0.319710	0.833030
C201	C20	0.471900	0.016100	0.707300
C211	C21	0.790000	0.070500	0.555100
C221	C22	0.364000	0.452730	0.683430
C231	C23	0.402280	0.241970	0.466270
C241	C24	0.777100	0.438520	0.561120
O11	O1	0.803020	0.804230	0.249300
O21	O2	0.938920	0.803650	0.370060
O31	O3	0.010130	0.626220	0.215560
O41	O4	0.014090	0.456460	0.137650
O51	O5	0.742500	0.654500	0.108930
O61	O6	0.789470	0.512540	0.007260
O71	O7	0.083630	0.852280	0.196470
O81	O8	0.114580	0.015960	0.118680
O91	O9	0.024560	0.686800	0.022930
O101	O10	0.105110	0.848550	0.958480
O111	O11	0.844450	0.901770	0.065910
O121	O12	0.624380	0.899120	0.101760
O131	O13	0.303020	0.695770	0.250700
O141	O14	0.438920	0.696350	0.129940
O151	O15	0.510130	0.873780	0.284440
O161	O16	0.514090	0.043540	0.362350
O171	O17	0.242500	0.845500	0.391070
O181	O18	0.289470	0.987460	0.492740
O191	O19	0.583630	0.647720	0.303530
O201	O20	0.614580	0.484040	0.381320
O211	O21	0.524560	0.813200	0.477070
O221	O22	0.605110	0.651450	0.541520
O231	O23	0.344450	0.598230	0.434090
O241	O24	0.124380	0.600880	0.398240
O251	O25	0.196980	0.195770	0.750700
O261	O26	0.061080	0.196350	0.629940
O271	O27	0.989870	0.373780	0.784440
O281	O28	0.985910	0.543540	0.862350
O291	O29	0.257500	0.345500	0.891070
O301	O30	0.210530	0.487460	0.992740
O311	O31	0.916370	0.147720	0.803530
O321	O32	0.885420	0.984040	0.881320
O331	O33	0.975440	0.313200	0.977070
O341	O34	0.894890	0.151450	0.041520
O351	O35	0.155550	0.098230	0.934090
O361	O36	0.375620	0.100880	0.898240
O371	O37	0.696980	0.304230	0.749300
O381	O38	0.561080	0.303650	0.870060
O391	O39	0.489870	0.126220	0.715560
O401	O40	0.485910	0.956460	0.637650
O411	O41	0.757500	0.154500	0.608930
O421	O42	0.710530	0.012540	0.507260
O431	O43	0.416370	0.352280	0.696470
O441	O44	0.385420	0.515960	0.618680
O451	O45	0.475440	0.186800	0.522930
O461	O46	0.394890	0.348550	0.458480
O471	O47	0.655550	0.401770	0.565910
O481	O48	0.875620	0.399120	0.601760
