data_NIMPOQ_clean_PM
_symmetry_space_group_name_H-M	'P1'
_cell_length_a	20.639000
_cell_length_b	22.923000
_cell_length_c	23.247000
_cell_angle_alpha	82.718000
_cell_angle_beta	71.061000
_cell_angle_gamma	80.352000
_symmetry_Int_Tables_number 1

loop_
_symmetry_equiv_pos_as_xyz
'x,y,z'

loop_
_atom_site_label
_atom_site_type_symbol
_atom_site_fract_x
_atom_site_fract_y
_atom_site_fract_z
Cu11	Cu1	0.041790	0.262870	0.277230
Cu21	Cu2	0.958210	0.737130	0.722770
Cu31	Cu3	0.041410	0.763210	0.777230
Cu41	Cu4	0.958590	0.236790	0.222770
Cu51	Cu5	0.555450	0.225540	0.262670
Cu61	Cu6	0.443930	0.274890	0.237290
Cu71	Cu7	0.556070	0.725110	0.762710
Cu81	Cu8	0.444550	0.774460	0.737330
H11	H1	0.678200	0.670500	0.587900
H21	H2	0.301600	0.236300	0.735800
H31	H3	0.562700	0.680900	0.263600
H41	H4	0.647100	0.035200	0.970500
H51	H5	0.069500	0.069100	0.156500
H61	H6	0.856200	0.019200	0.869100
H71	H7	0.705900	0.473500	0.494200
H81	H8	0.459000	0.957200	0.332900
H91	H9	0.175400	0.099200	0.266900
H101	H10	0.942800	0.195600	0.460600
H111	H11	0.140200	0.478800	0.634000
H121	H12	0.616600	0.094300	0.732700
H131	H13	0.323100	0.829300	0.912700
H141	H14	0.682000	0.269300	0.692200
H151	H15	0.302900	0.528600	0.571400
H161	H16	0.821500	0.040800	0.518500
H171	H17	0.569200	0.235100	0.798300
H181	H18	0.294100	0.526500	0.505800
H191	H19	0.559200	0.175800	0.774400
H201	H20	0.318000	0.730700	0.307800
H211	H21	0.749600	0.489900	0.259800
H221	H22	0.792800	0.987900	0.499700
H231	H23	0.246500	0.908400	0.257800
H241	H24	0.143800	0.980800	0.130900
H251	H25	0.493600	0.218700	0.053700
H261	H26	0.158400	0.467900	0.989300
H271	H27	0.817500	0.478500	0.060300
H281	H28	0.822300	0.400700	0.234900
H291	H29	0.543100	0.183900	0.956500
H301	H30	0.270100	0.544900	0.843100
H311	H31	0.697100	0.471400	0.428600
H321	H32	0.568000	0.235100	0.729800
H331	H33	0.703800	0.768300	0.193600
H341	H34	0.359900	0.489300	0.521600
H351	H35	0.199200	0.322900	0.120300
H361	H36	0.728100	0.636600	0.490300
H371	H37	0.494500	0.716500	0.554800
H381	H38	0.419000	0.260900	0.781000
H391	H39	0.505200	0.046900	0.305700
H401	H40	0.539600	0.545300	0.171300
H411	H41	0.544400	0.682600	0.457200
H421	H42	0.702700	0.988400	0.992600
H431	H43	0.801400	0.178200	0.379200
H441	H44	0.681200	0.268800	0.761400
H451	H45	0.729900	0.455100	0.156900
H461	H46	0.208100	0.010800	0.431400
H471	H47	0.131200	0.337400	0.945000
H481	H48	0.494800	0.953100	0.694300
H491	H49	0.698400	0.763700	0.264200
H501	H50	0.753800	0.590400	0.243300
H511	H51	0.750400	0.989100	0.758800
H521	H52	0.271900	0.363400	0.509700
H531	H53	0.432000	0.764900	0.270200
H541	H54	0.271500	0.856200	0.527000
H551	H55	0.246200	0.409600	0.756700
H561	H56	0.932500	0.432000	0.341100
H571	H57	0.684500	0.865400	0.687600
H581	H58	0.811000	0.479400	0.993400
H591	H59	0.749700	0.703300	0.124400
H601	H60	0.272600	0.355800	0.026000
H611	H61	0.249600	0.010900	0.241200
H621	H62	0.067500	0.568000	0.658900
H631	H63	0.383400	0.905700	0.267300
H641	H64	0.942200	0.695500	0.960800
H651	H65	0.057200	0.804400	0.539400
H661	H66	0.250400	0.510100	0.740200
H671	H67	0.301900	0.011600	0.074900
H681	H68	0.491700	0.456500	0.201200
H691	H69	0.620600	0.591500	0.234700
H701	H70	0.198600	0.821800	0.620800
H711	H71	0.508300	0.543500	0.798800
H721	H72	0.178500	0.959200	0.481500
H731	H73	0.321800	0.329500	0.412100
H741	H74	0.640100	0.510700	0.478400
H751	H75	0.791900	0.989200	0.568600
H761	H76	0.841600	0.532100	0.010700
H771	H77	0.506400	0.781300	0.946300
H781	H78	0.352900	0.964800	0.029500
H791	H79	0.253200	0.763600	0.287600
H801	H80	0.317900	0.633800	0.813200
H811	H81	0.698100	0.988400	0.925100
H821	H82	0.760000	0.724400	0.217800
H831	H83	0.379400	0.408500	0.765300
H841	H84	0.296200	0.231700	0.806400
H851	H85	0.750000	0.203200	0.623300
H861	H86	0.824600	0.900800	0.733100
H871	H87	0.930500	0.930900	0.843500
H881	H88	0.460400	0.454700	0.828700
H891	H89	0.620700	0.704500	0.361300
H901	H90	0.440800	0.824200	0.225600
H911	H91	0.379000	0.794200	0.139600
H921	H92	0.753500	0.091600	0.742200
H931	H93	0.726300	0.135900	0.990000
H941	H94	0.505500	0.283500	0.445200
H951	H95	0.379300	0.295500	0.638700
H961	H96	0.130100	0.838800	0.445600
H971	H97	0.189000	0.520600	0.006600
H981	H98	0.426300	0.261400	0.710300
H991	H99	0.273700	0.864100	0.010000
H1001	H100	0.057800	0.304500	0.039200
H1011	H101	0.868800	0.662600	0.055000
H1021	H102	0.541000	0.042800	0.667100
H1031	H103	0.746800	0.236400	0.712400
H1041	H104	0.250000	0.796800	0.376700
H1051	H105	0.676900	0.170700	0.087300
H1061	H106	0.318800	0.731200	0.238600
H1071	H107	0.297300	0.011600	0.007400
H1081	H108	0.573700	0.738600	0.289700
H1091	H109	0.728500	0.143800	0.473000
H1101	H110	0.240000	0.275600	0.782200
H1111	H111	0.207200	0.012100	0.500300
H1121	H112	0.269300	0.044800	0.339700
H1131	H113	0.730700	0.955200	0.660300
H1141	H114	0.437300	0.319100	0.736400
H1151	H115	0.177700	0.599300	0.765100
H1161	H116	0.727400	0.644200	0.974000
H1171	H117	0.869900	0.161200	0.554400
H1181	H118	0.455600	0.317400	0.542800
H1191	H119	0.859800	0.521200	0.366000
H1201	H120	0.182500	0.521500	0.939700
H1211	H121	0.315500	0.134600	0.312400
H1221	H122	0.800800	0.677100	0.879700
H1231	H123	0.581000	0.739100	0.219000
H1241	H124	0.682100	0.366200	0.186800
H1251	H125	0.250300	0.296700	0.875600
H1261	H126	0.430800	0.764900	0.201700
H1271	H127	0.621000	0.205800	0.860400
H1281	H128	0.456900	0.816100	0.043500
C11	C1	0.649700	0.173400	0.060700
C21	C2	0.929400	0.351700	0.270300
C31	C3	0.796300	0.012400	0.816400
C41	C4	0.667600	0.065300	0.648300
C51	C5	0.457300	0.046500	0.312600
C61	C6	0.542700	0.953500	0.687400
C71	C7	0.541900	0.700300	0.541700
C81	C8	0.580600	0.198000	0.079600
C91	C9	0.334000	0.807600	0.259900
C101	C10	0.568500	0.509000	0.174500
C111	C11	0.170100	0.574800	0.738500
C121	C12	0.318400	0.544700	0.834100
C131	C13	0.585300	0.900800	0.693500
C141	C14	0.411100	0.285300	0.745500
C151	C15	0.689600	0.496600	0.461900
C161	C16	0.680500	0.154800	0.685300
C171	C17	0.931300	0.851900	0.771100
C181	C18	0.640200	0.007400	0.661100
C191	C19	0.669600	0.136200	0.901200
C201	C20	0.100700	0.814900	0.536900
C211	C21	0.669000	0.564500	0.149000
C221	C22	0.428400	0.319900	0.516300
C231	C23	0.347500	0.398500	0.803800
C241	C24	0.807800	0.503900	0.026100
C251	C25	0.459900	0.543800	0.807800
C261	C26	0.732600	0.601900	0.283700
C271	C27	0.898600	0.685100	0.963400
C281	C28	0.414700	0.099200	0.306500
C291	C29	0.344700	0.098600	0.316600
C301	C30	0.068700	0.148100	0.228900
C311	C31	0.360600	0.843400	0.035900
C321	C32	0.856000	0.164600	0.518900
C331	C33	0.330400	0.863800	0.098800
C341	C34	0.359000	0.343600	0.535400
C351	C35	0.271000	0.831900	0.370300
C361	C36	0.213100	0.022700	0.224000
C371	C37	0.213400	0.986400	0.467800
C381	C38	0.115700	0.592000	0.714300
C391	C39	0.729000	0.168100	0.629700
C401	C40	0.653100	0.402600	0.183600
C411	C41	0.878400	0.689400	0.911400
C421	C42	0.680700	0.652800	0.503400
C431	C43	0.925100	0.212200	0.349700
C441	C44	0.283800	0.921400	0.407400
C451	C45	0.267900	0.897100	0.217300
C461	C46	0.814600	0.674200	0.915300
C471	C47	0.582200	0.211500	0.762900
C481	C48	0.716200	0.078600	0.592600
C491	C49	0.349000	0.327000	0.438700
C501	C50	0.786600	0.013600	0.532200
C511	C51	0.588900	0.714700	0.254500
C521	C52	0.317200	0.045300	0.332800
C531	C53	0.666500	0.691800	0.240400
C541	C54	0.429800	0.818800	0.017000
C551	C55	0.641000	0.656400	0.464600
C561	C56	0.893900	0.942700	0.826300
C571	C57	0.329200	0.364200	0.598000
C581	C58	0.684500	0.652800	0.294600
C591	C59	0.732100	0.102900	0.782700
C601	C60	0.250200	0.432000	0.668100
C611	C61	0.070600	0.648300	0.729700
C621	C62	0.681600	0.455300	0.165900
C631	C63	0.104600	0.556200	0.675400
C641	C64	0.319300	0.347200	0.496600
C651	C65	0.228000	0.845700	0.529500
C661	C66	0.899300	0.185100	0.463100
C671	C67	0.317500	0.346800	0.813000
C681	C68	0.331000	0.435500	0.851000
C691	C69	0.791200	0.650300	0.023400
C701	C70	0.551700	0.843600	0.717500
C711	C71	0.169000	0.075200	0.239300
C721	C72	0.207700	0.850700	0.477500
C731	C73	0.649800	0.103400	0.694600
C741	C74	0.852200	0.496700	0.339400
C751	C75	0.320900	0.847300	0.997000
C761	C76	0.684700	0.154200	0.793700
C771	C77	0.288800	0.258500	0.772100
C781	C78	0.792300	0.149300	0.522500
C791	C79	0.655300	0.901400	0.683400
C801	C80	0.682800	0.954700	0.667200
C811	C81	0.696400	0.245900	0.725400
C821	C82	0.831000	0.924800	0.760700
C831	C83	0.203700	0.987600	0.183600
C841	C84	0.749800	0.568000	0.331900
C851	C85	0.192200	0.496100	0.973900
C861	C86	0.350300	0.826600	0.939300
C871	C87	0.267400	0.398100	0.716300
C881	C88	0.693900	0.013400	0.957800
C891	C89	0.445000	0.658000	0.783200
C901	C90	0.666000	0.192400	0.740100
C911	C91	0.281100	0.415000	0.608900
C921	C92	0.073800	0.287800	0.150000
C931	C93	0.786700	0.478100	0.276300
C941	C94	0.449600	0.281400	0.358100
C951	C95	0.213300	0.521900	0.723700
C961	C96	0.829900	0.425200	0.261500
C971	C97	0.185400	0.325800	0.084700
C981	C98	0.310400	0.503400	0.538100
C991	C99	0.101400	0.314900	0.036600
C1001	C100	0.208800	0.349700	0.976600
C1011	C101	0.251600	0.931700	0.169000
C1021	C102	0.639200	0.508500	0.161300
C1031	C103	0.549200	0.218100	0.144700
C1041	C104	0.282900	0.915100	0.109700
C1051	C105	0.359800	0.992600	0.338900
C1061	C106	0.715600	0.579300	0.092700
C1071	C107	0.284400	0.420700	0.907300
C1081	C108	0.652500	0.601500	0.196200
C1091	C109	0.303600	0.754100	0.274600
C1101	C110	0.745700	0.631000	0.083600
C1111	C111	0.106100	0.057300	0.173700
C1121	C112	0.855000	0.665600	0.019400
C1131	C113	0.772000	0.154300	0.470500
C1141	C114	0.121000	0.809900	0.588900
C1151	C115	0.202200	0.486100	0.684700
C1161	C116	0.315300	0.845800	0.206300
C1171	C117	0.121600	0.310600	0.088600
C1181	C118	0.771000	0.654600	0.971300
C1191	C119	0.145000	0.334400	0.980600
C1201	C120	0.815300	0.174700	0.414700
C1211	C121	0.270900	0.332000	0.869300
C1221	C122	0.786900	0.977300	0.776000
C1231	C123	0.333500	0.308200	0.759600
C1241	C124	0.555000	0.342000	0.216800
C1251	C125	0.717100	0.084900	0.890300
C1261	C126	0.639400	0.156600	0.964100
C1271	C127	0.448300	0.156400	0.282500
C1281	C128	0.582400	0.403000	0.196800
C1291	C129	0.570200	0.181200	0.983000
C1301	C130	0.540900	0.201900	0.040800
C1311	C131	0.419400	0.802000	0.920400
C1321	C132	0.229000	0.345400	0.028700
C1331	C133	0.884500	0.907500	0.785900
C1341	C134	0.429800	0.993200	0.328800
C1351	C135	0.746900	0.130000	0.583300
C1361	C136	0.417800	0.788500	0.237100
C1371	C137	0.150200	0.004800	0.158500
C1381	C138	0.849800	0.995200	0.841500
C1391	C139	0.550400	0.718600	0.641900
C1401	C140	0.879000	0.190100	0.411100
C1411	C141	0.147800	0.503300	0.660600
C1421	C142	0.184700	0.825300	0.585300
C1431	C143	0.679100	0.152700	0.003000
C1441	C144	0.651000	0.673000	0.561300
C1451	C145	0.711200	0.741500	0.227900
C1461	C146	0.418400	0.303300	0.419500
C1471	C147	0.729100	0.668000	0.130700
C1481	C148	0.570200	0.006800	0.671200
C1491	C149	0.074900	0.787800	0.650300
C1501	C150	0.346900	0.597400	0.816400
C1511	C151	0.653400	0.170800	0.852900
C1521	C152	0.459100	0.798100	0.959200
C1531	C153	0.346600	0.829200	0.147100
C1541	C154	0.254300	0.369000	0.916400
C1551	C155	0.319500	0.845200	0.314700
C1561	C156	0.653600	0.669700	0.353800
C1571	C157	0.670800	0.635800	0.402000
C1581	C158	0.926200	0.712200	0.850000
C1591	C159	0.682500	0.653200	0.187000
C1601	C160	0.895400	0.443800	0.324600
C1611	C161	0.417600	0.597000	0.803200
C1621	C162	0.115500	0.092500	0.214100
C1631	C163	0.346400	0.330300	0.646200
C1641	C164	0.431500	0.491000	0.825500
C1651	C165	0.315500	0.347200	0.705400
C1661	C166	0.571600	0.680100	0.483700
C1671	C167	0.458100	0.299700	0.458300
C1681	C168	0.718900	0.585000	0.391100
C1691	C169	0.797800	0.513900	0.315300
C1701	C170	0.144000	0.835400	0.481100
C1711	C171	0.332400	0.934700	0.351700
C1721	C172	0.360800	0.491500	0.838700
C1731	C173	0.450800	0.781900	0.855300
C1741	C174	0.748400	0.068300	0.831000
C1751	C175	0.306100	0.986600	0.042200
C1761	C176	0.581600	0.696700	0.580500
C1771	C177	0.540100	0.456200	0.192200
C1781	C178	0.253100	0.870000	0.416700
C1791	C179	0.350200	0.896600	0.305400
C1801	C180	0.884300	0.408000	0.285700
O11	O1	0.587600	0.301700	0.236200
O21	O2	0.914100	0.817600	0.741200
O31	O3	0.589900	0.801100	0.733400
O41	O4	0.273500	0.454300	0.560500
O51	O5	0.907600	0.208600	0.304000
O61	O6	0.412400	0.698300	0.763800
O71	O7	0.907500	0.708100	0.803500
O81	O8	0.511100	0.753500	0.842100
O91	O9	0.413500	0.295200	0.322200
O101	O10	0.086900	0.681500	0.758500
O111	O11	0.506200	0.655200	0.783700
O121	O12	0.020200	0.269900	0.149400
O131	O13	0.410100	0.198900	0.266600
O141	O14	0.268500	0.460300	0.951400
O151	O15	0.092400	0.791400	0.696000
O161	O16	0.493800	0.344800	0.216300
O171	O17	0.979800	0.230200	0.350200
O181	O18	0.726500	0.545700	0.439500
O191	O19	0.488900	0.246500	0.157900
O201	O20	0.019000	0.660300	0.711500
O211	O21	0.277100	0.955000	0.454300
O221	O22	0.509700	0.255300	0.342800
O231	O23	0.018600	0.161000	0.209200
O241	O24	0.414000	0.795500	0.822000
O251	O25	0.497600	0.842100	0.709200
O261	O26	0.085900	0.182400	0.258800
O271	O27	0.913100	0.318500	0.241500
O281	O28	0.092500	0.291900	0.196500
O291	O29	0.981400	0.839000	0.790800
O301	O30	0.260800	0.948700	0.062400
O311	O31	0.981000	0.339700	0.288500
O321	O32	0.502400	0.157900	0.290800
O331	O33	0.979800	0.730100	0.850600
O341	O34	0.586500	0.704800	0.677800
O351	O35	0.490300	0.744700	0.657200
O361	O36	0.020200	0.769800	0.649800
O371	O37	0.722900	0.045000	0.545700
O381	O38	0.731500	0.539700	0.048600
O391	O39	0.739200	0.051300	0.937600
O401	O40	0.586000	0.204500	0.178000
