data_NIMXIS_clean_PM
_symmetry_space_group_name_H-M	'P1'
_cell_length_a	12.937600
_cell_length_b	12.937600
_cell_length_c	14.162100
_cell_angle_alpha	85.058100
_cell_angle_beta	85.058100
_cell_angle_gamma	89.596300
_symmetry_Int_Tables_number 1

loop_
_symmetry_equiv_pos_as_xyz
'x,y,z'

loop_
_atom_site_label
_atom_site_type_symbol
_atom_site_fract_x
_atom_site_fract_y
_atom_site_fract_z
Zn11	Zn1	0.017240	0.187360	0.335170
Zn21	Zn2	0.165840	0.165840	0.505140
Zn31	Zn3	0.982760	0.812640	0.664830
Zn41	Zn4	0.187360	0.017240	0.335170
Zn51	Zn5	0.834160	0.834160	0.494860
Zn61	Zn6	0.000000	0.000000	0.500000
Zn71	Zn7	0.812640	0.982760	0.664830
C81	C8	0.542900	0.067900	0.320600
C91	C9	0.067900	0.542900	0.320600
C101	C10	0.897400	0.297800	0.608400
C111	C11	0.642200	0.139600	0.466900
C121	C12	0.915900	0.047500	0.959800
C131	C13	0.631100	0.900100	0.596900
C141	C14	0.099900	0.368900	0.403100
C151	C15	0.535600	0.142000	0.470800
C161	C16	0.896200	0.515400	0.602200
C171	C17	0.142000	0.535600	0.470800
C181	C18	0.818200	0.101800	0.392400
C191	C19	0.930700	0.351700	0.682000
C201	C20	0.702200	0.102600	0.391600
C211	C21	0.858000	0.464400	0.529200
C221	C22	0.069800	0.069800	0.171000
C231	C23	0.139600	0.642200	0.466900
C241	C24	0.069300	0.648300	0.318000
C251	C25	0.181800	0.898200	0.607600
C261	C26	0.357800	0.860400	0.533100
C271	C27	0.102600	0.702200	0.391600
C281	C28	0.464400	0.858000	0.529200
C291	C29	0.860400	0.357800	0.533100
C301	C30	0.932100	0.457100	0.679400
C311	C31	0.037400	0.037400	0.080400
C321	C32	0.103800	0.484600	0.397800
C331	C33	0.515400	0.896200	0.602200
C341	C34	0.648300	0.069300	0.318000
C351	C35	0.351700	0.930700	0.682000
C361	C36	0.952500	0.084100	0.040200
C371	C37	0.900100	0.631100	0.596900
C381	C38	0.930200	0.930200	0.829000
C391	C39	0.898200	0.181800	0.607600
C401	C40	0.368900	0.099900	0.403100
C411	C41	0.457100	0.932100	0.679400
C421	C42	0.484600	0.103800	0.397800
C431	C43	0.101800	0.818200	0.392400
C441	C44	0.962600	0.962600	0.919600
C451	C45	0.047500	0.915900	0.959800
C461	C46	0.084100	0.952500	0.040200
C471	C47	0.297800	0.897400	0.608400
N481	N48	0.706800	0.035000	0.234400
N491	N49	0.293200	0.965000	0.765600
N501	N50	0.965000	0.293200	0.765600
N511	N51	0.035000	0.706800	0.234400
O521	O52	0.859130	0.020930	0.423800
O531	O53	0.136030	0.813510	0.634200
O541	O54	0.979600	0.854600	0.793700
O551	O55	0.092760	0.092760	0.416300
O561	O56	0.186490	0.863970	0.365800
O571	O57	0.852970	0.681010	0.534800
O581	O58	0.318990	0.147030	0.465200
O591	O59	0.813510	0.136030	0.634200
O601	O60	0.201900	0.962900	0.774300
O611	O61	0.979070	0.140870	0.576200
O621	O62	0.020400	0.145400	0.206300
O631	O63	0.952940	0.667920	0.658800
O641	O64	0.660000	0.009600	0.171000
O651	O65	0.681010	0.852970	0.534800
O661	O66	0.332080	0.047060	0.341200
O671	O67	0.667920	0.952940	0.658800
O681	O68	0.047060	0.332080	0.341200
O691	O69	0.854600	0.979600	0.793700
O701	O70	0.009600	0.660000	0.171000
O711	O71	0.140870	0.979070	0.576200
O721	O72	0.145400	0.020400	0.206300
O731	O73	0.340000	0.990400	0.829000
O741	O74	0.962900	0.201900	0.774300
O751	O75	0.863970	0.186490	0.365800
O761	O76	0.798100	0.037100	0.225700
O771	O77	0.020930	0.859130	0.423800
O781	O78	0.907240	0.907240	0.583700
O791	O79	0.147030	0.318990	0.465200
O801	O80	0.037100	0.798100	0.225700
O811	O81	0.990400	0.340000	0.829000
H821	H82	0.503410	0.037400	0.259640
H831	H83	0.037400	0.503410	0.259640
H841	H84	0.683940	0.168780	0.527140
H851	H85	0.847220	0.087120	0.926440
H861	H86	0.489080	0.175030	0.533360
H871	H87	0.175030	0.489080	0.533360
H881	H88	0.825020	0.511180	0.466750
H891	H89	0.168780	0.683940	0.527140
H901	H90	0.316060	0.831220	0.472860
H911	H91	0.510920	0.824970	0.466640
H921	H92	0.830490	0.319150	0.471400
H931	H93	0.962420	0.497470	0.739930
H941	H94	0.912880	0.152780	0.073560
H951	H95	0.496590	0.962600	0.740360
H961	H96	0.087520	0.847190	0.926840
H971	H97	0.152810	0.912480	0.073160
