data_NINHOH_clean_PM
_symmetry_space_group_name_H-M	'P1'
_cell_length_a	8.272800
_cell_length_b	8.272800
_cell_length_c	15.249000
_cell_angle_alpha	88.819900
_cell_angle_beta	88.819900
_cell_angle_gamma	86.473400
_symmetry_Int_Tables_number 1

loop_
_symmetry_equiv_pos_as_xyz
'x,y,z'

loop_
_atom_site_label
_atom_site_type_symbol
_atom_site_fract_x
_atom_site_fract_y
_atom_site_fract_z
Cd11	Cd1	0.500000	0.000000	0.500000
Cd21	Cd2	0.000000	0.500000	0.000000
Cd31	Cd3	0.488950	0.511050	0.250000
Cd41	Cd4	0.511050	0.488950	0.750000
C11	C1	0.480000	0.718200	0.339000
C21	C2	0.494800	0.299200	0.341200
C31	C3	0.281800	0.520000	0.161000
C41	C4	0.700800	0.505200	0.158800
C51	C5	0.520000	0.281800	0.661000
C61	C6	0.505200	0.700800	0.658800
C71	C7	0.718200	0.480000	0.839000
C81	C8	0.299200	0.494800	0.841200
N11	N1	0.475700	0.812100	0.392000
N21	N2	0.500300	0.199900	0.392600
N31	N3	0.187900	0.524300	0.108000
N41	N4	0.800100	0.499700	0.107400
N51	N5	0.524300	0.187900	0.608000
N61	N6	0.499700	0.800100	0.607400
N71	N7	0.812100	0.475700	0.892000
N81	N8	0.199900	0.500300	0.892600
