data_NIRDAT_clean_PM
_symmetry_space_group_name_H-M	'P1'
_cell_length_a	10.043000
_cell_length_b	10.043000
_cell_length_c	13.828000
_cell_angle_alpha	90.000000
_cell_angle_beta	90.000000
_cell_angle_gamma	90.000000
_symmetry_Int_Tables_number 1

loop_
_symmetry_equiv_pos_as_xyz
'x,y,z'

loop_
_atom_site_label
_atom_site_type_symbol
_atom_site_fract_x
_atom_site_fract_y
_atom_site_fract_z
O11	O1	0.060100	0.236600	0.757000
O21	O2	0.163600	0.989300	0.076100
O31	O3	0.439900	0.263400	0.757000
O41	O4	0.336400	0.510700	0.076100
O51	O5	0.263400	0.060100	0.257000
O61	O6	0.510700	0.163600	0.576100
O71	O7	0.236600	0.439900	0.257000
O81	O8	0.989300	0.336400	0.576100
O91	O9	0.939900	0.736600	0.743000
O101	O10	0.836400	0.489300	0.423900
O111	O11	0.560100	0.763400	0.743000
O121	O12	0.663600	0.010700	0.423900
O131	O13	0.736600	0.560100	0.243000
O141	O14	0.489300	0.663600	0.923900
O151	O15	0.763400	0.939900	0.243000
O161	O16	0.010700	0.836400	0.923900
O171	O17	0.939900	0.763400	0.243000
O181	O18	0.836400	0.010700	0.923900
O191	O19	0.560100	0.736600	0.243000
O201	O20	0.663600	0.489300	0.923900
O211	O21	0.736600	0.939900	0.743000
O221	O22	0.489300	0.836400	0.423900
O231	O23	0.763400	0.560100	0.743000
O241	O24	0.010700	0.663600	0.423900
O251	O25	0.060100	0.263400	0.257000
O261	O26	0.163600	0.510700	0.576100
O271	O27	0.439900	0.236600	0.257000
O281	O28	0.336400	0.989300	0.576100
O291	O29	0.263400	0.439900	0.757000
O301	O30	0.510700	0.336400	0.076100
O311	O31	0.236600	0.060100	0.757000
O321	O32	0.989300	0.163600	0.076100
Ga11	Ga1	0.000000	0.000000	0.000000
Ga21	Ga2	0.500000	0.500000	0.000000
Ga31	Ga3	0.500000	0.000000	0.500000
Ga41	Ga4	0.000000	0.500000	0.500000
Ga51	Ga5	0.876400	0.876400	0.822080
P11	P1	0.097600	0.097600	0.791700
O331	O33	0.099900	0.099900	0.904300
O341	O34	0.996700	0.996700	0.755500
Ga61	Ga6	0.623600	0.623600	0.822080
P21	P2	0.402400	0.402400	0.791700
O351	O35	0.400100	0.400100	0.904300
O361	O36	0.503300	0.503300	0.755500
Ga71	Ga7	0.623600	0.876400	0.322080
P31	P3	0.402400	0.097600	0.291700
O371	O37	0.400100	0.099900	0.404300
O381	O38	0.503300	0.996700	0.255500
Ga81	Ga8	0.876400	0.623600	0.322080
P41	P4	0.097600	0.402400	0.291700
O391	O39	0.099900	0.400100	0.404300
O401	O40	0.996700	0.503300	0.255500
Ga91	Ga9	0.123600	0.376400	0.677920
P51	P5	0.902400	0.597600	0.708300
O411	O41	0.900100	0.599900	0.595700
O421	O42	0.003300	0.496700	0.744500
Ga101	Ga10	0.376400	0.123600	0.677920
P61	P6	0.597600	0.902400	0.708300
O431	O43	0.599900	0.900100	0.595700
O441	O44	0.496700	0.003300	0.744500
Ga111	Ga11	0.376400	0.376400	0.177920
P71	P7	0.597600	0.597600	0.208300
O451	O45	0.599900	0.599900	0.095700
O461	O46	0.496700	0.496700	0.244500
Ga121	Ga12	0.123600	0.123600	0.177920
P81	P8	0.902400	0.902400	0.208300
O471	O47	0.900100	0.900100	0.095700
O481	O48	0.003300	0.003300	0.244500
F11	F1	0.750000	0.750000	0.887200
F21	F2	0.750000	0.750000	0.387200
F31	F3	0.250000	0.250000	0.612800
F41	F4	0.250000	0.250000	0.112800
