data_NIVZOJ_clean_PM
_symmetry_space_group_name_H-M	'P1'
_cell_length_a	14.505600
_cell_length_b	14.898100
_cell_length_c	22.993400
_cell_angle_alpha	90.534000
_cell_angle_beta	92.844000
_cell_angle_gamma	104.153000
_symmetry_Int_Tables_number 1

loop_
_symmetry_equiv_pos_as_xyz
'x,y,z'

loop_
_atom_site_label
_atom_site_type_symbol
_atom_site_fract_x
_atom_site_fract_y
_atom_site_fract_z
Ag11	Ag1	0.260300	0.887300	0.235020
Ag21	Ag2	0.929560	0.590660	0.928290
Ag31	Ag3	0.517260	0.378140	0.997700
C11	C1	0.899000	0.496000	0.617000
H11	H1	0.950300	0.496600	0.643200
C21	C2	0.818000	0.529000	0.547700
H21	H2	0.798500	0.543500	0.510500
C31	C3	0.769000	0.448000	0.686400
H31	H3	0.700400	0.441000	0.686100
H41	H4	0.780100	0.386400	0.690300
C41	C4	0.815000	0.506000	0.736900
H51	H5	0.878400	0.496900	0.742000
H61	H6	0.821600	0.569700	0.725400
C51	C5	0.779100	0.499600	0.789900
H71	H7	0.711000	0.492400	0.784300
H81	H8	0.804800	0.558800	0.809800
C61	C6	0.794200	0.425100	0.831200
H91	H9	0.768700	0.364600	0.812900
H101	H10	0.861900	0.432500	0.839700
C71	C7	0.718100	0.493400	0.964100
H111	H11	0.721200	0.532300	0.996400
C81	C8	0.664400	0.386700	0.900800
H121	H12	0.624600	0.336200	0.880900
C91	C9	0.363000	0.220000	0.046600
H131	H13	0.344300	0.197500	0.009000
C101	C10	0.428200	0.306800	0.113100
H141	H14	0.466500	0.357100	0.134100
C111	C11	0.367200	0.208300	0.198700
H151	H15	0.397100	0.262500	0.222700
H161	H16	0.399700	0.160200	0.208000
C121	C12	0.262500	0.175200	0.212800
H171	H17	0.230100	0.128000	0.184400
H181	H18	0.258400	0.147600	0.250900
C131	C13	0.214400	0.252900	0.212200
H191	H19	0.227300	0.285100	0.249600
H201	H20	0.241700	0.296300	0.182800
C141	C14	0.109500	0.223700	0.200100
H211	H21	0.082700	0.173400	0.225500
H221	H22	0.082000	0.275100	0.208900
C151	C15	0.080600	0.201000	0.049700
H231	H23	0.085200	0.223300	0.012000
C161	C16	0.049000	0.114000	0.118200
H241	H24	0.026100	0.062000	0.140400
C171	C17	0.144800	0.870000	0.117200
H251	H25	0.089000	0.838900	0.133800
C181	C18	0.293000	0.934000	0.106700
H261	H26	0.359000	0.954700	0.112100
C191	C19	0.287000	0.982000	0.003300
H271	H27	0.250300	0.023800	0.988700
H281	H28	0.351000	0.018500	0.013500
C201	C20	0.292000	0.922000	0.959200
H291	H29	0.311500	0.957700	0.924900
H301	H30	0.229200	0.882800	0.950400
C211	C21	0.360700	0.859000	0.970300
H311	H31	0.367200	0.848600	0.011700
H321	H32	0.423000	0.889000	0.957000
C221	C22	0.319800	0.765400	0.936500
H331	H33	0.316400	0.777200	0.895200
H341	H34	0.363300	0.726000	0.943100
C231	C23	0.145500	0.689000	0.921500
H351	H35	0.139300	0.695600	0.881400
C241	C24	0.121100	0.653000	0.008400
H361	H36	0.091300	0.624500	0.040700
C251	C25	0.353300	0.929200	0.361500
H371	H37	0.415500	0.936000	0.350600
C261	C26	0.206000	0.901000	0.358200
H381	H38	0.143200	0.880300	0.344100
C271	C27	0.378000	0.951000	0.471800
H391	H39	0.349100	0.989300	0.495900
H401	H40	0.371700	0.892300	0.491200
C281	C28	0.476300	0.994000	0.470500
H411	H41	0.484100	0.054300	0.453000
H421	H42	0.506500	0.957000	0.446500
N11	N1	0.894700	0.504100	0.556400
N21	N2	0.806000	0.488000	0.627500
N31	N3	0.766000	0.532000	0.591500
N41	N4	0.645200	0.422800	0.948800
N51	N5	0.789400	0.500700	0.924500
N61	N6	0.747700	0.431300	0.884500
N71	N7	0.417200	0.300700	0.057300
N81	N8	0.334700	0.170600	0.095600
N91	N9	0.377400	0.231700	0.136300
N101	N10	0.084600	0.194300	0.141100
N111	N11	0.104000	0.255100	0.095100
N121	N12	0.048200	0.109000	0.060900
N131	N13	0.153400	0.899000	0.060700
N141	N14	0.244000	0.940300	0.058200
N151	N15	0.237200	0.896800	0.145700
N161	N16	0.224800	0.716000	0.953900
N171	N17	0.211000	0.697000	0.009400
N181	N18	0.076100	0.652500	0.955500
N191	N19	0.275000	0.913800	0.326600
N201	N20	0.232600	0.921000	0.417100
N211	N21	0.323400	0.933000	0.417800
Ag41	Ag4	0.037600	0.966800	0.008600
Ag51	Ag5	0.739700	0.112700	0.764980
Ag61	Ag6	0.070440	0.409340	0.071710
Ag71	Ag7	0.482740	0.621860	0.002300
C291	C29	0.101000	0.504000	0.383000
H431	H43	0.049700	0.503400	0.356800
C301	C30	0.182000	0.471000	0.452300
H441	H44	0.201500	0.456500	0.489500
C311	C31	0.231000	0.552000	0.313600
H451	H45	0.299600	0.559000	0.313900
H461	H46	0.219900	0.613600	0.309700
C321	C32	0.185000	0.494000	0.263100
H471	H47	0.121600	0.503100	0.258000
H481	H48	0.178400	0.430300	0.274600
C331	C33	0.220900	0.500400	0.210100
H491	H49	0.289000	0.507600	0.215700
H501	H50	0.195200	0.441200	0.190200
C341	C34	0.205800	0.574900	0.168800
H511	H51	0.231300	0.635400	0.187100
H521	H52	0.138100	0.567500	0.160300
C351	C35	0.281900	0.506600	0.035900
H531	H53	0.278800	0.467700	0.003600
C361	C36	0.335600	0.613300	0.099200
H541	H54	0.375400	0.663800	0.119100
C371	C37	0.637000	0.780000	0.953400
H551	H55	0.655700	0.802500	0.991000
C381	C38	0.571800	0.693200	0.886900
H561	H56	0.533500	0.642900	0.865900
C391	C39	0.632800	0.791700	0.801300
H571	H57	0.602900	0.737500	0.777300
H581	H58	0.600300	0.839800	0.792000
C401	C40	0.737500	0.824800	0.787200
H591	H59	0.769900	0.872000	0.815600
H601	H60	0.741600	0.852400	0.749100
C411	C41	0.785600	0.747100	0.787800
H611	H61	0.772700	0.714900	0.750400
H621	H62	0.758300	0.703700	0.817200
C421	C42	0.890500	0.776300	0.799900
H631	H63	0.917300	0.826600	0.774500
H641	H64	0.918000	0.724900	0.791100
C431	C43	0.919400	0.799000	0.950300
H651	H65	0.914800	0.776700	0.988000
C441	C44	0.951000	0.886000	0.881800
H661	H66	0.973900	0.938000	0.859600
C451	C45	0.855200	0.130000	0.882800
H671	H67	0.911000	0.161100	0.866200
C461	C46	0.707000	0.066000	0.893300
H681	H68	0.641000	0.045300	0.887900
C471	C47	0.713000	0.018000	0.996700
H691	H69	0.749700	0.976200	0.011300
H701	H70	0.649000	0.981500	0.986500
C481	C48	0.708000	0.078000	0.040800
H711	H71	0.688500	0.042300	0.075100
H721	H72	0.770800	0.117200	0.049600
C491	C49	0.639300	0.141000	0.029700
H731	H73	0.632800	0.151400	0.988300
H741	H74	0.577000	0.111000	0.043000
C501	C50	0.680200	0.234600	0.063500
H751	H75	0.683600	0.222800	0.104800
H761	H76	0.636700	0.274000	0.056900
C511	C51	0.854500	0.311000	0.078500
H771	H77	0.860700	0.304400	0.118600
C521	C52	0.878900	0.347000	0.991600
H781	H78	0.908700	0.375500	0.959300
C531	C53	0.646700	0.070800	0.638500
H791	H79	0.584500	0.064000	0.649400
C541	C54	0.794000	0.099000	0.641800
H801	H80	0.856800	0.119700	0.655900
C551	C55	0.622000	0.049000	0.528200
H811	H81	0.650900	0.010700	0.504100
H821	H82	0.628300	0.107700	0.508800
C561	C56	0.523700	0.006000	0.529500
H831	H83	0.515900	0.945700	0.547000
H841	H84	0.493500	0.043000	0.553500
N221	N22	0.105300	0.495900	0.443600
N231	N23	0.194000	0.512000	0.372500
N241	N24	0.234000	0.468000	0.408500
N251	N25	0.354800	0.577200	0.051200
N261	N26	0.210600	0.499300	0.075500
N271	N27	0.252300	0.568700	0.115500
N281	N28	0.582800	0.699300	0.942700
N291	N29	0.665300	0.829400	0.904400
N301	N30	0.622600	0.768300	0.863700
N311	N31	0.915400	0.805700	0.858900
N321	N32	0.896000	0.744900	0.904900
N331	N33	0.951800	0.891000	0.939100
N341	N34	0.846600	0.101000	0.939300
N351	N35	0.756000	0.059700	0.941800
N361	N36	0.762800	0.103200	0.854300
N371	N37	0.775200	0.284000	0.046100
N381	N38	0.789000	0.303000	0.990600
N391	N39	0.923900	0.347500	0.044500
N401	N40	0.725000	0.086200	0.673400
N411	N41	0.767400	0.079000	0.582900
N421	N42	0.676600	0.067000	0.582200
Ag81	Ag8	0.962400	0.033200	0.991400
Ag91	Ag9	0.000000	0.000000	0.000000
Ag101	Ag10	0.000000	0.500000	0.500000
