data_NIWZIE13_clean_PM
_symmetry_space_group_name_H-M	'P1'
_cell_length_a	7.263800
_cell_length_b	7.263800
_cell_length_c	8.209800
_cell_angle_alpha	90.000000
_cell_angle_beta	90.000000
_cell_angle_gamma	120.000000
_symmetry_Int_Tables_number 1

loop_
_symmetry_equiv_pos_as_xyz
'x,y,z'

loop_
_atom_site_label
_atom_site_type_symbol
_atom_site_fract_x
_atom_site_fract_y
_atom_site_fract_z
O11	O1	0.890720	0.310190	0.893990
O21	O2	0.689810	0.580530	0.893990
O31	O3	0.419470	0.109280	0.893990
O41	O4	0.109280	0.689810	0.393990
O51	O5	0.310190	0.419470	0.393990
O61	O6	0.580530	0.890720	0.393990
O71	O7	0.310190	0.890720	0.106010
O81	O8	0.580530	0.689810	0.106010
O91	O9	0.109280	0.419470	0.106010
O101	O10	0.689810	0.109280	0.606010
O111	O11	0.419470	0.310190	0.606010
O121	O12	0.890720	0.580530	0.606010
Mg11	Mg1	0.666670	0.333330	0.750000
Mg21	Mg2	0.333330	0.666670	0.250000
C11	C1	0.000000	0.440000	0.000000
H11	H1	0.000000	0.568100	0.000000
C21	C2	0.560000	0.560000	0.000000
H21	H2	0.431900	0.431900	0.000000
C31	C3	0.440000	0.000000	0.000000
H31	H3	0.568100	0.000000	0.000000
C41	C4	0.000000	0.560000	0.500000
H41	H4	0.000000	0.431900	0.500000
C51	C5	0.440000	0.440000	0.500000
H51	H5	0.568100	0.568100	0.500000
C61	C6	0.560000	0.000000	0.500000
H61	H6	0.431900	0.000000	0.500000
