data_NIYZIG_clean_PM
_symmetry_space_group_name_H-M	'P1'
_cell_length_a	13.710000
_cell_length_b	14.753000
_cell_length_c	20.027000
_cell_angle_alpha	90.000000
_cell_angle_beta	107.969000
_cell_angle_gamma	90.000000
_symmetry_Int_Tables_number 1

loop_
_symmetry_equiv_pos_as_xyz
'x,y,z'

loop_
_atom_site_label
_atom_site_type_symbol
_atom_site_fract_x
_atom_site_fract_y
_atom_site_fract_z
Zn11	Zn1	0.401550	0.974800	0.437870
Zn21	Zn2	0.648380	0.901110	0.447150
P11	P1	0.724260	0.973410	0.304000
O11	O1	0.670010	0.959210	0.357100
O21	O2	0.451820	0.314150	0.113010
C11	C1	0.701160	0.881590	0.241570
C21	C2	0.860400	0.983470	0.342540
O31	O3	0.210720	0.067650	0.493700
O41	O4	0.636420	0.580860	0.125360
C31	C3	0.678400	0.074580	0.253630
O51	O5	0.607180	0.356720	0.108740
O61	O6	0.243590	0.955820	0.428230
C41	C4	0.593900	0.224730	0.170970
C51	C5	0.546900	0.305100	0.127090
O71	O7	0.628400	0.672180	0.035970
C61	C6	0.531900	0.165200	0.194000
H11	H1	0.461700	0.175500	0.181900
C71	C7	0.697500	0.206500	0.188800
H21	H2	0.739800	0.244800	0.173200
H31	H3	0.567000	0.051300	0.435000
O81	O8	0.560040	0.005250	0.458580
C81	C8	0.071000	0.998500	0.410640
C91	C9	0.574400	0.091100	0.234500
H41	H4	0.532200	0.051700	0.249300
C101	C10	0.185400	0.007600	0.446940
C111	C11	0.672200	0.800000	0.260990
H51	H5	0.665200	0.792700	0.305400
C121	C12	0.898600	0.047800	0.394500
H61	H6	0.853300	0.086200	0.407000
C131	C13	0.001900	0.056000	0.427650
H71	H7	0.025900	0.100300	0.461800
C141	C14	0.739300	0.132200	0.229400
H81	H8	0.809200	0.120800	0.240600
C151	C15	0.712600	0.891300	0.176120
H91	H9	0.733300	0.946600	0.162800
C161	C16	0.653100	0.727400	0.214370
H101	H10	0.633300	0.671900	0.228000
C171	C17	0.693100	0.818400	0.129840
H111	H11	0.700600	0.825400	0.085500
C181	C18	0.034100	0.934000	0.360600
H121	H12	0.079600	0.894500	0.349400
C191	C19	0.929800	0.926000	0.325800
H131	H13	0.906300	0.882100	0.291300
C201	C20	0.662900	0.736700	0.148800
C211	C21	0.640500	0.657300	0.098950
Zn31	Zn3	0.598450	0.474800	0.062130
Zn41	Zn4	0.351620	0.401110	0.052850
P21	P2	0.275740	0.473410	0.196000
O91	O9	0.329990	0.459210	0.142900
O101	O10	0.548180	0.814150	0.386990
C221	C22	0.298840	0.381590	0.258430
C231	C23	0.139600	0.483470	0.157460
O111	O11	0.789280	0.567650	0.006300
O121	O12	0.363580	0.080860	0.374640
C241	C24	0.321600	0.574580	0.246370
O131	O13	0.392820	0.856720	0.391260
O141	O14	0.756410	0.455820	0.071770
C251	C25	0.406100	0.724730	0.329030
C261	C26	0.453100	0.805100	0.372910
O151	O15	0.371600	0.172180	0.464030
C271	C27	0.468100	0.665200	0.306000
H141	H14	0.538300	0.675500	0.318100
C281	C28	0.302500	0.706500	0.311200
H151	H15	0.260200	0.744800	0.326800
H161	H16	0.433000	0.551300	0.065000
O161	O16	0.439960	0.505250	0.041420
C291	C29	0.929000	0.498500	0.089360
C301	C30	0.425600	0.591100	0.265500
H171	H17	0.467800	0.551700	0.250700
C311	C31	0.814600	0.507600	0.053060
C321	C32	0.327800	0.300000	0.239010
H181	H18	0.334800	0.292700	0.194600
C331	C33	0.101400	0.547800	0.105500
H191	H19	0.146700	0.586200	0.093000
C341	C34	0.998100	0.556000	0.072350
H201	H20	0.974100	0.600300	0.038200
C351	C35	0.260700	0.632200	0.270600
H211	H21	0.190800	0.620800	0.259400
C361	C36	0.287400	0.391300	0.323880
H221	H22	0.266700	0.446600	0.337200
C371	C37	0.346900	0.227400	0.285630
H231	H23	0.366700	0.171900	0.272000
C381	C38	0.306900	0.318400	0.370160
H241	H24	0.299400	0.325400	0.414500
C391	C39	0.965900	0.434000	0.139400
H251	H25	0.920400	0.394500	0.150600
C401	C40	0.070200	0.426000	0.174200
H261	H26	0.093700	0.382100	0.208700
C411	C41	0.337100	0.236700	0.351200
C421	C42	0.359500	0.157300	0.401050
Zn51	Zn5	0.598450	0.025200	0.562130
Zn61	Zn6	0.351620	0.098890	0.552850
P31	P3	0.275740	0.026590	0.696000
O171	O17	0.329990	0.040790	0.642900
O181	O18	0.548180	0.685850	0.886990
C431	C43	0.298840	0.118410	0.758430
C441	C44	0.139600	0.016530	0.657460
O191	O19	0.789280	0.932350	0.506300
O201	O20	0.363580	0.419140	0.874640
C451	C45	0.321600	0.925420	0.746370
O211	O21	0.392820	0.643280	0.891260
O221	O22	0.756410	0.044180	0.571770
C461	C46	0.406100	0.775270	0.829030
C471	C47	0.453100	0.694900	0.872910
O231	O23	0.371600	0.327820	0.964030
C481	C48	0.468100	0.834800	0.806000
H271	H27	0.538300	0.824500	0.818100
C491	C49	0.302500	0.793500	0.811200
H281	H28	0.260200	0.755200	0.826800
H291	H29	0.433000	0.948700	0.565000
O241	O24	0.439960	0.994750	0.541420
C501	C50	0.929000	0.001500	0.589360
C511	C51	0.425600	0.908900	0.765500
H301	H30	0.467800	0.948300	0.750700
C521	C52	0.814600	0.992400	0.553060
C531	C53	0.327800	0.200000	0.739010
H311	H31	0.334800	0.207300	0.694600
C541	C54	0.101400	0.952200	0.605500
H321	H32	0.146700	0.913800	0.593000
C551	C55	0.998100	0.944000	0.572350
H331	H33	0.974100	0.899700	0.538200
C561	C56	0.260700	0.867800	0.770600
H341	H34	0.190800	0.879200	0.759400
C571	C57	0.287400	0.108700	0.823880
H351	H35	0.266700	0.053400	0.837200
C581	C58	0.346900	0.272600	0.785630
H361	H36	0.366700	0.328100	0.772000
C591	C59	0.306900	0.181600	0.870160
H371	H37	0.299400	0.174600	0.914500
C601	C60	0.965900	0.066000	0.639400
H381	H38	0.920400	0.105500	0.650600
C611	C61	0.070200	0.074000	0.674200
H391	H39	0.093700	0.117900	0.708700
C621	C62	0.337100	0.263300	0.851200
C631	C63	0.359500	0.342700	0.901050
Zn71	Zn7	0.401550	0.525200	0.937870
Zn81	Zn8	0.648380	0.598890	0.947150
P41	P4	0.724260	0.526590	0.804000
O251	O25	0.670010	0.540790	0.857100
O261	O26	0.451820	0.185850	0.613010
C641	C64	0.701160	0.618410	0.741570
C651	C65	0.860400	0.516530	0.842540
O271	O27	0.210720	0.432350	0.993700
O281	O28	0.636420	0.919140	0.625360
C661	C66	0.678400	0.425420	0.753630
O291	O29	0.607180	0.143280	0.608740
O301	O30	0.243590	0.544180	0.928230
C671	C67	0.593900	0.275270	0.670970
C681	C68	0.546900	0.194900	0.627090
O311	O31	0.628400	0.827820	0.535970
C691	C69	0.531900	0.334800	0.694000
H401	H40	0.461700	0.324500	0.681900
C701	C70	0.697500	0.293500	0.688800
H411	H41	0.739800	0.255200	0.673200
H421	H42	0.567000	0.448700	0.935000
O321	O32	0.560040	0.494750	0.958580
C711	C71	0.071000	0.501500	0.910640
C721	C72	0.574400	0.408900	0.734500
H431	H43	0.532200	0.448300	0.749300
C731	C73	0.185400	0.492400	0.946940
C741	C74	0.672200	0.700000	0.760990
H441	H44	0.665200	0.707300	0.805400
C751	C75	0.898600	0.452200	0.894500
H451	H45	0.853300	0.413800	0.907000
C761	C76	0.001900	0.444000	0.927650
H461	H46	0.025900	0.399700	0.961800
C771	C77	0.739300	0.367800	0.729400
H471	H47	0.809200	0.379200	0.740600
C781	C78	0.712600	0.608700	0.676120
H481	H48	0.733300	0.553400	0.662800
C791	C79	0.653100	0.772600	0.714370
H491	H49	0.633300	0.828100	0.728000
C801	C80	0.693100	0.681600	0.629840
H501	H50	0.700600	0.674600	0.585500
C811	C81	0.034100	0.566000	0.860600
H511	H51	0.079600	0.605500	0.849400
C821	C82	0.929800	0.574000	0.825800
H521	H52	0.906300	0.617900	0.791300
C831	C83	0.662900	0.763300	0.648800
C841	C84	0.640500	0.842700	0.598950
