data_NOCKUM_clean_PM
_symmetry_space_group_name_H-M	'P1'
_cell_length_a	10.684000
_cell_length_b	13.848200
_cell_length_c	14.960400
_cell_angle_alpha	76.466600
_cell_angle_beta	69.079200
_cell_angle_gamma	67.309400
_symmetry_Int_Tables_number 1

loop_
_symmetry_equiv_pos_as_xyz
'x,y,z'

loop_
_atom_site_label
_atom_site_type_symbol
_atom_site_fract_x
_atom_site_fract_y
_atom_site_fract_z
Ca11	Ca1	0.506650	0.968100	0.383260
Ca21	Ca2	0.858010	0.531900	0.116740
Ca31	Ca3	0.493350	0.031900	0.616740
Ca41	Ca4	0.141990	0.468100	0.883260
Ca51	Ca5	0.783060	0.750000	0.250000
Ca61	Ca6	0.216940	0.250000	0.750000
H11	H1	0.729400	0.180500	0.245700
H21	H2	0.817100	0.312100	0.149100
H31	H3	0.138700	0.094400	0.984000
H41	H4	0.054100	0.962500	0.084700
H51	H5	0.630600	0.837800	0.064600
H61	H6	0.369200	0.137900	0.095100
H71	H7	0.155600	0.319500	0.254300
H81	H8	0.278300	0.187900	0.350900
H91	H9	0.217100	0.405600	0.516000
H101	H10	0.101300	0.537500	0.415300
H111	H11	0.533000	0.662200	0.435400
H121	H12	0.602200	0.362100	0.404900
H131	H13	0.270600	0.819500	0.754300
H141	H14	0.182900	0.687900	0.850900
H151	H15	0.861300	0.905600	0.016000
H161	H16	0.945900	0.037500	0.915300
H171	H17	0.369400	0.162200	0.935400
H181	H18	0.630800	0.862100	0.904900
H191	H19	0.844400	0.680500	0.745700
H201	H20	0.721700	0.812100	0.649100
H211	H21	0.782900	0.594400	0.484000
H221	H22	0.898700	0.462500	0.584700
H231	H23	0.467000	0.337800	0.564600
H241	H24	0.397800	0.637900	0.595100
C11	C1	0.821600	0.975100	0.236700
C21	C2	0.882600	0.058600	0.174400
C31	C3	0.813200	0.162900	0.192900
C41	C4	0.864700	0.241100	0.135300
C51	C5	0.987000	0.215900	0.056700
C61	C6	0.040600	0.302300	0.993700
C71	C7	0.056300	0.111900	0.037700
C81	C8	0.005000	0.033800	0.097000
C91	C9	0.498600	0.971700	0.198500
C101	C10	0.498300	0.985300	0.095700
C111	C11	0.577000	0.903800	0.038600
C121	C12	0.422300	0.081500	0.056500
C131	C13	0.033400	0.524900	0.263300
C141	C14	0.115600	0.441400	0.325600
C151	C15	0.169000	0.337100	0.307100
C161	C16	0.241100	0.258900	0.364700
C171	C17	0.259600	0.284100	0.443300
C181	C18	0.336600	0.197700	0.506300
C191	C19	0.205900	0.388100	0.462300
C201	C20	0.135800	0.466200	0.403000
C211	C21	0.668800	0.528300	0.301500
C221	C22	0.579300	0.514700	0.404300
C231	C23	0.519400	0.596200	0.461400
C241	C24	0.560300	0.418500	0.443500
C251	C25	0.178400	0.024900	0.763300
C261	C26	0.117400	0.941400	0.825600
C271	C27	0.186800	0.837100	0.807100
C281	C28	0.135300	0.758900	0.864700
C291	C29	0.013000	0.784100	0.943300
C301	C30	0.959400	0.697700	0.006300
C311	C31	0.943700	0.888100	0.962300
C321	C32	0.995000	0.966200	0.903000
C331	C33	0.501400	0.028300	0.801500
C341	C34	0.501700	0.014700	0.904300
C351	C35	0.423000	0.096200	0.961400
C361	C36	0.577700	0.918500	0.943500
C371	C37	0.966600	0.475100	0.736700
C381	C38	0.884400	0.558600	0.674400
C391	C39	0.831000	0.662900	0.692900
C401	C40	0.758900	0.741100	0.635300
C411	C41	0.740400	0.715900	0.556700
C421	C42	0.663400	0.802300	0.493700
C431	C43	0.794100	0.611900	0.537700
C441	C44	0.864200	0.533800	0.597000
C451	C45	0.331200	0.471700	0.698500
C461	C46	0.420700	0.485300	0.595700
C471	C47	0.480600	0.403800	0.538600
C481	C48	0.439700	0.581500	0.556500
O11	O1	0.711260	0.005990	0.307090
O21	O2	0.879730	0.883070	0.213870
O31	O3	0.132030	0.284990	0.913350
O41	O4	0.993170	0.391360	0.024900
O51	O5	0.574120	0.884910	0.232850
O61	O6	0.423050	0.047550	0.247550
O71	O7	0.024340	0.494010	0.192910
O81	O8	0.976670	0.616930	0.286130
O91	O9	0.330370	0.215010	0.586650
O101	O10	0.409430	0.108640	0.475100
O111	O11	0.691880	0.615090	0.267150
O121	O12	0.718150	0.452450	0.252450
O131	O13	0.288740	0.994010	0.692910
O141	O14	0.120270	0.116930	0.786130
O151	O15	0.867970	0.715010	0.086650
O161	O16	0.006830	0.608640	0.975100
O171	O17	0.425880	0.115090	0.767150
O181	O18	0.576950	0.952450	0.752450
O191	O19	0.975660	0.505990	0.807090
O201	O20	0.023330	0.383070	0.713870
O211	O21	0.669630	0.784990	0.413350
O221	O22	0.590570	0.891360	0.524900
O231	O23	0.308120	0.384910	0.732850
O241	O24	0.281850	0.547550	0.747550
