data_NOCKOG_clean_PM
_symmetry_space_group_name_H-M	'P1'
_cell_length_a	9.941000
_cell_length_b	13.627000
_cell_length_c	17.686000
_cell_angle_alpha	92.732000
_cell_angle_beta	90.000000
_cell_angle_gamma	90.000000
_symmetry_Int_Tables_number 1

loop_
_symmetry_equiv_pos_as_xyz
'x,y,z'

loop_
_atom_site_label
_atom_site_type_symbol
_atom_site_fract_x
_atom_site_fract_y
_atom_site_fract_z
Mg11	Mg1	0.068720	0.895840	0.964190
Mg21	Mg2	0.929590	0.657600	0.976500
Mg31	Mg3	0.568720	0.104160	0.535810
Mg41	Mg4	0.429590	0.342400	0.523500
Mg51	Mg5	0.931280	0.104160	0.035810
Mg61	Mg6	0.070410	0.342400	0.023500
Mg71	Mg7	0.431280	0.895840	0.464190
Mg81	Mg8	0.570410	0.657600	0.476500
H11	H1	0.807700	0.980500	0.788700
H21	H2	0.697700	0.002400	0.674100
H31	H3	0.625800	0.709200	0.651700
H41	H4	0.720500	0.689200	0.771100
H51	H5	0.282700	0.812400	0.755800
H61	H6	0.377400	0.739000	0.646000
H71	H7	0.288900	0.471100	0.723900
H81	H8	0.198100	0.544000	0.834000
H91	H9	0.307700	0.019500	0.711300
H101	H10	0.197700	0.997600	0.825900
H111	H11	0.125800	0.290800	0.848300
H121	H12	0.220500	0.310800	0.728900
H131	H13	0.782700	0.187600	0.744200
H141	H14	0.877400	0.261000	0.854000
H151	H15	0.788900	0.528900	0.776100
H161	H16	0.698100	0.456000	0.666000
H171	H17	0.192300	0.019500	0.211300
H181	H18	0.302300	0.997600	0.325900
H191	H19	0.374200	0.290800	0.348300
H201	H20	0.279500	0.310800	0.228900
H211	H21	0.717300	0.187600	0.244200
H221	H22	0.622600	0.261000	0.354000
H231	H23	0.711100	0.528900	0.276100
H241	H24	0.801900	0.456000	0.166000
H251	H25	0.692300	0.980500	0.288700
H261	H26	0.802300	0.002400	0.174100
H271	H27	0.874200	0.709200	0.151700
H281	H28	0.779500	0.689200	0.271100
H291	H29	0.217300	0.812400	0.255800
H301	H30	0.122600	0.739000	0.146000
H311	H31	0.211100	0.471100	0.223900
H321	H32	0.301900	0.544000	0.334000
C11	C1	0.845700	0.818600	0.865200
C21	C2	0.774900	0.832800	0.790000
C31	C3	0.768600	0.925900	0.761400
C41	C4	0.705000	0.938500	0.693000
C51	C5	0.651800	0.858100	0.651600
C61	C6	0.660200	0.764500	0.680300
C71	C7	0.718700	0.752200	0.750300
C81	C8	0.585400	0.872300	0.577700
C91	C9	0.170100	0.734900	0.875800
C101	C10	0.232200	0.686000	0.805300
C111	C11	0.285000	0.742800	0.749300
C121	C12	0.340900	0.699600	0.683900
C131	C13	0.342700	0.596600	0.674700
C141	C14	0.288400	0.540600	0.730700
C151	C15	0.233900	0.583500	0.795900
C161	C16	0.402700	0.548300	0.603100
C171	C17	0.345700	0.181400	0.634800
C181	C18	0.274900	0.167200	0.710000
C191	C19	0.268600	0.074100	0.738600
C201	C20	0.205000	0.061500	0.807000
C211	C21	0.151800	0.141900	0.848400
C221	C22	0.160200	0.235500	0.819700
C231	C23	0.218700	0.247800	0.749700
C241	C24	0.085400	0.127700	0.922300
C251	C25	0.670100	0.265100	0.624200
C261	C26	0.732200	0.314000	0.694700
C271	C27	0.785000	0.257200	0.750700
C281	C28	0.840900	0.300400	0.816100
C291	C29	0.842700	0.403400	0.825300
C301	C30	0.788400	0.459400	0.769300
C311	C31	0.733900	0.416500	0.704100
C321	C32	0.902700	0.451700	0.896900
C331	C33	0.154300	0.181400	0.134800
C341	C34	0.225100	0.167200	0.210000
C351	C35	0.231400	0.074100	0.238600
C361	C36	0.295000	0.061500	0.307000
C371	C37	0.348200	0.141900	0.348400
C381	C38	0.339800	0.235500	0.319700
C391	C39	0.281300	0.247800	0.249700
C401	C40	0.414600	0.127700	0.422300
C411	C41	0.829900	0.265100	0.124200
C421	C42	0.767800	0.314000	0.194700
C431	C43	0.715000	0.257200	0.250700
C441	C44	0.659100	0.300400	0.316100
C451	C45	0.657300	0.403400	0.325300
C461	C46	0.711600	0.459400	0.269300
C471	C47	0.766100	0.416500	0.204100
C481	C48	0.597300	0.451700	0.396900
C491	C49	0.654300	0.818600	0.365200
C501	C50	0.725100	0.832800	0.290000
C511	C51	0.731400	0.925900	0.261400
C521	C52	0.795000	0.938500	0.193000
C531	C53	0.848200	0.858100	0.151600
C541	C54	0.839800	0.764500	0.180300
C551	C55	0.781300	0.752200	0.250300
C561	C56	0.914600	0.872300	0.077700
C571	C57	0.329900	0.734900	0.375800
C581	C58	0.267800	0.686000	0.305300
C591	C59	0.215000	0.742800	0.249300
C601	C60	0.159100	0.699600	0.183900
C611	C61	0.157300	0.596600	0.174700
C621	C62	0.211600	0.540600	0.230700
C631	C63	0.266100	0.583500	0.295900
C641	C64	0.097300	0.548300	0.103100
O11	O1	0.918100	0.888400	0.889000
O21	O2	0.826200	0.739600	0.897200
O31	O3	0.580200	0.958300	0.553000
O41	O4	0.531800	0.801600	0.539700
O51	O5	0.189300	0.826300	0.887400
O61	O6	0.103600	0.683300	0.919200
O71	O7	0.376200	0.460200	0.590300
O81	O8	0.477900	0.600600	0.564100
O91	O9	0.418100	0.111600	0.611000
O101	O10	0.326200	0.260400	0.602800
O111	O11	0.080200	0.041700	0.947000
O121	O12	0.031800	0.198400	0.960300
O131	O13	0.689300	0.173700	0.612600
O141	O14	0.603600	0.316700	0.580800
O151	O15	0.876200	0.539800	0.909700
O161	O16	0.977900	0.399400	0.935900
O171	O17	0.081900	0.111600	0.111000
O181	O18	0.173800	0.260400	0.102800
O191	O19	0.419800	0.041700	0.447000
O201	O20	0.468200	0.198400	0.460300
O211	O21	0.810700	0.173700	0.112600
O221	O22	0.896400	0.316700	0.080800
O231	O23	0.623800	0.539800	0.409700
O241	O24	0.522100	0.399400	0.435900
O251	O25	0.581900	0.888400	0.389000
O261	O26	0.673800	0.739600	0.397200
O271	O27	0.919800	0.958300	0.053000
O281	O28	0.968200	0.801600	0.039700
O291	O29	0.310700	0.826300	0.387400
O301	O30	0.396400	0.683300	0.419200
O311	O31	0.123800	0.460200	0.090300
O321	O32	0.022100	0.600600	0.064100
