data_NOCLOH_clean_PM
_symmetry_space_group_name_H-M	'P1'
_cell_length_a	9.806000
_cell_length_b	10.599000
_cell_length_c	10.599000
_cell_angle_alpha	120.000000
_cell_angle_beta	90.000000
_cell_angle_gamma	90.000000
_symmetry_Int_Tables_number 1

loop_
_symmetry_equiv_pos_as_xyz
'x,y,z'

loop_
_atom_site_label
_atom_site_type_symbol
_atom_site_fract_x
_atom_site_fract_y
_atom_site_fract_z
Sr11	Sr1	0.123490	0.688310	0.234780
Sr21	Sr2	0.456820	0.546470	0.311690
Sr31	Sr3	0.790160	0.765220	0.453530
H11	H1	0.520770	0.527800	0.982600
H21	H2	0.450370	0.514600	0.768900
H31	H3	0.814770	0.666000	0.731500
H41	H4	0.885770	0.678200	0.945800
H51	H5	0.854100	0.454800	0.472200
H61	H6	0.783700	0.254300	0.485400
H71	H7	0.148100	0.065500	0.334000
H81	H8	0.219100	0.267600	0.321800
H91	H9	0.187440	0.017400	0.545200
H101	H10	0.117040	0.231100	0.745700
H111	H11	0.481440	0.268500	0.934500
H121	H12	0.552440	0.054200	0.732400
C11	C1	0.753000	0.616100	0.128700
C21	C2	0.709500	0.603400	0.985600
C31	C3	0.580000	0.555300	0.932100
C41	C4	0.537700	0.547600	0.804100
C51	C5	0.625300	0.589000	0.727300
C61	C6	0.575200	0.579700	0.588200
C71	C7	0.755800	0.638000	0.781700
C81	C8	0.798500	0.645400	0.910100
C91	C9	0.086330	0.512600	0.383900
C101	C10	0.042830	0.382200	0.396600
C111	C11	0.913330	0.376800	0.444700
C121	C12	0.871030	0.256500	0.452400
C131	C13	0.958630	0.138300	0.411000
C141	C14	0.908530	0.008500	0.420300
C151	C15	0.089130	0.143700	0.362000
C161	C16	0.131830	0.264700	0.354600
C171	C17	0.419670	0.871300	0.487400
C181	C18	0.376170	0.014400	0.617800
C191	C19	0.246670	0.067900	0.623200
C201	C20	0.204370	0.195900	0.743500
C211	C21	0.291970	0.272700	0.861700
C221	C22	0.241870	0.411800	0.991500
C231	C23	0.422470	0.218300	0.856300
C241	C24	0.465170	0.089900	0.735300
O11	O1	0.871000	0.659300	0.174700
O21	O2	0.666400	0.587400	0.199400
O31	O3	0.452400	0.556800	0.557600
O41	O4	0.661920	0.593400	0.506500
O51	O5	0.204330	0.515400	0.340700
O61	O6	0.999730	0.612000	0.412600
O71	O7	0.785730	0.000800	0.443200
O81	O8	0.995250	0.913100	0.406600
O91	O9	0.537670	0.825300	0.484600
O101	O10	0.333070	0.800600	0.388000
O111	O11	0.119070	0.442400	0.999200
O121	O12	0.328590	0.493500	0.086900
