data_NODKAT_clean_PM
_symmetry_space_group_name_H-M	'P1'
_cell_length_a	12.339800
_cell_length_b	13.495800
_cell_length_c	16.979900
_cell_angle_alpha	90.000000
_cell_angle_beta	90.000000
_cell_angle_gamma	90.000000
_symmetry_Int_Tables_number 1

loop_
_symmetry_equiv_pos_as_xyz
'x,y,z'

loop_
_atom_site_label
_atom_site_type_symbol
_atom_site_fract_x
_atom_site_fract_y
_atom_site_fract_z
In11	In1	0.286030	0.104860	0.130980
O11	O1	0.270700	0.285000	0.104120
O21	O2	0.305500	0.170700	0.015720
O31	O3	0.636200	0.484600	0.929700
O41	O4	0.614900	0.372500	0.837370
O51	O5	0.378200	0.973900	0.073690
O61	O6	0.295800	0.953600	0.187280
O71	O7	0.680800	0.661100	0.244420
O81	O8	0.546700	0.641200	0.327170
C11	C1	0.312600	0.341000	0.972100
C21	C2	0.426800	0.389300	0.986100
C31	C3	0.454300	0.434000	0.904500
H11	H1	0.431800	0.503600	0.904600
C41	C4	0.384700	0.378100	0.842400
H21	H2	0.334200	0.422900	0.817000
H31	H3	0.430500	0.348300	0.802400
C51	C5	0.324900	0.299300	0.888500
H41	H4	0.365900	0.238000	0.889300
H51	H5	0.254400	0.286500	0.865300
C61	C6	0.221500	0.416600	0.973800
H61	H6	0.153800	0.384000	0.963600
H71	H7	0.234100	0.466000	0.934200
H81	H8	0.219000	0.447500	0.024700
C71	C7	0.510700	0.310700	0.011400
H91	H9	0.491200	0.284500	0.062000
H101	H10	0.581200	0.340500	0.014400
H111	H11	0.511900	0.257900	0.973400
C81	C8	0.426500	0.467300	0.049500
H121	H12	0.410600	0.437000	0.099400
H131	H13	0.372400	0.516200	0.037800
H141	H14	0.496400	0.498400	0.051900
C91	C9	0.292800	0.261300	0.035000
C101	C10	0.576600	0.430300	0.889000
C111	C11	0.386500	0.810200	0.131500
C121	C12	0.501800	0.798400	0.170400
C131	C13	0.501100	0.686900	0.193700
H151	H15	0.523800	0.649600	0.147100
C141	C14	0.383400	0.657600	0.210700
H161	H16	0.363600	0.598900	0.181100
H171	H17	0.373300	0.644300	0.266400
C151	C15	0.315600	0.745800	0.185200
H181	H18	0.292500	0.783500	0.230800
H191	H19	0.251700	0.723500	0.157000
C161	C16	0.382500	0.770700	0.047100
H201	H20	0.428300	0.810600	0.014100
H211	H21	0.309400	0.773500	0.028000
H221	H22	0.407500	0.703400	0.046300
C171	C17	0.594800	0.825500	0.115200
H231	H23	0.591300	0.894800	0.102900
H241	H24	0.589000	0.787500	0.067600
H251	H25	0.662700	0.811100	0.140400
C181	C18	0.511400	0.861800	0.244600
H261	H26	0.453700	0.845400	0.280200
H271	H27	0.506700	0.930600	0.230600
H281	H28	0.579800	0.849200	0.269500
C191	C19	0.351900	0.918400	0.130700
C201	C20	0.580600	0.662000	0.258900
In21	In2	0.213970	0.895140	0.630980
O91	O9	0.229300	0.715000	0.604120
O101	O10	0.194500	0.829300	0.515720
O111	O11	0.863800	0.515400	0.429700
O121	O12	0.885100	0.627500	0.337370
O131	O13	0.121800	0.026100	0.573690
O141	O14	0.204200	0.046400	0.687280
O151	O15	0.819200	0.338900	0.744420
O161	O16	0.953300	0.358800	0.827170
C211	C21	0.187400	0.659000	0.472100
C221	C22	0.073200	0.610700	0.486100
C231	C23	0.045700	0.566000	0.404500
H291	H29	0.068200	0.496400	0.404600
C241	C24	0.115300	0.621900	0.342400
H301	H30	0.165800	0.577100	0.317000
H311	H31	0.069500	0.651700	0.302400
C251	C25	0.175100	0.700700	0.388500
H321	H32	0.134100	0.762000	0.389300
H331	H33	0.245600	0.713500	0.365300
C261	C26	0.278500	0.583400	0.473800
H341	H34	0.346200	0.616000	0.463600
H351	H35	0.265900	0.534000	0.434200
H361	H36	0.281000	0.552500	0.524700
C271	C27	0.989300	0.689300	0.511400
H371	H37	0.008800	0.715500	0.562000
H381	H38	0.918800	0.659500	0.514400
H391	H39	0.988100	0.742100	0.473400
C281	C28	0.073500	0.532700	0.549500
H401	H40	0.089400	0.563000	0.599400
H411	H41	0.127600	0.483800	0.537800
H421	H42	0.003600	0.501600	0.551900
C291	C29	0.207200	0.738700	0.535000
C301	C30	0.923400	0.569700	0.389000
C311	C31	0.113500	0.189800	0.631500
C321	C32	0.998200	0.201600	0.670400
C331	C33	0.998900	0.313100	0.693700
H431	H43	0.976200	0.350400	0.647100
C341	C34	0.116600	0.342400	0.710700
H441	H44	0.136400	0.401100	0.681100
H451	H45	0.126700	0.355700	0.766400
C351	C35	0.184400	0.254200	0.685200
H461	H46	0.207500	0.216500	0.730800
H471	H47	0.248300	0.276500	0.657000
C361	C36	0.117500	0.229300	0.547100
H481	H48	0.071700	0.189400	0.514100
H491	H49	0.190600	0.226500	0.528000
H501	H50	0.092500	0.296600	0.546300
C371	C37	0.905200	0.174500	0.615200
H511	H51	0.908700	0.105200	0.602900
H521	H52	0.911000	0.212500	0.567600
H531	H53	0.837300	0.188900	0.640400
C381	C38	0.988600	0.138200	0.744600
H541	H54	0.046300	0.154600	0.780200
H551	H55	0.993300	0.069400	0.730600
H561	H56	0.920200	0.150800	0.769500
C391	C39	0.148100	0.081600	0.630700
C401	C40	0.919400	0.338000	0.758900
In31	In3	0.713970	0.604860	0.369020
O171	O17	0.729300	0.785000	0.395880
O181	O18	0.694500	0.670700	0.484280
O191	O19	0.363800	0.984600	0.570300
O201	O20	0.385100	0.872500	0.662630
O211	O21	0.621800	0.473900	0.426310
O221	O22	0.704200	0.453600	0.312720
O231	O23	0.319200	0.161100	0.255580
O241	O24	0.453300	0.141200	0.172830
C411	C41	0.687400	0.841000	0.527900
C421	C42	0.573200	0.889300	0.513900
C431	C43	0.545700	0.934000	0.595500
H571	H57	0.568200	0.003600	0.595400
C441	C44	0.615300	0.878100	0.657600
H581	H58	0.665800	0.922900	0.683000
H591	H59	0.569500	0.848300	0.697600
C451	C45	0.675100	0.799300	0.611500
H601	H60	0.634100	0.738000	0.610700
H611	H61	0.745600	0.786500	0.634700
C461	C46	0.778500	0.916600	0.526200
H621	H62	0.846200	0.884000	0.536400
H631	H63	0.765900	0.966000	0.565800
H641	H64	0.781000	0.947500	0.475300
C471	C47	0.489300	0.810700	0.488600
H651	H65	0.508800	0.784500	0.438000
H661	H66	0.418800	0.840500	0.485600
H671	H67	0.488100	0.757900	0.526600
C481	C48	0.573500	0.967300	0.450500
H681	H68	0.589400	0.937000	0.400600
H691	H69	0.627600	0.016200	0.462200
H701	H70	0.503600	0.998400	0.448100
C491	C49	0.707200	0.761300	0.465000
C501	C50	0.423400	0.930300	0.611000
C511	C51	0.613500	0.310200	0.368500
C521	C52	0.498200	0.298400	0.329600
C531	C53	0.498900	0.186900	0.306300
H711	H71	0.476200	0.149600	0.352900
C541	C54	0.616600	0.157600	0.289300
H721	H72	0.636400	0.098900	0.318900
H731	H73	0.626700	0.144300	0.233600
C551	C55	0.684400	0.245800	0.314800
H741	H74	0.707500	0.283500	0.269200
H751	H75	0.748300	0.223500	0.343000
C561	C56	0.617500	0.270700	0.452900
H761	H76	0.571700	0.310600	0.485900
H771	H77	0.690600	0.273500	0.472000
H781	H78	0.592500	0.203400	0.453700
C571	C57	0.405200	0.325500	0.384800
H791	H79	0.408700	0.394800	0.397100
H801	H80	0.411000	0.287500	0.432400
H811	H81	0.337300	0.311100	0.359600
C581	C58	0.488600	0.361800	0.255400
H821	H82	0.546300	0.345400	0.219800
H831	H83	0.493300	0.430600	0.269400
H841	H84	0.420200	0.349200	0.230500
C591	C59	0.648100	0.418400	0.369300
C601	C60	0.419400	0.162000	0.241100
In41	In4	0.786030	0.395140	0.869020
O251	O25	0.770700	0.215000	0.895880
O261	O26	0.805500	0.329300	0.984280
O271	O27	0.136200	0.015400	0.070300
O281	O28	0.114900	0.127500	0.162630
O291	O29	0.878200	0.526100	0.926310
O301	O30	0.795800	0.546400	0.812720
O311	O31	0.180800	0.838900	0.755580
O321	O32	0.046700	0.858800	0.672830
C611	C61	0.812600	0.159000	0.027900
C621	C62	0.926800	0.110700	0.013900
C631	C63	0.954300	0.066000	0.095500
H851	H85	0.931800	0.996400	0.095400
C641	C64	0.884700	0.121900	0.157600
H861	H86	0.834200	0.077100	0.183000
H871	H87	0.930500	0.151700	0.197600
C651	C65	0.824900	0.200700	0.111500
H881	H88	0.865900	0.262000	0.110700
H891	H89	0.754400	0.213500	0.134700
C661	C66	0.721500	0.083400	0.026200
H901	H90	0.653800	0.116000	0.036400
H911	H91	0.734100	0.034000	0.065800
H921	H92	0.719000	0.052500	0.975300
C671	C67	0.010700	0.189300	0.988600
H931	H93	0.991200	0.215500	0.938000
H941	H94	0.081200	0.159500	0.985600
H951	H95	0.011900	0.242100	0.026600
C681	C68	0.926500	0.032700	0.950500
H961	H96	0.910600	0.063000	0.900600
H971	H97	0.872400	0.983800	0.962200
H981	H98	0.996400	0.001600	0.948100
C691	C69	0.792800	0.238700	0.965000
C701	C70	0.076600	0.069700	0.111000
C711	C71	0.886500	0.689800	0.868500
C721	C72	0.001800	0.701600	0.829600
C731	C73	0.001100	0.813100	0.806300
H991	H99	0.023800	0.850400	0.852900
C741	C74	0.883400	0.842400	0.789300
H1001	H100	0.863600	0.901100	0.818900
H1011	H101	0.873300	0.855700	0.733600
C751	C75	0.815600	0.754200	0.814800
H1021	H102	0.792500	0.716500	0.769200
H1031	H103	0.751700	0.776500	0.843000
C761	C76	0.882500	0.729300	0.952900
H1041	H104	0.928300	0.689400	0.985900
H1051	H105	0.809400	0.726500	0.972000
H1061	H106	0.907500	0.796600	0.953700
C771	C77	0.094800	0.674500	0.884800
H1071	H107	0.091300	0.605200	0.897100
H1081	H108	0.089000	0.712500	0.932400
H1091	H109	0.162700	0.688900	0.859600
C781	C78	0.011400	0.638200	0.755400
H1101	H110	0.953700	0.654600	0.719800
H1111	H111	0.006700	0.569400	0.769400
H1121	H112	0.079800	0.650800	0.730500
C791	C79	0.851900	0.581600	0.869300
C801	C80	0.080600	0.838000	0.741100
