data_NOFQAB_clean_PM
_symmetry_space_group_name_H-M	'P1'
_cell_length_a	38.765700
_cell_length_b	38.765700
_cell_length_c	56.454100
_cell_angle_alpha	90.000000
_cell_angle_beta	90.000000
_cell_angle_gamma	90.000000
_symmetry_Int_Tables_number 1

loop_
_symmetry_equiv_pos_as_xyz
'x,y,z'

loop_
_atom_site_label
_atom_site_type_symbol
_atom_site_fract_x
_atom_site_fract_y
_atom_site_fract_z
Zn11	Zn1	0.316800	0.424300	0.337900
Zn21	Zn2	0.177000	0.424200	0.372600
Zn31	Zn3	0.219800	0.326200	0.297700
Zn41	Zn4	0.073500	0.423500	0.448100
Cl11	Cl1	0.225000	0.438700	0.221400
Cl21	Cl2	0.247400	0.347700	0.447500
Cl31	Cl3	0.102800	0.422100	0.271900
Cl41	Cl4	0.169700	0.227200	0.375200
Cl51	Cl5	0.045200	0.341400	0.354500
Cl61	Cl6	0.068900	0.461800	0.300600
Cl71	Cl7	0.136200	0.277800	0.452600
Cl81	Cl8	0.412800	0.467300	0.418100
Cl91	Cl9	0.031400	0.447000	0.351700
Cl101	Cl10	0.232300	0.408900	0.478200
N11	N1	0.328900	0.472900	0.329700
N21	N2	0.293100	0.401300	0.310800
N31	N3	0.258600	0.361300	0.295300
N41	N4	0.283600	0.425100	0.363800
N51	N5	0.229200	0.427000	0.376600
N61	N6	0.192100	0.323300	0.267600
N71	N7	0.241600	0.282200	0.304900
N81	N8	0.171100	0.387800	0.347100
N91	N9	0.189400	0.344900	0.322300
N101	N10	0.162100	0.468600	0.363500
N111	N11	0.103100	0.405000	0.425900
N121	N12	0.151200	0.407100	0.398700
N131	N13	0.359300	0.397000	0.345400
N141	N14	0.065000	0.470700	0.435200
N151	N15	0.030000	0.402000	0.448800
N161	N16	0.093500	0.425700	0.479800
C11	C1	0.357000	0.479100	0.314700
C21	C2	0.383300	0.463700	0.300700
C31	C3	0.399800	0.485500	0.284400
C41	C4	0.278600	0.370400	0.314000
C51	C5	0.282700	0.410700	0.291800
C61	C6	0.291700	0.440800	0.280000
C71	C7	0.278500	0.447600	0.257600
C81	C8	0.256300	0.424100	0.246900
C91	C9	0.247300	0.393900	0.258700
C101	C10	0.260500	0.387200	0.281100
C111	C11	0.250100	0.437900	0.358900
C121	C12	0.243600	0.409700	0.394700
C131	C13	0.239700	0.393800	0.416600
C141	C14	0.267700	0.377800	0.427300
C151	C15	0.299700	0.377900	0.416200
C161	C16	0.303700	0.393800	0.394400
C171	C17	0.275600	0.409700	0.383600
C181	C18	0.163500	0.344800	0.260300
C191	C19	0.149600	0.373000	0.273100
C201	C20	0.125200	0.387500	0.259100
C211	C21	0.232100	0.258900	0.322300
C221	C22	0.204100	0.258900	0.341400
C231	C23	0.205000	0.228500	0.355000
C241	C24	0.198600	0.372300	0.335000
C251	C25	0.155700	0.341500	0.327600
C261	C26	0.133000	0.316700	0.319100
C271	C27	0.098900	0.316300	0.326700
C281	C28	0.087500	0.340900	0.342900
C291	C29	0.110200	0.365700	0.351400
C301	C30	0.144300	0.366000	0.343800
C311	C31	0.138000	0.480300	0.345100
C321	C32	0.118300	0.459800	0.333500
C331	C33	0.101800	0.481600	0.319900
C341	C34	0.124200	0.423800	0.410800
C351	C35	0.146400	0.374600	0.405200
C361	C36	0.162900	0.343400	0.401100
C371	C37	0.154200	0.314400	0.414300
C381	C38	0.128900	0.316600	0.431600
C391	C39	0.112300	0.347900	0.435800
C401	C40	0.121000	0.376800	0.422600
C411	C41	0.381800	0.409100	0.362000
C421	C42	0.383700	0.439000	0.380300
C431	C43	0.411300	0.436100	0.394200
C441	C44	0.059300	0.484800	0.413000
C451	C45	0.050500	0.463500	0.394000
C461	C46	0.043400	0.480400	0.373300
C471	C47	0.128000	0.423400	0.487900
C481	C48	0.158100	0.409700	0.475400
C491	C49	0.185600	0.403500	0.487600
C501	C50	0.017300	0.378300	0.468400
C511	C51	0.031300	0.354800	0.484600
C521	C52	0.018400	0.321300	0.487100
Zn51	Zn5	0.816800	0.924300	0.837900
Zn61	Zn6	0.677000	0.924200	0.872600
Zn71	Zn7	0.719800	0.826200	0.797700
Zn81	Zn8	0.573500	0.923500	0.948100
Cl111	Cl11	0.725000	0.938700	0.721400
Cl121	Cl12	0.747400	0.847700	0.947500
Cl131	Cl13	0.602800	0.922100	0.771900
Cl141	Cl14	0.669700	0.727200	0.875200
Cl151	Cl15	0.545200	0.841400	0.854500
Cl161	Cl16	0.568900	0.961800	0.800600
Cl171	Cl17	0.636200	0.777800	0.952600
Cl181	Cl18	0.912800	0.967300	0.918100
Cl191	Cl19	0.531400	0.947000	0.851700
Cl201	Cl20	0.732300	0.908900	0.978200
N171	N17	0.828900	0.972900	0.829700
N181	N18	0.793100	0.901300	0.810800
N191	N19	0.758600	0.861300	0.795300
N201	N20	0.783600	0.925100	0.863800
N211	N21	0.729200	0.927000	0.876600
N221	N22	0.692100	0.823300	0.767600
N231	N23	0.741600	0.782200	0.804900
N241	N24	0.671100	0.887800	0.847100
N251	N25	0.689400	0.844900	0.822300
N261	N26	0.662100	0.968600	0.863500
N271	N27	0.603100	0.905000	0.925900
N281	N28	0.651200	0.907100	0.898700
N291	N29	0.859300	0.897000	0.845400
N301	N30	0.565000	0.970700	0.935200
N311	N31	0.530000	0.902000	0.948800
N321	N32	0.593500	0.925700	0.979800
C531	C53	0.857000	0.979100	0.814700
C541	C54	0.883300	0.963700	0.800700
C551	C55	0.899800	0.985500	0.784400
C561	C56	0.778600	0.870400	0.814000
C571	C57	0.782700	0.910700	0.791800
C581	C58	0.791700	0.940800	0.780000
C591	C59	0.778500	0.947600	0.757600
C601	C60	0.756300	0.924100	0.746900
C611	C61	0.747300	0.893900	0.758700
C621	C62	0.760500	0.887200	0.781100
C631	C63	0.750100	0.937900	0.858900
C641	C64	0.743600	0.909700	0.894700
C651	C65	0.739700	0.893800	0.916600
C661	C66	0.767700	0.877800	0.927300
C671	C67	0.799700	0.877900	0.916200
C681	C68	0.803700	0.893800	0.894400
C691	C69	0.775600	0.909700	0.883600
C701	C70	0.663500	0.844800	0.760300
C711	C71	0.649600	0.873000	0.773100
C721	C72	0.625200	0.887500	0.759100
C731	C73	0.732100	0.758900	0.822300
C741	C74	0.704100	0.758900	0.841400
C751	C75	0.705000	0.728500	0.855000
C761	C76	0.698600	0.872300	0.835000
C771	C77	0.655700	0.841500	0.827600
C781	C78	0.633000	0.816700	0.819100
C791	C79	0.598900	0.816300	0.826700
C801	C80	0.587500	0.840900	0.842900
C811	C81	0.610200	0.865700	0.851400
C821	C82	0.644300	0.866000	0.843800
C831	C83	0.638000	0.980300	0.845100
C841	C84	0.618300	0.959800	0.833500
C851	C85	0.601800	0.981600	0.819900
C861	C86	0.624200	0.923800	0.910800
C871	C87	0.646400	0.874600	0.905200
C881	C88	0.662900	0.843400	0.901100
C891	C89	0.654200	0.814400	0.914300
C901	C90	0.628900	0.816600	0.931600
C911	C91	0.612300	0.847900	0.935800
C921	C92	0.621000	0.876800	0.922600
C931	C93	0.881800	0.909100	0.862000
C941	C94	0.883700	0.939000	0.880300
C951	C95	0.911300	0.936100	0.894200
C961	C96	0.559300	0.984800	0.913000
C971	C97	0.550500	0.963500	0.894000
C981	C98	0.543400	0.980400	0.873300
C991	C99	0.628000	0.923400	0.987900
C1001	C100	0.658100	0.909700	0.975400
C1011	C101	0.685600	0.903500	0.987600
C1021	C102	0.517300	0.878300	0.968400
C1031	C103	0.531300	0.854800	0.984600
C1041	C104	0.518400	0.821300	0.987100
Zn91	Zn9	0.683200	0.575700	0.337900
Zn101	Zn10	0.823000	0.575800	0.372600
Zn111	Zn11	0.780200	0.673800	0.297700
Zn121	Zn12	0.926500	0.576500	0.448100
Cl211	Cl21	0.775000	0.561300	0.221400
Cl221	Cl22	0.752600	0.652300	0.447500
Cl231	Cl23	0.897200	0.577900	0.271900
Cl241	Cl24	0.830300	0.772800	0.375200
Cl251	Cl25	0.954800	0.658600	0.354500
Cl261	Cl26	0.931100	0.538200	0.300600
Cl271	Cl27	0.863800	0.722200	0.452600
Cl281	Cl28	0.587200	0.532700	0.418100
Cl291	Cl29	0.968600	0.553000	0.351700
Cl301	Cl30	0.767700	0.591100	0.478200
N331	N33	0.671100	0.527100	0.329700
N341	N34	0.706900	0.598700	0.310800
N351	N35	0.741400	0.638700	0.295300
N361	N36	0.716400	0.574900	0.363800
N371	N37	0.770800	0.573000	0.376600
N381	N38	0.807900	0.676700	0.267600
N391	N39	0.758400	0.717800	0.304900
N401	N40	0.828900	0.612200	0.347100
N411	N41	0.810600	0.655100	0.322300
N421	N42	0.837900	0.531400	0.363500
N431	N43	0.896900	0.595000	0.425900
N441	N44	0.848800	0.592900	0.398700
N451	N45	0.640700	0.603000	0.345400
N461	N46	0.935000	0.529300	0.435200
N471	N47	0.970000	0.598000	0.448800
N481	N48	0.906500	0.574300	0.479800
C1051	C105	0.643000	0.520900	0.314700
C1061	C106	0.616700	0.536300	0.300700
C1071	C107	0.600200	0.514500	0.284400
C1081	C108	0.721400	0.629600	0.314000
C1091	C109	0.717300	0.589300	0.291800
C1101	C110	0.708300	0.559200	0.280000
C1111	C111	0.721500	0.552400	0.257600
C1121	C112	0.743700	0.575900	0.246900
C1131	C113	0.752700	0.606100	0.258700
C1141	C114	0.739500	0.612800	0.281100
C1151	C115	0.749900	0.562100	0.358900
C1161	C116	0.756400	0.590300	0.394700
C1171	C117	0.760300	0.606200	0.416600
C1181	C118	0.732300	0.622200	0.427300
C1191	C119	0.700300	0.622100	0.416200
C1201	C120	0.696300	0.606200	0.394400
C1211	C121	0.724400	0.590300	0.383600
C1221	C122	0.836500	0.655200	0.260300
C1231	C123	0.850400	0.627000	0.273100
C1241	C124	0.874800	0.612500	0.259100
C1251	C125	0.767900	0.741100	0.322300
C1261	C126	0.795900	0.741100	0.341400
C1271	C127	0.795000	0.771500	0.355000
C1281	C128	0.801400	0.627700	0.335000
C1291	C129	0.844300	0.658500	0.327600
C1301	C130	0.867000	0.683300	0.319100
C1311	C131	0.901100	0.683700	0.326700
C1321	C132	0.912500	0.659100	0.342900
C1331	C133	0.889800	0.634300	0.351400
C1341	C134	0.855700	0.634000	0.343800
C1351	C135	0.862000	0.519700	0.345100
C1361	C136	0.881700	0.540200	0.333500
C1371	C137	0.898200	0.518400	0.319900
C1381	C138	0.875800	0.576200	0.410800
C1391	C139	0.853600	0.625400	0.405200
C1401	C140	0.837100	0.656600	0.401100
C1411	C141	0.845800	0.685600	0.414300
C1421	C142	0.871100	0.683400	0.431600
C1431	C143	0.887700	0.652100	0.435800
C1441	C144	0.879000	0.623200	0.422600
C1451	C145	0.618200	0.590900	0.362000
C1461	C146	0.616300	0.561000	0.380300
C1471	C147	0.588700	0.563900	0.394200
C1481	C148	0.940700	0.515200	0.413000
C1491	C149	0.949500	0.536500	0.394000
C1501	C150	0.956600	0.519600	0.373300
C1511	C151	0.872000	0.576600	0.487900
C1521	C152	0.841900	0.590300	0.475400
C1531	C153	0.814400	0.596500	0.487600
C1541	C154	0.982700	0.621700	0.468400
C1551	C155	0.968700	0.645200	0.484600
C1561	C156	0.981600	0.678700	0.487100
Zn131	Zn13	0.183200	0.075700	0.837900
Zn141	Zn14	0.323000	0.075800	0.872600
Zn151	Zn15	0.280200	0.173800	0.797700
Zn161	Zn16	0.426500	0.076500	0.948100
Cl311	Cl31	0.275000	0.061300	0.721400
Cl321	Cl32	0.252600	0.152300	0.947500
Cl331	Cl33	0.397200	0.077900	0.771900
Cl341	Cl34	0.330300	0.272800	0.875200
Cl351	Cl35	0.454800	0.158600	0.854500
Cl361	Cl36	0.431100	0.038200	0.800600
Cl371	Cl37	0.363800	0.222200	0.952600
Cl381	Cl38	0.087200	0.032700	0.918100
Cl391	Cl39	0.468600	0.053000	0.851700
Cl401	Cl40	0.267700	0.091100	0.978200
N491	N49	0.171100	0.027100	0.829700
N501	N50	0.206900	0.098700	0.810800
N511	N51	0.241400	0.138700	0.795300
N521	N52	0.216400	0.074900	0.863800
N531	N53	0.270800	0.073000	0.876600
N541	N54	0.307900	0.176700	0.767600
N551	N55	0.258400	0.217800	0.804900
N561	N56	0.328900	0.112200	0.847100
N571	N57	0.310600	0.155100	0.822300
N581	N58	0.337900	0.031400	0.863500
N591	N59	0.396900	0.095000	0.925900
N601	N60	0.348800	0.092900	0.898700
N611	N61	0.140700	0.103000	0.845400
N621	N62	0.435000	0.029300	0.935200
N631	N63	0.470000	0.098000	0.948800
N641	N64	0.406500	0.074300	0.979800
C1571	C157	0.143000	0.020900	0.814700
C1581	C158	0.116700	0.036300	0.800700
C1591	C159	0.100200	0.014500	0.784400
C1601	C160	0.221400	0.129600	0.814000
C1611	C161	0.217300	0.089300	0.791800
C1621	C162	0.208300	0.059200	0.780000
C1631	C163	0.221500	0.052400	0.757600
C1641	C164	0.243700	0.075900	0.746900
C1651	C165	0.252700	0.106100	0.758700
C1661	C166	0.239500	0.112800	0.781100
C1671	C167	0.249900	0.062100	0.858900
C1681	C168	0.256400	0.090300	0.894700
C1691	C169	0.260300	0.106200	0.916600
C1701	C170	0.232300	0.122200	0.927300
C1711	C171	0.200300	0.122100	0.916200
C1721	C172	0.196300	0.106200	0.894400
C1731	C173	0.224400	0.090300	0.883600
C1741	C174	0.336500	0.155200	0.760300
C1751	C175	0.350400	0.127000	0.773100
C1761	C176	0.374800	0.112500	0.759100
C1771	C177	0.267900	0.241100	0.822300
C1781	C178	0.295900	0.241100	0.841400
C1791	C179	0.295000	0.271500	0.855000
C1801	C180	0.301400	0.127700	0.835000
C1811	C181	0.344300	0.158500	0.827600
C1821	C182	0.367000	0.183300	0.819100
C1831	C183	0.401100	0.183700	0.826700
C1841	C184	0.412500	0.159100	0.842900
C1851	C185	0.389800	0.134300	0.851400
C1861	C186	0.355700	0.134000	0.843800
C1871	C187	0.362000	0.019700	0.845100
C1881	C188	0.381700	0.040200	0.833500
C1891	C189	0.398200	0.018400	0.819900
C1901	C190	0.375800	0.076200	0.910800
C1911	C191	0.353600	0.125400	0.905200
C1921	C192	0.337100	0.156600	0.901100
C1931	C193	0.345800	0.185600	0.914300
C1941	C194	0.371100	0.183400	0.931600
C1951	C195	0.387700	0.152100	0.935800
C1961	C196	0.379000	0.123200	0.922600
C1971	C197	0.118200	0.090900	0.862000
C1981	C198	0.116300	0.061000	0.880300
C1991	C199	0.088700	0.063900	0.894200
C2001	C200	0.440700	0.015200	0.913000
C2011	C201	0.449500	0.036500	0.894000
C2021	C202	0.456600	0.019600	0.873300
C2031	C203	0.372000	0.076600	0.987900
C2041	C204	0.341900	0.090300	0.975400
C2051	C205	0.314400	0.096500	0.987600
C2061	C206	0.482700	0.121700	0.968400
C2071	C207	0.468700	0.145200	0.984600
C2081	C208	0.481600	0.178700	0.987100
Zn171	Zn17	0.575700	0.316800	0.337900
Zn181	Zn18	0.575800	0.177000	0.372600
Zn191	Zn19	0.673800	0.219800	0.297700
Zn201	Zn20	0.576500	0.073500	0.448100
Cl411	Cl41	0.561300	0.225000	0.221400
Cl421	Cl42	0.652300	0.247400	0.447500
Cl431	Cl43	0.577900	0.102800	0.271900
Cl441	Cl44	0.772800	0.169700	0.375200
Cl451	Cl45	0.658600	0.045200	0.354500
Cl461	Cl46	0.538200	0.068900	0.300600
Cl471	Cl47	0.722200	0.136200	0.452600
Cl481	Cl48	0.532700	0.412800	0.418100
Cl491	Cl49	0.553000	0.031400	0.351700
Cl501	Cl50	0.591100	0.232300	0.478200
N651	N65	0.527100	0.328900	0.329700
N661	N66	0.598700	0.293100	0.310800
N671	N67	0.638700	0.258600	0.295300
N681	N68	0.574900	0.283600	0.363800
N691	N69	0.573000	0.229200	0.376600
N701	N70	0.676700	0.192100	0.267600
N711	N71	0.717800	0.241600	0.304900
N721	N72	0.612200	0.171100	0.347100
N731	N73	0.655100	0.189400	0.322300
N741	N74	0.531400	0.162100	0.363500
N751	N75	0.595000	0.103100	0.425900
N761	N76	0.592900	0.151200	0.398700
N771	N77	0.603000	0.359300	0.345400
N781	N78	0.529300	0.065000	0.435200
N791	N79	0.598000	0.030000	0.448800
N801	N80	0.574300	0.093500	0.479800
C2091	C209	0.520900	0.357000	0.314700
C2101	C210	0.536300	0.383300	0.300700
C2111	C211	0.514500	0.399800	0.284400
C2121	C212	0.629600	0.278600	0.314000
C2131	C213	0.589300	0.282700	0.291800
C2141	C214	0.559200	0.291700	0.280000
C2151	C215	0.552400	0.278500	0.257600
C2161	C216	0.575900	0.256300	0.246900
C2171	C217	0.606100	0.247300	0.258700
C2181	C218	0.612800	0.260500	0.281100
C2191	C219	0.562100	0.250100	0.358900
C2201	C220	0.590300	0.243600	0.394700
C2211	C221	0.606200	0.239700	0.416600
C2221	C222	0.622200	0.267700	0.427300
C2231	C223	0.622100	0.299700	0.416200
C2241	C224	0.606200	0.303700	0.394400
C2251	C225	0.590300	0.275600	0.383600
C2261	C226	0.655200	0.163500	0.260300
C2271	C227	0.627000	0.149600	0.273100
C2281	C228	0.612500	0.125200	0.259100
C2291	C229	0.741100	0.232100	0.322300
C2301	C230	0.741100	0.204100	0.341400
C2311	C231	0.771500	0.205000	0.355000
C2321	C232	0.627700	0.198600	0.335000
C2331	C233	0.658500	0.155700	0.327600
C2341	C234	0.683300	0.133000	0.319100
C2351	C235	0.683700	0.098900	0.326700
C2361	C236	0.659100	0.087500	0.342900
C2371	C237	0.634300	0.110200	0.351400
C2381	C238	0.634000	0.144300	0.343800
C2391	C239	0.519700	0.138000	0.345100
C2401	C240	0.540200	0.118300	0.333500
C2411	C241	0.518400	0.101800	0.319900
C2421	C242	0.576200	0.124200	0.410800
C2431	C243	0.625400	0.146400	0.405200
C2441	C244	0.656600	0.162900	0.401100
C2451	C245	0.685600	0.154200	0.414300
C2461	C246	0.683400	0.128900	0.431600
C2471	C247	0.652100	0.112300	0.435800
C2481	C248	0.623200	0.121000	0.422600
C2491	C249	0.590900	0.381800	0.362000
C2501	C250	0.561000	0.383700	0.380300
C2511	C251	0.563900	0.411300	0.394200
C2521	C252	0.515200	0.059300	0.413000
C2531	C253	0.536500	0.050500	0.394000
C2541	C254	0.519600	0.043400	0.373300
C2551	C255	0.576600	0.128000	0.487900
C2561	C256	0.590300	0.158100	0.475400
C2571	C257	0.596500	0.185600	0.487600
C2581	C258	0.621700	0.017300	0.468400
C2591	C259	0.645200	0.031300	0.484600
C2601	C260	0.678700	0.018400	0.487100
Zn211	Zn21	0.075700	0.816800	0.837900
Zn221	Zn22	0.075800	0.677000	0.872600
Zn231	Zn23	0.173800	0.719800	0.797700
Zn241	Zn24	0.076500	0.573500	0.948100
Cl511	Cl51	0.061300	0.725000	0.721400
Cl521	Cl52	0.152300	0.747400	0.947500
Cl531	Cl53	0.077900	0.602800	0.771900
Cl541	Cl54	0.272800	0.669700	0.875200
Cl551	Cl55	0.158600	0.545200	0.854500
Cl561	Cl56	0.038200	0.568900	0.800600
Cl571	Cl57	0.222200	0.636200	0.952600
Cl581	Cl58	0.032700	0.912800	0.918100
Cl591	Cl59	0.053000	0.531400	0.851700
Cl601	Cl60	0.091100	0.732300	0.978200
N811	N81	0.027100	0.828900	0.829700
N821	N82	0.098700	0.793100	0.810800
N831	N83	0.138700	0.758600	0.795300
N841	N84	0.074900	0.783600	0.863800
N851	N85	0.073000	0.729200	0.876600
N861	N86	0.176700	0.692100	0.767600
N871	N87	0.217800	0.741600	0.804900
N881	N88	0.112200	0.671100	0.847100
N891	N89	0.155100	0.689400	0.822300
N901	N90	0.031400	0.662100	0.863500
N911	N91	0.095000	0.603100	0.925900
N921	N92	0.092900	0.651200	0.898700
N931	N93	0.103000	0.859300	0.845400
N941	N94	0.029300	0.565000	0.935200
N951	N95	0.098000	0.530000	0.948800
N961	N96	0.074300	0.593500	0.979800
C2611	C261	0.020900	0.857000	0.814700
C2621	C262	0.036300	0.883300	0.800700
C2631	C263	0.014500	0.899800	0.784400
C2641	C264	0.129600	0.778600	0.814000
C2651	C265	0.089300	0.782700	0.791800
C2661	C266	0.059200	0.791700	0.780000
C2671	C267	0.052400	0.778500	0.757600
C2681	C268	0.075900	0.756300	0.746900
C2691	C269	0.106100	0.747300	0.758700
C2701	C270	0.112800	0.760500	0.781100
C2711	C271	0.062100	0.750100	0.858900
C2721	C272	0.090300	0.743600	0.894700
C2731	C273	0.106200	0.739700	0.916600
C2741	C274	0.122200	0.767700	0.927300
C2751	C275	0.122100	0.799700	0.916200
C2761	C276	0.106200	0.803700	0.894400
C2771	C277	0.090300	0.775600	0.883600
C2781	C278	0.155200	0.663500	0.760300
C2791	C279	0.127000	0.649600	0.773100
C2801	C280	0.112500	0.625200	0.759100
C2811	C281	0.241100	0.732100	0.822300
C2821	C282	0.241100	0.704100	0.841400
C2831	C283	0.271500	0.705000	0.855000
C2841	C284	0.127700	0.698600	0.835000
C2851	C285	0.158500	0.655700	0.827600
C2861	C286	0.183300	0.633000	0.819100
C2871	C287	0.183700	0.598900	0.826700
C2881	C288	0.159100	0.587500	0.842900
C2891	C289	0.134300	0.610200	0.851400
C2901	C290	0.134000	0.644300	0.843800
C2911	C291	0.019700	0.638000	0.845100
C2921	C292	0.040200	0.618300	0.833500
C2931	C293	0.018400	0.601800	0.819900
C2941	C294	0.076200	0.624200	0.910800
C2951	C295	0.125400	0.646400	0.905200
C2961	C296	0.156600	0.662900	0.901100
C2971	C297	0.185600	0.654200	0.914300
C2981	C298	0.183400	0.628900	0.931600
C2991	C299	0.152100	0.612300	0.935800
C3001	C300	0.123200	0.621000	0.922600
C3011	C301	0.090900	0.881800	0.862000
C3021	C302	0.061000	0.883700	0.880300
C3031	C303	0.063900	0.911300	0.894200
C3041	C304	0.015200	0.559300	0.913000
C3051	C305	0.036500	0.550500	0.894000
C3061	C306	0.019600	0.543400	0.873300
C3071	C307	0.076600	0.628000	0.987900
C3081	C308	0.090300	0.658100	0.975400
C3091	C309	0.096500	0.685600	0.987600
C3101	C310	0.121700	0.517300	0.968400
C3111	C311	0.145200	0.531300	0.984600
C3121	C312	0.178700	0.518400	0.987100
Zn251	Zn25	0.424300	0.683200	0.337900
Zn261	Zn26	0.424200	0.823000	0.372600
Zn271	Zn27	0.326200	0.780200	0.297700
Zn281	Zn28	0.423500	0.926500	0.448100
Cl611	Cl61	0.438700	0.775000	0.221400
Cl621	Cl62	0.347700	0.752600	0.447500
Cl631	Cl63	0.422100	0.897200	0.271900
Cl641	Cl64	0.227200	0.830300	0.375200
Cl651	Cl65	0.341400	0.954800	0.354500
Cl661	Cl66	0.461800	0.931100	0.300600
Cl671	Cl67	0.277800	0.863800	0.452600
Cl681	Cl68	0.467300	0.587200	0.418100
Cl691	Cl69	0.447000	0.968600	0.351700
Cl701	Cl70	0.408900	0.767700	0.478200
N971	N97	0.472900	0.671100	0.329700
N981	N98	0.401300	0.706900	0.310800
N991	N99	0.361300	0.741400	0.295300
N1001	N100	0.425100	0.716400	0.363800
N1011	N101	0.427000	0.770800	0.376600
N1021	N102	0.323300	0.807900	0.267600
N1031	N103	0.282200	0.758400	0.304900
N1041	N104	0.387800	0.828900	0.347100
N1051	N105	0.344900	0.810600	0.322300
N1061	N106	0.468600	0.837900	0.363500
N1071	N107	0.405000	0.896900	0.425900
N1081	N108	0.407100	0.848800	0.398700
N1091	N109	0.397000	0.640700	0.345400
N1101	N110	0.470700	0.935000	0.435200
N1111	N111	0.402000	0.970000	0.448800
N1121	N112	0.425700	0.906500	0.479800
C3131	C313	0.479100	0.643000	0.314700
C3141	C314	0.463700	0.616700	0.300700
C3151	C315	0.485500	0.600200	0.284400
C3161	C316	0.370400	0.721400	0.314000
C3171	C317	0.410700	0.717300	0.291800
C3181	C318	0.440800	0.708300	0.280000
C3191	C319	0.447600	0.721500	0.257600
C3201	C320	0.424100	0.743700	0.246900
C3211	C321	0.393900	0.752700	0.258700
C3221	C322	0.387200	0.739500	0.281100
C3231	C323	0.437900	0.749900	0.358900
C3241	C324	0.409700	0.756400	0.394700
C3251	C325	0.393800	0.760300	0.416600
C3261	C326	0.377800	0.732300	0.427300
C3271	C327	0.377900	0.700300	0.416200
C3281	C328	0.393800	0.696300	0.394400
C3291	C329	0.409700	0.724400	0.383600
C3301	C330	0.344800	0.836500	0.260300
C3311	C331	0.373000	0.850400	0.273100
C3321	C332	0.387500	0.874800	0.259100
C3331	C333	0.258900	0.767900	0.322300
C3341	C334	0.258900	0.795900	0.341400
C3351	C335	0.228500	0.795000	0.355000
C3361	C336	0.372300	0.801400	0.335000
C3371	C337	0.341500	0.844300	0.327600
C3381	C338	0.316700	0.867000	0.319100
C3391	C339	0.316300	0.901100	0.326700
C3401	C340	0.340900	0.912500	0.342900
C3411	C341	0.365700	0.889800	0.351400
C3421	C342	0.366000	0.855700	0.343800
C3431	C343	0.480300	0.862000	0.345100
C3441	C344	0.459800	0.881700	0.333500
C3451	C345	0.481600	0.898200	0.319900
C3461	C346	0.423800	0.875800	0.410800
C3471	C347	0.374600	0.853600	0.405200
C3481	C348	0.343400	0.837100	0.401100
C3491	C349	0.314400	0.845800	0.414300
C3501	C350	0.316600	0.871100	0.431600
C3511	C351	0.347900	0.887700	0.435800
C3521	C352	0.376800	0.879000	0.422600
C3531	C353	0.409100	0.618200	0.362000
C3541	C354	0.439000	0.616300	0.380300
C3551	C355	0.436100	0.588700	0.394200
C3561	C356	0.484800	0.940700	0.413000
C3571	C357	0.463500	0.949500	0.394000
C3581	C358	0.480400	0.956600	0.373300
C3591	C359	0.423400	0.872000	0.487900
C3601	C360	0.409700	0.841900	0.475400
C3611	C361	0.403500	0.814400	0.487600
C3621	C362	0.378300	0.982700	0.468400
C3631	C363	0.354800	0.968700	0.484600
C3641	C364	0.321300	0.981600	0.487100
Zn291	Zn29	0.924300	0.183200	0.837900
Zn301	Zn30	0.924200	0.323000	0.872600
Zn311	Zn31	0.826200	0.280200	0.797700
Zn321	Zn32	0.923500	0.426500	0.948100
Cl711	Cl71	0.938700	0.275000	0.721400
Cl721	Cl72	0.847700	0.252600	0.947500
Cl731	Cl73	0.922100	0.397200	0.771900
Cl741	Cl74	0.727200	0.330300	0.875200
Cl751	Cl75	0.841400	0.454800	0.854500
Cl761	Cl76	0.961800	0.431100	0.800600
Cl771	Cl77	0.777800	0.363800	0.952600
Cl781	Cl78	0.967300	0.087200	0.918100
Cl791	Cl79	0.947000	0.468600	0.851700
Cl801	Cl80	0.908900	0.267700	0.978200
N1131	N113	0.972900	0.171100	0.829700
N1141	N114	0.901300	0.206900	0.810800
N1151	N115	0.861300	0.241400	0.795300
N1161	N116	0.925100	0.216400	0.863800
N1171	N117	0.927000	0.270800	0.876600
N1181	N118	0.823300	0.307900	0.767600
N1191	N119	0.782200	0.258400	0.804900
N1201	N120	0.887800	0.328900	0.847100
N1211	N121	0.844900	0.310600	0.822300
N1221	N122	0.968600	0.337900	0.863500
N1231	N123	0.905000	0.396900	0.925900
N1241	N124	0.907100	0.348800	0.898700
N1251	N125	0.897000	0.140700	0.845400
N1261	N126	0.970700	0.435000	0.935200
N1271	N127	0.902000	0.470000	0.948800
N1281	N128	0.925700	0.406500	0.979800
C3651	C365	0.979100	0.143000	0.814700
C3661	C366	0.963700	0.116700	0.800700
C3671	C367	0.985500	0.100200	0.784400
C3681	C368	0.870400	0.221400	0.814000
C3691	C369	0.910700	0.217300	0.791800
C3701	C370	0.940800	0.208300	0.780000
C3711	C371	0.947600	0.221500	0.757600
C3721	C372	0.924100	0.243700	0.746900
C3731	C373	0.893900	0.252700	0.758700
C3741	C374	0.887200	0.239500	0.781100
C3751	C375	0.937900	0.249900	0.858900
C3761	C376	0.909700	0.256400	0.894700
C3771	C377	0.893800	0.260300	0.916600
C3781	C378	0.877800	0.232300	0.927300
C3791	C379	0.877900	0.200300	0.916200
C3801	C380	0.893800	0.196300	0.894400
C3811	C381	0.909700	0.224400	0.883600
C3821	C382	0.844800	0.336500	0.760300
C3831	C383	0.873000	0.350400	0.773100
C3841	C384	0.887500	0.374800	0.759100
C3851	C385	0.758900	0.267900	0.822300
C3861	C386	0.758900	0.295900	0.841400
C3871	C387	0.728500	0.295000	0.855000
C3881	C388	0.872300	0.301400	0.835000
C3891	C389	0.841500	0.344300	0.827600
C3901	C390	0.816700	0.367000	0.819100
C3911	C391	0.816300	0.401100	0.826700
C3921	C392	0.840900	0.412500	0.842900
C3931	C393	0.865700	0.389800	0.851400
C3941	C394	0.866000	0.355700	0.843800
C3951	C395	0.980300	0.362000	0.845100
C3961	C396	0.959800	0.381700	0.833500
C3971	C397	0.981600	0.398200	0.819900
C3981	C398	0.923800	0.375800	0.910800
C3991	C399	0.874600	0.353600	0.905200
C4001	C400	0.843400	0.337100	0.901100
C4011	C401	0.814400	0.345800	0.914300
C4021	C402	0.816600	0.371100	0.931600
C4031	C403	0.847900	0.387700	0.935800
C4041	C404	0.876800	0.379000	0.922600
C4051	C405	0.909100	0.118200	0.862000
C4061	C406	0.939000	0.116300	0.880300
C4071	C407	0.936100	0.088700	0.894200
C4081	C408	0.984800	0.440700	0.913000
C4091	C409	0.963500	0.449500	0.894000
C4101	C410	0.980400	0.456600	0.873300
C4111	C411	0.923400	0.372000	0.987900
C4121	C412	0.909700	0.341900	0.975400
C4131	C413	0.903500	0.314400	0.987600
C4141	C414	0.878300	0.482700	0.968400
C4151	C415	0.854800	0.468700	0.984600
C4161	C416	0.821300	0.481600	0.987100
Zn331	Zn33	0.683200	0.424300	0.662100
Zn341	Zn34	0.823000	0.424200	0.627400
Zn351	Zn35	0.780200	0.326200	0.702300
Zn361	Zn36	0.926500	0.423500	0.551900
Cl811	Cl81	0.775000	0.438700	0.778600
Cl821	Cl82	0.752600	0.347700	0.552500
Cl831	Cl83	0.897200	0.422100	0.728100
Cl841	Cl84	0.830300	0.227200	0.624800
Cl851	Cl85	0.954800	0.341400	0.645500
Cl861	Cl86	0.931100	0.461800	0.699400
Cl871	Cl87	0.863800	0.277800	0.547400
Cl881	Cl88	0.587200	0.467300	0.581900
Cl891	Cl89	0.968600	0.447000	0.648300
Cl901	Cl90	0.767700	0.408900	0.521800
N1291	N129	0.671100	0.472900	0.670300
N1301	N130	0.706900	0.401300	0.689200
N1311	N131	0.741400	0.361300	0.704700
N1321	N132	0.716400	0.425100	0.636200
N1331	N133	0.770800	0.427000	0.623400
N1341	N134	0.807900	0.323300	0.732400
N1351	N135	0.758400	0.282200	0.695100
N1361	N136	0.828900	0.387800	0.652900
N1371	N137	0.810600	0.344900	0.677700
N1381	N138	0.837900	0.468600	0.636500
N1391	N139	0.896900	0.405000	0.574100
N1401	N140	0.848800	0.407100	0.601300
N1411	N141	0.640700	0.397000	0.654600
N1421	N142	0.935000	0.470700	0.564800
N1431	N143	0.970000	0.402000	0.551200
N1441	N144	0.906500	0.425700	0.520200
C4171	C417	0.643000	0.479100	0.685300
C4181	C418	0.616700	0.463700	0.699300
C4191	C419	0.600200	0.485500	0.715600
C4201	C420	0.721400	0.370400	0.686000
C4211	C421	0.717300	0.410700	0.708200
C4221	C422	0.708300	0.440800	0.720000
C4231	C423	0.721500	0.447600	0.742400
C4241	C424	0.743700	0.424100	0.753100
C4251	C425	0.752700	0.393900	0.741300
C4261	C426	0.739500	0.387200	0.718900
C4271	C427	0.749900	0.437900	0.641100
C4281	C428	0.756400	0.409700	0.605300
C4291	C429	0.760300	0.393800	0.583400
C4301	C430	0.732300	0.377800	0.572700
C4311	C431	0.700300	0.377900	0.583800
C4321	C432	0.696300	0.393800	0.605600
C4331	C433	0.724400	0.409700	0.616400
C4341	C434	0.836500	0.344800	0.739700
C4351	C435	0.850400	0.373000	0.726900
C4361	C436	0.874800	0.387500	0.740900
C4371	C437	0.767900	0.258900	0.677700
C4381	C438	0.795900	0.258900	0.658600
C4391	C439	0.795000	0.228500	0.645000
C4401	C440	0.801400	0.372300	0.665000
C4411	C441	0.844300	0.341500	0.672400
C4421	C442	0.867000	0.316700	0.680900
C4431	C443	0.901100	0.316300	0.673300
C4441	C444	0.912500	0.340900	0.657100
C4451	C445	0.889800	0.365700	0.648600
C4461	C446	0.855700	0.366000	0.656200
C4471	C447	0.862000	0.480300	0.654900
C4481	C448	0.881700	0.459800	0.666500
C4491	C449	0.898200	0.481600	0.680100
C4501	C450	0.875800	0.423800	0.589200
C4511	C451	0.853600	0.374600	0.594800
C4521	C452	0.837100	0.343400	0.598900
C4531	C453	0.845800	0.314400	0.585700
C4541	C454	0.871100	0.316600	0.568400
C4551	C455	0.887700	0.347900	0.564200
C4561	C456	0.879000	0.376800	0.577400
C4571	C457	0.618200	0.409100	0.638000
C4581	C458	0.616300	0.439000	0.619700
C4591	C459	0.588700	0.436100	0.605800
C4601	C460	0.940700	0.484800	0.587000
C4611	C461	0.949500	0.463500	0.606000
C4621	C462	0.956600	0.480400	0.626700
C4631	C463	0.872000	0.423400	0.512100
C4641	C464	0.841900	0.409700	0.524600
C4651	C465	0.814400	0.403500	0.512400
C4661	C466	0.982700	0.378300	0.531600
C4671	C467	0.968700	0.354800	0.515400
C4681	C468	0.981600	0.321300	0.512900
Zn371	Zn37	0.183200	0.924300	0.162100
Zn381	Zn38	0.323000	0.924200	0.127400
Zn391	Zn39	0.280200	0.826200	0.202300
Zn401	Zn40	0.426500	0.923500	0.051900
Cl911	Cl91	0.275000	0.938700	0.278600
Cl921	Cl92	0.252600	0.847700	0.052500
Cl931	Cl93	0.397200	0.922100	0.228100
Cl941	Cl94	0.330300	0.727200	0.124800
Cl951	Cl95	0.454800	0.841400	0.145500
Cl961	Cl96	0.431100	0.961800	0.199400
Cl971	Cl97	0.363800	0.777800	0.047400
Cl981	Cl98	0.087200	0.967300	0.081900
Cl991	Cl99	0.468600	0.947000	0.148300
Cl1001	Cl100	0.267700	0.908900	0.021800
N1451	N145	0.171100	0.972900	0.170300
N1461	N146	0.206900	0.901300	0.189200
N1471	N147	0.241400	0.861300	0.204700
N1481	N148	0.216400	0.925100	0.136200
N1491	N149	0.270800	0.927000	0.123400
N1501	N150	0.307900	0.823300	0.232400
N1511	N151	0.258400	0.782200	0.195100
N1521	N152	0.328900	0.887800	0.152900
N1531	N153	0.310600	0.844900	0.177700
N1541	N154	0.337900	0.968600	0.136500
N1551	N155	0.396900	0.905000	0.074100
N1561	N156	0.348800	0.907100	0.101300
N1571	N157	0.140700	0.897000	0.154600
N1581	N158	0.435000	0.970700	0.064800
N1591	N159	0.470000	0.902000	0.051200
N1601	N160	0.406500	0.925700	0.020200
C4691	C469	0.143000	0.979100	0.185300
C4701	C470	0.116700	0.963700	0.199300
C4711	C471	0.100200	0.985500	0.215600
C4721	C472	0.221400	0.870400	0.186000
C4731	C473	0.217300	0.910700	0.208200
C4741	C474	0.208300	0.940800	0.220000
C4751	C475	0.221500	0.947600	0.242400
C4761	C476	0.243700	0.924100	0.253100
C4771	C477	0.252700	0.893900	0.241300
C4781	C478	0.239500	0.887200	0.218900
C4791	C479	0.249900	0.937900	0.141100
C4801	C480	0.256400	0.909700	0.105300
C4811	C481	0.260300	0.893800	0.083400
C4821	C482	0.232300	0.877800	0.072700
C4831	C483	0.200300	0.877900	0.083800
C4841	C484	0.196300	0.893800	0.105600
C4851	C485	0.224400	0.909700	0.116400
C4861	C486	0.336500	0.844800	0.239700
C4871	C487	0.350400	0.873000	0.226900
C4881	C488	0.374800	0.887500	0.240900
C4891	C489	0.267900	0.758900	0.177700
C4901	C490	0.295900	0.758900	0.158600
C4911	C491	0.295000	0.728500	0.145000
C4921	C492	0.301400	0.872300	0.165000
C4931	C493	0.344300	0.841500	0.172400
C4941	C494	0.367000	0.816700	0.180900
C4951	C495	0.401100	0.816300	0.173300
C4961	C496	0.412500	0.840900	0.157100
C4971	C497	0.389800	0.865700	0.148600
C4981	C498	0.355700	0.866000	0.156200
C4991	C499	0.362000	0.980300	0.154900
C5001	C500	0.381700	0.959800	0.166500
C5011	C501	0.398200	0.981600	0.180100
C5021	C502	0.375800	0.923800	0.089200
C5031	C503	0.353600	0.874600	0.094800
C5041	C504	0.337100	0.843400	0.098900
C5051	C505	0.345800	0.814400	0.085700
C5061	C506	0.371100	0.816600	0.068400
C5071	C507	0.387700	0.847900	0.064200
C5081	C508	0.379000	0.876800	0.077400
C5091	C509	0.118200	0.909100	0.138000
C5101	C510	0.116300	0.939000	0.119700
C5111	C511	0.088700	0.936100	0.105800
C5121	C512	0.440700	0.984800	0.087000
C5131	C513	0.449500	0.963500	0.106000
C5141	C514	0.456600	0.980400	0.126700
C5151	C515	0.372000	0.923400	0.012100
C5161	C516	0.341900	0.909700	0.024600
C5171	C517	0.314400	0.903500	0.012400
C5181	C518	0.482700	0.878300	0.031600
C5191	C519	0.468700	0.854800	0.015400
C5201	C520	0.481600	0.821300	0.012900
Zn411	Zn41	0.316800	0.575700	0.662100
Zn421	Zn42	0.177000	0.575800	0.627400
Zn431	Zn43	0.219800	0.673800	0.702300
Zn441	Zn44	0.073500	0.576500	0.551900
Cl1011	Cl101	0.225000	0.561300	0.778600
Cl1021	Cl102	0.247400	0.652300	0.552500
Cl1031	Cl103	0.102800	0.577900	0.728100
Cl1041	Cl104	0.169700	0.772800	0.624800
Cl1051	Cl105	0.045200	0.658600	0.645500
Cl1061	Cl106	0.068900	0.538200	0.699400
Cl1071	Cl107	0.136200	0.722200	0.547400
Cl1081	Cl108	0.412800	0.532700	0.581900
Cl1091	Cl109	0.031400	0.553000	0.648300
Cl1101	Cl110	0.232300	0.591100	0.521800
N1611	N161	0.328900	0.527100	0.670300
N1621	N162	0.293100	0.598700	0.689200
N1631	N163	0.258600	0.638700	0.704700
N1641	N164	0.283600	0.574900	0.636200
N1651	N165	0.229200	0.573000	0.623400
N1661	N166	0.192100	0.676700	0.732400
N1671	N167	0.241600	0.717800	0.695100
N1681	N168	0.171100	0.612200	0.652900
N1691	N169	0.189400	0.655100	0.677700
N1701	N170	0.162100	0.531400	0.636500
N1711	N171	0.103100	0.595000	0.574100
N1721	N172	0.151200	0.592900	0.601300
N1731	N173	0.359300	0.603000	0.654600
N1741	N174	0.065000	0.529300	0.564800
N1751	N175	0.030000	0.598000	0.551200
N1761	N176	0.093500	0.574300	0.520200
C5211	C521	0.357000	0.520900	0.685300
C5221	C522	0.383300	0.536300	0.699300
C5231	C523	0.399800	0.514500	0.715600
C5241	C524	0.278600	0.629600	0.686000
C5251	C525	0.282700	0.589300	0.708200
C5261	C526	0.291700	0.559200	0.720000
C5271	C527	0.278500	0.552400	0.742400
C5281	C528	0.256300	0.575900	0.753100
C5291	C529	0.247300	0.606100	0.741300
C5301	C530	0.260500	0.612800	0.718900
C5311	C531	0.250100	0.562100	0.641100
C5321	C532	0.243600	0.590300	0.605300
C5331	C533	0.239700	0.606200	0.583400
C5341	C534	0.267700	0.622200	0.572700
C5351	C535	0.299700	0.622100	0.583800
C5361	C536	0.303700	0.606200	0.605600
C5371	C537	0.275600	0.590300	0.616400
C5381	C538	0.163500	0.655200	0.739700
C5391	C539	0.149600	0.627000	0.726900
C5401	C540	0.125200	0.612500	0.740900
C5411	C541	0.232100	0.741100	0.677700
C5421	C542	0.204100	0.741100	0.658600
C5431	C543	0.205000	0.771500	0.645000
C5441	C544	0.198600	0.627700	0.665000
C5451	C545	0.155700	0.658500	0.672400
C5461	C546	0.133000	0.683300	0.680900
C5471	C547	0.098900	0.683700	0.673300
C5481	C548	0.087500	0.659100	0.657100
C5491	C549	0.110200	0.634300	0.648600
C5501	C550	0.144300	0.634000	0.656200
C5511	C551	0.138000	0.519700	0.654900
C5521	C552	0.118300	0.540200	0.666500
C5531	C553	0.101800	0.518400	0.680100
C5541	C554	0.124200	0.576200	0.589200
C5551	C555	0.146400	0.625400	0.594800
C5561	C556	0.162900	0.656600	0.598900
C5571	C557	0.154200	0.685600	0.585700
C5581	C558	0.128900	0.683400	0.568400
C5591	C559	0.112300	0.652100	0.564200
C5601	C560	0.121000	0.623200	0.577400
C5611	C561	0.381800	0.590900	0.638000
C5621	C562	0.383700	0.561000	0.619700
C5631	C563	0.411300	0.563900	0.605800
C5641	C564	0.059300	0.515200	0.587000
C5651	C565	0.050500	0.536500	0.606000
C5661	C566	0.043400	0.519600	0.626700
C5671	C567	0.128000	0.576600	0.512100
C5681	C568	0.158100	0.590300	0.524600
C5691	C569	0.185600	0.596500	0.512400
C5701	C570	0.017300	0.621700	0.531600
C5711	C571	0.031300	0.645200	0.515400
C5721	C572	0.018400	0.678700	0.512900
Zn451	Zn45	0.816800	0.075700	0.162100
Zn461	Zn46	0.677000	0.075800	0.127400
Zn471	Zn47	0.719800	0.173800	0.202300
Zn481	Zn48	0.573500	0.076500	0.051900
Cl1111	Cl111	0.725000	0.061300	0.278600
Cl1121	Cl112	0.747400	0.152300	0.052500
Cl1131	Cl113	0.602800	0.077900	0.228100
Cl1141	Cl114	0.669700	0.272800	0.124800
Cl1151	Cl115	0.545200	0.158600	0.145500
Cl1161	Cl116	0.568900	0.038200	0.199400
Cl1171	Cl117	0.636200	0.222200	0.047400
Cl1181	Cl118	0.912800	0.032700	0.081900
Cl1191	Cl119	0.531400	0.053000	0.148300
Cl1201	Cl120	0.732300	0.091100	0.021800
N1771	N177	0.828900	0.027100	0.170300
N1781	N178	0.793100	0.098700	0.189200
N1791	N179	0.758600	0.138700	0.204700
N1801	N180	0.783600	0.074900	0.136200
N1811	N181	0.729200	0.073000	0.123400
N1821	N182	0.692100	0.176700	0.232400
N1831	N183	0.741600	0.217800	0.195100
N1841	N184	0.671100	0.112200	0.152900
N1851	N185	0.689400	0.155100	0.177700
N1861	N186	0.662100	0.031400	0.136500
N1871	N187	0.603100	0.095000	0.074100
N1881	N188	0.651200	0.092900	0.101300
N1891	N189	0.859300	0.103000	0.154600
N1901	N190	0.565000	0.029300	0.064800
N1911	N191	0.530000	0.098000	0.051200
N1921	N192	0.593500	0.074300	0.020200
C5731	C573	0.857000	0.020900	0.185300
C5741	C574	0.883300	0.036300	0.199300
C5751	C575	0.899800	0.014500	0.215600
C5761	C576	0.778600	0.129600	0.186000
C5771	C577	0.782700	0.089300	0.208200
C5781	C578	0.791700	0.059200	0.220000
C5791	C579	0.778500	0.052400	0.242400
C5801	C580	0.756300	0.075900	0.253100
C5811	C581	0.747300	0.106100	0.241300
C5821	C582	0.760500	0.112800	0.218900
C5831	C583	0.750100	0.062100	0.141100
C5841	C584	0.743600	0.090300	0.105300
C5851	C585	0.739700	0.106200	0.083400
C5861	C586	0.767700	0.122200	0.072700
C5871	C587	0.799700	0.122100	0.083800
C5881	C588	0.803700	0.106200	0.105600
C5891	C589	0.775600	0.090300	0.116400
C5901	C590	0.663500	0.155200	0.239700
C5911	C591	0.649600	0.127000	0.226900
C5921	C592	0.625200	0.112500	0.240900
C5931	C593	0.732100	0.241100	0.177700
C5941	C594	0.704100	0.241100	0.158600
C5951	C595	0.705000	0.271500	0.145000
C5961	C596	0.698600	0.127700	0.165000
C5971	C597	0.655700	0.158500	0.172400
C5981	C598	0.633000	0.183300	0.180900
C5991	C599	0.598900	0.183700	0.173300
C6001	C600	0.587500	0.159100	0.157100
C6011	C601	0.610200	0.134300	0.148600
C6021	C602	0.644300	0.134000	0.156200
C6031	C603	0.638000	0.019700	0.154900
C6041	C604	0.618300	0.040200	0.166500
C6051	C605	0.601800	0.018400	0.180100
C6061	C606	0.624200	0.076200	0.089200
C6071	C607	0.646400	0.125400	0.094800
C6081	C608	0.662900	0.156600	0.098900
C6091	C609	0.654200	0.185600	0.085700
C6101	C610	0.628900	0.183400	0.068400
C6111	C611	0.612300	0.152100	0.064200
C6121	C612	0.621000	0.123200	0.077400
C6131	C613	0.881800	0.090900	0.138000
C6141	C614	0.883700	0.061000	0.119700
C6151	C615	0.911300	0.063900	0.105800
C6161	C616	0.559300	0.015200	0.087000
C6171	C617	0.550500	0.036500	0.106000
C6181	C618	0.543400	0.019600	0.126700
C6191	C619	0.628000	0.076600	0.012100
C6201	C620	0.658100	0.090300	0.024600
C6211	C621	0.685600	0.096500	0.012400
C6221	C622	0.517300	0.121700	0.031600
C6231	C623	0.531300	0.145200	0.015400
C6241	C624	0.518400	0.178700	0.012900
Zn491	Zn49	0.424300	0.316800	0.662100
Zn501	Zn50	0.424200	0.177000	0.627400
Zn511	Zn51	0.326200	0.219800	0.702300
Zn521	Zn52	0.423500	0.073500	0.551900
Cl1211	Cl121	0.438700	0.225000	0.778600
Cl1221	Cl122	0.347700	0.247400	0.552500
Cl1231	Cl123	0.422100	0.102800	0.728100
Cl1241	Cl124	0.227200	0.169700	0.624800
Cl1251	Cl125	0.341400	0.045200	0.645500
Cl1261	Cl126	0.461800	0.068900	0.699400
Cl1271	Cl127	0.277800	0.136200	0.547400
Cl1281	Cl128	0.467300	0.412800	0.581900
Cl1291	Cl129	0.447000	0.031400	0.648300
Cl1301	Cl130	0.408900	0.232300	0.521800
N1931	N193	0.472900	0.328900	0.670300
N1941	N194	0.401300	0.293100	0.689200
N1951	N195	0.361300	0.258600	0.704700
N1961	N196	0.425100	0.283600	0.636200
N1971	N197	0.427000	0.229200	0.623400
N1981	N198	0.323300	0.192100	0.732400
N1991	N199	0.282200	0.241600	0.695100
N2001	N200	0.387800	0.171100	0.652900
N2011	N201	0.344900	0.189400	0.677700
N2021	N202	0.468600	0.162100	0.636500
N2031	N203	0.405000	0.103100	0.574100
N2041	N204	0.407100	0.151200	0.601300
N2051	N205	0.397000	0.359300	0.654600
N2061	N206	0.470700	0.065000	0.564800
N2071	N207	0.402000	0.030000	0.551200
N2081	N208	0.425700	0.093500	0.520200
C6251	C625	0.479100	0.357000	0.685300
C6261	C626	0.463700	0.383300	0.699300
C6271	C627	0.485500	0.399800	0.715600
C6281	C628	0.370400	0.278600	0.686000
C6291	C629	0.410700	0.282700	0.708200
C6301	C630	0.440800	0.291700	0.720000
C6311	C631	0.447600	0.278500	0.742400
C6321	C632	0.424100	0.256300	0.753100
C6331	C633	0.393900	0.247300	0.741300
C6341	C634	0.387200	0.260500	0.718900
C6351	C635	0.437900	0.250100	0.641100
C6361	C636	0.409700	0.243600	0.605300
C6371	C637	0.393800	0.239700	0.583400
C6381	C638	0.377800	0.267700	0.572700
C6391	C639	0.377900	0.299700	0.583800
C6401	C640	0.393800	0.303700	0.605600
C6411	C641	0.409700	0.275600	0.616400
C6421	C642	0.344800	0.163500	0.739700
C6431	C643	0.373000	0.149600	0.726900
C6441	C644	0.387500	0.125200	0.740900
C6451	C645	0.258900	0.232100	0.677700
C6461	C646	0.258900	0.204100	0.658600
C6471	C647	0.228500	0.205000	0.645000
C6481	C648	0.372300	0.198600	0.665000
C6491	C649	0.341500	0.155700	0.672400
C6501	C650	0.316700	0.133000	0.680900
C6511	C651	0.316300	0.098900	0.673300
C6521	C652	0.340900	0.087500	0.657100
C6531	C653	0.365700	0.110200	0.648600
C6541	C654	0.366000	0.144300	0.656200
C6551	C655	0.480300	0.138000	0.654900
C6561	C656	0.459800	0.118300	0.666500
C6571	C657	0.481600	0.101800	0.680100
C6581	C658	0.423800	0.124200	0.589200
C6591	C659	0.374600	0.146400	0.594800
C6601	C660	0.343400	0.162900	0.598900
C6611	C661	0.314400	0.154200	0.585700
C6621	C662	0.316600	0.128900	0.568400
C6631	C663	0.347900	0.112300	0.564200
C6641	C664	0.376800	0.121000	0.577400
C6651	C665	0.409100	0.381800	0.638000
C6661	C666	0.439000	0.383700	0.619700
C6671	C667	0.436100	0.411300	0.605800
C6681	C668	0.484800	0.059300	0.587000
C6691	C669	0.463500	0.050500	0.606000
C6701	C670	0.480400	0.043400	0.626700
C6711	C671	0.423400	0.128000	0.512100
C6721	C672	0.409700	0.158100	0.524600
C6731	C673	0.403500	0.185600	0.512400
C6741	C674	0.378300	0.017300	0.531600
C6751	C675	0.354800	0.031300	0.515400
C6761	C676	0.321300	0.018400	0.512900
Zn531	Zn53	0.924300	0.816800	0.162100
Zn541	Zn54	0.924200	0.677000	0.127400
Zn551	Zn55	0.826200	0.719800	0.202300
Zn561	Zn56	0.923500	0.573500	0.051900
Cl1311	Cl131	0.938700	0.725000	0.278600
Cl1321	Cl132	0.847700	0.747400	0.052500
Cl1331	Cl133	0.922100	0.602800	0.228100
Cl1341	Cl134	0.727200	0.669700	0.124800
Cl1351	Cl135	0.841400	0.545200	0.145500
Cl1361	Cl136	0.961800	0.568900	0.199400
Cl1371	Cl137	0.777800	0.636200	0.047400
Cl1381	Cl138	0.967300	0.912800	0.081900
Cl1391	Cl139	0.947000	0.531400	0.148300
Cl1401	Cl140	0.908900	0.732300	0.021800
N2091	N209	0.972900	0.828900	0.170300
N2101	N210	0.901300	0.793100	0.189200
N2111	N211	0.861300	0.758600	0.204700
N2121	N212	0.925100	0.783600	0.136200
N2131	N213	0.927000	0.729200	0.123400
N2141	N214	0.823300	0.692100	0.232400
N2151	N215	0.782200	0.741600	0.195100
N2161	N216	0.887800	0.671100	0.152900
N2171	N217	0.844900	0.689400	0.177700
N2181	N218	0.968600	0.662100	0.136500
N2191	N219	0.905000	0.603100	0.074100
N2201	N220	0.907100	0.651200	0.101300
N2211	N221	0.897000	0.859300	0.154600
N2221	N222	0.970700	0.565000	0.064800
N2231	N223	0.902000	0.530000	0.051200
N2241	N224	0.925700	0.593500	0.020200
C6771	C677	0.979100	0.857000	0.185300
C6781	C678	0.963700	0.883300	0.199300
C6791	C679	0.985500	0.899800	0.215600
C6801	C680	0.870400	0.778600	0.186000
C6811	C681	0.910700	0.782700	0.208200
C6821	C682	0.940800	0.791700	0.220000
C6831	C683	0.947600	0.778500	0.242400
C6841	C684	0.924100	0.756300	0.253100
C6851	C685	0.893900	0.747300	0.241300
C6861	C686	0.887200	0.760500	0.218900
C6871	C687	0.937900	0.750100	0.141100
C6881	C688	0.909700	0.743600	0.105300
C6891	C689	0.893800	0.739700	0.083400
C6901	C690	0.877800	0.767700	0.072700
C6911	C691	0.877900	0.799700	0.083800
C6921	C692	0.893800	0.803700	0.105600
C6931	C693	0.909700	0.775600	0.116400
C6941	C694	0.844800	0.663500	0.239700
C6951	C695	0.873000	0.649600	0.226900
C6961	C696	0.887500	0.625200	0.240900
C6971	C697	0.758900	0.732100	0.177700
C6981	C698	0.758900	0.704100	0.158600
C6991	C699	0.728500	0.705000	0.145000
C7001	C700	0.872300	0.698600	0.165000
C7011	C701	0.841500	0.655700	0.172400
C7021	C702	0.816700	0.633000	0.180900
C7031	C703	0.816300	0.598900	0.173300
C7041	C704	0.840900	0.587500	0.157100
C7051	C705	0.865700	0.610200	0.148600
C7061	C706	0.866000	0.644300	0.156200
C7071	C707	0.980300	0.638000	0.154900
C7081	C708	0.959800	0.618300	0.166500
C7091	C709	0.981600	0.601800	0.180100
C7101	C710	0.923800	0.624200	0.089200
C7111	C711	0.874600	0.646400	0.094800
C7121	C712	0.843400	0.662900	0.098900
C7131	C713	0.814400	0.654200	0.085700
C7141	C714	0.816600	0.628900	0.068400
C7151	C715	0.847900	0.612300	0.064200
C7161	C716	0.876800	0.621000	0.077400
C7171	C717	0.909100	0.881800	0.138000
C7181	C718	0.939000	0.883700	0.119700
C7191	C719	0.936100	0.911300	0.105800
C7201	C720	0.984800	0.559300	0.087000
C7211	C721	0.963500	0.550500	0.106000
C7221	C722	0.980400	0.543400	0.126700
C7231	C723	0.923400	0.628000	0.012100
C7241	C724	0.909700	0.658100	0.024600
C7251	C725	0.903500	0.685600	0.012400
C7261	C726	0.878300	0.517300	0.031600
C7271	C727	0.854800	0.531300	0.015400
C7281	C728	0.821300	0.518400	0.012900
Zn571	Zn57	0.575700	0.683200	0.662100
Zn581	Zn58	0.575800	0.823000	0.627400
Zn591	Zn59	0.673800	0.780200	0.702300
Zn601	Zn60	0.576500	0.926500	0.551900
Cl1411	Cl141	0.561300	0.775000	0.778600
Cl1421	Cl142	0.652300	0.752600	0.552500
Cl1431	Cl143	0.577900	0.897200	0.728100
Cl1441	Cl144	0.772800	0.830300	0.624800
Cl1451	Cl145	0.658600	0.954800	0.645500
Cl1461	Cl146	0.538200	0.931100	0.699400
Cl1471	Cl147	0.722200	0.863800	0.547400
Cl1481	Cl148	0.532700	0.587200	0.581900
Cl1491	Cl149	0.553000	0.968600	0.648300
Cl1501	Cl150	0.591100	0.767700	0.521800
N2251	N225	0.527100	0.671100	0.670300
N2261	N226	0.598700	0.706900	0.689200
N2271	N227	0.638700	0.741400	0.704700
N2281	N228	0.574900	0.716400	0.636200
N2291	N229	0.573000	0.770800	0.623400
N2301	N230	0.676700	0.807900	0.732400
N2311	N231	0.717800	0.758400	0.695100
N2321	N232	0.612200	0.828900	0.652900
N2331	N233	0.655100	0.810600	0.677700
N2341	N234	0.531400	0.837900	0.636500
N2351	N235	0.595000	0.896900	0.574100
N2361	N236	0.592900	0.848800	0.601300
N2371	N237	0.603000	0.640700	0.654600
N2381	N238	0.529300	0.935000	0.564800
N2391	N239	0.598000	0.970000	0.551200
N2401	N240	0.574300	0.906500	0.520200
C7291	C729	0.520900	0.643000	0.685300
C7301	C730	0.536300	0.616700	0.699300
C7311	C731	0.514500	0.600200	0.715600
C7321	C732	0.629600	0.721400	0.686000
C7331	C733	0.589300	0.717300	0.708200
C7341	C734	0.559200	0.708300	0.720000
C7351	C735	0.552400	0.721500	0.742400
C7361	C736	0.575900	0.743700	0.753100
C7371	C737	0.606100	0.752700	0.741300
C7381	C738	0.612800	0.739500	0.718900
C7391	C739	0.562100	0.749900	0.641100
C7401	C740	0.590300	0.756400	0.605300
C7411	C741	0.606200	0.760300	0.583400
C7421	C742	0.622200	0.732300	0.572700
C7431	C743	0.622100	0.700300	0.583800
C7441	C744	0.606200	0.696300	0.605600
C7451	C745	0.590300	0.724400	0.616400
C7461	C746	0.655200	0.836500	0.739700
C7471	C747	0.627000	0.850400	0.726900
C7481	C748	0.612500	0.874800	0.740900
C7491	C749	0.741100	0.767900	0.677700
C7501	C750	0.741100	0.795900	0.658600
C7511	C751	0.771500	0.795000	0.645000
C7521	C752	0.627700	0.801400	0.665000
C7531	C753	0.658500	0.844300	0.672400
C7541	C754	0.683300	0.867000	0.680900
C7551	C755	0.683700	0.901100	0.673300
C7561	C756	0.659100	0.912500	0.657100
C7571	C757	0.634300	0.889800	0.648600
C7581	C758	0.634000	0.855700	0.656200
C7591	C759	0.519700	0.862000	0.654900
C7601	C760	0.540200	0.881700	0.666500
C7611	C761	0.518400	0.898200	0.680100
C7621	C762	0.576200	0.875800	0.589200
C7631	C763	0.625400	0.853600	0.594800
C7641	C764	0.656600	0.837100	0.598900
C7651	C765	0.685600	0.845800	0.585700
C7661	C766	0.683400	0.871100	0.568400
C7671	C767	0.652100	0.887700	0.564200
C7681	C768	0.623200	0.879000	0.577400
C7691	C769	0.590900	0.618200	0.638000
C7701	C770	0.561000	0.616300	0.619700
C7711	C771	0.563900	0.588700	0.605800
C7721	C772	0.515200	0.940700	0.587000
C7731	C773	0.536500	0.949500	0.606000
C7741	C774	0.519600	0.956600	0.626700
C7751	C775	0.576600	0.872000	0.512100
C7761	C776	0.590300	0.841900	0.524600
C7771	C777	0.596500	0.814400	0.512400
C7781	C778	0.621700	0.982700	0.531600
C7791	C779	0.645200	0.968700	0.515400
C7801	C780	0.678700	0.981600	0.512900
Zn611	Zn61	0.075700	0.183200	0.162100
Zn621	Zn62	0.075800	0.323000	0.127400
Zn631	Zn63	0.173800	0.280200	0.202300
Zn641	Zn64	0.076500	0.426500	0.051900
Cl1511	Cl151	0.061300	0.275000	0.278600
Cl1521	Cl152	0.152300	0.252600	0.052500
Cl1531	Cl153	0.077900	0.397200	0.228100
Cl1541	Cl154	0.272800	0.330300	0.124800
Cl1551	Cl155	0.158600	0.454800	0.145500
Cl1561	Cl156	0.038200	0.431100	0.199400
Cl1571	Cl157	0.222200	0.363800	0.047400
Cl1581	Cl158	0.032700	0.087200	0.081900
Cl1591	Cl159	0.053000	0.468600	0.148300
Cl1601	Cl160	0.091100	0.267700	0.021800
N2411	N241	0.027100	0.171100	0.170300
N2421	N242	0.098700	0.206900	0.189200
N2431	N243	0.138700	0.241400	0.204700
N2441	N244	0.074900	0.216400	0.136200
N2451	N245	0.073000	0.270800	0.123400
N2461	N246	0.176700	0.307900	0.232400
N2471	N247	0.217800	0.258400	0.195100
N2481	N248	0.112200	0.328900	0.152900
N2491	N249	0.155100	0.310600	0.177700
N2501	N250	0.031400	0.337900	0.136500
N2511	N251	0.095000	0.396900	0.074100
N2521	N252	0.092900	0.348800	0.101300
N2531	N253	0.103000	0.140700	0.154600
N2541	N254	0.029300	0.435000	0.064800
N2551	N255	0.098000	0.470000	0.051200
N2561	N256	0.074300	0.406500	0.020200
C7811	C781	0.020900	0.143000	0.185300
C7821	C782	0.036300	0.116700	0.199300
C7831	C783	0.014500	0.100200	0.215600
C7841	C784	0.129600	0.221400	0.186000
C7851	C785	0.089300	0.217300	0.208200
C7861	C786	0.059200	0.208300	0.220000
C7871	C787	0.052400	0.221500	0.242400
C7881	C788	0.075900	0.243700	0.253100
C7891	C789	0.106100	0.252700	0.241300
C7901	C790	0.112800	0.239500	0.218900
C7911	C791	0.062100	0.249900	0.141100
C7921	C792	0.090300	0.256400	0.105300
C7931	C793	0.106200	0.260300	0.083400
C7941	C794	0.122200	0.232300	0.072700
C7951	C795	0.122100	0.200300	0.083800
C7961	C796	0.106200	0.196300	0.105600
C7971	C797	0.090300	0.224400	0.116400
C7981	C798	0.155200	0.336500	0.239700
C7991	C799	0.127000	0.350400	0.226900
C8001	C800	0.112500	0.374800	0.240900
C8011	C801	0.241100	0.267900	0.177700
C8021	C802	0.241100	0.295900	0.158600
C8031	C803	0.271500	0.295000	0.145000
C8041	C804	0.127700	0.301400	0.165000
C8051	C805	0.158500	0.344300	0.172400
C8061	C806	0.183300	0.367000	0.180900
C8071	C807	0.183700	0.401100	0.173300
C8081	C808	0.159100	0.412500	0.157100
C8091	C809	0.134300	0.389800	0.148600
C8101	C810	0.134000	0.355700	0.156200
C8111	C811	0.019700	0.362000	0.154900
C8121	C812	0.040200	0.381700	0.166500
C8131	C813	0.018400	0.398200	0.180100
C8141	C814	0.076200	0.375800	0.089200
C8151	C815	0.125400	0.353600	0.094800
C8161	C816	0.156600	0.337100	0.098900
C8171	C817	0.185600	0.345800	0.085700
C8181	C818	0.183400	0.371100	0.068400
C8191	C819	0.152100	0.387700	0.064200
C8201	C820	0.123200	0.379000	0.077400
C8211	C821	0.090900	0.118200	0.138000
C8221	C822	0.061000	0.116300	0.119700
C8231	C823	0.063900	0.088700	0.105800
C8241	C824	0.015200	0.440700	0.087000
C8251	C825	0.036500	0.449500	0.106000
C8261	C826	0.019600	0.456600	0.126700
C8271	C827	0.076600	0.372000	0.012100
C8281	C828	0.090300	0.341900	0.024600
C8291	C829	0.096500	0.314400	0.012400
C8301	C830	0.121700	0.482700	0.031600
C8311	C831	0.145200	0.468700	0.015400
C8321	C832	0.178700	0.481600	0.012900
Zn651	Zn65	0.683200	0.575700	0.662100
Zn661	Zn66	0.823000	0.575800	0.627400
Zn671	Zn67	0.780200	0.673800	0.702300
Zn681	Zn68	0.926500	0.576500	0.551900
Cl1611	Cl161	0.775000	0.561300	0.778600
Cl1621	Cl162	0.752600	0.652300	0.552500
Cl1631	Cl163	0.897200	0.577900	0.728100
Cl1641	Cl164	0.830300	0.772800	0.624800
Cl1651	Cl165	0.954800	0.658600	0.645500
Cl1661	Cl166	0.931100	0.538200	0.699400
Cl1671	Cl167	0.863800	0.722200	0.547400
Cl1681	Cl168	0.587200	0.532700	0.581900
Cl1691	Cl169	0.968600	0.553000	0.648300
Cl1701	Cl170	0.767700	0.591100	0.521800
N2571	N257	0.671100	0.527100	0.670300
N2581	N258	0.706900	0.598700	0.689200
N2591	N259	0.741400	0.638700	0.704700
N2601	N260	0.716400	0.574900	0.636200
N2611	N261	0.770800	0.573000	0.623400
N2621	N262	0.807900	0.676700	0.732400
N2631	N263	0.758400	0.717800	0.695100
N2641	N264	0.828900	0.612200	0.652900
N2651	N265	0.810600	0.655100	0.677700
N2661	N266	0.837900	0.531400	0.636500
N2671	N267	0.896900	0.595000	0.574100
N2681	N268	0.848800	0.592900	0.601300
N2691	N269	0.640700	0.603000	0.654600
N2701	N270	0.935000	0.529300	0.564800
N2711	N271	0.970000	0.598000	0.551200
N2721	N272	0.906500	0.574300	0.520200
C8331	C833	0.643000	0.520900	0.685300
C8341	C834	0.616700	0.536300	0.699300
C8351	C835	0.600200	0.514500	0.715600
C8361	C836	0.721400	0.629600	0.686000
C8371	C837	0.717300	0.589300	0.708200
C8381	C838	0.708300	0.559200	0.720000
C8391	C839	0.721500	0.552400	0.742400
C8401	C840	0.743700	0.575900	0.753100
C8411	C841	0.752700	0.606100	0.741300
C8421	C842	0.739500	0.612800	0.718900
C8431	C843	0.749900	0.562100	0.641100
C8441	C844	0.756400	0.590300	0.605300
C8451	C845	0.760300	0.606200	0.583400
C8461	C846	0.732300	0.622200	0.572700
C8471	C847	0.700300	0.622100	0.583800
C8481	C848	0.696300	0.606200	0.605600
C8491	C849	0.724400	0.590300	0.616400
C8501	C850	0.836500	0.655200	0.739700
C8511	C851	0.850400	0.627000	0.726900
C8521	C852	0.874800	0.612500	0.740900
C8531	C853	0.767900	0.741100	0.677700
C8541	C854	0.795900	0.741100	0.658600
C8551	C855	0.795000	0.771500	0.645000
C8561	C856	0.801400	0.627700	0.665000
C8571	C857	0.844300	0.658500	0.672400
C8581	C858	0.867000	0.683300	0.680900
C8591	C859	0.901100	0.683700	0.673300
C8601	C860	0.912500	0.659100	0.657100
C8611	C861	0.889800	0.634300	0.648600
C8621	C862	0.855700	0.634000	0.656200
C8631	C863	0.862000	0.519700	0.654900
C8641	C864	0.881700	0.540200	0.666500
C8651	C865	0.898200	0.518400	0.680100
C8661	C866	0.875800	0.576200	0.589200
C8671	C867	0.853600	0.625400	0.594800
C8681	C868	0.837100	0.656600	0.598900
C8691	C869	0.845800	0.685600	0.585700
C8701	C870	0.871100	0.683400	0.568400
C8711	C871	0.887700	0.652100	0.564200
C8721	C872	0.879000	0.623200	0.577400
C8731	C873	0.618200	0.590900	0.638000
C8741	C874	0.616300	0.561000	0.619700
C8751	C875	0.588700	0.563900	0.605800
C8761	C876	0.940700	0.515200	0.587000
C8771	C877	0.949500	0.536500	0.606000
C8781	C878	0.956600	0.519600	0.626700
C8791	C879	0.872000	0.576600	0.512100
C8801	C880	0.841900	0.590300	0.524600
C8811	C881	0.814400	0.596500	0.512400
C8821	C882	0.982700	0.621700	0.531600
C8831	C883	0.968700	0.645200	0.515400
C8841	C884	0.981600	0.678700	0.512900
Zn691	Zn69	0.183200	0.075700	0.162100
Zn701	Zn70	0.323000	0.075800	0.127400
Zn711	Zn71	0.280200	0.173800	0.202300
Zn721	Zn72	0.426500	0.076500	0.051900
Cl1711	Cl171	0.275000	0.061300	0.278600
Cl1721	Cl172	0.252600	0.152300	0.052500
Cl1731	Cl173	0.397200	0.077900	0.228100
Cl1741	Cl174	0.330300	0.272800	0.124800
Cl1751	Cl175	0.454800	0.158600	0.145500
Cl1761	Cl176	0.431100	0.038200	0.199400
Cl1771	Cl177	0.363800	0.222200	0.047400
Cl1781	Cl178	0.087200	0.032700	0.081900
Cl1791	Cl179	0.468600	0.053000	0.148300
Cl1801	Cl180	0.267700	0.091100	0.021800
N2731	N273	0.171100	0.027100	0.170300
N2741	N274	0.206900	0.098700	0.189200
N2751	N275	0.241400	0.138700	0.204700
N2761	N276	0.216400	0.074900	0.136200
N2771	N277	0.270800	0.073000	0.123400
N2781	N278	0.307900	0.176700	0.232400
N2791	N279	0.258400	0.217800	0.195100
N2801	N280	0.328900	0.112200	0.152900
N2811	N281	0.310600	0.155100	0.177700
N2821	N282	0.337900	0.031400	0.136500
N2831	N283	0.396900	0.095000	0.074100
N2841	N284	0.348800	0.092900	0.101300
N2851	N285	0.140700	0.103000	0.154600
N2861	N286	0.435000	0.029300	0.064800
N2871	N287	0.470000	0.098000	0.051200
N2881	N288	0.406500	0.074300	0.020200
C8851	C885	0.143000	0.020900	0.185300
C8861	C886	0.116700	0.036300	0.199300
C8871	C887	0.100200	0.014500	0.215600
C8881	C888	0.221400	0.129600	0.186000
C8891	C889	0.217300	0.089300	0.208200
C8901	C890	0.208300	0.059200	0.220000
C8911	C891	0.221500	0.052400	0.242400
C8921	C892	0.243700	0.075900	0.253100
C8931	C893	0.252700	0.106100	0.241300
C8941	C894	0.239500	0.112800	0.218900
C8951	C895	0.249900	0.062100	0.141100
C8961	C896	0.256400	0.090300	0.105300
C8971	C897	0.260300	0.106200	0.083400
C8981	C898	0.232300	0.122200	0.072700
C8991	C899	0.200300	0.122100	0.083800
C9001	C900	0.196300	0.106200	0.105600
C9011	C901	0.224400	0.090300	0.116400
C9021	C902	0.336500	0.155200	0.239700
C9031	C903	0.350400	0.127000	0.226900
C9041	C904	0.374800	0.112500	0.240900
C9051	C905	0.267900	0.241100	0.177700
C9061	C906	0.295900	0.241100	0.158600
C9071	C907	0.295000	0.271500	0.145000
C9081	C908	0.301400	0.127700	0.165000
C9091	C909	0.344300	0.158500	0.172400
C9101	C910	0.367000	0.183300	0.180900
C9111	C911	0.401100	0.183700	0.173300
C9121	C912	0.412500	0.159100	0.157100
C9131	C913	0.389800	0.134300	0.148600
C9141	C914	0.355700	0.134000	0.156200
C9151	C915	0.362000	0.019700	0.154900
C9161	C916	0.381700	0.040200	0.166500
C9171	C917	0.398200	0.018400	0.180100
C9181	C918	0.375800	0.076200	0.089200
C9191	C919	0.353600	0.125400	0.094800
C9201	C920	0.337100	0.156600	0.098900
C9211	C921	0.345800	0.185600	0.085700
C9221	C922	0.371100	0.183400	0.068400
C9231	C923	0.387700	0.152100	0.064200
C9241	C924	0.379000	0.123200	0.077400
C9251	C925	0.118200	0.090900	0.138000
C9261	C926	0.116300	0.061000	0.119700
C9271	C927	0.088700	0.063900	0.105800
C9281	C928	0.440700	0.015200	0.087000
C9291	C929	0.449500	0.036500	0.106000
C9301	C930	0.456600	0.019600	0.126700
C9311	C931	0.372000	0.076600	0.012100
C9321	C932	0.341900	0.090300	0.024600
C9331	C933	0.314400	0.096500	0.012400
C9341	C934	0.482700	0.121700	0.031600
C9351	C935	0.468700	0.145200	0.015400
C9361	C936	0.481600	0.178700	0.012900
Zn731	Zn73	0.316800	0.424300	0.662100
Zn741	Zn74	0.177000	0.424200	0.627400
Zn751	Zn75	0.219800	0.326200	0.702300
Zn761	Zn76	0.073500	0.423500	0.551900
Cl1811	Cl181	0.225000	0.438700	0.778600
Cl1821	Cl182	0.247400	0.347700	0.552500
Cl1831	Cl183	0.102800	0.422100	0.728100
Cl1841	Cl184	0.169700	0.227200	0.624800
Cl1851	Cl185	0.045200	0.341400	0.645500
Cl1861	Cl186	0.068900	0.461800	0.699400
Cl1871	Cl187	0.136200	0.277800	0.547400
Cl1881	Cl188	0.412800	0.467300	0.581900
Cl1891	Cl189	0.031400	0.447000	0.648300
Cl1901	Cl190	0.232300	0.408900	0.521800
N2891	N289	0.328900	0.472900	0.670300
N2901	N290	0.293100	0.401300	0.689200
N2911	N291	0.258600	0.361300	0.704700
N2921	N292	0.283600	0.425100	0.636200
N2931	N293	0.229200	0.427000	0.623400
N2941	N294	0.192100	0.323300	0.732400
N2951	N295	0.241600	0.282200	0.695100
N2961	N296	0.171100	0.387800	0.652900
N2971	N297	0.189400	0.344900	0.677700
N2981	N298	0.162100	0.468600	0.636500
N2991	N299	0.103100	0.405000	0.574100
N3001	N300	0.151200	0.407100	0.601300
N3011	N301	0.359300	0.397000	0.654600
N3021	N302	0.065000	0.470700	0.564800
N3031	N303	0.030000	0.402000	0.551200
N3041	N304	0.093500	0.425700	0.520200
C9371	C937	0.357000	0.479100	0.685300
C9381	C938	0.383300	0.463700	0.699300
C9391	C939	0.399800	0.485500	0.715600
C9401	C940	0.278600	0.370400	0.686000
C9411	C941	0.282700	0.410700	0.708200
C9421	C942	0.291700	0.440800	0.720000
C9431	C943	0.278500	0.447600	0.742400
C9441	C944	0.256300	0.424100	0.753100
C9451	C945	0.247300	0.393900	0.741300
C9461	C946	0.260500	0.387200	0.718900
C9471	C947	0.250100	0.437900	0.641100
C9481	C948	0.243600	0.409700	0.605300
C9491	C949	0.239700	0.393800	0.583400
C9501	C950	0.267700	0.377800	0.572700
C9511	C951	0.299700	0.377900	0.583800
C9521	C952	0.303700	0.393800	0.605600
C9531	C953	0.275600	0.409700	0.616400
C9541	C954	0.163500	0.344800	0.739700
C9551	C955	0.149600	0.373000	0.726900
C9561	C956	0.125200	0.387500	0.740900
C9571	C957	0.232100	0.258900	0.677700
C9581	C958	0.204100	0.258900	0.658600
C9591	C959	0.205000	0.228500	0.645000
C9601	C960	0.198600	0.372300	0.665000
C9611	C961	0.155700	0.341500	0.672400
C9621	C962	0.133000	0.316700	0.680900
C9631	C963	0.098900	0.316300	0.673300
C9641	C964	0.087500	0.340900	0.657100
C9651	C965	0.110200	0.365700	0.648600
C9661	C966	0.144300	0.366000	0.656200
C9671	C967	0.138000	0.480300	0.654900
C9681	C968	0.118300	0.459800	0.666500
C9691	C969	0.101800	0.481600	0.680100
C9701	C970	0.124200	0.423800	0.589200
C9711	C971	0.146400	0.374600	0.594800
C9721	C972	0.162900	0.343400	0.598900
C9731	C973	0.154200	0.314400	0.585700
C9741	C974	0.128900	0.316600	0.568400
C9751	C975	0.112300	0.347900	0.564200
C9761	C976	0.121000	0.376800	0.577400
C9771	C977	0.381800	0.409100	0.638000
C9781	C978	0.383700	0.439000	0.619700
C9791	C979	0.411300	0.436100	0.605800
C9801	C980	0.059300	0.484800	0.587000
C9811	C981	0.050500	0.463500	0.606000
C9821	C982	0.043400	0.480400	0.626700
C9831	C983	0.128000	0.423400	0.512100
C9841	C984	0.158100	0.409700	0.524600
C9851	C985	0.185600	0.403500	0.512400
C9861	C986	0.017300	0.378300	0.531600
C9871	C987	0.031300	0.354800	0.515400
C9881	C988	0.018400	0.321300	0.512900
Zn771	Zn77	0.816800	0.924300	0.162100
Zn781	Zn78	0.677000	0.924200	0.127400
Zn791	Zn79	0.719800	0.826200	0.202300
Zn801	Zn80	0.573500	0.923500	0.051900
Cl1911	Cl191	0.725000	0.938700	0.278600
Cl1921	Cl192	0.747400	0.847700	0.052500
Cl1931	Cl193	0.602800	0.922100	0.228100
Cl1941	Cl194	0.669700	0.727200	0.124800
Cl1951	Cl195	0.545200	0.841400	0.145500
Cl1961	Cl196	0.568900	0.961800	0.199400
Cl1971	Cl197	0.636200	0.777800	0.047400
Cl1981	Cl198	0.912800	0.967300	0.081900
Cl1991	Cl199	0.531400	0.947000	0.148300
Cl2001	Cl200	0.732300	0.908900	0.021800
N3051	N305	0.828900	0.972900	0.170300
N3061	N306	0.793100	0.901300	0.189200
N3071	N307	0.758600	0.861300	0.204700
N3081	N308	0.783600	0.925100	0.136200
N3091	N309	0.729200	0.927000	0.123400
N3101	N310	0.692100	0.823300	0.232400
N3111	N311	0.741600	0.782200	0.195100
N3121	N312	0.671100	0.887800	0.152900
N3131	N313	0.689400	0.844900	0.177700
N3141	N314	0.662100	0.968600	0.136500
N3151	N315	0.603100	0.905000	0.074100
N3161	N316	0.651200	0.907100	0.101300
N3171	N317	0.859300	0.897000	0.154600
N3181	N318	0.565000	0.970700	0.064800
N3191	N319	0.530000	0.902000	0.051200
N3201	N320	0.593500	0.925700	0.020200
C9891	C989	0.857000	0.979100	0.185300
C9901	C990	0.883300	0.963700	0.199300
C9911	C991	0.899800	0.985500	0.215600
C9921	C992	0.778600	0.870400	0.186000
C9931	C993	0.782700	0.910700	0.208200
C9941	C994	0.791700	0.940800	0.220000
C9951	C995	0.778500	0.947600	0.242400
C9961	C996	0.756300	0.924100	0.253100
C9971	C997	0.747300	0.893900	0.241300
C9981	C998	0.760500	0.887200	0.218900
C9991	C999	0.750100	0.937900	0.141100
C10001	C1000	0.743600	0.909700	0.105300
C10011	C1001	0.739700	0.893800	0.083400
C10021	C1002	0.767700	0.877800	0.072700
C10031	C1003	0.799700	0.877900	0.083800
C10041	C1004	0.803700	0.893800	0.105600
C10051	C1005	0.775600	0.909700	0.116400
C10061	C1006	0.663500	0.844800	0.239700
C10071	C1007	0.649600	0.873000	0.226900
C10081	C1008	0.625200	0.887500	0.240900
C10091	C1009	0.732100	0.758900	0.177700
C10101	C1010	0.704100	0.758900	0.158600
C10111	C1011	0.705000	0.728500	0.145000
C10121	C1012	0.698600	0.872300	0.165000
C10131	C1013	0.655700	0.841500	0.172400
C10141	C1014	0.633000	0.816700	0.180900
C10151	C1015	0.598900	0.816300	0.173300
C10161	C1016	0.587500	0.840900	0.157100
C10171	C1017	0.610200	0.865700	0.148600
C10181	C1018	0.644300	0.866000	0.156200
C10191	C1019	0.638000	0.980300	0.154900
C10201	C1020	0.618300	0.959800	0.166500
C10211	C1021	0.601800	0.981600	0.180100
C10221	C1022	0.624200	0.923800	0.089200
C10231	C1023	0.646400	0.874600	0.094800
C10241	C1024	0.662900	0.843400	0.098900
C10251	C1025	0.654200	0.814400	0.085700
C10261	C1026	0.628900	0.816600	0.068400
C10271	C1027	0.612300	0.847900	0.064200
C10281	C1028	0.621000	0.876800	0.077400
C10291	C1029	0.881800	0.909100	0.138000
C10301	C1030	0.883700	0.939000	0.119700
C10311	C1031	0.911300	0.936100	0.105800
C10321	C1032	0.559300	0.984800	0.087000
C10331	C1033	0.550500	0.963500	0.106000
C10341	C1034	0.543400	0.980400	0.126700
C10351	C1035	0.628000	0.923400	0.012100
C10361	C1036	0.658100	0.909700	0.024600
C10371	C1037	0.685600	0.903500	0.012400
C10381	C1038	0.517300	0.878300	0.031600
C10391	C1039	0.531300	0.854800	0.015400
C10401	C1040	0.518400	0.821300	0.012900
Zn811	Zn81	0.424300	0.683200	0.662100
Zn821	Zn82	0.424200	0.823000	0.627400
Zn831	Zn83	0.326200	0.780200	0.702300
Zn841	Zn84	0.423500	0.926500	0.551900
Cl2011	Cl201	0.438700	0.775000	0.778600
Cl2021	Cl202	0.347700	0.752600	0.552500
Cl2031	Cl203	0.422100	0.897200	0.728100
Cl2041	Cl204	0.227200	0.830300	0.624800
Cl2051	Cl205	0.341400	0.954800	0.645500
Cl2061	Cl206	0.461800	0.931100	0.699400
Cl2071	Cl207	0.277800	0.863800	0.547400
Cl2081	Cl208	0.467300	0.587200	0.581900
Cl2091	Cl209	0.447000	0.968600	0.648300
Cl2101	Cl210	0.408900	0.767700	0.521800
N3211	N321	0.472900	0.671100	0.670300
N3221	N322	0.401300	0.706900	0.689200
N3231	N323	0.361300	0.741400	0.704700
N3241	N324	0.425100	0.716400	0.636200
N3251	N325	0.427000	0.770800	0.623400
N3261	N326	0.323300	0.807900	0.732400
N3271	N327	0.282200	0.758400	0.695100
N3281	N328	0.387800	0.828900	0.652900
N3291	N329	0.344900	0.810600	0.677700
N3301	N330	0.468600	0.837900	0.636500
N3311	N331	0.405000	0.896900	0.574100
N3321	N332	0.407100	0.848800	0.601300
N3331	N333	0.397000	0.640700	0.654600
N3341	N334	0.470700	0.935000	0.564800
N3351	N335	0.402000	0.970000	0.551200
N3361	N336	0.425700	0.906500	0.520200
C10411	C1041	0.479100	0.643000	0.685300
C10421	C1042	0.463700	0.616700	0.699300
C10431	C1043	0.485500	0.600200	0.715600
C10441	C1044	0.370400	0.721400	0.686000
C10451	C1045	0.410700	0.717300	0.708200
C10461	C1046	0.440800	0.708300	0.720000
C10471	C1047	0.447600	0.721500	0.742400
C10481	C1048	0.424100	0.743700	0.753100
C10491	C1049	0.393900	0.752700	0.741300
C10501	C1050	0.387200	0.739500	0.718900
C10511	C1051	0.437900	0.749900	0.641100
C10521	C1052	0.409700	0.756400	0.605300
C10531	C1053	0.393800	0.760300	0.583400
C10541	C1054	0.377800	0.732300	0.572700
C10551	C1055	0.377900	0.700300	0.583800
C10561	C1056	0.393800	0.696300	0.605600
C10571	C1057	0.409700	0.724400	0.616400
C10581	C1058	0.344800	0.836500	0.739700
C10591	C1059	0.373000	0.850400	0.726900
C10601	C1060	0.387500	0.874800	0.740900
C10611	C1061	0.258900	0.767900	0.677700
C10621	C1062	0.258900	0.795900	0.658600
C10631	C1063	0.228500	0.795000	0.645000
C10641	C1064	0.372300	0.801400	0.665000
C10651	C1065	0.341500	0.844300	0.672400
C10661	C1066	0.316700	0.867000	0.680900
C10671	C1067	0.316300	0.901100	0.673300
C10681	C1068	0.340900	0.912500	0.657100
C10691	C1069	0.365700	0.889800	0.648600
C10701	C1070	0.366000	0.855700	0.656200
C10711	C1071	0.480300	0.862000	0.654900
C10721	C1072	0.459800	0.881700	0.666500
C10731	C1073	0.481600	0.898200	0.680100
C10741	C1074	0.423800	0.875800	0.589200
C10751	C1075	0.374600	0.853600	0.594800
C10761	C1076	0.343400	0.837100	0.598900
C10771	C1077	0.314400	0.845800	0.585700
C10781	C1078	0.316600	0.871100	0.568400
C10791	C1079	0.347900	0.887700	0.564200
C10801	C1080	0.376800	0.879000	0.577400
C10811	C1081	0.409100	0.618200	0.638000
C10821	C1082	0.439000	0.616300	0.619700
C10831	C1083	0.436100	0.588700	0.605800
C10841	C1084	0.484800	0.940700	0.587000
C10851	C1085	0.463500	0.949500	0.606000
C10861	C1086	0.480400	0.956600	0.626700
C10871	C1087	0.423400	0.872000	0.512100
C10881	C1088	0.409700	0.841900	0.524600
C10891	C1089	0.403500	0.814400	0.512400
C10901	C1090	0.378300	0.982700	0.531600
C10911	C1091	0.354800	0.968700	0.515400
C10921	C1092	0.321300	0.981600	0.512900
Zn851	Zn85	0.924300	0.183200	0.162100
Zn861	Zn86	0.924200	0.323000	0.127400
Zn871	Zn87	0.826200	0.280200	0.202300
Zn881	Zn88	0.923500	0.426500	0.051900
Cl2111	Cl211	0.938700	0.275000	0.278600
Cl2121	Cl212	0.847700	0.252600	0.052500
Cl2131	Cl213	0.922100	0.397200	0.228100
Cl2141	Cl214	0.727200	0.330300	0.124800
Cl2151	Cl215	0.841400	0.454800	0.145500
Cl2161	Cl216	0.961800	0.431100	0.199400
Cl2171	Cl217	0.777800	0.363800	0.047400
Cl2181	Cl218	0.967300	0.087200	0.081900
Cl2191	Cl219	0.947000	0.468600	0.148300
Cl2201	Cl220	0.908900	0.267700	0.021800
N3371	N337	0.972900	0.171100	0.170300
N3381	N338	0.901300	0.206900	0.189200
N3391	N339	0.861300	0.241400	0.204700
N3401	N340	0.925100	0.216400	0.136200
N3411	N341	0.927000	0.270800	0.123400
N3421	N342	0.823300	0.307900	0.232400
N3431	N343	0.782200	0.258400	0.195100
N3441	N344	0.887800	0.328900	0.152900
N3451	N345	0.844900	0.310600	0.177700
N3461	N346	0.968600	0.337900	0.136500
N3471	N347	0.905000	0.396900	0.074100
N3481	N348	0.907100	0.348800	0.101300
N3491	N349	0.897000	0.140700	0.154600
N3501	N350	0.970700	0.435000	0.064800
N3511	N351	0.902000	0.470000	0.051200
N3521	N352	0.925700	0.406500	0.020200
C10931	C1093	0.979100	0.143000	0.185300
C10941	C1094	0.963700	0.116700	0.199300
C10951	C1095	0.985500	0.100200	0.215600
C10961	C1096	0.870400	0.221400	0.186000
C10971	C1097	0.910700	0.217300	0.208200
C10981	C1098	0.940800	0.208300	0.220000
C10991	C1099	0.947600	0.221500	0.242400
C11001	C1100	0.924100	0.243700	0.253100
C11011	C1101	0.893900	0.252700	0.241300
C11021	C1102	0.887200	0.239500	0.218900
C11031	C1103	0.937900	0.249900	0.141100
C11041	C1104	0.909700	0.256400	0.105300
C11051	C1105	0.893800	0.260300	0.083400
C11061	C1106	0.877800	0.232300	0.072700
C11071	C1107	0.877900	0.200300	0.083800
C11081	C1108	0.893800	0.196300	0.105600
C11091	C1109	0.909700	0.224400	0.116400
C11101	C1110	0.844800	0.336500	0.239700
C11111	C1111	0.873000	0.350400	0.226900
C11121	C1112	0.887500	0.374800	0.240900
C11131	C1113	0.758900	0.267900	0.177700
C11141	C1114	0.758900	0.295900	0.158600
C11151	C1115	0.728500	0.295000	0.145000
C11161	C1116	0.872300	0.301400	0.165000
C11171	C1117	0.841500	0.344300	0.172400
C11181	C1118	0.816700	0.367000	0.180900
C11191	C1119	0.816300	0.401100	0.173300
C11201	C1120	0.840900	0.412500	0.157100
C11211	C1121	0.865700	0.389800	0.148600
C11221	C1122	0.866000	0.355700	0.156200
C11231	C1123	0.980300	0.362000	0.154900
C11241	C1124	0.959800	0.381700	0.166500
C11251	C1125	0.981600	0.398200	0.180100
C11261	C1126	0.923800	0.375800	0.089200
C11271	C1127	0.874600	0.353600	0.094800
C11281	C1128	0.843400	0.337100	0.098900
C11291	C1129	0.814400	0.345800	0.085700
C11301	C1130	0.816600	0.371100	0.068400
C11311	C1131	0.847900	0.387700	0.064200
C11321	C1132	0.876800	0.379000	0.077400
C11331	C1133	0.909100	0.118200	0.138000
C11341	C1134	0.939000	0.116300	0.119700
C11351	C1135	0.936100	0.088700	0.105800
C11361	C1136	0.984800	0.440700	0.087000
C11371	C1137	0.963500	0.449500	0.106000
C11381	C1138	0.980400	0.456600	0.126700
C11391	C1139	0.923400	0.372000	0.012100
C11401	C1140	0.909700	0.341900	0.024600
C11411	C1141	0.903500	0.314400	0.012400
C11421	C1142	0.878300	0.482700	0.031600
C11431	C1143	0.854800	0.468700	0.015400
C11441	C1144	0.821300	0.481600	0.012900
Zn891	Zn89	0.575700	0.316800	0.662100
Zn901	Zn90	0.575800	0.177000	0.627400
Zn911	Zn91	0.673800	0.219800	0.702300
Zn921	Zn92	0.576500	0.073500	0.551900
Cl2211	Cl221	0.561300	0.225000	0.778600
Cl2221	Cl222	0.652300	0.247400	0.552500
Cl2231	Cl223	0.577900	0.102800	0.728100
Cl2241	Cl224	0.772800	0.169700	0.624800
Cl2251	Cl225	0.658600	0.045200	0.645500
Cl2261	Cl226	0.538200	0.068900	0.699400
Cl2271	Cl227	0.722200	0.136200	0.547400
Cl2281	Cl228	0.532700	0.412800	0.581900
Cl2291	Cl229	0.553000	0.031400	0.648300
Cl2301	Cl230	0.591100	0.232300	0.521800
N3531	N353	0.527100	0.328900	0.670300
N3541	N354	0.598700	0.293100	0.689200
N3551	N355	0.638700	0.258600	0.704700
N3561	N356	0.574900	0.283600	0.636200
N3571	N357	0.573000	0.229200	0.623400
N3581	N358	0.676700	0.192100	0.732400
N3591	N359	0.717800	0.241600	0.695100
N3601	N360	0.612200	0.171100	0.652900
N3611	N361	0.655100	0.189400	0.677700
N3621	N362	0.531400	0.162100	0.636500
N3631	N363	0.595000	0.103100	0.574100
N3641	N364	0.592900	0.151200	0.601300
N3651	N365	0.603000	0.359300	0.654600
N3661	N366	0.529300	0.065000	0.564800
N3671	N367	0.598000	0.030000	0.551200
N3681	N368	0.574300	0.093500	0.520200
C11451	C1145	0.520900	0.357000	0.685300
C11461	C1146	0.536300	0.383300	0.699300
C11471	C1147	0.514500	0.399800	0.715600
C11481	C1148	0.629600	0.278600	0.686000
C11491	C1149	0.589300	0.282700	0.708200
C11501	C1150	0.559200	0.291700	0.720000
C11511	C1151	0.552400	0.278500	0.742400
C11521	C1152	0.575900	0.256300	0.753100
C11531	C1153	0.606100	0.247300	0.741300
C11541	C1154	0.612800	0.260500	0.718900
C11551	C1155	0.562100	0.250100	0.641100
C11561	C1156	0.590300	0.243600	0.605300
C11571	C1157	0.606200	0.239700	0.583400
C11581	C1158	0.622200	0.267700	0.572700
C11591	C1159	0.622100	0.299700	0.583800
C11601	C1160	0.606200	0.303700	0.605600
C11611	C1161	0.590300	0.275600	0.616400
C11621	C1162	0.655200	0.163500	0.739700
C11631	C1163	0.627000	0.149600	0.726900
C11641	C1164	0.612500	0.125200	0.740900
C11651	C1165	0.741100	0.232100	0.677700
C11661	C1166	0.741100	0.204100	0.658600
C11671	C1167	0.771500	0.205000	0.645000
C11681	C1168	0.627700	0.198600	0.665000
C11691	C1169	0.658500	0.155700	0.672400
C11701	C1170	0.683300	0.133000	0.680900
C11711	C1171	0.683700	0.098900	0.673300
C11721	C1172	0.659100	0.087500	0.657100
C11731	C1173	0.634300	0.110200	0.648600
C11741	C1174	0.634000	0.144300	0.656200
C11751	C1175	0.519700	0.138000	0.654900
C11761	C1176	0.540200	0.118300	0.666500
C11771	C1177	0.518400	0.101800	0.680100
C11781	C1178	0.576200	0.124200	0.589200
C11791	C1179	0.625400	0.146400	0.594800
C11801	C1180	0.656600	0.162900	0.598900
C11811	C1181	0.685600	0.154200	0.585700
C11821	C1182	0.683400	0.128900	0.568400
C11831	C1183	0.652100	0.112300	0.564200
C11841	C1184	0.623200	0.121000	0.577400
C11851	C1185	0.590900	0.381800	0.638000
C11861	C1186	0.561000	0.383700	0.619700
C11871	C1187	0.563900	0.411300	0.605800
C11881	C1188	0.515200	0.059300	0.587000
C11891	C1189	0.536500	0.050500	0.606000
C11901	C1190	0.519600	0.043400	0.626700
C11911	C1191	0.576600	0.128000	0.512100
C11921	C1192	0.590300	0.158100	0.524600
C11931	C1193	0.596500	0.185600	0.512400
C11941	C1194	0.621700	0.017300	0.531600
C11951	C1195	0.645200	0.031300	0.515400
C11961	C1196	0.678700	0.018400	0.512900
Zn931	Zn93	0.075700	0.816800	0.162100
Zn941	Zn94	0.075800	0.677000	0.127400
Zn951	Zn95	0.173800	0.719800	0.202300
Zn961	Zn96	0.076500	0.573500	0.051900
Cl2311	Cl231	0.061300	0.725000	0.278600
Cl2321	Cl232	0.152300	0.747400	0.052500
Cl2331	Cl233	0.077900	0.602800	0.228100
Cl2341	Cl234	0.272800	0.669700	0.124800
Cl2351	Cl235	0.158600	0.545200	0.145500
Cl2361	Cl236	0.038200	0.568900	0.199400
Cl2371	Cl237	0.222200	0.636200	0.047400
Cl2381	Cl238	0.032700	0.912800	0.081900
Cl2391	Cl239	0.053000	0.531400	0.148300
Cl2401	Cl240	0.091100	0.732300	0.021800
N3691	N369	0.027100	0.828900	0.170300
N3701	N370	0.098700	0.793100	0.189200
N3711	N371	0.138700	0.758600	0.204700
N3721	N372	0.074900	0.783600	0.136200
N3731	N373	0.073000	0.729200	0.123400
N3741	N374	0.176700	0.692100	0.232400
N3751	N375	0.217800	0.741600	0.195100
N3761	N376	0.112200	0.671100	0.152900
N3771	N377	0.155100	0.689400	0.177700
N3781	N378	0.031400	0.662100	0.136500
N3791	N379	0.095000	0.603100	0.074100
N3801	N380	0.092900	0.651200	0.101300
N3811	N381	0.103000	0.859300	0.154600
N3821	N382	0.029300	0.565000	0.064800
N3831	N383	0.098000	0.530000	0.051200
N3841	N384	0.074300	0.593500	0.020200
C11971	C1197	0.020900	0.857000	0.185300
C11981	C1198	0.036300	0.883300	0.199300
C11991	C1199	0.014500	0.899800	0.215600
C12001	C1200	0.129600	0.778600	0.186000
C12011	C1201	0.089300	0.782700	0.208200
C12021	C1202	0.059200	0.791700	0.220000
C12031	C1203	0.052400	0.778500	0.242400
C12041	C1204	0.075900	0.756300	0.253100
C12051	C1205	0.106100	0.747300	0.241300
C12061	C1206	0.112800	0.760500	0.218900
C12071	C1207	0.062100	0.750100	0.141100
C12081	C1208	0.090300	0.743600	0.105300
C12091	C1209	0.106200	0.739700	0.083400
C12101	C1210	0.122200	0.767700	0.072700
C12111	C1211	0.122100	0.799700	0.083800
C12121	C1212	0.106200	0.803700	0.105600
C12131	C1213	0.090300	0.775600	0.116400
C12141	C1214	0.155200	0.663500	0.239700
C12151	C1215	0.127000	0.649600	0.226900
C12161	C1216	0.112500	0.625200	0.240900
C12171	C1217	0.241100	0.732100	0.177700
C12181	C1218	0.241100	0.704100	0.158600
C12191	C1219	0.271500	0.705000	0.145000
C12201	C1220	0.127700	0.698600	0.165000
C12211	C1221	0.158500	0.655700	0.172400
C12221	C1222	0.183300	0.633000	0.180900
C12231	C1223	0.183700	0.598900	0.173300
C12241	C1224	0.159100	0.587500	0.157100
C12251	C1225	0.134300	0.610200	0.148600
C12261	C1226	0.134000	0.644300	0.156200
C12271	C1227	0.019700	0.638000	0.154900
C12281	C1228	0.040200	0.618300	0.166500
C12291	C1229	0.018400	0.601800	0.180100
C12301	C1230	0.076200	0.624200	0.089200
C12311	C1231	0.125400	0.646400	0.094800
C12321	C1232	0.156600	0.662900	0.098900
C12331	C1233	0.185600	0.654200	0.085700
C12341	C1234	0.183400	0.628900	0.068400
C12351	C1235	0.152100	0.612300	0.064200
C12361	C1236	0.123200	0.621000	0.077400
C12371	C1237	0.090900	0.881800	0.138000
C12381	C1238	0.061000	0.883700	0.119700
C12391	C1239	0.063900	0.911300	0.105800
C12401	C1240	0.015200	0.559300	0.087000
C12411	C1241	0.036500	0.550500	0.106000
C12421	C1242	0.019600	0.543400	0.126700
C12431	C1243	0.076600	0.628000	0.012100
C12441	C1244	0.090300	0.658100	0.024600
C12451	C1245	0.096500	0.685600	0.012400
C12461	C1246	0.121700	0.517300	0.031600
C12471	C1247	0.145200	0.531300	0.015400
C12481	C1248	0.178700	0.518400	0.012900
Zn971	Zn97	0.316800	0.575700	0.337900
Zn981	Zn98	0.177000	0.575800	0.372600
Zn991	Zn99	0.219800	0.673800	0.297700
Zn1001	Zn100	0.073500	0.576500	0.448100
Cl2411	Cl241	0.225000	0.561300	0.221400
Cl2421	Cl242	0.247400	0.652300	0.447500
Cl2431	Cl243	0.102800	0.577900	0.271900
Cl2441	Cl244	0.169700	0.772800	0.375200
Cl2451	Cl245	0.045200	0.658600	0.354500
Cl2461	Cl246	0.068900	0.538200	0.300600
Cl2471	Cl247	0.136200	0.722200	0.452600
Cl2481	Cl248	0.412800	0.532700	0.418100
Cl2491	Cl249	0.031400	0.553000	0.351700
Cl2501	Cl250	0.232300	0.591100	0.478200
N3851	N385	0.328900	0.527100	0.329700
N3861	N386	0.293100	0.598700	0.310800
N3871	N387	0.258600	0.638700	0.295300
N3881	N388	0.283600	0.574900	0.363800
N3891	N389	0.229200	0.573000	0.376600
N3901	N390	0.192100	0.676700	0.267600
N3911	N391	0.241600	0.717800	0.304900
N3921	N392	0.171100	0.612200	0.347100
N3931	N393	0.189400	0.655100	0.322300
N3941	N394	0.162100	0.531400	0.363500
N3951	N395	0.103100	0.595000	0.425900
N3961	N396	0.151200	0.592900	0.398700
N3971	N397	0.359300	0.603000	0.345400
N3981	N398	0.065000	0.529300	0.435200
N3991	N399	0.030000	0.598000	0.448800
N4001	N400	0.093500	0.574300	0.479800
C12491	C1249	0.357000	0.520900	0.314700
C12501	C1250	0.383300	0.536300	0.300700
C12511	C1251	0.399800	0.514500	0.284400
C12521	C1252	0.278600	0.629600	0.314000
C12531	C1253	0.282700	0.589300	0.291800
C12541	C1254	0.291700	0.559200	0.280000
C12551	C1255	0.278500	0.552400	0.257600
C12561	C1256	0.256300	0.575900	0.246900
C12571	C1257	0.247300	0.606100	0.258700
C12581	C1258	0.260500	0.612800	0.281100
C12591	C1259	0.250100	0.562100	0.358900
C12601	C1260	0.243600	0.590300	0.394700
C12611	C1261	0.239700	0.606200	0.416600
C12621	C1262	0.267700	0.622200	0.427300
C12631	C1263	0.299700	0.622100	0.416200
C12641	C1264	0.303700	0.606200	0.394400
C12651	C1265	0.275600	0.590300	0.383600
C12661	C1266	0.163500	0.655200	0.260300
C12671	C1267	0.149600	0.627000	0.273100
C12681	C1268	0.125200	0.612500	0.259100
C12691	C1269	0.232100	0.741100	0.322300
C12701	C1270	0.204100	0.741100	0.341400
C12711	C1271	0.205000	0.771500	0.355000
C12721	C1272	0.198600	0.627700	0.335000
C12731	C1273	0.155700	0.658500	0.327600
C12741	C1274	0.133000	0.683300	0.319100
C12751	C1275	0.098900	0.683700	0.326700
C12761	C1276	0.087500	0.659100	0.342900
C12771	C1277	0.110200	0.634300	0.351400
C12781	C1278	0.144300	0.634000	0.343800
C12791	C1279	0.138000	0.519700	0.345100
C12801	C1280	0.118300	0.540200	0.333500
C12811	C1281	0.101800	0.518400	0.319900
C12821	C1282	0.124200	0.576200	0.410800
C12831	C1283	0.146400	0.625400	0.405200
C12841	C1284	0.162900	0.656600	0.401100
C12851	C1285	0.154200	0.685600	0.414300
C12861	C1286	0.128900	0.683400	0.431600
C12871	C1287	0.112300	0.652100	0.435800
C12881	C1288	0.121000	0.623200	0.422600
C12891	C1289	0.381800	0.590900	0.362000
C12901	C1290	0.383700	0.561000	0.380300
C12911	C1291	0.411300	0.563900	0.394200
C12921	C1292	0.059300	0.515200	0.413000
C12931	C1293	0.050500	0.536500	0.394000
C12941	C1294	0.043400	0.519600	0.373300
C12951	C1295	0.128000	0.576600	0.487900
C12961	C1296	0.158100	0.590300	0.475400
C12971	C1297	0.185600	0.596500	0.487600
C12981	C1298	0.017300	0.621700	0.468400
C12991	C1299	0.031300	0.645200	0.484600
C13001	C1300	0.018400	0.678700	0.487100
Zn1011	Zn101	0.816800	0.075700	0.837900
Zn1021	Zn102	0.677000	0.075800	0.872600
Zn1031	Zn103	0.719800	0.173800	0.797700
Zn1041	Zn104	0.573500	0.076500	0.948100
Cl2511	Cl251	0.725000	0.061300	0.721400
Cl2521	Cl252	0.747400	0.152300	0.947500
Cl2531	Cl253	0.602800	0.077900	0.771900
Cl2541	Cl254	0.669700	0.272800	0.875200
Cl2551	Cl255	0.545200	0.158600	0.854500
Cl2561	Cl256	0.568900	0.038200	0.800600
Cl2571	Cl257	0.636200	0.222200	0.952600
Cl2581	Cl258	0.912800	0.032700	0.918100
Cl2591	Cl259	0.531400	0.053000	0.851700
Cl2601	Cl260	0.732300	0.091100	0.978200
N4011	N401	0.828900	0.027100	0.829700
N4021	N402	0.793100	0.098700	0.810800
N4031	N403	0.758600	0.138700	0.795300
N4041	N404	0.783600	0.074900	0.863800
N4051	N405	0.729200	0.073000	0.876600
N4061	N406	0.692100	0.176700	0.767600
N4071	N407	0.741600	0.217800	0.804900
N4081	N408	0.671100	0.112200	0.847100
N4091	N409	0.689400	0.155100	0.822300
N4101	N410	0.662100	0.031400	0.863500
N4111	N411	0.603100	0.095000	0.925900
N4121	N412	0.651200	0.092900	0.898700
N4131	N413	0.859300	0.103000	0.845400
N4141	N414	0.565000	0.029300	0.935200
N4151	N415	0.530000	0.098000	0.948800
N4161	N416	0.593500	0.074300	0.979800
C13011	C1301	0.857000	0.020900	0.814700
C13021	C1302	0.883300	0.036300	0.800700
C13031	C1303	0.899800	0.014500	0.784400
C13041	C1304	0.778600	0.129600	0.814000
C13051	C1305	0.782700	0.089300	0.791800
C13061	C1306	0.791700	0.059200	0.780000
C13071	C1307	0.778500	0.052400	0.757600
C13081	C1308	0.756300	0.075900	0.746900
C13091	C1309	0.747300	0.106100	0.758700
C13101	C1310	0.760500	0.112800	0.781100
C13111	C1311	0.750100	0.062100	0.858900
C13121	C1312	0.743600	0.090300	0.894700
C13131	C1313	0.739700	0.106200	0.916600
C13141	C1314	0.767700	0.122200	0.927300
C13151	C1315	0.799700	0.122100	0.916200
C13161	C1316	0.803700	0.106200	0.894400
C13171	C1317	0.775600	0.090300	0.883600
C13181	C1318	0.663500	0.155200	0.760300
C13191	C1319	0.649600	0.127000	0.773100
C13201	C1320	0.625200	0.112500	0.759100
C13211	C1321	0.732100	0.241100	0.822300
C13221	C1322	0.704100	0.241100	0.841400
C13231	C1323	0.705000	0.271500	0.855000
C13241	C1324	0.698600	0.127700	0.835000
C13251	C1325	0.655700	0.158500	0.827600
C13261	C1326	0.633000	0.183300	0.819100
C13271	C1327	0.598900	0.183700	0.826700
C13281	C1328	0.587500	0.159100	0.842900
C13291	C1329	0.610200	0.134300	0.851400
C13301	C1330	0.644300	0.134000	0.843800
C13311	C1331	0.638000	0.019700	0.845100
C13321	C1332	0.618300	0.040200	0.833500
C13331	C1333	0.601800	0.018400	0.819900
C13341	C1334	0.624200	0.076200	0.910800
C13351	C1335	0.646400	0.125400	0.905200
C13361	C1336	0.662900	0.156600	0.901100
C13371	C1337	0.654200	0.185600	0.914300
C13381	C1338	0.628900	0.183400	0.931600
C13391	C1339	0.612300	0.152100	0.935800
C13401	C1340	0.621000	0.123200	0.922600
C13411	C1341	0.881800	0.090900	0.862000
C13421	C1342	0.883700	0.061000	0.880300
C13431	C1343	0.911300	0.063900	0.894200
C13441	C1344	0.559300	0.015200	0.913000
C13451	C1345	0.550500	0.036500	0.894000
C13461	C1346	0.543400	0.019600	0.873300
C13471	C1347	0.628000	0.076600	0.987900
C13481	C1348	0.658100	0.090300	0.975400
C13491	C1349	0.685600	0.096500	0.987600
C13501	C1350	0.517300	0.121700	0.968400
C13511	C1351	0.531300	0.145200	0.984600
C13521	C1352	0.518400	0.178700	0.987100
Zn1051	Zn105	0.683200	0.424300	0.337900
Zn1061	Zn106	0.823000	0.424200	0.372600
Zn1071	Zn107	0.780200	0.326200	0.297700
Zn1081	Zn108	0.926500	0.423500	0.448100
Cl2611	Cl261	0.775000	0.438700	0.221400
Cl2621	Cl262	0.752600	0.347700	0.447500
Cl2631	Cl263	0.897200	0.422100	0.271900
Cl2641	Cl264	0.830300	0.227200	0.375200
Cl2651	Cl265	0.954800	0.341400	0.354500
Cl2661	Cl266	0.931100	0.461800	0.300600
Cl2671	Cl267	0.863800	0.277800	0.452600
Cl2681	Cl268	0.587200	0.467300	0.418100
Cl2691	Cl269	0.968600	0.447000	0.351700
Cl2701	Cl270	0.767700	0.408900	0.478200
N4171	N417	0.671100	0.472900	0.329700
N4181	N418	0.706900	0.401300	0.310800
N4191	N419	0.741400	0.361300	0.295300
N4201	N420	0.716400	0.425100	0.363800
N4211	N421	0.770800	0.427000	0.376600
N4221	N422	0.807900	0.323300	0.267600
N4231	N423	0.758400	0.282200	0.304900
N4241	N424	0.828900	0.387800	0.347100
N4251	N425	0.810600	0.344900	0.322300
N4261	N426	0.837900	0.468600	0.363500
N4271	N427	0.896900	0.405000	0.425900
N4281	N428	0.848800	0.407100	0.398700
N4291	N429	0.640700	0.397000	0.345400
N4301	N430	0.935000	0.470700	0.435200
N4311	N431	0.970000	0.402000	0.448800
N4321	N432	0.906500	0.425700	0.479800
C13531	C1353	0.643000	0.479100	0.314700
C13541	C1354	0.616700	0.463700	0.300700
C13551	C1355	0.600200	0.485500	0.284400
C13561	C1356	0.721400	0.370400	0.314000
C13571	C1357	0.717300	0.410700	0.291800
C13581	C1358	0.708300	0.440800	0.280000
C13591	C1359	0.721500	0.447600	0.257600
C13601	C1360	0.743700	0.424100	0.246900
C13611	C1361	0.752700	0.393900	0.258700
C13621	C1362	0.739500	0.387200	0.281100
C13631	C1363	0.749900	0.437900	0.358900
C13641	C1364	0.756400	0.409700	0.394700
C13651	C1365	0.760300	0.393800	0.416600
C13661	C1366	0.732300	0.377800	0.427300
C13671	C1367	0.700300	0.377900	0.416200
C13681	C1368	0.696300	0.393800	0.394400
C13691	C1369	0.724400	0.409700	0.383600
C13701	C1370	0.836500	0.344800	0.260300
C13711	C1371	0.850400	0.373000	0.273100
C13721	C1372	0.874800	0.387500	0.259100
C13731	C1373	0.767900	0.258900	0.322300
C13741	C1374	0.795900	0.258900	0.341400
C13751	C1375	0.795000	0.228500	0.355000
C13761	C1376	0.801400	0.372300	0.335000
C13771	C1377	0.844300	0.341500	0.327600
C13781	C1378	0.867000	0.316700	0.319100
C13791	C1379	0.901100	0.316300	0.326700
C13801	C1380	0.912500	0.340900	0.342900
C13811	C1381	0.889800	0.365700	0.351400
C13821	C1382	0.855700	0.366000	0.343800
C13831	C1383	0.862000	0.480300	0.345100
C13841	C1384	0.881700	0.459800	0.333500
C13851	C1385	0.898200	0.481600	0.319900
C13861	C1386	0.875800	0.423800	0.410800
C13871	C1387	0.853600	0.374600	0.405200
C13881	C1388	0.837100	0.343400	0.401100
C13891	C1389	0.845800	0.314400	0.414300
C13901	C1390	0.871100	0.316600	0.431600
C13911	C1391	0.887700	0.347900	0.435800
C13921	C1392	0.879000	0.376800	0.422600
C13931	C1393	0.618200	0.409100	0.362000
C13941	C1394	0.616300	0.439000	0.380300
C13951	C1395	0.588700	0.436100	0.394200
C13961	C1396	0.940700	0.484800	0.413000
C13971	C1397	0.949500	0.463500	0.394000
C13981	C1398	0.956600	0.480400	0.373300
C13991	C1399	0.872000	0.423400	0.487900
C14001	C1400	0.841900	0.409700	0.475400
C14011	C1401	0.814400	0.403500	0.487600
C14021	C1402	0.982700	0.378300	0.468400
C14031	C1403	0.968700	0.354800	0.484600
C14041	C1404	0.981600	0.321300	0.487100
Zn1091	Zn109	0.183200	0.924300	0.837900
Zn1101	Zn110	0.323000	0.924200	0.872600
Zn1111	Zn111	0.280200	0.826200	0.797700
Zn1121	Zn112	0.426500	0.923500	0.948100
Cl2711	Cl271	0.275000	0.938700	0.721400
Cl2721	Cl272	0.252600	0.847700	0.947500
Cl2731	Cl273	0.397200	0.922100	0.771900
Cl2741	Cl274	0.330300	0.727200	0.875200
Cl2751	Cl275	0.454800	0.841400	0.854500
Cl2761	Cl276	0.431100	0.961800	0.800600
Cl2771	Cl277	0.363800	0.777800	0.952600
Cl2781	Cl278	0.087200	0.967300	0.918100
Cl2791	Cl279	0.468600	0.947000	0.851700
Cl2801	Cl280	0.267700	0.908900	0.978200
N4331	N433	0.171100	0.972900	0.829700
N4341	N434	0.206900	0.901300	0.810800
N4351	N435	0.241400	0.861300	0.795300
N4361	N436	0.216400	0.925100	0.863800
N4371	N437	0.270800	0.927000	0.876600
N4381	N438	0.307900	0.823300	0.767600
N4391	N439	0.258400	0.782200	0.804900
N4401	N440	0.328900	0.887800	0.847100
N4411	N441	0.310600	0.844900	0.822300
N4421	N442	0.337900	0.968600	0.863500
N4431	N443	0.396900	0.905000	0.925900
N4441	N444	0.348800	0.907100	0.898700
N4451	N445	0.140700	0.897000	0.845400
N4461	N446	0.435000	0.970700	0.935200
N4471	N447	0.470000	0.902000	0.948800
N4481	N448	0.406500	0.925700	0.979800
C14051	C1405	0.143000	0.979100	0.814700
C14061	C1406	0.116700	0.963700	0.800700
C14071	C1407	0.100200	0.985500	0.784400
C14081	C1408	0.221400	0.870400	0.814000
C14091	C1409	0.217300	0.910700	0.791800
C14101	C1410	0.208300	0.940800	0.780000
C14111	C1411	0.221500	0.947600	0.757600
C14121	C1412	0.243700	0.924100	0.746900
C14131	C1413	0.252700	0.893900	0.758700
C14141	C1414	0.239500	0.887200	0.781100
C14151	C1415	0.249900	0.937900	0.858900
C14161	C1416	0.256400	0.909700	0.894700
C14171	C1417	0.260300	0.893800	0.916600
C14181	C1418	0.232300	0.877800	0.927300
C14191	C1419	0.200300	0.877900	0.916200
C14201	C1420	0.196300	0.893800	0.894400
C14211	C1421	0.224400	0.909700	0.883600
C14221	C1422	0.336500	0.844800	0.760300
C14231	C1423	0.350400	0.873000	0.773100
C14241	C1424	0.374800	0.887500	0.759100
C14251	C1425	0.267900	0.758900	0.822300
C14261	C1426	0.295900	0.758900	0.841400
C14271	C1427	0.295000	0.728500	0.855000
C14281	C1428	0.301400	0.872300	0.835000
C14291	C1429	0.344300	0.841500	0.827600
C14301	C1430	0.367000	0.816700	0.819100
C14311	C1431	0.401100	0.816300	0.826700
C14321	C1432	0.412500	0.840900	0.842900
C14331	C1433	0.389800	0.865700	0.851400
C14341	C1434	0.355700	0.866000	0.843800
C14351	C1435	0.362000	0.980300	0.845100
C14361	C1436	0.381700	0.959800	0.833500
C14371	C1437	0.398200	0.981600	0.819900
C14381	C1438	0.375800	0.923800	0.910800
C14391	C1439	0.353600	0.874600	0.905200
C14401	C1440	0.337100	0.843400	0.901100
C14411	C1441	0.345800	0.814400	0.914300
C14421	C1442	0.371100	0.816600	0.931600
C14431	C1443	0.387700	0.847900	0.935800
C14441	C1444	0.379000	0.876800	0.922600
C14451	C1445	0.118200	0.909100	0.862000
C14461	C1446	0.116300	0.939000	0.880300
C14471	C1447	0.088700	0.936100	0.894200
C14481	C1448	0.440700	0.984800	0.913000
C14491	C1449	0.449500	0.963500	0.894000
C14501	C1450	0.456600	0.980400	0.873300
C14511	C1451	0.372000	0.923400	0.987900
C14521	C1452	0.341900	0.909700	0.975400
C14531	C1453	0.314400	0.903500	0.987600
C14541	C1454	0.482700	0.878300	0.968400
C14551	C1455	0.468700	0.854800	0.984600
C14561	C1456	0.481600	0.821300	0.987100
Zn1131	Zn113	0.575700	0.683200	0.337900
Zn1141	Zn114	0.575800	0.823000	0.372600
Zn1151	Zn115	0.673800	0.780200	0.297700
Zn1161	Zn116	0.576500	0.926500	0.448100
Cl2811	Cl281	0.561300	0.775000	0.221400
Cl2821	Cl282	0.652300	0.752600	0.447500
Cl2831	Cl283	0.577900	0.897200	0.271900
Cl2841	Cl284	0.772800	0.830300	0.375200
Cl2851	Cl285	0.658600	0.954800	0.354500
Cl2861	Cl286	0.538200	0.931100	0.300600
Cl2871	Cl287	0.722200	0.863800	0.452600
Cl2881	Cl288	0.532700	0.587200	0.418100
Cl2891	Cl289	0.553000	0.968600	0.351700
Cl2901	Cl290	0.591100	0.767700	0.478200
N4491	N449	0.527100	0.671100	0.329700
N4501	N450	0.598700	0.706900	0.310800
N4511	N451	0.638700	0.741400	0.295300
N4521	N452	0.574900	0.716400	0.363800
N4531	N453	0.573000	0.770800	0.376600
N4541	N454	0.676700	0.807900	0.267600
N4551	N455	0.717800	0.758400	0.304900
N4561	N456	0.612200	0.828900	0.347100
N4571	N457	0.655100	0.810600	0.322300
N4581	N458	0.531400	0.837900	0.363500
N4591	N459	0.595000	0.896900	0.425900
N4601	N460	0.592900	0.848800	0.398700
N4611	N461	0.603000	0.640700	0.345400
N4621	N462	0.529300	0.935000	0.435200
N4631	N463	0.598000	0.970000	0.448800
N4641	N464	0.574300	0.906500	0.479800
C14571	C1457	0.520900	0.643000	0.314700
C14581	C1458	0.536300	0.616700	0.300700
C14591	C1459	0.514500	0.600200	0.284400
C14601	C1460	0.629600	0.721400	0.314000
C14611	C1461	0.589300	0.717300	0.291800
C14621	C1462	0.559200	0.708300	0.280000
C14631	C1463	0.552400	0.721500	0.257600
C14641	C1464	0.575900	0.743700	0.246900
C14651	C1465	0.606100	0.752700	0.258700
C14661	C1466	0.612800	0.739500	0.281100
C14671	C1467	0.562100	0.749900	0.358900
C14681	C1468	0.590300	0.756400	0.394700
C14691	C1469	0.606200	0.760300	0.416600
C14701	C1470	0.622200	0.732300	0.427300
C14711	C1471	0.622100	0.700300	0.416200
C14721	C1472	0.606200	0.696300	0.394400
C14731	C1473	0.590300	0.724400	0.383600
C14741	C1474	0.655200	0.836500	0.260300
C14751	C1475	0.627000	0.850400	0.273100
C14761	C1476	0.612500	0.874800	0.259100
C14771	C1477	0.741100	0.767900	0.322300
C14781	C1478	0.741100	0.795900	0.341400
C14791	C1479	0.771500	0.795000	0.355000
C14801	C1480	0.627700	0.801400	0.335000
C14811	C1481	0.658500	0.844300	0.327600
C14821	C1482	0.683300	0.867000	0.319100
C14831	C1483	0.683700	0.901100	0.326700
C14841	C1484	0.659100	0.912500	0.342900
C14851	C1485	0.634300	0.889800	0.351400
C14861	C1486	0.634000	0.855700	0.343800
C14871	C1487	0.519700	0.862000	0.345100
C14881	C1488	0.540200	0.881700	0.333500
C14891	C1489	0.518400	0.898200	0.319900
C14901	C1490	0.576200	0.875800	0.410800
C14911	C1491	0.625400	0.853600	0.405200
C14921	C1492	0.656600	0.837100	0.401100
C14931	C1493	0.685600	0.845800	0.414300
C14941	C1494	0.683400	0.871100	0.431600
C14951	C1495	0.652100	0.887700	0.435800
C14961	C1496	0.623200	0.879000	0.422600
C14971	C1497	0.590900	0.618200	0.362000
C14981	C1498	0.561000	0.616300	0.380300
C14991	C1499	0.563900	0.588700	0.394200
C15001	C1500	0.515200	0.940700	0.413000
C15011	C1501	0.536500	0.949500	0.394000
C15021	C1502	0.519600	0.956600	0.373300
C15031	C1503	0.576600	0.872000	0.487900
C15041	C1504	0.590300	0.841900	0.475400
C15051	C1505	0.596500	0.814400	0.487600
C15061	C1506	0.621700	0.982700	0.468400
C15071	C1507	0.645200	0.968700	0.484600
C15081	C1508	0.678700	0.981600	0.487100
Zn1171	Zn117	0.075700	0.183200	0.837900
Zn1181	Zn118	0.075800	0.323000	0.872600
Zn1191	Zn119	0.173800	0.280200	0.797700
Zn1201	Zn120	0.076500	0.426500	0.948100
Cl2911	Cl291	0.061300	0.275000	0.721400
Cl2921	Cl292	0.152300	0.252600	0.947500
Cl2931	Cl293	0.077900	0.397200	0.771900
Cl2941	Cl294	0.272800	0.330300	0.875200
Cl2951	Cl295	0.158600	0.454800	0.854500
Cl2961	Cl296	0.038200	0.431100	0.800600
Cl2971	Cl297	0.222200	0.363800	0.952600
Cl2981	Cl298	0.032700	0.087200	0.918100
Cl2991	Cl299	0.053000	0.468600	0.851700
Cl3001	Cl300	0.091100	0.267700	0.978200
N4651	N465	0.027100	0.171100	0.829700
N4661	N466	0.098700	0.206900	0.810800
N4671	N467	0.138700	0.241400	0.795300
N4681	N468	0.074900	0.216400	0.863800
N4691	N469	0.073000	0.270800	0.876600
N4701	N470	0.176700	0.307900	0.767600
N4711	N471	0.217800	0.258400	0.804900
N4721	N472	0.112200	0.328900	0.847100
N4731	N473	0.155100	0.310600	0.822300
N4741	N474	0.031400	0.337900	0.863500
N4751	N475	0.095000	0.396900	0.925900
N4761	N476	0.092900	0.348800	0.898700
N4771	N477	0.103000	0.140700	0.845400
N4781	N478	0.029300	0.435000	0.935200
N4791	N479	0.098000	0.470000	0.948800
N4801	N480	0.074300	0.406500	0.979800
C15091	C1509	0.020900	0.143000	0.814700
C15101	C1510	0.036300	0.116700	0.800700
C15111	C1511	0.014500	0.100200	0.784400
C15121	C1512	0.129600	0.221400	0.814000
C15131	C1513	0.089300	0.217300	0.791800
C15141	C1514	0.059200	0.208300	0.780000
C15151	C1515	0.052400	0.221500	0.757600
C15161	C1516	0.075900	0.243700	0.746900
C15171	C1517	0.106100	0.252700	0.758700
C15181	C1518	0.112800	0.239500	0.781100
C15191	C1519	0.062100	0.249900	0.858900
C15201	C1520	0.090300	0.256400	0.894700
C15211	C1521	0.106200	0.260300	0.916600
C15221	C1522	0.122200	0.232300	0.927300
C15231	C1523	0.122100	0.200300	0.916200
C15241	C1524	0.106200	0.196300	0.894400
C15251	C1525	0.090300	0.224400	0.883600
C15261	C1526	0.155200	0.336500	0.760300
C15271	C1527	0.127000	0.350400	0.773100
C15281	C1528	0.112500	0.374800	0.759100
C15291	C1529	0.241100	0.267900	0.822300
C15301	C1530	0.241100	0.295900	0.841400
C15311	C1531	0.271500	0.295000	0.855000
C15321	C1532	0.127700	0.301400	0.835000
C15331	C1533	0.158500	0.344300	0.827600
C15341	C1534	0.183300	0.367000	0.819100
C15351	C1535	0.183700	0.401100	0.826700
C15361	C1536	0.159100	0.412500	0.842900
C15371	C1537	0.134300	0.389800	0.851400
C15381	C1538	0.134000	0.355700	0.843800
C15391	C1539	0.019700	0.362000	0.845100
C15401	C1540	0.040200	0.381700	0.833500
C15411	C1541	0.018400	0.398200	0.819900
C15421	C1542	0.076200	0.375800	0.910800
C15431	C1543	0.125400	0.353600	0.905200
C15441	C1544	0.156600	0.337100	0.901100
C15451	C1545	0.185600	0.345800	0.914300
C15461	C1546	0.183400	0.371100	0.931600
C15471	C1547	0.152100	0.387700	0.935800
C15481	C1548	0.123200	0.379000	0.922600
C15491	C1549	0.090900	0.118200	0.862000
C15501	C1550	0.061000	0.116300	0.880300
C15511	C1551	0.063900	0.088700	0.894200
C15521	C1552	0.015200	0.440700	0.913000
C15531	C1553	0.036500	0.449500	0.894000
C15541	C1554	0.019600	0.456600	0.873300
C15551	C1555	0.076600	0.372000	0.987900
C15561	C1556	0.090300	0.341900	0.975400
C15571	C1557	0.096500	0.314400	0.987600
C15581	C1558	0.121700	0.482700	0.968400
C15591	C1559	0.145200	0.468700	0.984600
C15601	C1560	0.178700	0.481600	0.987100
Zn1211	Zn121	0.424300	0.316800	0.337900
Zn1221	Zn122	0.424200	0.177000	0.372600
Zn1231	Zn123	0.326200	0.219800	0.297700
Zn1241	Zn124	0.423500	0.073500	0.448100
Cl3011	Cl301	0.438700	0.225000	0.221400
Cl3021	Cl302	0.347700	0.247400	0.447500
Cl3031	Cl303	0.422100	0.102800	0.271900
Cl3041	Cl304	0.227200	0.169700	0.375200
Cl3051	Cl305	0.341400	0.045200	0.354500
Cl3061	Cl306	0.461800	0.068900	0.300600
Cl3071	Cl307	0.277800	0.136200	0.452600
Cl3081	Cl308	0.467300	0.412800	0.418100
Cl3091	Cl309	0.447000	0.031400	0.351700
Cl3101	Cl310	0.408900	0.232300	0.478200
N4811	N481	0.472900	0.328900	0.329700
N4821	N482	0.401300	0.293100	0.310800
N4831	N483	0.361300	0.258600	0.295300
N4841	N484	0.425100	0.283600	0.363800
N4851	N485	0.427000	0.229200	0.376600
N4861	N486	0.323300	0.192100	0.267600
N4871	N487	0.282200	0.241600	0.304900
N4881	N488	0.387800	0.171100	0.347100
N4891	N489	0.344900	0.189400	0.322300
N4901	N490	0.468600	0.162100	0.363500
N4911	N491	0.405000	0.103100	0.425900
N4921	N492	0.407100	0.151200	0.398700
N4931	N493	0.397000	0.359300	0.345400
N4941	N494	0.470700	0.065000	0.435200
N4951	N495	0.402000	0.030000	0.448800
N4961	N496	0.425700	0.093500	0.479800
C15611	C1561	0.479100	0.357000	0.314700
C15621	C1562	0.463700	0.383300	0.300700
C15631	C1563	0.485500	0.399800	0.284400
C15641	C1564	0.370400	0.278600	0.314000
C15651	C1565	0.410700	0.282700	0.291800
C15661	C1566	0.440800	0.291700	0.280000
C15671	C1567	0.447600	0.278500	0.257600
C15681	C1568	0.424100	0.256300	0.246900
C15691	C1569	0.393900	0.247300	0.258700
C15701	C1570	0.387200	0.260500	0.281100
C15711	C1571	0.437900	0.250100	0.358900
C15721	C1572	0.409700	0.243600	0.394700
C15731	C1573	0.393800	0.239700	0.416600
C15741	C1574	0.377800	0.267700	0.427300
C15751	C1575	0.377900	0.299700	0.416200
C15761	C1576	0.393800	0.303700	0.394400
C15771	C1577	0.409700	0.275600	0.383600
C15781	C1578	0.344800	0.163500	0.260300
C15791	C1579	0.373000	0.149600	0.273100
C15801	C1580	0.387500	0.125200	0.259100
C15811	C1581	0.258900	0.232100	0.322300
C15821	C1582	0.258900	0.204100	0.341400
C15831	C1583	0.228500	0.205000	0.355000
C15841	C1584	0.372300	0.198600	0.335000
C15851	C1585	0.341500	0.155700	0.327600
C15861	C1586	0.316700	0.133000	0.319100
C15871	C1587	0.316300	0.098900	0.326700
C15881	C1588	0.340900	0.087500	0.342900
C15891	C1589	0.365700	0.110200	0.351400
C15901	C1590	0.366000	0.144300	0.343800
C15911	C1591	0.480300	0.138000	0.345100
C15921	C1592	0.459800	0.118300	0.333500
C15931	C1593	0.481600	0.101800	0.319900
C15941	C1594	0.423800	0.124200	0.410800
C15951	C1595	0.374600	0.146400	0.405200
C15961	C1596	0.343400	0.162900	0.401100
C15971	C1597	0.314400	0.154200	0.414300
C15981	C1598	0.316600	0.128900	0.431600
C15991	C1599	0.347900	0.112300	0.435800
C16001	C1600	0.376800	0.121000	0.422600
C16011	C1601	0.409100	0.381800	0.362000
C16021	C1602	0.439000	0.383700	0.380300
C16031	C1603	0.436100	0.411300	0.394200
C16041	C1604	0.484800	0.059300	0.413000
C16051	C1605	0.463500	0.050500	0.394000
C16061	C1606	0.480400	0.043400	0.373300
C16071	C1607	0.423400	0.128000	0.487900
C16081	C1608	0.409700	0.158100	0.475400
C16091	C1609	0.403500	0.185600	0.487600
C16101	C1610	0.378300	0.017300	0.468400
C16111	C1611	0.354800	0.031300	0.484600
C16121	C1612	0.321300	0.018400	0.487100
Zn1251	Zn125	0.924300	0.816800	0.837900
Zn1261	Zn126	0.924200	0.677000	0.872600
Zn1271	Zn127	0.826200	0.719800	0.797700
Zn1281	Zn128	0.923500	0.573500	0.948100
Cl3111	Cl311	0.938700	0.725000	0.721400
Cl3121	Cl312	0.847700	0.747400	0.947500
Cl3131	Cl313	0.922100	0.602800	0.771900
Cl3141	Cl314	0.727200	0.669700	0.875200
Cl3151	Cl315	0.841400	0.545200	0.854500
Cl3161	Cl316	0.961800	0.568900	0.800600
Cl3171	Cl317	0.777800	0.636200	0.952600
Cl3181	Cl318	0.967300	0.912800	0.918100
Cl3191	Cl319	0.947000	0.531400	0.851700
Cl3201	Cl320	0.908900	0.732300	0.978200
N4971	N497	0.972900	0.828900	0.829700
N4981	N498	0.901300	0.793100	0.810800
N4991	N499	0.861300	0.758600	0.795300
N5001	N500	0.925100	0.783600	0.863800
N5011	N501	0.927000	0.729200	0.876600
N5021	N502	0.823300	0.692100	0.767600
N5031	N503	0.782200	0.741600	0.804900
N5041	N504	0.887800	0.671100	0.847100
N5051	N505	0.844900	0.689400	0.822300
N5061	N506	0.968600	0.662100	0.863500
N5071	N507	0.905000	0.603100	0.925900
N5081	N508	0.907100	0.651200	0.898700
N5091	N509	0.897000	0.859300	0.845400
N5101	N510	0.970700	0.565000	0.935200
N5111	N511	0.902000	0.530000	0.948800
N5121	N512	0.925700	0.593500	0.979800
C16131	C1613	0.979100	0.857000	0.814700
C16141	C1614	0.963700	0.883300	0.800700
C16151	C1615	0.985500	0.899800	0.784400
C16161	C1616	0.870400	0.778600	0.814000
C16171	C1617	0.910700	0.782700	0.791800
C16181	C1618	0.940800	0.791700	0.780000
C16191	C1619	0.947600	0.778500	0.757600
C16201	C1620	0.924100	0.756300	0.746900
C16211	C1621	0.893900	0.747300	0.758700
C16221	C1622	0.887200	0.760500	0.781100
C16231	C1623	0.937900	0.750100	0.858900
C16241	C1624	0.909700	0.743600	0.894700
C16251	C1625	0.893800	0.739700	0.916600
C16261	C1626	0.877800	0.767700	0.927300
C16271	C1627	0.877900	0.799700	0.916200
C16281	C1628	0.893800	0.803700	0.894400
C16291	C1629	0.909700	0.775600	0.883600
C16301	C1630	0.844800	0.663500	0.760300
C16311	C1631	0.873000	0.649600	0.773100
C16321	C1632	0.887500	0.625200	0.759100
C16331	C1633	0.758900	0.732100	0.822300
C16341	C1634	0.758900	0.704100	0.841400
C16351	C1635	0.728500	0.705000	0.855000
C16361	C1636	0.872300	0.698600	0.835000
C16371	C1637	0.841500	0.655700	0.827600
C16381	C1638	0.816700	0.633000	0.819100
C16391	C1639	0.816300	0.598900	0.826700
C16401	C1640	0.840900	0.587500	0.842900
C16411	C1641	0.865700	0.610200	0.851400
C16421	C1642	0.866000	0.644300	0.843800
C16431	C1643	0.980300	0.638000	0.845100
C16441	C1644	0.959800	0.618300	0.833500
C16451	C1645	0.981600	0.601800	0.819900
C16461	C1646	0.923800	0.624200	0.910800
C16471	C1647	0.874600	0.646400	0.905200
C16481	C1648	0.843400	0.662900	0.901100
C16491	C1649	0.814400	0.654200	0.914300
C16501	C1650	0.816600	0.628900	0.931600
C16511	C1651	0.847900	0.612300	0.935800
C16521	C1652	0.876800	0.621000	0.922600
C16531	C1653	0.909100	0.881800	0.862000
C16541	C1654	0.939000	0.883700	0.880300
C16551	C1655	0.936100	0.911300	0.894200
C16561	C1656	0.984800	0.559300	0.913000
C16571	C1657	0.963500	0.550500	0.894000
C16581	C1658	0.980400	0.543400	0.873300
C16591	C1659	0.923400	0.628000	0.987900
C16601	C1660	0.909700	0.658100	0.975400
C16611	C1661	0.903500	0.685600	0.987600
C16621	C1662	0.878300	0.517300	0.968400
C16631	C1663	0.854800	0.531300	0.984600
C16641	C1664	0.821300	0.518400	0.987100
C16651	C1665	0.271500	0.271500	0.295800
C16661	C1666	0.369500	0.369500	0.333600
C16671	C1667	0.771500	0.771500	0.795800
C16681	C1668	0.869500	0.869500	0.833600
C16691	C1669	0.728500	0.728500	0.295800
C16701	C1670	0.630500	0.630500	0.333600
C16711	C1671	0.228500	0.228500	0.795800
C16721	C1672	0.130500	0.130500	0.833600
C16731	C1673	0.728500	0.271500	0.295800
C16741	C1674	0.630500	0.369500	0.333600
C16751	C1675	0.228500	0.771500	0.795800
C16761	C1676	0.130500	0.869500	0.833600
C16771	C1677	0.271500	0.728500	0.295800
C16781	C1678	0.369500	0.630500	0.333600
C16791	C1679	0.771500	0.228500	0.795800
C16801	C1680	0.869500	0.130500	0.833600
C16811	C1681	0.728500	0.271500	0.704200
C16821	C1682	0.630500	0.369500	0.666400
C16831	C1683	0.228500	0.771500	0.204200
C16841	C1684	0.130500	0.869500	0.166400
C16851	C1685	0.271500	0.728500	0.704200
C16861	C1686	0.369500	0.630500	0.666400
C16871	C1687	0.771500	0.228500	0.204200
C16881	C1688	0.869500	0.130500	0.166400
C16891	C1689	0.271500	0.271500	0.704200
C16901	C1690	0.369500	0.369500	0.666400
C16911	C1691	0.771500	0.771500	0.204200
C16921	C1692	0.869500	0.869500	0.166400
C16931	C1693	0.728500	0.728500	0.704200
C16941	C1694	0.630500	0.630500	0.666400
C16951	C1695	0.228500	0.228500	0.204200
C16961	C1696	0.130500	0.130500	0.166400
C16971	C1697	0.311100	0.500000	0.339900
C16981	C1698	0.175800	0.500000	0.373400
C16991	C1699	0.069800	0.500000	0.446600
C17001	C1700	0.811100	0.000000	0.839900
C17011	C1701	0.675800	0.000000	0.873400
C17021	C1702	0.569800	0.000000	0.946600
C17031	C1703	0.688900	0.500000	0.339900
C17041	C1704	0.824200	0.500000	0.373400
C17051	C1705	0.930200	0.500000	0.446600
C17061	C1706	0.188900	0.000000	0.839900
C17071	C1707	0.324200	0.000000	0.873400
C17081	C1708	0.430200	0.000000	0.946600
C17091	C1709	0.500000	0.311100	0.339900
C17101	C1710	0.500000	0.175800	0.373400
C17111	C1711	0.500000	0.069800	0.446600
C17121	C1712	0.000000	0.811100	0.839900
C17131	C1713	0.000000	0.675800	0.873400
C17141	C1714	0.000000	0.569800	0.946600
C17151	C1715	0.500000	0.688900	0.339900
C17161	C1716	0.500000	0.824200	0.373400
C17171	C1717	0.500000	0.930200	0.446600
C17181	C1718	0.000000	0.188900	0.839900
C17191	C1719	0.000000	0.324200	0.873400
C17201	C1720	0.000000	0.430200	0.946600
C17211	C1721	0.688900	0.500000	0.660100
C17221	C1722	0.824200	0.500000	0.626600
C17231	C1723	0.930200	0.500000	0.553400
C17241	C1724	0.188900	0.000000	0.160100
C17251	C1725	0.324200	0.000000	0.126600
C17261	C1726	0.430200	0.000000	0.053400
C17271	C1727	0.311100	0.500000	0.660100
C17281	C1728	0.175800	0.500000	0.626600
C17291	C1729	0.069800	0.500000	0.553400
C17301	C1730	0.811100	0.000000	0.160100
C17311	C1731	0.675800	0.000000	0.126600
C17321	C1732	0.569800	0.000000	0.053400
C17331	C1733	0.500000	0.311100	0.660100
C17341	C1734	0.500000	0.175800	0.626600
C17351	C1735	0.500000	0.069800	0.553400
C17361	C1736	0.000000	0.811100	0.160100
C17371	C1737	0.000000	0.675800	0.126600
C17381	C1738	0.000000	0.569800	0.053400
C17391	C1739	0.500000	0.688900	0.660100
C17401	C1740	0.500000	0.824200	0.626600
C17411	C1741	0.500000	0.930200	0.553400
C17421	C1742	0.000000	0.188900	0.160100
C17431	C1743	0.000000	0.324200	0.126600
C17441	C1744	0.000000	0.430200	0.053400
C17451	C1745	0.198200	0.301800	0.250000
C17461	C1746	0.801800	0.698200	0.250000
C17471	C1747	0.698200	0.198200	0.250000
C17481	C1748	0.301800	0.801800	0.250000
C17491	C1749	0.801800	0.301800	0.750000
C17501	C1750	0.198200	0.698200	0.750000
C17511	C1751	0.301800	0.198200	0.750000
C17521	C1752	0.698200	0.801800	0.750000
C17531	C1753	0.801800	0.698200	0.750000
C17541	C1754	0.301800	0.198200	0.250000
C17551	C1755	0.198200	0.301800	0.750000
C17561	C1756	0.301800	0.801800	0.750000
C17571	C1757	0.698200	0.198200	0.750000
C17581	C1758	0.198200	0.698200	0.250000
C17591	C1759	0.801800	0.301800	0.250000
C17601	C1760	0.698200	0.801800	0.250000
C17611	C1761	0.075700	0.427800	0.500000
C17621	C1762	0.575700	0.927800	0.000000
C17631	C1763	0.924300	0.572200	0.500000
C17641	C1764	0.424300	0.072200	0.000000
C17651	C1765	0.572200	0.075700	0.500000
C17661	C1766	0.072200	0.575700	0.000000
C17671	C1767	0.427800	0.924300	0.500000
C17681	C1768	0.927800	0.424300	0.000000
C17691	C1769	0.924300	0.427800	0.500000
C17701	C1770	0.424300	0.927800	0.000000
C17711	C1771	0.075700	0.572200	0.500000
C17721	C1772	0.575700	0.072200	0.000000
C17731	C1773	0.427800	0.075700	0.500000
C17741	C1774	0.927800	0.575700	0.000000
C17751	C1775	0.572200	0.924300	0.500000
C17761	C1776	0.072200	0.424300	0.000000
C17771	C1777	0.000000	0.414200	0.442700
C17781	C1778	0.500000	0.914200	0.942700
C17791	C1779	0.000000	0.585800	0.442700
C17801	C1780	0.500000	0.085800	0.942700
C17811	C1781	0.585800	0.000000	0.442700
C17821	C1782	0.085800	0.500000	0.942700
C17831	C1783	0.414200	0.000000	0.442700
C17841	C1784	0.914200	0.500000	0.942700
C17851	C1785	0.000000	0.414200	0.557300
C17861	C1786	0.500000	0.914200	0.057300
C17871	C1787	0.000000	0.585800	0.557300
C17881	C1788	0.500000	0.085800	0.057300
C17891	C1789	0.414200	0.000000	0.557300
C17901	C1790	0.914200	0.500000	0.057300
C17911	C1791	0.585800	0.000000	0.557300
C17921	C1792	0.085800	0.500000	0.057300
