data_NOHKOM_clean_PM
_symmetry_space_group_name_H-M	'P1'
_cell_length_a	15.251000
_cell_length_b	6.699000
_cell_length_c	14.382000
_cell_angle_alpha	90.000000
_cell_angle_beta	90.000000
_cell_angle_gamma	90.000000
_symmetry_Int_Tables_number 1

loop_
_symmetry_equiv_pos_as_xyz
'x,y,z'

loop_
_atom_site_label
_atom_site_type_symbol
_atom_site_fract_x
_atom_site_fract_y
_atom_site_fract_z
O11	O1	0.853300	0.085300	0.637500
O21	O2	0.704300	0.583000	0.743400
O31	O3	0.646700	0.914700	0.137500
O41	O4	0.795700	0.417000	0.243400
O51	O5	0.146700	0.585300	0.362500
O61	O6	0.295700	0.083000	0.256600
O71	O7	0.353300	0.414700	0.862500
O81	O8	0.204300	0.917000	0.756600
O91	O9	0.146700	0.914700	0.362500
O101	O10	0.295700	0.417000	0.256600
O111	O11	0.353300	0.085300	0.862500
O121	O12	0.204300	0.583000	0.756600
O131	O13	0.853300	0.414700	0.637500
O141	O14	0.704300	0.917000	0.743400
O151	O15	0.646700	0.585300	0.137500
O161	O16	0.795700	0.083000	0.243400
Gd11	Gd1	0.801090	0.750000	0.620730
O171	O17	0.849400	0.750000	0.463000
O181	O18	0.890800	0.750000	0.757100
N11	N1	0.965500	0.750000	0.595400
C11	C1	0.928500	0.750000	0.434000
Na11	Na1	0.735700	0.750000	0.310600
C21	C2	0.970300	0.750000	0.760900
C31	C3	0.996400	0.750000	0.507300
C41	C4	0.019700	0.750000	0.667900
O191	O19	0.949000	0.750000	0.351600
O201	O20	0.019400	0.750000	0.829900
C51	C5	0.087200	0.750000	0.494800
C61	C6	0.106500	0.750000	0.652600
N21	N2	0.142300	0.750000	0.565900
C71	C7	0.128500	0.750000	0.399400
C81	C8	0.173000	0.750000	0.730000
Gd21	Gd2	0.698910	0.250000	0.120730
O211	O21	0.650600	0.250000	0.963000
O221	O22	0.609200	0.250000	0.257100
N31	N3	0.534500	0.250000	0.095400
C91	C9	0.571500	0.250000	0.934000
Na21	Na2	0.764300	0.250000	0.810600
C101	C10	0.529700	0.250000	0.260900
C111	C11	0.503600	0.250000	0.007300
C121	C12	0.480300	0.250000	0.167900
O231	O23	0.551000	0.250000	0.851600
O241	O24	0.480600	0.250000	0.329900
C131	C13	0.412800	0.250000	0.994800
C141	C14	0.393500	0.250000	0.152600
N41	N4	0.357700	0.250000	0.065900
C151	C15	0.371500	0.250000	0.899400
C161	C16	0.327000	0.250000	0.230000
Gd31	Gd3	0.198910	0.250000	0.379270
O251	O25	0.150600	0.250000	0.537000
O261	O26	0.109200	0.250000	0.242900
N51	N5	0.034500	0.250000	0.404600
C171	C17	0.071500	0.250000	0.566000
Na31	Na3	0.264300	0.250000	0.689400
C181	C18	0.029700	0.250000	0.239100
C191	C19	0.003600	0.250000	0.492700
C201	C20	0.980300	0.250000	0.332100
O271	O27	0.051000	0.250000	0.648400
O281	O28	0.980600	0.250000	0.170100
C211	C21	0.912800	0.250000	0.505200
C221	C22	0.893500	0.250000	0.347400
N61	N6	0.857700	0.250000	0.434100
C231	C23	0.871500	0.250000	0.600600
C241	C24	0.827000	0.250000	0.270000
Gd41	Gd4	0.301090	0.750000	0.879270
O291	O29	0.349400	0.750000	0.037000
O301	O30	0.390800	0.750000	0.742900
N71	N7	0.465500	0.750000	0.904600
C251	C25	0.428500	0.750000	0.066000
Na41	Na4	0.235700	0.750000	0.189400
C261	C26	0.470300	0.750000	0.739100
C271	C27	0.496400	0.750000	0.992700
C281	C28	0.519700	0.750000	0.832100
O311	O31	0.449000	0.750000	0.148400
O321	O32	0.519400	0.750000	0.670100
C291	C29	0.587200	0.750000	0.005200
C301	C30	0.606500	0.750000	0.847400
N81	N8	0.642300	0.750000	0.934100
C311	C31	0.628500	0.750000	0.100600
C321	C32	0.673000	0.750000	0.770000
