data_NOHLAZ_clean_PM
_symmetry_space_group_name_H-M	'P1'
_cell_length_a	15.569000
_cell_length_b	6.853300
_cell_length_c	14.397000
_cell_angle_alpha	90.000000
_cell_angle_beta	90.000000
_cell_angle_gamma	90.000000
_symmetry_Int_Tables_number 1

loop_
_symmetry_equiv_pos_as_xyz
'x,y,z'

loop_
_atom_site_label
_atom_site_type_symbol
_atom_site_fract_x
_atom_site_fract_y
_atom_site_fract_z
O11	O1	0.147400	0.589300	0.361500
O21	O2	0.206400	0.909000	0.749700
O31	O3	0.352600	0.410700	0.861500
O41	O4	0.293600	0.091000	0.249700
O51	O5	0.852600	0.089300	0.638500
O61	O6	0.793600	0.409000	0.250300
O71	O7	0.647400	0.910700	0.138500
O81	O8	0.706400	0.591000	0.750300
O91	O9	0.852600	0.410700	0.638500
O101	O10	0.793600	0.091000	0.250300
O111	O11	0.647400	0.589300	0.138500
O121	O12	0.706400	0.909000	0.750300
O131	O13	0.147400	0.910700	0.361500
O141	O14	0.206400	0.591000	0.749700
O151	O15	0.352600	0.089300	0.861500
O161	O16	0.293600	0.409000	0.249700
Sm11	Sm1	0.801810	0.750000	0.621430
O171	O17	0.854000	0.750000	0.459100
O181	O18	0.955500	0.750000	0.349900
O191	O19	0.028300	0.750000	0.826500
O201	O20	0.901200	0.750000	0.759100
N11	N1	0.968100	0.750000	0.593400
N21	N2	0.142200	0.750000	0.561700
C11	C1	0.998800	0.750000	0.506600
C21	C2	0.087400	0.750000	0.491000
C31	C3	0.110900	0.750000	0.647400
C41	C4	0.022300	0.750000	0.663500
C51	C5	0.930700	0.750000	0.431000
C61	C6	0.129200	0.750000	0.396000
C71	C7	0.178900	0.750000	0.722500
C81	C8	0.981700	0.750000	0.758200
Sm21	Sm2	0.698190	0.250000	0.121430
O211	O21	0.646000	0.250000	0.959100
O221	O22	0.544500	0.250000	0.849900
O231	O23	0.471700	0.250000	0.326500
O241	O24	0.598800	0.250000	0.259100
N31	N3	0.531900	0.250000	0.093400
N41	N4	0.357800	0.250000	0.061700
C91	C9	0.501200	0.250000	0.006600
C101	C10	0.412600	0.250000	0.991000
C111	C11	0.389100	0.250000	0.147400
C121	C12	0.477700	0.250000	0.163500
C131	C13	0.569300	0.250000	0.931000
C141	C14	0.370800	0.250000	0.896000
C151	C15	0.321100	0.250000	0.222500
C161	C16	0.518300	0.250000	0.258200
Sm31	Sm3	0.198190	0.250000	0.378570
O251	O25	0.146000	0.250000	0.540900
O261	O26	0.044500	0.250000	0.650100
O271	O27	0.971700	0.250000	0.173500
O281	O28	0.098800	0.250000	0.240900
N51	N5	0.031900	0.250000	0.406600
N61	N6	0.857800	0.250000	0.438300
C171	C17	0.001200	0.250000	0.493400
C181	C18	0.912600	0.250000	0.509000
C191	C19	0.889100	0.250000	0.352600
C201	C20	0.977700	0.250000	0.336500
C211	C21	0.069300	0.250000	0.569000
C221	C22	0.870800	0.250000	0.604000
C231	C23	0.821100	0.250000	0.277500
C241	C24	0.018300	0.250000	0.241800
Sm41	Sm4	0.301810	0.750000	0.878570
O291	O29	0.354000	0.750000	0.040900
O301	O30	0.455500	0.750000	0.150100
O311	O31	0.528300	0.750000	0.673500
O321	O32	0.401200	0.750000	0.740900
N71	N7	0.468100	0.750000	0.906600
N81	N8	0.642200	0.750000	0.938300
C251	C25	0.498800	0.750000	0.993400
C261	C26	0.587400	0.750000	0.009000
C271	C27	0.610900	0.750000	0.852600
C281	C28	0.522300	0.750000	0.836500
C291	C29	0.430700	0.750000	0.069000
C301	C30	0.629200	0.750000	0.104000
C311	C31	0.678900	0.750000	0.777500
C321	C32	0.481700	0.750000	0.741800
Na11	Na1	0.259500	0.250000	0.692100
Na21	Na2	0.240500	0.750000	0.192100
Na31	Na3	0.740500	0.750000	0.307900
Na41	Na4	0.759500	0.250000	0.807900
