data_NOHSUA_clean_PM
_symmetry_space_group_name_H-M	'P1'
_cell_length_a	16.135000
_cell_length_b	26.792000
_cell_length_c	18.630000
_cell_angle_alpha	90.000000
_cell_angle_beta	110.570000
_cell_angle_gamma	90.000000
_symmetry_Int_Tables_number 1

loop_
_symmetry_equiv_pos_as_xyz
'x,y,z'

loop_
_atom_site_label
_atom_site_type_symbol
_atom_site_fract_x
_atom_site_fract_y
_atom_site_fract_z
Ca11	Ca1	0.952260	0.432050	0.970840
Ca21	Ca2	0.278710	0.936990	0.444780
O11	O1	0.063070	0.493870	0.956420
H11	H1	0.114100	0.481700	0.976200
H21	H2	0.054500	0.497300	0.909500
O21	O2	0.852450	0.364840	0.908700
O31	O3	0.787520	0.414680	0.964820
O41	O4	0.023820	0.384810	0.897720
O51	O5	0.938980	0.320730	0.836800
H31	H3	0.910800	0.333400	0.862000
O61	O6	0.240760	0.016940	0.483780
O71	O7	0.380530	0.995250	0.545730
O81	O8	0.375900	0.993850	0.386630
O91	O9	0.234270	0.976780	0.324940
O101	O10	0.970410	0.117380	0.587570
O111	O11	0.084300	0.073990	0.584070
O121	O12	0.502630	0.415190	0.995540
O131	O13	0.626650	0.376790	0.066760
C11	C1	0.452100	0.272400	0.789500
C21	C2	0.377400	0.291260	0.801700
H41	H4	0.383600	0.319700	0.833600
C31	C3	0.294200	0.269480	0.768400
C41	C4	0.286600	0.227170	0.723200
H51	H5	0.230300	0.212100	0.699800
C51	C5	0.360400	0.206510	0.711600
C61	C6	0.442400	0.229930	0.744300
H61	H6	0.492600	0.216600	0.735700
C71	C7	0.538900	0.299100	0.823600
C81	C8	0.618400	0.276740	0.827000
H71	H7	0.618200	0.243800	0.808200
C91	C9	0.697700	0.302590	0.857700
H81	H8	0.751100	0.287400	0.858300
C101	C10	0.700100	0.349990	0.887300
C111	C11	0.621000	0.371870	0.884000
H91	H9	0.621300	0.404500	0.903900
C121	C12	0.542300	0.346850	0.852400
H101	H10	0.488800	0.362800	0.850300
C131	C13	0.784800	0.378350	0.922700
C141	C14	0.217400	0.290150	0.785300
C151	C15	0.215600	0.340470	0.804500
H111	H11	0.260800	0.362200	0.801500
C161	C16	0.149000	0.359220	0.827900
H121	H12	0.149900	0.393200	0.842900
C171	C17	0.080500	0.327740	0.829100
C181	C18	0.079100	0.277950	0.805600
H131	H13	0.031200	0.256800	0.804200
C191	C19	0.147300	0.259580	0.784500
H141	H14	0.146300	0.225700	0.769200
C201	C20	0.012300	0.347470	0.857900
C211	C21	0.350400	0.160580	0.664700
C221	C22	0.272600	0.151670	0.602000
H151	H15	0.226700	0.175900	0.588200
C231	C23	0.261800	0.108130	0.560200
H161	H16	0.208700	0.102600	0.517900
C241	C24	0.328300	0.072210	0.579600
C251	C25	0.406800	0.081000	0.641400
H171	H17	0.453200	0.057100	0.654100
C261	C26	0.417200	0.124380	0.683900
H181	H18	0.470100	0.129700	0.726500
C271	C27	0.315600	0.025850	0.533500
C281	C28	0.295300	0.126100	0.076500
C291	C29	0.241400	0.112790	0.002800
H191	H19	0.204500	0.084200	0.995300
C301	C30	0.240800	0.140910	0.939300
C311	C31	0.293400	0.182590	0.950900
H201	H20	0.294100	0.201300	0.907800
C321	C32	0.346100	0.198270	0.024700
C331	C33	0.347300	0.169400	0.086900
H211	H21	0.383800	0.179100	0.137200
C341	C34	0.297800	0.094770	0.142400
C351	C35	0.376400	0.087210	0.204700
H221	H22	0.429100	0.103200	0.205000
C361	C36	0.379200	0.057300	0.265500
H231	H23	0.433200	0.053500	0.307500
C371	C37	0.303600	0.032610	0.265800
C381	C38	0.223700	0.040460	0.203900
H241	H24	0.171100	0.024500	0.203800
C391	C39	0.221000	0.070630	0.144400
H251	H25	0.166400	0.075500	0.103400
C401	C40	0.304100	0.998790	0.329800
C411	C41	0.188900	0.126080	0.859400
C421	C42	0.097500	0.130690	0.830600
H261	H26	0.066800	0.139800	0.863700
C431	C43	0.050600	0.121960	0.753100
H271	H27	0.988100	0.125500	0.733400
C441	C44	0.095000	0.108150	0.704600
C451	C45	0.185200	0.102460	0.733600
H281	H28	0.215500	0.091300	0.701100
C461	C46	0.232400	0.112870	0.810100
H291	H29	0.295200	0.110900	0.828800
C471	C47	0.046500	0.099170	0.620500
C481	C48	0.397900	0.244950	0.032000
C491	C49	0.357100	0.286300	0.988600
H301	H30	0.296300	0.284500	0.957300
C501	C50	0.403400	0.329570	0.990400
H311	H31	0.374200	0.357700	0.961400
C511	C51	0.493600	0.332330	0.035000
C521	C52	0.534200	0.291180	0.079400
H321	H32	0.595100	0.292900	0.110500
C531	C53	0.487500	0.248180	0.078800
H331	H33	0.515800	0.220700	0.110000
C541	C54	0.544600	0.378200	0.032400
Ca31	Ca3	0.047740	0.932050	0.529160
Ca41	Ca4	0.721290	0.436990	0.055220
O141	O14	0.936930	0.993870	0.543580
H341	H34	0.885900	0.981700	0.523800
H351	H35	0.945500	0.997300	0.590500
O151	O15	0.147550	0.864840	0.591300
O161	O16	0.212480	0.914680	0.535180
O171	O17	0.976180	0.884810	0.602280
O181	O18	0.061020	0.820730	0.663200
H361	H36	0.089200	0.833400	0.638000
O191	O19	0.759240	0.516940	0.016220
O201	O20	0.619470	0.495250	0.954270
O211	O21	0.624100	0.493850	0.113370
O221	O22	0.765730	0.476780	0.175060
O231	O23	0.029590	0.617380	0.912430
O241	O24	0.915700	0.573990	0.915930
O251	O25	0.497370	0.915190	0.504460
O261	O26	0.373350	0.876790	0.433240
C551	C55	0.547900	0.772400	0.710500
C561	C56	0.622600	0.791260	0.698300
H371	H37	0.616400	0.819700	0.666400
C571	C57	0.705800	0.769480	0.731600
C581	C58	0.713400	0.727170	0.776800
H381	H38	0.769700	0.712100	0.800200
C591	C59	0.639600	0.706510	0.788400
C601	C60	0.557600	0.729930	0.755700
H391	H39	0.507400	0.716600	0.764300
C611	C61	0.461100	0.799100	0.676400
C621	C62	0.381600	0.776740	0.673000
H401	H40	0.381800	0.743800	0.691800
C631	C63	0.302300	0.802590	0.642300
H411	H41	0.248900	0.787400	0.641700
C641	C64	0.299900	0.849990	0.612700
C651	C65	0.379000	0.871870	0.616000
H421	H42	0.378700	0.904500	0.596100
C661	C66	0.457700	0.846850	0.647600
H431	H43	0.511200	0.862800	0.649700
C671	C67	0.215200	0.878350	0.577300
C681	C68	0.782600	0.790150	0.714700
C691	C69	0.784400	0.840470	0.695500
H441	H44	0.739200	0.862200	0.698500
C701	C70	0.851000	0.859220	0.672100
H451	H45	0.850100	0.893200	0.657100
C711	C71	0.919500	0.827740	0.670900
C721	C72	0.920900	0.777950	0.694400
H461	H46	0.968800	0.756800	0.695800
C731	C73	0.852700	0.759580	0.715500
H471	H47	0.853700	0.725700	0.730800
C741	C74	0.987700	0.847470	0.642100
C751	C75	0.649600	0.660580	0.835300
C761	C76	0.727400	0.651670	0.898000
H481	H48	0.773300	0.675900	0.911800
C771	C77	0.738200	0.608130	0.939800
H491	H49	0.791300	0.602600	0.982100
C781	C78	0.671700	0.572210	0.920400
C791	C79	0.593200	0.581000	0.858600
H501	H50	0.546800	0.557100	0.845900
C801	C80	0.582800	0.624380	0.816100
H511	H51	0.529900	0.629700	0.773500
C811	C81	0.684400	0.525850	0.966500
C821	C82	0.704700	0.626100	0.423500
C831	C83	0.758600	0.612790	0.497200
H521	H52	0.795500	0.584200	0.504700
C841	C84	0.759200	0.640910	0.560700
C851	C85	0.706600	0.682590	0.549100
H531	H53	0.705900	0.701300	0.592200
C861	C86	0.653900	0.698270	0.475300
C871	C87	0.652700	0.669400	0.413100
H541	H54	0.616200	0.679100	0.362800
C881	C88	0.702200	0.594770	0.357600
C891	C89	0.623600	0.587210	0.295300
H551	H55	0.570900	0.603200	0.295000
C901	C90	0.620800	0.557300	0.234500
H561	H56	0.566800	0.553500	0.192500
C911	C91	0.696400	0.532610	0.234200
C921	C92	0.776300	0.540460	0.296100
H571	H57	0.828900	0.524500	0.296200
C931	C93	0.779000	0.570630	0.355600
H581	H58	0.833600	0.575500	0.396600
C941	C94	0.695900	0.498790	0.170200
C951	C95	0.811100	0.626080	0.640600
C961	C96	0.902500	0.630690	0.669400
H591	H59	0.933200	0.639800	0.636300
C971	C97	0.949400	0.621960	0.746900
H601	H60	0.011900	0.625500	0.766600
C981	C98	0.905000	0.608150	0.795400
C991	C99	0.814800	0.602460	0.766400
H611	H61	0.784500	0.591300	0.798900
C1001	C100	0.767600	0.612870	0.689900
H621	H62	0.704800	0.610900	0.671200
C1011	C101	0.953500	0.599170	0.879500
C1021	C102	0.602100	0.744950	0.468000
C1031	C103	0.642900	0.786300	0.511400
H631	H63	0.703700	0.784500	0.542700
C1041	C104	0.596600	0.829570	0.509600
H641	H64	0.625800	0.857700	0.538600
C1051	C105	0.506400	0.832330	0.465000
C1061	C106	0.465800	0.791180	0.420600
H651	H65	0.404900	0.792900	0.389500
C1071	C107	0.512500	0.748180	0.421200
H661	H66	0.484200	0.720700	0.390000
C1081	C108	0.455400	0.878200	0.467600
Ca51	Ca5	0.047740	0.567950	0.029160
Ca61	Ca6	0.721290	0.063010	0.555220
O271	O27	0.936930	0.506130	0.043580
H671	H67	0.885900	0.518300	0.023800
H681	H68	0.945500	0.502700	0.090500
O281	O28	0.147550	0.635160	0.091300
O291	O29	0.212480	0.585320	0.035180
O301	O30	0.976180	0.615190	0.102280
O311	O31	0.061020	0.679270	0.163200
H691	H69	0.089200	0.666600	0.138000
O321	O32	0.759240	0.983060	0.516220
O331	O33	0.619470	0.004750	0.454270
O341	O34	0.624100	0.006150	0.613370
O351	O35	0.765730	0.023220	0.675060
O361	O36	0.029590	0.882620	0.412430
O371	O37	0.915700	0.926010	0.415930
O381	O38	0.497370	0.584810	0.004460
O391	O39	0.373350	0.623210	0.933240
C1091	C109	0.547900	0.727600	0.210500
C1101	C110	0.622600	0.708740	0.198300
H701	H70	0.616400	0.680300	0.166400
C1111	C111	0.705800	0.730520	0.231600
C1121	C112	0.713400	0.772830	0.276800
H711	H71	0.769700	0.787900	0.300200
C1131	C113	0.639600	0.793490	0.288400
C1141	C114	0.557600	0.770070	0.255700
H721	H72	0.507400	0.783400	0.264300
C1151	C115	0.461100	0.700900	0.176400
C1161	C116	0.381600	0.723260	0.173000
H731	H73	0.381800	0.756200	0.191800
C1171	C117	0.302300	0.697410	0.142300
H741	H74	0.248900	0.712600	0.141700
C1181	C118	0.299900	0.650010	0.112700
C1191	C119	0.379000	0.628130	0.116000
H751	H75	0.378700	0.595500	0.096100
C1201	C120	0.457700	0.653150	0.147600
H761	H76	0.511200	0.637200	0.149700
C1211	C121	0.215200	0.621650	0.077300
C1221	C122	0.782600	0.709850	0.214700
C1231	C123	0.784400	0.659530	0.195500
H771	H77	0.739200	0.637800	0.198500
C1241	C124	0.851000	0.640780	0.172100
H781	H78	0.850100	0.606800	0.157100
C1251	C125	0.919500	0.672260	0.170900
C1261	C126	0.920900	0.722050	0.194400
H791	H79	0.968800	0.743200	0.195800
C1271	C127	0.852700	0.740420	0.215500
H801	H80	0.853700	0.774300	0.230800
C1281	C128	0.987700	0.652530	0.142100
C1291	C129	0.649600	0.839420	0.335300
C1301	C130	0.727400	0.848330	0.398000
H811	H81	0.773300	0.824100	0.411800
C1311	C131	0.738200	0.891870	0.439800
H821	H82	0.791300	0.897400	0.482100
C1321	C132	0.671700	0.927790	0.420400
C1331	C133	0.593200	0.919000	0.358600
H831	H83	0.546800	0.942900	0.345900
C1341	C134	0.582800	0.875620	0.316100
H841	H84	0.529900	0.870300	0.273500
C1351	C135	0.684400	0.974150	0.466500
C1361	C136	0.704700	0.873900	0.923500
C1371	C137	0.758600	0.887210	0.997200
H851	H85	0.795500	0.915800	0.004700
C1381	C138	0.759200	0.859090	0.060700
C1391	C139	0.706600	0.817410	0.049100
H861	H86	0.705900	0.798700	0.092200
C1401	C140	0.653900	0.801730	0.975300
C1411	C141	0.652700	0.830600	0.913100
H871	H87	0.616200	0.820900	0.862800
C1421	C142	0.702200	0.905230	0.857600
C1431	C143	0.623600	0.912790	0.795300
H881	H88	0.570900	0.896800	0.795000
C1441	C144	0.620800	0.942700	0.734500
H891	H89	0.566800	0.946500	0.692500
C1451	C145	0.696400	0.967390	0.734200
C1461	C146	0.776300	0.959540	0.796100
H901	H90	0.828900	0.975500	0.796200
C1471	C147	0.779000	0.929370	0.855600
H911	H91	0.833600	0.924500	0.896600
C1481	C148	0.695900	0.001210	0.670200
C1491	C149	0.811100	0.873920	0.140600
C1501	C150	0.902500	0.869310	0.169400
H921	H92	0.933200	0.860200	0.136300
C1511	C151	0.949400	0.878040	0.246900
H931	H93	0.011900	0.874500	0.266600
C1521	C152	0.905000	0.891850	0.295400
C1531	C153	0.814800	0.897540	0.266400
H941	H94	0.784500	0.908700	0.298900
C1541	C154	0.767600	0.887130	0.189900
H951	H95	0.704800	0.889100	0.171200
C1551	C155	0.953500	0.900830	0.379500
C1561	C156	0.602100	0.755050	0.968000
C1571	C157	0.642900	0.713700	0.011400
H961	H96	0.703700	0.715500	0.042700
C1581	C158	0.596600	0.670430	0.009600
H971	H97	0.625800	0.642300	0.038600
C1591	C159	0.506400	0.667670	0.965000
C1601	C160	0.465800	0.708820	0.920600
H981	H98	0.404900	0.707100	0.889500
C1611	C161	0.512500	0.751820	0.921200
H991	H99	0.484200	0.779300	0.890000
C1621	C162	0.455400	0.621800	0.967600
Ca71	Ca7	0.952260	0.067950	0.470840
Ca81	Ca8	0.278710	0.563010	0.944780
O401	O40	0.063070	0.006130	0.456420
H1001	H100	0.114100	0.018300	0.476200
H1011	H101	0.054500	0.002700	0.409500
O411	O41	0.852450	0.135160	0.408700
O421	O42	0.787520	0.085320	0.464820
O431	O43	0.023820	0.115190	0.397720
O441	O44	0.938980	0.179270	0.336800
H1021	H102	0.910800	0.166600	0.362000
O451	O45	0.240760	0.483060	0.983780
O461	O46	0.380530	0.504750	0.045730
O471	O47	0.375900	0.506150	0.886630
O481	O48	0.234270	0.523220	0.824940
O491	O49	0.970410	0.382620	0.087570
O501	O50	0.084300	0.426010	0.084070
O511	O51	0.502630	0.084810	0.495540
O521	O52	0.626650	0.123210	0.566760
C1631	C163	0.452100	0.227600	0.289500
C1641	C164	0.377400	0.208740	0.301700
H1031	H103	0.383600	0.180300	0.333600
C1651	C165	0.294200	0.230520	0.268400
C1661	C166	0.286600	0.272830	0.223200
H1041	H104	0.230300	0.287900	0.199800
C1671	C167	0.360400	0.293490	0.211600
C1681	C168	0.442400	0.270070	0.244300
H1051	H105	0.492600	0.283400	0.235700
C1691	C169	0.538900	0.200900	0.323600
C1701	C170	0.618400	0.223260	0.327000
H1061	H106	0.618200	0.256200	0.308200
C1711	C171	0.697700	0.197410	0.357700
H1071	H107	0.751100	0.212600	0.358300
C1721	C172	0.700100	0.150010	0.387300
C1731	C173	0.621000	0.128130	0.384000
H1081	H108	0.621300	0.095500	0.403900
C1741	C174	0.542300	0.153150	0.352400
H1091	H109	0.488800	0.137200	0.350300
C1751	C175	0.784800	0.121650	0.422700
C1761	C176	0.217400	0.209850	0.285300
C1771	C177	0.215600	0.159530	0.304500
H1101	H110	0.260800	0.137800	0.301500
C1781	C178	0.149000	0.140780	0.327900
H1111	H111	0.149900	0.106800	0.342900
C1791	C179	0.080500	0.172260	0.329100
C1801	C180	0.079100	0.222050	0.305600
H1121	H112	0.031200	0.243200	0.304200
C1811	C181	0.147300	0.240420	0.284500
H1131	H113	0.146300	0.274300	0.269200
C1821	C182	0.012300	0.152530	0.357900
C1831	C183	0.350400	0.339420	0.164700
C1841	C184	0.272600	0.348330	0.102000
H1141	H114	0.226700	0.324100	0.088200
C1851	C185	0.261800	0.391870	0.060200
H1151	H115	0.208700	0.397400	0.017900
C1861	C186	0.328300	0.427790	0.079600
C1871	C187	0.406800	0.419000	0.141400
H1161	H116	0.453200	0.442900	0.154100
C1881	C188	0.417200	0.375620	0.183900
H1171	H117	0.470100	0.370300	0.226500
C1891	C189	0.315600	0.474150	0.033500
C1901	C190	0.295300	0.373900	0.576500
C1911	C191	0.241400	0.387210	0.502800
H1181	H118	0.204500	0.415800	0.495300
C1921	C192	0.240800	0.359090	0.439300
C1931	C193	0.293400	0.317410	0.450900
H1191	H119	0.294100	0.298700	0.407800
C1941	C194	0.346100	0.301730	0.524700
C1951	C195	0.347300	0.330600	0.586900
H1201	H120	0.383800	0.320900	0.637200
C1961	C196	0.297800	0.405230	0.642400
C1971	C197	0.376400	0.412790	0.704700
H1211	H121	0.429100	0.396800	0.705000
C1981	C198	0.379200	0.442700	0.765500
H1221	H122	0.433200	0.446500	0.807500
C1991	C199	0.303600	0.467390	0.765800
C2001	C200	0.223700	0.459540	0.703900
H1231	H123	0.171100	0.475500	0.703800
C2011	C201	0.221000	0.429370	0.644400
H1241	H124	0.166400	0.424500	0.603400
C2021	C202	0.304100	0.501210	0.829800
C2031	C203	0.188900	0.373920	0.359400
C2041	C204	0.097500	0.369310	0.330600
H1251	H125	0.066800	0.360200	0.363700
C2051	C205	0.050600	0.378040	0.253100
H1261	H126	0.988100	0.374500	0.233400
C2061	C206	0.095000	0.391850	0.204600
C2071	C207	0.185200	0.397540	0.233600
H1271	H127	0.215500	0.408700	0.201100
C2081	C208	0.232400	0.387130	0.310100
H1281	H128	0.295200	0.389100	0.328800
C2091	C209	0.046500	0.400830	0.120500
C2101	C210	0.397900	0.255050	0.532000
C2111	C211	0.357100	0.213700	0.488600
H1291	H129	0.296300	0.215500	0.457300
C2121	C212	0.403400	0.170430	0.490400
H1301	H130	0.374200	0.142300	0.461400
C2131	C213	0.493600	0.167670	0.535000
C2141	C214	0.534200	0.208820	0.579400
H1311	H131	0.595100	0.207100	0.610500
C2151	C215	0.487500	0.251820	0.578800
H1321	H132	0.515800	0.279300	0.610000
C2161	C216	0.544600	0.121800	0.532400
Ca91	Ca9	0.500000	0.000000	0.500000
Ca101	Ca10	0.500000	0.500000	0.000000
