data_NOMQAJ01_clean_PM
_symmetry_space_group_name_H-M	'P1'
_cell_length_a	15.364500
_cell_length_b	15.127500
_cell_length_c	8.311000
_cell_angle_alpha	90.000000
_cell_angle_beta	91.850000
_cell_angle_gamma	90.000000
_symmetry_Int_Tables_number 1

loop_
_symmetry_equiv_pos_as_xyz
'x,y,z'

loop_
_atom_site_label
_atom_site_type_symbol
_atom_site_fract_x
_atom_site_fract_y
_atom_site_fract_z
C11	C1	0.318910	0.085660	0.948500
H11	H1	0.365400	0.116800	0.907500
C21	C2	0.320460	0.993690	0.941800
C31	C3	0.248560	0.948270	0.998600
H21	H2	0.246900	0.886900	0.993900
C41	C4	0.179200	0.994660	0.062400
C51	C5	0.185640	0.086430	0.069600
H31	H3	0.141200	0.118000	0.116500
C61	C6	0.397080	0.946690	0.878900
C71	C7	0.446770	0.984020	0.757800
H41	H4	0.431700	0.038900	0.714900
C81	C8	0.518500	0.939010	0.702100
H51	H5	0.551000	0.964100	0.621400
C91	C9	0.542620	0.857110	0.764500
C101	C10	0.493210	0.819800	0.884900
H61	H6	0.508800	0.765100	0.928200
C111	C11	0.420890	0.863910	0.940200
H71	H7	0.387800	0.838000	0.019300
C121	C12	0.622200	0.809320	0.709100
C131	C13	0.099820	0.948910	0.117300
C141	C14	0.050870	0.983050	0.242300
H81	H8	0.067400	0.035800	0.292000
C151	C15	0.977690	0.938190	0.291900
H91	H9	0.945500	0.961200	0.375000
C161	C16	0.951660	0.859210	0.219100
C171	C17	0.999980	0.825490	0.094500
H101	H10	0.983100	0.772800	0.045000
C181	C18	0.073090	0.869730	0.043400
H111	H11	0.104600	0.846700	0.959500
C191	C19	0.871290	0.811020	0.270400
N11	N1	0.253310	0.131390	0.011610
O11	O1	0.832270	0.842310	0.388900
O21	O2	0.847790	0.742590	0.194900
O31	O3	0.659940	0.841460	0.589700
O41	O4	0.646500	0.740450	0.782200
Zn11	Zn1	0.254100	0.267280	0.012960
C201	C20	0.681090	0.585660	0.551500
H121	H12	0.634600	0.616800	0.592500
C211	C21	0.679540	0.493690	0.558200
C221	C22	0.751440	0.448270	0.501400
H131	H13	0.753100	0.386900	0.506100
C231	C23	0.820800	0.494660	0.437600
C241	C24	0.814360	0.586430	0.430400
H141	H14	0.858800	0.618000	0.383500
C251	C25	0.602920	0.446690	0.621100
C261	C26	0.553230	0.484020	0.742200
H151	H15	0.568300	0.538900	0.785100
C271	C27	0.481500	0.439010	0.797900
H161	H16	0.449000	0.464100	0.878600
C281	C28	0.457380	0.357110	0.735500
C291	C29	0.506790	0.319800	0.615100
H171	H17	0.491200	0.265100	0.571800
C301	C30	0.579110	0.363910	0.559800
H181	H18	0.612200	0.338000	0.480700
C311	C31	0.377800	0.309320	0.790900
C321	C32	0.900180	0.448910	0.382700
C331	C33	0.949130	0.483050	0.257700
H191	H19	0.932600	0.535800	0.208000
C341	C34	0.022310	0.438190	0.208100
H201	H20	0.054500	0.461200	0.125000
C351	C35	0.048340	0.359210	0.280900
C361	C36	0.000020	0.325490	0.405500
H211	H21	0.016900	0.272800	0.455000
C371	C37	0.926910	0.369730	0.456600
H221	H22	0.895400	0.346700	0.540500
C381	C38	0.128710	0.311020	0.229600
N21	N2	0.746690	0.631390	0.488390
O51	O5	0.167730	0.342310	0.111100
O61	O6	0.152210	0.242590	0.305100
O71	O7	0.340060	0.341460	0.910300
O81	O8	0.353500	0.240450	0.717800
Zn21	Zn2	0.745900	0.767280	0.487040
C391	C39	0.681090	0.914340	0.051500
H231	H23	0.634600	0.883200	0.092500
C401	C40	0.679540	0.006310	0.058200
C411	C41	0.751440	0.051730	0.001400
H241	H24	0.753100	0.113100	0.006100
C421	C42	0.820800	0.005340	0.937600
C431	C43	0.814360	0.913570	0.930400
H251	H25	0.858800	0.882000	0.883500
C441	C44	0.602920	0.053310	0.121100
C451	C45	0.553230	0.015980	0.242200
H261	H26	0.568300	0.961100	0.285100
C461	C46	0.481500	0.060990	0.297900
H271	H27	0.449000	0.035900	0.378600
C471	C47	0.457380	0.142890	0.235500
C481	C48	0.506790	0.180200	0.115100
H281	H28	0.491200	0.234900	0.071800
C491	C49	0.579110	0.136090	0.059800
H291	H29	0.612200	0.162000	0.980700
C501	C50	0.377800	0.190680	0.290900
C511	C51	0.900180	0.051090	0.882700
C521	C52	0.949130	0.016950	0.757700
H301	H30	0.932600	0.964200	0.708000
C531	C53	0.022310	0.061810	0.708100
H311	H31	0.054500	0.038800	0.625000
C541	C54	0.048340	0.140790	0.780900
C551	C55	0.000020	0.174510	0.905500
H321	H32	0.016900	0.227200	0.955000
C561	C56	0.926910	0.130270	0.956600
H331	H33	0.895400	0.153300	0.040500
C571	C57	0.128710	0.188980	0.729600
N31	N3	0.746690	0.868610	0.988390
O91	O9	0.167730	0.157690	0.611100
O101	O10	0.152210	0.257410	0.805100
O111	O11	0.340060	0.158540	0.410300
O121	O12	0.353500	0.259550	0.217800
Zn31	Zn3	0.745900	0.732720	0.987040
C581	C58	0.318910	0.414340	0.448500
H341	H34	0.365400	0.383200	0.407500
C591	C59	0.320460	0.506310	0.441800
C601	C60	0.248560	0.551730	0.498600
H351	H35	0.246900	0.613100	0.493900
C611	C61	0.179200	0.505340	0.562400
C621	C62	0.185640	0.413570	0.569600
H361	H36	0.141200	0.382000	0.616500
C631	C63	0.397080	0.553310	0.378900
C641	C64	0.446770	0.515980	0.257800
H371	H37	0.431700	0.461100	0.214900
C651	C65	0.518500	0.560990	0.202100
H381	H38	0.551000	0.535900	0.121400
C661	C66	0.542620	0.642890	0.264500
C671	C67	0.493210	0.680200	0.384900
H391	H39	0.508800	0.734900	0.428200
C681	C68	0.420890	0.636090	0.440200
H401	H40	0.387800	0.662000	0.519300
C691	C69	0.622200	0.690680	0.209100
C701	C70	0.099820	0.551090	0.617300
C711	C71	0.050870	0.516950	0.742300
H411	H41	0.067400	0.464200	0.792000
C721	C72	0.977690	0.561810	0.791900
H421	H42	0.945500	0.538800	0.875000
C731	C73	0.951660	0.640790	0.719100
C741	C74	0.999980	0.674510	0.594500
H431	H43	0.983100	0.727200	0.545000
C751	C75	0.073090	0.630270	0.543400
H441	H44	0.104600	0.653300	0.459500
C761	C76	0.871290	0.688980	0.770400
N41	N4	0.253310	0.368610	0.511610
O131	O13	0.832270	0.657690	0.888900
O141	O14	0.847790	0.757410	0.694900
O151	O15	0.659940	0.658540	0.089700
O161	O16	0.646500	0.759550	0.282200
Zn41	Zn4	0.254100	0.232720	0.512960
