data_NOQKOV_clean_PM
_symmetry_space_group_name_H-M	'P1'
_cell_length_a	11.561800
_cell_length_b	11.849300
_cell_length_c	15.720600
_cell_angle_alpha	76.325000
_cell_angle_beta	71.246000
_cell_angle_gamma	65.330000
_symmetry_Int_Tables_number 1

loop_
_symmetry_equiv_pos_as_xyz
'x,y,z'

loop_
_atom_site_label
_atom_site_type_symbol
_atom_site_fract_x
_atom_site_fract_y
_atom_site_fract_z
Co11	Co1	0.500000	0.500000	0.000000
Co21	Co2	0.000000	0.500000	0.000000
Co31	Co3	0.000000	0.000000	0.000000
H11	H1	0.412100	0.551900	0.202600
H21	H2	0.954100	0.686500	0.553300
H31	H3	0.382000	0.450900	0.345900
H41	H4	0.322600	0.099900	0.377500
H51	H5	0.158200	0.337900	0.143600
H61	H6	0.299500	0.805900	0.057000
H71	H7	0.158200	0.331200	0.291100
H81	H8	0.124000	0.330400	0.848900
H91	H9	0.130800	0.326300	0.702100
H101	H10	0.904800	0.939500	0.343700
H111	H11	0.987600	0.021300	0.804900
H121	H12	0.458400	0.304400	0.464700
H131	H13	0.379100	0.077100	0.741900
H141	H14	0.012400	0.978700	0.195100
H151	H15	0.045900	0.313500	0.446700
H161	H16	0.611300	0.778300	0.386700
H171	H17	0.026700	0.313700	0.599000
H181	H18	0.487400	0.247400	0.101100
H191	H19	0.268200	0.034100	0.888800
H201	H20	0.677400	0.900100	0.622500
H211	H21	0.456800	0.139200	0.242200
H221	H22	0.841800	0.662100	0.856400
H231	H23	0.620900	0.922900	0.258100
H241	H24	0.095200	0.060500	0.656300
H251	H25	0.257500	0.015700	0.526000
H261	H26	0.731800	0.965900	0.111200
H271	H27	0.618000	0.549100	0.654100
H281	H28	0.512600	0.752600	0.898900
H291	H29	0.587900	0.448100	0.797400
H301	H30	0.543200	0.860800	0.757800
H311	H31	0.841800	0.668800	0.708900
H321	H32	0.876000	0.669600	0.151100
H331	H33	0.700500	0.194100	0.943000
H341	H34	0.973300	0.686300	0.401000
H351	H35	0.541600	0.695600	0.535300
H361	H36	0.869200	0.673700	0.297900
H371	H37	0.742500	0.984300	0.474000
H381	H38	0.388700	0.221700	0.613300
C11	C1	0.271000	0.497000	0.965000
C21	C2	0.229200	0.623900	0.993500
C31	C3	0.701600	0.933800	0.246800
C41	C4	0.751600	0.923800	0.318800
C51	C5	0.934500	0.599400	0.179900
C61	C6	0.311400	0.114600	0.584600
C71	C7	0.881700	0.266700	0.006500
C81	C8	0.465300	0.289500	0.151900
C91	C9	0.867800	0.943100	0.296800
C101	C10	0.447400	0.224100	0.236100
C111	C11	0.929500	0.602700	0.268000
C121	C12	0.973600	0.610600	0.531600
C131	C13	0.768300	0.959400	0.159200
C141	C14	0.013100	0.501700	0.313100
C151	C15	0.688600	0.885400	0.415400
C161	C16	0.421900	0.466700	0.210600
C171	C17	0.992400	0.499800	0.591100
C181	C18	0.729000	0.503000	0.035000
C191	C19	0.259800	0.765300	0.036300
C201	C20	0.740200	0.234700	0.963700
C211	C21	0.989700	0.771600	0.972100
C221	C22	0.413800	0.248500	0.477000
C231	C23	0.586200	0.751500	0.523000
C241	C24	0.132200	0.056900	0.703200
C251	C25	0.068400	0.032600	0.792200
C261	C26	0.983200	0.610900	0.441200
C271	C27	0.596500	0.593200	0.703700
C281	C28	0.098800	0.402500	0.263800
C291	C29	0.016800	0.389100	0.558800
C301	C30	0.010300	0.228400	0.027900
C311	C31	0.295500	0.077000	0.513900
C321	C32	0.986900	0.498300	0.686900
C331	C33	0.931600	0.967400	0.207800
C341	C34	0.611100	0.782900	0.594300
C351	C35	0.070500	0.397300	0.732000
C361	C36	0.334000	0.127300	0.425300
C371	C37	0.901200	0.597500	0.736200
C381	C38	0.118300	0.733300	0.993500
C391	C39	0.298400	0.066200	0.753200
C401	C40	0.584500	0.719100	0.687100
C411	C41	0.578100	0.533300	0.789400
C421	C42	0.534700	0.710500	0.848100
C431	C43	0.248400	0.076200	0.681200
C441	C44	0.552600	0.775900	0.763900
C451	C45	0.373400	0.198200	0.565400
C461	C46	0.065500	0.400600	0.820100
C471	C47	0.415500	0.280900	0.312900
C481	C48	0.704500	0.923000	0.486100
C491	C49	0.770800	0.376100	0.006500
C501	C50	0.902100	0.593000	0.824300
C511	C51	0.097900	0.407000	0.175700
C521	C52	0.231700	0.040600	0.840800
C531	C53	0.007600	0.500200	0.408900
C541	C54	0.026400	0.389400	0.468400
C551	C55	0.403500	0.406800	0.296300
C561	C56	0.666000	0.872700	0.574700
C571	C57	0.388900	0.217100	0.405700
C581	C58	0.626600	0.801800	0.434600
N11	N1	0.016000	0.504100	0.132400
N21	N2	0.682200	0.354500	0.979200
N31	N3	0.883000	0.975700	0.138900
N41	N4	0.317800	0.645500	0.020800
N51	N5	0.984000	0.495900	0.867600
N61	N6	0.117000	0.024300	0.861100
N71	N7	0.139900	0.823100	0.019900
N81	N8	0.453300	0.411000	0.136600
N91	N9	0.860100	0.176900	0.980100
N101	N10	0.546700	0.589000	0.863400
O11	O1	0.194600	0.468100	0.942200
O21	O2	0.055000	0.306100	0.032100
O31	O3	0.389500	0.425400	0.962900
O41	O4	0.945000	0.693900	0.967900
O51	O5	0.805400	0.531900	0.057800
O61	O6	0.074200	0.109800	0.038900
O71	O7	0.925800	0.890200	0.961100
O81	O8	0.610500	0.574600	0.037100
