data_NOQPAM_clean_PM
_symmetry_space_group_name_H-M	'P1'
_cell_length_a	10.171900
_cell_length_b	11.555700
_cell_length_c	15.208100
_cell_angle_alpha	106.021000
_cell_angle_beta	109.251000
_cell_angle_gamma	90.597000
_symmetry_Int_Tables_number 1

loop_
_symmetry_equiv_pos_as_xyz
'x,y,z'

loop_
_atom_site_label
_atom_site_type_symbol
_atom_site_fract_x
_atom_site_fract_y
_atom_site_fract_z
Ba11	Ba1	0.593410	0.752560	0.340170
Ba21	Ba2	0.888540	0.328300	0.884230
Ba31	Ba3	0.406600	0.247440	0.659830
Ba41	Ba4	0.111460	0.671700	0.115770
Ce11	Ce1	0.635820	0.790840	0.770420
Ce21	Ce2	0.364180	0.209160	0.229580
H11	H1	0.606100	0.902500	0.137500
H21	H2	0.878200	0.423500	0.199800
H31	H3	0.099500	0.875100	0.875400
H41	H4	0.591000	0.209000	0.879000
H51	H5	0.770300	0.506700	0.551300
H61	H6	0.667000	0.439000	0.712000
H71	H7	0.010200	0.718500	0.576300
H81	H8	0.792100	0.056300	0.217200
H91	H9	0.412000	0.879000	0.197000
H101	H10	0.900500	0.124900	0.124600
H111	H11	0.207900	0.943700	0.782800
H121	H12	0.842900	0.156900	0.508900
H131	H13	0.835900	0.386100	0.331600
H141	H14	0.409000	0.791000	0.121000
H151	H15	0.989800	0.281500	0.423700
H161	H16	0.393900	0.097500	0.862500
H171	H17	0.121800	0.576500	0.800200
H181	H18	0.229700	0.493300	0.448700
H191	H19	0.275000	0.654000	0.326000
H201	H20	0.333000	0.561000	0.288000
H211	H21	0.092400	0.638900	0.398200
H221	H22	0.907600	0.361100	0.601800
H231	H23	0.725000	0.346000	0.674000
H241	H24	0.588000	0.121000	0.803000
H251	H25	0.157100	0.843100	0.491100
H261	H26	0.164100	0.613900	0.668400
C11	C1	0.229400	0.192800	0.403310
C21	C2	0.652600	0.929800	0.102400
C31	C3	0.323800	0.810600	0.595700
C41	C4	0.791700	0.217200	0.489400
C51	C5	0.218700	0.992600	0.004800
C61	C6	0.942800	0.656500	0.781100
C71	C7	0.781300	0.007400	0.995200
C81	C8	0.845600	0.045800	0.929680
C91	C9	0.371900	0.938700	0.662820
C101	C10	0.154400	0.954200	0.070320
C111	C11	0.829000	0.338800	0.545200
C121	C12	0.463600	0.522600	0.606620
C131	C13	0.086100	0.640200	0.683800
C141	C14	0.632200	0.388600	0.430360
C151	C15	0.500200	0.227900	0.054500
C161	C16	0.005400	0.297600	0.371100
C171	C17	0.994600	0.702400	0.628900
C181	C18	0.171000	0.661200	0.454800
C191	C19	0.676200	0.189400	0.404300
C201	C20	0.499800	0.772100	0.945500
C211	C21	0.172500	0.937600	0.904900
C221	C22	0.770600	0.807200	0.596690
C231	C23	0.237400	0.977800	0.850100
C241	C24	0.252300	0.574600	0.484800
C251	C25	0.879100	0.740600	0.653620
C261	C26	0.057200	0.343500	0.218900
C271	C27	0.060900	0.617300	0.761800
C281	C28	0.387100	0.121200	0.997080
C291	C29	0.612900	0.878800	0.002920
C301	C30	0.367800	0.611400	0.569640
C311	C31	0.902500	0.635100	0.863490
C321	C32	0.628100	0.061300	0.337180
C331	C33	0.347400	0.070200	0.897600
C341	C34	0.208300	0.782800	0.510600
C351	C35	0.536400	0.477400	0.393380
C361	C36	0.120900	0.259400	0.346380
C371	C37	0.939100	0.382700	0.238200
C381	C38	0.097500	0.364900	0.136510
C391	C39	0.913900	0.359800	0.316200
C401	C40	0.762600	0.022200	0.149900
C411	C41	0.747700	0.425400	0.515200
C421	C42	0.827500	0.062400	0.095100
N11	N1	0.598100	0.273500	0.375480
N21	N2	0.677100	0.917000	0.949990
N31	N3	0.854600	0.717820	0.728870
N41	N4	0.322900	0.083000	0.050010
N51	N5	0.401900	0.726500	0.624520
N61	N6	0.136000	0.310100	0.728200
N71	N7	0.864000	0.689900	0.271800
N81	N8	0.145400	0.282180	0.271130
O11	O1	0.811000	0.974970	0.843120
O21	O2	0.778100	0.752270	0.229860
O31	O3	0.607000	0.194710	0.828520
O41	O4	0.303600	0.627610	0.280230
O51	O5	0.924000	0.142140	0.963190
O61	O6	0.393000	0.805290	0.171480
O71	O7	0.027000	0.428970	0.088440
O81	O8	0.487600	0.725170	0.856650
O91	O9	0.973000	0.571030	0.911560
O101	O10	0.300100	0.020500	0.643370
O111	O11	0.575900	0.569100	0.677850
O121	O12	0.569000	0.262110	0.010730
O131	O13	0.424100	0.430900	0.322150
O141	O14	0.211000	0.170260	0.474120
O151	O15	0.797110	0.684140	0.876360
O161	O16	0.515530	0.047390	0.264940
O171	O17	0.189000	0.025030	0.156880
O181	O18	0.696400	0.372390	0.719770
O191	O19	0.844600	0.656000	0.338230
O201	O20	0.699900	0.979500	0.356630
O211	O21	0.076000	0.857860	0.036810
O221	O22	0.967900	0.661590	0.247010
O231	O23	0.155400	0.344000	0.661770
O241	O24	0.330200	0.165960	0.373630
O251	O25	0.512400	0.274830	0.143350
O261	O26	0.484470	0.952610	0.735060
O271	O27	0.431000	0.737890	0.989270
O281	O28	0.202890	0.315860	0.123640
O291	O29	0.425700	0.412920	0.565980
O301	O30	0.221900	0.247730	0.770140
O311	O31	0.032100	0.338410	0.752990
O321	O32	0.789000	0.829740	0.525880
O331	O33	0.669800	0.834040	0.626370
O341	O34	0.574300	0.587080	0.434020
