data_NORBUT_clean_PM
_symmetry_space_group_name_H-M	'P1'
_cell_length_a	27.819000
_cell_length_b	27.819000
_cell_length_c	12.613000
_cell_angle_alpha	90.000000
_cell_angle_beta	90.000000
_cell_angle_gamma	120.000000
_symmetry_Int_Tables_number 1

loop_
_symmetry_equiv_pos_as_xyz
'x,y,z'

loop_
_atom_site_label
_atom_site_type_symbol
_atom_site_fract_x
_atom_site_fract_y
_atom_site_fract_z
O11	O1	0.594140	0.087910	0.081300
O21	O2	0.620800	0.092800	0.915300
O31	O3	0.595970	0.088150	0.304600
O41	O4	0.608710	0.072910	0.470100
O51	O5	0.625600	0.012890	0.121800
H11	H1	0.622200	0.040600	0.107000
H21	H2	0.595800	0.982800	0.112000
C11	C1	0.596560	0.103500	0.985300
H31	H3	0.559900	0.176200	0.827000
H41	H4	0.634200	0.212100	0.014000
C21	C2	0.591040	0.092950	0.403500
H51	H5	0.605200	0.154100	0.581000
H61	H6	0.573600	0.203600	0.407100
O61	O6	0.260810	0.421240	0.414630
O71	O7	0.287470	0.426130	0.248630
O81	O8	0.262640	0.421480	0.637930
O91	O9	0.275380	0.406240	0.803430
O101	O10	0.292270	0.346220	0.455130
H71	H7	0.288870	0.373930	0.440330
H81	H8	0.262470	0.316130	0.445330
C31	C3	0.263230	0.436830	0.318630
H91	H9	0.226570	0.509530	0.160330
H101	H10	0.300870	0.545430	0.347330
C41	C4	0.257710	0.426280	0.736830
H111	H11	0.271870	0.487430	0.914330
H121	H12	0.240270	0.536930	0.740430
O111	O11	0.927470	0.754580	0.747970
O121	O12	0.954130	0.759470	0.581970
O131	O13	0.929300	0.754820	0.971270
O141	O14	0.942040	0.739580	0.136770
O151	O15	0.958930	0.679560	0.788470
H131	H13	0.955530	0.707270	0.773670
H141	H14	0.929130	0.649470	0.778670
C51	C5	0.929890	0.770170	0.651970
H151	H15	0.893230	0.842870	0.493670
H161	H16	0.967530	0.878770	0.680670
C61	C6	0.924370	0.759620	0.070170
H171	H17	0.938530	0.820770	0.247670
H181	H18	0.906930	0.870270	0.073770
O161	O16	0.912090	0.506230	0.081300
O171	O17	0.907200	0.528000	0.915300
O181	O18	0.911850	0.507820	0.304600
O191	O19	0.927090	0.535800	0.470100
O201	O20	0.987110	0.612710	0.121800
H191	H19	0.959400	0.581600	0.107000
H201	H20	0.017200	0.613000	0.112000
C71	C7	0.896500	0.493060	0.985300
H211	H21	0.823800	0.383700	0.827000
H221	H22	0.787900	0.422100	0.014000
C81	C8	0.907050	0.498090	0.403500
H231	H23	0.845900	0.451100	0.581000
H241	H24	0.796400	0.370000	0.407100
O211	O21	0.578760	0.839560	0.414630
O221	O22	0.573870	0.861330	0.248630
O231	O23	0.578520	0.841150	0.637930
O241	O24	0.593760	0.869130	0.803430
O251	O25	0.653780	0.946040	0.455130
H251	H25	0.626070	0.914930	0.440330
H261	H26	0.683870	0.946330	0.445330
C91	C9	0.563170	0.826390	0.318630
H271	H27	0.490470	0.717030	0.160330
H281	H28	0.454570	0.755430	0.347330
C101	C10	0.573720	0.831420	0.736830
H291	H29	0.512570	0.784430	0.914330
H301	H30	0.463070	0.703330	0.740430
O261	O26	0.245420	0.172900	0.747970
O271	O27	0.240530	0.194670	0.581970
O281	O28	0.245180	0.174490	0.971270
O291	O29	0.260420	0.202470	0.136770
O301	O30	0.320440	0.279380	0.788470
H311	H31	0.292730	0.248270	0.773670
H321	H32	0.350530	0.279670	0.778670
C111	C11	0.229830	0.159730	0.651970
H331	H33	0.157130	0.050370	0.493670
H341	H34	0.121230	0.088770	0.680670
C121	C12	0.240380	0.164760	0.070170
H351	H35	0.179230	0.117770	0.247670
H361	H36	0.129730	0.036670	0.073770
O311	O31	0.493770	0.405860	0.081300
O321	O32	0.472000	0.379200	0.915300
O331	O33	0.492180	0.404030	0.304600
O341	O34	0.464200	0.391290	0.470100
O351	O35	0.387290	0.374400	0.121800
H371	H37	0.418400	0.377800	0.107000
H381	H38	0.387000	0.404200	0.112000
C131	C13	0.506940	0.403440	0.985300
H391	H39	0.616300	0.440100	0.827000
H401	H40	0.577900	0.365800	0.014000
C141	C14	0.501910	0.408960	0.403500
H411	H41	0.548900	0.394800	0.581000
H421	H42	0.630000	0.426400	0.407100
O361	O36	0.160440	0.739190	0.414630
O371	O37	0.138670	0.712530	0.248630
O381	O38	0.158850	0.737360	0.637930
O391	O39	0.130870	0.724620	0.803430
O401	O40	0.053960	0.707730	0.455130
H431	H43	0.085070	0.711130	0.440330
H441	H44	0.053670	0.737530	0.445330
C151	C15	0.173610	0.736770	0.318630
H451	H45	0.282970	0.773430	0.160330
H461	H46	0.244570	0.699130	0.347330
C161	C16	0.168580	0.742290	0.736830
H471	H47	0.215570	0.728130	0.914330
H481	H48	0.296670	0.759730	0.740430
O411	O41	0.827100	0.072530	0.747970
O421	O42	0.805330	0.045870	0.581970
O431	O43	0.825510	0.070700	0.971270
O441	O44	0.797530	0.057960	0.136770
O451	O45	0.720620	0.041070	0.788470
H491	H49	0.751730	0.044470	0.773670
H501	H50	0.720330	0.070870	0.778670
C171	C17	0.840270	0.070110	0.651970
H511	H51	0.949630	0.106770	0.493670
H521	H52	0.911230	0.032470	0.680670
C181	C18	0.835240	0.075630	0.070170
H531	H53	0.882230	0.061470	0.247670
H541	H54	0.963330	0.093070	0.073770
O461	O46	0.087910	0.594140	0.918700
O471	O47	0.092800	0.620800	0.084700
O481	O48	0.088150	0.595970	0.695400
O491	O49	0.072910	0.608710	0.529900
O501	O50	0.012890	0.625600	0.878200
H551	H55	0.040600	0.622200	0.893000
H561	H56	0.982800	0.595800	0.888000
C191	C19	0.103500	0.596560	0.014700
H571	H57	0.176200	0.559900	0.173000
H581	H58	0.212100	0.634200	0.986000
C201	C20	0.092950	0.591040	0.596500
H591	H59	0.154100	0.605200	0.419000
H601	H60	0.203600	0.573600	0.592900
O511	O51	0.754580	0.927470	0.252030
O521	O52	0.759470	0.954130	0.418030
O531	O53	0.754820	0.929300	0.028730
O541	O54	0.739580	0.942040	0.863230
O551	O55	0.679560	0.958930	0.211530
H611	H61	0.707270	0.955530	0.226330
H621	H62	0.649470	0.929130	0.221330
C211	C21	0.770170	0.929890	0.348030
H631	H63	0.842870	0.893230	0.506330
H641	H64	0.878770	0.967530	0.319330
C221	C22	0.759620	0.924370	0.929830
H651	H65	0.820770	0.938530	0.752330
H661	H66	0.870270	0.906930	0.926230
O561	O56	0.421240	0.260810	0.585370
O571	O57	0.426130	0.287470	0.751370
O581	O58	0.421480	0.262640	0.362070
O591	O59	0.406240	0.275380	0.196570
O601	O60	0.346220	0.292270	0.544870
H671	H67	0.373930	0.288870	0.559670
H681	H68	0.316130	0.262470	0.554670
C231	C23	0.436830	0.263230	0.681370
H691	H69	0.509530	0.226570	0.839670
H701	H70	0.545430	0.300870	0.652670
C241	C24	0.426280	0.257710	0.263170
H711	H71	0.487430	0.271870	0.085670
H721	H72	0.536930	0.240270	0.259570
O611	O61	0.506230	0.912090	0.918700
O621	O62	0.528000	0.907200	0.084700
O631	O63	0.507820	0.911850	0.695400
O641	O64	0.535800	0.927090	0.529900
O651	O65	0.612710	0.987110	0.878200
H731	H73	0.581600	0.959400	0.893000
H741	H74	0.613000	0.017200	0.888000
C251	C25	0.493060	0.896500	0.014700
H751	H75	0.383700	0.823800	0.173000
H761	H76	0.422100	0.787900	0.986000
C261	C26	0.498090	0.907050	0.596500
H771	H77	0.451100	0.845900	0.419000
H781	H78	0.370000	0.796400	0.592900
O661	O66	0.172900	0.245420	0.252030
O671	O67	0.194670	0.240530	0.418030
O681	O68	0.174490	0.245180	0.028730
O691	O69	0.202470	0.260420	0.863230
O701	O70	0.279380	0.320440	0.211530
H791	H79	0.248270	0.292730	0.226330
H801	H80	0.279670	0.350530	0.221330
C271	C27	0.159730	0.229830	0.348030
H811	H81	0.050370	0.157130	0.506330
H821	H82	0.088770	0.121230	0.319330
C281	C28	0.164760	0.240380	0.929830
H831	H83	0.117770	0.179230	0.752330
H841	H84	0.036670	0.129730	0.926230
O711	O71	0.839560	0.578760	0.585370
O721	O72	0.861330	0.573870	0.751370
O731	O73	0.841150	0.578520	0.362070
O741	O74	0.869130	0.593760	0.196570
O751	O75	0.946040	0.653780	0.544870
H851	H85	0.914930	0.626070	0.559670
H861	H86	0.946330	0.683870	0.554670
C291	C29	0.826390	0.563170	0.681370
H871	H87	0.717030	0.490470	0.839670
H881	H88	0.755430	0.454570	0.652670
C301	C30	0.831420	0.573720	0.263170
H891	H89	0.784430	0.512570	0.085670
H901	H90	0.703330	0.463070	0.259570
O761	O76	0.405860	0.493770	0.918700
O771	O77	0.379200	0.472000	0.084700
O781	O78	0.404030	0.492180	0.695400
O791	O79	0.391290	0.464200	0.529900
O801	O80	0.374400	0.387290	0.878200
H911	H91	0.377800	0.418400	0.893000
H921	H92	0.404200	0.387000	0.888000
C311	C31	0.403440	0.506940	0.014700
H931	H93	0.440100	0.616300	0.173000
H941	H94	0.365800	0.577900	0.986000
C321	C32	0.408960	0.501910	0.596500
H951	H95	0.394800	0.548900	0.419000
H961	H96	0.426400	0.630000	0.592900
O811	O81	0.072530	0.827100	0.252030
O821	O82	0.045870	0.805330	0.418030
O831	O83	0.070700	0.825510	0.028730
O841	O84	0.057960	0.797530	0.863230
O851	O85	0.041070	0.720620	0.211530
H971	H97	0.044470	0.751730	0.226330
H981	H98	0.070870	0.720330	0.221330
C331	C33	0.070110	0.840270	0.348030
H991	H99	0.106770	0.949630	0.506330
H1001	H100	0.032470	0.911230	0.319330
C341	C34	0.075630	0.835240	0.929830
H1011	H101	0.061470	0.882230	0.752330
H1021	H102	0.093070	0.963330	0.926230
O861	O86	0.739190	0.160440	0.585370
O871	O87	0.712530	0.138670	0.751370
O881	O88	0.737360	0.158850	0.362070
O891	O89	0.724620	0.130870	0.196570
O901	O90	0.707730	0.053960	0.544870
H1031	H103	0.711130	0.085070	0.559670
H1041	H104	0.737530	0.053670	0.554670
C351	C35	0.736770	0.173610	0.681370
H1051	H105	0.773430	0.282970	0.839670
H1061	H106	0.699130	0.244570	0.652670
C361	C36	0.742290	0.168580	0.263170
H1071	H107	0.728130	0.215570	0.085670
H1081	H108	0.759730	0.296670	0.259570
O911	O91	0.405860	0.912090	0.918700
O921	O92	0.379200	0.907200	0.084700
O931	O93	0.404030	0.911850	0.695400
O941	O94	0.391290	0.927090	0.529900
O951	O95	0.374400	0.987110	0.878200
H1091	H109	0.377800	0.959400	0.893000
H1101	H110	0.404200	0.017200	0.888000
C371	C37	0.403440	0.896500	0.014700
H1111	H111	0.440100	0.823800	0.173000
H1121	H112	0.365800	0.787900	0.986000
C381	C38	0.408960	0.907050	0.596500
H1131	H113	0.394800	0.845900	0.419000
H1141	H114	0.426400	0.796400	0.592900
O961	O96	0.072530	0.245420	0.252030
O971	O97	0.045870	0.240530	0.418030
O981	O98	0.070700	0.245180	0.028730
O991	O99	0.057960	0.260420	0.863230
O1001	O100	0.041070	0.320440	0.211530
H1151	H115	0.044470	0.292730	0.226330
H1161	H116	0.070870	0.350530	0.221330
C391	C39	0.070110	0.229830	0.348030
H1171	H117	0.106770	0.157130	0.506330
H1181	H118	0.032470	0.121230	0.319330
C401	C40	0.075630	0.240380	0.929830
H1191	H119	0.061470	0.179230	0.752330
H1201	H120	0.093070	0.129730	0.926230
O1011	O101	0.739190	0.578760	0.585370
O1021	O102	0.712530	0.573870	0.751370
O1031	O103	0.737360	0.578520	0.362070
O1041	O104	0.724620	0.593760	0.196570
O1051	O105	0.707730	0.653780	0.544870
H1211	H121	0.711130	0.626070	0.559670
H1221	H122	0.737530	0.683870	0.554670
C411	C41	0.736770	0.563170	0.681370
H1231	H123	0.773430	0.490470	0.839670
H1241	H124	0.699130	0.454570	0.652670
C421	C42	0.742290	0.573720	0.263170
H1251	H125	0.728130	0.512570	0.085670
H1261	H126	0.759730	0.463070	0.259570
O1061	O106	0.087910	0.493770	0.918700
O1071	O107	0.092800	0.472000	0.084700
O1081	O108	0.088150	0.492180	0.695400
O1091	O109	0.072910	0.464200	0.529900
O1101	O110	0.012890	0.387290	0.878200
H1271	H127	0.040600	0.418400	0.893000
H1281	H128	0.982800	0.387000	0.888000
C431	C43	0.103500	0.506940	0.014700
H1291	H129	0.176200	0.616300	0.173000
H1301	H130	0.212100	0.577900	0.986000
C441	C44	0.092950	0.501910	0.596500
H1311	H131	0.154100	0.548900	0.419000
H1321	H132	0.203600	0.630000	0.592900
O1111	O111	0.754580	0.827100	0.252030
O1121	O112	0.759470	0.805330	0.418030
O1131	O113	0.754820	0.825510	0.028730
O1141	O114	0.739580	0.797530	0.863230
O1151	O115	0.679560	0.720620	0.211530
H1331	H133	0.707270	0.751730	0.226330
H1341	H134	0.649470	0.720330	0.221330
C451	C45	0.770170	0.840270	0.348030
H1351	H135	0.842870	0.949630	0.506330
H1361	H136	0.878770	0.911230	0.319330
C461	C46	0.759620	0.835240	0.929830
H1371	H137	0.820770	0.882230	0.752330
H1381	H138	0.870270	0.963330	0.926230
O1161	O116	0.421240	0.160440	0.585370
O1171	O117	0.426130	0.138670	0.751370
O1181	O118	0.421480	0.158850	0.362070
O1191	O119	0.406240	0.130870	0.196570
O1201	O120	0.346220	0.053960	0.544870
H1391	H139	0.373930	0.085070	0.559670
H1401	H140	0.316130	0.053670	0.554670
C471	C47	0.436830	0.173610	0.681370
H1411	H141	0.509530	0.282970	0.839670
H1421	H142	0.545430	0.244570	0.652670
C481	C48	0.426280	0.168580	0.263170
H1431	H143	0.487430	0.215570	0.085670
H1441	H144	0.536930	0.296670	0.259570
O1211	O121	0.506230	0.594140	0.918700
O1221	O122	0.528000	0.620800	0.084700
O1231	O123	0.507820	0.595970	0.695400
O1241	O124	0.535800	0.608710	0.529900
O1251	O125	0.612710	0.625600	0.878200
H1451	H145	0.581600	0.622200	0.893000
H1461	H146	0.613000	0.595800	0.888000
C491	C49	0.493060	0.596560	0.014700
H1471	H147	0.383700	0.559900	0.173000
H1481	H148	0.422100	0.634200	0.986000
C501	C50	0.498090	0.591040	0.596500
H1491	H149	0.451100	0.605200	0.419000
H1501	H150	0.370000	0.573600	0.592900
O1261	O126	0.172900	0.927470	0.252030
O1271	O127	0.194670	0.954130	0.418030
O1281	O128	0.174490	0.929300	0.028730
O1291	O129	0.202470	0.942040	0.863230
O1301	O130	0.279380	0.958930	0.211530
H1511	H151	0.248270	0.955530	0.226330
H1521	H152	0.279670	0.929130	0.221330
C511	C51	0.159730	0.929890	0.348030
H1531	H153	0.050370	0.893230	0.506330
H1541	H154	0.088770	0.967530	0.319330
C521	C52	0.164760	0.924370	0.929830
H1551	H155	0.117770	0.938530	0.752330
H1561	H156	0.036670	0.906930	0.926230
O1311	O131	0.839560	0.260810	0.585370
O1321	O132	0.861330	0.287470	0.751370
O1331	O133	0.841150	0.262640	0.362070
O1341	O134	0.869130	0.275380	0.196570
O1351	O135	0.946040	0.292270	0.544870
H1571	H157	0.914930	0.288870	0.559670
H1581	H158	0.946330	0.262470	0.554670
C531	C53	0.826390	0.263230	0.681370
H1591	H159	0.717030	0.226570	0.839670
H1601	H160	0.755430	0.300870	0.652670
C541	C54	0.831420	0.257710	0.263170
H1611	H161	0.784430	0.271870	0.085670
H1621	H162	0.703330	0.240270	0.259570
O1361	O136	0.912090	0.405860	0.081300
O1371	O137	0.907200	0.379200	0.915300
O1381	O138	0.911850	0.404030	0.304600
O1391	O139	0.927090	0.391290	0.470100
O1401	O140	0.987110	0.374400	0.121800
H1631	H163	0.959400	0.377800	0.107000
H1641	H164	0.017200	0.404200	0.112000
C551	C55	0.896500	0.403440	0.985300
H1651	H165	0.823800	0.440100	0.827000
H1661	H166	0.787900	0.365800	0.014000
C561	C56	0.907050	0.408960	0.403500
H1671	H167	0.845900	0.394800	0.581000
H1681	H168	0.796400	0.426400	0.407100
O1411	O141	0.578760	0.739190	0.414630
O1421	O142	0.573870	0.712530	0.248630
O1431	O143	0.578520	0.737360	0.637930
O1441	O144	0.593760	0.724620	0.803430
O1451	O145	0.653780	0.707730	0.455130
H1691	H169	0.626070	0.711130	0.440330
H1701	H170	0.683870	0.737530	0.445330
C571	C57	0.563170	0.736770	0.318630
H1711	H171	0.490470	0.773430	0.160330
H1721	H172	0.454570	0.699130	0.347330
C581	C58	0.573720	0.742290	0.736830
H1731	H173	0.512570	0.728130	0.914330
H1741	H174	0.463070	0.759730	0.740430
O1461	O146	0.245420	0.072530	0.747970
O1471	O147	0.240530	0.045870	0.581970
O1481	O148	0.245180	0.070700	0.971270
O1491	O149	0.260420	0.057960	0.136770
O1501	O150	0.320440	0.041070	0.788470
H1751	H175	0.292730	0.044470	0.773670
H1761	H176	0.350530	0.070870	0.778670
C591	C59	0.229830	0.070110	0.651970
H1771	H177	0.157130	0.106770	0.493670
H1781	H178	0.121230	0.032470	0.680670
C601	C60	0.240380	0.075630	0.070170
H1791	H179	0.179230	0.061470	0.247670
H1801	H180	0.129730	0.093070	0.073770
O1511	O151	0.493770	0.087910	0.081300
O1521	O152	0.472000	0.092800	0.915300
O1531	O153	0.492180	0.088150	0.304600
O1541	O154	0.464200	0.072910	0.470100
O1551	O155	0.387290	0.012890	0.121800
H1811	H181	0.418400	0.040600	0.107000
H1821	H182	0.387000	0.982800	0.112000
C611	C61	0.506940	0.103500	0.985300
H1831	H183	0.616300	0.176200	0.827000
H1841	H184	0.577900	0.212100	0.014000
C621	C62	0.501910	0.092950	0.403500
H1851	H185	0.548900	0.154100	0.581000
H1861	H186	0.630000	0.203600	0.407100
O1561	O156	0.160440	0.421240	0.414630
O1571	O157	0.138670	0.426130	0.248630
O1581	O158	0.158850	0.421480	0.637930
O1591	O159	0.130870	0.406240	0.803430
O1601	O160	0.053960	0.346220	0.455130
H1871	H187	0.085070	0.373930	0.440330
H1881	H188	0.053670	0.316130	0.445330
C631	C63	0.173610	0.436830	0.318630
H1891	H189	0.282970	0.509530	0.160330
H1901	H190	0.244570	0.545430	0.347330
C641	C64	0.168580	0.426280	0.736830
H1911	H191	0.215570	0.487430	0.914330
H1921	H192	0.296670	0.536930	0.740430
O1611	O161	0.827100	0.754580	0.747970
O1621	O162	0.805330	0.759470	0.581970
O1631	O163	0.825510	0.754820	0.971270
O1641	O164	0.797530	0.739580	0.136770
O1651	O165	0.720620	0.679560	0.788470
H1931	H193	0.751730	0.707270	0.773670
H1941	H194	0.720330	0.649470	0.778670
C651	C65	0.840270	0.770170	0.651970
H1951	H195	0.949630	0.842870	0.493670
H1961	H196	0.911230	0.878770	0.680670
C661	C66	0.835240	0.759620	0.070170
H1971	H197	0.882230	0.820770	0.247670
H1981	H198	0.963330	0.870270	0.073770
O1661	O166	0.594140	0.506230	0.081300
O1671	O167	0.620800	0.528000	0.915300
O1681	O168	0.595970	0.507820	0.304600
O1691	O169	0.608710	0.535800	0.470100
O1701	O170	0.625600	0.612710	0.121800
H1991	H199	0.622200	0.581600	0.107000
H2001	H200	0.595800	0.613000	0.112000
C671	C67	0.596560	0.493060	0.985300
H2011	H201	0.559900	0.383700	0.827000
H2021	H202	0.634200	0.422100	0.014000
C681	C68	0.591040	0.498090	0.403500
H2031	H203	0.605200	0.451100	0.581000
H2041	H204	0.573600	0.370000	0.407100
O1711	O171	0.260810	0.839560	0.414630
O1721	O172	0.287470	0.861330	0.248630
O1731	O173	0.262640	0.841150	0.637930
O1741	O174	0.275380	0.869130	0.803430
O1751	O175	0.292270	0.946040	0.455130
H2051	H205	0.288870	0.914930	0.440330
H2061	H206	0.262470	0.946330	0.445330
C691	C69	0.263230	0.826390	0.318630
H2071	H207	0.226570	0.717030	0.160330
H2081	H208	0.300870	0.755430	0.347330
C701	C70	0.257710	0.831420	0.736830
H2091	H209	0.271870	0.784430	0.914330
H2101	H210	0.240270	0.703330	0.740430
O1761	O176	0.927470	0.172900	0.747970
O1771	O177	0.954130	0.194670	0.581970
O1781	O178	0.929300	0.174490	0.971270
O1791	O179	0.942040	0.202470	0.136770
O1801	O180	0.958930	0.279380	0.788470
H2111	H211	0.955530	0.248270	0.773670
H2121	H212	0.929130	0.279670	0.778670
C711	C71	0.929890	0.159730	0.651970
H2131	H213	0.893230	0.050370	0.493670
H2141	H214	0.967530	0.088770	0.680670
C721	C72	0.924370	0.164760	0.070170
H2151	H215	0.938530	0.117770	0.247670
H2161	H216	0.906930	0.036670	0.073770
Ba11	Ba1	0.666670	0.039620	0.333330
Ba21	Ba2	0.960380	0.627040	0.333330
Ba31	Ba3	0.372960	0.333330	0.333330
Ba41	Ba4	0.039620	0.666670	0.666670
Ba51	Ba5	0.706290	0.000000	0.000000
Ba61	Ba6	0.627040	0.960380	0.666670
Ba71	Ba7	0.293710	0.293710	0.000000
Ba81	Ba8	0.333330	0.372960	0.666670
Ba91	Ba9	0.000000	0.706290	0.000000
Ba101	Ba10	0.333330	0.960380	0.666670
Ba111	Ba11	0.000000	0.293710	0.000000
Ba121	Ba12	0.039620	0.372960	0.666670
Ba131	Ba13	0.706290	0.706290	0.000000
Ba141	Ba14	0.627040	0.666670	0.666670
Ba151	Ba15	0.293710	0.000000	0.000000
Ba161	Ba16	0.960380	0.333330	0.333330
Ba171	Ba17	0.372960	0.039620	0.333330
Ba181	Ba18	0.666670	0.627040	0.333330
Zn11	Zn1	0.537750	0.075500	0.193460
C731	C73	0.569050	0.138100	0.958600
C741	C74	0.577350	0.154700	0.842100
H2171	H217	0.560950	0.121900	0.798800
C751	C75	0.595200	0.190400	0.028800
H2181	H218	0.589850	0.179700	0.102100
C761	C76	0.563050	0.126100	0.440800
C771	C77	0.566900	0.133800	0.560200
H2191	H219	0.549050	0.098100	0.594200
C781	C78	0.591650	0.183300	0.386300
H2201	H220	0.589200	0.178400	0.310700
Zn21	Zn2	0.204420	0.408830	0.526790
C791	C79	0.235720	0.471430	0.291930
C801	C80	0.244020	0.488030	0.175430
H2211	H221	0.227620	0.455230	0.132130
C811	C81	0.261870	0.523730	0.362130
H2221	H222	0.256520	0.513030	0.435430
C821	C82	0.229720	0.459430	0.774130
C831	C83	0.233570	0.467130	0.893530
H2231	H223	0.215720	0.431430	0.927530
C841	C84	0.258320	0.516630	0.719630
H2241	H224	0.255870	0.511730	0.644030
Zn31	Zn3	0.871080	0.742170	0.860130
C851	C85	0.902380	0.804770	0.625270
C861	C86	0.910680	0.821370	0.508770
H2251	H225	0.894280	0.788570	0.465470
C871	C87	0.928530	0.857070	0.695470
H2261	H226	0.923180	0.846370	0.768770
C881	C88	0.896380	0.792770	0.107470
C891	C89	0.900230	0.800470	0.226870
H2271	H227	0.882380	0.764770	0.260870
C901	C90	0.924980	0.849970	0.052970
H2281	H228	0.922530	0.845070	0.977370
Zn41	Zn4	0.924500	0.462250	0.193460
C911	C91	0.861900	0.430950	0.958600
C921	C92	0.845300	0.422650	0.842100
H2291	H229	0.878100	0.439050	0.798800
C931	C93	0.809600	0.404800	0.028800
H2301	H230	0.820300	0.410150	0.102100
C941	C94	0.873900	0.436950	0.440800
C951	C95	0.866200	0.433100	0.560200
H2311	H231	0.901900	0.450950	0.594200
C961	C96	0.816700	0.408350	0.386300
H2321	H232	0.821600	0.410800	0.310700
Zn51	Zn5	0.591170	0.795580	0.526790
C971	C97	0.528570	0.764280	0.291930
C981	C98	0.511970	0.755980	0.175430
H2331	H233	0.544770	0.772380	0.132130
C991	C99	0.476270	0.738130	0.362130
H2341	H234	0.486970	0.743480	0.435430
C1001	C100	0.540570	0.770280	0.774130
C1011	C101	0.532870	0.766430	0.893530
H2351	H235	0.568570	0.784280	0.927530
C1021	C102	0.483370	0.741680	0.719630
H2361	H236	0.488270	0.744130	0.644030
Zn61	Zn6	0.257830	0.128920	0.860130
C1031	C103	0.195230	0.097620	0.625270
C1041	C104	0.178630	0.089320	0.508770
H2371	H237	0.211430	0.105720	0.465470
C1051	C105	0.142930	0.071470	0.695470
H2381	H238	0.153630	0.076820	0.768770
C1061	C106	0.207230	0.103620	0.107470
C1071	C107	0.199530	0.099770	0.226870
H2391	H239	0.235230	0.117620	0.260870
C1081	C108	0.150030	0.075020	0.052970
H2401	H240	0.154930	0.077470	0.977370
Zn71	Zn7	0.537750	0.462250	0.193460
C1091	C109	0.569050	0.430950	0.958600
C1101	C110	0.577350	0.422650	0.842100
H2411	H241	0.560950	0.439050	0.798800
C1111	C111	0.595200	0.404800	0.028800
H2421	H242	0.589850	0.410150	0.102100
C1121	C112	0.563050	0.436950	0.440800
C1131	C113	0.566900	0.433100	0.560200
H2431	H243	0.549050	0.450950	0.594200
C1141	C114	0.591650	0.408350	0.386300
H2441	H244	0.589200	0.410800	0.310700
Zn81	Zn8	0.204420	0.795580	0.526790
C1151	C115	0.235720	0.764280	0.291930
C1161	C116	0.244020	0.755980	0.175430
H2451	H245	0.227620	0.772380	0.132130
C1171	C117	0.261870	0.738130	0.362130
H2461	H246	0.256520	0.743480	0.435430
C1181	C118	0.229720	0.770280	0.774130
C1191	C119	0.233570	0.766430	0.893530
H2471	H247	0.215720	0.784280	0.927530
C1201	C120	0.258320	0.741680	0.719630
H2481	H248	0.255870	0.744130	0.644030
Zn91	Zn9	0.871080	0.128920	0.860130
C1211	C121	0.902380	0.097620	0.625270
C1221	C122	0.910680	0.089320	0.508770
H2491	H249	0.894280	0.105720	0.465470
C1231	C123	0.928530	0.071470	0.695470
H2501	H250	0.923180	0.076820	0.768770
C1241	C124	0.896380	0.103620	0.107470
C1251	C125	0.900230	0.099770	0.226870
H2511	H251	0.882380	0.117620	0.260870
C1261	C126	0.924980	0.075020	0.052970
H2521	H252	0.922530	0.077470	0.977370
Zn101	Zn10	0.075500	0.537750	0.806540
C1271	C127	0.138100	0.569050	0.041400
C1281	C128	0.154700	0.577350	0.157900
H2531	H253	0.121900	0.560950	0.201200
C1291	C129	0.190400	0.595200	0.971200
H2541	H254	0.179700	0.589850	0.897900
C1301	C130	0.126100	0.563050	0.559200
C1311	C131	0.133800	0.566900	0.439800
H2551	H255	0.098100	0.549050	0.405800
C1321	C132	0.183300	0.591650	0.613700
H2561	H256	0.178400	0.589200	0.689300
Zn111	Zn11	0.742170	0.871080	0.139870
C1331	C133	0.804770	0.902380	0.374730
C1341	C134	0.821370	0.910680	0.491230
H2571	H257	0.788570	0.894280	0.534530
C1351	C135	0.857070	0.928530	0.304530
H2581	H258	0.846370	0.923180	0.231230
C1361	C136	0.792770	0.896380	0.892530
C1371	C137	0.800470	0.900230	0.773130
H2591	H259	0.764770	0.882380	0.739130
C1381	C138	0.849970	0.924980	0.947030
H2601	H260	0.845070	0.922530	0.022630
Zn121	Zn12	0.408830	0.204420	0.473210
C1391	C139	0.471430	0.235720	0.708070
C1401	C140	0.488030	0.244020	0.824570
H2611	H261	0.455230	0.227620	0.867870
C1411	C141	0.523730	0.261870	0.637870
H2621	H262	0.513030	0.256520	0.564570
C1421	C142	0.459430	0.229720	0.225870
C1431	C143	0.467130	0.233570	0.106470
H2631	H263	0.431430	0.215720	0.072470
C1441	C144	0.516630	0.258320	0.280370
H2641	H264	0.511730	0.255870	0.355970
Zn131	Zn13	0.462250	0.924500	0.806540
C1451	C145	0.430950	0.861900	0.041400
C1461	C146	0.422650	0.845300	0.157900
H2651	H265	0.439050	0.878100	0.201200
C1471	C147	0.404800	0.809600	0.971200
H2661	H266	0.410150	0.820300	0.897900
C1481	C148	0.436950	0.873900	0.559200
C1491	C149	0.433100	0.866200	0.439800
H2671	H267	0.450950	0.901900	0.405800
C1501	C150	0.408350	0.816700	0.613700
H2681	H268	0.410800	0.821600	0.689300
Zn141	Zn14	0.128920	0.257830	0.139870
C1511	C151	0.097620	0.195230	0.374730
C1521	C152	0.089320	0.178630	0.491230
H2691	H269	0.105720	0.211430	0.534530
C1531	C153	0.071470	0.142930	0.304530
H2701	H270	0.076820	0.153630	0.231230
C1541	C154	0.103620	0.207230	0.892530
C1551	C155	0.099770	0.199530	0.773130
H2711	H271	0.117620	0.235230	0.739130
C1561	C156	0.075020	0.150030	0.947030
H2721	H272	0.077470	0.154930	0.022630
Zn151	Zn15	0.795580	0.591170	0.473210
C1571	C157	0.764280	0.528570	0.708070
C1581	C158	0.755980	0.511970	0.824570
H2731	H273	0.772380	0.544770	0.867870
C1591	C159	0.738130	0.476270	0.637870
H2741	H274	0.743480	0.486970	0.564570
C1601	C160	0.770280	0.540570	0.225870
C1611	C161	0.766430	0.532870	0.106470
H2751	H275	0.784280	0.568570	0.072470
C1621	C162	0.741680	0.483370	0.280370
H2761	H276	0.744130	0.488270	0.355970
Zn161	Zn16	0.462250	0.537750	0.806540
C1631	C163	0.430950	0.569050	0.041400
C1641	C164	0.422650	0.577350	0.157900
H2771	H277	0.439050	0.560950	0.201200
C1651	C165	0.404800	0.595200	0.971200
H2781	H278	0.410150	0.589850	0.897900
C1661	C166	0.436950	0.563050	0.559200
C1671	C167	0.433100	0.566900	0.439800
H2791	H279	0.450950	0.549050	0.405800
C1681	C168	0.408350	0.591650	0.613700
H2801	H280	0.410800	0.589200	0.689300
Zn171	Zn17	0.128920	0.871080	0.139870
C1691	C169	0.097620	0.902380	0.374730
C1701	C170	0.089320	0.910680	0.491230
H2811	H281	0.105720	0.894280	0.534530
C1711	C171	0.071470	0.928530	0.304530
H2821	H282	0.076820	0.923180	0.231230
C1721	C172	0.103620	0.896380	0.892530
C1731	C173	0.099770	0.900230	0.773130
H2831	H283	0.117620	0.882380	0.739130
C1741	C174	0.075020	0.924980	0.947030
H2841	H284	0.077470	0.922530	0.022630
Zn181	Zn18	0.795580	0.204420	0.473210
C1751	C175	0.764280	0.235720	0.708070
C1761	C176	0.755980	0.244020	0.824570
H2851	H285	0.772380	0.227620	0.867870
C1771	C177	0.738130	0.261870	0.637870
H2861	H286	0.743480	0.256520	0.564570
C1781	C178	0.770280	0.229720	0.225870
C1791	C179	0.766430	0.233570	0.106470
H2871	H287	0.784280	0.215720	0.072470
C1801	C180	0.741680	0.258320	0.280370
H2881	H288	0.744130	0.255870	0.355970
