data_NUCPEI_clean_PM
_symmetry_space_group_name_H-M	'P1'
_cell_length_a	14.123000
_cell_length_b	33.380000
_cell_length_c	16.833000
_cell_angle_alpha	90.000000
_cell_angle_beta	111.943000
_cell_angle_gamma	90.000000
_symmetry_Int_Tables_number 1

loop_
_symmetry_equiv_pos_as_xyz
'x,y,z'

loop_
_atom_site_label
_atom_site_type_symbol
_atom_site_fract_x
_atom_site_fract_y
_atom_site_fract_z
Zn11	Zn1	0.690520	0.941990	0.677950
Zn21	Zn2	0.905140	0.912620	0.649250
Zn31	Zn3	0.832360	0.635060	0.597890
Zn41	Zn4	0.004220	0.711820	0.585050
C11	C1	0.189400	0.722050	0.611800
C21	C2	0.297100	0.733640	0.628400
C31	C3	0.349500	0.711090	0.591200
H11	H1	0.317900	0.688900	0.558500
C41	C4	0.448500	0.720300	0.600900
H21	H2	0.482700	0.704800	0.574200
C51	C5	0.496300	0.752620	0.650300
C61	C6	0.443600	0.774580	0.691000
H31	H3	0.476700	0.795600	0.727000
C71	C7	0.343800	0.766050	0.679400
C81	C8	0.291800	0.792800	0.721800
C91	C9	0.200800	0.812030	0.674300
H41	H4	0.170000	0.806900	0.615900
C101	C10	0.335800	0.800530	0.808100
H51	H5	0.396800	0.788000	0.840700
C111	C11	0.290900	0.826440	0.846900
C121	C12	0.335800	0.832510	0.942300
C131	C13	0.201300	0.845860	0.799000
H61	H6	0.171700	0.863800	0.825200
C141	C14	0.155500	0.838510	0.711800
C151	C15	0.056400	0.857860	0.660300
C161	C16	0.600300	0.764870	0.658500
C171	C17	0.625800	0.805110	0.666600
H71	H7	0.578500	0.823800	0.669600
C181	C18	0.720600	0.818000	0.670300
C191	C19	0.793000	0.790070	0.669500
H81	H8	0.857800	0.798200	0.674200
C201	C20	0.766900	0.749640	0.661700
C211	C21	0.672100	0.737780	0.655900
H91	H9	0.655700	0.710700	0.650100
C221	C22	0.745300	0.861530	0.676400
C231	C23	0.843300	0.719110	0.655600
C241	C24	0.112500	0.017940	0.250300
C251	C25	0.069300	0.979080	0.209100
C261	C26	0.128200	0.953690	0.180300
H101	H10	0.194200	0.961100	0.186900
C271	C27	0.089500	0.918100	0.142600
C281	C28	0.990900	0.907000	0.133900
H111	H11	0.965100	0.882400	0.109200
C291	C29	0.931100	0.931820	0.161100
C301	C30	0.972700	0.968040	0.199900
H121	H12	0.934000	0.984900	0.219700
C311	C31	0.152400	0.889890	0.111400
C321	C32	0.825700	0.920660	0.152100
C331	C33	0.763100	0.897050	0.084000
H131	H13	0.786400	0.888900	0.041600
C341	C34	0.668100	0.885840	0.079400
H141	H14	0.629100	0.868700	0.035900
C351	C35	0.628900	0.899840	0.139200
C361	C36	0.687100	0.924600	0.205600
C371	C37	0.786100	0.933840	0.211700
H151	H15	0.827100	0.949400	0.257400
C381	C38	0.528000	0.882500	0.135800
C391	C39	0.653200	0.941120	0.272600
C401	C40	0.709400	0.934690	0.358300
H161	H16	0.767900	0.918900	0.374200
C411	C41	0.680100	0.951310	0.421100
C421	C42	0.596100	0.976400	0.397000
H171	H17	0.577500	0.988600	0.438700
C431	C43	0.539500	0.983490	0.311500
C441	C44	0.568600	0.965730	0.250700
H181	H18	0.530300	0.970400	0.193100
C451	C45	0.450300	0.010900	0.284800
C461	C46	0.738900	0.942310	0.513400
O11	O1	0.133800	0.708360	0.538900
O21	O2	0.152200	0.726410	0.668000
O31	O3	0.997500	0.842320	0.595800
O41	O4	0.039400	0.890960	0.690200
O51	O5	0.285800	0.852590	0.975500
O61	O6	0.421000	0.817330	0.981900
O71	O7	0.674500	0.885150	0.669900
O81	O8	0.833600	0.871440	0.688700
O91	O9	0.921300	0.731970	0.648900
O101	O10	0.820400	0.683270	0.658600
O111	O11	0.064500	0.036880	0.287200
O121	O12	0.195000	0.028940	0.245800
O131	O13	0.241100	0.902420	0.121700
O141	O14	0.116200	0.857870	0.080700
O151	O15	0.529100	0.846310	0.155700
O161	O16	0.450900	0.902050	0.111400
O171	O17	0.394900	0.013400	0.209600
O181	O18	0.434400	0.028350	0.344700
O191	O19	0.704100	0.955340	0.565900
O201	O20	0.819500	0.923450	0.531400
Zn51	Zn5	0.809480	0.441990	0.822050
Zn61	Zn6	0.594860	0.412620	0.850750
Zn71	Zn7	0.667640	0.135060	0.902110
Zn81	Zn8	0.495780	0.211820	0.914950
C471	C47	0.310600	0.222050	0.888200
C481	C48	0.202900	0.233640	0.871600
C491	C49	0.150500	0.211090	0.908800
H191	H19	0.182100	0.188900	0.941500
C501	C50	0.051500	0.220300	0.899100
H201	H20	0.017300	0.204800	0.925800
C511	C51	0.003700	0.252620	0.849700
C521	C52	0.056400	0.274580	0.809000
H211	H21	0.023300	0.295600	0.773000
C531	C53	0.156200	0.266050	0.820600
C541	C54	0.208200	0.292800	0.778200
C551	C55	0.299200	0.312030	0.825700
H221	H22	0.330000	0.306900	0.884100
C561	C56	0.164200	0.300530	0.691900
H231	H23	0.103200	0.288000	0.659300
C571	C57	0.209100	0.326440	0.653100
C581	C58	0.164200	0.332510	0.557700
C591	C59	0.298700	0.345860	0.701000
H241	H24	0.328300	0.363800	0.674800
C601	C60	0.344500	0.338510	0.788200
C611	C61	0.443600	0.357860	0.839700
C621	C62	0.899700	0.264870	0.841500
C631	C63	0.874200	0.305110	0.833400
H251	H25	0.921500	0.323800	0.830400
C641	C64	0.779400	0.318000	0.829700
C651	C65	0.707000	0.290070	0.830500
H261	H26	0.642200	0.298200	0.825800
C661	C66	0.733100	0.249640	0.838300
C671	C67	0.827900	0.237780	0.844100
H271	H27	0.844300	0.210700	0.849900
C681	C68	0.754700	0.361530	0.823600
C691	C69	0.656700	0.219110	0.844400
C701	C70	0.387500	0.517940	0.249700
C711	C71	0.430700	0.479080	0.290900
C721	C72	0.371800	0.453690	0.319700
H281	H28	0.305800	0.461100	0.313100
C731	C73	0.410500	0.418100	0.357400
C741	C74	0.509100	0.407000	0.366100
H291	H29	0.534900	0.382400	0.390800
C751	C75	0.568900	0.431820	0.338900
C761	C76	0.527300	0.468040	0.300100
H301	H30	0.566000	0.484900	0.280300
C771	C77	0.347600	0.389890	0.388600
C781	C78	0.674300	0.420660	0.347900
C791	C79	0.736900	0.397050	0.416000
H311	H31	0.713600	0.388900	0.458400
C801	C80	0.831900	0.385840	0.420600
H321	H32	0.870900	0.368700	0.464100
C811	C81	0.871100	0.399840	0.360800
C821	C82	0.812900	0.424600	0.294400
C831	C83	0.713900	0.433840	0.288300
H331	H33	0.672900	0.449400	0.242600
C841	C84	0.972000	0.382500	0.364200
C851	C85	0.846800	0.441120	0.227400
C861	C86	0.790600	0.434690	0.141700
H341	H34	0.732100	0.418900	0.125800
C871	C87	0.819900	0.451310	0.078900
C881	C88	0.903900	0.476400	0.103000
H351	H35	0.922500	0.488600	0.061300
C891	C89	0.960500	0.483490	0.188500
C901	C90	0.931400	0.465730	0.249300
H361	H36	0.969700	0.470400	0.306900
C911	C91	0.049700	0.510900	0.215200
C921	C92	0.761100	0.442310	0.986600
O211	O21	0.366200	0.208360	0.961100
O221	O22	0.347800	0.226410	0.832000
O231	O23	0.502500	0.342320	0.904200
O241	O24	0.460600	0.390960	0.809800
O251	O25	0.214200	0.352590	0.524500
O261	O26	0.079000	0.317330	0.518100
O271	O27	0.825500	0.385150	0.830100
O281	O28	0.666400	0.371440	0.811300
O291	O29	0.578700	0.231970	0.851100
O301	O30	0.679600	0.183270	0.841400
O311	O31	0.435500	0.536880	0.212800
O321	O32	0.305000	0.528940	0.254200
O331	O33	0.258900	0.402420	0.378300
O341	O34	0.383800	0.357870	0.419300
O351	O35	0.970900	0.346310	0.344300
O361	O36	0.049100	0.402050	0.388600
O371	O37	0.105100	0.513400	0.290400
O381	O38	0.065600	0.528350	0.155300
O391	O39	0.795900	0.455340	0.934100
O401	O40	0.680500	0.423450	0.968600
Zn91	Zn9	0.309480	0.058010	0.322050
Zn101	Zn10	0.094860	0.087380	0.350750
Zn111	Zn11	0.167640	0.364940	0.402110
Zn121	Zn12	0.995780	0.288180	0.414950
C931	C93	0.810600	0.277950	0.388200
C941	C94	0.702900	0.266360	0.371600
C951	C95	0.650500	0.288910	0.408800
H371	H37	0.682100	0.311100	0.441500
C961	C96	0.551500	0.279700	0.399100
H381	H38	0.517300	0.295200	0.425800
C971	C97	0.503700	0.247380	0.349700
C981	C98	0.556400	0.225420	0.309000
H391	H39	0.523300	0.204400	0.273000
C991	C99	0.656200	0.233950	0.320600
C1001	C100	0.708200	0.207200	0.278200
C1011	C101	0.799200	0.187970	0.325700
H401	H40	0.830000	0.193100	0.384100
C1021	C102	0.664200	0.199470	0.191900
H411	H41	0.603200	0.212000	0.159300
C1031	C103	0.709100	0.173560	0.153100
C1041	C104	0.664200	0.167490	0.057700
C1051	C105	0.798700	0.154140	0.201000
H421	H42	0.828300	0.136200	0.174800
C1061	C106	0.844500	0.161490	0.288200
C1071	C107	0.943600	0.142140	0.339700
C1081	C108	0.399700	0.235130	0.341500
C1091	C109	0.374200	0.194890	0.333400
H431	H43	0.421500	0.176200	0.330400
C1101	C110	0.279400	0.182000	0.329700
C1111	C111	0.207000	0.209930	0.330500
H441	H44	0.142200	0.201800	0.325800
C1121	C112	0.233100	0.250360	0.338300
C1131	C113	0.327900	0.262220	0.344100
H451	H45	0.344300	0.289300	0.349900
C1141	C114	0.254700	0.138470	0.323600
C1151	C115	0.156700	0.280890	0.344400
C1161	C116	0.887500	0.982060	0.749700
C1171	C117	0.930700	0.020920	0.790900
C1181	C118	0.871800	0.046310	0.819700
H461	H46	0.805800	0.038900	0.813100
C1191	C119	0.910500	0.081900	0.857400
C1201	C120	0.009100	0.093000	0.866100
H471	H47	0.034900	0.117600	0.890800
C1211	C121	0.068900	0.068180	0.838900
C1221	C122	0.027300	0.031960	0.800100
H481	H48	0.066000	0.015100	0.780300
C1231	C123	0.847600	0.110110	0.888600
C1241	C124	0.174300	0.079340	0.847900
C1251	C125	0.236900	0.102950	0.916000
H491	H49	0.213600	0.111100	0.958400
C1261	C126	0.331900	0.114160	0.920600
H501	H50	0.370900	0.131300	0.964100
C1271	C127	0.371100	0.100160	0.860800
C1281	C128	0.312900	0.075400	0.794400
C1291	C129	0.213900	0.066160	0.788300
H511	H51	0.172900	0.050600	0.742600
C1301	C130	0.472000	0.117500	0.864200
C1311	C131	0.346800	0.058880	0.727400
C1321	C132	0.290600	0.065310	0.641700
H521	H52	0.232100	0.081100	0.625800
C1331	C133	0.319900	0.048690	0.578900
C1341	C134	0.403900	0.023600	0.603000
H531	H53	0.422500	0.011400	0.561300
C1351	C135	0.460500	0.016510	0.688500
C1361	C136	0.431400	0.034270	0.749300
H541	H54	0.469700	0.029600	0.806900
C1371	C137	0.549700	0.989100	0.715200
C1381	C138	0.261100	0.057690	0.486600
O411	O41	0.866200	0.291640	0.461100
O421	O42	0.847800	0.273590	0.332000
O431	O43	0.002500	0.157680	0.404200
O441	O44	0.960600	0.109040	0.309800
O451	O45	0.714200	0.147410	0.024500
O461	O46	0.579000	0.182670	0.018100
O471	O47	0.325500	0.114850	0.330100
O481	O48	0.166400	0.128560	0.311300
O491	O49	0.078700	0.268030	0.351100
O501	O50	0.179600	0.316730	0.341400
O511	O51	0.935500	0.963120	0.712800
O521	O52	0.805000	0.971060	0.754200
O531	O53	0.758900	0.097580	0.878300
O541	O54	0.883800	0.142130	0.919300
O551	O55	0.470900	0.153690	0.844300
O561	O56	0.549100	0.097950	0.888600
O571	O57	0.605100	0.986600	0.790400
O581	O58	0.565600	0.971650	0.655300
O591	O59	0.295900	0.044660	0.434100
O601	O60	0.180500	0.076550	0.468600
Zn131	Zn13	0.190520	0.558010	0.177950
Zn141	Zn14	0.405140	0.587380	0.149250
Zn151	Zn15	0.332360	0.864940	0.097890
Zn161	Zn16	0.504220	0.788180	0.085050
C1391	C139	0.689400	0.777950	0.111800
C1401	C140	0.797100	0.766360	0.128400
C1411	C141	0.849500	0.788910	0.091200
H551	H55	0.817900	0.811100	0.058500
C1421	C142	0.948500	0.779700	0.100900
H561	H56	0.982700	0.795200	0.074200
C1431	C143	0.996300	0.747380	0.150300
C1441	C144	0.943600	0.725420	0.191000
H571	H57	0.976700	0.704400	0.227000
C1451	C145	0.843800	0.733950	0.179400
C1461	C146	0.791800	0.707200	0.221800
C1471	C147	0.700800	0.687970	0.174300
H581	H58	0.670000	0.693100	0.115900
C1481	C148	0.835800	0.699470	0.308100
H591	H59	0.896800	0.712000	0.340700
C1491	C149	0.790900	0.673560	0.346900
C1501	C150	0.835800	0.667490	0.442300
C1511	C151	0.701300	0.654140	0.299000
H601	H60	0.671700	0.636200	0.325200
C1521	C152	0.655500	0.661490	0.211800
C1531	C153	0.556400	0.642140	0.160300
C1541	C154	0.100300	0.735130	0.158500
C1551	C155	0.125800	0.694890	0.166600
H611	H61	0.078500	0.676200	0.169600
C1561	C156	0.220600	0.682000	0.170300
C1571	C157	0.293000	0.709930	0.169500
H621	H62	0.357800	0.701800	0.174200
C1581	C158	0.266900	0.750360	0.161700
C1591	C159	0.172100	0.762220	0.155900
H631	H63	0.155700	0.789300	0.150100
C1601	C160	0.245300	0.638470	0.176400
C1611	C161	0.343300	0.780890	0.155600
C1621	C162	0.612500	0.482060	0.750300
C1631	C163	0.569300	0.520920	0.709100
C1641	C164	0.628200	0.546310	0.680300
H641	H64	0.694200	0.538900	0.686900
C1651	C165	0.589500	0.581900	0.642600
C1661	C166	0.490900	0.593000	0.633900
H651	H65	0.465100	0.617600	0.609200
C1671	C167	0.431100	0.568180	0.661100
C1681	C168	0.472700	0.531960	0.699900
H661	H66	0.434000	0.515100	0.719700
C1691	C169	0.652400	0.610110	0.611400
C1701	C170	0.325700	0.579340	0.652100
C1711	C171	0.263100	0.602950	0.584000
H671	H67	0.286400	0.611100	0.541600
C1721	C172	0.168100	0.614160	0.579400
H681	H68	0.129100	0.631300	0.535900
C1731	C173	0.128900	0.600160	0.639200
C1741	C174	0.187100	0.575400	0.705600
C1751	C175	0.286100	0.566160	0.711700
H691	H69	0.327100	0.550600	0.757400
C1761	C176	0.028000	0.617500	0.635800
C1771	C177	0.153200	0.558880	0.772600
C1781	C178	0.209400	0.565310	0.858300
H701	H70	0.267900	0.581100	0.874200
C1791	C179	0.180100	0.548690	0.921100
C1801	C180	0.096100	0.523600	0.897000
H711	H71	0.077500	0.511400	0.938700
C1811	C181	0.039500	0.516510	0.811500
C1821	C182	0.068600	0.534270	0.750700
H721	H72	0.030300	0.529600	0.693100
C1831	C183	0.950300	0.489100	0.784800
C1841	C184	0.238900	0.557690	0.013400
O611	O61	0.633800	0.791640	0.038900
O621	O62	0.652200	0.773590	0.168000
O631	O63	0.497500	0.657680	0.095800
O641	O64	0.539400	0.609040	0.190200
O651	O65	0.785800	0.647410	0.475500
O661	O66	0.921000	0.682670	0.481900
O671	O67	0.174500	0.614850	0.169900
O681	O68	0.333600	0.628560	0.188700
O691	O69	0.421300	0.768030	0.148900
O701	O70	0.320400	0.816730	0.158600
O711	O71	0.564500	0.463120	0.787200
O721	O72	0.695000	0.471060	0.745800
O731	O73	0.741100	0.597580	0.621700
O741	O74	0.616200	0.642130	0.580700
O751	O75	0.029100	0.653690	0.655700
O761	O76	0.950900	0.597950	0.611400
O771	O77	0.894900	0.486600	0.709600
O781	O78	0.934400	0.471650	0.844700
O791	O79	0.204100	0.544660	0.065900
O801	O80	0.319500	0.576550	0.031400
