data_NUCYER_clean_PM
_symmetry_space_group_name_H-M	'P1'
_cell_length_a	28.017000
_cell_length_b	9.617500
_cell_length_c	8.258600
_cell_angle_alpha	90.000000
_cell_angle_beta	90.000000
_cell_angle_gamma	90.000000
_symmetry_Int_Tables_number 1

loop_
_symmetry_equiv_pos_as_xyz
'x,y,z'

loop_
_atom_site_label
_atom_site_type_symbol
_atom_site_fract_x
_atom_site_fract_y
_atom_site_fract_z
Gd11	Gd1	0.996250	0.415120	0.907050
O11	O1	0.071670	0.478300	0.999700
O21	O2	0.063240	0.611800	0.216100
O31	O3	0.451570	0.885500	0.965500
O41	O4	0.459260	0.796300	0.212200
O51	O5	0.228440	0.777400	0.350700
O61	O6	0.300710	0.562000	0.316200
O71	O7	0.977690	0.412000	0.211600
O81	O8	0.926740	0.305700	0.051000
C11	C1	0.087790	0.557700	0.107600
C21	C2	0.139870	0.593700	0.103700
C31	C3	0.167930	0.556300	0.971400
H11	H1	0.155000	0.506800	0.885100
C41	C4	0.215890	0.595100	0.971600
H21	H2	0.234900	0.571000	0.883600
C51	C5	0.236210	0.668600	0.099300
C61	C6	0.207080	0.702700	0.231200
C71	C7	0.159020	0.666300	0.232600
H31	H3	0.139900	0.690700	0.320000
C81	C8	0.287660	0.707400	0.094400
C91	C9	0.304580	0.793900	0.978000
H41	H4	0.283700	0.828800	0.900400
C101	C10	0.352790	0.831400	0.972500
H51	H5	0.363900	0.889600	0.890700
C111	C11	0.383760	0.782100	0.088400
C121	C12	0.366940	0.692500	0.206400
H61	H6	0.387800	0.657600	0.284000
C131	C13	0.319230	0.654500	0.210000
C141	C14	0.435280	0.825100	0.086600
C151	C15	0.205800	0.783600	0.503400
H71	H7	0.224500	0.839900	0.575600
H81	H8	0.203000	0.691500	0.547000
H91	H9	0.174600	0.823700	0.491500
C161	C16	0.328200	0.512600	0.446800
H101	H10	0.309700	0.447700	0.508900
H111	H11	0.337400	0.589200	0.514400
H121	H12	0.356200	0.467100	0.406100
C171	C17	0.939810	0.343500	0.186900
H131	H13	0.920900	0.320500	0.275500
Gd21	Gd2	0.003750	0.584880	0.407050
O91	O9	0.928330	0.521700	0.499700
O101	O10	0.936760	0.388200	0.716100
O111	O11	0.548430	0.114500	0.465500
O121	O12	0.540740	0.203700	0.712200
O131	O13	0.771560	0.222600	0.850700
O141	O14	0.699290	0.438000	0.816200
O151	O15	0.022310	0.588000	0.711600
O161	O16	0.073260	0.694300	0.551000
C181	C18	0.912210	0.442300	0.607600
C191	C19	0.860130	0.406300	0.603700
C201	C20	0.832070	0.443700	0.471400
H141	H14	0.845000	0.493200	0.385100
C211	C21	0.784110	0.404900	0.471600
H151	H15	0.765100	0.429000	0.383600
C221	C22	0.763790	0.331400	0.599300
C231	C23	0.792920	0.297300	0.731200
C241	C24	0.840980	0.333700	0.732600
H161	H16	0.860100	0.309300	0.820000
C251	C25	0.712340	0.292600	0.594400
C261	C26	0.695420	0.206100	0.478000
H171	H17	0.716300	0.171200	0.400400
C271	C27	0.647210	0.168600	0.472500
H181	H18	0.636100	0.110400	0.390700
C281	C28	0.616240	0.217900	0.588400
C291	C29	0.633060	0.307500	0.706400
H191	H19	0.612200	0.342400	0.784000
C301	C30	0.680770	0.345500	0.710000
C311	C31	0.564720	0.174900	0.586600
C321	C32	0.794200	0.216400	0.003400
H201	H20	0.775500	0.160100	0.075600
H211	H21	0.797000	0.308500	0.047000
H221	H22	0.825400	0.176300	0.991500
C331	C33	0.671800	0.487400	0.946800
H231	H23	0.690300	0.552300	0.008900
H241	H24	0.662600	0.410800	0.014400
H251	H25	0.643800	0.532900	0.906100
C341	C34	0.060190	0.656500	0.686900
H261	H26	0.079100	0.679500	0.775500
Gd31	Gd3	0.496250	0.084880	0.907050
O171	O17	0.571670	0.021700	0.999700
O181	O18	0.563240	0.888200	0.216100
O191	O19	0.951570	0.614500	0.965500
O201	O20	0.959260	0.703700	0.212200
O211	O21	0.728440	0.722600	0.350700
O221	O22	0.800710	0.938000	0.316200
O231	O23	0.477690	0.088000	0.211600
O241	O24	0.426740	0.194300	0.051000
C351	C35	0.587790	0.942300	0.107600
C361	C36	0.639870	0.906300	0.103700
C371	C37	0.667930	0.943700	0.971400
H271	H27	0.655000	0.993200	0.885100
C381	C38	0.715890	0.904900	0.971600
H281	H28	0.734900	0.929000	0.883600
C391	C39	0.736210	0.831400	0.099300
C401	C40	0.707080	0.797300	0.231200
C411	C41	0.659020	0.833700	0.232600
H291	H29	0.639900	0.809300	0.320000
C421	C42	0.787660	0.792600	0.094400
C431	C43	0.804580	0.706100	0.978000
H301	H30	0.783700	0.671200	0.900400
C441	C44	0.852790	0.668600	0.972500
H311	H31	0.863900	0.610400	0.890700
C451	C45	0.883760	0.717900	0.088400
C461	C46	0.866940	0.807500	0.206400
H321	H32	0.887800	0.842400	0.284000
C471	C47	0.819230	0.845500	0.210000
C481	C48	0.935280	0.674900	0.086600
C491	C49	0.705800	0.716400	0.503400
H331	H33	0.724500	0.660100	0.575600
H341	H34	0.703000	0.808500	0.547000
H351	H35	0.674600	0.676300	0.491500
C501	C50	0.828200	0.987400	0.446800
H361	H36	0.809700	0.052300	0.508900
H371	H37	0.837400	0.910800	0.514400
H381	H38	0.856200	0.032900	0.406100
C511	C51	0.439810	0.156500	0.186900
H391	H39	0.420900	0.179500	0.275500
Gd41	Gd4	0.503750	0.915120	0.407050
O251	O25	0.428330	0.978300	0.499700
O261	O26	0.436760	0.111800	0.716100
O271	O27	0.048430	0.385500	0.465500
O281	O28	0.040740	0.296300	0.712200
O291	O29	0.271560	0.277400	0.850700
O301	O30	0.199290	0.062000	0.816200
O311	O31	0.522310	0.912000	0.711600
O321	O32	0.573260	0.805700	0.551000
C521	C52	0.412210	0.057700	0.607600
C531	C53	0.360130	0.093700	0.603700
C541	C54	0.332070	0.056300	0.471400
H401	H40	0.345000	0.006800	0.385100
C551	C55	0.284110	0.095100	0.471600
H411	H41	0.265100	0.071000	0.383600
C561	C56	0.263790	0.168600	0.599300
C571	C57	0.292920	0.202700	0.731200
C581	C58	0.340980	0.166300	0.732600
H421	H42	0.360100	0.190700	0.820000
C591	C59	0.212340	0.207400	0.594400
C601	C60	0.195420	0.293900	0.478000
H431	H43	0.216300	0.328800	0.400400
C611	C61	0.147210	0.331400	0.472500
H441	H44	0.136100	0.389600	0.390700
C621	C62	0.116240	0.282100	0.588400
C631	C63	0.133060	0.192500	0.706400
H451	H45	0.112200	0.157600	0.784000
C641	C64	0.180770	0.154500	0.710000
C651	C65	0.064720	0.325100	0.586600
C661	C66	0.294200	0.283600	0.003400
H461	H46	0.275500	0.339900	0.075600
H471	H47	0.297000	0.191500	0.047000
H481	H48	0.325400	0.323700	0.991500
C671	C67	0.171800	0.012600	0.946800
H491	H49	0.190300	0.947700	0.008900
H501	H50	0.162600	0.089200	0.014400
H511	H51	0.143800	0.967100	0.906100
C681	C68	0.560190	0.843500	0.686900
H521	H52	0.579100	0.820500	0.775500
