data_NUCYIV_clean_PM
_symmetry_space_group_name_H-M	'P1'
_cell_length_a	27.951000
_cell_length_b	9.612400
_cell_length_c	8.193700
_cell_angle_alpha	90.000000
_cell_angle_beta	90.000000
_cell_angle_gamma	90.000000
_symmetry_Int_Tables_number 1

loop_
_symmetry_equiv_pos_as_xyz
'x,y,z'

loop_
_atom_site_label
_atom_site_type_symbol
_atom_site_fract_x
_atom_site_fract_y
_atom_site_fract_z
Dy11	Dy1	0.003770	0.584800	0.092880
O11	O1	0.929280	0.523000	0.999400
O21	O2	0.937640	0.387200	0.782900
O31	O3	0.548630	0.110400	0.035100
O41	O4	0.540970	0.201400	0.785500
O51	O5	0.771860	0.221000	0.648900
O61	O6	0.699660	0.438200	0.684600
O71	O7	0.021580	0.587800	0.787900
O81	O8	0.072430	0.694500	0.948000
C11	C1	0.913170	0.441000	0.892000
C21	C2	0.861040	0.405100	0.896200
C31	C3	0.832820	0.445700	0.029900
H11	H1	0.845600	0.497700	0.115200
C41	C4	0.784560	0.404400	0.029700
H21	H2	0.765600	0.426700	0.119200
C51	C5	0.764280	0.332000	0.901700
C61	C6	0.793500	0.295800	0.769900
C71	C7	0.841330	0.333700	0.768300
H31	H3	0.860300	0.310300	0.679100
C81	C8	0.712510	0.293800	0.908000
C91	C9	0.695620	0.206100	0.024300
H41	H4	0.716700	0.170500	0.101700
C101	C10	0.647430	0.168000	0.030800
H51	H5	0.636300	0.110300	0.113700
C111	C11	0.616570	0.216600	0.913200
C121	C12	0.633330	0.306200	0.793700
H61	H6	0.612500	0.340500	0.715000
C131	C13	0.680700	0.344300	0.791600
C141	C14	0.564680	0.172300	0.912500
C151	C15	0.793800	0.216000	0.493300
H71	H7	0.775000	0.159400	0.421400
H81	H8	0.825300	0.176800	0.503400
H91	H9	0.796200	0.308500	0.449700
C161	C16	0.672600	0.481700	0.550000
H101	H10	0.690900	0.546900	0.486800
H111	H11	0.643700	0.525400	0.587400
H121	H12	0.664700	0.402700	0.483700
C171	C17	0.059300	0.655800	0.813400
H131	H13	0.078300	0.678100	0.724100
Dy21	Dy2	0.996230	0.415200	0.592880
O91	O9	0.070720	0.477000	0.499400
O101	O10	0.062360	0.612800	0.282900
O111	O11	0.451370	0.889600	0.535100
O121	O12	0.459030	0.798600	0.285500
O131	O13	0.228140	0.779000	0.148900
O141	O14	0.300340	0.561800	0.184600
O151	O15	0.978420	0.412200	0.287900
O161	O16	0.927570	0.305500	0.448000
C181	C18	0.086830	0.559000	0.392000
C191	C19	0.138960	0.594900	0.396200
C201	C20	0.167180	0.554300	0.529900
H141	H14	0.154400	0.502300	0.615200
C211	C21	0.215440	0.595600	0.529700
H151	H15	0.234400	0.573300	0.619200
C221	C22	0.235720	0.668000	0.401700
C231	C23	0.206500	0.704200	0.269900
C241	C24	0.158670	0.666300	0.268300
H161	H16	0.139700	0.689700	0.179100
C251	C25	0.287490	0.706200	0.408000
C261	C26	0.304380	0.793900	0.524300
H171	H17	0.283300	0.829500	0.601700
C271	C27	0.352570	0.832000	0.530800
H181	H18	0.363700	0.889700	0.613700
C281	C28	0.383430	0.783400	0.413200
C291	C29	0.366670	0.693800	0.293700
H191	H19	0.387500	0.659500	0.215000
C301	C30	0.319300	0.655700	0.291600
C311	C31	0.435320	0.827700	0.412500
C321	C32	0.206200	0.784000	0.993300
H201	H20	0.225000	0.840600	0.921400
H211	H21	0.174700	0.823200	0.003400
H221	H22	0.203800	0.691500	0.949700
C331	C33	0.327400	0.518300	0.050000
H231	H23	0.309100	0.453100	0.986800
H241	H24	0.356300	0.474600	0.087400
H251	H25	0.335300	0.597300	0.983700
C341	C34	0.940700	0.344200	0.313400
H261	H26	0.921700	0.321900	0.224100
Dy31	Dy3	0.503770	0.915200	0.092880
O171	O17	0.429280	0.977000	0.999400
O181	O18	0.437640	0.112800	0.782900
O191	O19	0.048630	0.389600	0.035100
O201	O20	0.040970	0.298600	0.785500
O211	O21	0.271860	0.279000	0.648900
O221	O22	0.199660	0.061800	0.684600
O231	O23	0.521580	0.912200	0.787900
O241	O24	0.572430	0.805500	0.948000
C351	C35	0.413170	0.059000	0.892000
C361	C36	0.361040	0.094900	0.896200
C371	C37	0.332820	0.054300	0.029900
H271	H27	0.345600	0.002300	0.115200
C381	C38	0.284560	0.095600	0.029700
H281	H28	0.265600	0.073300	0.119200
C391	C39	0.264280	0.168000	0.901700
C401	C40	0.293500	0.204200	0.769900
C411	C41	0.341330	0.166300	0.768300
H291	H29	0.360300	0.189700	0.679100
C421	C42	0.212510	0.206200	0.908000
C431	C43	0.195620	0.293900	0.024300
H301	H30	0.216700	0.329500	0.101700
C441	C44	0.147430	0.332000	0.030800
H311	H31	0.136300	0.389700	0.113700
C451	C45	0.116570	0.283400	0.913200
C461	C46	0.133330	0.193800	0.793700
H321	H32	0.112500	0.159500	0.715000
C471	C47	0.180700	0.155700	0.791600
C481	C48	0.064680	0.327700	0.912500
C491	C49	0.293800	0.284000	0.493300
H331	H33	0.275000	0.340600	0.421400
H341	H34	0.325300	0.323200	0.503400
H351	H35	0.296200	0.191500	0.449700
C501	C50	0.172600	0.018300	0.550000
H361	H36	0.190900	0.953100	0.486800
H371	H37	0.143700	0.974600	0.587400
H381	H38	0.164700	0.097300	0.483700
C511	C51	0.559300	0.844200	0.813400
H391	H39	0.578300	0.821900	0.724100
Dy41	Dy4	0.496230	0.084800	0.592880
O251	O25	0.570720	0.023000	0.499400
O261	O26	0.562360	0.887200	0.282900
O271	O27	0.951370	0.610400	0.535100
O281	O28	0.959030	0.701400	0.285500
O291	O29	0.728140	0.721000	0.148900
O301	O30	0.800340	0.938200	0.184600
O311	O31	0.478420	0.087800	0.287900
O321	O32	0.427570	0.194500	0.448000
C521	C52	0.586830	0.941000	0.392000
C531	C53	0.638960	0.905100	0.396200
C541	C54	0.667180	0.945700	0.529900
H401	H40	0.654400	0.997700	0.615200
C551	C55	0.715440	0.904400	0.529700
H411	H41	0.734400	0.926700	0.619200
C561	C56	0.735720	0.832000	0.401700
C571	C57	0.706500	0.795800	0.269900
C581	C58	0.658670	0.833700	0.268300
H421	H42	0.639700	0.810300	0.179100
C591	C59	0.787490	0.793800	0.408000
C601	C60	0.804380	0.706100	0.524300
H431	H43	0.783300	0.670500	0.601700
C611	C61	0.852570	0.668000	0.530800
H441	H44	0.863700	0.610300	0.613700
C621	C62	0.883430	0.716600	0.413200
C631	C63	0.866670	0.806200	0.293700
H451	H45	0.887500	0.840500	0.215000
C641	C64	0.819300	0.844300	0.291600
C651	C65	0.935320	0.672300	0.412500
C661	C66	0.706200	0.716000	0.993300
H461	H46	0.725000	0.659400	0.921400
H471	H47	0.674700	0.676800	0.003400
H481	H48	0.703800	0.808500	0.949700
C671	C67	0.827400	0.981700	0.050000
H491	H49	0.809100	0.046900	0.986800
H501	H50	0.856300	0.025400	0.087400
H511	H51	0.835300	0.902700	0.983700
C681	C68	0.440700	0.155800	0.313400
H521	H52	0.421700	0.178100	0.224100
