data_NUDMEG_clean_PM
_symmetry_space_group_name_H-M	'P1'
_cell_length_a	18.204000
_cell_length_b	12.388400
_cell_length_c	11.001400
_cell_angle_alpha	90.000000
_cell_angle_beta	102.366000
_cell_angle_gamma	90.000000
_symmetry_Int_Tables_number 1

loop_
_symmetry_equiv_pos_as_xyz
'x,y,z'

loop_
_atom_site_label
_atom_site_type_symbol
_atom_site_fract_x
_atom_site_fract_y
_atom_site_fract_z
N11	N1	0.816400	0.567800	0.389900
Mg11	Mg1	0.917030	0.464050	0.460410
O11	O1	0.924700	0.514400	0.280500
O21	O2	0.869490	0.591200	0.101800
O31	O3	0.645340	0.832800	0.128300
O41	O4	0.581170	0.782100	0.271200
O51	O5	0.021000	0.410300	0.445400
H11	H1	0.035000	0.366000	0.480000
C11	C1	0.811900	0.607000	0.274300
C21	C2	0.754900	0.674500	0.215700
H21	H2	0.758000	0.702000	0.143000
C31	C3	0.699600	0.701200	0.277700
C41	C4	0.702400	0.660000	0.393700
H31	H3	0.661000	0.671000	0.440000
C51	C5	0.762000	0.595200	0.447400
H41	H4	0.765000	0.571000	0.523000
C61	C6	0.874200	0.568200	0.212400
C71	C7	0.636300	0.778100	0.219400
N21	N2	0.316400	0.067800	0.389900
Mg21	Mg2	0.417030	0.964050	0.460410
O61	O6	0.424700	0.014400	0.280500
O71	O7	0.369490	0.091200	0.101800
O81	O8	0.145340	0.332800	0.128300
O91	O9	0.081170	0.282100	0.271200
O101	O10	0.521000	0.910300	0.445400
H51	H5	0.535000	0.866000	0.480000
C81	C8	0.311900	0.107000	0.274300
C91	C9	0.254900	0.174500	0.215700
H61	H6	0.258000	0.202000	0.143000
C101	C10	0.199600	0.201200	0.277700
C111	C11	0.202400	0.160000	0.393700
H71	H7	0.161000	0.171000	0.440000
C121	C12	0.262000	0.095200	0.447400
H81	H8	0.265000	0.071000	0.523000
C131	C13	0.374200	0.068200	0.212400
C141	C14	0.136300	0.278100	0.219400
N31	N3	0.183600	0.567800	0.110100
Mg31	Mg3	0.082970	0.464050	0.039590
O111	O11	0.075300	0.514400	0.219500
O121	O12	0.130510	0.591200	0.398200
O131	O13	0.354660	0.832800	0.371700
O141	O14	0.418830	0.782100	0.228800
O151	O15	0.979000	0.410300	0.054600
H91	H9	0.965000	0.366000	0.020000
C151	C15	0.188100	0.607000	0.225700
C161	C16	0.245100	0.674500	0.284300
H101	H10	0.242000	0.702000	0.357000
C171	C17	0.300400	0.701200	0.222300
C181	C18	0.297600	0.660000	0.106300
H111	H11	0.339000	0.671000	0.060000
C191	C19	0.238000	0.595200	0.052600
H121	H12	0.235000	0.571000	0.977000
C201	C20	0.125800	0.568200	0.287600
C211	C21	0.363700	0.778100	0.280600
N41	N4	0.683600	0.067800	0.110100
Mg41	Mg4	0.582970	0.964050	0.039590
O161	O16	0.575300	0.014400	0.219500
O171	O17	0.630510	0.091200	0.398200
O181	O18	0.854660	0.332800	0.371700
O191	O19	0.918830	0.282100	0.228800
O201	O20	0.479000	0.910300	0.054600
H131	H13	0.465000	0.866000	0.020000
C221	C22	0.688100	0.107000	0.225700
C231	C23	0.745100	0.174500	0.284300
H141	H14	0.742000	0.202000	0.357000
C241	C24	0.800400	0.201200	0.222300
C251	C25	0.797600	0.160000	0.106300
H151	H15	0.839000	0.171000	0.060000
C261	C26	0.738000	0.095200	0.052600
H161	H16	0.735000	0.071000	0.977000
C271	C27	0.625800	0.068200	0.287600
C281	C28	0.863700	0.278100	0.280600
N51	N5	0.183600	0.432200	0.610100
Mg51	Mg5	0.082970	0.535950	0.539590
O211	O21	0.075300	0.485600	0.719500
O221	O22	0.130510	0.408800	0.898200
O231	O23	0.354660	0.167200	0.871700
O241	O24	0.418830	0.217900	0.728800
O251	O25	0.979000	0.589700	0.554600
H171	H17	0.965000	0.634000	0.520000
C291	C29	0.188100	0.393000	0.725700
C301	C30	0.245100	0.325500	0.784300
H181	H18	0.242000	0.298000	0.857000
C311	C31	0.300400	0.298800	0.722300
C321	C32	0.297600	0.340000	0.606300
H191	H19	0.339000	0.329000	0.560000
C331	C33	0.238000	0.404800	0.552600
H201	H20	0.235000	0.429000	0.477000
C341	C34	0.125800	0.431800	0.787600
C351	C35	0.363700	0.221900	0.780600
N61	N6	0.683600	0.932200	0.610100
Mg61	Mg6	0.582970	0.035950	0.539590
O261	O26	0.575300	0.985600	0.719500
O271	O27	0.630510	0.908800	0.898200
O281	O28	0.854660	0.667200	0.871700
O291	O29	0.918830	0.717900	0.728800
O301	O30	0.479000	0.089700	0.554600
H211	H21	0.465000	0.134000	0.520000
C361	C36	0.688100	0.893000	0.725700
C371	C37	0.745100	0.825500	0.784300
H221	H22	0.742000	0.798000	0.857000
C381	C38	0.800400	0.798800	0.722300
C391	C39	0.797600	0.840000	0.606300
H231	H23	0.839000	0.829000	0.560000
C401	C40	0.738000	0.904800	0.552600
H241	H24	0.735000	0.929000	0.477000
C411	C41	0.625800	0.931800	0.787600
C421	C42	0.863700	0.721900	0.780600
N71	N7	0.816400	0.432200	0.889900
Mg71	Mg7	0.917030	0.535950	0.960410
O311	O31	0.924700	0.485600	0.780500
O321	O32	0.869490	0.408800	0.601800
O331	O33	0.645340	0.167200	0.628300
O341	O34	0.581170	0.217900	0.771200
O351	O35	0.021000	0.589700	0.945400
H251	H25	0.035000	0.634000	0.980000
C431	C43	0.811900	0.393000	0.774300
C441	C44	0.754900	0.325500	0.715700
H261	H26	0.758000	0.298000	0.643000
C451	C45	0.699600	0.298800	0.777700
C461	C46	0.702400	0.340000	0.893700
H271	H27	0.661000	0.329000	0.940000
C471	C47	0.762000	0.404800	0.947400
H281	H28	0.765000	0.429000	0.023000
C481	C48	0.874200	0.431800	0.712400
C491	C49	0.636300	0.221900	0.719400
N81	N8	0.316400	0.932200	0.889900
Mg81	Mg8	0.417030	0.035950	0.960410
O361	O36	0.424700	0.985600	0.780500
O371	O37	0.369490	0.908800	0.601800
O381	O38	0.145340	0.667200	0.628300
O391	O39	0.081170	0.717900	0.771200
O401	O40	0.521000	0.089700	0.945400
H291	H29	0.535000	0.134000	0.980000
C501	C50	0.311900	0.893000	0.774300
C511	C51	0.254900	0.825500	0.715700
H301	H30	0.258000	0.798000	0.643000
C521	C52	0.199600	0.798800	0.777700
C531	C53	0.202400	0.840000	0.893700
H311	H31	0.161000	0.829000	0.940000
C541	C54	0.262000	0.904800	0.947400
H321	H32	0.265000	0.929000	0.023000
C551	C55	0.374200	0.931800	0.712400
C561	C56	0.136300	0.721900	0.719400
Mg91	Mg9	0.000000	0.396590	0.250000
Mg101	Mg10	0.500000	0.896590	0.250000
Mg111	Mg11	0.000000	0.603410	0.750000
Mg121	Mg12	0.500000	0.103410	0.750000
