data_NUDNEH_clean_PM
_symmetry_space_group_name_H-M	'P1'
_cell_length_a	18.048800
_cell_length_b	12.751500
_cell_length_c	10.997800
_cell_angle_alpha	90.000000
_cell_angle_beta	103.130000
_cell_angle_gamma	90.000000
_symmetry_Int_Tables_number 1

loop_
_symmetry_equiv_pos_as_xyz
'x,y,z'

loop_
_atom_site_label
_atom_site_type_symbol
_atom_site_fract_x
_atom_site_fract_y
_atom_site_fract_z
N11	N1	0.185650	0.933230	0.612030
Mg11	Mg1	0.085010	0.036500	0.541260
O11	O1	0.076520	0.985550	0.720540
O21	O2	0.133260	0.910670	0.900840
O31	O3	0.354630	0.666070	0.869830
O41	O4	0.417010	0.709710	0.723870
O51	O5	0.978800	0.086790	0.553730
H11	H1	0.962400	0.145000	0.528000
C11	C1	0.190320	0.894090	0.727600
C21	C2	0.246550	0.825900	0.785900
H21	H2	0.244500	0.806000	0.864000
C31	C3	0.301750	0.795700	0.722500
C41	C4	0.298360	0.837900	0.604800
H31	H3	0.336200	0.820000	0.559000
C51	C5	0.239990	0.905500	0.553300
H41	H4	0.232200	0.934000	0.466000
C61	C6	0.128240	0.932130	0.789000
C71	C7	0.363250	0.717310	0.777500
N21	N2	0.685650	0.433230	0.612030
Mg21	Mg2	0.585010	0.536500	0.541260
O61	O6	0.576520	0.485550	0.720540
O71	O7	0.633260	0.410670	0.900840
O81	O8	0.854630	0.166070	0.869830
O91	O9	0.917010	0.209710	0.723870
O101	O10	0.478800	0.586790	0.553730
H51	H5	0.462400	0.645000	0.528000
C81	C8	0.690320	0.394090	0.727600
C91	C9	0.746550	0.325900	0.785900
H61	H6	0.744500	0.306000	0.864000
C101	C10	0.801750	0.295700	0.722500
C111	C11	0.798360	0.337900	0.604800
H71	H7	0.836200	0.320000	0.559000
C121	C12	0.739990	0.405500	0.553300
H81	H8	0.732200	0.434000	0.466000
C131	C13	0.628240	0.432130	0.789000
C141	C14	0.863250	0.217310	0.777500
N31	N3	0.814350	0.933230	0.887970
Mg31	Mg3	0.914990	0.036500	0.958740
O111	O11	0.923480	0.985550	0.779460
O121	O12	0.866740	0.910670	0.599160
O131	O13	0.645370	0.666070	0.630170
O141	O14	0.582990	0.709710	0.776130
O151	O15	0.021200	0.086790	0.946270
H91	H9	0.037600	0.145000	0.972000
C151	C15	0.809680	0.894090	0.772400
C161	C16	0.753450	0.825900	0.714100
H101	H10	0.755500	0.806000	0.636000
C171	C17	0.698250	0.795700	0.777500
C181	C18	0.701640	0.837900	0.895200
H111	H11	0.663800	0.820000	0.941000
C191	C19	0.760010	0.905500	0.946700
H121	H12	0.767800	0.934000	0.034000
C201	C20	0.871760	0.932130	0.711000
C211	C21	0.636750	0.717310	0.722500
N41	N4	0.314350	0.433230	0.887970
Mg41	Mg4	0.414990	0.536500	0.958740
O161	O16	0.423480	0.485550	0.779460
O171	O17	0.366740	0.410670	0.599160
O181	O18	0.145370	0.166070	0.630170
O191	O19	0.082990	0.209710	0.776130
O201	O20	0.521200	0.586790	0.946270
H131	H13	0.537600	0.645000	0.972000
C221	C22	0.309680	0.394090	0.772400
C231	C23	0.253450	0.325900	0.714100
H141	H14	0.255500	0.306000	0.636000
C241	C24	0.198250	0.295700	0.777500
C251	C25	0.201640	0.337900	0.895200
H151	H15	0.163800	0.320000	0.941000
C261	C26	0.260010	0.405500	0.946700
H161	H16	0.267800	0.434000	0.034000
C271	C27	0.371760	0.432130	0.711000
C281	C28	0.136750	0.217310	0.722500
N51	N5	0.814350	0.066770	0.387970
Mg51	Mg5	0.914990	0.963500	0.458740
O211	O21	0.923480	0.014450	0.279460
O221	O22	0.866740	0.089330	0.099160
O231	O23	0.645370	0.333930	0.130170
O241	O24	0.582990	0.290290	0.276130
O251	O25	0.021200	0.913210	0.446270
H171	H17	0.037600	0.855000	0.472000
C291	C29	0.809680	0.105910	0.272400
C301	C30	0.753450	0.174100	0.214100
H181	H18	0.755500	0.194000	0.136000
C311	C31	0.698250	0.204300	0.277500
C321	C32	0.701640	0.162100	0.395200
H191	H19	0.663800	0.180000	0.441000
C331	C33	0.760010	0.094500	0.446700
H201	H20	0.767800	0.066000	0.534000
C341	C34	0.871760	0.067870	0.211000
C351	C35	0.636750	0.282690	0.222500
N61	N6	0.314350	0.566770	0.387970
Mg61	Mg6	0.414990	0.463500	0.458740
O261	O26	0.423480	0.514450	0.279460
O271	O27	0.366740	0.589330	0.099160
O281	O28	0.145370	0.833930	0.130170
O291	O29	0.082990	0.790290	0.276130
O301	O30	0.521200	0.413210	0.446270
H211	H21	0.537600	0.355000	0.472000
C361	C36	0.309680	0.605910	0.272400
C371	C37	0.253450	0.674100	0.214100
H221	H22	0.255500	0.694000	0.136000
C381	C38	0.198250	0.704300	0.277500
C391	C39	0.201640	0.662100	0.395200
H231	H23	0.163800	0.680000	0.441000
C401	C40	0.260010	0.594500	0.446700
H241	H24	0.267800	0.566000	0.534000
C411	C41	0.371760	0.567870	0.211000
C421	C42	0.136750	0.782690	0.222500
N71	N7	0.185650	0.066770	0.112030
Mg71	Mg7	0.085010	0.963500	0.041260
O311	O31	0.076520	0.014450	0.220540
O321	O32	0.133260	0.089330	0.400840
O331	O33	0.354630	0.333930	0.369830
O341	O34	0.417010	0.290290	0.223870
O351	O35	0.978800	0.913210	0.053730
H251	H25	0.962400	0.855000	0.028000
C431	C43	0.190320	0.105910	0.227600
C441	C44	0.246550	0.174100	0.285900
H261	H26	0.244500	0.194000	0.364000
C451	C45	0.301750	0.204300	0.222500
C461	C46	0.298360	0.162100	0.104800
H271	H27	0.336200	0.180000	0.059000
C471	C47	0.239990	0.094500	0.053300
H281	H28	0.232200	0.066000	0.966000
C481	C48	0.128240	0.067870	0.289000
C491	C49	0.363250	0.282690	0.277500
N81	N8	0.685650	0.566770	0.112030
Mg81	Mg8	0.585010	0.463500	0.041260
O361	O36	0.576520	0.514450	0.220540
O371	O37	0.633260	0.589330	0.400840
O381	O38	0.854630	0.833930	0.369830
O391	O39	0.917010	0.790290	0.223870
O401	O40	0.478800	0.413210	0.053730
H291	H29	0.462400	0.355000	0.028000
C501	C50	0.690320	0.605910	0.227600
C511	C51	0.746550	0.674100	0.285900
H301	H30	0.744500	0.694000	0.364000
C521	C52	0.801750	0.704300	0.222500
C531	C53	0.798360	0.662100	0.104800
H311	H31	0.836200	0.680000	0.059000
C541	C54	0.739990	0.594500	0.053300
H321	H32	0.732200	0.566000	0.966000
C551	C55	0.628240	0.567870	0.289000
C561	C56	0.863250	0.782690	0.277500
Mg91	Mg9	0.000000	0.098260	0.750000
Mg101	Mg10	0.500000	0.598260	0.750000
Mg111	Mg11	0.000000	0.901740	0.250000
Mg121	Mg12	0.500000	0.401740	0.250000
