data_NUFBUN_clean_PM
_symmetry_space_group_name_H-M	'P1'
_cell_length_a	12.024000
_cell_length_b	13.773000
_cell_length_c	15.850000
_cell_angle_alpha	90.000000
_cell_angle_beta	99.093000
_cell_angle_gamma	90.000000
_symmetry_Int_Tables_number 1

loop_
_symmetry_equiv_pos_as_xyz
'x,y,z'

loop_
_atom_site_label
_atom_site_type_symbol
_atom_site_fract_x
_atom_site_fract_y
_atom_site_fract_z
Zn11	Zn1	0.371390	0.213560	0.432280
Zn21	Zn2	0.252550	0.104720	0.240100
O11	O1	0.760370	0.641980	0.043700
O21	O2	0.838980	0.568930	0.166060
O31	O3	0.601480	0.558200	0.181460
O41	O4	0.499610	0.628510	0.069430
C11	C1	0.019500	0.516000	0.086250
H11	H1	0.032500	0.527000	0.146200
C21	C2	0.414400	0.508300	0.143460
C31	C3	0.218400	0.463400	0.102840
C41	C4	0.106600	0.478500	0.047800
C51	C5	0.914300	0.538000	0.040480
C61	C6	0.311500	0.517000	0.088190
H21	H2	0.305500	0.559600	0.040500
C71	C7	0.330100	0.389400	0.225120
C81	C8	0.830100	0.585300	0.087920
C91	C9	0.228200	0.400100	0.171700
H31	H3	0.164600	0.363900	0.182200
O51	O5	0.271100	0.252100	0.297520
C101	C10	0.422800	0.444800	0.212830
H41	H4	0.491500	0.439500	0.251400
C111	C11	0.512600	0.569300	0.131160
O61	O6	0.401700	0.208970	0.038410
O71	O7	0.355400	0.139900	0.152990
O81	O8	0.419600	0.329600	0.359390
C121	C12	0.339800	0.319700	0.297300
C131	C13	0.333300	0.195300	0.089740
Zn31	Zn3	0.628610	0.713560	0.067720
Zn41	Zn4	0.747450	0.604720	0.259900
O91	O9	0.239630	0.141980	0.456300
O101	O10	0.161020	0.068930	0.333940
O111	O11	0.398520	0.058200	0.318540
O121	O12	0.500390	0.128510	0.430570
C141	C14	0.980500	0.016000	0.413750
H51	H5	0.967500	0.027000	0.353800
C151	C15	0.585600	0.008300	0.356540
C161	C16	0.781600	0.963400	0.397160
C171	C17	0.893400	0.978500	0.452200
C181	C18	0.085700	0.038000	0.459520
C191	C19	0.688500	0.017000	0.411810
H61	H6	0.694500	0.059600	0.459500
C201	C20	0.669900	0.889400	0.274880
C211	C21	0.169900	0.085300	0.412080
C221	C22	0.771800	0.900100	0.328300
H71	H7	0.835400	0.863900	0.317800
O131	O13	0.728900	0.752100	0.202480
C231	C23	0.577200	0.944800	0.287170
H81	H8	0.508500	0.939500	0.248600
C241	C24	0.487400	0.069300	0.368840
O141	O14	0.598300	0.708970	0.461590
O151	O15	0.644600	0.639900	0.347010
O161	O16	0.580400	0.829600	0.140610
C251	C25	0.660200	0.819700	0.202700
C261	C26	0.666700	0.695300	0.410260
Zn51	Zn5	0.628610	0.786440	0.567720
Zn61	Zn6	0.747450	0.895280	0.759900
O171	O17	0.239630	0.358020	0.956300
O181	O18	0.161020	0.431070	0.833940
O191	O19	0.398520	0.441800	0.818540
O201	O20	0.500390	0.371490	0.930570
C271	C27	0.980500	0.484000	0.913750
H91	H9	0.967500	0.473000	0.853800
C281	C28	0.585600	0.491700	0.856540
C291	C29	0.781600	0.536600	0.897160
C301	C30	0.893400	0.521500	0.952200
C311	C31	0.085700	0.462000	0.959520
C321	C32	0.688500	0.483000	0.911810
H101	H10	0.694500	0.440400	0.959500
C331	C33	0.669900	0.610600	0.774880
C341	C34	0.169900	0.414700	0.912080
C351	C35	0.771800	0.599900	0.828300
H111	H11	0.835400	0.636100	0.817800
O211	O21	0.728900	0.747900	0.702480
C361	C36	0.577200	0.555200	0.787170
H121	H12	0.508500	0.560500	0.748600
C371	C37	0.487400	0.430700	0.868840
O221	O22	0.598300	0.791030	0.961590
O231	O23	0.644600	0.860100	0.847010
O241	O24	0.580400	0.670400	0.640610
C381	C38	0.660200	0.680300	0.702700
C391	C39	0.666700	0.804700	0.910260
Zn71	Zn7	0.371390	0.286440	0.932280
Zn81	Zn8	0.252550	0.395280	0.740100
O251	O25	0.760370	0.858020	0.543700
O261	O26	0.838980	0.931070	0.666060
O271	O27	0.601480	0.941800	0.681460
O281	O28	0.499610	0.871490	0.569430
C401	C40	0.019500	0.984000	0.586250
H131	H13	0.032500	0.973000	0.646200
C411	C41	0.414400	0.991700	0.643460
C421	C42	0.218400	0.036600	0.602840
C431	C43	0.106600	0.021500	0.547800
C441	C44	0.914300	0.962000	0.540480
C451	C45	0.311500	0.983000	0.588190
H141	H14	0.305500	0.940400	0.540500
C461	C46	0.330100	0.110600	0.725120
C471	C47	0.830100	0.914700	0.587920
C481	C48	0.228200	0.099900	0.671700
H151	H15	0.164600	0.136100	0.682200
O291	O29	0.271100	0.247900	0.797520
C491	C49	0.422800	0.055200	0.712830
H161	H16	0.491500	0.060500	0.751400
C501	C50	0.512600	0.930700	0.631160
O301	O30	0.401700	0.291030	0.538410
O311	O31	0.355400	0.360100	0.652990
O321	O32	0.419600	0.170400	0.859390
C511	C51	0.339800	0.180300	0.797300
C521	C52	0.333300	0.304700	0.589740
