data_NUFBEX_clean_PM
_symmetry_space_group_name_H-M	'P1'
_cell_length_a	9.378900
_cell_length_b	10.924700
_cell_length_c	18.899300
_cell_angle_alpha	104.858000
_cell_angle_beta	94.314000
_cell_angle_gamma	107.714000
_symmetry_Int_Tables_number 1

loop_
_symmetry_equiv_pos_as_xyz
'x,y,z'

loop_
_atom_site_label
_atom_site_type_symbol
_atom_site_fract_x
_atom_site_fract_y
_atom_site_fract_z
Zn11	Zn1	0.315890	0.035810	0.137860
Zn21	Zn2	0.044210	0.365950	0.767930
O11	O1	0.972700	0.996900	0.108520
O21	O2	0.210000	0.152800	0.032540
O31	O3	0.426900	0.138000	0.078460
O41	O4	0.173700	0.080600	0.200250
C11	C1	0.591800	0.301800	0.001470
H11	H1	0.646100	0.278500	0.037500
C21	C2	0.349800	0.174400	0.035520
C31	C3	0.588900	0.417100	0.908940
H21	H2	0.641300	0.472700	0.881300
C41	C4	0.031000	0.032800	0.174920
C51	C5	0.671200	0.383500	0.961230
C61	C6	0.777400	0.008100	0.213180
H31	H3	0.741400	0.012500	0.165900
C71	C7	0.353700	0.287500	0.936050
H41	H4	0.245900	0.253200	0.926800
C81	C8	0.927600	0.018300	0.231270
C91	C9	0.434000	0.254600	0.989230
C101	C10	0.840300	0.439400	0.978100
C111	C11	0.680000	0.991500	0.264160
C121	C12	0.981500	0.015500	0.301250
H51	H5	0.085400	0.026400	0.314100
C131	C13	0.430900	0.369900	0.896830
O51	O5	0.910700	0.158320	0.018100
O61	O6	0.789400	0.155860	0.910770
O71	O7	0.497500	0.044700	0.198860
O81	O8	0.197400	0.370300	0.842080
O91	O9	0.417400	0.915600	0.272000
C141	C14	0.930500	0.364700	0.992640
C151	C15	0.912400	0.574400	0.984860
H61	H6	0.853700	0.626500	0.974000
C161	C16	0.871200	0.214200	0.974110
O101	O10	0.926500	0.733200	0.328030
C171	C17	0.340500	0.410400	0.843220
O111	O11	0.405100	0.477200	0.804700
C181	C18	0.518200	0.981600	0.244680
C191	C19	0.732600	0.985200	0.334140
H71	H7	0.665200	0.973100	0.368800
C201	C20	0.883600	0.996700	0.352690
C211	C21	0.940500	0.994700	0.428010
C221	C22	0.083500	0.919800	0.510300
H81	H8	0.141800	0.864900	0.516900
C231	C23	0.025200	0.910800	0.438400
O121	O12	0.172600	0.795700	0.371840
C241	C24	0.045400	0.806500	0.375200
Zn31	Zn3	0.684110	0.964190	0.862140
Zn41	Zn4	0.955790	0.634050	0.232070
O131	O13	0.027300	0.003100	0.891480
O141	O14	0.790000	0.847200	0.967460
O151	O15	0.573100	0.862000	0.921540
O161	O16	0.826300	0.919400	0.799750
C251	C25	0.408200	0.698200	0.998530
H91	H9	0.353900	0.721500	0.962500
C261	C26	0.650200	0.825600	0.964480
C271	C27	0.411100	0.582900	0.091060
H101	H10	0.358700	0.527300	0.118700
C281	C28	0.969000	0.967200	0.825080
C291	C29	0.328800	0.616500	0.038770
C301	C30	0.222600	0.991900	0.786820
H111	H11	0.258600	0.987500	0.834100
C311	C31	0.646300	0.712500	0.063950
H121	H12	0.754100	0.746800	0.073200
C321	C32	0.072400	0.981700	0.768730
C331	C33	0.566000	0.745400	0.010770
C341	C34	0.159700	0.560600	0.021900
C351	C35	0.320000	0.008500	0.735840
C361	C36	0.018500	0.984500	0.698750
H131	H13	0.914600	0.973600	0.685900
C371	C37	0.569100	0.630100	0.103170
O171	O17	0.089300	0.841680	0.981900
O181	O18	0.210600	0.844140	0.089230
O191	O19	0.502500	0.955300	0.801140
O201	O20	0.802600	0.629700	0.157920
O211	O21	0.582600	0.084400	0.728000
C381	C38	0.069500	0.635300	0.007360
C391	C39	0.087600	0.425600	0.015140
H141	H14	0.146300	0.373500	0.026000
C401	C40	0.128800	0.785800	0.025890
O221	O22	0.073500	0.266800	0.671970
C411	C41	0.659500	0.589600	0.156780
O231	O23	0.594900	0.522800	0.195300
C421	C42	0.481800	0.018400	0.755320
C431	C43	0.267400	0.014800	0.665860
H151	H15	0.334800	0.026900	0.631200
C441	C44	0.116400	0.003300	0.647310
C451	C45	0.059500	0.005300	0.571990
C461	C46	0.916500	0.080200	0.489700
H161	H16	0.858200	0.135100	0.483100
C471	C47	0.974800	0.089200	0.561600
O241	O24	0.827400	0.204300	0.628160
C481	C48	0.954600	0.193500	0.624800
Zn51	Zn5	0.000000	0.000000	0.000000
