data_NUFCAU_clean_PM
_symmetry_space_group_name_H-M	'P1'
_cell_length_a	17.054900
_cell_length_b	15.398600
_cell_length_c	23.010400
_cell_angle_alpha	90.000000
_cell_angle_beta	102.754000
_cell_angle_gamma	90.000000
_symmetry_Int_Tables_number 1

loop_
_symmetry_equiv_pos_as_xyz
'x,y,z'

loop_
_atom_site_label
_atom_site_type_symbol
_atom_site_fract_x
_atom_site_fract_y
_atom_site_fract_z
Zn11	Zn1	0.981230	0.225610	0.572240
Zn21	Zn2	0.885400	0.331080	0.432500
Zn31	Zn3	0.590300	0.031250	0.623900
Zn41	Zn4	0.546500	0.829610	0.667450
O11	O1	0.820000	0.229540	0.439630
O21	O2	0.953950	0.713600	0.483110
O31	O3	0.916450	0.153460	0.500900
O41	O4	0.008140	0.699340	0.580200
O51	O5	0.883460	0.421770	0.491100
O61	O6	0.893110	0.320720	0.561320
O71	O7	0.550690	0.113080	0.377570
O81	O8	0.670650	0.948620	0.607990
O91	O9	0.909390	0.408190	0.766480
O101	O10	0.886000	0.544670	0.789950
O111	O11	0.513830	0.997050	0.422710
O121	O12	0.623080	0.814150	0.617460
C11	C1	0.807720	0.018820	0.507250
H11	H1	0.862100	0.011800	0.527900
C21	C2	0.867840	0.553460	0.570810
H21	H2	0.863900	0.568300	0.530200
C31	C3	0.785000	0.094600	0.474700
C41	C4	0.649600	0.040200	0.446900
C51	C5	0.768700	0.747400	0.603600
H31	H3	0.740800	0.718500	0.629500
C61	C6	0.883500	0.468800	0.589200
C71	C7	0.741680	0.828180	0.580720
C81	C8	0.952180	0.718350	0.536220
C91	C9	0.887300	0.397630	0.543810
C101	C10	0.672620	0.965230	0.479360
H41	H4	0.633900	0.921400	0.480800
C111	C11	0.846400	0.163800	0.472200
C121	C12	0.865500	0.595740	0.670890
H51	H5	0.858600	0.638800	0.698900
C131	C13	0.780650	0.870920	0.541070
C141	C14	0.752550	0.953420	0.510110
C151	C15	0.883400	0.510180	0.689430
C161	C16	0.847640	0.831340	0.527080
H61	H6	0.874600	0.859500	0.500300
C171	C17	0.876300	0.750900	0.551600
C181	C18	0.705110	0.104910	0.443990
H71	H7	0.689000	0.156000	0.421300
C191	C19	0.836240	0.707220	0.589620
C201	C20	0.892150	0.447070	0.648740
H81	H8	0.904100	0.388900	0.661500
C211	C21	0.857800	0.617400	0.611400
C221	C22	0.564200	0.051400	0.413600
C231	C23	0.672500	0.866300	0.603300
C241	C24	0.894900	0.485400	0.753950
Zn51	Zn5	0.518770	0.725610	0.927760
Zn61	Zn6	0.614600	0.831080	0.067500
Zn71	Zn7	0.909700	0.531250	0.876100
Zn81	Zn8	0.953500	0.329610	0.832550
O131	O13	0.680000	0.729540	0.060370
O141	O14	0.546050	0.213600	0.016890
O151	O15	0.583550	0.653460	0.999100
O161	O16	0.491860	0.199340	0.919800
O171	O17	0.616540	0.921770	0.008900
O181	O18	0.606890	0.820720	0.938680
O191	O19	0.949310	0.613080	0.122430
O201	O20	0.829350	0.448620	0.892010
O211	O21	0.590610	0.908190	0.733520
O221	O22	0.614000	0.044670	0.710050
O231	O23	0.986170	0.497050	0.077290
O241	O24	0.876920	0.314150	0.882540
C251	C25	0.692280	0.518820	0.992750
H91	H9	0.637900	0.511800	0.972100
C261	C26	0.632160	0.053460	0.929190
H101	H10	0.636100	0.068300	0.969800
C271	C27	0.715000	0.594600	0.025300
C281	C28	0.850400	0.540200	0.053100
C291	C29	0.731300	0.247400	0.896400
H111	H11	0.759200	0.218500	0.870500
C301	C30	0.616500	0.968800	0.910800
C311	C31	0.758320	0.328180	0.919280
C321	C32	0.547820	0.218350	0.963780
C331	C33	0.612700	0.897630	0.956190
C341	C34	0.827380	0.465230	0.020640
H121	H12	0.866100	0.421400	0.019200
C351	C35	0.653600	0.663800	0.027800
C361	C36	0.634500	0.095740	0.829110
H131	H13	0.641400	0.138800	0.801100
C371	C37	0.719350	0.370920	0.958930
C381	C38	0.747450	0.453420	0.989890
C391	C39	0.616600	0.010180	0.810570
C401	C40	0.652360	0.331340	0.972920
H141	H14	0.625400	0.359500	0.999700
C411	C41	0.623700	0.250900	0.948400
C421	C42	0.794890	0.604910	0.056010
H151	H15	0.811000	0.656000	0.078700
C431	C43	0.663760	0.207220	0.910380
C441	C44	0.607850	0.947070	0.851260
H161	H16	0.595900	0.888900	0.838500
C451	C45	0.642200	0.117400	0.888600
C461	C46	0.935800	0.551400	0.086400
C471	C47	0.827500	0.366300	0.896700
C481	C48	0.605100	0.985400	0.746050
Zn91	Zn9	0.018770	0.774390	0.427760
Zn101	Zn10	0.114600	0.668920	0.567500
Zn111	Zn11	0.409700	0.968750	0.376100
Zn121	Zn12	0.453500	0.170390	0.332550
O251	O25	0.180000	0.770460	0.560370
O261	O26	0.046050	0.286400	0.516890
O271	O27	0.083550	0.846540	0.499100
O281	O28	0.991860	0.300660	0.419800
O291	O29	0.116540	0.578230	0.508900
O301	O30	0.106890	0.679280	0.438680
O311	O31	0.449310	0.886920	0.622430
O321	O32	0.329350	0.051380	0.392010
O331	O33	0.090610	0.591810	0.233520
O341	O34	0.114000	0.455330	0.210050
O351	O35	0.486170	0.002950	0.577290
O361	O36	0.376920	0.185850	0.382540
C491	C49	0.192280	0.981180	0.492750
H171	H17	0.137900	0.988200	0.472100
C501	C50	0.132160	0.446540	0.429190
H181	H18	0.136100	0.431700	0.469800
C511	C51	0.215000	0.905400	0.525300
C521	C52	0.350400	0.959800	0.553100
C531	C53	0.231300	0.252600	0.396400
H191	H19	0.259200	0.281500	0.370500
C541	C54	0.116500	0.531200	0.410800
C551	C55	0.258320	0.171820	0.419280
C561	C56	0.047820	0.281650	0.463780
C571	C57	0.112700	0.602370	0.456190
C581	C58	0.327380	0.034770	0.520640
H201	H20	0.366100	0.078600	0.519200
C591	C59	0.153600	0.836200	0.527800
C601	C60	0.134500	0.404260	0.329110
H211	H21	0.141400	0.361200	0.301100
C611	C61	0.219350	0.129080	0.458930
C621	C62	0.247450	0.046580	0.489890
C631	C63	0.116600	0.489820	0.310570
C641	C64	0.152360	0.168660	0.472920
H221	H22	0.125400	0.140500	0.499700
C651	C65	0.123700	0.249100	0.448400
C661	C66	0.294890	0.895090	0.556010
H231	H23	0.311000	0.844000	0.578700
C671	C67	0.163760	0.292780	0.410380
C681	C68	0.107850	0.552930	0.351260
H241	H24	0.095900	0.611100	0.338500
C691	C69	0.142200	0.382600	0.388600
C701	C70	0.435800	0.948600	0.586400
C711	C71	0.327500	0.133700	0.396700
C721	C72	0.105100	0.514600	0.246050
Zn131	Zn13	0.481230	0.274390	0.072240
Zn141	Zn14	0.385400	0.168920	0.932500
Zn151	Zn15	0.090300	0.468750	0.123900
Zn161	Zn16	0.046500	0.670390	0.167450
O371	O37	0.320000	0.270460	0.939630
O381	O38	0.453950	0.786400	0.983110
O391	O39	0.416450	0.346540	0.000900
O401	O40	0.508140	0.800660	0.080200
O411	O41	0.383460	0.078230	0.991100
O421	O42	0.393110	0.179280	0.061320
O431	O43	0.050690	0.386920	0.877570
O441	O44	0.170650	0.551380	0.107990
O451	O45	0.409390	0.091810	0.266480
O461	O46	0.386000	0.955330	0.289950
O471	O47	0.013830	0.502950	0.922710
O481	O48	0.123080	0.685850	0.117460
C731	C73	0.307720	0.481180	0.007250
H251	H25	0.362100	0.488200	0.027900
C741	C74	0.367840	0.946540	0.070810
H261	H26	0.363900	0.931700	0.030200
C751	C75	0.285000	0.405400	0.974700
C761	C76	0.149600	0.459800	0.946900
C771	C77	0.268700	0.752600	0.103600
H271	H27	0.240800	0.781500	0.129500
C781	C78	0.383500	0.031200	0.089200
C791	C79	0.241680	0.671820	0.080720
C801	C80	0.452180	0.781650	0.036220
C811	C81	0.387300	0.102370	0.043810
C821	C82	0.172620	0.534770	0.979360
H281	H28	0.133900	0.578600	0.980800
C831	C83	0.346400	0.336200	0.972200
C841	C84	0.365500	0.904260	0.170890
H291	H29	0.358600	0.861200	0.198900
C851	C85	0.280650	0.629080	0.041070
C861	C86	0.252550	0.546580	0.010110
C871	C87	0.383400	0.989820	0.189430
C881	C88	0.347640	0.668660	0.027080
H301	H30	0.374600	0.640500	0.000300
C891	C89	0.376300	0.749100	0.051600
C901	C90	0.205110	0.395090	0.943990
H311	H31	0.189000	0.344000	0.921300
C911	C91	0.336240	0.792780	0.089620
C921	C92	0.392150	0.052930	0.148740
H321	H32	0.404100	0.111100	0.161500
C931	C93	0.357800	0.882600	0.111400
C941	C94	0.064200	0.448600	0.913600
C951	C95	0.172500	0.633700	0.103300
C961	C96	0.394900	0.014600	0.253950
