data_NUHNUA_clean_PM
_symmetry_space_group_name_H-M	'P1'
_cell_length_a	12.341800
_cell_length_b	21.655000
_cell_length_c	34.182000
_cell_angle_alpha	90.000000
_cell_angle_beta	90.000000
_cell_angle_gamma	90.000000
_symmetry_Int_Tables_number 1

loop_
_symmetry_equiv_pos_as_xyz
'x,y,z'

loop_
_atom_site_label
_atom_site_type_symbol
_atom_site_fract_x
_atom_site_fract_y
_atom_site_fract_z
N11	N1	0.626700	0.193700	0.079490
N21	N2	0.358500	0.225500	0.001990
C11	C1	0.558900	0.188900	0.049400
H11	H1	0.511200	0.154400	0.048800
C21	C2	0.553400	0.230700	0.018950
C31	C3	0.625400	0.280900	0.020100
H21	H2	0.626800	0.310100	0.999400
C41	C4	0.693400	0.287200	0.051400
H31	H3	0.740800	0.321700	0.053100
C51	C5	0.692600	0.243000	0.080500
H41	H4	0.740500	0.247700	0.102000
C61	C6	0.472300	0.221400	0.986900
H51	H5	0.483800	0.180300	0.974800
H61	H6	0.483300	0.253100	0.966400
C71	C7	0.282000	0.207800	0.970700
H71	H7	0.297900	0.165200	0.961900
H81	H8	0.291100	0.235800	0.948000
C81	C8	0.333800	0.288600	0.014500
H91	H9	0.343300	0.317200	0.992200
H101	H10	0.384400	0.301100	0.035500
N31	N3	0.626700	0.693700	0.579490
N41	N4	0.358500	0.725500	0.501990
C91	C9	0.558900	0.688900	0.549400
H111	H11	0.511200	0.654400	0.548800
C101	C10	0.553400	0.730700	0.518950
C111	C11	0.625400	0.780900	0.520100
H121	H12	0.626800	0.810100	0.499400
C121	C12	0.693400	0.787200	0.551400
H131	H13	0.740800	0.821700	0.553100
C131	C13	0.692600	0.743000	0.580500
H141	H14	0.740500	0.747700	0.602000
C141	C14	0.472300	0.721400	0.486900
H151	H15	0.483800	0.680300	0.474800
H161	H16	0.483300	0.753100	0.466400
C151	C15	0.282000	0.707800	0.470700
H171	H17	0.297900	0.665200	0.461900
H181	H18	0.291100	0.735800	0.448000
C161	C16	0.333800	0.788600	0.514500
H191	H19	0.343300	0.817200	0.492200
H201	H20	0.384400	0.801100	0.535500
N51	N5	0.126700	0.193700	0.579490
N61	N6	0.858500	0.225500	0.501990
C171	C17	0.058900	0.188900	0.549400
H211	H21	0.011200	0.154400	0.548800
C181	C18	0.053400	0.230700	0.518950
C191	C19	0.125400	0.280900	0.520100
H221	H22	0.126800	0.310100	0.499400
C201	C20	0.193400	0.287200	0.551400
H231	H23	0.240800	0.321700	0.553100
C211	C21	0.192600	0.243000	0.580500
H241	H24	0.240500	0.247700	0.602000
C221	C22	0.972300	0.221400	0.486900
H251	H25	0.983800	0.180300	0.474800
H261	H26	0.983300	0.253100	0.466400
C231	C23	0.782000	0.207800	0.470700
H271	H27	0.797900	0.165200	0.461900
H281	H28	0.791100	0.235800	0.448000
C241	C24	0.833800	0.288600	0.514500
H291	H29	0.843300	0.317200	0.492200
H301	H30	0.884400	0.301100	0.535500
N71	N7	0.126700	0.693700	0.079490
N81	N8	0.858500	0.725500	0.001990
C251	C25	0.058900	0.688900	0.049400
H311	H31	0.011200	0.654400	0.048800
C261	C26	0.053400	0.730700	0.018950
C271	C27	0.125400	0.780900	0.020100
H321	H32	0.126800	0.810100	0.999400
C281	C28	0.193400	0.787200	0.051400
H331	H33	0.240800	0.821700	0.053100
C291	C29	0.192600	0.743000	0.080500
H341	H34	0.240500	0.747700	0.102000
C301	C30	0.972300	0.721400	0.986900
H351	H35	0.983800	0.680300	0.974800
H361	H36	0.983300	0.753100	0.966400
C311	C31	0.782000	0.707800	0.970700
H371	H37	0.797900	0.665200	0.961900
H381	H38	0.791100	0.735800	0.948000
C321	C32	0.833800	0.788600	0.014500
H391	H39	0.843300	0.817200	0.992200
H401	H40	0.884400	0.801100	0.035500
N91	N9	0.123300	0.556300	0.079490
N101	N10	0.391500	0.524500	0.001990
C331	C33	0.191100	0.561100	0.049400
H411	H41	0.238800	0.595600	0.048800
C341	C34	0.196600	0.519300	0.018950
C351	C35	0.124600	0.469100	0.020100
H421	H42	0.123200	0.439900	0.999400
C361	C36	0.056600	0.462800	0.051400
H431	H43	0.009200	0.428300	0.053100
C371	C37	0.057400	0.507000	0.080500
H441	H44	0.009500	0.502300	0.102000
C381	C38	0.277700	0.528600	0.986900
H451	H45	0.266200	0.569700	0.974800
H461	H46	0.266700	0.496900	0.966400
C391	C39	0.468000	0.542200	0.970700
H471	H47	0.452100	0.584800	0.961900
H481	H48	0.458900	0.514200	0.948000
C401	C40	0.416200	0.461400	0.014500
H491	H49	0.406700	0.432800	0.992200
H501	H50	0.365600	0.448900	0.035500
N111	N11	0.123300	0.056300	0.579490
N121	N12	0.391500	0.024500	0.501990
C411	C41	0.191100	0.061100	0.549400
H511	H51	0.238800	0.095600	0.548800
C421	C42	0.196600	0.019300	0.518950
C431	C43	0.124600	0.969100	0.520100
H521	H52	0.123200	0.939900	0.499400
C441	C44	0.056600	0.962800	0.551400
H531	H53	0.009200	0.928300	0.553100
C451	C45	0.057400	0.007000	0.580500
H541	H54	0.009500	0.002300	0.602000
C461	C46	0.277700	0.028600	0.486900
H551	H55	0.266200	0.069700	0.474800
H561	H56	0.266700	0.996900	0.466400
C471	C47	0.468000	0.042200	0.470700
H571	H57	0.452100	0.084800	0.461900
H581	H58	0.458900	0.014200	0.448000
C481	C48	0.416200	0.961400	0.514500
H591	H59	0.406700	0.932800	0.492200
H601	H60	0.365600	0.948900	0.535500
N131	N13	0.623300	0.556300	0.579490
N141	N14	0.891500	0.524500	0.501990
C491	C49	0.691100	0.561100	0.549400
H611	H61	0.738800	0.595600	0.548800
C501	C50	0.696600	0.519300	0.518950
C511	C51	0.624600	0.469100	0.520100
H621	H62	0.623200	0.439900	0.499400
C521	C52	0.556600	0.462800	0.551400
H631	H63	0.509200	0.428300	0.553100
C531	C53	0.557400	0.507000	0.580500
H641	H64	0.509500	0.502300	0.602000
C541	C54	0.777700	0.528600	0.486900
H651	H65	0.766200	0.569700	0.474800
H661	H66	0.766700	0.496900	0.466400
C551	C55	0.968000	0.542200	0.470700
H671	H67	0.952100	0.584800	0.461900
H681	H68	0.958900	0.514200	0.448000
C561	C56	0.916200	0.461400	0.514500
H691	H69	0.906700	0.432800	0.492200
H701	H70	0.865600	0.448900	0.535500
N151	N15	0.623300	0.056300	0.079490
N161	N16	0.891500	0.024500	0.001990
C571	C57	0.691100	0.061100	0.049400
H711	H71	0.738800	0.095600	0.048800
C581	C58	0.696600	0.019300	0.018950
C591	C59	0.624600	0.969100	0.020100
H721	H72	0.623200	0.939900	0.999400
C601	C60	0.556600	0.962800	0.051400
H731	H73	0.509200	0.928300	0.053100
C611	C61	0.557400	0.007000	0.080500
H741	H74	0.509500	0.002300	0.102000
C621	C62	0.777700	0.028600	0.986900
H751	H75	0.766200	0.069700	0.974800
H761	H76	0.766700	0.996900	0.966400
C631	C63	0.968000	0.042200	0.970700
H771	H77	0.952100	0.084800	0.961900
H781	H78	0.958900	0.014200	0.948000
C641	C64	0.916200	0.961400	0.014500
H791	H79	0.906700	0.932800	0.992200
H801	H80	0.865600	0.948900	0.035500
N171	N17	0.123300	0.193700	0.670510
N181	N18	0.391500	0.225500	0.748010
C651	C65	0.191100	0.188900	0.700600
H811	H81	0.238800	0.154400	0.701200
C661	C66	0.196600	0.230700	0.731050
C671	C67	0.124600	0.280900	0.729900
H821	H82	0.123200	0.310100	0.750600
C681	C68	0.056600	0.287200	0.698600
H831	H83	0.009200	0.321700	0.696900
C691	C69	0.057400	0.243000	0.669500
H841	H84	0.009500	0.247700	0.648000
C701	C70	0.277700	0.221400	0.763100
H851	H85	0.266200	0.180300	0.775200
H861	H86	0.266700	0.253100	0.783600
C711	C71	0.468000	0.207800	0.779300
H871	H87	0.452100	0.165200	0.788100
H881	H88	0.458900	0.235800	0.802000
C721	C72	0.416200	0.288600	0.735500
H891	H89	0.406700	0.317200	0.757800
H901	H90	0.365600	0.301100	0.714500
N191	N19	0.123300	0.693700	0.170510
N201	N20	0.391500	0.725500	0.248010
C731	C73	0.191100	0.688900	0.200600
H911	H91	0.238800	0.654400	0.201200
C741	C74	0.196600	0.730700	0.231050
C751	C75	0.124600	0.780900	0.229900
H921	H92	0.123200	0.810100	0.250600
C761	C76	0.056600	0.787200	0.198600
H931	H93	0.009200	0.821700	0.196900
C771	C77	0.057400	0.743000	0.169500
H941	H94	0.009500	0.747700	0.148000
C781	C78	0.277700	0.721400	0.263100
H951	H95	0.266200	0.680300	0.275200
H961	H96	0.266700	0.753100	0.283600
C791	C79	0.468000	0.707800	0.279300
H971	H97	0.452100	0.665200	0.288100
H981	H98	0.458900	0.735800	0.302000
C801	C80	0.416200	0.788600	0.235500
H991	H99	0.406700	0.817200	0.257800
H1001	H100	0.365600	0.801100	0.214500
N211	N21	0.623300	0.193700	0.170510
N221	N22	0.891500	0.225500	0.248010
C811	C81	0.691100	0.188900	0.200600
H1011	H101	0.738800	0.154400	0.201200
C821	C82	0.696600	0.230700	0.231050
C831	C83	0.624600	0.280900	0.229900
H1021	H102	0.623200	0.310100	0.250600
C841	C84	0.556600	0.287200	0.198600
H1031	H103	0.509200	0.321700	0.196900
C851	C85	0.557400	0.243000	0.169500
H1041	H104	0.509500	0.247700	0.148000
C861	C86	0.777700	0.221400	0.263100
H1051	H105	0.766200	0.180300	0.275200
H1061	H106	0.766700	0.253100	0.283600
C871	C87	0.968000	0.207800	0.279300
H1071	H107	0.952100	0.165200	0.288100
H1081	H108	0.958900	0.235800	0.302000
C881	C88	0.916200	0.288600	0.235500
H1091	H109	0.906700	0.317200	0.257800
H1101	H110	0.865600	0.301100	0.214500
N231	N23	0.623300	0.693700	0.670510
N241	N24	0.891500	0.725500	0.748010
C891	C89	0.691100	0.688900	0.700600
H1111	H111	0.738800	0.654400	0.701200
C901	C90	0.696600	0.730700	0.731050
C911	C91	0.624600	0.780900	0.729900
H1121	H112	0.623200	0.810100	0.750600
C921	C92	0.556600	0.787200	0.698600
H1131	H113	0.509200	0.821700	0.696900
C931	C93	0.557400	0.743000	0.669500
H1141	H114	0.509500	0.747700	0.648000
C941	C94	0.777700	0.721400	0.763100
H1151	H115	0.766200	0.680300	0.775200
H1161	H116	0.766700	0.753100	0.783600
C951	C95	0.968000	0.707800	0.779300
H1171	H117	0.952100	0.665200	0.788100
H1181	H118	0.958900	0.735800	0.802000
C961	C96	0.916200	0.788600	0.735500
H1191	H119	0.906700	0.817200	0.757800
H1201	H120	0.865600	0.801100	0.714500
N251	N25	0.626700	0.556300	0.670510
N261	N26	0.358500	0.524500	0.748010
C971	C97	0.558900	0.561100	0.700600
H1211	H121	0.511200	0.595600	0.701200
C981	C98	0.553400	0.519300	0.731050
C991	C99	0.625400	0.469100	0.729900
H1221	H122	0.626800	0.439900	0.750600
C1001	C100	0.693400	0.462800	0.698600
H1231	H123	0.740800	0.428300	0.696900
C1011	C101	0.692600	0.507000	0.669500
H1241	H124	0.740500	0.502300	0.648000
C1021	C102	0.472300	0.528600	0.763100
H1251	H125	0.483800	0.569700	0.775200
H1261	H126	0.483300	0.496900	0.783600
C1031	C103	0.282000	0.542200	0.779300
H1271	H127	0.297900	0.584800	0.788100
H1281	H128	0.291100	0.514200	0.802000
C1041	C104	0.333800	0.461400	0.735500
H1291	H129	0.343300	0.432800	0.757800
H1301	H130	0.384400	0.448900	0.714500
N271	N27	0.626700	0.056300	0.170510
N281	N28	0.358500	0.024500	0.248010
C1051	C105	0.558900	0.061100	0.200600
H1311	H131	0.511200	0.095600	0.201200
C1061	C106	0.553400	0.019300	0.231050
C1071	C107	0.625400	0.969100	0.229900
H1321	H132	0.626800	0.939900	0.250600
C1081	C108	0.693400	0.962800	0.198600
H1331	H133	0.740800	0.928300	0.196900
C1091	C109	0.692600	0.007000	0.169500
H1341	H134	0.740500	0.002300	0.148000
C1101	C110	0.472300	0.028600	0.263100
H1351	H135	0.483800	0.069700	0.275200
H1361	H136	0.483300	0.996900	0.283600
C1111	C111	0.282000	0.042200	0.279300
H1371	H137	0.297900	0.084800	0.288100
H1381	H138	0.291100	0.014200	0.302000
C1121	C112	0.333800	0.961400	0.235500
H1391	H139	0.343300	0.932800	0.257800
H1401	H140	0.384400	0.948900	0.214500
N291	N29	0.126700	0.556300	0.170510
N301	N30	0.858500	0.524500	0.248010
C1131	C113	0.058900	0.561100	0.200600
H1411	H141	0.011200	0.595600	0.201200
C1141	C114	0.053400	0.519300	0.231050
C1151	C115	0.125400	0.469100	0.229900
H1421	H142	0.126800	0.439900	0.250600
C1161	C116	0.193400	0.462800	0.198600
H1431	H143	0.240800	0.428300	0.196900
C1171	C117	0.192600	0.507000	0.169500
H1441	H144	0.240500	0.502300	0.148000
C1181	C118	0.972300	0.528600	0.263100
H1451	H145	0.983800	0.569700	0.275200
H1461	H146	0.983300	0.496900	0.283600
C1191	C119	0.782000	0.542200	0.279300
H1471	H147	0.797900	0.584800	0.288100
H1481	H148	0.791100	0.514200	0.302000
C1201	C120	0.833800	0.461400	0.235500
H1491	H149	0.843300	0.432800	0.257800
H1501	H150	0.884400	0.448900	0.214500
N311	N31	0.126700	0.056300	0.670510
N321	N32	0.858500	0.024500	0.748010
C1211	C121	0.058900	0.061100	0.700600
H1511	H151	0.011200	0.095600	0.701200
C1221	C122	0.053400	0.019300	0.731050
C1231	C123	0.125400	0.969100	0.729900
H1521	H152	0.126800	0.939900	0.750600
C1241	C124	0.193400	0.962800	0.698600
H1531	H153	0.240800	0.928300	0.696900
C1251	C125	0.192600	0.007000	0.669500
H1541	H154	0.240500	0.002300	0.648000
C1261	C126	0.972300	0.028600	0.763100
H1551	H155	0.983800	0.069700	0.775200
H1561	H156	0.983300	0.996900	0.783600
C1271	C127	0.782000	0.042200	0.779300
H1571	H157	0.797900	0.084800	0.788100
H1581	H158	0.791100	0.014200	0.802000
C1281	C128	0.833800	0.961400	0.735500
H1591	H159	0.843300	0.932800	0.757800
H1601	H160	0.884400	0.948900	0.714500
N331	N33	0.373300	0.806300	0.920510
N341	N34	0.641500	0.774500	0.998010
C1291	C129	0.441100	0.811100	0.950600
H1611	H161	0.488800	0.845600	0.951200
C1301	C130	0.446600	0.769300	0.981050
C1311	C131	0.374600	0.719100	0.979900
H1621	H162	0.373200	0.689900	0.000600
C1321	C132	0.306600	0.712800	0.948600
H1631	H163	0.259200	0.678300	0.946900
C1331	C133	0.307400	0.757000	0.919500
H1641	H164	0.259500	0.752300	0.898000
C1341	C134	0.527700	0.778600	0.013100
H1651	H165	0.516200	0.819700	0.025200
H1661	H166	0.516700	0.746900	0.033600
C1351	C135	0.718000	0.792200	0.029300
H1671	H167	0.702100	0.834800	0.038100
H1681	H168	0.708900	0.764200	0.052000
C1361	C136	0.666200	0.711400	0.985500
H1691	H169	0.656700	0.682800	0.007800
H1701	H170	0.615600	0.698900	0.964500
N351	N35	0.373300	0.306300	0.420510
N361	N36	0.641500	0.274500	0.498010
C1371	C137	0.441100	0.311100	0.450600
H1711	H171	0.488800	0.345600	0.451200
C1381	C138	0.446600	0.269300	0.481050
C1391	C139	0.374600	0.219100	0.479900
H1721	H172	0.373200	0.189900	0.500600
C1401	C140	0.306600	0.212800	0.448600
H1731	H173	0.259200	0.178300	0.446900
C1411	C141	0.307400	0.257000	0.419500
H1741	H174	0.259500	0.252300	0.398000
C1421	C142	0.527700	0.278600	0.513100
H1751	H175	0.516200	0.319700	0.525200
H1761	H176	0.516700	0.246900	0.533600
C1431	C143	0.718000	0.292200	0.529300
H1771	H177	0.702100	0.334800	0.538100
H1781	H178	0.708900	0.264200	0.552000
C1441	C144	0.666200	0.211400	0.485500
H1791	H179	0.656700	0.182800	0.507800
H1801	H180	0.615600	0.198900	0.464500
N371	N37	0.873300	0.806300	0.420510
N381	N38	0.141500	0.774500	0.498010
C1451	C145	0.941100	0.811100	0.450600
H1811	H181	0.988800	0.845600	0.451200
C1461	C146	0.946600	0.769300	0.481050
C1471	C147	0.874600	0.719100	0.479900
H1821	H182	0.873200	0.689900	0.500600
C1481	C148	0.806600	0.712800	0.448600
H1831	H183	0.759200	0.678300	0.446900
C1491	C149	0.807400	0.757000	0.419500
H1841	H184	0.759500	0.752300	0.398000
C1501	C150	0.027700	0.778600	0.513100
H1851	H185	0.016200	0.819700	0.525200
H1861	H186	0.016700	0.746900	0.533600
C1511	C151	0.218000	0.792200	0.529300
H1871	H187	0.202100	0.834800	0.538100
H1881	H188	0.208900	0.764200	0.552000
C1521	C152	0.166200	0.711400	0.485500
H1891	H189	0.156700	0.682800	0.507800
H1901	H190	0.115600	0.698900	0.464500
N391	N39	0.873300	0.306300	0.920510
N401	N40	0.141500	0.274500	0.998010
C1531	C153	0.941100	0.311100	0.950600
H1911	H191	0.988800	0.345600	0.951200
C1541	C154	0.946600	0.269300	0.981050
C1551	C155	0.874600	0.219100	0.979900
H1921	H192	0.873200	0.189900	0.000600
C1561	C156	0.806600	0.212800	0.948600
H1931	H193	0.759200	0.178300	0.946900
C1571	C157	0.807400	0.257000	0.919500
H1941	H194	0.759500	0.252300	0.898000
C1581	C158	0.027700	0.278600	0.013100
H1951	H195	0.016200	0.319700	0.025200
H1961	H196	0.016700	0.246900	0.033600
C1591	C159	0.218000	0.292200	0.029300
H1971	H197	0.202100	0.334800	0.038100
H1981	H198	0.208900	0.264200	0.052000
C1601	C160	0.166200	0.211400	0.985500
H1991	H199	0.156700	0.182800	0.007800
H2001	H200	0.115600	0.198900	0.964500
N411	N41	0.876700	0.443700	0.920510
N421	N42	0.608500	0.475500	0.998010
C1611	C161	0.808900	0.438900	0.950600
H2011	H201	0.761200	0.404400	0.951200
C1621	C162	0.803400	0.480700	0.981050
C1631	C163	0.875400	0.530900	0.979900
H2021	H202	0.876800	0.560100	0.000600
C1641	C164	0.943400	0.537200	0.948600
H2031	H203	0.990800	0.571700	0.946900
C1651	C165	0.942600	0.493000	0.919500
H2041	H204	0.990500	0.497700	0.898000
C1661	C166	0.722300	0.471400	0.013100
H2051	H205	0.733800	0.430300	0.025200
H2061	H206	0.733300	0.503100	0.033600
C1671	C167	0.532000	0.457800	0.029300
H2071	H207	0.547900	0.415200	0.038100
H2081	H208	0.541100	0.485800	0.052000
C1681	C168	0.583800	0.538600	0.985500
H2091	H209	0.593300	0.567200	0.007800
H2101	H210	0.634400	0.551100	0.964500
N431	N43	0.876700	0.943700	0.420510
N441	N44	0.608500	0.975500	0.498010
C1691	C169	0.808900	0.938900	0.450600
H2111	H211	0.761200	0.904400	0.451200
C1701	C170	0.803400	0.980700	0.481050
C1711	C171	0.875400	0.030900	0.479900
H2121	H212	0.876800	0.060100	0.500600
C1721	C172	0.943400	0.037200	0.448600
H2131	H213	0.990800	0.071700	0.446900
C1731	C173	0.942600	0.993000	0.419500
H2141	H214	0.990500	0.997700	0.398000
C1741	C174	0.722300	0.971400	0.513100
H2151	H215	0.733800	0.930300	0.525200
H2161	H216	0.733300	0.003100	0.533600
C1751	C175	0.532000	0.957800	0.529300
H2171	H217	0.547900	0.915200	0.538100
H2181	H218	0.541100	0.985800	0.552000
C1761	C176	0.583800	0.038600	0.485500
H2191	H219	0.593300	0.067200	0.507800
H2201	H220	0.634400	0.051100	0.464500
N451	N45	0.376700	0.443700	0.420510
N461	N46	0.108500	0.475500	0.498010
C1771	C177	0.308900	0.438900	0.450600
H2211	H221	0.261200	0.404400	0.451200
C1781	C178	0.303400	0.480700	0.481050
C1791	C179	0.375400	0.530900	0.479900
H2221	H222	0.376800	0.560100	0.500600
C1801	C180	0.443400	0.537200	0.448600
H2231	H223	0.490800	0.571700	0.446900
C1811	C181	0.442600	0.493000	0.419500
H2241	H224	0.490500	0.497700	0.398000
C1821	C182	0.222300	0.471400	0.513100
H2251	H225	0.233800	0.430300	0.525200
H2261	H226	0.233300	0.503100	0.533600
C1831	C183	0.032000	0.457800	0.529300
H2271	H227	0.047900	0.415200	0.538100
H2281	H228	0.041100	0.485800	0.552000
C1841	C184	0.083800	0.538600	0.485500
H2291	H229	0.093300	0.567200	0.507800
H2301	H230	0.134400	0.551100	0.464500
N471	N47	0.376700	0.943700	0.920510
N481	N48	0.108500	0.975500	0.998010
C1851	C185	0.308900	0.938900	0.950600
H2311	H231	0.261200	0.904400	0.951200
C1861	C186	0.303400	0.980700	0.981050
C1871	C187	0.375400	0.030900	0.979900
H2321	H232	0.376800	0.060100	0.000600
C1881	C188	0.443400	0.037200	0.948600
H2331	H233	0.490800	0.071700	0.946900
C1891	C189	0.442600	0.993000	0.919500
H2341	H234	0.490500	0.997700	0.898000
C1901	C190	0.222300	0.971400	0.013100
H2351	H235	0.233800	0.930300	0.025200
H2361	H236	0.233300	0.003100	0.033600
C1911	C191	0.032000	0.957800	0.029300
H2371	H237	0.047900	0.915200	0.038100
H2381	H238	0.041100	0.985800	0.052000
C1921	C192	0.083800	0.038600	0.985500
H2391	H239	0.093300	0.067200	0.007800
H2401	H240	0.134400	0.051100	0.964500
N491	N49	0.876700	0.806300	0.329490
N501	N50	0.608500	0.774500	0.251990
C1931	C193	0.808900	0.811100	0.299400
H2411	H241	0.761200	0.845600	0.298800
C1941	C194	0.803400	0.769300	0.268950
C1951	C195	0.875400	0.719100	0.270100
H2421	H242	0.876800	0.689900	0.249400
C1961	C196	0.943400	0.712800	0.301400
H2431	H243	0.990800	0.678300	0.303100
C1971	C197	0.942600	0.757000	0.330500
H2441	H244	0.990500	0.752300	0.352000
C1981	C198	0.722300	0.778600	0.236900
H2451	H245	0.733800	0.819700	0.224800
H2461	H246	0.733300	0.746900	0.216400
C1991	C199	0.532000	0.792200	0.220700
H2471	H247	0.547900	0.834800	0.211900
H2481	H248	0.541100	0.764200	0.198000
C2001	C200	0.583800	0.711400	0.264500
H2491	H249	0.593300	0.682800	0.242200
H2501	H250	0.634400	0.698900	0.285500
N511	N51	0.876700	0.306300	0.829490
N521	N52	0.608500	0.274500	0.751990
C2011	C201	0.808900	0.311100	0.799400
H2511	H251	0.761200	0.345600	0.798800
C2021	C202	0.803400	0.269300	0.768950
C2031	C203	0.875400	0.219100	0.770100
H2521	H252	0.876800	0.189900	0.749400
C2041	C204	0.943400	0.212800	0.801400
H2531	H253	0.990800	0.178300	0.803100
C2051	C205	0.942600	0.257000	0.830500
H2541	H254	0.990500	0.252300	0.852000
C2061	C206	0.722300	0.278600	0.736900
H2551	H255	0.733800	0.319700	0.724800
H2561	H256	0.733300	0.246900	0.716400
C2071	C207	0.532000	0.292200	0.720700
H2571	H257	0.547900	0.334800	0.711900
H2581	H258	0.541100	0.264200	0.698000
C2081	C208	0.583800	0.211400	0.764500
H2591	H259	0.593300	0.182800	0.742200
H2601	H260	0.634400	0.198900	0.785500
N531	N53	0.376700	0.806300	0.829490
N541	N54	0.108500	0.774500	0.751990
C2091	C209	0.308900	0.811100	0.799400
H2611	H261	0.261200	0.845600	0.798800
C2101	C210	0.303400	0.769300	0.768950
C2111	C211	0.375400	0.719100	0.770100
H2621	H262	0.376800	0.689900	0.749400
C2121	C212	0.443400	0.712800	0.801400
H2631	H263	0.490800	0.678300	0.803100
C2131	C213	0.442600	0.757000	0.830500
H2641	H264	0.490500	0.752300	0.852000
C2141	C214	0.222300	0.778600	0.736900
H2651	H265	0.233800	0.819700	0.724800
H2661	H266	0.233300	0.746900	0.716400
C2151	C215	0.032000	0.792200	0.720700
H2671	H267	0.047900	0.834800	0.711900
H2681	H268	0.041100	0.764200	0.698000
C2161	C216	0.083800	0.711400	0.764500
H2691	H269	0.093300	0.682800	0.742200
H2701	H270	0.134400	0.698900	0.785500
N551	N55	0.376700	0.306300	0.329490
N561	N56	0.108500	0.274500	0.251990
C2171	C217	0.308900	0.311100	0.299400
H2711	H271	0.261200	0.345600	0.298800
C2181	C218	0.303400	0.269300	0.268950
C2191	C219	0.375400	0.219100	0.270100
H2721	H272	0.376800	0.189900	0.249400
C2201	C220	0.443400	0.212800	0.301400
H2731	H273	0.490800	0.178300	0.303100
C2211	C221	0.442600	0.257000	0.330500
H2741	H274	0.490500	0.252300	0.352000
C2221	C222	0.222300	0.278600	0.236900
H2751	H275	0.233800	0.319700	0.224800
H2761	H276	0.233300	0.246900	0.216400
C2231	C223	0.032000	0.292200	0.220700
H2771	H277	0.047900	0.334800	0.211900
H2781	H278	0.041100	0.264200	0.198000
C2241	C224	0.083800	0.211400	0.264500
H2791	H279	0.093300	0.182800	0.242200
H2801	H280	0.134400	0.198900	0.285500
N571	N57	0.373300	0.443700	0.329490
N581	N58	0.641500	0.475500	0.251990
C2251	C225	0.441100	0.438900	0.299400
H2811	H281	0.488800	0.404400	0.298800
C2261	C226	0.446600	0.480700	0.268950
C2271	C227	0.374600	0.530900	0.270100
H2821	H282	0.373200	0.560100	0.249400
C2281	C228	0.306600	0.537200	0.301400
H2831	H283	0.259200	0.571700	0.303100
C2291	C229	0.307400	0.493000	0.330500
H2841	H284	0.259500	0.497700	0.352000
C2301	C230	0.527700	0.471400	0.236900
H2851	H285	0.516200	0.430300	0.224800
H2861	H286	0.516700	0.503100	0.216400
C2311	C231	0.718000	0.457800	0.220700
H2871	H287	0.702100	0.415200	0.211900
H2881	H288	0.708900	0.485800	0.198000
C2321	C232	0.666200	0.538600	0.264500
H2891	H289	0.656700	0.567200	0.242200
H2901	H290	0.615600	0.551100	0.285500
N591	N59	0.373300	0.943700	0.829490
N601	N60	0.641500	0.975500	0.751990
C2331	C233	0.441100	0.938900	0.799400
H2911	H291	0.488800	0.904400	0.798800
C2341	C234	0.446600	0.980700	0.768950
C2351	C235	0.374600	0.030900	0.770100
H2921	H292	0.373200	0.060100	0.749400
C2361	C236	0.306600	0.037200	0.801400
H2931	H293	0.259200	0.071700	0.803100
C2371	C237	0.307400	0.993000	0.830500
H2941	H294	0.259500	0.997700	0.852000
C2381	C238	0.527700	0.971400	0.736900
H2951	H295	0.516200	0.930300	0.724800
H2961	H296	0.516700	0.003100	0.716400
C2391	C239	0.718000	0.957800	0.720700
H2971	H297	0.702100	0.915200	0.711900
H2981	H298	0.708900	0.985800	0.698000
C2401	C240	0.666200	0.038600	0.764500
H2991	H299	0.656700	0.067200	0.742200
H3001	H300	0.615600	0.051100	0.785500
N611	N61	0.873300	0.443700	0.829490
N621	N62	0.141500	0.475500	0.751990
C2411	C241	0.941100	0.438900	0.799400
H3011	H301	0.988800	0.404400	0.798800
C2421	C242	0.946600	0.480700	0.768950
C2431	C243	0.874600	0.530900	0.770100
H3021	H302	0.873200	0.560100	0.749400
C2441	C244	0.806600	0.537200	0.801400
H3031	H303	0.759200	0.571700	0.803100
C2451	C245	0.807400	0.493000	0.830500
H3041	H304	0.759500	0.497700	0.852000
C2461	C246	0.027700	0.471400	0.736900
H3051	H305	0.016200	0.430300	0.724800
H3061	H306	0.016700	0.503100	0.716400
C2471	C247	0.218000	0.457800	0.720700
H3071	H307	0.202100	0.415200	0.711900
H3081	H308	0.208900	0.485800	0.698000
C2481	C248	0.166200	0.538600	0.764500
H3091	H309	0.156700	0.567200	0.742200
H3101	H310	0.115600	0.551100	0.785500
N631	N63	0.873300	0.943700	0.329490
N641	N64	0.141500	0.975500	0.251990
C2491	C249	0.941100	0.938900	0.299400
H3111	H311	0.988800	0.904400	0.298800
C2501	C250	0.946600	0.980700	0.268950
C2511	C251	0.874600	0.030900	0.270100
H3121	H312	0.873200	0.060100	0.249400
C2521	C252	0.806600	0.037200	0.301400
H3131	H313	0.759200	0.071700	0.303100
C2531	C253	0.807400	0.993000	0.330500
H3141	H314	0.759500	0.997700	0.352000
C2541	C254	0.027700	0.971400	0.236900
H3151	H315	0.016200	0.930300	0.224800
H3161	H316	0.016700	0.003100	0.216400
C2551	C255	0.218000	0.957800	0.220700
H3171	H317	0.202100	0.915200	0.211900
H3181	H318	0.208900	0.985800	0.198000
C2561	C256	0.166200	0.038600	0.264500
H3191	H319	0.156700	0.067200	0.242200
H3201	H320	0.115600	0.051100	0.285500
Co11	Co1	0.625000	0.125000	0.125000
Co21	Co2	0.625000	0.625000	0.625000
Co31	Co3	0.125000	0.625000	0.125000
Co41	Co4	0.125000	0.125000	0.625000
Co51	Co5	0.375000	0.875000	0.875000
Co61	Co6	0.375000	0.375000	0.375000
Co71	Co7	0.875000	0.375000	0.875000
Co81	Co8	0.875000	0.875000	0.375000
