data_NUHPAI_clean_PM
_symmetry_space_group_name_H-M	'P1'
_cell_length_a	12.335000
_cell_length_b	12.496500
_cell_length_c	18.185800
_cell_angle_alpha	80.364600
_cell_angle_beta	70.175800
_cell_angle_gamma	60.426600
_symmetry_Int_Tables_number 1

loop_
_symmetry_equiv_pos_as_xyz
'x,y,z'

loop_
_atom_site_label
_atom_site_type_symbol
_atom_site_fract_x
_atom_site_fract_y
_atom_site_fract_z
Zn11	Zn1	0.625000	0.250000	0.750000
Zn21	Zn2	0.375000	0.750000	0.250000
H11	H1	0.406600	0.309200	0.903000
H21	H2	0.317700	0.620000	0.001200
H31	H3	0.476400	0.641200	0.892400
H41	H4	0.595500	0.495400	0.795600
H51	H5	0.279200	0.360600	0.049000
H61	H6	0.197500	0.505200	0.066800
H71	H7	0.092900	0.332200	0.076200
H81	H8	0.002900	0.473200	0.103400
H91	H9	0.019000	0.632200	0.015400
H101	H10	0.119000	0.600400	0.928600
H111	H11	0.690400	0.190800	0.903000
H121	H12	0.681100	0.880000	0.001200
H131	H13	0.631200	0.858800	0.892400
H141	H14	0.608900	0.004600	0.795600
H151	H15	0.671800	0.139400	0.049000
H161	H16	0.735700	0.994800	0.066800
H171	H17	0.830900	0.167800	0.076200
H181	H18	0.893700	0.026800	0.103400
H191	H19	0.965600	0.867800	0.015400
H201	H20	0.952400	0.899600	0.928600
H211	H21	0.784200	0.309200	0.597000
H221	H22	0.562300	0.620000	0.498800
H231	H23	0.382400	0.641200	0.607600
H241	H24	0.409100	0.495400	0.704400
H251	H25	0.860200	0.360600	0.451000
H261	H26	0.797300	0.505200	0.433200
H271	H27	0.074900	0.332200	0.423800
H281	H28	0.023900	0.473200	0.396600
H291	H29	0.848800	0.632200	0.484600
H301	H30	0.780600	0.600400	0.571400
H311	H31	0.618800	0.190800	0.597000
H321	H32	0.938900	0.880000	0.498800
H331	H33	0.010000	0.858800	0.607600
H341	H34	0.886500	0.004600	0.704400
H351	H35	0.688800	0.139400	0.451000
H361	H36	0.769500	0.994800	0.433200
H371	H37	0.501300	0.167800	0.423800
H381	H38	0.579500	0.026800	0.396600
H391	H39	0.666600	0.867800	0.484600
H401	H40	0.648000	0.899600	0.571400
H411	H41	0.593400	0.690800	0.097000
H421	H42	0.682300	0.380000	0.998800
H431	H43	0.523600	0.358800	0.107600
H441	H44	0.404500	0.504600	0.204400
H451	H45	0.720800	0.639400	0.951000
H461	H46	0.802500	0.494800	0.933200
H471	H47	0.907100	0.667800	0.923800
H481	H48	0.997100	0.526800	0.896600
H491	H49	0.981000	0.367800	0.984600
H501	H50	0.881000	0.399600	0.071400
H511	H51	0.309600	0.809200	0.097000
H521	H52	0.318900	0.120000	0.998800
H531	H53	0.368800	0.141200	0.107600
H541	H54	0.391100	0.995400	0.204400
H551	H55	0.328200	0.860600	0.951000
H561	H56	0.264300	0.005200	0.933200
H571	H57	0.169100	0.832200	0.923800
H581	H58	0.106300	0.973200	0.896600
H591	H59	0.034400	0.132200	0.984600
H601	H60	0.047600	0.100400	0.071400
H611	H61	0.215800	0.690800	0.403000
H621	H62	0.437700	0.380000	0.501200
H631	H63	0.617600	0.358800	0.392400
H641	H64	0.590900	0.504600	0.295600
H651	H65	0.139800	0.639400	0.549000
H661	H66	0.202700	0.494800	0.566800
H671	H67	0.925100	0.667800	0.576200
H681	H68	0.976100	0.526800	0.603400
H691	H69	0.151200	0.367800	0.515400
H701	H70	0.219400	0.399600	0.428600
H711	H71	0.381200	0.809200	0.403000
H721	H72	0.061100	0.120000	0.501200
H731	H73	0.990000	0.141200	0.392400
H741	H74	0.113500	0.995400	0.295600
H751	H75	0.311200	0.860600	0.549000
H761	H76	0.230500	0.005200	0.566800
H771	H77	0.498700	0.832200	0.576200
H781	H78	0.420500	0.973200	0.603400
H791	H79	0.333400	0.132200	0.515400
H801	H80	0.352000	0.100400	0.428600
C11	C1	0.419520	0.378600	0.901160
C21	C2	0.341410	0.462600	0.961180
C31	C3	0.365340	0.562000	0.959720
C41	C4	0.460370	0.573200	0.896060
C51	C5	0.530550	0.486400	0.838700
C61	C6	0.238390	0.442600	0.025420
C71	C7	0.043920	0.417000	0.058360
C81	C8	0.060030	0.575200	0.970740
C91	C9	0.679320	0.121400	0.901160
C101	C10	0.697410	0.037400	0.961180
C111	C11	0.674940	0.938000	0.959720
C121	C12	0.643570	0.926800	0.896060
C131	C13	0.630750	0.013600	0.838700
C141	C14	0.736190	0.057400	0.025420
C151	C15	0.897720	0.083000	0.058360
C161	C16	0.969230	0.924800	0.970740
C171	C17	0.701880	0.378600	0.598840
C181	C18	0.695990	0.462600	0.538820
C191	C19	0.572660	0.562000	0.540280
C201	C20	0.466430	0.573200	0.603940
C211	C21	0.483050	0.486400	0.661300
C221	C22	0.819010	0.442600	0.474580
C231	C23	0.039080	0.417000	0.441640
C241	C24	0.864770	0.575200	0.529260
C251	C25	0.699280	0.121400	0.598840
C261	C26	0.765190	0.037400	0.538820
C271	C27	0.887060	0.938000	0.540280
C281	C28	0.929630	0.926800	0.603940
C291	C29	0.855650	0.013600	0.661300
C301	C30	0.706410	0.057400	0.474580
C311	C31	0.519280	0.083000	0.441640
C321	C32	0.605970	0.924800	0.529260
C331	C33	0.580480	0.621400	0.098840
C341	C34	0.658590	0.537400	0.038820
C351	C35	0.634660	0.438000	0.040280
C361	C36	0.539630	0.426800	0.103940
C371	C37	0.469450	0.513600	0.161300
C381	C38	0.761610	0.557400	0.974580
C391	C39	0.956080	0.583000	0.941640
C401	C40	0.939970	0.424800	0.029260
C411	C41	0.320680	0.878600	0.098840
C421	C42	0.302590	0.962600	0.038820
C431	C43	0.325060	0.062000	0.040280
C441	C44	0.356430	0.073200	0.103940
C451	C45	0.369250	0.986400	0.161300
C461	C46	0.263810	0.942600	0.974580
C471	C47	0.102280	0.917000	0.941640
C481	C48	0.030770	0.075200	0.029260
C491	C49	0.298120	0.621400	0.401160
C501	C50	0.304010	0.537400	0.461180
C511	C51	0.427340	0.438000	0.459720
C521	C52	0.533570	0.426800	0.396060
C531	C53	0.516950	0.513600	0.338700
C541	C54	0.180990	0.557400	0.525420
C551	C55	0.960920	0.583000	0.558360
C561	C56	0.135230	0.424800	0.470740
C571	C57	0.300720	0.878600	0.401160
C581	C58	0.234810	0.962600	0.461180
C591	C59	0.112940	0.062000	0.459720
C601	C60	0.070370	0.073200	0.396060
C611	C61	0.144350	0.986400	0.338700
C621	C62	0.293590	0.942600	0.525420
C631	C63	0.480720	0.917000	0.558360
C641	C64	0.394030	0.075200	0.470740
N11	N1	0.512430	0.389000	0.840340
N21	N2	0.134520	0.451400	0.995160
N31	N3	0.647230	0.111000	0.840340
N41	N4	0.870320	0.048600	0.995160
N51	N5	0.598570	0.389000	0.659660
N61	N6	0.914080	0.451400	0.504840
N71	N7	0.741770	0.111000	0.659660
N81	N8	0.581080	0.048600	0.504840
N91	N9	0.487570	0.611000	0.159660
N101	N10	0.865480	0.548600	0.004840
N111	N11	0.352770	0.889000	0.159660
N121	N12	0.129680	0.951400	0.004840
N131	N13	0.401430	0.611000	0.340340
N141	N14	0.085920	0.548600	0.495160
N151	N15	0.258230	0.889000	0.340340
N161	N16	0.418920	0.951400	0.495160
