data_NUNCEG_clean_PM
_symmetry_space_group_name_H-M	'P1'
_cell_length_a	13.725000
_cell_length_b	14.074000
_cell_length_c	14.187000
_cell_angle_alpha	114.150000
_cell_angle_beta	114.200000
_cell_angle_gamma	98.240000
_symmetry_Int_Tables_number 1

loop_
_symmetry_equiv_pos_as_xyz
'x,y,z'

loop_
_atom_site_label
_atom_site_type_symbol
_atom_site_fract_x
_atom_site_fract_y
_atom_site_fract_z
Li11	Li1	0.182800	0.925900	0.852800
Li21	Li2	0.916900	0.938000	0.503000
Li31	Li3	0.964400	0.566700	0.457100
Li41	Li4	0.082100	0.825500	0.599900
Si11	Si1	0.328170	0.560070	0.099720
O11	O1	0.161640	0.983050	0.748690
O21	O2	0.078630	0.032800	0.615760
O31	O3	0.915370	0.804090	0.507270
O41	O4	0.869070	0.640760	0.497540
O51	O5	0.146170	0.800510	0.494020
O61	O6	0.018050	0.623960	0.381210
O71	O7	0.095060	0.593760	0.604210
O81	O8	0.147720	0.777440	0.724500
C11	C1	0.268400	0.403770	0.995230
C21	C2	0.323970	0.332760	0.018430
H11	H1	0.393200	0.363100	0.093600
C31	C3	0.279390	0.218760	0.933280
H21	H2	0.316400	0.171300	0.951600
C41	C4	0.180450	0.174280	0.821170
C51	C5	0.123830	0.243290	0.796930
H31	H3	0.055600	0.212900	0.721000
C61	C6	0.166600	0.355800	0.883050
H41	H4	0.126200	0.401700	0.866000
C71	C7	0.137620	0.054680	0.722550
C81	C8	0.484920	0.609590	0.209590
C91	C9	0.570210	0.681770	0.214840
H51	H5	0.549300	0.706800	0.159100
C101	C10	0.686280	0.717970	0.300910
H61	H6	0.743200	0.770000	0.305800
C111	C11	0.718760	0.678170	0.379320
C121	C12	0.634980	0.604160	0.373730
H71	H7	0.656800	0.574800	0.425500
C131	C13	0.519630	0.573140	0.292690
H81	H8	0.462800	0.526300	0.293100
C141	C14	0.844020	0.710030	0.467650
C151	C15	0.256930	0.601150	0.189700
C161	C16	0.316630	0.699950	0.303880
H91	H9	0.393000	0.745300	0.334600
C171	C17	0.266160	0.732480	0.372410
H101	H10	0.307600	0.800700	0.448500
C181	C18	0.155300	0.666420	0.331250
C191	C19	0.095250	0.567680	0.218520
H111	H11	0.019900	0.521300	0.189400
C201	C20	0.145040	0.536620	0.148450
H121	H12	0.102100	0.470100	0.070900
C211	C21	0.101940	0.699190	0.407810
C221	C22	0.295490	0.618750	0.998170
C231	C23	0.312260	0.574230	0.900130
H131	H13	0.356300	0.528000	0.897000
C241	C24	0.266030	0.596250	0.807700
H141	H14	0.275600	0.562500	0.740500
C251	C25	0.205510	0.667900	0.813350
C261	C26	0.194300	0.718690	0.913460
H151	H15	0.157700	0.771500	0.920600
C271	C27	0.236580	0.692410	0.003290
H161	H16	0.225200	0.725100	0.069400
C281	C28	0.145190	0.681460	0.706260
Li51	Li5	0.817200	0.074100	0.147200
Li61	Li6	0.083100	0.062000	0.497000
Li71	Li7	0.035600	0.433300	0.542900
Li81	Li8	0.917900	0.174500	0.400100
Si21	Si2	0.671830	0.439930	0.900280
O91	O9	0.838360	0.016950	0.251310
O101	O10	0.921370	0.967200	0.384240
O111	O11	0.084630	0.195910	0.492730
O121	O12	0.130930	0.359240	0.502460
O131	O13	0.853830	0.199490	0.505980
O141	O14	0.981950	0.376040	0.618790
O151	O15	0.904940	0.406240	0.395790
O161	O16	0.852280	0.222560	0.275500
C291	C29	0.731600	0.596230	0.004770
C301	C30	0.676030	0.667240	0.981570
H171	H17	0.606800	0.636900	0.906400
C311	C31	0.720610	0.781240	0.066720
H181	H18	0.683600	0.828700	0.048400
C321	C32	0.819550	0.825720	0.178830
C331	C33	0.876170	0.756710	0.203070
H191	H19	0.944400	0.787100	0.279000
C341	C34	0.833400	0.644200	0.116950
H201	H20	0.873800	0.598300	0.134000
C351	C35	0.862380	0.945320	0.277450
C361	C36	0.515080	0.390410	0.790410
C371	C37	0.429790	0.318230	0.785160
H211	H21	0.450700	0.293200	0.840900
C381	C38	0.313720	0.282030	0.699090
H221	H22	0.256800	0.230000	0.694200
C391	C39	0.281240	0.321830	0.620680
C401	C40	0.365020	0.395840	0.626270
H231	H23	0.343200	0.425200	0.574500
C411	C41	0.480370	0.426860	0.707310
H241	H24	0.537200	0.473700	0.706900
C421	C42	0.155980	0.289970	0.532350
C431	C43	0.743070	0.398850	0.810300
C441	C44	0.683370	0.300050	0.696120
H251	H25	0.607000	0.254700	0.665400
C451	C45	0.733840	0.267520	0.627590
H261	H26	0.692400	0.199300	0.551500
C461	C46	0.844700	0.333580	0.668750
C471	C47	0.904750	0.432320	0.781480
H271	H27	0.980100	0.478700	0.810600
C481	C48	0.854960	0.463380	0.851550
H281	H28	0.897900	0.529900	0.929100
C491	C49	0.898060	0.300810	0.592190
C501	C50	0.704510	0.381250	0.001830
C511	C51	0.687740	0.425770	0.099870
H291	H29	0.643700	0.472000	0.103000
C521	C52	0.733970	0.403750	0.192300
H301	H30	0.724400	0.437500	0.259500
C531	C53	0.794490	0.332100	0.186650
C541	C54	0.805700	0.281310	0.086540
H311	H31	0.842300	0.228500	0.079400
C551	C55	0.763420	0.307590	0.996710
H321	H32	0.774800	0.274900	0.930600
C561	C56	0.854810	0.318540	0.293740
