data_NUNPAP_clean_PM
_symmetry_space_group_name_H-M	'P1'
_cell_length_a	11.191800
_cell_length_b	11.191800
_cell_length_c	31.561000
_cell_angle_alpha	90.000000
_cell_angle_beta	90.000000
_cell_angle_gamma	90.000000
_symmetry_Int_Tables_number 1

loop_
_symmetry_equiv_pos_as_xyz
'x,y,z'

loop_
_atom_site_label
_atom_site_type_symbol
_atom_site_fract_x
_atom_site_fract_y
_atom_site_fract_z
O11	O1	0.093620	0.715790	0.176130
O21	O2	0.242330	0.820610	0.206180
O31	O3	0.857110	0.061670	0.048100
O41	O4	0.915250	0.870590	0.045210
O51	O5	0.289200	0.239500	0.169360
O61	O6	0.180000	0.327980	0.119230
C11	C1	0.046400	0.898500	0.119420
H11	H1	0.011900	0.824100	0.114700
C21	C2	0.013500	0.995000	0.094000
C31	C3	0.064600	0.106800	0.101040
H21	H2	0.041200	0.172300	0.084900
C41	C4	0.151600	0.119900	0.132710
C51	C5	0.183200	0.022300	0.157750
H31	H3	0.240700	0.031500	0.178800
C61	C6	0.130100	0.911900	0.151720
C71	C7	0.922300	0.975100	0.059770
C81	C8	0.207000	0.240900	0.139340
C91	C9	0.158000	0.807100	0.180040
O71	O7	0.906380	0.284210	0.676130
O81	O8	0.757670	0.179390	0.706180
O91	O9	0.142890	0.938330	0.548100
O101	O10	0.084750	0.129410	0.545210
O111	O11	0.710800	0.760500	0.669360
O121	O12	0.820000	0.672020	0.619230
C101	C10	0.953600	0.101500	0.619420
H41	H4	0.988100	0.175900	0.614700
C111	C11	0.986500	0.005000	0.594000
C121	C12	0.935400	0.893200	0.601040
H51	H5	0.958800	0.827700	0.584900
C131	C13	0.848400	0.880100	0.632710
C141	C14	0.816800	0.977700	0.657750
H61	H6	0.759300	0.968500	0.678800
C151	C15	0.869900	0.088100	0.651720
C161	C16	0.077700	0.024900	0.559770
C171	C17	0.793000	0.759100	0.639340
C181	C18	0.842000	0.192900	0.680040
O131	O13	0.784210	0.593620	0.926130
O141	O14	0.679390	0.742330	0.956180
O151	O15	0.438330	0.357110	0.798100
O161	O16	0.629410	0.415250	0.795210
O171	O17	0.260500	0.789200	0.919360
O181	O18	0.172020	0.680000	0.869230
C191	C19	0.601500	0.546400	0.869420
H71	H7	0.675900	0.511900	0.864700
C201	C20	0.505000	0.513500	0.844000
C211	C21	0.393200	0.564600	0.851040
H81	H8	0.327700	0.541200	0.834900
C221	C22	0.380100	0.651600	0.882710
C231	C23	0.477700	0.683200	0.907750
H91	H9	0.468500	0.740700	0.928800
C241	C24	0.588100	0.630100	0.901720
C251	C25	0.524900	0.422300	0.809770
C261	C26	0.259100	0.707000	0.889340
C271	C27	0.692900	0.658000	0.930040
O191	O19	0.215790	0.406380	0.426130
O201	O20	0.320610	0.257670	0.456180
O211	O21	0.561670	0.642890	0.298100
O221	O22	0.370590	0.584750	0.295210
O231	O23	0.739500	0.210800	0.419360
O241	O24	0.827980	0.320000	0.369230
C281	C28	0.398500	0.453600	0.369420
H101	H10	0.324100	0.488100	0.364700
C291	C29	0.495000	0.486500	0.344000
C301	C30	0.606800	0.435400	0.351040
H111	H11	0.672300	0.458800	0.334900
C311	C31	0.619900	0.348400	0.382710
C321	C32	0.522300	0.316800	0.407750
H121	H12	0.531500	0.259300	0.428800
C331	C33	0.411900	0.369900	0.401720
C341	C34	0.475100	0.577700	0.309770
C351	C35	0.740900	0.293000	0.389340
C361	C36	0.307100	0.342000	0.430040
O251	O25	0.406380	0.215790	0.573870
O261	O26	0.257670	0.320610	0.543820
O271	O27	0.642890	0.561670	0.701900
O281	O28	0.584750	0.370590	0.704790
O291	O29	0.210800	0.739500	0.580640
O301	O30	0.320000	0.827980	0.630770
C371	C37	0.453600	0.398500	0.630580
H131	H13	0.488100	0.324100	0.635300
C381	C38	0.486500	0.495000	0.656000
C391	C39	0.435400	0.606800	0.648960
H141	H14	0.458800	0.672300	0.665100
C401	C40	0.348400	0.619900	0.617290
C411	C41	0.316800	0.522300	0.592250
H151	H15	0.259300	0.531500	0.571200
C421	C42	0.369900	0.411900	0.598280
C431	C43	0.577700	0.475100	0.690230
C441	C44	0.293000	0.740900	0.610660
C451	C45	0.342000	0.307100	0.569960
O311	O31	0.593620	0.784210	0.073870
O321	O32	0.742330	0.679390	0.043820
O331	O33	0.357110	0.438330	0.201900
O341	O34	0.415250	0.629410	0.204790
O351	O35	0.789200	0.260500	0.080640
O361	O36	0.680000	0.172020	0.130770
C461	C46	0.546400	0.601500	0.130580
H161	H16	0.511900	0.675900	0.135300
C471	C47	0.513500	0.505000	0.156000
C481	C48	0.564600	0.393200	0.148960
H171	H17	0.541200	0.327700	0.165100
C491	C49	0.651600	0.380100	0.117290
C501	C50	0.683200	0.477700	0.092250
H181	H18	0.740700	0.468500	0.071200
C511	C51	0.630100	0.588100	0.098280
C521	C52	0.422300	0.524900	0.190230
C531	C53	0.707000	0.259100	0.110660
C541	C54	0.658000	0.692900	0.069960
O371	O37	0.715790	0.093620	0.823870
O381	O38	0.820610	0.242330	0.793820
O391	O39	0.061670	0.857110	0.951900
O401	O40	0.870590	0.915250	0.954790
O411	O41	0.239500	0.289200	0.830640
O421	O42	0.327980	0.180000	0.880770
C551	C55	0.898500	0.046400	0.880580
H191	H19	0.824100	0.011900	0.885300
C561	C56	0.995000	0.013500	0.906000
C571	C57	0.106800	0.064600	0.898960
H201	H20	0.172300	0.041200	0.915100
C581	C58	0.119900	0.151600	0.867290
C591	C59	0.022300	0.183200	0.842250
H211	H21	0.031500	0.240700	0.821200
C601	C60	0.911900	0.130100	0.848280
C611	C61	0.975100	0.922300	0.940230
C621	C62	0.240900	0.207000	0.860660
C631	C63	0.807100	0.158000	0.819960
O431	O43	0.284210	0.906380	0.323870
O441	O44	0.179390	0.757670	0.293820
O451	O45	0.938330	0.142890	0.451900
O461	O46	0.129410	0.084750	0.454790
O471	O47	0.760500	0.710800	0.330640
O481	O48	0.672020	0.820000	0.380770
C641	C64	0.101500	0.953600	0.380580
H221	H22	0.175900	0.988100	0.385300
C651	C65	0.005000	0.986500	0.406000
C661	C66	0.893200	0.935400	0.398960
H231	H23	0.827700	0.958800	0.415100
C671	C67	0.880100	0.848400	0.367290
C681	C68	0.977700	0.816800	0.342250
H241	H24	0.968500	0.759300	0.321200
C691	C69	0.088100	0.869900	0.348280
C701	C70	0.024900	0.077700	0.440230
C711	C71	0.759100	0.793000	0.360660
C721	C72	0.192900	0.842000	0.319960
Ni11	Ni1	0.800660	0.800660	0.000000
Ni21	Ni2	0.199340	0.199340	0.500000
Ni31	Ni3	0.699340	0.300660	0.750000
Ni41	Ni4	0.300660	0.699340	0.250000
