data_NUNSIA_clean_PM
_symmetry_space_group_name_H-M	'P1'
_cell_length_a	8.606800
_cell_length_b	24.653400
_cell_length_c	35.740400
_cell_angle_alpha	90.000000
_cell_angle_beta	90.000000
_cell_angle_gamma	90.000000
_symmetry_Int_Tables_number 1

loop_
_symmetry_equiv_pos_as_xyz
'x,y,z'

loop_
_atom_site_label
_atom_site_type_symbol
_atom_site_fract_x
_atom_site_fract_y
_atom_site_fract_z
N11	N1	0.577400	0.327500	0.261500
N21	N2	0.809300	0.185500	0.178830
H11	H1	0.756300	0.207600	0.164300
C11	C1	0.627500	0.281200	0.278100
H21	H2	0.589600	0.272600	0.301700
C21	C2	0.732900	0.246000	0.261400
H31	H3	0.764800	0.214800	0.273900
C31	C3	0.789400	0.257400	0.226600
C41	C4	0.741700	0.304400	0.210100
H41	H4	0.778900	0.313800	0.186500
C51	C5	0.639200	0.337700	0.228200
H51	H5	0.610700	0.369700	0.216300
C61	C6	0.898500	0.219600	0.205900
H61	H6	0.976000	0.240600	0.192600
H71	H7	0.951700	0.196400	0.223700
C71	C7	0.918500	0.154900	0.154700
H81	H8	0.977100	0.129100	0.169500
H91	H9	0.991100	0.179500	0.142800
H101	H10	0.756100	0.098900	0.137500
N31	N3	0.577400	0.827500	0.761500
N41	N4	0.809300	0.685500	0.678830
H111	H11	0.756300	0.707600	0.664300
C81	C8	0.627500	0.781200	0.778100
H121	H12	0.589600	0.772600	0.801700
C91	C9	0.732900	0.746000	0.761400
H131	H13	0.764800	0.714800	0.773900
C101	C10	0.789400	0.757400	0.726600
C111	C11	0.741700	0.804400	0.710100
H141	H14	0.778900	0.813800	0.686500
C121	C12	0.639200	0.837700	0.728200
H151	H15	0.610700	0.869700	0.716300
C131	C13	0.898500	0.719600	0.705900
H161	H16	0.976000	0.740600	0.692600
H171	H17	0.951700	0.696400	0.723700
C141	C14	0.918500	0.654900	0.654700
H181	H18	0.977100	0.629100	0.669500
H191	H19	0.991100	0.679500	0.642800
H201	H20	0.756100	0.598900	0.637500
N51	N5	0.077400	0.327500	0.761500
N61	N6	0.309300	0.185500	0.678830
H211	H21	0.256300	0.207600	0.664300
C151	C15	0.127500	0.281200	0.778100
H221	H22	0.089600	0.272600	0.801700
C161	C16	0.232900	0.246000	0.761400
H231	H23	0.264800	0.214800	0.773900
C171	C17	0.289400	0.257400	0.726600
C181	C18	0.241700	0.304400	0.710100
H241	H24	0.278900	0.313800	0.686500
C191	C19	0.139200	0.337700	0.728200
H251	H25	0.110700	0.369700	0.716300
C201	C20	0.398500	0.219600	0.705900
H261	H26	0.476000	0.240600	0.692600
H271	H27	0.451700	0.196400	0.723700
C211	C21	0.418500	0.154900	0.654700
H281	H28	0.477100	0.129100	0.669500
H291	H29	0.491100	0.179500	0.642800
H301	H30	0.256100	0.098900	0.637500
N71	N7	0.077400	0.827500	0.261500
N81	N8	0.309300	0.685500	0.178830
H311	H31	0.256300	0.707600	0.164300
C221	C22	0.127500	0.781200	0.278100
H321	H32	0.089600	0.772600	0.301700
C231	C23	0.232900	0.746000	0.261400
H331	H33	0.264800	0.714800	0.273900
C241	C24	0.289400	0.757400	0.226600
C251	C25	0.241700	0.804400	0.210100
H341	H34	0.278900	0.813800	0.186500
C261	C26	0.139200	0.837700	0.228200
H351	H35	0.110700	0.869700	0.216300
C271	C27	0.398500	0.719600	0.205900
H361	H36	0.476000	0.740600	0.192600
H371	H37	0.451700	0.696400	0.223700
C281	C28	0.418500	0.654900	0.154700
H381	H38	0.477100	0.629100	0.169500
H391	H39	0.491100	0.679500	0.142800
H401	H40	0.256100	0.598900	0.137500
N91	N9	0.172600	0.422500	0.261500
N101	N10	0.940700	0.564500	0.178830
H411	H41	0.993700	0.542400	0.164300
C291	C29	0.122500	0.468800	0.278100
H421	H42	0.160400	0.477400	0.301700
C301	C30	0.017100	0.504000	0.261400
H431	H43	0.985200	0.535200	0.273900
C311	C31	0.960600	0.492600	0.226600
C321	C32	0.008300	0.445600	0.210100
H441	H44	0.971100	0.436200	0.186500
C331	C33	0.110800	0.412300	0.228200
H451	H45	0.139300	0.380300	0.216300
C341	C34	0.851500	0.530400	0.205900
H461	H46	0.774000	0.509400	0.192600
H471	H47	0.798300	0.553600	0.223700
C351	C35	0.831500	0.595100	0.154700
H481	H48	0.772900	0.620900	0.169500
H491	H49	0.758900	0.570500	0.142800
H501	H50	0.993900	0.651100	0.137500
N111	N11	0.172600	0.922500	0.761500
N121	N12	0.940700	0.064500	0.678830
H511	H51	0.993700	0.042400	0.664300
C361	C36	0.122500	0.968800	0.778100
H521	H52	0.160400	0.977400	0.801700
C371	C37	0.017100	0.004000	0.761400
H531	H53	0.985200	0.035200	0.773900
C381	C38	0.960600	0.992600	0.726600
C391	C39	0.008300	0.945600	0.710100
H541	H54	0.971100	0.936200	0.686500
C401	C40	0.110800	0.912300	0.728200
H551	H55	0.139300	0.880300	0.716300
C411	C41	0.851500	0.030400	0.705900
H561	H56	0.774000	0.009400	0.692600
H571	H57	0.798300	0.053600	0.723700
C421	C42	0.831500	0.095100	0.654700
H581	H58	0.772900	0.120900	0.669500
H591	H59	0.758900	0.070500	0.642800
H601	H60	0.993900	0.151100	0.637500
N131	N13	0.672600	0.422500	0.761500
N141	N14	0.440700	0.564500	0.678830
H611	H61	0.493700	0.542400	0.664300
C431	C43	0.622500	0.468800	0.778100
H621	H62	0.660400	0.477400	0.801700
C441	C44	0.517100	0.504000	0.761400
H631	H63	0.485200	0.535200	0.773900
C451	C45	0.460600	0.492600	0.726600
C461	C46	0.508300	0.445600	0.710100
H641	H64	0.471100	0.436200	0.686500
C471	C47	0.610800	0.412300	0.728200
H651	H65	0.639300	0.380300	0.716300
C481	C48	0.351500	0.530400	0.705900
H661	H66	0.274000	0.509400	0.692600
H671	H67	0.298300	0.553600	0.723700
C491	C49	0.331500	0.595100	0.654700
H681	H68	0.272900	0.620900	0.669500
H691	H69	0.258900	0.570500	0.642800
H701	H70	0.493900	0.651100	0.637500
N151	N15	0.672600	0.922500	0.261500
N161	N16	0.440700	0.064500	0.178830
H711	H71	0.493700	0.042400	0.164300
C501	C50	0.622500	0.968800	0.278100
H721	H72	0.660400	0.977400	0.301700
C511	C51	0.517100	0.004000	0.261400
H731	H73	0.485200	0.035200	0.273900
C521	C52	0.460600	0.992600	0.226600
C531	C53	0.508300	0.945600	0.210100
H741	H74	0.471100	0.936200	0.186500
C541	C54	0.610800	0.912300	0.228200
H751	H75	0.639300	0.880300	0.216300
C551	C55	0.351500	0.030400	0.205900
H761	H76	0.274000	0.009400	0.192600
H771	H77	0.298300	0.053600	0.223700
C561	C56	0.331500	0.095100	0.154700
H781	H78	0.272900	0.120900	0.169500
H791	H79	0.258900	0.070500	0.142800
H801	H80	0.493900	0.151100	0.137500
N171	N17	0.172600	0.327500	0.488500
N181	N18	0.940700	0.185500	0.571170
H811	H81	0.993700	0.207600	0.585700
C571	C57	0.122500	0.281200	0.471900
H821	H82	0.160400	0.272600	0.448300
C581	C58	0.017100	0.246000	0.488600
H831	H83	0.985200	0.214800	0.476100
C591	C59	0.960600	0.257400	0.523400
C601	C60	0.008300	0.304400	0.539900
H841	H84	0.971100	0.313800	0.563500
C611	C61	0.110800	0.337700	0.521800
H851	H85	0.139300	0.369700	0.533700
C621	C62	0.851500	0.219600	0.544100
H861	H86	0.774000	0.240600	0.557400
H871	H87	0.798300	0.196400	0.526300
C631	C63	0.831500	0.154900	0.595300
H881	H88	0.772900	0.129100	0.580500
H891	H89	0.758900	0.179500	0.607200
H901	H90	0.993900	0.098900	0.612500
N191	N19	0.172600	0.827500	0.988500
N201	N20	0.940700	0.685500	0.071170
H911	H91	0.993700	0.707600	0.085700
C641	C64	0.122500	0.781200	0.971900
H921	H92	0.160400	0.772600	0.948300
C651	C65	0.017100	0.746000	0.988600
H931	H93	0.985200	0.714800	0.976100
C661	C66	0.960600	0.757400	0.023400
C671	C67	0.008300	0.804400	0.039900
H941	H94	0.971100	0.813800	0.063500
C681	C68	0.110800	0.837700	0.021800
H951	H95	0.139300	0.869700	0.033700
C691	C69	0.851500	0.719600	0.044100
H961	H96	0.774000	0.740600	0.057400
H971	H97	0.798300	0.696400	0.026300
C701	C70	0.831500	0.654900	0.095300
H981	H98	0.772900	0.629100	0.080500
H991	H99	0.758900	0.679500	0.107200
H1001	H100	0.993900	0.598900	0.112500
N211	N21	0.672600	0.327500	0.988500
N221	N22	0.440700	0.185500	0.071170
H1011	H101	0.493700	0.207600	0.085700
C711	C71	0.622500	0.281200	0.971900
H1021	H102	0.660400	0.272600	0.948300
C721	C72	0.517100	0.246000	0.988600
H1031	H103	0.485200	0.214800	0.976100
C731	C73	0.460600	0.257400	0.023400
C741	C74	0.508300	0.304400	0.039900
H1041	H104	0.471100	0.313800	0.063500
C751	C75	0.610800	0.337700	0.021800
H1051	H105	0.639300	0.369700	0.033700
C761	C76	0.351500	0.219600	0.044100
H1061	H106	0.274000	0.240600	0.057400
H1071	H107	0.298300	0.196400	0.026300
C771	C77	0.331500	0.154900	0.095300
H1081	H108	0.272900	0.129100	0.080500
H1091	H109	0.258900	0.179500	0.107200
H1101	H110	0.493900	0.098900	0.112500
N231	N23	0.672600	0.827500	0.488500
N241	N24	0.440700	0.685500	0.571170
H1111	H111	0.493700	0.707600	0.585700
C781	C78	0.622500	0.781200	0.471900
H1121	H112	0.660400	0.772600	0.448300
C791	C79	0.517100	0.746000	0.488600
H1131	H113	0.485200	0.714800	0.476100
C801	C80	0.460600	0.757400	0.523400
C811	C81	0.508300	0.804400	0.539900
H1141	H114	0.471100	0.813800	0.563500
C821	C82	0.610800	0.837700	0.521800
H1151	H115	0.639300	0.869700	0.533700
C831	C83	0.351500	0.719600	0.544100
H1161	H116	0.274000	0.740600	0.557400
H1171	H117	0.298300	0.696400	0.526300
C841	C84	0.331500	0.654900	0.595300
H1181	H118	0.272900	0.629100	0.580500
H1191	H119	0.258900	0.679500	0.607200
H1201	H120	0.493900	0.598900	0.612500
N251	N25	0.577400	0.422500	0.488500
N261	N26	0.809300	0.564500	0.571170
H1211	H121	0.756300	0.542400	0.585700
C851	C85	0.627500	0.468800	0.471900
H1221	H122	0.589600	0.477400	0.448300
C861	C86	0.732900	0.504000	0.488600
H1231	H123	0.764800	0.535200	0.476100
C871	C87	0.789400	0.492600	0.523400
C881	C88	0.741700	0.445600	0.539900
H1241	H124	0.778900	0.436200	0.563500
C891	C89	0.639200	0.412300	0.521800
H1251	H125	0.610700	0.380300	0.533700
C901	C90	0.898500	0.530400	0.544100
H1261	H126	0.976000	0.509400	0.557400
H1271	H127	0.951700	0.553600	0.526300
C911	C91	0.918500	0.595100	0.595300
H1281	H128	0.977100	0.620900	0.580500
H1291	H129	0.991100	0.570500	0.607200
H1301	H130	0.756100	0.651100	0.612500
N271	N27	0.577400	0.922500	0.988500
N281	N28	0.809300	0.064500	0.071170
H1311	H131	0.756300	0.042400	0.085700
C921	C92	0.627500	0.968800	0.971900
H1321	H132	0.589600	0.977400	0.948300
C931	C93	0.732900	0.004000	0.988600
H1331	H133	0.764800	0.035200	0.976100
C941	C94	0.789400	0.992600	0.023400
C951	C95	0.741700	0.945600	0.039900
H1341	H134	0.778900	0.936200	0.063500
C961	C96	0.639200	0.912300	0.021800
H1351	H135	0.610700	0.880300	0.033700
C971	C97	0.898500	0.030400	0.044100
H1361	H136	0.976000	0.009400	0.057400
H1371	H137	0.951700	0.053600	0.026300
C981	C98	0.918500	0.095100	0.095300
H1381	H138	0.977100	0.120900	0.080500
H1391	H139	0.991100	0.070500	0.107200
H1401	H140	0.756100	0.151100	0.112500
N291	N29	0.077400	0.422500	0.988500
N301	N30	0.309300	0.564500	0.071170
H1411	H141	0.256300	0.542400	0.085700
C991	C99	0.127500	0.468800	0.971900
H1421	H142	0.089600	0.477400	0.948300
C1001	C100	0.232900	0.504000	0.988600
H1431	H143	0.264800	0.535200	0.976100
C1011	C101	0.289400	0.492600	0.023400
C1021	C102	0.241700	0.445600	0.039900
H1441	H144	0.278900	0.436200	0.063500
C1031	C103	0.139200	0.412300	0.021800
H1451	H145	0.110700	0.380300	0.033700
C1041	C104	0.398500	0.530400	0.044100
H1461	H146	0.476000	0.509400	0.057400
H1471	H147	0.451700	0.553600	0.026300
C1051	C105	0.418500	0.595100	0.095300
H1481	H148	0.477100	0.620900	0.080500
H1491	H149	0.491100	0.570500	0.107200
H1501	H150	0.256100	0.651100	0.112500
N311	N31	0.077400	0.922500	0.488500
N321	N32	0.309300	0.064500	0.571170
H1511	H151	0.256300	0.042400	0.585700
C1061	C106	0.127500	0.968800	0.471900
H1521	H152	0.089600	0.977400	0.448300
C1071	C107	0.232900	0.004000	0.488600
H1531	H153	0.264800	0.035200	0.476100
C1081	C108	0.289400	0.992600	0.523400
C1091	C109	0.241700	0.945600	0.539900
H1541	H154	0.278900	0.936200	0.563500
C1101	C110	0.139200	0.912300	0.521800
H1551	H155	0.110700	0.880300	0.533700
C1111	C111	0.398500	0.030400	0.544100
H1561	H156	0.476000	0.009400	0.557400
H1571	H157	0.451700	0.053600	0.526300
C1121	C112	0.418500	0.095100	0.595300
H1581	H158	0.477100	0.120900	0.580500
H1591	H159	0.491100	0.070500	0.607200
H1601	H160	0.256100	0.151100	0.612500
N331	N33	0.422600	0.672500	0.738500
N341	N34	0.190700	0.814500	0.821170
H1611	H161	0.243700	0.792400	0.835700
C1131	C113	0.372500	0.718800	0.721900
H1621	H162	0.410400	0.727400	0.698300
C1141	C114	0.267100	0.754000	0.738600
H1631	H163	0.235200	0.785200	0.726100
C1151	C115	0.210600	0.742600	0.773400
C1161	C116	0.258300	0.695600	0.789900
H1641	H164	0.221100	0.686200	0.813500
C1171	C117	0.360800	0.662300	0.771800
H1651	H165	0.389300	0.630300	0.783700
C1181	C118	0.101500	0.780400	0.794100
H1661	H166	0.024000	0.759400	0.807400
H1671	H167	0.048300	0.803600	0.776300
C1191	C119	0.081500	0.845100	0.845300
H1681	H168	0.022900	0.870900	0.830500
H1691	H169	0.008900	0.820500	0.857200
H1701	H170	0.243900	0.901100	0.862500
N351	N35	0.422600	0.172500	0.238500
N361	N36	0.190700	0.314500	0.321170
H1711	H171	0.243700	0.292400	0.335700
C1201	C120	0.372500	0.218800	0.221900
H1721	H172	0.410400	0.227400	0.198300
C1211	C121	0.267100	0.254000	0.238600
H1731	H173	0.235200	0.285200	0.226100
C1221	C122	0.210600	0.242600	0.273400
C1231	C123	0.258300	0.195600	0.289900
H1741	H174	0.221100	0.186200	0.313500
C1241	C124	0.360800	0.162300	0.271800
H1751	H175	0.389300	0.130300	0.283700
C1251	C125	0.101500	0.280400	0.294100
H1761	H176	0.024000	0.259400	0.307400
H1771	H177	0.048300	0.303600	0.276300
C1261	C126	0.081500	0.345100	0.345300
H1781	H178	0.022900	0.370900	0.330500
H1791	H179	0.008900	0.320500	0.357200
H1801	H180	0.243900	0.401100	0.362500
N371	N37	0.922600	0.672500	0.238500
N381	N38	0.690700	0.814500	0.321170
H1811	H181	0.743700	0.792400	0.335700
C1271	C127	0.872500	0.718800	0.221900
H1821	H182	0.910400	0.727400	0.198300
C1281	C128	0.767100	0.754000	0.238600
H1831	H183	0.735200	0.785200	0.226100
C1291	C129	0.710600	0.742600	0.273400
C1301	C130	0.758300	0.695600	0.289900
H1841	H184	0.721100	0.686200	0.313500
C1311	C131	0.860800	0.662300	0.271800
H1851	H185	0.889300	0.630300	0.283700
C1321	C132	0.601500	0.780400	0.294100
H1861	H186	0.524000	0.759400	0.307400
H1871	H187	0.548300	0.803600	0.276300
C1331	C133	0.581500	0.845100	0.345300
H1881	H188	0.522900	0.870900	0.330500
H1891	H189	0.508900	0.820500	0.357200
H1901	H190	0.743900	0.901100	0.362500
N391	N39	0.922600	0.172500	0.738500
N401	N40	0.690700	0.314500	0.821170
H1911	H191	0.743700	0.292400	0.835700
C1341	C134	0.872500	0.218800	0.721900
H1921	H192	0.910400	0.227400	0.698300
C1351	C135	0.767100	0.254000	0.738600
H1931	H193	0.735200	0.285200	0.726100
C1361	C136	0.710600	0.242600	0.773400
C1371	C137	0.758300	0.195600	0.789900
H1941	H194	0.721100	0.186200	0.813500
C1381	C138	0.860800	0.162300	0.771800
H1951	H195	0.889300	0.130300	0.783700
C1391	C139	0.601500	0.280400	0.794100
H1961	H196	0.524000	0.259400	0.807400
H1971	H197	0.548300	0.303600	0.776300
C1401	C140	0.581500	0.345100	0.845300
H1981	H198	0.522900	0.370900	0.830500
H1991	H199	0.508900	0.320500	0.857200
H2001	H200	0.743900	0.401100	0.862500
N411	N41	0.827400	0.577500	0.738500
N421	N42	0.059300	0.435500	0.821170
H2011	H201	0.006300	0.457600	0.835700
C1411	C141	0.877500	0.531200	0.721900
H2021	H202	0.839600	0.522600	0.698300
C1421	C142	0.982900	0.496000	0.738600
H2031	H203	0.014800	0.464800	0.726100
C1431	C143	0.039400	0.507400	0.773400
C1441	C144	0.991700	0.554400	0.789900
H2041	H204	0.028900	0.563800	0.813500
C1451	C145	0.889200	0.587700	0.771800
H2051	H205	0.860700	0.619700	0.783700
C1461	C146	0.148500	0.469600	0.794100
H2061	H206	0.226000	0.490600	0.807400
H2071	H207	0.201700	0.446400	0.776300
C1471	C147	0.168500	0.404900	0.845300
H2081	H208	0.227100	0.379100	0.830500
H2091	H209	0.241100	0.429500	0.857200
H2101	H210	0.006100	0.348900	0.862500
N431	N43	0.827400	0.077500	0.238500
N441	N44	0.059300	0.935500	0.321170
H2111	H211	0.006300	0.957600	0.335700
C1481	C148	0.877500	0.031200	0.221900
H2121	H212	0.839600	0.022600	0.198300
C1491	C149	0.982900	0.996000	0.238600
H2131	H213	0.014800	0.964800	0.226100
C1501	C150	0.039400	0.007400	0.273400
C1511	C151	0.991700	0.054400	0.289900
H2141	H214	0.028900	0.063800	0.313500
C1521	C152	0.889200	0.087700	0.271800
H2151	H215	0.860700	0.119700	0.283700
C1531	C153	0.148500	0.969600	0.294100
H2161	H216	0.226000	0.990600	0.307400
H2171	H217	0.201700	0.946400	0.276300
C1541	C154	0.168500	0.904900	0.345300
H2181	H218	0.227100	0.879100	0.330500
H2191	H219	0.241100	0.929500	0.357200
H2201	H220	0.006100	0.848900	0.362500
N451	N45	0.327400	0.577500	0.238500
N461	N46	0.559300	0.435500	0.321170
H2211	H221	0.506300	0.457600	0.335700
C1551	C155	0.377500	0.531200	0.221900
H2221	H222	0.339600	0.522600	0.198300
C1561	C156	0.482900	0.496000	0.238600
H2231	H223	0.514800	0.464800	0.226100
C1571	C157	0.539400	0.507400	0.273400
C1581	C158	0.491700	0.554400	0.289900
H2241	H224	0.528900	0.563800	0.313500
C1591	C159	0.389200	0.587700	0.271800
H2251	H225	0.360700	0.619700	0.283700
C1601	C160	0.648500	0.469600	0.294100
H2261	H226	0.726000	0.490600	0.307400
H2271	H227	0.701700	0.446400	0.276300
C1611	C161	0.668500	0.404900	0.345300
H2281	H228	0.727100	0.379100	0.330500
H2291	H229	0.741100	0.429500	0.357200
H2301	H230	0.506100	0.348900	0.362500
N471	N47	0.327400	0.077500	0.738500
N481	N48	0.559300	0.935500	0.821170
H2311	H231	0.506300	0.957600	0.835700
C1621	C162	0.377500	0.031200	0.721900
H2321	H232	0.339600	0.022600	0.698300
C1631	C163	0.482900	0.996000	0.738600
H2331	H233	0.514800	0.964800	0.726100
C1641	C164	0.539400	0.007400	0.773400
C1651	C165	0.491700	0.054400	0.789900
H2341	H234	0.528900	0.063800	0.813500
C1661	C166	0.389200	0.087700	0.771800
H2351	H235	0.360700	0.119700	0.783700
C1671	C167	0.648500	0.969600	0.794100
H2361	H236	0.726000	0.990600	0.807400
H2371	H237	0.701700	0.946400	0.776300
C1681	C168	0.668500	0.904900	0.845300
H2381	H238	0.727100	0.879100	0.830500
H2391	H239	0.741100	0.929500	0.857200
H2401	H240	0.506100	0.848900	0.862500
N491	N49	0.827400	0.672500	0.511500
N501	N50	0.059300	0.814500	0.428830
H2411	H241	0.006300	0.792400	0.414300
C1691	C169	0.877500	0.718800	0.528100
H2421	H242	0.839600	0.727400	0.551700
C1701	C170	0.982900	0.754000	0.511400
H2431	H243	0.014800	0.785200	0.523900
C1711	C171	0.039400	0.742600	0.476600
C1721	C172	0.991700	0.695600	0.460100
H2441	H244	0.028900	0.686200	0.436500
C1731	C173	0.889200	0.662300	0.478200
H2451	H245	0.860700	0.630300	0.466300
C1741	C174	0.148500	0.780400	0.455900
H2461	H246	0.226000	0.759400	0.442600
H2471	H247	0.201700	0.803600	0.473700
C1751	C175	0.168500	0.845100	0.404700
H2481	H248	0.227100	0.870900	0.419500
H2491	H249	0.241100	0.820500	0.392800
H2501	H250	0.006100	0.901100	0.387500
N511	N51	0.827400	0.172500	0.011500
N521	N52	0.059300	0.314500	0.928830
H2511	H251	0.006300	0.292400	0.914300
C1761	C176	0.877500	0.218800	0.028100
H2521	H252	0.839600	0.227400	0.051700
C1771	C177	0.982900	0.254000	0.011400
H2531	H253	0.014800	0.285200	0.023900
C1781	C178	0.039400	0.242600	0.976600
C1791	C179	0.991700	0.195600	0.960100
H2541	H254	0.028900	0.186200	0.936500
C1801	C180	0.889200	0.162300	0.978200
H2551	H255	0.860700	0.130300	0.966300
C1811	C181	0.148500	0.280400	0.955900
H2561	H256	0.226000	0.259400	0.942600
H2571	H257	0.201700	0.303600	0.973700
C1821	C182	0.168500	0.345100	0.904700
H2581	H258	0.227100	0.370900	0.919500
H2591	H259	0.241100	0.320500	0.892800
H2601	H260	0.006100	0.401100	0.887500
N531	N53	0.327400	0.672500	0.011500
N541	N54	0.559300	0.814500	0.928830
H2611	H261	0.506300	0.792400	0.914300
C1831	C183	0.377500	0.718800	0.028100
H2621	H262	0.339600	0.727400	0.051700
C1841	C184	0.482900	0.754000	0.011400
H2631	H263	0.514800	0.785200	0.023900
C1851	C185	0.539400	0.742600	0.976600
C1861	C186	0.491700	0.695600	0.960100
H2641	H264	0.528900	0.686200	0.936500
C1871	C187	0.389200	0.662300	0.978200
H2651	H265	0.360700	0.630300	0.966300
C1881	C188	0.648500	0.780400	0.955900
H2661	H266	0.726000	0.759400	0.942600
H2671	H267	0.701700	0.803600	0.973700
C1891	C189	0.668500	0.845100	0.904700
H2681	H268	0.727100	0.870900	0.919500
H2691	H269	0.741100	0.820500	0.892800
H2701	H270	0.506100	0.901100	0.887500
N551	N55	0.327400	0.172500	0.511500
N561	N56	0.559300	0.314500	0.428830
H2711	H271	0.506300	0.292400	0.414300
C1901	C190	0.377500	0.218800	0.528100
H2721	H272	0.339600	0.227400	0.551700
C1911	C191	0.482900	0.254000	0.511400
H2731	H273	0.514800	0.285200	0.523900
C1921	C192	0.539400	0.242600	0.476600
C1931	C193	0.491700	0.195600	0.460100
H2741	H274	0.528900	0.186200	0.436500
C1941	C194	0.389200	0.162300	0.478200
H2751	H275	0.360700	0.130300	0.466300
C1951	C195	0.648500	0.280400	0.455900
H2761	H276	0.726000	0.259400	0.442600
H2771	H277	0.701700	0.303600	0.473700
C1961	C196	0.668500	0.345100	0.404700
H2781	H278	0.727100	0.370900	0.419500
H2791	H279	0.741100	0.320500	0.392800
H2801	H280	0.506100	0.401100	0.387500
N571	N57	0.422600	0.577500	0.511500
N581	N58	0.190700	0.435500	0.428830
H2811	H281	0.243700	0.457600	0.414300
C1971	C197	0.372500	0.531200	0.528100
H2821	H282	0.410400	0.522600	0.551700
C1981	C198	0.267100	0.496000	0.511400
H2831	H283	0.235200	0.464800	0.523900
C1991	C199	0.210600	0.507400	0.476600
C2001	C200	0.258300	0.554400	0.460100
H2841	H284	0.221100	0.563800	0.436500
C2011	C201	0.360800	0.587700	0.478200
H2851	H285	0.389300	0.619700	0.466300
C2021	C202	0.101500	0.469600	0.455900
H2861	H286	0.024000	0.490600	0.442600
H2871	H287	0.048300	0.446400	0.473700
C2031	C203	0.081500	0.404900	0.404700
H2881	H288	0.022900	0.379100	0.419500
H2891	H289	0.008900	0.429500	0.392800
H2901	H290	0.243900	0.348900	0.387500
N591	N59	0.422600	0.077500	0.011500
N601	N60	0.190700	0.935500	0.928830
H2911	H291	0.243700	0.957600	0.914300
C2041	C204	0.372500	0.031200	0.028100
H2921	H292	0.410400	0.022600	0.051700
C2051	C205	0.267100	0.996000	0.011400
H2931	H293	0.235200	0.964800	0.023900
C2061	C206	0.210600	0.007400	0.976600
C2071	C207	0.258300	0.054400	0.960100
H2941	H294	0.221100	0.063800	0.936500
C2081	C208	0.360800	0.087700	0.978200
H2951	H295	0.389300	0.119700	0.966300
C2091	C209	0.101500	0.969600	0.955900
H2961	H296	0.024000	0.990600	0.942600
H2971	H297	0.048300	0.946400	0.973700
C2101	C210	0.081500	0.904900	0.904700
H2981	H298	0.022900	0.879100	0.919500
H2991	H299	0.008900	0.929500	0.892800
H3001	H300	0.243900	0.848900	0.887500
N611	N61	0.922600	0.577500	0.011500
N621	N62	0.690700	0.435500	0.928830
H3011	H301	0.743700	0.457600	0.914300
C2111	C211	0.872500	0.531200	0.028100
H3021	H302	0.910400	0.522600	0.051700
C2121	C212	0.767100	0.496000	0.011400
H3031	H303	0.735200	0.464800	0.023900
C2131	C213	0.710600	0.507400	0.976600
C2141	C214	0.758300	0.554400	0.960100
H3041	H304	0.721100	0.563800	0.936500
C2151	C215	0.860800	0.587700	0.978200
H3051	H305	0.889300	0.619700	0.966300
C2161	C216	0.601500	0.469600	0.955900
H3061	H306	0.524000	0.490600	0.942600
H3071	H307	0.548300	0.446400	0.973700
C2171	C217	0.581500	0.404900	0.904700
H3081	H308	0.522900	0.379100	0.919500
H3091	H309	0.508900	0.429500	0.892800
H3101	H310	0.743900	0.348900	0.887500
N631	N63	0.922600	0.077500	0.511500
N641	N64	0.690700	0.935500	0.428830
H3111	H311	0.743700	0.957600	0.414300
C2181	C218	0.872500	0.031200	0.528100
H3121	H312	0.910400	0.022600	0.551700
C2191	C219	0.767100	0.996000	0.511400
H3131	H313	0.735200	0.964800	0.523900
C2201	C220	0.710600	0.007400	0.476600
C2211	C221	0.758300	0.054400	0.460100
H3141	H314	0.721100	0.063800	0.436500
C2221	C222	0.860800	0.087700	0.478200
H3151	H315	0.889300	0.119700	0.466300
C2231	C223	0.601500	0.969600	0.455900
H3161	H316	0.524000	0.990600	0.442600
H3171	H317	0.548300	0.946400	0.473700
C2241	C224	0.581500	0.904900	0.404700
H3181	H318	0.522900	0.879100	0.419500
H3191	H319	0.508900	0.929500	0.392800
H3201	H320	0.743900	0.848900	0.387500
Ag11	Ag1	0.375000	0.375000	0.291550
Ag21	Ag2	0.375000	0.875000	0.791550
Ag31	Ag3	0.875000	0.375000	0.791550
Ag41	Ag4	0.875000	0.875000	0.291550
Ag51	Ag5	0.375000	0.375000	0.458450
Ag61	Ag6	0.375000	0.875000	0.958450
Ag71	Ag7	0.875000	0.375000	0.958450
Ag81	Ag8	0.875000	0.875000	0.458450
Ag91	Ag9	0.625000	0.625000	0.708450
Ag101	Ag10	0.625000	0.125000	0.208450
Ag111	Ag11	0.125000	0.625000	0.208450
Ag121	Ag12	0.125000	0.125000	0.708450
Ag131	Ag13	0.625000	0.625000	0.541550
Ag141	Ag14	0.625000	0.125000	0.041550
Ag151	Ag15	0.125000	0.625000	0.041550
Ag161	Ag16	0.125000	0.125000	0.541550
C2251	C225	0.822700	0.125000	0.125000
C2261	C226	0.822700	0.625000	0.625000
C2271	C227	0.322700	0.125000	0.625000
C2281	C228	0.927300	0.625000	0.125000
C2291	C229	0.427300	0.625000	0.625000
C2301	C230	0.927300	0.125000	0.625000
C2311	C231	0.427300	0.125000	0.125000
C2321	C232	0.322700	0.625000	0.125000
C2331	C233	0.177300	0.875000	0.875000
C2341	C234	0.177300	0.375000	0.375000
C2351	C235	0.677300	0.875000	0.375000
C2361	C236	0.072700	0.375000	0.875000
C2371	C237	0.572700	0.375000	0.375000
C2381	C238	0.072700	0.875000	0.375000
C2391	C239	0.572700	0.875000	0.875000
C2401	C240	0.677300	0.375000	0.875000
