data_NUVYIN_clean_PM
_symmetry_space_group_name_H-M	'P1'
_cell_length_a	11.214900
_cell_length_b	17.002500
_cell_length_c	20.317600
_cell_angle_alpha	65.265200
_cell_angle_beta	87.948900
_cell_angle_gamma	85.093000
_symmetry_Int_Tables_number 1

loop_
_symmetry_equiv_pos_as_xyz
'x,y,z'

loop_
_atom_site_label
_atom_site_type_symbol
_atom_site_fract_x
_atom_site_fract_y
_atom_site_fract_z
Ni11	Ni1	0.091490	0.221840	0.950520
Ni21	Ni2	0.408510	0.827640	0.950520
Ni31	Ni3	0.908510	0.778160	0.049480
Ni41	Ni4	0.591490	0.172360	0.049480
Ni51	Ni5	0.250000	0.760730	0.478540
Ni61	Ni6	0.750000	0.239270	0.521460
H11	H1	0.489900	0.355700	0.811800
H21	H2	0.526300	0.425300	0.689800
H31	H3	0.715800	0.416700	0.645200
H41	H4	0.029600	0.363000	0.602400
H51	H5	0.131600	0.485500	0.534000
H61	H6	0.014700	0.592100	0.668000
H71	H7	0.920600	0.467700	0.738400
H81	H8	0.168900	0.770200	0.334400
H91	H9	0.036400	0.849900	0.243200
H101	H10	0.891700	0.959700	0.370600
H111	H11	0.032500	0.880400	0.456400
H121	H12	0.834300	0.073100	0.064400
H131	H13	0.966100	0.981600	0.150600
H141	H14	0.724900	0.979000	0.301200
H151	H15	0.599200	0.068900	0.210600
H161	H16	0.318700	0.305300	0.943600
H171	H17	0.387500	0.429800	0.937200
H181	H18	0.053300	0.540400	0.896200
H191	H19	0.993900	0.411800	0.904000
H201	H20	0.010100	0.832500	0.811800
H211	H21	0.973700	0.884900	0.689800
H221	H22	0.784200	0.938100	0.645200
H231	H23	0.470400	0.034600	0.602400
H241	H24	0.368400	0.980500	0.534000
H251	H25	0.485300	0.739900	0.668000
H261	H26	0.579400	0.793900	0.738400
H271	H27	0.331100	0.895400	0.334400
H281	H28	0.463600	0.906900	0.243200
H291	H29	0.608300	0.669700	0.370600
H301	H30	0.467500	0.663200	0.456400
H311	H31	0.665700	0.862500	0.064400
H321	H32	0.533900	0.867800	0.150600
H331	H33	0.775100	0.719800	0.301200
H341	H34	0.900800	0.720500	0.210600
H351	H35	0.181300	0.751100	0.943600
H361	H36	0.112500	0.633000	0.937200
H371	H37	0.446700	0.563400	0.896200
H381	H38	0.506100	0.684200	0.904000
H391	H39	0.510100	0.644300	0.188200
H401	H40	0.473700	0.574700	0.310200
H411	H41	0.284200	0.583300	0.354800
H421	H42	0.970400	0.637000	0.397600
H431	H43	0.868400	0.514500	0.466000
H441	H44	0.985300	0.407900	0.332000
H451	H45	0.079400	0.532300	0.261600
H461	H46	0.831100	0.229800	0.665600
H471	H47	0.963600	0.150100	0.756800
H481	H48	0.108300	0.040300	0.629400
H491	H49	0.967500	0.119600	0.543600
H501	H50	0.165700	0.926900	0.935600
H511	H51	0.033900	0.018400	0.849400
H521	H52	0.275100	0.021000	0.698800
H531	H53	0.400800	0.931100	0.789400
H541	H54	0.681300	0.694700	0.056400
H551	H55	0.612500	0.570200	0.062800
H561	H56	0.946700	0.459600	0.103800
H571	H57	0.006100	0.588200	0.096000
H581	H58	0.989900	0.167500	0.188200
H591	H59	0.026300	0.115100	0.310200
H601	H60	0.215800	0.061900	0.354800
H611	H61	0.529600	0.965400	0.397600
H621	H62	0.631600	0.019500	0.466000
H631	H63	0.514700	0.260100	0.332000
H641	H64	0.420600	0.206100	0.261600
H651	H65	0.668900	0.104600	0.665600
H661	H66	0.536400	0.093100	0.756800
H671	H67	0.391700	0.330300	0.629400
H681	H68	0.532500	0.336800	0.543600
H691	H69	0.334300	0.137500	0.935600
H701	H70	0.466100	0.132200	0.849400
H711	H71	0.224900	0.280200	0.698800
H721	H72	0.099200	0.279500	0.789400
H731	H73	0.818700	0.248900	0.056400
H741	H74	0.887500	0.367000	0.062800
H751	H75	0.553300	0.436600	0.103800
H761	H76	0.493900	0.315800	0.096000
C11	C1	0.630900	0.255060	0.921080
C21	C2	0.878400	0.238510	0.861920
C31	C3	0.658200	0.300890	0.841820
C41	C4	0.566500	0.350870	0.794060
C51	C5	0.588400	0.393090	0.721220
C61	C6	0.701100	0.388030	0.694540
C71	C7	0.793600	0.339770	0.741660
C81	C8	0.774500	0.294010	0.815440
C91	C9	0.962600	0.406400	0.674200
C101	C10	0.026300	0.409490	0.615420
C111	C11	0.087300	0.483300	0.574200
C121	C12	0.081900	0.552290	0.593020
C131	C13	0.018500	0.546120	0.654360
C141	C14	0.960400	0.472240	0.696120
C151	C15	0.143600	0.632170	0.548660
C161	C16	0.113800	0.810310	0.340980
C171	C17	0.033500	0.857280	0.286040
C181	C18	0.948700	0.915620	0.295560
C191	C19	0.948800	0.922570	0.361460
C201	C20	0.033400	0.874340	0.412920
C211	C21	0.812200	0.053930	0.112940
C221	C22	0.892200	0.999330	0.164340
C231	C23	0.862100	0.970450	0.237500
C241	C24	0.749800	0.997560	0.253280
C251	C25	0.674600	0.051880	0.198240
C261	C26	0.264100	0.352770	0.935460
C271	C27	0.306200	0.427680	0.931240
C281	C28	0.229000	0.500450	0.918100
C291	C29	0.109000	0.493010	0.906980
C301	C30	0.074000	0.415100	0.912200
C311	C31	0.869100	0.823860	0.921080
C321	C32	0.621600	0.899570	0.861920
C331	C33	0.841800	0.857290	0.841820
C341	C34	0.933500	0.855070	0.794060
C351	C35	0.911600	0.885690	0.721220
C361	C36	0.798900	0.917430	0.694540
C371	C37	0.706400	0.918570	0.741660
C381	C38	0.725500	0.890550	0.815440
C391	C39	0.537400	0.919400	0.674200
C401	C40	0.473700	0.975090	0.615420
C411	C41	0.412700	0.942500	0.574200
C421	C42	0.418100	0.854690	0.593020
C431	C43	0.481500	0.799520	0.654360
C441	C44	0.539600	0.831640	0.696120
C451	C45	0.356400	0.819170	0.548660
C461	C46	0.386200	0.848710	0.340980
C471	C47	0.466500	0.856680	0.286040
C481	C48	0.551300	0.788820	0.295560
C491	C49	0.551200	0.715970	0.361460
C501	C50	0.466600	0.712740	0.412920
C511	C51	0.687800	0.833130	0.112940
C521	C52	0.607800	0.836330	0.164340
C531	C53	0.637900	0.792050	0.237500
C541	C54	0.750200	0.749160	0.253280
C551	C55	0.825400	0.749880	0.198240
C561	C56	0.235900	0.711770	0.935460
C571	C57	0.193800	0.641080	0.931240
C581	C58	0.271000	0.581450	0.918100
C591	C59	0.391000	0.600010	0.906980
C601	C60	0.426000	0.672700	0.912200
C611	C61	0.369100	0.744940	0.078920
C621	C62	0.121600	0.761490	0.138080
C631	C63	0.341800	0.699110	0.158180
C641	C64	0.433500	0.649130	0.205940
C651	C65	0.411600	0.606910	0.278780
C661	C66	0.298900	0.611970	0.305460
C671	C67	0.206400	0.660230	0.258340
C681	C68	0.225500	0.705990	0.184560
C691	C69	0.037400	0.593600	0.325800
C701	C70	0.973700	0.590510	0.384580
C711	C71	0.912700	0.516700	0.425800
C721	C72	0.918100	0.447710	0.406980
C731	C73	0.981500	0.453880	0.345640
C741	C74	0.039600	0.527760	0.303880
C751	C75	0.856400	0.367830	0.451340
C761	C76	0.886200	0.189690	0.659020
C771	C77	0.966500	0.142720	0.713960
C781	C78	0.051300	0.084380	0.704440
C791	C79	0.051200	0.077430	0.638540
C801	C80	0.966600	0.125660	0.587080
C811	C81	0.187800	0.946070	0.887060
C821	C82	0.107800	0.000670	0.835660
C831	C83	0.137900	0.029550	0.762500
C841	C84	0.250200	0.002440	0.746720
C851	C85	0.325400	0.948120	0.801760
C861	C86	0.735900	0.647230	0.064540
C871	C87	0.693800	0.572320	0.068760
C881	C88	0.771000	0.499550	0.081900
C891	C89	0.891000	0.506990	0.093020
C901	C90	0.926000	0.584900	0.087800
C911	C91	0.130900	0.176140	0.078920
C921	C92	0.378400	0.100430	0.138080
C931	C93	0.158200	0.142710	0.158180
C941	C94	0.066500	0.144930	0.205940
C951	C95	0.088400	0.114310	0.278780
C961	C96	0.201100	0.082570	0.305460
C971	C97	0.293600	0.081430	0.258340
C981	C98	0.274500	0.109450	0.184560
C991	C99	0.462600	0.080600	0.325800
C1001	C100	0.526300	0.024910	0.384580
C1011	C101	0.587300	0.057500	0.425800
C1021	C102	0.581900	0.145310	0.406980
C1031	C103	0.518500	0.200480	0.345640
C1041	C104	0.460400	0.168360	0.303880
C1051	C105	0.643600	0.180830	0.451340
C1061	C106	0.613800	0.151290	0.659020
C1071	C107	0.533500	0.143320	0.713960
C1081	C108	0.448700	0.211180	0.704440
C1091	C109	0.448800	0.284030	0.638540
C1101	C110	0.533400	0.287260	0.587080
C1111	C111	0.312200	0.166870	0.887060
C1121	C112	0.392200	0.163670	0.835660
C1131	C113	0.362100	0.207950	0.762500
C1141	C114	0.249800	0.250840	0.746720
C1151	C115	0.174600	0.250120	0.801760
C1161	C116	0.764100	0.288230	0.064540
C1171	C117	0.806200	0.358920	0.068760
C1181	C118	0.729000	0.418550	0.081900
C1191	C119	0.609000	0.399990	0.093020
C1201	C120	0.574000	0.327300	0.087800
N11	N1	0.116900	0.819110	0.403240
N21	N2	0.703400	0.081570	0.128420
N31	N3	0.148200	0.343790	0.928440
N41	N4	0.383100	0.777650	0.403240
N51	N5	0.796600	0.790010	0.128420
N61	N6	0.351800	0.727770	0.928440
N71	N7	0.883100	0.180890	0.596760
N81	N8	0.296600	0.918430	0.871580
N91	N9	0.851800	0.656210	0.071560
N101	N10	0.616900	0.222350	0.596760
N111	N11	0.203400	0.209990	0.871580
N121	N12	0.648200	0.272230	0.071560
O11	O1	0.710520	0.202590	0.962660
O21	O2	0.530400	0.269380	0.945220
O31	O3	0.894800	0.161920	0.868400
O41	O4	0.944780	0.276390	0.886880
O51	O5	0.908300	0.330490	0.715380
O61	O6	0.123500	0.699720	0.560140
O71	O7	0.217100	0.632890	0.499680
O81	O8	0.789480	0.834750	0.962660
O91	O9	0.969600	0.785400	0.945220
O101	O10	0.605200	0.969680	0.868400
O111	O11	0.555220	0.836730	0.886880
O121	O12	0.591700	0.954130	0.715380
O131	O13	0.376500	0.740140	0.560140
O141	O14	0.282900	0.867430	0.499680
O151	O15	0.289480	0.797410	0.037340
O161	O16	0.469600	0.730620	0.054780
O171	O17	0.105200	0.838080	0.131600
O181	O18	0.055220	0.723610	0.113120
O191	O19	0.091700	0.669510	0.284620
O201	O20	0.876500	0.300280	0.439860
O211	O21	0.782900	0.367110	0.500320
O221	O22	0.210520	0.165250	0.037340
O231	O23	0.030400	0.214600	0.054780
O241	O24	0.394800	0.030320	0.131600
O251	O25	0.444780	0.163270	0.113120
O261	O26	0.408300	0.045870	0.284620
O271	O27	0.623500	0.259860	0.439860
O281	O28	0.717100	0.132570	0.500320
