data_NUYWEK_clean_PM
_symmetry_space_group_name_H-M	'P1'
_cell_length_a	9.147000
_cell_length_b	9.219000
_cell_length_c	14.604000
_cell_angle_alpha	97.973000
_cell_angle_beta	104.956000
_cell_angle_gamma	104.565000
_symmetry_Int_Tables_number 1

loop_
_symmetry_equiv_pos_as_xyz
'x,y,z'

loop_
_atom_site_label
_atom_site_type_symbol
_atom_site_fract_x
_atom_site_fract_y
_atom_site_fract_z
Cd11	Cd1	0.597160	0.079040	0.188770
Cd21	Cd2	0.338340	0.247580	0.596020
H11	H1	0.925300	0.159600	0.506600
H21	H2	0.756600	0.170300	0.606000
H31	H3	0.176100	0.205000	0.775000
H41	H4	0.105900	0.288400	0.908900
H51	H5	0.995600	0.251300	0.038500
H61	H6	0.566300	0.091000	0.855700
H71	H7	0.654300	0.107100	0.725800
H81	H8	0.180200	0.168300	0.363200
H91	H9	0.015400	0.290800	0.262000
H101	H10	0.195400	0.552100	0.524400
H111	H11	0.034000	0.695500	0.486000
H121	H12	0.902700	0.870100	0.427700
H131	H13	0.792200	0.640900	0.157800
H141	H14	0.933500	0.474800	0.206700
H151	H15	0.261600	0.138100	0.226500
H161	H16	0.996500	0.014200	0.123900
H171	H17	0.272900	0.783500	0.057000
H181	H18	0.780100	0.792300	0.034200
H191	H19	0.579900	0.621900	0.906300
H201	H20	0.879700	0.499800	0.783900
H211	H21	0.089200	0.683600	0.902700
H221	H22	0.701700	0.189800	0.420300
H231	H23	0.654300	0.390200	0.520800
H241	H24	0.529700	0.438900	0.247300
H251	H25	0.648400	0.634100	0.567500
H261	H26	0.549300	0.820600	0.620600
H271	H27	0.357200	0.844900	0.343000
H281	H28	0.432100	0.624100	0.293800
C11	C1	0.955100	0.171800	0.573700
C21	C2	0.863200	0.175700	0.627700
C31	C3	0.093900	0.196000	0.719500
C41	C4	0.888200	0.188100	0.803300
C51	C5	0.997900	0.244200	0.897700
C61	C6	0.928000	0.226900	0.975300
C71	C7	0.777800	0.180000	0.961900
C81	C8	0.674600	0.130000	0.865500
C91	C9	0.725500	0.136400	0.788200
C101	C10	0.707600	0.156900	0.044200
C111	C11	0.164000	0.261800	0.383000
C121	C12	0.073200	0.328800	0.327300
C131	C13	0.172900	0.472400	0.471400
C141	C14	0.002400	0.570500	0.353000
C151	C15	0.989500	0.685500	0.419700
C161	C16	0.906700	0.788200	0.384300
C171	C17	0.833900	0.767600	0.288300
C181	C18	0.843400	0.652600	0.223500
C191	C19	0.926900	0.552200	0.252200
C201	C20	0.742300	0.875300	0.254800
C211	C21	0.230700	0.052100	0.176400
C221	C22	0.085300	0.984200	0.121200
C231	C23	0.238200	0.860800	0.084000
C241	C24	0.957300	0.755900	0.982500
C251	C25	0.802700	0.738300	0.983600
C261	C26	0.684000	0.636200	0.905700
C271	C27	0.707000	0.554900	0.828200
C281	C28	0.860000	0.564100	0.831200
C291	C29	0.986000	0.670000	0.904800
C301	C30	0.577100	0.445000	0.748400
C311	C31	0.661100	0.266300	0.399000
C321	C32	0.638800	0.377400	0.454300
C331	C33	0.568800	0.404300	0.302800
C341	C34	0.536000	0.605500	0.422800
C351	C35	0.582100	0.670900	0.523100
C361	C36	0.530000	0.786700	0.554300
C371	C37	0.444900	0.858200	0.488100
C381	C38	0.409800	0.799800	0.388900
C391	C39	0.457900	0.666700	0.359600
C401	C40	0.401200	0.989500	0.522600
N11	N1	0.111000	0.189600	0.635900
N21	N2	0.947800	0.188800	0.720400
N31	N3	0.229400	0.353700	0.474100
N41	N4	0.080500	0.462800	0.383500
N51	N5	0.331700	0.978800	0.150100
N61	N6	0.087500	0.860000	0.058200
N71	N7	0.614800	0.280500	0.303800
N81	N8	0.586900	0.474500	0.395000
O11	O1	0.805900	0.169000	0.127100
O21	O2	0.567700	0.131100	0.032400
O31	O3	0.759900	0.997400	0.312000
O41	O4	0.652900	0.838300	0.166400
O51	O5	0.598200	0.407700	0.669600
O61	O6	0.447000	0.384800	0.763800
O71	O7	0.392600	0.015200	0.612400
O81	O8	0.358400	0.071500	0.468000
