data_OBAHOR_clean_PM
_symmetry_space_group_name_H-M	'P1'
_cell_length_a	29.670000
_cell_length_b	29.670000
_cell_length_c	17.915000
_cell_angle_alpha	90.000000
_cell_angle_beta	90.000000
_cell_angle_gamma	120.000000
_symmetry_Int_Tables_number 1

loop_
_symmetry_equiv_pos_as_xyz
'x,y,z'

loop_
_atom_site_label
_atom_site_type_symbol
_atom_site_fract_x
_atom_site_fract_y
_atom_site_fract_z
Zn11	Zn1	0.629150	0.856690	0.519570
N11	N1	0.643620	0.896480	0.418330
N21	N2	0.598490	0.794670	0.446170
N31	N3	0.578020	0.769400	0.330030
H11	H1	0.575500	0.770900	0.281300
O11	O1	0.473180	0.492800	0.244010
O21	O2	0.446380	0.525180	0.153740
O31	O3	0.581900	0.637250	0.756560
O41	O4	0.498010	0.591660	0.734670
C11	C1	0.666020	0.947860	0.408150
H21	H2	0.679100	0.970000	0.450500
C21	C2	0.670980	0.970050	0.339280
H31	H3	0.686900	0.006700	0.334200
C31	C3	0.652590	0.938270	0.277960
H41	H4	0.656000	0.952800	0.229600
C41	C4	0.628960	0.884820	0.286730
H51	H5	0.615700	0.862200	0.244900
C51	C5	0.625150	0.865290	0.357900
C61	C6	0.600960	0.810200	0.375920
C71	C7	0.572020	0.741120	0.445120
C81	C8	0.558790	0.724340	0.371690
C91	C9	0.533030	0.673470	0.335170
C101	C10	0.510040	0.667960	0.265180
H61	H6	0.509600	0.696800	0.243000
C111	C11	0.488010	0.620890	0.227940
H71	H7	0.472600	0.617800	0.180300
C121	C12	0.487960	0.578000	0.258990
C131	C13	0.510220	0.582920	0.329260
H81	H8	0.510100	0.553800	0.351500
C141	C14	0.532370	0.629970	0.366600
H91	H9	0.547400	0.632800	0.414400
C151	C15	0.466960	0.528340	0.215240
C161	C16	0.562670	0.712210	0.515620
C171	C17	0.602590	0.730890	0.568490
H101	H10	0.634700	0.761700	0.558500
C181	C18	0.595720	0.704810	0.635350
H111	H11	0.623200	0.717500	0.670800
C191	C19	0.548850	0.660310	0.650530
C201	C20	0.508100	0.642600	0.599460
H121	H12	0.475400	0.612900	0.610600
C211	C21	0.515450	0.668660	0.531910
H131	H13	0.487800	0.656400	0.496800
C221	C22	0.543030	0.628510	0.718890
Zn21	Zn2	0.295820	0.190020	0.852900
N41	N4	0.310290	0.229810	0.751660
N51	N5	0.265160	0.128000	0.779500
N61	N6	0.244690	0.102730	0.663360
H141	H14	0.242170	0.104230	0.614630
O51	O5	0.139850	0.826130	0.577340
O61	O6	0.113050	0.858510	0.487070
O71	O7	0.248570	0.970580	0.089890
O81	O8	0.164680	0.924990	0.068000
C231	C23	0.332690	0.281190	0.741480
H151	H15	0.345770	0.303330	0.783830
C241	C24	0.337650	0.303380	0.672610
H161	H16	0.353570	0.340030	0.667530
C251	C25	0.319260	0.271600	0.611290
H171	H17	0.322670	0.286130	0.562930
C261	C26	0.295630	0.218150	0.620060
H181	H18	0.282370	0.195530	0.578230
C271	C27	0.291820	0.198620	0.691230
C281	C28	0.267630	0.143530	0.709250
C291	C29	0.238690	0.074450	0.778450
C301	C30	0.225460	0.057670	0.705020
C311	C31	0.199700	0.006800	0.668500
C321	C32	0.176710	0.001290	0.598510
H191	H19	0.176270	0.030130	0.576330
C331	C33	0.154680	0.954220	0.561270
H201	H20	0.139270	0.951130	0.513630
C341	C34	0.154630	0.911330	0.592320
C351	C35	0.176890	0.916250	0.662590
H211	H21	0.176770	0.887130	0.684830
C361	C36	0.199040	0.963300	0.699930
H221	H22	0.214070	0.966130	0.747730
C371	C37	0.133630	0.861670	0.548570
C381	C38	0.229340	0.045540	0.848950
C391	C39	0.269260	0.064220	0.901820
H231	H23	0.301370	0.095030	0.891830
C401	C40	0.262390	0.038140	0.968680
H241	H24	0.289870	0.050830	0.004130
C411	C41	0.215520	0.993640	0.983860
C421	C42	0.174770	0.975930	0.932790
H251	H25	0.142070	0.946230	0.943930
C431	C43	0.182120	0.001990	0.865240
H261	H26	0.154470	0.989730	0.830130
C441	C44	0.209700	0.961840	0.052220
Zn31	Zn3	0.962480	0.523360	0.186240
N71	N7	0.976950	0.563150	0.085000
N81	N8	0.931820	0.461340	0.112840
N91	N9	0.911350	0.436070	0.996700
H271	H27	0.908830	0.437570	0.947970
O91	O9	0.806510	0.159470	0.910680
O101	O10	0.779710	0.191850	0.820410
O111	O11	0.915230	0.303920	0.423230
O121	O12	0.831340	0.258330	0.401340
C451	C45	0.999350	0.614530	0.074820
H281	H28	0.012430	0.636670	0.117170
C461	C46	0.004310	0.636720	0.005950
H291	H29	0.020230	0.673370	0.000870
C471	C47	0.985920	0.604940	0.944630
H301	H30	0.989330	0.619470	0.896270
C481	C48	0.962290	0.551490	0.953400
H311	H31	0.949030	0.528870	0.911570
C491	C49	0.958480	0.531960	0.024570
C501	C50	0.934290	0.476870	0.042590
C511	C51	0.905350	0.407790	0.111790
C521	C52	0.892120	0.391010	0.038360
C531	C53	0.866360	0.340140	0.001840
C541	C54	0.843370	0.334630	0.931850
H321	H32	0.842930	0.363470	0.909670
C551	C55	0.821340	0.287560	0.894610
H331	H33	0.805930	0.284470	0.846970
C561	C56	0.821290	0.244670	0.925660
C571	C57	0.843550	0.249590	0.995930
H341	H34	0.843430	0.220470	0.018170
C581	C58	0.865700	0.296640	0.033270
H351	H35	0.880730	0.299470	0.081070
C591	C59	0.800290	0.195010	0.881910
C601	C60	0.896000	0.378880	0.182290
C611	C61	0.935920	0.397560	0.235160
H361	H36	0.968030	0.428370	0.225170
C621	C62	0.929050	0.371480	0.302020
H371	H37	0.956530	0.384170	0.337470
C631	C63	0.882180	0.326980	0.317200
C641	C64	0.841430	0.309270	0.266130
H381	H38	0.808730	0.279570	0.277270
C651	C65	0.848780	0.335330	0.198580
H391	H39	0.821130	0.323070	0.163470
C661	C66	0.876360	0.295180	0.385560
Zn41	Zn4	0.143310	0.772460	0.519570
N101	N10	0.103520	0.747140	0.418330
N111	N11	0.205330	0.803820	0.446170
N121	N12	0.230600	0.808620	0.330030
H401	H40	0.229100	0.804600	0.281300
O131	O13	0.507200	0.980380	0.244010
O141	O14	0.474820	0.921200	0.153740
O151	O15	0.362750	0.944650	0.756560
O161	O16	0.408340	0.906350	0.734670
C671	C67	0.052140	0.718160	0.408150
H411	H41	0.030000	0.709100	0.450500
C681	C68	0.029950	0.700930	0.339280
H421	H42	0.993300	0.680200	0.334200
C691	C69	0.061730	0.714320	0.277960
H431	H43	0.047200	0.703200	0.229600
C701	C70	0.115180	0.744140	0.286730
H441	H44	0.137800	0.753500	0.244900
C711	C71	0.134710	0.759860	0.357900
C721	C72	0.189800	0.790760	0.375920
C731	C73	0.258880	0.830900	0.445120
C741	C74	0.275660	0.834450	0.371690
C751	C75	0.326530	0.859560	0.335170
C761	C76	0.332040	0.842080	0.265180
H451	H45	0.303200	0.812800	0.243000
C771	C77	0.379110	0.867120	0.227940
H461	H46	0.382200	0.854800	0.180300
C781	C78	0.422000	0.909960	0.258990
C791	C79	0.417080	0.927300	0.329260
H471	H47	0.446200	0.956300	0.351500
C801	C80	0.370030	0.902400	0.366600
H481	H48	0.367200	0.914600	0.414400
C811	C81	0.471660	0.938620	0.215240
C821	C82	0.287790	0.850460	0.515620
C831	C83	0.269110	0.871700	0.568490
H491	H49	0.238300	0.873000	0.558500
C841	C84	0.295190	0.890910	0.635350
H501	H50	0.282500	0.905700	0.670800
C851	C85	0.339690	0.888540	0.650530
C861	C86	0.357400	0.865500	0.599460
H511	H51	0.387100	0.862500	0.610600
C871	C87	0.331340	0.846790	0.531910
H521	H52	0.343600	0.831400	0.496800
C881	C88	0.371490	0.914520	0.718890
Zn51	Zn5	0.809980	0.105790	0.852900
N131	N13	0.770190	0.080470	0.751660
N141	N14	0.872000	0.137150	0.779500
N151	N15	0.897270	0.141950	0.663360
H531	H53	0.895770	0.137930	0.614630
O171	O17	0.173870	0.313710	0.577340
O181	O18	0.141490	0.254530	0.487070
O191	O19	0.029420	0.277980	0.089890
O201	O20	0.075010	0.239680	0.068000
C891	C89	0.718810	0.051490	0.741480
H541	H54	0.696670	0.042430	0.783830
C901	C90	0.696620	0.034260	0.672610
H551	H55	0.659970	0.013530	0.667530
C911	C91	0.728400	0.047650	0.611290
H561	H56	0.713870	0.036530	0.562930
C921	C92	0.781850	0.077470	0.620060
H571	H57	0.804470	0.086830	0.578230
C931	C93	0.801380	0.093190	0.691230
C941	C94	0.856470	0.124090	0.709250
C951	C95	0.925550	0.164230	0.778450
C961	C96	0.942330	0.167780	0.705020
C971	C97	0.993200	0.192890	0.668500
C981	C98	0.998710	0.175410	0.598510
H581	H58	0.969870	0.146130	0.576330
C991	C99	0.045780	0.200450	0.561270
H591	H59	0.048870	0.188130	0.513630
C1001	C100	0.088670	0.243290	0.592320
C1011	C101	0.083750	0.260630	0.662590
H601	H60	0.112870	0.289630	0.684830
C1021	C102	0.036700	0.235730	0.699930
H611	H61	0.033870	0.247930	0.747730
C1031	C103	0.138330	0.271950	0.548570
C1041	C104	0.954460	0.183790	0.848950
C1051	C105	0.935780	0.205030	0.901820
H621	H62	0.904970	0.206330	0.891830
C1061	C106	0.961860	0.224240	0.968680
H631	H63	0.949170	0.239030	0.004130
C1071	C107	0.006360	0.221870	0.983860
C1081	C108	0.024070	0.198830	0.932790
H641	H64	0.053770	0.195830	0.943930
C1091	C109	0.998010	0.180120	0.865240
H651	H65	0.010270	0.164730	0.830130
C1101	C110	0.038160	0.247850	0.052220
Zn61	Zn6	0.476640	0.439130	0.186240
N161	N16	0.436850	0.413810	0.085000
N171	N17	0.538660	0.470490	0.112840
N181	N18	0.563930	0.475290	0.996700
H661	H66	0.562430	0.471270	0.947970
O211	O21	0.840530	0.647050	0.910680
O221	O22	0.808150	0.587870	0.820410
O231	O23	0.696080	0.611320	0.423230
O241	O24	0.741670	0.573020	0.401340
C1111	C111	0.385470	0.384830	0.074820
H671	H67	0.363330	0.375770	0.117170
C1121	C112	0.363280	0.367600	0.005950
H681	H68	0.326630	0.346870	0.000870
C1131	C113	0.395060	0.380990	0.944630
H691	H69	0.380530	0.369870	0.896270
C1141	C114	0.448510	0.410810	0.953400
H701	H70	0.471130	0.420170	0.911570
C1151	C115	0.468040	0.426530	0.024570
C1161	C116	0.523130	0.457430	0.042590
C1171	C117	0.592210	0.497570	0.111790
C1181	C118	0.608990	0.501120	0.038360
C1191	C119	0.659860	0.526230	0.001840
C1201	C120	0.665370	0.508750	0.931850
H711	H71	0.636530	0.479470	0.909670
C1211	C121	0.712440	0.533790	0.894610
H721	H72	0.715530	0.521470	0.846970
C1221	C122	0.755330	0.576630	0.925660
C1231	C123	0.750410	0.593970	0.995930
H731	H73	0.779530	0.622970	0.018170
C1241	C124	0.703360	0.569070	0.033270
H741	H74	0.700530	0.581270	0.081070
C1251	C125	0.804990	0.605290	0.881910
C1261	C126	0.621120	0.517130	0.182290
C1271	C127	0.602440	0.538370	0.235160
H751	H75	0.571630	0.539670	0.225170
C1281	C128	0.628520	0.557580	0.302020
H761	H76	0.615830	0.572370	0.337470
C1291	C129	0.673020	0.555210	0.317200
C1301	C130	0.690730	0.532170	0.266130
H771	H77	0.720430	0.529170	0.277270
C1311	C131	0.664670	0.513460	0.198580
H781	H78	0.676930	0.498070	0.163470
C1321	C132	0.704820	0.581190	0.385560
Zn71	Zn7	0.227540	0.370850	0.519570
N191	N19	0.252860	0.356380	0.418330
N201	N20	0.196180	0.401510	0.446170
N211	N21	0.191380	0.421980	0.330030
H791	H79	0.195400	0.424500	0.281300
O251	O25	0.019620	0.526820	0.244010
O261	O26	0.078800	0.553620	0.153740
O271	O27	0.055350	0.418100	0.756560
O281	O28	0.093650	0.501990	0.734670
C1331	C133	0.281840	0.333980	0.408150
H801	H80	0.290900	0.320900	0.450500
C1341	C134	0.299070	0.329020	0.339280
H811	H81	0.319800	0.313100	0.334200
C1351	C135	0.285680	0.347410	0.277960
H821	H82	0.296800	0.344000	0.229600
C1361	C136	0.255860	0.371040	0.286730
H831	H83	0.246500	0.384300	0.244900
C1371	C137	0.240140	0.374850	0.357900
C1381	C138	0.209240	0.399040	0.375920
C1391	C139	0.169100	0.427980	0.445120
C1401	C140	0.165550	0.441210	0.371690
C1411	C141	0.140440	0.466970	0.335170
C1421	C142	0.157920	0.489960	0.265180
H841	H84	0.187200	0.490400	0.243000
C1431	C143	0.132880	0.511990	0.227940
H851	H85	0.145200	0.527400	0.180300
C1441	C144	0.090040	0.512040	0.258990
C1451	C145	0.072700	0.489780	0.329260
H861	H86	0.043700	0.489900	0.351500
C1461	C146	0.097600	0.467630	0.366600
H871	H87	0.085400	0.452600	0.414400
C1471	C147	0.061380	0.533040	0.215240
C1481	C148	0.149540	0.437330	0.515620
C1491	C149	0.128300	0.397410	0.568490
H881	H88	0.127000	0.365300	0.558500
C1501	C150	0.109090	0.404280	0.635350
H891	H89	0.094300	0.376800	0.670800
C1511	C151	0.111460	0.451150	0.650530
C1521	C152	0.134500	0.491900	0.599460
H901	H90	0.137500	0.524600	0.610600
C1531	C153	0.153210	0.484550	0.531910
H911	H91	0.168600	0.512200	0.496800
C1541	C154	0.085480	0.456970	0.718890
Zn81	Zn8	0.894210	0.704180	0.852900
N221	N22	0.919530	0.689710	0.751660
N231	N23	0.862850	0.734840	0.779500
N241	N24	0.858050	0.755310	0.663360
H921	H92	0.862070	0.757830	0.614630
O291	O29	0.686290	0.860150	0.577340
O301	O30	0.745470	0.886950	0.487070
O311	O31	0.722020	0.751430	0.089890
O321	O32	0.760320	0.835320	0.068000
C1551	C155	0.948510	0.667310	0.741480
H931	H93	0.957570	0.654230	0.783830
C1561	C156	0.965740	0.662350	0.672610
H941	H94	0.986470	0.646430	0.667530
C1571	C157	0.952350	0.680740	0.611290
H951	H95	0.963470	0.677330	0.562930
C1581	C158	0.922530	0.704370	0.620060
H961	H96	0.913170	0.717630	0.578230
C1591	C159	0.906810	0.708180	0.691230
C1601	C160	0.875910	0.732370	0.709250
C1611	C161	0.835770	0.761310	0.778450
C1621	C162	0.832220	0.774540	0.705020
C1631	C163	0.807110	0.800300	0.668500
C1641	C164	0.824590	0.823290	0.598510
H971	H97	0.853870	0.823730	0.576330
C1651	C165	0.799550	0.845320	0.561270
H981	H98	0.811870	0.860730	0.513630
C1661	C166	0.756710	0.845370	0.592320
C1671	C167	0.739370	0.823110	0.662590
H991	H99	0.710370	0.823230	0.684830
C1681	C168	0.764270	0.800960	0.699930
H1001	H100	0.752070	0.785930	0.747730
C1691	C169	0.728050	0.866370	0.548570
C1701	C170	0.816210	0.770660	0.848950
C1711	C171	0.794970	0.730740	0.901820
H1011	H101	0.793670	0.698630	0.891830
C1721	C172	0.775760	0.737610	0.968680
H1021	H102	0.760970	0.710130	0.004130
C1731	C173	0.778130	0.784480	0.983860
C1741	C174	0.801170	0.825230	0.932790
H1031	H103	0.804170	0.857930	0.943930
C1751	C175	0.819880	0.817880	0.865240
H1041	H104	0.835270	0.845530	0.830130
C1761	C176	0.752150	0.790300	0.052220
Zn91	Zn9	0.560870	0.037520	0.186240
N251	N25	0.586190	0.023050	0.085000
N261	N26	0.529510	0.068180	0.112840
N271	N27	0.524710	0.088650	0.996700
H1051	H105	0.528730	0.091170	0.947970
O331	O33	0.352950	0.193490	0.910680
O341	O34	0.412130	0.220290	0.820410
O351	O35	0.388680	0.084770	0.423230
O361	O36	0.426980	0.168660	0.401340
C1771	C177	0.615170	0.000650	0.074820
H1061	H106	0.624230	0.987570	0.117170
C1781	C178	0.632400	0.995690	0.005950
H1071	H107	0.653130	0.979770	0.000870
C1791	C179	0.619010	0.014080	0.944630
H1081	H108	0.630130	0.010670	0.896270
C1801	C180	0.589190	0.037710	0.953400
H1091	H109	0.579830	0.050970	0.911570
C1811	C181	0.573470	0.041520	0.024570
C1821	C182	0.542570	0.065710	0.042590
C1831	C183	0.502430	0.094650	0.111790
C1841	C184	0.498880	0.107880	0.038360
C1851	C185	0.473770	0.133640	0.001840
C1861	C186	0.491250	0.156630	0.931850
H1101	H110	0.520530	0.157070	0.909670
C1871	C187	0.466210	0.178660	0.894610
H1111	H111	0.478530	0.194070	0.846970
C1881	C188	0.423370	0.178710	0.925660
C1891	C189	0.406030	0.156450	0.995930
H1121	H112	0.377030	0.156570	0.018170
C1901	C190	0.430930	0.134300	0.033270
H1131	H113	0.418730	0.119270	0.081070
C1911	C191	0.394710	0.199710	0.881910
C1921	C192	0.482870	0.104000	0.182290
C1931	C193	0.461630	0.064080	0.235160
H1141	H114	0.460330	0.031970	0.225170
C1941	C194	0.442420	0.070950	0.302020
H1151	H115	0.427630	0.043470	0.337470
C1951	C195	0.444790	0.117820	0.317200
C1961	C196	0.467830	0.158570	0.266130
H1161	H116	0.470830	0.191270	0.277270
C1971	C197	0.486540	0.151220	0.198580
H1171	H117	0.501930	0.178870	0.163470
C1981	C198	0.418810	0.123640	0.385560
Zn101	Zn10	0.370850	0.143310	0.480430
N281	N28	0.356380	0.103520	0.581670
N291	N29	0.401510	0.205330	0.553830
N301	N30	0.421980	0.230600	0.669970
H1181	H118	0.424500	0.229100	0.718700
O371	O37	0.526820	0.507200	0.755990
O381	O38	0.553620	0.474820	0.846260
O391	O39	0.418100	0.362750	0.243440
O401	O40	0.501990	0.408340	0.265330
C1991	C199	0.333980	0.052140	0.591850
H1191	H119	0.320900	0.030000	0.549500
C2001	C200	0.329020	0.029950	0.660720
H1201	H120	0.313100	0.993300	0.665800
C2011	C201	0.347410	0.061730	0.722040
H1211	H121	0.344000	0.047200	0.770400
C2021	C202	0.371040	0.115180	0.713270
H1221	H122	0.384300	0.137800	0.755100
C2031	C203	0.374850	0.134710	0.642100
C2041	C204	0.399040	0.189800	0.624080
C2051	C205	0.427980	0.258880	0.554880
C2061	C206	0.441210	0.275660	0.628310
C2071	C207	0.466970	0.326530	0.664830
C2081	C208	0.489960	0.332040	0.734820
H1231	H123	0.490400	0.303200	0.757000
C2091	C209	0.511990	0.379110	0.772060
H1241	H124	0.527400	0.382200	0.819700
C2101	C210	0.512040	0.422000	0.741010
C2111	C211	0.489780	0.417080	0.670740
H1251	H125	0.489900	0.446200	0.648500
C2121	C212	0.467630	0.370030	0.633400
H1261	H126	0.452600	0.367200	0.585600
C2131	C213	0.533040	0.471660	0.784760
C2141	C214	0.437330	0.287790	0.484380
C2151	C215	0.397410	0.269110	0.431510
H1271	H127	0.365300	0.238300	0.441500
C2161	C216	0.404280	0.295190	0.364650
H1281	H128	0.376800	0.282500	0.329200
C2171	C217	0.451150	0.339690	0.349470
C2181	C218	0.491900	0.357400	0.400540
H1291	H129	0.524600	0.387100	0.389400
C2191	C219	0.484550	0.331340	0.468090
H1301	H130	0.512200	0.343600	0.503200
C2201	C220	0.456970	0.371490	0.281110
Zn111	Zn11	0.037520	0.476640	0.813760
N311	N31	0.023050	0.436850	0.915000
N321	N32	0.068180	0.538660	0.887160
N331	N33	0.088650	0.563930	0.003300
H1311	H131	0.091170	0.562430	0.052030
O411	O41	0.193490	0.840530	0.089320
O421	O42	0.220290	0.808150	0.179590
O431	O43	0.084770	0.696080	0.576770
O441	O44	0.168660	0.741670	0.598660
C2211	C221	0.000650	0.385470	0.925180
H1321	H132	0.987570	0.363330	0.882830
C2221	C222	0.995690	0.363280	0.994050
H1331	H133	0.979770	0.326630	0.999130
C2231	C223	0.014080	0.395060	0.055370
H1341	H134	0.010670	0.380530	0.103730
C2241	C224	0.037710	0.448510	0.046600
H1351	H135	0.050970	0.471130	0.088430
C2251	C225	0.041520	0.468040	0.975430
C2261	C226	0.065710	0.523130	0.957410
C2271	C227	0.094650	0.592210	0.888210
C2281	C228	0.107880	0.608990	0.961640
C2291	C229	0.133640	0.659860	0.998160
C2301	C230	0.156630	0.665370	0.068150
H1361	H136	0.157070	0.636530	0.090330
C2311	C231	0.178660	0.712440	0.105390
H1371	H137	0.194070	0.715530	0.153030
C2321	C232	0.178710	0.755330	0.074340
C2331	C233	0.156450	0.750410	0.004070
H1381	H138	0.156570	0.779530	0.981830
C2341	C234	0.134300	0.703360	0.966730
H1391	H139	0.119270	0.700530	0.918930
C2351	C235	0.199710	0.804990	0.118090
C2361	C236	0.104000	0.621120	0.817710
C2371	C237	0.064080	0.602440	0.764840
H1401	H140	0.031970	0.571630	0.774830
C2381	C238	0.070950	0.628520	0.697980
H1411	H141	0.043470	0.615830	0.662530
C2391	C239	0.117820	0.673020	0.682800
C2401	C240	0.158570	0.690730	0.733870
H1421	H142	0.191270	0.720430	0.722730
C2411	C241	0.151220	0.664670	0.801420
H1431	H143	0.178870	0.676930	0.836530
C2421	C242	0.123640	0.704820	0.614440
Zn121	Zn12	0.704180	0.809980	0.147100
N341	N34	0.689710	0.770190	0.248340
N351	N35	0.734840	0.872000	0.220500
N361	N36	0.755310	0.897270	0.336640
H1441	H144	0.757830	0.895770	0.385370
O451	O45	0.860150	0.173870	0.422660
O461	O46	0.886950	0.141490	0.512930
O471	O47	0.751430	0.029420	0.910110
O481	O48	0.835320	0.075010	0.932000
C2431	C243	0.667310	0.718810	0.258520
H1451	H145	0.654230	0.696670	0.216170
C2441	C244	0.662350	0.696620	0.327390
H1461	H146	0.646430	0.659970	0.332470
C2451	C245	0.680740	0.728400	0.388710
H1471	H147	0.677330	0.713870	0.437070
C2461	C246	0.704370	0.781850	0.379940
H1481	H148	0.717630	0.804470	0.421770
C2471	C247	0.708180	0.801380	0.308770
C2481	C248	0.732370	0.856470	0.290750
C2491	C249	0.761310	0.925550	0.221550
C2501	C250	0.774540	0.942330	0.294980
C2511	C251	0.800300	0.993200	0.331500
C2521	C252	0.823290	0.998710	0.401490
H1491	H149	0.823730	0.969870	0.423670
C2531	C253	0.845320	0.045780	0.438730
H1501	H150	0.860730	0.048870	0.486370
C2541	C254	0.845370	0.088670	0.407680
C2551	C255	0.823110	0.083750	0.337410
H1511	H151	0.823230	0.112870	0.315170
C2561	C256	0.800960	0.036700	0.300070
H1521	H152	0.785930	0.033870	0.252270
C2571	C257	0.866370	0.138330	0.451430
C2581	C258	0.770660	0.954460	0.151050
C2591	C259	0.730740	0.935780	0.098180
H1531	H153	0.698630	0.904970	0.108170
C2601	C260	0.737610	0.961860	0.031320
H1541	H154	0.710130	0.949170	0.995870
C2611	C261	0.784480	0.006360	0.016140
C2621	C262	0.825230	0.024070	0.067210
H1551	H155	0.857930	0.053770	0.056070
C2631	C263	0.817880	0.998010	0.134760
H1561	H156	0.845530	0.010270	0.169870
C2641	C264	0.790300	0.038160	0.947780
Zn131	Zn13	0.856690	0.227540	0.480430
N371	N37	0.896480	0.252860	0.581670
N381	N38	0.794670	0.196180	0.553830
N391	N39	0.769400	0.191380	0.669970
H1571	H157	0.770900	0.195400	0.718700
O491	O49	0.492800	0.019620	0.755990
O501	O50	0.525180	0.078800	0.846260
O511	O51	0.637250	0.055350	0.243440
O521	O52	0.591660	0.093650	0.265330
C2651	C265	0.947860	0.281840	0.591850
H1581	H158	0.970000	0.290900	0.549500
C2661	C266	0.970050	0.299070	0.660720
H1591	H159	0.006700	0.319800	0.665800
C2671	C267	0.938270	0.285680	0.722040
H1601	H160	0.952800	0.296800	0.770400
C2681	C268	0.884820	0.255860	0.713270
H1611	H161	0.862200	0.246500	0.755100
C2691	C269	0.865290	0.240140	0.642100
C2701	C270	0.810200	0.209240	0.624080
C2711	C271	0.741120	0.169100	0.554880
C2721	C272	0.724340	0.165550	0.628310
C2731	C273	0.673470	0.140440	0.664830
C2741	C274	0.667960	0.157920	0.734820
H1621	H162	0.696800	0.187200	0.757000
C2751	C275	0.620890	0.132880	0.772060
H1631	H163	0.617800	0.145200	0.819700
C2761	C276	0.578000	0.090040	0.741010
C2771	C277	0.582920	0.072700	0.670740
H1641	H164	0.553800	0.043700	0.648500
C2781	C278	0.629970	0.097600	0.633400
H1651	H165	0.632800	0.085400	0.585600
C2791	C279	0.528340	0.061380	0.784760
C2801	C280	0.712210	0.149540	0.484380
C2811	C281	0.730890	0.128300	0.431510
H1661	H166	0.761700	0.127000	0.441500
C2821	C282	0.704810	0.109090	0.364650
H1671	H167	0.717500	0.094300	0.329200
C2831	C283	0.660310	0.111460	0.349470
C2841	C284	0.642600	0.134500	0.400540
H1681	H168	0.612900	0.137500	0.389400
C2851	C285	0.668660	0.153210	0.468090
H1691	H169	0.656400	0.168600	0.503200
C2861	C286	0.628510	0.085480	0.281110
Zn141	Zn14	0.523360	0.560870	0.813760
N401	N40	0.563150	0.586190	0.915000
N411	N41	0.461340	0.529510	0.887160
N421	N42	0.436070	0.524710	0.003300
H1701	H170	0.437570	0.528730	0.052030
O531	O53	0.159470	0.352950	0.089320
O541	O54	0.191850	0.412130	0.179590
O551	O55	0.303920	0.388680	0.576770
O561	O56	0.258330	0.426980	0.598660
C2871	C287	0.614530	0.615170	0.925180
H1711	H171	0.636670	0.624230	0.882830
C2881	C288	0.636720	0.632400	0.994050
H1721	H172	0.673370	0.653130	0.999130
C2891	C289	0.604940	0.619010	0.055370
H1731	H173	0.619470	0.630130	0.103730
C2901	C290	0.551490	0.589190	0.046600
H1741	H174	0.528870	0.579830	0.088430
C2911	C291	0.531960	0.573470	0.975430
C2921	C292	0.476870	0.542570	0.957410
C2931	C293	0.407790	0.502430	0.888210
C2941	C294	0.391010	0.498880	0.961640
C2951	C295	0.340140	0.473770	0.998160
C2961	C296	0.334630	0.491250	0.068150
H1751	H175	0.363470	0.520530	0.090330
C2971	C297	0.287560	0.466210	0.105390
H1761	H176	0.284470	0.478530	0.153030
C2981	C298	0.244670	0.423370	0.074340
C2991	C299	0.249590	0.406030	0.004070
H1771	H177	0.220470	0.377030	0.981830
C3001	C300	0.296640	0.430930	0.966730
H1781	H178	0.299470	0.418730	0.918930
C3011	C301	0.195010	0.394710	0.118090
C3021	C302	0.378880	0.482870	0.817710
C3031	C303	0.397560	0.461630	0.764840
H1791	H179	0.428370	0.460330	0.774830
C3041	C304	0.371480	0.442420	0.697980
H1801	H180	0.384170	0.427630	0.662530
C3051	C305	0.326980	0.444790	0.682800
C3061	C306	0.309270	0.467830	0.733870
H1811	H181	0.279570	0.470830	0.722730
C3071	C307	0.335330	0.486540	0.801420
H1821	H182	0.323070	0.501930	0.836530
C3081	C308	0.295180	0.418810	0.614440
Zn151	Zn15	0.190020	0.894210	0.147100
N431	N43	0.229810	0.919530	0.248340
N441	N44	0.128000	0.862850	0.220500
N451	N45	0.102730	0.858050	0.336640
H1831	H183	0.104230	0.862070	0.385370
O571	O57	0.826130	0.686290	0.422660
O581	O58	0.858510	0.745470	0.512930
O591	O59	0.970580	0.722020	0.910110
O601	O60	0.924990	0.760320	0.932000
C3091	C309	0.281190	0.948510	0.258520
H1841	H184	0.303330	0.957570	0.216170
C3101	C310	0.303380	0.965740	0.327390
H1851	H185	0.340030	0.986470	0.332470
C3111	C311	0.271600	0.952350	0.388710
H1861	H186	0.286130	0.963470	0.437070
C3121	C312	0.218150	0.922530	0.379940
H1871	H187	0.195530	0.913170	0.421770
C3131	C313	0.198620	0.906810	0.308770
C3141	C314	0.143530	0.875910	0.290750
C3151	C315	0.074450	0.835770	0.221550
C3161	C316	0.057670	0.832220	0.294980
C3171	C317	0.006800	0.807110	0.331500
C3181	C318	0.001290	0.824590	0.401490
H1881	H188	0.030130	0.853870	0.423670
C3191	C319	0.954220	0.799550	0.438730
H1891	H189	0.951130	0.811870	0.486370
C3201	C320	0.911330	0.756710	0.407680
C3211	C321	0.916250	0.739370	0.337410
H1901	H190	0.887130	0.710370	0.315170
C3221	C322	0.963300	0.764270	0.300070
H1911	H191	0.966130	0.752070	0.252270
C3231	C323	0.861670	0.728050	0.451430
C3241	C324	0.045540	0.816210	0.151050
C3251	C325	0.064220	0.794970	0.098180
H1921	H192	0.095030	0.793670	0.108170
C3261	C326	0.038140	0.775760	0.031320
H1931	H193	0.050830	0.760970	0.995870
C3271	C327	0.993640	0.778130	0.016140
C3281	C328	0.975930	0.801170	0.067210
H1941	H194	0.946230	0.804170	0.056070
C3291	C329	0.001990	0.819880	0.134760
H1951	H195	0.989730	0.835270	0.169870
C3301	C330	0.961840	0.752150	0.947780
Zn161	Zn16	0.772460	0.629150	0.480430
N461	N46	0.747140	0.643620	0.581670
N471	N47	0.803820	0.598490	0.553830
N481	N48	0.808620	0.578020	0.669970
H1961	H196	0.804600	0.575500	0.718700
O611	O61	0.980380	0.473180	0.755990
O621	O62	0.921200	0.446380	0.846260
O631	O63	0.944650	0.581900	0.243440
O641	O64	0.906350	0.498010	0.265330
C3311	C331	0.718160	0.666020	0.591850
H1971	H197	0.709100	0.679100	0.549500
C3321	C332	0.700930	0.670980	0.660720
H1981	H198	0.680200	0.686900	0.665800
C3331	C333	0.714320	0.652590	0.722040
H1991	H199	0.703200	0.656000	0.770400
C3341	C334	0.744140	0.628960	0.713270
H2001	H200	0.753500	0.615700	0.755100
C3351	C335	0.759860	0.625150	0.642100
C3361	C336	0.790760	0.600960	0.624080
C3371	C337	0.830900	0.572020	0.554880
C3381	C338	0.834450	0.558790	0.628310
C3391	C339	0.859560	0.533030	0.664830
C3401	C340	0.842080	0.510040	0.734820
H2011	H201	0.812800	0.509600	0.757000
C3411	C341	0.867120	0.488010	0.772060
H2021	H202	0.854800	0.472600	0.819700
C3421	C342	0.909960	0.487960	0.741010
C3431	C343	0.927300	0.510220	0.670740
H2031	H203	0.956300	0.510100	0.648500
C3441	C344	0.902400	0.532370	0.633400
H2041	H204	0.914600	0.547400	0.585600
C3451	C345	0.938620	0.466960	0.784760
C3461	C346	0.850460	0.562670	0.484380
C3471	C347	0.871700	0.602590	0.431510
H2051	H205	0.873000	0.634700	0.441500
C3481	C348	0.890910	0.595720	0.364650
H2061	H206	0.905700	0.623200	0.329200
C3491	C349	0.888540	0.548850	0.349470
C3501	C350	0.865500	0.508100	0.400540
H2071	H207	0.862500	0.475400	0.389400
C3511	C351	0.846790	0.515450	0.468090
H2081	H208	0.831400	0.487800	0.503200
C3521	C352	0.914520	0.543030	0.281110
Zn171	Zn17	0.439130	0.962480	0.813760
N491	N49	0.413810	0.976950	0.915000
N501	N50	0.470490	0.931820	0.887160
N511	N51	0.475290	0.911350	0.003300
H2091	H209	0.471270	0.908830	0.052030
O651	O65	0.647050	0.806510	0.089320
O661	O66	0.587870	0.779710	0.179590
O671	O67	0.611320	0.915230	0.576770
O681	O68	0.573020	0.831340	0.598660
C3531	C353	0.384830	0.999350	0.925180
H2101	H210	0.375770	0.012430	0.882830
C3541	C354	0.367600	0.004310	0.994050
H2111	H211	0.346870	0.020230	0.999130
C3551	C355	0.380990	0.985920	0.055370
H2121	H212	0.369870	0.989330	0.103730
C3561	C356	0.410810	0.962290	0.046600
H2131	H213	0.420170	0.949030	0.088430
C3571	C357	0.426530	0.958480	0.975430
C3581	C358	0.457430	0.934290	0.957410
C3591	C359	0.497570	0.905350	0.888210
C3601	C360	0.501120	0.892120	0.961640
C3611	C361	0.526230	0.866360	0.998160
C3621	C362	0.508750	0.843370	0.068150
H2141	H214	0.479470	0.842930	0.090330
C3631	C363	0.533790	0.821340	0.105390
H2151	H215	0.521470	0.805930	0.153030
C3641	C364	0.576630	0.821290	0.074340
C3651	C365	0.593970	0.843550	0.004070
H2161	H216	0.622970	0.843430	0.981830
C3661	C366	0.569070	0.865700	0.966730
H2171	H217	0.581270	0.880730	0.918930
C3671	C367	0.605290	0.800290	0.118090
C3681	C368	0.517130	0.896000	0.817710
C3691	C369	0.538370	0.935920	0.764840
H2181	H218	0.539670	0.968030	0.774830
C3701	C370	0.557580	0.929050	0.697980
H2191	H219	0.572370	0.956530	0.662530
C3711	C371	0.555210	0.882180	0.682800
C3721	C372	0.532170	0.841430	0.733870
H2201	H220	0.529170	0.808730	0.722730
C3731	C373	0.513460	0.848780	0.801420
H2211	H221	0.498070	0.821130	0.836530
C3741	C374	0.581190	0.876360	0.614440
Zn181	Zn18	0.105790	0.295820	0.147100
N521	N52	0.080470	0.310290	0.248340
N531	N53	0.137150	0.265160	0.220500
N541	N54	0.141950	0.244690	0.336640
H2221	H222	0.137930	0.242170	0.385370
O691	O69	0.313710	0.139850	0.422660
O701	O70	0.254530	0.113050	0.512930
O711	O71	0.277980	0.248570	0.910110
O721	O72	0.239680	0.164680	0.932000
C3751	C375	0.051490	0.332690	0.258520
H2231	H223	0.042430	0.345770	0.216170
C3761	C376	0.034260	0.337650	0.327390
H2241	H224	0.013530	0.353570	0.332470
C3771	C377	0.047650	0.319260	0.388710
H2251	H225	0.036530	0.322670	0.437070
C3781	C378	0.077470	0.295630	0.379940
H2261	H226	0.086830	0.282370	0.421770
C3791	C379	0.093190	0.291820	0.308770
C3801	C380	0.124090	0.267630	0.290750
C3811	C381	0.164230	0.238690	0.221550
C3821	C382	0.167780	0.225460	0.294980
C3831	C383	0.192890	0.199700	0.331500
C3841	C384	0.175410	0.176710	0.401490
H2271	H227	0.146130	0.176270	0.423670
C3851	C385	0.200450	0.154680	0.438730
H2281	H228	0.188130	0.139270	0.486370
C3861	C386	0.243290	0.154630	0.407680
C3871	C387	0.260630	0.176890	0.337410
H2291	H229	0.289630	0.176770	0.315170
C3881	C388	0.235730	0.199040	0.300070
H2301	H230	0.247930	0.214070	0.252270
C3891	C389	0.271950	0.133630	0.451430
C3901	C390	0.183790	0.229340	0.151050
C3911	C391	0.205030	0.269260	0.098180
H2311	H231	0.206330	0.301370	0.108170
C3921	C392	0.224240	0.262390	0.031320
H2321	H232	0.239030	0.289870	0.995870
C3931	C393	0.221870	0.215520	0.016140
C3941	C394	0.198830	0.174770	0.067210
H2331	H233	0.195830	0.142070	0.056070
C3951	C395	0.180120	0.182120	0.134760
H2341	H234	0.164730	0.154470	0.169870
C3961	C396	0.247850	0.209700	0.947780
