data_OBAJAF_clean_PM
_symmetry_space_group_name_H-M	'P1'
_cell_length_a	30.516000
_cell_length_b	30.516000
_cell_length_c	17.704000
_cell_angle_alpha	90.000000
_cell_angle_beta	90.000000
_cell_angle_gamma	120.000000
_symmetry_Int_Tables_number 1

loop_
_symmetry_equiv_pos_as_xyz
'x,y,z'

loop_
_atom_site_label
_atom_site_type_symbol
_atom_site_fract_x
_atom_site_fract_y
_atom_site_fract_z
Zn11	Zn1	0.631840	0.853630	0.523400
N11	N1	0.638860	0.892470	0.423690
N21	N2	0.604530	0.793950	0.447290
N31	N3	0.585500	0.771180	0.328360
H11	H1	0.582900	0.773500	0.279200
O11	O1	0.479400	0.499530	0.245830
O21	O2	0.450280	0.529590	0.156040
O31	O3	0.585920	0.627490	0.747090
O41	O4	0.503350	0.590830	0.731540
C11	C1	0.653160	0.941560	0.416790
H21	H2	0.663200	0.962200	0.460700
C21	C2	0.653730	0.963200	0.347960
H31	H3	0.663500	0.998000	0.344700
C31	C3	0.639980	0.933500	0.284170
H41	H4	0.640600	0.947800	0.236200
C41	C4	0.625180	0.882720	0.290010
H51	H5	0.615800	0.861700	0.246500
C51	C5	0.624460	0.863420	0.361130
C61	C6	0.605960	0.809960	0.377230
C71	C7	0.581340	0.741940	0.443460
C81	C8	0.569300	0.727050	0.368670
C91	C9	0.544690	0.677820	0.330960
C101	C10	0.517040	0.670740	0.264240
H61	H6	0.514500	0.698100	0.243600
C111	C11	0.493460	0.624190	0.228370
H71	H7	0.474800	0.619900	0.183400
C121	C12	0.496870	0.583660	0.257520
C131	C13	0.524560	0.590660	0.323700
H81	H8	0.527100	0.563300	0.344200
C141	C14	0.548270	0.637080	0.359620
H91	H9	0.567200	0.641300	0.404300
C151	C15	0.473020	0.533950	0.216200
C161	C16	0.571910	0.711900	0.512860
C171	C17	0.609160	0.728480	0.568620
H101	H10	0.640200	0.759200	0.561800
C181	C18	0.601080	0.700360	0.633870
H111	H11	0.626700	0.711800	0.671400
C191	C19	0.555730	0.655620	0.644590
C201	C20	0.517790	0.640040	0.590470
H121	H12	0.486100	0.610300	0.598600
C211	C21	0.526050	0.667770	0.524520
H131	H13	0.500200	0.656500	0.487300
C221	C22	0.548620	0.623440	0.712470
Zn21	Zn2	0.298510	0.186960	0.856730
N41	N4	0.305530	0.225800	0.757020
N51	N5	0.271200	0.127280	0.780620
N61	N6	0.252170	0.104510	0.661690
H141	H14	0.249570	0.106830	0.612530
O51	O5	0.146070	0.832860	0.579160
O61	O6	0.116950	0.862920	0.489370
O71	O7	0.252590	0.960820	0.080420
O81	O8	0.170020	0.924160	0.064870
C231	C23	0.319830	0.274890	0.750120
H151	H15	0.329870	0.295530	0.794030
C241	C24	0.320400	0.296530	0.681290
H161	H16	0.330170	0.331330	0.678030
C251	C25	0.306650	0.266830	0.617500
H171	H17	0.307270	0.281130	0.569530
C261	C26	0.291850	0.216050	0.623340
H181	H18	0.282470	0.195030	0.579830
C271	C27	0.291130	0.196750	0.694460
C281	C28	0.272630	0.143290	0.710560
C291	C29	0.248010	0.075270	0.776790
C301	C30	0.235970	0.060380	0.702000
C311	C31	0.211360	0.011150	0.664290
C321	C32	0.183710	0.004070	0.597570
H191	H19	0.181170	0.031430	0.576930
C331	C33	0.160130	0.957520	0.561700
H201	H20	0.141470	0.953230	0.516730
C341	C34	0.163540	0.916990	0.590850
C351	C35	0.191230	0.923990	0.657030
H211	H21	0.193770	0.896630	0.677530
C361	C36	0.214940	0.970410	0.692950
H221	H22	0.233870	0.974630	0.737630
C371	C37	0.139690	0.867280	0.549530
C381	C38	0.238580	0.045230	0.846190
C391	C39	0.275830	0.061810	0.901950
H231	H23	0.306870	0.092530	0.895130
C401	C40	0.267750	0.033690	0.967200
H241	H24	0.293370	0.045130	0.004730
C411	C41	0.222400	0.988950	0.977920
C421	C42	0.184460	0.973370	0.923800
H251	H25	0.152770	0.943630	0.931930
C431	C43	0.192720	0.001100	0.857850
H261	H26	0.166870	0.989830	0.820630
C441	C44	0.215290	0.956770	0.045800
Zn31	Zn3	0.965170	0.520300	0.190070
N71	N7	0.972190	0.559140	0.090360
N81	N8	0.937860	0.460620	0.113960
N91	N9	0.918830	0.437850	0.995030
H271	H27	0.916230	0.440170	0.945870
O91	O9	0.812730	0.166200	0.912500
O101	O10	0.783610	0.196260	0.822710
O111	O11	0.919250	0.294160	0.413760
O121	O12	0.836680	0.257500	0.398210
C451	C45	0.986490	0.608230	0.083460
H281	H28	0.996530	0.628870	0.127370
C461	C46	0.987060	0.629870	0.014630
H291	H29	0.996830	0.664670	0.011370
C471	C47	0.973310	0.600170	0.950840
H301	H30	0.973930	0.614470	0.902870
C481	C48	0.958510	0.549390	0.956680
H311	H31	0.949130	0.528370	0.913170
C491	C49	0.957790	0.530090	0.027800
C501	C50	0.939290	0.476630	0.043900
C511	C51	0.914670	0.408610	0.110130
C521	C52	0.902630	0.393720	0.035340
C531	C53	0.878020	0.344490	0.997630
C541	C54	0.850370	0.337410	0.930910
H321	H32	0.847830	0.364770	0.910270
C551	C55	0.826790	0.290860	0.895040
H331	H33	0.808130	0.286570	0.850070
C561	C56	0.830200	0.250330	0.924190
C571	C57	0.857890	0.257330	0.990370
H341	H34	0.860430	0.229970	0.010870
C581	C58	0.881600	0.303750	0.026290
H351	H35	0.900530	0.307970	0.070970
C591	C59	0.806350	0.200620	0.882870
C601	C60	0.905240	0.378570	0.179530
C611	C61	0.942490	0.395150	0.235290
H361	H36	0.973530	0.425870	0.228470
C621	C62	0.934410	0.367030	0.300540
H371	H37	0.960030	0.378470	0.338070
C631	C63	0.889060	0.322290	0.311260
C641	C64	0.851120	0.306710	0.257140
H381	H38	0.819430	0.276970	0.265270
C651	C65	0.859380	0.334440	0.191190
H391	H39	0.833530	0.323170	0.153970
C661	C66	0.881950	0.290110	0.379140
Zn41	Zn4	0.146370	0.778210	0.523400
N101	N10	0.107530	0.746390	0.423690
N111	N11	0.206050	0.810580	0.447290
N121	N12	0.228820	0.814320	0.328360
H401	H40	0.226500	0.809400	0.279200
O131	O13	0.500470	0.979870	0.245830
O141	O14	0.470410	0.920690	0.156040
O151	O15	0.372510	0.958430	0.747090
O161	O16	0.409170	0.912520	0.731540
C671	C67	0.058440	0.711600	0.416790
H411	H41	0.037800	0.701000	0.460700
C681	C68	0.036800	0.690530	0.347960
H421	H42	0.002000	0.665500	0.344700
C691	C69	0.066500	0.706480	0.284170
H431	H43	0.052200	0.692800	0.236200
C701	C70	0.117280	0.742460	0.290010
H441	H44	0.138300	0.754100	0.246500
C711	C71	0.136580	0.761040	0.361130
C721	C72	0.190040	0.796000	0.377230
C731	C73	0.258060	0.839400	0.443460
C741	C74	0.272950	0.842250	0.368670
C751	C75	0.322180	0.866870	0.330960
C761	C76	0.329260	0.846300	0.264240
H451	H45	0.301900	0.816400	0.243600
C771	C77	0.375810	0.869270	0.228370
H461	H46	0.380100	0.854900	0.183400
C781	C78	0.416340	0.913210	0.257520
C791	C79	0.409340	0.933900	0.323700
H471	H47	0.436700	0.963800	0.344200
C801	C80	0.362920	0.911190	0.359620
H481	H48	0.358700	0.925900	0.404300
C811	C81	0.466050	0.939070	0.216200
C821	C82	0.288100	0.860010	0.512860
C831	C83	0.271520	0.880680	0.568620
H491	H49	0.240800	0.881000	0.561800
C841	C84	0.299640	0.900720	0.633870
H501	H50	0.288200	0.914900	0.671400
C851	C85	0.344380	0.900110	0.644590
C861	C86	0.359960	0.877750	0.590470
H511	H51	0.389700	0.875800	0.598600
C871	C87	0.332230	0.858280	0.524520
H521	H52	0.343500	0.843700	0.487300
C881	C88	0.376560	0.925180	0.712470
Zn51	Zn5	0.813040	0.111540	0.856730
N131	N13	0.774200	0.079720	0.757020
N141	N14	0.872720	0.143910	0.780620
N151	N15	0.895490	0.147650	0.661690
H531	H53	0.893170	0.142730	0.612530
O171	O17	0.167140	0.313200	0.579160
O181	O18	0.137080	0.254020	0.489370
O191	O19	0.039180	0.291760	0.080420
O201	O20	0.075840	0.245850	0.064870
C891	C89	0.725110	0.044930	0.750120
H541	H54	0.704470	0.034330	0.794030
C901	C90	0.703470	0.023860	0.681290
H551	H55	0.668670	0.998830	0.678030
C911	C91	0.733170	0.039810	0.617500
H561	H56	0.718870	0.026130	0.569530
C921	C92	0.783950	0.075790	0.623340
H571	H57	0.804970	0.087430	0.579830
C931	C93	0.803250	0.094370	0.694460
C941	C94	0.856710	0.129330	0.710560
C951	C95	0.924730	0.172730	0.776790
C961	C96	0.939620	0.175580	0.702000
C971	C97	0.988850	0.200200	0.664290
C981	C98	0.995930	0.179630	0.597570
H581	H58	0.968570	0.149730	0.576930
C991	C99	0.042480	0.202600	0.561700
H591	H59	0.046770	0.188230	0.516730
C1001	C100	0.083010	0.246540	0.590850
C1011	C101	0.076010	0.267230	0.657030
H601	H60	0.103370	0.297130	0.677530
C1021	C102	0.029590	0.244520	0.692950
H611	H61	0.025370	0.259230	0.737630
C1031	C103	0.132720	0.272400	0.549530
C1041	C104	0.954770	0.193340	0.846190
C1051	C105	0.938190	0.214010	0.901950
H621	H62	0.907470	0.214330	0.895130
C1061	C106	0.966310	0.234050	0.967200
H631	H63	0.954870	0.248230	0.004730
C1071	C107	0.011050	0.233440	0.977920
C1081	C108	0.026630	0.211080	0.923800
H641	H64	0.056370	0.209130	0.931930
C1091	C109	0.998900	0.191610	0.857850
H651	H65	0.010170	0.177030	0.820630
C1101	C110	0.043230	0.258510	0.045800
Zn61	Zn6	0.479700	0.444880	0.190070
N161	N16	0.440860	0.413060	0.090360
N171	N17	0.539380	0.477250	0.113960
N181	N18	0.562150	0.480990	0.995030
H661	H66	0.559830	0.476070	0.945870
O211	O21	0.833800	0.646540	0.912500
O221	O22	0.803740	0.587360	0.822710
O231	O23	0.705840	0.625100	0.413760
O241	O24	0.742500	0.579190	0.398210
C1111	C111	0.391770	0.378270	0.083460
H671	H67	0.371130	0.367670	0.127370
C1121	C112	0.370130	0.357200	0.014630
H681	H68	0.335330	0.332170	0.011370
C1131	C113	0.399830	0.373150	0.950840
H691	H69	0.385530	0.359470	0.902870
C1141	C114	0.450610	0.409130	0.956680
H701	H70	0.471630	0.420770	0.913170
C1151	C115	0.469910	0.427710	0.027800
C1161	C116	0.523370	0.462670	0.043900
C1171	C117	0.591390	0.506070	0.110130
C1181	C118	0.606280	0.508920	0.035340
C1191	C119	0.655510	0.533540	0.997630
C1201	C120	0.662590	0.512970	0.930910
H711	H71	0.635230	0.483070	0.910270
C1211	C121	0.709140	0.535940	0.895040
H721	H72	0.713430	0.521570	0.850070
C1221	C122	0.749670	0.579880	0.924190
C1231	C123	0.742670	0.600570	0.990370
H731	H73	0.770030	0.630470	0.010870
C1241	C124	0.696250	0.577860	0.026290
H741	H74	0.692030	0.592570	0.070970
C1251	C125	0.799380	0.605740	0.882870
C1261	C126	0.621430	0.526680	0.179530
C1271	C127	0.604850	0.547350	0.235290
H751	H75	0.574130	0.547670	0.228470
C1281	C128	0.632970	0.567390	0.300540
H761	H76	0.621530	0.581570	0.338070
C1291	C129	0.677710	0.566780	0.311260
C1301	C130	0.693290	0.544420	0.257140
H771	H77	0.723030	0.542470	0.265270
C1311	C131	0.665560	0.524950	0.191190
H781	H78	0.676830	0.510370	0.153970
C1321	C132	0.709890	0.591850	0.379140
Zn71	Zn7	0.221790	0.368160	0.523400
N191	N19	0.253610	0.361140	0.423690
N201	N20	0.189420	0.395470	0.447290
N211	N21	0.185680	0.414500	0.328360
H791	H79	0.190600	0.417100	0.279200
O251	O25	0.020130	0.520600	0.245830
O261	O26	0.079310	0.549720	0.156040
O271	O27	0.041570	0.414080	0.747090
O281	O28	0.087480	0.496650	0.731540
C1331	C133	0.288400	0.346840	0.416790
H801	H80	0.299000	0.336800	0.460700
C1341	C134	0.309470	0.346270	0.347960
H811	H81	0.334500	0.336500	0.344700
C1351	C135	0.293520	0.360020	0.284170
H821	H82	0.307200	0.359400	0.236200
C1361	C136	0.257540	0.374820	0.290010
H831	H83	0.245900	0.384200	0.246500
C1371	C137	0.238960	0.375540	0.361130
C1381	C138	0.204000	0.394040	0.377230
C1391	C139	0.160600	0.418660	0.443460
C1401	C140	0.157750	0.430700	0.368670
C1411	C141	0.133130	0.455310	0.330960
C1421	C142	0.153700	0.482960	0.264240
H841	H84	0.183600	0.485500	0.243600
C1431	C143	0.130730	0.506540	0.228370
H851	H85	0.145100	0.525200	0.183400
C1441	C144	0.086790	0.503130	0.257520
C1451	C145	0.066100	0.475440	0.323700
H861	H86	0.036200	0.472900	0.344200
C1461	C146	0.088810	0.451730	0.359620
H871	H87	0.074100	0.432800	0.404300
C1471	C147	0.060930	0.526980	0.216200
C1481	C148	0.139990	0.428090	0.512860
C1491	C149	0.119320	0.390840	0.568620
H881	H88	0.119000	0.359800	0.561800
C1501	C150	0.099280	0.398920	0.633870
H891	H89	0.085100	0.373300	0.671400
C1511	C151	0.099890	0.444270	0.644590
C1521	C152	0.122250	0.482210	0.590470
H901	H90	0.124200	0.513900	0.598600
C1531	C153	0.141720	0.473950	0.524520
H911	H91	0.156300	0.499800	0.487300
C1541	C154	0.074820	0.451380	0.712470
Zn81	Zn8	0.888460	0.701490	0.856730
N221	N22	0.920280	0.694470	0.757020
N231	N23	0.856090	0.728800	0.780620
N241	N24	0.852350	0.747830	0.661690
H921	H92	0.857270	0.750430	0.612530
O291	O29	0.686800	0.853930	0.579160
O301	O30	0.745980	0.883050	0.489370
O311	O31	0.708240	0.747410	0.080420
O321	O32	0.754150	0.829980	0.064870
C1551	C155	0.955070	0.680170	0.750120
H931	H93	0.965670	0.670130	0.794030
C1561	C156	0.976140	0.679600	0.681290
H941	H94	0.001170	0.669830	0.678030
C1571	C157	0.960190	0.693350	0.617500
H951	H95	0.973870	0.692730	0.569530
C1581	C158	0.924210	0.708150	0.623340
H961	H96	0.912570	0.717530	0.579830
C1591	C159	0.905630	0.708870	0.694460
C1601	C160	0.870670	0.727370	0.710560
C1611	C161	0.827270	0.751990	0.776790
C1621	C162	0.824420	0.764030	0.702000
C1631	C163	0.799800	0.788640	0.664290
C1641	C164	0.820370	0.816290	0.597570
H971	H97	0.850270	0.818830	0.576930
C1651	C165	0.797400	0.839870	0.561700
H981	H98	0.811770	0.858530	0.516730
C1661	C166	0.753460	0.836460	0.590850
C1671	C167	0.732770	0.808770	0.657030
H991	H99	0.702870	0.806230	0.677530
C1681	C168	0.755480	0.785060	0.692950
H1001	H100	0.740770	0.766130	0.737630
C1691	C169	0.727600	0.860310	0.549530
C1701	C170	0.806660	0.761420	0.846190
C1711	C171	0.785990	0.724170	0.901950
H1011	H101	0.785670	0.693130	0.895130
C1721	C172	0.765950	0.732250	0.967200
H1021	H102	0.751770	0.706630	0.004730
C1731	C173	0.766560	0.777600	0.977920
C1741	C174	0.788920	0.815540	0.923800
H1031	H103	0.790870	0.847230	0.931930
C1751	C175	0.808390	0.807280	0.857850
H1041	H104	0.822970	0.833130	0.820630
C1761	C176	0.741490	0.784710	0.045800
Zn91	Zn9	0.555120	0.034830	0.190070
N251	N25	0.586940	0.027810	0.090360
N261	N26	0.522750	0.062140	0.113960
N271	N27	0.519010	0.081170	0.995030
H1051	H105	0.523930	0.083770	0.945870
O331	O33	0.353460	0.187270	0.912500
O341	O34	0.412640	0.216390	0.822710
O351	O35	0.374900	0.080750	0.413760
O361	O36	0.420810	0.163320	0.398210
C1771	C177	0.621730	0.013510	0.083460
H1061	H106	0.632330	0.003470	0.127370
C1781	C178	0.642800	0.012940	0.014630
H1071	H107	0.667830	0.003170	0.011370
C1791	C179	0.626850	0.026690	0.950840
H1081	H108	0.640530	0.026070	0.902870
C1801	C180	0.590870	0.041490	0.956680
H1091	H109	0.579230	0.050870	0.913170
C1811	C181	0.572290	0.042210	0.027800
C1821	C182	0.537330	0.060710	0.043900
C1831	C183	0.493930	0.085330	0.110130
C1841	C184	0.491080	0.097370	0.035340
C1851	C185	0.466460	0.121980	0.997630
C1861	C186	0.487030	0.149630	0.930910
H1101	H110	0.516930	0.152170	0.910270
C1871	C187	0.464060	0.173210	0.895040
H1111	H111	0.478430	0.191870	0.850070
C1881	C188	0.420120	0.169800	0.924190
C1891	C189	0.399430	0.142110	0.990370
H1121	H112	0.369530	0.139570	0.010870
C1901	C190	0.422140	0.118400	0.026290
H1131	H113	0.407430	0.099470	0.070970
C1911	C191	0.394260	0.193650	0.882870
C1921	C192	0.473320	0.094760	0.179530
C1931	C193	0.452650	0.057510	0.235290
H1141	H114	0.452330	0.026470	0.228470
C1941	C194	0.432610	0.065590	0.300540
H1151	H115	0.418430	0.039970	0.338070
C1951	C195	0.433220	0.110940	0.311260
C1961	C196	0.455580	0.148880	0.257140
H1161	H116	0.457530	0.180570	0.265270
C1971	C197	0.475050	0.140620	0.191190
H1171	H117	0.489630	0.166470	0.153970
C1981	C198	0.408150	0.118050	0.379140
Zn101	Zn10	0.368160	0.146370	0.476600
N281	N28	0.361140	0.107530	0.576310
N291	N29	0.395470	0.206050	0.552710
N301	N30	0.414500	0.228820	0.671640
H1181	H118	0.417100	0.226500	0.720800
O371	O37	0.520600	0.500470	0.754170
O381	O38	0.549720	0.470410	0.843960
O391	O39	0.414080	0.372510	0.252910
O401	O40	0.496650	0.409170	0.268460
C1991	C199	0.346840	0.058440	0.583210
H1191	H119	0.336800	0.037800	0.539300
C2001	C200	0.346270	0.036800	0.652040
H1201	H120	0.336500	0.002000	0.655300
C2011	C201	0.360020	0.066500	0.715830
H1211	H121	0.359400	0.052200	0.763800
C2021	C202	0.374820	0.117280	0.709990
H1221	H122	0.384200	0.138300	0.753500
C2031	C203	0.375540	0.136580	0.638870
C2041	C204	0.394040	0.190040	0.622770
C2051	C205	0.418660	0.258060	0.556540
C2061	C206	0.430700	0.272950	0.631330
C2071	C207	0.455310	0.322180	0.669040
C2081	C208	0.482960	0.329260	0.735760
H1231	H123	0.485500	0.301900	0.756400
C2091	C209	0.506540	0.375810	0.771630
H1241	H124	0.525200	0.380100	0.816600
C2101	C210	0.503130	0.416340	0.742480
C2111	C211	0.475440	0.409340	0.676300
H1251	H125	0.472900	0.436700	0.655800
C2121	C212	0.451730	0.362920	0.640380
H1261	H126	0.432800	0.358700	0.595700
C2131	C213	0.526980	0.466050	0.783800
C2141	C214	0.428090	0.288100	0.487140
C2151	C215	0.390840	0.271520	0.431380
H1271	H127	0.359800	0.240800	0.438200
C2161	C216	0.398920	0.299640	0.366130
H1281	H128	0.373300	0.288200	0.328600
C2171	C217	0.444270	0.344380	0.355410
C2181	C218	0.482210	0.359960	0.409530
H1291	H129	0.513900	0.389700	0.401400
C2191	C219	0.473950	0.332230	0.475480
H1301	H130	0.499800	0.343500	0.512700
C2201	C220	0.451380	0.376560	0.287530
Zn111	Zn11	0.034830	0.479700	0.809930
N311	N31	0.027810	0.440860	0.909640
N321	N32	0.062140	0.539380	0.886040
N331	N33	0.081170	0.562150	0.004970
H1311	H131	0.083770	0.559830	0.054130
O411	O41	0.187270	0.833800	0.087500
O421	O42	0.216390	0.803740	0.177290
O431	O43	0.080750	0.705840	0.586240
O441	O44	0.163320	0.742500	0.601790
C2211	C221	0.013510	0.391770	0.916540
H1321	H132	0.003470	0.371130	0.872630
C2221	C222	0.012940	0.370130	0.985370
H1331	H133	0.003170	0.335330	0.988630
C2231	C223	0.026690	0.399830	0.049160
H1341	H134	0.026070	0.385530	0.097130
C2241	C224	0.041490	0.450610	0.043320
H1351	H135	0.050870	0.471630	0.086830
C2251	C225	0.042210	0.469910	0.972200
C2261	C226	0.060710	0.523370	0.956100
C2271	C227	0.085330	0.591390	0.889870
C2281	C228	0.097370	0.606280	0.964660
C2291	C229	0.121980	0.655510	0.002370
C2301	C230	0.149630	0.662590	0.069090
H1361	H136	0.152170	0.635230	0.089730
C2311	C231	0.173210	0.709140	0.104960
H1371	H137	0.191870	0.713430	0.149930
C2321	C232	0.169800	0.749670	0.075810
C2331	C233	0.142110	0.742670	0.009630
H1381	H138	0.139570	0.770030	0.989130
C2341	C234	0.118400	0.696250	0.973710
H1391	H139	0.099470	0.692030	0.929030
C2351	C235	0.193650	0.799380	0.117130
C2361	C236	0.094760	0.621430	0.820470
C2371	C237	0.057510	0.604850	0.764710
H1401	H140	0.026470	0.574130	0.771530
C2381	C238	0.065590	0.632970	0.699460
H1411	H141	0.039970	0.621530	0.661930
C2391	C239	0.110940	0.677710	0.688740
C2401	C240	0.148880	0.693290	0.742860
H1421	H142	0.180570	0.723030	0.734730
C2411	C241	0.140620	0.665560	0.808810
H1431	H143	0.166470	0.676830	0.846030
C2421	C242	0.118050	0.709890	0.620860
Zn121	Zn12	0.701490	0.813040	0.143270
N341	N34	0.694470	0.774200	0.242980
N351	N35	0.728800	0.872720	0.219380
N361	N36	0.747830	0.895490	0.338310
H1441	H144	0.750430	0.893170	0.387470
O451	O45	0.853930	0.167140	0.420840
O461	O46	0.883050	0.137080	0.510630
O471	O47	0.747410	0.039180	0.919580
O481	O48	0.829980	0.075840	0.935130
C2431	C243	0.680170	0.725110	0.249880
H1451	H145	0.670130	0.704470	0.205970
C2441	C244	0.679600	0.703470	0.318710
H1461	H146	0.669830	0.668670	0.321970
C2451	C245	0.693350	0.733170	0.382500
H1471	H147	0.692730	0.718870	0.430470
C2461	C246	0.708150	0.783950	0.376660
H1481	H148	0.717530	0.804970	0.420170
C2471	C247	0.708870	0.803250	0.305540
C2481	C248	0.727370	0.856710	0.289440
C2491	C249	0.751990	0.924730	0.223210
C2501	C250	0.764030	0.939620	0.298000
C2511	C251	0.788640	0.988850	0.335710
C2521	C252	0.816290	0.995930	0.402430
H1491	H149	0.818830	0.968570	0.423070
C2531	C253	0.839870	0.042480	0.438300
H1501	H150	0.858530	0.046770	0.483270
C2541	C254	0.836460	0.083010	0.409150
C2551	C255	0.808770	0.076010	0.342970
H1511	H151	0.806230	0.103370	0.322470
C2561	C256	0.785060	0.029590	0.307050
H1521	H152	0.766130	0.025370	0.262370
C2571	C257	0.860310	0.132720	0.450470
C2581	C258	0.761420	0.954770	0.153810
C2591	C259	0.724170	0.938190	0.098050
H1531	H153	0.693130	0.907470	0.104870
C2601	C260	0.732250	0.966310	0.032800
H1541	H154	0.706630	0.954870	0.995270
C2611	C261	0.777600	0.011050	0.022080
C2621	C262	0.815540	0.026630	0.076200
H1551	H155	0.847230	0.056370	0.068070
C2631	C263	0.807280	0.998900	0.142150
H1561	H156	0.833130	0.010170	0.179370
C2641	C264	0.784710	0.043230	0.954200
Zn131	Zn13	0.853630	0.221790	0.476600
N371	N37	0.892470	0.253610	0.576310
N381	N38	0.793950	0.189420	0.552710
N391	N39	0.771180	0.185680	0.671640
H1571	H157	0.773500	0.190600	0.720800
O491	O49	0.499530	0.020130	0.754170
O501	O50	0.529590	0.079310	0.843960
O511	O51	0.627490	0.041570	0.252910
O521	O52	0.590830	0.087480	0.268460
C2651	C265	0.941560	0.288400	0.583210
H1581	H158	0.962200	0.299000	0.539300
C2661	C266	0.963200	0.309470	0.652040
H1591	H159	0.998000	0.334500	0.655300
C2671	C267	0.933500	0.293520	0.715830
H1601	H160	0.947800	0.307200	0.763800
C2681	C268	0.882720	0.257540	0.709990
H1611	H161	0.861700	0.245900	0.753500
C2691	C269	0.863420	0.238960	0.638870
C2701	C270	0.809960	0.204000	0.622770
C2711	C271	0.741940	0.160600	0.556540
C2721	C272	0.727050	0.157750	0.631330
C2731	C273	0.677820	0.133130	0.669040
C2741	C274	0.670740	0.153700	0.735760
H1621	H162	0.698100	0.183600	0.756400
C2751	C275	0.624190	0.130730	0.771630
H1631	H163	0.619900	0.145100	0.816600
C2761	C276	0.583660	0.086790	0.742480
C2771	C277	0.590660	0.066100	0.676300
H1641	H164	0.563300	0.036200	0.655800
C2781	C278	0.637080	0.088810	0.640380
H1651	H165	0.641300	0.074100	0.595700
C2791	C279	0.533950	0.060930	0.783800
C2801	C280	0.711900	0.139990	0.487140
C2811	C281	0.728480	0.119320	0.431380
H1661	H166	0.759200	0.119000	0.438200
C2821	C282	0.700360	0.099280	0.366130
H1671	H167	0.711800	0.085100	0.328600
C2831	C283	0.655620	0.099890	0.355410
C2841	C284	0.640040	0.122250	0.409530
H1681	H168	0.610300	0.124200	0.401400
C2851	C285	0.667770	0.141720	0.475480
H1691	H169	0.656500	0.156300	0.512700
C2861	C286	0.623440	0.074820	0.287530
Zn141	Zn14	0.520300	0.555120	0.809930
N401	N40	0.559140	0.586940	0.909640
N411	N41	0.460620	0.522750	0.886040
N421	N42	0.437850	0.519010	0.004970
H1701	H170	0.440170	0.523930	0.054130
O531	O53	0.166200	0.353460	0.087500
O541	O54	0.196260	0.412640	0.177290
O551	O55	0.294160	0.374900	0.586240
O561	O56	0.257500	0.420810	0.601790
C2871	C287	0.608230	0.621730	0.916540
H1711	H171	0.628870	0.632330	0.872630
C2881	C288	0.629870	0.642800	0.985370
H1721	H172	0.664670	0.667830	0.988630
C2891	C289	0.600170	0.626850	0.049160
H1731	H173	0.614470	0.640530	0.097130
C2901	C290	0.549390	0.590870	0.043320
H1741	H174	0.528370	0.579230	0.086830
C2911	C291	0.530090	0.572290	0.972200
C2921	C292	0.476630	0.537330	0.956100
C2931	C293	0.408610	0.493930	0.889870
C2941	C294	0.393720	0.491080	0.964660
C2951	C295	0.344490	0.466460	0.002370
C2961	C296	0.337410	0.487030	0.069090
H1751	H175	0.364770	0.516930	0.089730
C2971	C297	0.290860	0.464060	0.104960
H1761	H176	0.286570	0.478430	0.149930
C2981	C298	0.250330	0.420120	0.075810
C2991	C299	0.257330	0.399430	0.009630
H1771	H177	0.229970	0.369530	0.989130
C3001	C300	0.303750	0.422140	0.973710
H1781	H178	0.307970	0.407430	0.929030
C3011	C301	0.200620	0.394260	0.117130
C3021	C302	0.378570	0.473320	0.820470
C3031	C303	0.395150	0.452650	0.764710
H1791	H179	0.425870	0.452330	0.771530
C3041	C304	0.367030	0.432610	0.699460
H1801	H180	0.378470	0.418430	0.661930
C3051	C305	0.322290	0.433220	0.688740
C3061	C306	0.306710	0.455580	0.742860
H1811	H181	0.276970	0.457530	0.734730
C3071	C307	0.334440	0.475050	0.808810
H1821	H182	0.323170	0.489630	0.846030
C3081	C308	0.290110	0.408150	0.620860
Zn151	Zn15	0.186960	0.888460	0.143270
N431	N43	0.225800	0.920280	0.242980
N441	N44	0.127280	0.856090	0.219380
N451	N45	0.104510	0.852350	0.338310
H1831	H183	0.106830	0.857270	0.387470
O571	O57	0.832860	0.686800	0.420840
O581	O58	0.862920	0.745980	0.510630
O591	O59	0.960820	0.708240	0.919580
O601	O60	0.924160	0.754150	0.935130
C3091	C309	0.274890	0.955070	0.249880
H1841	H184	0.295530	0.965670	0.205970
C3101	C310	0.296530	0.976140	0.318710
H1851	H185	0.331330	0.001170	0.321970
C3111	C311	0.266830	0.960190	0.382500
H1861	H186	0.281130	0.973870	0.430470
C3121	C312	0.216050	0.924210	0.376660
H1871	H187	0.195030	0.912570	0.420170
C3131	C313	0.196750	0.905630	0.305540
C3141	C314	0.143290	0.870670	0.289440
C3151	C315	0.075270	0.827270	0.223210
C3161	C316	0.060380	0.824420	0.298000
C3171	C317	0.011150	0.799800	0.335710
C3181	C318	0.004070	0.820370	0.402430
H1881	H188	0.031430	0.850270	0.423070
C3191	C319	0.957520	0.797400	0.438300
H1891	H189	0.953230	0.811770	0.483270
C3201	C320	0.916990	0.753460	0.409150
C3211	C321	0.923990	0.732770	0.342970
H1901	H190	0.896630	0.702870	0.322470
C3221	C322	0.970410	0.755480	0.307050
H1911	H191	0.974630	0.740770	0.262370
C3231	C323	0.867280	0.727600	0.450470
C3241	C324	0.045230	0.806660	0.153810
C3251	C325	0.061810	0.785990	0.098050
H1921	H192	0.092530	0.785670	0.104870
C3261	C326	0.033690	0.765950	0.032800
H1931	H193	0.045130	0.751770	0.995270
C3271	C327	0.988950	0.766560	0.022080
C3281	C328	0.973370	0.788920	0.076200
H1941	H194	0.943630	0.790870	0.068070
C3291	C329	0.001100	0.808390	0.142150
H1951	H195	0.989830	0.822970	0.179370
C3301	C330	0.956770	0.741490	0.954200
Zn161	Zn16	0.778210	0.631840	0.476600
N461	N46	0.746390	0.638860	0.576310
N471	N47	0.810580	0.604530	0.552710
N481	N48	0.814320	0.585500	0.671640
H1961	H196	0.809400	0.582900	0.720800
O611	O61	0.979870	0.479400	0.754170
O621	O62	0.920690	0.450280	0.843960
O631	O63	0.958430	0.585920	0.252910
O641	O64	0.912520	0.503350	0.268460
C3311	C331	0.711600	0.653160	0.583210
H1971	H197	0.701000	0.663200	0.539300
C3321	C332	0.690530	0.653730	0.652040
H1981	H198	0.665500	0.663500	0.655300
C3331	C333	0.706480	0.639980	0.715830
H1991	H199	0.692800	0.640600	0.763800
C3341	C334	0.742460	0.625180	0.709990
H2001	H200	0.754100	0.615800	0.753500
C3351	C335	0.761040	0.624460	0.638870
C3361	C336	0.796000	0.605960	0.622770
C3371	C337	0.839400	0.581340	0.556540
C3381	C338	0.842250	0.569300	0.631330
C3391	C339	0.866870	0.544690	0.669040
C3401	C340	0.846300	0.517040	0.735760
H2011	H201	0.816400	0.514500	0.756400
C3411	C341	0.869270	0.493460	0.771630
H2021	H202	0.854900	0.474800	0.816600
C3421	C342	0.913210	0.496870	0.742480
C3431	C343	0.933900	0.524560	0.676300
H2031	H203	0.963800	0.527100	0.655800
C3441	C344	0.911190	0.548270	0.640380
H2041	H204	0.925900	0.567200	0.595700
C3451	C345	0.939070	0.473020	0.783800
C3461	C346	0.860010	0.571910	0.487140
C3471	C347	0.880680	0.609160	0.431380
H2051	H205	0.881000	0.640200	0.438200
C3481	C348	0.900720	0.601080	0.366130
H2061	H206	0.914900	0.626700	0.328600
C3491	C349	0.900110	0.555730	0.355410
C3501	C350	0.877750	0.517790	0.409530
H2071	H207	0.875800	0.486100	0.401400
C3511	C351	0.858280	0.526050	0.475480
H2081	H208	0.843700	0.500200	0.512700
C3521	C352	0.925180	0.548620	0.287530
Zn171	Zn17	0.444880	0.965170	0.809930
N491	N49	0.413060	0.972190	0.909640
N501	N50	0.477250	0.937860	0.886040
N511	N51	0.480990	0.918830	0.004970
H2091	H209	0.476070	0.916230	0.054130
O651	O65	0.646540	0.812730	0.087500
O661	O66	0.587360	0.783610	0.177290
O671	O67	0.625100	0.919250	0.586240
O681	O68	0.579190	0.836680	0.601790
C3531	C353	0.378270	0.986490	0.916540
H2101	H210	0.367670	0.996530	0.872630
C3541	C354	0.357200	0.987060	0.985370
H2111	H211	0.332170	0.996830	0.988630
C3551	C355	0.373150	0.973310	0.049160
H2121	H212	0.359470	0.973930	0.097130
C3561	C356	0.409130	0.958510	0.043320
H2131	H213	0.420770	0.949130	0.086830
C3571	C357	0.427710	0.957790	0.972200
C3581	C358	0.462670	0.939290	0.956100
C3591	C359	0.506070	0.914670	0.889870
C3601	C360	0.508920	0.902630	0.964660
C3611	C361	0.533540	0.878020	0.002370
C3621	C362	0.512970	0.850370	0.069090
H2141	H214	0.483070	0.847830	0.089730
C3631	C363	0.535940	0.826790	0.104960
H2151	H215	0.521570	0.808130	0.149930
C3641	C364	0.579880	0.830200	0.075810
C3651	C365	0.600570	0.857890	0.009630
H2161	H216	0.630470	0.860430	0.989130
C3661	C366	0.577860	0.881600	0.973710
H2171	H217	0.592570	0.900530	0.929030
C3671	C367	0.605740	0.806350	0.117130
C3681	C368	0.526680	0.905240	0.820470
C3691	C369	0.547350	0.942490	0.764710
H2181	H218	0.547670	0.973530	0.771530
C3701	C370	0.567390	0.934410	0.699460
H2191	H219	0.581570	0.960030	0.661930
C3711	C371	0.566780	0.889060	0.688740
C3721	C372	0.544420	0.851120	0.742860
H2201	H220	0.542470	0.819430	0.734730
C3731	C373	0.524950	0.859380	0.808810
H2211	H221	0.510370	0.833530	0.846030
C3741	C374	0.591850	0.881950	0.620860
Zn181	Zn18	0.111540	0.298510	0.143270
N521	N52	0.079720	0.305530	0.242980
N531	N53	0.143910	0.271200	0.219380
N541	N54	0.147650	0.252170	0.338310
H2221	H222	0.142730	0.249570	0.387470
O691	O69	0.313200	0.146070	0.420840
O701	O70	0.254020	0.116950	0.510630
O711	O71	0.291760	0.252590	0.919580
O721	O72	0.245850	0.170020	0.935130
C3751	C375	0.044930	0.319830	0.249880
H2231	H223	0.034330	0.329870	0.205970
C3761	C376	0.023860	0.320400	0.318710
H2241	H224	0.998830	0.330170	0.321970
C3771	C377	0.039810	0.306650	0.382500
H2251	H225	0.026130	0.307270	0.430470
C3781	C378	0.075790	0.291850	0.376660
H2261	H226	0.087430	0.282470	0.420170
C3791	C379	0.094370	0.291130	0.305540
C3801	C380	0.129330	0.272630	0.289440
C3811	C381	0.172730	0.248010	0.223210
C3821	C382	0.175580	0.235970	0.298000
C3831	C383	0.200200	0.211360	0.335710
C3841	C384	0.179630	0.183710	0.402430
H2271	H227	0.149730	0.181170	0.423070
C3851	C385	0.202600	0.160130	0.438300
H2281	H228	0.188230	0.141470	0.483270
C3861	C386	0.246540	0.163540	0.409150
C3871	C387	0.267230	0.191230	0.342970
H2291	H229	0.297130	0.193770	0.322470
C3881	C388	0.244520	0.214940	0.307050
H2301	H230	0.259230	0.233870	0.262370
C3891	C389	0.272400	0.139690	0.450470
C3901	C390	0.193340	0.238580	0.153810
C3911	C391	0.214010	0.275830	0.098050
H2311	H231	0.214330	0.306870	0.104870
C3921	C392	0.234050	0.267750	0.032800
H2321	H232	0.248230	0.293370	0.995270
C3931	C393	0.233440	0.222400	0.022080
C3941	C394	0.211080	0.184460	0.076200
H2331	H233	0.209130	0.152770	0.068070
C3951	C395	0.191610	0.192720	0.142150
H2341	H234	0.177030	0.166870	0.179370
C3961	C396	0.258510	0.215290	0.954200
