data_OBEDEE_clean_PM
_symmetry_space_group_name_H-M	'P1'
_cell_length_a	10.230000
_cell_length_b	11.839000
_cell_length_c	26.071000
_cell_angle_alpha	90.000000
_cell_angle_beta	90.589000
_cell_angle_gamma	90.000000
_symmetry_Int_Tables_number 1

loop_
_symmetry_equiv_pos_as_xyz
'x,y,z'

loop_
_atom_site_label
_atom_site_type_symbol
_atom_site_fract_x
_atom_site_fract_y
_atom_site_fract_z
Ag11	Ag1	0.841410	0.969580	0.955220
Ag21	Ag2	0.341410	0.530420	0.455220
H11	H1	0.556400	0.222000	0.317500
H21	H2	0.810300	0.954600	0.331100
H31	H3	0.735200	0.793800	0.371300
H41	H4	0.367800	0.894300	0.344600
H51	H5	0.441100	0.053900	0.304100
H61	H6	0.860000	0.271400	0.251100
H71	H7	0.019100	0.379700	0.289500
H81	H8	0.933000	0.236100	0.425400
H91	H9	0.771700	0.129700	0.385200
H101	H10	0.536000	0.168400	0.204000
H111	H11	0.565500	0.113400	0.120300
H121	H12	0.906300	0.967400	0.158900
H131	H13	0.876700	0.025100	0.243600
H141	H14	0.056400	0.278000	0.817500
H151	H15	0.310300	0.545400	0.831100
H161	H16	0.235200	0.706200	0.871300
H171	H17	0.867800	0.605700	0.844600
H181	H18	0.941100	0.446100	0.804100
H191	H19	0.360000	0.228600	0.751100
H201	H20	0.519100	0.120300	0.789500
H211	H21	0.433000	0.263900	0.925400
H221	H22	0.271700	0.370300	0.885200
H231	H23	0.036000	0.331600	0.704000
H241	H24	0.065500	0.386600	0.620300
H251	H25	0.406300	0.532600	0.658900
H261	H26	0.376700	0.474900	0.743600
C11	C1	0.681400	0.133200	0.289100
C21	C2	0.635600	0.026900	0.314200
C31	C3	0.720700	0.943800	0.334100
C41	C4	0.676200	0.846300	0.358100
C51	C5	0.542700	0.828600	0.361900
C61	C6	0.457300	0.906600	0.341900
C71	C7	0.501400	0.003400	0.318000
C81	C8	0.489400	0.732600	0.387900
C91	C9	0.801000	0.190300	0.314300
C101	C10	0.874900	0.265000	0.286200
C111	C11	0.969900	0.330000	0.309000
C121	C12	0.992800	0.320800	0.362900
C131	C13	0.918300	0.244400	0.390300
C141	C14	0.821800	0.179800	0.366200
C151	C15	0.088100	0.389800	0.388700
C161	C16	0.705100	0.102700	0.232400
C171	C17	0.610700	0.128500	0.195000
C181	C18	0.627900	0.095200	0.145200
C191	C19	0.737400	0.034800	0.131800
C201	C20	0.832100	0.007800	0.168000
C211	C21	0.814000	0.042800	0.218800
C221	C22	0.756300	0.000200	0.078700
C231	C23	0.181400	0.366800	0.789100
C241	C24	0.135600	0.473100	0.814200
C251	C25	0.220700	0.556200	0.834100
C261	C26	0.176200	0.653700	0.858100
C271	C27	0.042700	0.671400	0.861900
C281	C28	0.957300	0.593400	0.841900
C291	C29	0.001400	0.496600	0.818000
C301	C30	0.989400	0.767400	0.887900
C311	C31	0.301000	0.309700	0.814300
C321	C32	0.374900	0.235000	0.786200
C331	C33	0.469900	0.170000	0.809000
C341	C34	0.492800	0.179200	0.862900
C351	C35	0.418300	0.255600	0.890300
C361	C36	0.321800	0.320200	0.866200
C371	C37	0.588100	0.110200	0.888700
C381	C38	0.205100	0.397300	0.732400
C391	C39	0.110700	0.371500	0.695000
C401	C40	0.127900	0.404800	0.645200
C411	C41	0.237400	0.465200	0.631800
C421	C42	0.332100	0.492200	0.668000
C431	C43	0.314000	0.457200	0.718800
C441	C44	0.256300	0.499800	0.578700
N11	N1	0.772300	0.974800	0.036790
N21	N2	0.156100	0.454200	0.407700
N31	N3	0.446100	0.656800	0.409000
N41	N4	0.272300	0.525200	0.536790
N51	N5	0.656100	0.045800	0.907700
N61	N6	0.946100	0.843200	0.909000
O11	O1	0.578700	0.215200	0.287800
O21	O2	0.078700	0.284800	0.787800
Ag31	Ag3	0.658590	0.469580	0.544780
Ag41	Ag4	0.158590	0.030420	0.044780
H271	H27	0.943600	0.722000	0.182500
H281	H28	0.689700	0.454600	0.168900
H291	H29	0.764800	0.293800	0.128700
H301	H30	0.132200	0.394300	0.155400
H311	H31	0.058900	0.553900	0.195900
H321	H32	0.640000	0.771400	0.248900
H331	H33	0.480900	0.879700	0.210500
H341	H34	0.567000	0.736100	0.074600
H351	H35	0.728300	0.629700	0.114800
H361	H36	0.964000	0.668400	0.296000
H371	H37	0.934500	0.613400	0.379700
H381	H38	0.593700	0.467400	0.341100
H391	H39	0.623300	0.525100	0.256400
H401	H40	0.443600	0.778000	0.682500
H411	H41	0.189700	0.045400	0.668900
H421	H42	0.264800	0.206200	0.628700
H431	H43	0.632200	0.105700	0.655400
H441	H44	0.558900	0.946100	0.695900
H451	H45	0.140000	0.728600	0.748900
H461	H46	0.980900	0.620300	0.710500
H471	H47	0.067000	0.763900	0.574600
H481	H48	0.228300	0.870300	0.614800
H491	H49	0.464000	0.831600	0.796000
H501	H50	0.434500	0.886600	0.879700
H511	H51	0.093700	0.032600	0.841100
H521	H52	0.123300	0.974900	0.756400
C451	C45	0.818600	0.633200	0.210900
C461	C46	0.864400	0.526900	0.185800
C471	C47	0.779300	0.443800	0.165900
C481	C48	0.823800	0.346300	0.141900
C491	C49	0.957300	0.328600	0.138100
C501	C50	0.042700	0.406600	0.158100
C511	C51	0.998600	0.503400	0.182000
C521	C52	0.010600	0.232600	0.112100
C531	C53	0.699000	0.690300	0.185700
C541	C54	0.625100	0.765000	0.213800
C551	C55	0.530100	0.830000	0.191000
C561	C56	0.507200	0.820800	0.137100
C571	C57	0.581700	0.744400	0.109700
C581	C58	0.678200	0.679800	0.133800
C591	C59	0.411900	0.889800	0.111300
C601	C60	0.794900	0.602700	0.267600
C611	C61	0.889300	0.628500	0.305000
C621	C62	0.872100	0.595200	0.354800
C631	C63	0.762600	0.534800	0.368200
C641	C64	0.667900	0.507800	0.332000
C651	C65	0.686000	0.542800	0.281200
C661	C66	0.743700	0.500200	0.421300
C671	C67	0.318600	0.866800	0.710900
C681	C68	0.364400	0.973100	0.685800
C691	C69	0.279300	0.056200	0.665900
C701	C70	0.323800	0.153700	0.641900
C711	C71	0.457300	0.171400	0.638100
C721	C72	0.542700	0.093400	0.658100
C731	C73	0.498600	0.996600	0.682000
C741	C74	0.510600	0.267400	0.612100
C751	C75	0.199000	0.809700	0.685700
C761	C76	0.125100	0.735000	0.713800
C771	C77	0.030100	0.670000	0.691000
C781	C78	0.007200	0.679200	0.637100
C791	C79	0.081700	0.755600	0.609700
C801	C80	0.178200	0.820200	0.633800
C811	C81	0.911900	0.610200	0.611300
C821	C82	0.294900	0.897300	0.767600
C831	C83	0.389300	0.871500	0.805000
C841	C84	0.372100	0.904800	0.854800
C851	C85	0.262600	0.965200	0.868200
C861	C86	0.167900	0.992200	0.832000
C871	C87	0.186000	0.957200	0.781200
C881	C88	0.243700	0.999800	0.921300
N71	N7	0.727700	0.474800	0.463210
N81	N8	0.343900	0.954200	0.092300
N91	N9	0.053900	0.156800	0.091000
N101	N10	0.227700	0.025200	0.963210
N111	N11	0.843900	0.545800	0.592300
N121	N12	0.553900	0.343200	0.591000
O31	O3	0.921300	0.715200	0.212200
O41	O4	0.421300	0.784800	0.712200
