data_OBEPER_clean_PM
_symmetry_space_group_name_H-M	'P1'
_cell_length_a	9.689000
_cell_length_b	11.211000
_cell_length_c	12.851000
_cell_angle_alpha	90.000000
_cell_angle_beta	90.000000
_cell_angle_gamma	111.726000
_symmetry_Int_Tables_number 1

loop_
_symmetry_equiv_pos_as_xyz
'x,y,z'

loop_
_atom_site_label
_atom_site_type_symbol
_atom_site_fract_x
_atom_site_fract_y
_atom_site_fract_z
Tm11	Tm1	0.144700	0.357700	0.347580
Tm21	Tm2	0.355300	0.642300	0.847580
Tm31	Tm3	0.855300	0.642300	0.652420
Tm41	Tm4	0.644700	0.357700	0.152420
H11	H1	0.847600	0.999000	0.423600
H21	H2	0.515800	0.950700	0.686200
H31	H3	0.560600	0.262100	0.513500
H41	H4	0.652400	0.001000	0.923600
H51	H5	0.984200	0.049300	0.186200
H61	H6	0.939400	0.737900	0.013500
H71	H7	0.152400	0.001000	0.576400
H81	H8	0.484200	0.049300	0.313800
H91	H9	0.439400	0.737900	0.486500
H101	H10	0.347600	0.999000	0.076400
H111	H11	0.015800	0.950700	0.813800
H121	H12	0.060600	0.262100	0.986500
C11	C1	0.344800	0.144000	0.535600
C21	C2	0.255200	0.028800	0.582400
C31	C3	0.318400	0.955500	0.637800
C41	C4	0.472000	0.997900	0.648200
C51	C5	0.557100	0.110600	0.601400
C61	C6	0.499000	0.186100	0.544600
C71	C7	0.275900	0.222100	0.475700
C81	C8	0.222800	0.831200	0.687900
C91	C9	0.949800	0.505600	0.454600
C101	C10	0.155200	0.856000	0.035600
C111	C11	0.244800	0.971200	0.082400
C121	C12	0.181600	0.044500	0.137800
C131	C13	0.028000	0.002100	0.148200
C141	C14	0.942900	0.889400	0.101400
C151	C15	0.001000	0.813900	0.044600
C161	C16	0.224100	0.777900	0.975700
C171	C17	0.277200	0.168800	0.187900
C181	C18	0.550200	0.494400	0.954600
C191	C19	0.655200	0.856000	0.464400
C201	C20	0.744800	0.971200	0.417600
C211	C21	0.681600	0.044500	0.362200
C221	C22	0.528000	0.002100	0.351800
C231	C23	0.442900	0.889400	0.398600
C241	C24	0.501000	0.813900	0.455400
C251	C25	0.724100	0.777900	0.524300
C261	C26	0.777200	0.168800	0.312100
C271	C27	0.050200	0.494400	0.545400
C281	C28	0.844800	0.144000	0.964400
C291	C29	0.755200	0.028800	0.917600
C301	C30	0.818400	0.955500	0.862200
C311	C31	0.972000	0.997900	0.851800
C321	C32	0.057100	0.110600	0.898600
C331	C33	0.999000	0.186100	0.955400
C341	C34	0.775900	0.222100	0.024300
C351	C35	0.722800	0.831200	0.812100
C361	C36	0.449800	0.505600	0.045400
N11	N1	0.721100	0.155800	0.611100
N21	N2	0.778900	0.844200	0.111100
N31	N3	0.278900	0.844200	0.388900
N41	N4	0.221100	0.155800	0.888900
O11	O1	0.360200	0.328200	0.435300
O21	O2	0.138100	0.185200	0.467700
O31	O3	0.914100	0.199500	0.315900
O41	O4	0.287400	0.766700	0.731400
O51	O5	0.772400	0.090200	0.662000
O61	O6	0.795400	0.253000	0.566900
O71	O7	0.854000	0.551700	0.476200
O81	O8	0.974300	0.468300	0.368100
O91	O9	0.139800	0.671800	0.935300
O101	O10	0.361900	0.814800	0.967700
O111	O11	0.585900	0.800500	0.815900
O121	O12	0.212600	0.233300	0.231400
O131	O13	0.727600	0.909800	0.162000
O141	O14	0.704600	0.747000	0.066900
O151	O15	0.646000	0.448300	0.976200
O161	O16	0.525700	0.531700	0.868100
O171	O17	0.639800	0.671800	0.564700
O181	O18	0.861900	0.814800	0.532300
O191	O19	0.085900	0.800500	0.684100
O201	O20	0.712600	0.233300	0.268600
O211	O21	0.227600	0.909800	0.338000
O221	O22	0.204600	0.747000	0.433100
O231	O23	0.146000	0.448300	0.523800
O241	O24	0.025700	0.531700	0.631900
O251	O25	0.860200	0.328200	0.064700
O261	O26	0.638100	0.185200	0.032300
O271	O27	0.414100	0.199500	0.184100
O281	O28	0.787400	0.766700	0.768600
O291	O29	0.272400	0.090200	0.838000
O301	O30	0.295400	0.253000	0.933100
O311	O31	0.354000	0.551700	0.023800
O321	O32	0.474300	0.468300	0.131900
