data_OBODEQ_clean_PM
_symmetry_space_group_name_H-M	'P1'
_cell_length_a	10.380000
_cell_length_b	10.752000
_cell_length_c	16.025000
_cell_angle_alpha	90.000000
_cell_angle_beta	106.419000
_cell_angle_gamma	90.000000
_symmetry_Int_Tables_number 1

loop_
_symmetry_equiv_pos_as_xyz
'x,y,z'

loop_
_atom_site_label
_atom_site_type_symbol
_atom_site_fract_x
_atom_site_fract_y
_atom_site_fract_z
Nd11	Nd1	0.634460	0.870690	0.972270
Nd21	Nd2	0.865540	0.370690	0.527730
Nd31	Nd3	0.365540	0.129310	0.027730
Nd41	Nd4	0.134460	0.629310	0.472270
H11	H1	0.091600	0.901300	0.928100
H21	H2	0.222800	0.726500	0.746000
H31	H3	0.842100	0.687700	0.750600
H41	H4	0.408400	0.401300	0.571900
H51	H5	0.277200	0.226500	0.754000
H61	H6	0.657900	0.187700	0.749400
H71	H7	0.908400	0.098700	0.071900
H81	H8	0.777200	0.273500	0.254000
H91	H9	0.157900	0.312300	0.249400
H101	H10	0.591600	0.598700	0.428100
H111	H11	0.722800	0.773500	0.246000
H121	H12	0.342100	0.812300	0.250600
C11	C1	0.833800	0.836100	0.880900
C21	C2	0.948600	0.801700	0.843800
C31	C3	0.076000	0.848300	0.880500
C41	C4	0.182100	0.816300	0.846500
C51	C5	0.154500	0.744000	0.771400
C61	C6	0.026200	0.697600	0.733900
C71	C7	0.926300	0.723600	0.772800
C81	C8	0.323600	0.856400	0.891000
C91	C9	0.995700	0.627800	0.648300
C101	C10	0.666200	0.336100	0.619100
C111	C11	0.551400	0.301700	0.656200
C121	C12	0.424000	0.348300	0.619500
C131	C13	0.317900	0.316300	0.653500
C141	C14	0.345500	0.244000	0.728600
C151	C15	0.473800	0.197600	0.766100
C161	C16	0.573700	0.223600	0.727200
C171	C17	0.176400	0.356400	0.609000
C181	C18	0.504300	0.127800	0.851700
C191	C19	0.166200	0.163900	0.119100
C201	C20	0.051400	0.198300	0.156200
C211	C21	0.924000	0.151700	0.119500
C221	C22	0.817900	0.183700	0.153500
C231	C23	0.845500	0.256000	0.228600
C241	C24	0.973800	0.302400	0.266100
C251	C25	0.073700	0.276400	0.227200
C261	C26	0.676400	0.143600	0.109000
C271	C27	0.004300	0.372200	0.351700
C281	C28	0.333800	0.663900	0.380900
C291	C29	0.448600	0.698300	0.343800
C301	C30	0.576000	0.651700	0.380500
C311	C31	0.682100	0.683700	0.346500
C321	C32	0.654500	0.756000	0.271400
C331	C33	0.526200	0.802400	0.233900
C341	C34	0.426300	0.776400	0.272800
C351	C35	0.823600	0.643600	0.391000
C361	C36	0.495700	0.872200	0.148300
O11	O1	0.855400	0.912400	0.942900
O21	O2	0.721600	0.786100	0.849200
O31	O3	0.343000	0.941400	0.946800
O41	O4	0.417800	0.801900	0.872100
O51	O5	0.919900	0.535000	0.638100
O61	O6	0.047200	0.672900	0.593000
O71	O7	0.644600	0.412400	0.557100
O81	O8	0.778400	0.286100	0.650800
O91	O9	0.157000	0.441400	0.553200
O101	O10	0.082200	0.301900	0.627900
O111	O11	0.580100	0.035000	0.861900
O121	O12	0.452800	0.172900	0.907000
O131	O13	0.144600	0.087600	0.057100
O141	O14	0.278400	0.213900	0.150800
O151	O15	0.657000	0.058600	0.053200
O161	O16	0.582200	0.198100	0.127900
O171	O17	0.080100	0.465000	0.361900
O181	O18	0.952800	0.327100	0.407000
O191	O19	0.355400	0.587600	0.442900
O201	O20	0.221600	0.713900	0.349200
O211	O21	0.843000	0.558600	0.446800
O221	O22	0.917800	0.698100	0.372100
O231	O23	0.419900	0.965000	0.138100
O241	O24	0.547200	0.827100	0.093000
