data_OBOGUK_clean_PM
_symmetry_space_group_name_H-M	'P1'
_cell_length_a	16.407100
_cell_length_b	11.807500
_cell_length_c	15.283200
_cell_angle_alpha	90.000000
_cell_angle_beta	90.000000
_cell_angle_gamma	90.000000
_symmetry_Int_Tables_number 1

loop_
_symmetry_equiv_pos_as_xyz
'x,y,z'

loop_
_atom_site_label
_atom_site_type_symbol
_atom_site_fract_x
_atom_site_fract_y
_atom_site_fract_z
Zn11	Zn1	0.099640	0.597550	0.170980
O11	O1	0.085800	0.343500	0.208000
O21	O2	0.148400	0.496400	0.256500
O31	O3	0.309600	0.480200	0.526700
O41	O4	0.325100	0.321500	0.593700
O51	O5	0.145400	0.047400	0.438700
O61	O6	0.065900	0.722500	0.250300
C11	C1	0.160300	0.330700	0.336800
C21	C2	0.213100	0.381100	0.400300
H11	H1	0.227700	0.456700	0.394000
C31	C3	0.242600	0.321200	0.470000
C41	C4	0.216300	0.208500	0.481400
H21	H2	0.234200	0.167800	0.529800
C51	C5	0.165700	0.158700	0.423400
C61	C6	0.138900	0.217000	0.349500
H31	H3	0.106600	0.180200	0.308300
C71	C7	0.129400	0.396300	0.263700
C81	C8	0.298100	0.377000	0.533300
C91	C9	0.071000	0.006900	0.410600
C101	C10	0.073100	0.911700	0.355900
H41	H4	0.122500	0.881300	0.337400
Zn21	Zn2	0.400360	0.402450	0.670980
O71	O7	0.414200	0.656500	0.708000
O81	O8	0.351600	0.503600	0.756500
O91	O9	0.190400	0.519800	0.026700
O101	O10	0.174900	0.678500	0.093700
O111	O11	0.354600	0.952600	0.938700
O121	O12	0.434100	0.277500	0.750300
C111	C11	0.339700	0.669300	0.836800
C121	C12	0.286900	0.618900	0.900300
H51	H5	0.272300	0.543300	0.894000
C131	C13	0.257400	0.678800	0.970000
C141	C14	0.283700	0.791500	0.981400
H61	H6	0.265800	0.832200	0.029800
C151	C15	0.334300	0.841300	0.923400
C161	C16	0.361100	0.783000	0.849500
H71	H7	0.393400	0.819800	0.808300
C171	C17	0.370600	0.603700	0.763700
C181	C18	0.201900	0.623000	0.033300
C191	C19	0.429000	0.993100	0.910600
C201	C20	0.426900	0.088300	0.855900
H81	H8	0.377500	0.118700	0.837400
Zn31	Zn3	0.599640	0.402450	0.670980
O131	O13	0.585800	0.656500	0.708000
O141	O14	0.648400	0.503600	0.756500
O151	O15	0.809600	0.519800	0.026700
O161	O16	0.825100	0.678500	0.093700
O171	O17	0.645400	0.952600	0.938700
O181	O18	0.565900	0.277500	0.750300
C211	C21	0.660300	0.669300	0.836800
C221	C22	0.713100	0.618900	0.900300
H91	H9	0.727700	0.543300	0.894000
C231	C23	0.742600	0.678800	0.970000
C241	C24	0.716300	0.791500	0.981400
H101	H10	0.734200	0.832200	0.029800
C251	C25	0.665700	0.841300	0.923400
C261	C26	0.638900	0.783000	0.849500
H111	H11	0.606600	0.819800	0.808300
C271	C27	0.629400	0.603700	0.763700
C281	C28	0.798100	0.623000	0.033300
C291	C29	0.571000	0.993100	0.910600
C301	C30	0.573100	0.088300	0.855900
H121	H12	0.622500	0.118700	0.837400
Zn41	Zn4	0.900360	0.597550	0.170980
O191	O19	0.914200	0.343500	0.208000
O201	O20	0.851600	0.496400	0.256500
O211	O21	0.690400	0.480200	0.526700
O221	O22	0.674900	0.321500	0.593700
O231	O23	0.854600	0.047400	0.438700
O241	O24	0.934100	0.722500	0.250300
C311	C31	0.839700	0.330700	0.336800
C321	C32	0.786900	0.381100	0.400300
H131	H13	0.772300	0.456700	0.394000
C331	C33	0.757400	0.321200	0.470000
C341	C34	0.783700	0.208500	0.481400
H141	H14	0.765800	0.167800	0.529800
C351	C35	0.834300	0.158700	0.423400
C361	C36	0.861100	0.217000	0.349500
H151	H15	0.893400	0.180200	0.308300
C371	C37	0.870600	0.396300	0.263700
C381	C38	0.701900	0.377000	0.533300
C391	C39	0.929000	0.006900	0.410600
C401	C40	0.926900	0.911700	0.355900
H161	H16	0.877500	0.881300	0.337400
Zn51	Zn5	0.000000	0.350770	0.118280
O251	O25	0.000000	0.536300	0.114000
H171	H17	0.000000	0.560200	0.052500
C411	C41	0.000000	0.052700	0.436500
H181	H18	0.000000	0.116300	0.472500
C421	C42	0.000000	0.864300	0.330300
C431	C43	0.000000	0.758400	0.272300
Zn61	Zn6	0.500000	0.649230	0.618280
O261	O26	0.500000	0.463700	0.614000
H191	H19	0.500000	0.439800	0.552500
C441	C44	0.500000	0.947300	0.936500
H201	H20	0.500000	0.883700	0.972500
C451	C45	0.500000	0.135700	0.830300
C461	C46	0.500000	0.241600	0.772300
