data_OCUMIL_clean_PM
_symmetry_space_group_name_H-M	'P1'
_cell_length_a	25.560000
_cell_length_b	17.280000
_cell_length_c	13.187000
_cell_angle_alpha	90.000000
_cell_angle_beta	107.198000
_cell_angle_gamma	90.000000
_symmetry_Int_Tables_number 1

loop_
_symmetry_equiv_pos_as_xyz
'x,y,z'

loop_
_atom_site_label
_atom_site_type_symbol
_atom_site_fract_x
_atom_site_fract_y
_atom_site_fract_z
C11	C1	0.516740	0.781000	0.066900
C21	C2	0.473380	0.831500	0.035000
H11	H1	0.440900	0.816200	0.985300
C31	C3	0.478590	0.905000	0.077500
C41	C4	0.527400	0.926200	0.151600
H21	H2	0.531000	0.975600	0.180900
C51	C5	0.570880	0.874800	0.182600
C61	C6	0.566170	0.800600	0.141000
C71	C7	0.616110	0.750500	0.163700
C81	C8	0.649190	0.759400	0.098200
C91	C9	0.696640	0.716100	0.114900
H31	H3	0.718000	0.721800	0.069300
C101	C10	0.712480	0.664900	0.198100
C111	C11	0.680510	0.656500	0.264300
H41	H4	0.691100	0.622600	0.321400
C121	C12	0.632650	0.698300	0.246500
C131	C13	0.431090	0.959600	0.048600
C141	C14	0.622600	0.900800	0.265600
C151	C15	0.633420	0.814200	0.005500
C161	C16	0.765020	0.619400	0.217900
Mn11	Mn1	0.360590	0.068500	0.140810
Mn21	Mn2	0.321900	0.014640	0.879280
N11	N1	0.507930	0.703300	0.022100
N21	N2	0.598770	0.685500	0.315000
O11	O1	0.532790	0.650200	0.073300
O21	O2	0.475290	0.695500	0.935100
O31	O3	0.397070	0.951590	0.957900
O41	O4	0.428080	0.007550	0.116300
O51	O5	0.642430	0.965940	0.247400
O61	O6	0.641240	0.862440	0.345100
O71	O7	0.650870	0.882320	0.019400
O81	O8	0.605210	0.789500	0.919800
O91	O9	0.788730	0.622970	0.148500
O101	O10	0.780330	0.583200	0.302600
O111	O11	0.558090	0.718500	0.305500
O121	O12	0.615400	0.642400	0.387800
C171	C17	0.016740	0.281000	0.066900
C181	C18	0.973380	0.331500	0.035000
H51	H5	0.940900	0.316200	0.985300
C191	C19	0.978590	0.405000	0.077500
C201	C20	0.027400	0.426200	0.151600
H61	H6	0.031000	0.475600	0.180900
C211	C21	0.070880	0.374800	0.182600
C221	C22	0.066170	0.300600	0.141000
C231	C23	0.116110	0.250500	0.163700
C241	C24	0.149190	0.259400	0.098200
C251	C25	0.196640	0.216100	0.114900
H71	H7	0.218000	0.221800	0.069300
C261	C26	0.212480	0.164900	0.198100
C271	C27	0.180510	0.156500	0.264300
H81	H8	0.191100	0.122600	0.321400
C281	C28	0.132650	0.198300	0.246500
C291	C29	0.931090	0.459600	0.048600
C301	C30	0.122600	0.400800	0.265600
C311	C31	0.133420	0.314200	0.005500
C321	C32	0.265020	0.119400	0.217900
Mn31	Mn3	0.860590	0.568500	0.140810
Mn41	Mn4	0.821900	0.514640	0.879280
N31	N3	0.007930	0.203300	0.022100
N41	N4	0.098770	0.185500	0.315000
O131	O13	0.032790	0.150200	0.073300
O141	O14	0.975290	0.195500	0.935100
O151	O15	0.897070	0.451590	0.957900
O161	O16	0.928080	0.507550	0.116300
O171	O17	0.142430	0.465940	0.247400
O181	O18	0.141240	0.362440	0.345100
O191	O19	0.150870	0.382320	0.019400
O201	O20	0.105210	0.289500	0.919800
O211	O21	0.288730	0.122970	0.148500
O221	O22	0.280330	0.083200	0.302600
O231	O23	0.058090	0.218500	0.305500
O241	O24	0.115400	0.142400	0.387800
C331	C33	0.483260	0.781000	0.433100
C341	C34	0.526620	0.831500	0.465000
H91	H9	0.559100	0.816200	0.514700
C351	C35	0.521410	0.905000	0.422500
C361	C36	0.472600	0.926200	0.348400
H101	H10	0.469000	0.975600	0.319100
C371	C37	0.429120	0.874800	0.317400
C381	C38	0.433830	0.800600	0.359000
C391	C39	0.383890	0.750500	0.336300
C401	C40	0.350810	0.759400	0.401800
C411	C41	0.303360	0.716100	0.385100
H111	H11	0.282000	0.721800	0.430700
C421	C42	0.287520	0.664900	0.301900
C431	C43	0.319490	0.656500	0.235700
H121	H12	0.308900	0.622600	0.178600
C441	C44	0.367350	0.698300	0.253500
C451	C45	0.568910	0.959600	0.451400
C461	C46	0.377400	0.900800	0.234400
C471	C47	0.366580	0.814200	0.494500
C481	C48	0.234980	0.619400	0.282100
Mn51	Mn5	0.639410	0.068500	0.359190
Mn61	Mn6	0.678100	0.014640	0.620720
N51	N5	0.492070	0.703300	0.477900
N61	N6	0.401230	0.685500	0.185000
O251	O25	0.467210	0.650200	0.426700
O261	O26	0.524710	0.695500	0.564900
O271	O27	0.602930	0.951590	0.542100
O281	O28	0.571920	0.007550	0.383700
O291	O29	0.357570	0.965940	0.252600
O301	O30	0.358760	0.862440	0.154900
O311	O31	0.349130	0.882320	0.480600
O321	O32	0.394790	0.789500	0.580200
O331	O33	0.211270	0.622970	0.351500
O341	O34	0.219670	0.583200	0.197400
O351	O35	0.441910	0.718500	0.194500
O361	O36	0.384600	0.642400	0.112200
C491	C49	0.983260	0.281000	0.433100
C501	C50	0.026620	0.331500	0.465000
H131	H13	0.059100	0.316200	0.514700
C511	C51	0.021410	0.405000	0.422500
C521	C52	0.972600	0.426200	0.348400
H141	H14	0.969000	0.475600	0.319100
C531	C53	0.929120	0.374800	0.317400
C541	C54	0.933830	0.300600	0.359000
C551	C55	0.883890	0.250500	0.336300
C561	C56	0.850810	0.259400	0.401800
C571	C57	0.803360	0.216100	0.385100
H151	H15	0.782000	0.221800	0.430700
C581	C58	0.787520	0.164900	0.301900
C591	C59	0.819490	0.156500	0.235700
H161	H16	0.808900	0.122600	0.178600
C601	C60	0.867350	0.198300	0.253500
C611	C61	0.068910	0.459600	0.451400
C621	C62	0.877400	0.400800	0.234400
C631	C63	0.866580	0.314200	0.494500
C641	C64	0.734980	0.119400	0.282100
Mn71	Mn7	0.139410	0.568500	0.359190
Mn81	Mn8	0.178100	0.514640	0.620720
N71	N7	0.992070	0.203300	0.477900
N81	N8	0.901230	0.185500	0.185000
O371	O37	0.967210	0.150200	0.426700
O381	O38	0.024710	0.195500	0.564900
O391	O39	0.102930	0.451590	0.542100
O401	O40	0.071920	0.507550	0.383700
O411	O41	0.857570	0.465940	0.252600
O421	O42	0.858760	0.362440	0.154900
O431	O43	0.849130	0.382320	0.480600
O441	O44	0.894790	0.289500	0.580200
O451	O45	0.711270	0.122970	0.351500
O461	O46	0.719670	0.083200	0.197400
O471	O47	0.941910	0.218500	0.194500
O481	O48	0.884600	0.142400	0.112200
C651	C65	0.483260	0.219000	0.933100
C661	C66	0.526620	0.168500	0.965000
H171	H17	0.559100	0.183800	0.014700
C671	C67	0.521410	0.095000	0.922500
C681	C68	0.472600	0.073800	0.848400
H181	H18	0.469000	0.024400	0.819100
C691	C69	0.429120	0.125200	0.817400
C701	C70	0.433830	0.199400	0.859000
C711	C71	0.383890	0.249500	0.836300
C721	C72	0.350810	0.240600	0.901800
C731	C73	0.303360	0.283900	0.885100
H191	H19	0.282000	0.278200	0.930700
C741	C74	0.287520	0.335100	0.801900
C751	C75	0.319490	0.343500	0.735700
H201	H20	0.308900	0.377400	0.678600
C761	C76	0.367350	0.301700	0.753500
C771	C77	0.568910	0.040400	0.951400
C781	C78	0.377400	0.099200	0.734400
C791	C79	0.366580	0.185800	0.994500
C801	C80	0.234980	0.380600	0.782100
Mn91	Mn9	0.639410	0.931500	0.859190
Mn101	Mn10	0.678100	0.985360	0.120720
N91	N9	0.492070	0.296700	0.977900
N101	N10	0.401230	0.314500	0.685000
O491	O49	0.467210	0.349800	0.926700
O501	O50	0.524710	0.304500	0.064900
O511	O51	0.602930	0.048410	0.042100
O521	O52	0.571920	0.992450	0.883700
O531	O53	0.357570	0.034060	0.752600
O541	O54	0.358760	0.137560	0.654900
O551	O55	0.349130	0.117680	0.980600
O561	O56	0.394790	0.210500	0.080200
O571	O57	0.211270	0.377030	0.851500
O581	O58	0.219670	0.416800	0.697400
O591	O59	0.441910	0.281500	0.694500
O601	O60	0.384600	0.357600	0.612200
C811	C81	0.983260	0.719000	0.933100
C821	C82	0.026620	0.668500	0.965000
H211	H21	0.059100	0.683800	0.014700
C831	C83	0.021410	0.595000	0.922500
C841	C84	0.972600	0.573800	0.848400
H221	H22	0.969000	0.524400	0.819100
C851	C85	0.929120	0.625200	0.817400
C861	C86	0.933830	0.699400	0.859000
C871	C87	0.883890	0.749500	0.836300
C881	C88	0.850810	0.740600	0.901800
C891	C89	0.803360	0.783900	0.885100
H231	H23	0.782000	0.778200	0.930700
C901	C90	0.787520	0.835100	0.801900
C911	C91	0.819490	0.843500	0.735700
H241	H24	0.808900	0.877400	0.678600
C921	C92	0.867350	0.801700	0.753500
C931	C93	0.068910	0.540400	0.951400
C941	C94	0.877400	0.599200	0.734400
C951	C95	0.866580	0.685800	0.994500
C961	C96	0.734980	0.880600	0.782100
Mn111	Mn11	0.139410	0.431500	0.859190
Mn121	Mn12	0.178100	0.485360	0.120720
N111	N11	0.992070	0.796700	0.977900
N121	N12	0.901230	0.814500	0.685000
O611	O61	0.967210	0.849800	0.926700
O621	O62	0.024710	0.804500	0.064900
O631	O63	0.102930	0.548410	0.042100
O641	O64	0.071920	0.492450	0.883700
O651	O65	0.857570	0.534060	0.752600
O661	O66	0.858760	0.637560	0.654900
O671	O67	0.849130	0.617680	0.980600
O681	O68	0.894790	0.710500	0.080200
O691	O69	0.711270	0.877030	0.851500
O701	O70	0.719670	0.916800	0.697400
O711	O71	0.941910	0.781500	0.694500
O721	O72	0.884600	0.857600	0.612200
C971	C97	0.516740	0.219000	0.566900
C981	C98	0.473380	0.168500	0.535000
H251	H25	0.440900	0.183800	0.485300
C991	C99	0.478590	0.095000	0.577500
C1001	C100	0.527400	0.073800	0.651600
H261	H26	0.531000	0.024400	0.680900
C1011	C101	0.570880	0.125200	0.682600
C1021	C102	0.566170	0.199400	0.641000
C1031	C103	0.616110	0.249500	0.663700
C1041	C104	0.649190	0.240600	0.598200
C1051	C105	0.696640	0.283900	0.614900
H271	H27	0.718000	0.278200	0.569300
C1061	C106	0.712480	0.335100	0.698100
C1071	C107	0.680510	0.343500	0.764300
H281	H28	0.691100	0.377400	0.821400
C1081	C108	0.632650	0.301700	0.746500
C1091	C109	0.431090	0.040400	0.548600
C1101	C110	0.622600	0.099200	0.765600
C1111	C111	0.633420	0.185800	0.505500
C1121	C112	0.765020	0.380600	0.717900
Mn131	Mn13	0.360590	0.931500	0.640810
Mn141	Mn14	0.321900	0.985360	0.379280
N131	N13	0.507930	0.296700	0.522100
N141	N14	0.598770	0.314500	0.815000
O731	O73	0.532790	0.349800	0.573300
O741	O74	0.475290	0.304500	0.435100
O751	O75	0.397070	0.048410	0.457900
O761	O76	0.428080	0.992450	0.616300
O771	O77	0.642430	0.034060	0.747400
O781	O78	0.641240	0.137560	0.845100
O791	O79	0.650870	0.117680	0.519400
O801	O80	0.605210	0.210500	0.419800
O811	O81	0.788730	0.377030	0.648500
O821	O82	0.780330	0.416800	0.802600
O831	O83	0.558090	0.281500	0.805500
O841	O84	0.615400	0.357600	0.887800
C1131	C113	0.016740	0.719000	0.566900
C1141	C114	0.973380	0.668500	0.535000
H291	H29	0.940900	0.683800	0.485300
C1151	C115	0.978590	0.595000	0.577500
C1161	C116	0.027400	0.573800	0.651600
H301	H30	0.031000	0.524400	0.680900
C1171	C117	0.070880	0.625200	0.682600
C1181	C118	0.066170	0.699400	0.641000
C1191	C119	0.116110	0.749500	0.663700
C1201	C120	0.149190	0.740600	0.598200
C1211	C121	0.196640	0.783900	0.614900
H311	H31	0.218000	0.778200	0.569300
C1221	C122	0.212480	0.835100	0.698100
C1231	C123	0.180510	0.843500	0.764300
H321	H32	0.191100	0.877400	0.821400
C1241	C124	0.132650	0.801700	0.746500
C1251	C125	0.931090	0.540400	0.548600
C1261	C126	0.122600	0.599200	0.765600
C1271	C127	0.133420	0.685800	0.505500
C1281	C128	0.265020	0.880600	0.717900
Mn151	Mn15	0.860590	0.431500	0.640810
Mn161	Mn16	0.821900	0.485360	0.379280
N151	N15	0.007930	0.796700	0.522100
N161	N16	0.098770	0.814500	0.815000
O851	O85	0.032790	0.849800	0.573300
O861	O86	0.975290	0.804500	0.435100
O871	O87	0.897070	0.548410	0.457900
O881	O88	0.928080	0.492450	0.616300
O891	O89	0.142430	0.534060	0.747400
O901	O90	0.141240	0.637560	0.845100
O911	O91	0.150870	0.617680	0.519400
O921	O92	0.105210	0.710500	0.419800
O931	O93	0.288730	0.877030	0.648500
O941	O94	0.280330	0.916800	0.802600
O951	O95	0.058090	0.781500	0.805500
O961	O96	0.115400	0.857600	0.887800
