data_OCUNAC_manual_PM
_symmetry_space_group_name_H-M	'P1'
_cell_length_a	62.839900
_cell_length_b	62.839900
_cell_length_c	62.839900
_cell_angle_alpha	60.000000
_cell_angle_beta	60.000000
_cell_angle_gamma	60.000000
_symmetry_Int_Tables_number 1

loop_
_symmetry_equiv_pos_as_xyz
'x,y,z'

loop_
_atom_site_label
_atom_site_type_symbol
_atom_site_fract_x
_atom_site_fract_y
_atom_site_fract_z
Cr11	Cr1	0.114230	0.283840	0.657700
Cr21	Cr2	0.306560	0.359630	0.530340
C11	C1	0.422400	0.460920	0.547230
C21	C2	0.361020	0.399550	0.512470
C31	C3	0.376030	0.414550	0.504030
C41	C4	0.316790	0.405210	0.427460
C51	C5	0.312270	0.382200	0.474890
C61	C6	0.310890	0.406410	0.451670
C71	C7	0.304580	0.430680	0.453040
C81	C8	0.185940	0.208370	0.648430
C91	C9	0.159360	0.253050	0.625010
C101	C10	0.182180	0.227950	0.624940
C111	C11	0.201450	0.223900	0.601430
C121	C12	0.162970	0.267990	0.705160
C131	C13	0.144040	0.299610	0.668310
C141	C14	0.158700	0.292400	0.685300
C151	C15	0.176810	0.261520	0.720830
C161	C16	0.203100	0.271990	0.732610
C171	C17	0.186750	0.279270	0.717260
C181	C18	0.168510	0.310160	0.681900
C191	C19	0.182220	0.303740	0.697570
C201	C20	0.284250	0.322640	0.620990
C211	C21	0.275200	0.313630	0.648410
C221	C22	0.322240	0.241940	0.536320
C231	C23	0.341660	0.273040	0.528300
C241	C24	0.339720	0.246720	0.539870
C251	C25	0.318890	0.217500	0.549380
C261	C26	0.077960	0.332570	0.668080
C271	C27	0.332990	0.197470	0.566150
C281	C28	0.354380	0.226380	0.555920
C291	C29	0.351110	0.202130	0.568810
O11	O1	0.425590	0.461030	0.502140
O21	O2	0.333270	0.368830	0.525250
O31	O3	0.408010	0.443520	0.484770
O41	O4	0.306370	0.383700	0.496730
O51	O5	0.360820	0.319690	0.471760
O61	O6	0.143410	0.256260	0.646810
O71	O7	0.092850	0.280980	0.646700
O81	O8	0.133960	0.283900	0.672770
O91	O9	0.142050	0.321490	0.650000
O101	O10	0.207970	0.249270	0.749400
O111	O11	0.212180	0.288670	0.727710
O121	O12	0.303790	0.339260	0.565560
O131	O13	0.258010	0.293460	0.702490
O141	O14	0.331120	0.290160	0.511110
O151	O15	0.277460	0.353320	0.536570
O161	O16	0.084100	0.308550	0.672270
O171	O17	0.157370	0.339070	0.599430
H11	H1	0.407290	0.476220	0.539020
H21	H2	0.340370	0.409170	0.515320
H31	H3	0.366490	0.435290	0.500730
H41	H4	0.321740	0.386950	0.425540
H51	H5	0.299990	0.432360	0.471310
H61	H6	0.171760	0.210610	0.666980
H71	H7	0.199500	0.238420	0.582900
H81	H8	0.155790	0.253740	0.708490
H91	H9	0.179980	0.242410	0.735570
H101	H10	0.165670	0.329170	0.666980
H111	H11	0.189610	0.317970	0.693940
H121	H12	0.272420	0.341070	0.610900
H131	H13	0.256650	0.325490	0.658350
H141	H14	0.310590	0.257300	0.524080
H151	H15	0.304830	0.214520	0.546900
H161	H16	0.368140	0.229280	0.558950
H171	H17	0.362600	0.187110	0.581310
Cr31	Cr3	0.283840	0.114230	0.944230
Cr41	Cr4	0.359630	0.306560	0.803480
C301	C30	0.460920	0.422400	0.569440
C311	C31	0.399550	0.361020	0.726960
C321	C32	0.414550	0.376030	0.705390
C331	C33	0.405210	0.316790	0.850540
C341	C34	0.382200	0.312270	0.830630
C351	C35	0.406410	0.310890	0.831040
C361	C36	0.430680	0.304580	0.811700
C371	C37	0.208370	0.185940	0.957260
C381	C38	0.253050	0.159360	0.962580
C391	C39	0.227950	0.182180	0.964940
C401	C40	0.223900	0.201450	0.973220
C411	C41	0.267990	0.162970	0.863890
C421	C42	0.299610	0.144040	0.888040
C431	C43	0.292400	0.158700	0.863600
C441	C44	0.261520	0.176810	0.840850
C451	C45	0.271990	0.203100	0.792300
C461	C46	0.279270	0.186750	0.816720
C471	C47	0.310160	0.168510	0.839430
C481	C48	0.303740	0.182220	0.816470
C491	C49	0.322640	0.284250	0.772120
C501	C50	0.313630	0.275200	0.762760
C511	C51	0.241940	0.322240	0.899500
C521	C52	0.273040	0.341660	0.857000
C531	C53	0.246720	0.339720	0.873690
C541	C54	0.217500	0.318890	0.914230
C551	C55	0.332570	0.077960	0.921380
C561	C56	0.197470	0.332990	0.903390
C571	C57	0.226380	0.354380	0.863310
C581	C58	0.202130	0.351110	0.877940
O181	O18	0.461030	0.425590	0.611240
O191	O19	0.368830	0.333270	0.772650
O201	O20	0.443520	0.408010	0.663700
O211	O21	0.383700	0.306370	0.813200
O221	O22	0.319690	0.360820	0.847730
O231	O23	0.256260	0.143410	0.953520
O241	O24	0.280980	0.092850	0.979460
O251	O25	0.283900	0.133960	0.909370
O261	O26	0.321490	0.142050	0.886470
O271	O27	0.249270	0.207970	0.793360
O281	O28	0.288670	0.212180	0.771430
O291	O29	0.339260	0.303790	0.791400
O301	O30	0.293460	0.258010	0.746040
O311	O31	0.290160	0.331120	0.867620
O321	O32	0.353320	0.277460	0.832640
O331	O33	0.308550	0.084100	0.935080
O341	O34	0.339070	0.157370	0.904140
H181	H18	0.476220	0.407290	0.577470
H191	H19	0.409170	0.340370	0.735150
H201	H20	0.435290	0.366490	0.697490
H211	H21	0.386950	0.321740	0.865770
H221	H22	0.432360	0.299990	0.796340
H231	H23	0.210610	0.171760	0.950640
H241	H24	0.238420	0.199500	0.979180
H251	H25	0.253740	0.155790	0.881990
H261	H26	0.242410	0.179980	0.842030
H271	H27	0.329170	0.165670	0.838190
H281	H28	0.317970	0.189610	0.798490
H291	H29	0.341070	0.272420	0.775610
H301	H30	0.325490	0.256650	0.759510
H311	H31	0.257300	0.310590	0.908020
H321	H32	0.214520	0.304830	0.933760
H331	H33	0.229280	0.368140	0.843630
H341	H34	0.187110	0.362600	0.868980
Cr51	Cr5	0.657700	0.944230	0.114230
Cr61	Cr6	0.530340	0.803480	0.306560
C591	C59	0.547230	0.569440	0.422400
C601	C60	0.512470	0.726960	0.361020
C611	C61	0.504030	0.705390	0.376030
C621	C62	0.427460	0.850540	0.316790
C631	C63	0.474890	0.830630	0.312270
C641	C64	0.451670	0.831040	0.310890
C651	C65	0.453040	0.811700	0.304580
C661	C66	0.648430	0.957260	0.185940
C671	C67	0.625010	0.962580	0.159360
C681	C68	0.624940	0.964940	0.182180
C691	C69	0.601430	0.973220	0.201450
C701	C70	0.705160	0.863890	0.162970
C711	C71	0.668310	0.888040	0.144040
C721	C72	0.685300	0.863600	0.158700
C731	C73	0.720830	0.840850	0.176810
C741	C74	0.732610	0.792300	0.203100
C751	C75	0.717260	0.816720	0.186750
C761	C76	0.681900	0.839430	0.168510
C771	C77	0.697570	0.816470	0.182220
C781	C78	0.620990	0.772120	0.284250
C791	C79	0.648410	0.762760	0.275200
C801	C80	0.536320	0.899500	0.322240
C811	C81	0.528300	0.857000	0.341660
C821	C82	0.539870	0.873690	0.339720
C831	C83	0.549380	0.914230	0.318890
C841	C84	0.668080	0.921380	0.077960
C851	C85	0.566150	0.903390	0.332990
C861	C86	0.555920	0.863310	0.354380
C871	C87	0.568810	0.877940	0.351110
O351	O35	0.502140	0.611240	0.425590
O361	O36	0.525250	0.772650	0.333270
O371	O37	0.484770	0.663700	0.408010
O381	O38	0.496730	0.813200	0.306370
O391	O39	0.471760	0.847730	0.360820
O401	O40	0.646810	0.953520	0.143410
O411	O41	0.646700	0.979460	0.092850
O421	O42	0.672770	0.909370	0.133960
O431	O43	0.650000	0.886470	0.142050
O441	O44	0.749400	0.793360	0.207970
O451	O45	0.727710	0.771430	0.212180
O461	O46	0.565560	0.791400	0.303790
O471	O47	0.702490	0.746040	0.258010
O481	O48	0.511110	0.867620	0.331120
O491	O49	0.536570	0.832640	0.277460
O501	O50	0.672270	0.935080	0.084100
O511	O51	0.599430	0.904140	0.157370
H351	H35	0.539020	0.577470	0.407290
H361	H36	0.515320	0.735150	0.340370
H371	H37	0.500730	0.697490	0.366490
H381	H38	0.425540	0.865770	0.321740
H391	H39	0.471310	0.796340	0.299990
H401	H40	0.666980	0.950640	0.171760
H411	H41	0.582900	0.979180	0.199500
H421	H42	0.708490	0.881990	0.155790
H431	H43	0.735570	0.842030	0.179980
H441	H44	0.666980	0.838190	0.165670
H451	H45	0.693940	0.798490	0.189610
H461	H46	0.610900	0.775610	0.272420
H471	H47	0.658350	0.759510	0.256650
H481	H48	0.524080	0.908020	0.310590
H491	H49	0.546900	0.933760	0.304830
H501	H50	0.558950	0.843630	0.368140
H511	H51	0.581310	0.868980	0.362600
Cr71	Cr7	0.944230	0.657700	0.283840
Cr81	Cr8	0.803480	0.530340	0.359630
C881	C88	0.569440	0.547230	0.460920
C891	C89	0.726960	0.512470	0.399550
C901	C90	0.705390	0.504030	0.414550
C911	C91	0.850540	0.427460	0.405210
C921	C92	0.830630	0.474890	0.382200
C931	C93	0.831040	0.451670	0.406410
C941	C94	0.811700	0.453040	0.430680
C951	C95	0.957260	0.648430	0.208370
C961	C96	0.962580	0.625010	0.253050
C971	C97	0.964940	0.624940	0.227950
C981	C98	0.973220	0.601430	0.223900
C991	C99	0.863890	0.705160	0.267990
C1001	C100	0.888040	0.668310	0.299610
C1011	C101	0.863600	0.685300	0.292400
C1021	C102	0.840850	0.720830	0.261520
C1031	C103	0.792300	0.732610	0.271990
C1041	C104	0.816720	0.717260	0.279270
C1051	C105	0.839430	0.681900	0.310160
C1061	C106	0.816470	0.697570	0.303740
C1071	C107	0.772120	0.620990	0.322640
C1081	C108	0.762760	0.648410	0.313630
C1091	C109	0.899500	0.536320	0.241940
C1101	C110	0.857000	0.528300	0.273040
C1111	C111	0.873690	0.539870	0.246720
C1121	C112	0.914230	0.549380	0.217500
C1131	C113	0.921380	0.668080	0.332570
C1141	C114	0.903390	0.566150	0.197470
C1151	C115	0.863310	0.555920	0.226380
C1161	C116	0.877940	0.568810	0.202130
O521	O52	0.611240	0.502140	0.461030
O531	O53	0.772650	0.525250	0.368830
O541	O54	0.663700	0.484770	0.443520
O551	O55	0.813200	0.496730	0.383700
O561	O56	0.847730	0.471760	0.319690
O571	O57	0.953520	0.646810	0.256260
O581	O58	0.979460	0.646700	0.280980
O591	O59	0.909370	0.672770	0.283900
O601	O60	0.886470	0.650000	0.321490
O611	O61	0.793360	0.749400	0.249270
O621	O62	0.771430	0.727710	0.288670
O631	O63	0.791400	0.565560	0.339260
O641	O64	0.746040	0.702490	0.293460
O651	O65	0.867620	0.511110	0.290160
O661	O66	0.832640	0.536570	0.353320
O671	O67	0.935080	0.672270	0.308550
O681	O68	0.904140	0.599430	0.339070
H521	H52	0.577470	0.539020	0.476220
H531	H53	0.735150	0.515320	0.409170
H541	H54	0.697490	0.500730	0.435290
H551	H55	0.865770	0.425540	0.386950
H561	H56	0.796340	0.471310	0.432360
H571	H57	0.950640	0.666980	0.210610
H581	H58	0.979180	0.582900	0.238420
H591	H59	0.881990	0.708490	0.253740
H601	H60	0.842030	0.735570	0.242410
H611	H61	0.838190	0.666980	0.329170
H621	H62	0.798490	0.693940	0.317970
H631	H63	0.775610	0.610900	0.341070
H641	H64	0.759510	0.658350	0.325490
H651	H65	0.908020	0.524080	0.257300
H661	H66	0.933760	0.546900	0.214520
H671	H67	0.843630	0.558950	0.229280
H681	H68	0.868980	0.581310	0.187110
Cr91	Cr9	0.657700	0.114230	0.283840
Cr101	Cr10	0.530340	0.306560	0.359630
C1171	C117	0.547230	0.422400	0.460920
C1181	C118	0.512470	0.361020	0.399550
C1191	C119	0.504030	0.376030	0.414550
C1201	C120	0.427460	0.316790	0.405210
C1211	C121	0.474890	0.312270	0.382200
C1221	C122	0.451670	0.310890	0.406410
C1231	C123	0.453040	0.304580	0.430680
C1241	C124	0.648430	0.185940	0.208370
C1251	C125	0.625010	0.159360	0.253050
C1261	C126	0.624940	0.182180	0.227950
C1271	C127	0.601430	0.201450	0.223900
C1281	C128	0.705160	0.162970	0.267990
C1291	C129	0.668310	0.144040	0.299610
C1301	C130	0.685300	0.158700	0.292400
C1311	C131	0.720830	0.176810	0.261520
C1321	C132	0.732610	0.203100	0.271990
C1331	C133	0.717260	0.186750	0.279270
C1341	C134	0.681900	0.168510	0.310160
C1351	C135	0.697570	0.182220	0.303740
C1361	C136	0.620990	0.284250	0.322640
C1371	C137	0.648410	0.275200	0.313630
C1381	C138	0.536320	0.322240	0.241940
C1391	C139	0.528300	0.341660	0.273040
C1401	C140	0.539870	0.339720	0.246720
C1411	C141	0.549380	0.318890	0.217500
C1421	C142	0.668080	0.077960	0.332570
C1431	C143	0.566150	0.332990	0.197470
C1441	C144	0.555920	0.354380	0.226380
C1451	C145	0.568810	0.351110	0.202130
O691	O69	0.502140	0.425590	0.461030
O701	O70	0.525250	0.333270	0.368830
O711	O71	0.484770	0.408010	0.443520
O721	O72	0.496730	0.306370	0.383700
O731	O73	0.471760	0.360820	0.319690
O741	O74	0.646810	0.143410	0.256260
O751	O75	0.646700	0.092850	0.280980
O761	O76	0.672770	0.133960	0.283900
O771	O77	0.650000	0.142050	0.321490
O781	O78	0.749400	0.207970	0.249270
O791	O79	0.727710	0.212180	0.288670
O801	O80	0.565560	0.303790	0.339260
O811	O81	0.702490	0.258010	0.293460
O821	O82	0.511110	0.331120	0.290160
O831	O83	0.536570	0.277460	0.353320
O841	O84	0.672270	0.084100	0.308550
O851	O85	0.599430	0.157370	0.339070
H691	H69	0.539020	0.407290	0.476220
H701	H70	0.515320	0.340370	0.409170
H711	H71	0.500730	0.366490	0.435290
H721	H72	0.425540	0.321740	0.386950
H731	H73	0.471310	0.299990	0.432360
H741	H74	0.666980	0.171760	0.210610
H751	H75	0.582900	0.199500	0.238420
H761	H76	0.708490	0.155790	0.253740
H771	H77	0.735570	0.179980	0.242410
H781	H78	0.666980	0.165670	0.329170
H791	H79	0.693940	0.189610	0.317970
H801	H80	0.610900	0.272420	0.341070
H811	H81	0.658350	0.256650	0.325490
H821	H82	0.524080	0.310590	0.257300
H831	H83	0.546900	0.304830	0.214520
H841	H84	0.558950	0.368140	0.229280
H851	H85	0.581310	0.362600	0.187110
Cr111	Cr11	0.944230	0.283840	0.114230
Cr121	Cr12	0.803480	0.359630	0.306560
C1461	C146	0.569440	0.460920	0.422400
C1471	C147	0.726960	0.399550	0.361020
C1481	C148	0.705390	0.414550	0.376030
C1491	C149	0.850540	0.405210	0.316790
C1501	C150	0.830630	0.382200	0.312270
C1511	C151	0.831040	0.406410	0.310890
C1521	C152	0.811700	0.430680	0.304580
C1531	C153	0.957260	0.208370	0.185940
C1541	C154	0.962580	0.253050	0.159360
C1551	C155	0.964940	0.227950	0.182180
C1561	C156	0.973220	0.223900	0.201450
C1571	C157	0.863890	0.267990	0.162970
C1581	C158	0.888040	0.299610	0.144040
C1591	C159	0.863600	0.292400	0.158700
C1601	C160	0.840850	0.261520	0.176810
C1611	C161	0.792300	0.271990	0.203100
C1621	C162	0.816720	0.279270	0.186750
C1631	C163	0.839430	0.310160	0.168510
C1641	C164	0.816470	0.303740	0.182220
C1651	C165	0.772120	0.322640	0.284250
C1661	C166	0.762760	0.313630	0.275200
C1671	C167	0.899500	0.241940	0.322240
C1681	C168	0.857000	0.273040	0.341660
C1691	C169	0.873690	0.246720	0.339720
C1701	C170	0.914230	0.217500	0.318890
C1711	C171	0.921380	0.332570	0.077960
C1721	C172	0.903390	0.197470	0.332990
C1731	C173	0.863310	0.226380	0.354380
C1741	C174	0.877940	0.202130	0.351110
O861	O86	0.611240	0.461030	0.425590
O871	O87	0.772650	0.368830	0.333270
O881	O88	0.663700	0.443520	0.408010
O891	O89	0.813200	0.383700	0.306370
O901	O90	0.847730	0.319690	0.360820
O911	O91	0.953520	0.256260	0.143410
O921	O92	0.979460	0.280980	0.092850
O931	O93	0.909370	0.283900	0.133960
O941	O94	0.886470	0.321490	0.142050
O951	O95	0.793360	0.249270	0.207970
O961	O96	0.771430	0.288670	0.212180
O971	O97	0.791400	0.339260	0.303790
O981	O98	0.746040	0.293460	0.258010
O991	O99	0.867620	0.290160	0.331120
O1001	O100	0.832640	0.353320	0.277460
O1011	O101	0.935080	0.308550	0.084100
O1021	O102	0.904140	0.339070	0.157370
H861	H86	0.577470	0.476220	0.407290
H871	H87	0.735150	0.409170	0.340370
H881	H88	0.697490	0.435290	0.366490
H891	H89	0.865770	0.386950	0.321740
H901	H90	0.796340	0.432360	0.299990
H911	H91	0.950640	0.210610	0.171760
H921	H92	0.979180	0.238420	0.199500
H931	H93	0.881990	0.253740	0.155790
H941	H94	0.842030	0.242410	0.179980
H951	H95	0.838190	0.329170	0.165670
H961	H96	0.798490	0.317970	0.189610
H971	H97	0.775610	0.341070	0.272420
H981	H98	0.759510	0.325490	0.256650
H991	H99	0.908020	0.257300	0.310590
H1001	H100	0.933760	0.214520	0.304830
H1011	H101	0.843630	0.229280	0.368140
H1021	H102	0.868980	0.187110	0.362600
Cr131	Cr13	0.114230	0.657700	0.944230
Cr141	Cr14	0.306560	0.530340	0.803480
C1751	C175	0.422400	0.547230	0.569440
C1761	C176	0.361020	0.512470	0.726960
C1771	C177	0.376030	0.504030	0.705390
C1781	C178	0.316790	0.427460	0.850540
C1791	C179	0.312270	0.474890	0.830630
C1801	C180	0.310890	0.451670	0.831040
C1811	C181	0.304580	0.453040	0.811700
C1821	C182	0.185940	0.648430	0.957260
C1831	C183	0.159360	0.625010	0.962580
C1841	C184	0.182180	0.624940	0.964940
C1851	C185	0.201450	0.601430	0.973220
C1861	C186	0.162970	0.705160	0.863890
C1871	C187	0.144040	0.668310	0.888040
C1881	C188	0.158700	0.685300	0.863600
C1891	C189	0.176810	0.720830	0.840850
C1901	C190	0.203100	0.732610	0.792300
C1911	C191	0.186750	0.717260	0.816720
C1921	C192	0.168510	0.681900	0.839430
C1931	C193	0.182220	0.697570	0.816470
C1941	C194	0.284250	0.620990	0.772120
C1951	C195	0.275200	0.648410	0.762760
C1961	C196	0.322240	0.536320	0.899500
C1971	C197	0.341660	0.528300	0.857000
C1981	C198	0.339720	0.539870	0.873690
C1991	C199	0.318890	0.549380	0.914230
C2001	C200	0.077960	0.668080	0.921380
C2011	C201	0.332990	0.566150	0.903390
C2021	C202	0.354380	0.555920	0.863310
C2031	C203	0.351110	0.568810	0.877940
O1031	O103	0.425590	0.502140	0.611240
O1041	O104	0.333270	0.525250	0.772650
O1051	O105	0.408010	0.484770	0.663700
O1061	O106	0.306370	0.496730	0.813200
O1071	O107	0.360820	0.471760	0.847730
O1081	O108	0.143410	0.646810	0.953520
O1091	O109	0.092850	0.646700	0.979460
O1101	O110	0.133960	0.672770	0.909370
O1111	O111	0.142050	0.650000	0.886470
O1121	O112	0.207970	0.749400	0.793360
O1131	O113	0.212180	0.727710	0.771430
O1141	O114	0.303790	0.565560	0.791400
O1151	O115	0.258010	0.702490	0.746040
O1161	O116	0.331120	0.511110	0.867620
O1171	O117	0.277460	0.536570	0.832640
O1181	O118	0.084100	0.672270	0.935080
O1191	O119	0.157370	0.599430	0.904140
H1031	H103	0.407290	0.539020	0.577470
H1041	H104	0.340370	0.515320	0.735150
H1051	H105	0.366490	0.500730	0.697490
H1061	H106	0.321740	0.425540	0.865770
H1071	H107	0.299990	0.471310	0.796340
H1081	H108	0.171760	0.666980	0.950640
H1091	H109	0.199500	0.582900	0.979180
H1101	H110	0.155790	0.708490	0.881990
H1111	H111	0.179980	0.735570	0.842030
H1121	H112	0.165670	0.666980	0.838190
H1131	H113	0.189610	0.693940	0.798490
H1141	H114	0.272420	0.610900	0.775610
H1151	H115	0.256650	0.658350	0.759510
H1161	H116	0.310590	0.524080	0.908020
H1171	H117	0.304830	0.546900	0.933760
H1181	H118	0.368140	0.558950	0.843630
H1191	H119	0.362600	0.581310	0.868980
Cr151	Cr15	0.283840	0.944230	0.657700
Cr161	Cr16	0.359630	0.803480	0.530340
C2041	C204	0.460920	0.569440	0.547230
C2051	C205	0.399550	0.726960	0.512470
C2061	C206	0.414550	0.705390	0.504030
C2071	C207	0.405210	0.850540	0.427460
C2081	C208	0.382200	0.830630	0.474890
C2091	C209	0.406410	0.831040	0.451670
C2101	C210	0.430680	0.811700	0.453040
C2111	C211	0.208370	0.957260	0.648430
C2121	C212	0.253050	0.962580	0.625010
C2131	C213	0.227950	0.964940	0.624940
C2141	C214	0.223900	0.973220	0.601430
C2151	C215	0.267990	0.863890	0.705160
C2161	C216	0.299610	0.888040	0.668310
C2171	C217	0.292400	0.863600	0.685300
C2181	C218	0.261520	0.840850	0.720830
C2191	C219	0.271990	0.792300	0.732610
C2201	C220	0.279270	0.816720	0.717260
C2211	C221	0.310160	0.839430	0.681900
C2221	C222	0.303740	0.816470	0.697570
C2231	C223	0.322640	0.772120	0.620990
C2241	C224	0.313630	0.762760	0.648410
C2251	C225	0.241940	0.899500	0.536320
C2261	C226	0.273040	0.857000	0.528300
C2271	C227	0.246720	0.873690	0.539870
C2281	C228	0.217500	0.914230	0.549380
C2291	C229	0.332570	0.921380	0.668080
C2301	C230	0.197470	0.903390	0.566150
C2311	C231	0.226380	0.863310	0.555920
C2321	C232	0.202130	0.877940	0.568810
O1201	O120	0.461030	0.611240	0.502140
O1211	O121	0.368830	0.772650	0.525250
O1221	O122	0.443520	0.663700	0.484770
O1231	O123	0.383700	0.813200	0.496730
O1241	O124	0.319690	0.847730	0.471760
O1251	O125	0.256260	0.953520	0.646810
O1261	O126	0.280980	0.979460	0.646700
O1271	O127	0.283900	0.909370	0.672770
O1281	O128	0.321490	0.886470	0.650000
O1291	O129	0.249270	0.793360	0.749400
O1301	O130	0.288670	0.771430	0.727710
O1311	O131	0.339260	0.791400	0.565560
O1321	O132	0.293460	0.746040	0.702490
O1331	O133	0.290160	0.867620	0.511110
O1341	O134	0.353320	0.832640	0.536570
O1351	O135	0.308550	0.935080	0.672270
O1361	O136	0.339070	0.904140	0.599430
H1201	H120	0.476220	0.577470	0.539020
H1211	H121	0.409170	0.735150	0.515320
H1221	H122	0.435290	0.697490	0.500730
H1231	H123	0.386950	0.865770	0.425540
H1241	H124	0.432360	0.796340	0.471310
H1251	H125	0.210610	0.950640	0.666980
H1261	H126	0.238420	0.979180	0.582900
H1271	H127	0.253740	0.881990	0.708490
H1281	H128	0.242410	0.842030	0.735570
H1291	H129	0.329170	0.838190	0.666980
H1301	H130	0.317970	0.798490	0.693940
H1311	H131	0.341070	0.775610	0.610900
H1321	H132	0.325490	0.759510	0.658350
H1331	H133	0.257300	0.908020	0.524080
H1341	H134	0.214520	0.933760	0.546900
H1351	H135	0.229280	0.843630	0.558950
H1361	H136	0.187110	0.868980	0.581310
Cr171	Cr17	0.283840	0.657700	0.114230
Cr181	Cr18	0.359630	0.530340	0.306560
C2331	C233	0.460920	0.547230	0.422400
C2341	C234	0.399550	0.512470	0.361020
C2351	C235	0.414550	0.504030	0.376030
C2361	C236	0.405210	0.427460	0.316790
C2371	C237	0.382200	0.474890	0.312270
C2381	C238	0.406410	0.451670	0.310890
C2391	C239	0.430680	0.453040	0.304580
C2401	C240	0.208370	0.648430	0.185940
C2411	C241	0.253050	0.625010	0.159360
C2421	C242	0.227950	0.624940	0.182180
C2431	C243	0.223900	0.601430	0.201450
C2441	C244	0.267990	0.705160	0.162970
C2451	C245	0.299610	0.668310	0.144040
C2461	C246	0.292400	0.685300	0.158700
C2471	C247	0.261520	0.720830	0.176810
C2481	C248	0.271990	0.732610	0.203100
C2491	C249	0.279270	0.717260	0.186750
C2501	C250	0.310160	0.681900	0.168510
C2511	C251	0.303740	0.697570	0.182220
C2521	C252	0.322640	0.620990	0.284250
C2531	C253	0.313630	0.648410	0.275200
C2541	C254	0.241940	0.536320	0.322240
C2551	C255	0.273040	0.528300	0.341660
C2561	C256	0.246720	0.539870	0.339720
C2571	C257	0.217500	0.549380	0.318890
C2581	C258	0.332570	0.668080	0.077960
C2591	C259	0.197470	0.566150	0.332990
C2601	C260	0.226380	0.555920	0.354380
C2611	C261	0.202130	0.568810	0.351110
O1371	O137	0.461030	0.502140	0.425590
O1381	O138	0.368830	0.525250	0.333270
O1391	O139	0.443520	0.484770	0.408010
O1401	O140	0.383700	0.496730	0.306370
O1411	O141	0.319690	0.471760	0.360820
O1421	O142	0.256260	0.646810	0.143410
O1431	O143	0.280980	0.646700	0.092850
O1441	O144	0.283900	0.672770	0.133960
O1451	O145	0.321490	0.650000	0.142050
O1461	O146	0.249270	0.749400	0.207970
O1471	O147	0.288670	0.727710	0.212180
O1481	O148	0.339260	0.565560	0.303790
O1491	O149	0.293460	0.702490	0.258010
O1501	O150	0.290160	0.511110	0.331120
O1511	O151	0.353320	0.536570	0.277460
O1521	O152	0.308550	0.672270	0.084100
O1531	O153	0.339070	0.599430	0.157370
H1371	H137	0.476220	0.539020	0.407290
H1381	H138	0.409170	0.515320	0.340370
H1391	H139	0.435290	0.500730	0.366490
H1401	H140	0.386950	0.425540	0.321740
H1411	H141	0.432360	0.471310	0.299990
H1421	H142	0.210610	0.666980	0.171760
H1431	H143	0.238420	0.582900	0.199500
H1441	H144	0.253740	0.708490	0.155790
H1451	H145	0.242410	0.735570	0.179980
H1461	H146	0.329170	0.666980	0.165670
H1471	H147	0.317970	0.693940	0.189610
H1481	H148	0.341070	0.610900	0.272420
H1491	H149	0.325490	0.658350	0.256650
H1501	H150	0.257300	0.524080	0.310590
H1511	H151	0.214520	0.546900	0.304830
H1521	H152	0.229280	0.558950	0.368140
H1531	H153	0.187110	0.581310	0.362600
Cr191	Cr19	0.114230	0.944230	0.283840
Cr201	Cr20	0.306560	0.803480	0.359630
C2621	C262	0.422400	0.569440	0.460920
C2631	C263	0.361020	0.726960	0.399550
C2641	C264	0.376030	0.705390	0.414550
C2651	C265	0.316790	0.850540	0.405210
C2661	C266	0.312270	0.830630	0.382200
C2671	C267	0.310890	0.831040	0.406410
C2681	C268	0.304580	0.811700	0.430680
C2691	C269	0.185940	0.957260	0.208370
C2701	C270	0.159360	0.962580	0.253050
C2711	C271	0.182180	0.964940	0.227950
C2721	C272	0.201450	0.973220	0.223900
C2731	C273	0.162970	0.863890	0.267990
C2741	C274	0.144040	0.888040	0.299610
C2751	C275	0.158700	0.863600	0.292400
C2761	C276	0.176810	0.840850	0.261520
C2771	C277	0.203100	0.792300	0.271990
C2781	C278	0.186750	0.816720	0.279270
C2791	C279	0.168510	0.839430	0.310160
C2801	C280	0.182220	0.816470	0.303740
C2811	C281	0.284250	0.772120	0.322640
C2821	C282	0.275200	0.762760	0.313630
C2831	C283	0.322240	0.899500	0.241940
C2841	C284	0.341660	0.857000	0.273040
C2851	C285	0.339720	0.873690	0.246720
C2861	C286	0.318890	0.914230	0.217500
C2871	C287	0.077960	0.921380	0.332570
C2881	C288	0.332990	0.903390	0.197470
C2891	C289	0.354380	0.863310	0.226380
C2901	C290	0.351110	0.877940	0.202130
O1541	O154	0.425590	0.611240	0.461030
O1551	O155	0.333270	0.772650	0.368830
O1561	O156	0.408010	0.663700	0.443520
O1571	O157	0.306370	0.813200	0.383700
O1581	O158	0.360820	0.847730	0.319690
O1591	O159	0.143410	0.953520	0.256260
O1601	O160	0.092850	0.979460	0.280980
O1611	O161	0.133960	0.909370	0.283900
O1621	O162	0.142050	0.886470	0.321490
O1631	O163	0.207970	0.793360	0.249270
O1641	O164	0.212180	0.771430	0.288670
O1651	O165	0.303790	0.791400	0.339260
O1661	O166	0.258010	0.746040	0.293460
O1671	O167	0.331120	0.867620	0.290160
O1681	O168	0.277460	0.832640	0.353320
O1691	O169	0.084100	0.935080	0.308550
O1701	O170	0.157370	0.904140	0.339070
H1541	H154	0.407290	0.577470	0.476220
H1551	H155	0.340370	0.735150	0.409170
H1561	H156	0.366490	0.697490	0.435290
H1571	H157	0.321740	0.865770	0.386950
H1581	H158	0.299990	0.796340	0.432360
H1591	H159	0.171760	0.950640	0.210610
H1601	H160	0.199500	0.979180	0.238420
H1611	H161	0.155790	0.881990	0.253740
H1621	H162	0.179980	0.842030	0.242410
H1631	H163	0.165670	0.838190	0.329170
H1641	H164	0.189610	0.798490	0.317970
H1651	H165	0.272420	0.775610	0.341070
H1661	H166	0.256650	0.759510	0.325490
H1671	H167	0.310590	0.908020	0.257300
H1681	H168	0.304830	0.933760	0.214520
H1691	H169	0.368140	0.843630	0.229280
H1701	H170	0.362600	0.868980	0.187110
Cr211	Cr21	0.944230	0.114230	0.657700
Cr221	Cr22	0.803480	0.306560	0.530340
C2911	C291	0.569440	0.422400	0.547230
C2921	C292	0.726960	0.361020	0.512470
C2931	C293	0.705390	0.376030	0.504030
C2941	C294	0.850540	0.316790	0.427460
C2951	C295	0.830630	0.312270	0.474890
C2961	C296	0.831040	0.310890	0.451670
C2971	C297	0.811700	0.304580	0.453040
C2981	C298	0.957260	0.185940	0.648430
C2991	C299	0.962580	0.159360	0.625010
C3001	C300	0.964940	0.182180	0.624940
C3011	C301	0.973220	0.201450	0.601430
C3021	C302	0.863890	0.162970	0.705160
C3031	C303	0.888040	0.144040	0.668310
C3041	C304	0.863600	0.158700	0.685300
C3051	C305	0.840850	0.176810	0.720830
C3061	C306	0.792300	0.203100	0.732610
C3071	C307	0.816720	0.186750	0.717260
C3081	C308	0.839430	0.168510	0.681900
C3091	C309	0.816470	0.182220	0.697570
C3101	C310	0.772120	0.284250	0.620990
C3111	C311	0.762760	0.275200	0.648410
C3121	C312	0.899500	0.322240	0.536320
C3131	C313	0.857000	0.341660	0.528300
C3141	C314	0.873690	0.339720	0.539870
C3151	C315	0.914230	0.318890	0.549380
C3161	C316	0.921380	0.077960	0.668080
C3171	C317	0.903390	0.332990	0.566150
C3181	C318	0.863310	0.354380	0.555920
C3191	C319	0.877940	0.351110	0.568810
O1711	O171	0.611240	0.425590	0.502140
O1721	O172	0.772650	0.333270	0.525250
O1731	O173	0.663700	0.408010	0.484770
O1741	O174	0.813200	0.306370	0.496730
O1751	O175	0.847730	0.360820	0.471760
O1761	O176	0.953520	0.143410	0.646810
O1771	O177	0.979460	0.092850	0.646700
O1781	O178	0.909370	0.133960	0.672770
O1791	O179	0.886470	0.142050	0.650000
O1801	O180	0.793360	0.207970	0.749400
O1811	O181	0.771430	0.212180	0.727710
O1821	O182	0.791400	0.303790	0.565560
O1831	O183	0.746040	0.258010	0.702490
O1841	O184	0.867620	0.331120	0.511110
O1851	O185	0.832640	0.277460	0.536570
O1861	O186	0.935080	0.084100	0.672270
O1871	O187	0.904140	0.157370	0.599430
H1711	H171	0.577470	0.407290	0.539020
H1721	H172	0.735150	0.340370	0.515320
H1731	H173	0.697490	0.366490	0.500730
H1741	H174	0.865770	0.321740	0.425540
H1751	H175	0.796340	0.299990	0.471310
H1761	H176	0.950640	0.171760	0.666980
H1771	H177	0.979180	0.199500	0.582900
H1781	H178	0.881990	0.155790	0.708490
H1791	H179	0.842030	0.179980	0.735570
H1801	H180	0.838190	0.165670	0.666980
H1811	H181	0.798490	0.189610	0.693940
H1821	H182	0.775610	0.272420	0.610900
H1831	H183	0.759510	0.256650	0.658350
H1841	H184	0.908020	0.310590	0.524080
H1851	H185	0.933760	0.304830	0.546900
H1861	H186	0.843630	0.368140	0.558950
H1871	H187	0.868980	0.362600	0.581310
Cr231	Cr23	0.657700	0.283840	0.944230
Cr241	Cr24	0.530340	0.359630	0.803480
C3201	C320	0.547230	0.460920	0.569440
C3211	C321	0.512470	0.399550	0.726960
C3221	C322	0.504030	0.414550	0.705390
C3231	C323	0.427460	0.405210	0.850540
C3241	C324	0.474890	0.382200	0.830630
C3251	C325	0.451670	0.406410	0.831040
C3261	C326	0.453040	0.430680	0.811700
C3271	C327	0.648430	0.208370	0.957260
C3281	C328	0.625010	0.253050	0.962580
C3291	C329	0.624940	0.227950	0.964940
C3301	C330	0.601430	0.223900	0.973220
C3311	C331	0.705160	0.267990	0.863890
C3321	C332	0.668310	0.299610	0.888040
C3331	C333	0.685300	0.292400	0.863600
C3341	C334	0.720830	0.261520	0.840850
C3351	C335	0.732610	0.271990	0.792300
C3361	C336	0.717260	0.279270	0.816720
C3371	C337	0.681900	0.310160	0.839430
C3381	C338	0.697570	0.303740	0.816470
C3391	C339	0.620990	0.322640	0.772120
C3401	C340	0.648410	0.313630	0.762760
C3411	C341	0.536320	0.241940	0.899500
C3421	C342	0.528300	0.273040	0.857000
C3431	C343	0.539870	0.246720	0.873690
C3441	C344	0.549380	0.217500	0.914230
C3451	C345	0.668080	0.332570	0.921380
C3461	C346	0.566150	0.197470	0.903390
C3471	C347	0.555920	0.226380	0.863310
C3481	C348	0.568810	0.202130	0.877940
O1881	O188	0.502140	0.461030	0.611240
O1891	O189	0.525250	0.368830	0.772650
O1901	O190	0.484770	0.443520	0.663700
O1911	O191	0.496730	0.383700	0.813200
O1921	O192	0.471760	0.319690	0.847730
O1931	O193	0.646810	0.256260	0.953520
O1941	O194	0.646700	0.280980	0.979460
O1951	O195	0.672770	0.283900	0.909370
O1961	O196	0.650000	0.321490	0.886470
O1971	O197	0.749400	0.249270	0.793360
O1981	O198	0.727710	0.288670	0.771430
O1991	O199	0.565560	0.339260	0.791400
O2001	O200	0.702490	0.293460	0.746040
O2011	O201	0.511110	0.290160	0.867620
O2021	O202	0.536570	0.353320	0.832640
O2031	O203	0.672270	0.308550	0.935080
O2041	O204	0.599430	0.339070	0.904140
H1881	H188	0.539020	0.476220	0.577470
H1891	H189	0.515320	0.409170	0.735150
H1901	H190	0.500730	0.435290	0.697490
H1911	H191	0.425540	0.386950	0.865770
H1921	H192	0.471310	0.432360	0.796340
H1931	H193	0.666980	0.210610	0.950640
H1941	H194	0.582900	0.238420	0.979180
H1951	H195	0.708490	0.253740	0.881990
H1961	H196	0.735570	0.242410	0.842030
H1971	H197	0.666980	0.329170	0.838190
H1981	H198	0.693940	0.317970	0.798490
H1991	H199	0.610900	0.341070	0.775610
H2001	H200	0.658350	0.325490	0.759510
H2011	H201	0.524080	0.257300	0.908020
H2021	H202	0.546900	0.214520	0.933760
H2031	H203	0.558950	0.229280	0.843630
H2041	H204	0.581310	0.187110	0.868980
Cr251	Cr25	0.135770	0.966160	0.305770
Cr261	Cr26	0.943440	0.890370	0.446520
C3491	C349	0.827600	0.789080	0.680560
C3501	C350	0.888980	0.850450	0.523040
C3511	C351	0.873970	0.835450	0.544610
C3521	C352	0.933210	0.844790	0.399460
C3531	C353	0.937730	0.867800	0.419370
C3541	C354	0.939110	0.843590	0.418960
C3551	C355	0.945420	0.819320	0.438300
C3561	C356	0.064060	0.041630	0.292740
C3571	C357	0.090640	0.996950	0.287420
C3581	C358	0.067820	0.022050	0.285060
C3591	C359	0.048550	0.026100	0.276780
C3601	C360	0.087030	0.982010	0.386110
C3611	C361	0.105960	0.950390	0.361960
C3621	C362	0.091300	0.957600	0.386400
C3631	C363	0.073190	0.988480	0.409150
C3641	C364	0.046900	0.978010	0.457700
C3651	C365	0.063250	0.970730	0.433280
C3661	C366	0.081490	0.939840	0.410570
C3671	C367	0.067780	0.946260	0.433530
C3681	C368	0.965750	0.927360	0.477880
C3691	C369	0.974800	0.936370	0.487240
C3701	C370	0.927760	0.008060	0.350500
C3711	C371	0.908340	0.976960	0.393000
C3721	C372	0.910280	0.003280	0.376310
C3731	C373	0.931110	0.032500	0.335770
C3741	C374	0.172040	0.917430	0.328620
C3751	C375	0.917010	0.052530	0.346610
C3761	C376	0.895620	0.023620	0.386690
C3771	C377	0.898890	0.047870	0.372060
O2051	O205	0.824410	0.788970	0.638760
O2061	O206	0.916730	0.881170	0.477350
O2071	O207	0.841990	0.806480	0.586300
O2081	O208	0.943630	0.866300	0.436800
O2091	O209	0.889180	0.930310	0.402270
O2101	O210	0.106590	0.993740	0.296480
O2111	O211	0.157150	0.969020	0.270540
O2121	O212	0.116040	0.966100	0.340630
O2131	O213	0.107950	0.928510	0.363530
O2141	O214	0.042030	0.000730	0.456640
O2151	O215	0.037820	0.961330	0.478570
O2161	O216	0.946210	0.910740	0.458600
O2171	O217	0.991990	0.956540	0.503960
O2181	O218	0.918880	0.959840	0.382380
O2191	O219	0.972540	0.896680	0.417360
O2201	O220	0.165900	0.941450	0.314920
O2211	O221	0.092630	0.910930	0.345860
H2051	H205	0.842710	0.773780	0.672530
H2061	H206	0.909630	0.840830	0.514850
H2071	H207	0.883510	0.814710	0.552510
H2081	H208	0.928260	0.863050	0.384230
H2091	H209	0.950010	0.817640	0.453660
H2101	H210	0.078240	0.039390	0.299360
H2111	H211	0.050500	0.011580	0.270820
H2121	H212	0.094210	0.996260	0.368010
H2131	H213	0.070020	0.007590	0.407970
H2141	H214	0.084330	0.920830	0.411810
H2151	H215	0.060390	0.932030	0.451510
H2161	H216	0.977580	0.908930	0.474390
H2171	H217	0.993350	0.924510	0.490490
H2181	H218	0.939410	0.992700	0.341980
H2191	H219	0.945170	0.035480	0.316240
H2201	H220	0.881860	0.020720	0.406370
H2211	H221	0.887400	0.062890	0.381020
Cr271	Cr27	0.966160	0.135770	0.592300
Cr281	Cr28	0.890370	0.943440	0.719660
C3781	C378	0.789080	0.827600	0.702770
C3791	C379	0.850450	0.888980	0.737530
C3801	C380	0.835450	0.873970	0.745970
C3811	C381	0.844790	0.933210	0.822540
C3821	C382	0.867800	0.937730	0.775110
C3831	C383	0.843590	0.939110	0.798330
C3841	C384	0.819320	0.945420	0.796960
C3851	C385	0.041630	0.064060	0.601570
C3861	C386	0.996950	0.090640	0.624990
C3871	C387	0.022050	0.067820	0.625060
C3881	C388	0.026100	0.048550	0.648570
C3891	C389	0.982010	0.087030	0.544840
C3901	C390	0.950390	0.105960	0.581690
C3911	C391	0.957600	0.091300	0.564700
C3921	C392	0.988480	0.073190	0.529170
C3931	C393	0.978010	0.046900	0.517390
C3941	C394	0.970730	0.063250	0.532740
C3951	C395	0.939840	0.081490	0.568100
C3961	C396	0.946260	0.067780	0.552430
C3971	C397	0.927360	0.965750	0.629010
C3981	C398	0.936370	0.974800	0.601590
C3991	C399	0.008060	0.927760	0.713680
C4001	C400	0.976960	0.908340	0.721700
C4011	C401	0.003280	0.910280	0.710130
C4021	C402	0.032500	0.931110	0.700620
C4031	C403	0.917430	0.172040	0.581920
C4041	C404	0.052530	0.917010	0.683850
C4051	C405	0.023620	0.895620	0.694080
C4061	C406	0.047870	0.898890	0.681190
O2221	O222	0.788970	0.824410	0.747860
O2231	O223	0.881170	0.916730	0.724750
O2241	O224	0.806480	0.841990	0.765230
O2251	O225	0.866300	0.943630	0.753270
O2261	O226	0.930310	0.889180	0.778240
O2271	O227	0.993740	0.106590	0.603190
O2281	O228	0.969020	0.157150	0.603300
O2291	O229	0.966100	0.116040	0.577230
O2301	O230	0.928510	0.107950	0.600000
O2311	O231	0.000730	0.042030	0.500600
O2321	O232	0.961330	0.037820	0.522290
O2331	O233	0.910740	0.946210	0.684440
O2341	O234	0.956540	0.991990	0.547510
O2351	O235	0.959840	0.918880	0.738890
O2361	O236	0.896680	0.972540	0.713430
O2371	O237	0.941450	0.165900	0.577730
O2381	O238	0.910930	0.092630	0.650570
H2221	H222	0.773780	0.842710	0.710980
H2231	H223	0.840830	0.909630	0.734680
H2241	H224	0.814710	0.883510	0.749270
H2251	H225	0.863050	0.928260	0.824460
H2261	H226	0.817640	0.950010	0.778690
H2271	H227	0.039390	0.078240	0.583020
H2281	H228	0.011580	0.050500	0.667100
H2291	H229	0.996260	0.094210	0.541510
H2301	H230	0.007590	0.070020	0.514430
H2311	H231	0.920830	0.084330	0.583020
H2321	H232	0.932030	0.060390	0.556060
H2331	H233	0.908930	0.977580	0.639100
H2341	H234	0.924510	0.993350	0.591650
H2351	H235	0.992700	0.939410	0.725920
H2361	H236	0.035480	0.945170	0.703100
H2371	H237	0.020720	0.881860	0.691050
H2381	H238	0.062890	0.887400	0.668690
Cr291	Cr29	0.592300	0.305770	0.966160
Cr301	Cr30	0.719660	0.446520	0.890370
C4071	C407	0.702770	0.680560	0.789080
C4081	C408	0.737530	0.523040	0.850450
C4091	C409	0.745970	0.544610	0.835450
C4101	C410	0.822540	0.399460	0.844790
C4111	C411	0.775110	0.419370	0.867800
C4121	C412	0.798330	0.418960	0.843590
C4131	C413	0.796960	0.438300	0.819320
C4141	C414	0.601570	0.292740	0.041630
C4151	C415	0.624990	0.287420	0.996950
C4161	C416	0.625060	0.285060	0.022050
C4171	C417	0.648570	0.276780	0.026100
C4181	C418	0.544840	0.386110	0.982010
C4191	C419	0.581690	0.361960	0.950390
C4201	C420	0.564700	0.386400	0.957600
C4211	C421	0.529170	0.409150	0.988480
C4221	C422	0.517390	0.457700	0.978010
C4231	C423	0.532740	0.433280	0.970730
C4241	C424	0.568100	0.410570	0.939840
C4251	C425	0.552430	0.433530	0.946260
C4261	C426	0.629010	0.477880	0.927360
C4271	C427	0.601590	0.487240	0.936370
C4281	C428	0.713680	0.350500	0.008060
C4291	C429	0.721700	0.393000	0.976960
C4301	C430	0.710130	0.376310	0.003280
C4311	C431	0.700620	0.335770	0.032500
C4321	C432	0.581920	0.328620	0.917430
C4331	C433	0.683850	0.346610	0.052530
C4341	C434	0.694080	0.386690	0.023620
C4351	C435	0.681190	0.372060	0.047870
O2391	O239	0.747860	0.638760	0.788970
O2401	O240	0.724750	0.477350	0.881170
O2411	O241	0.765230	0.586300	0.806480
O2421	O242	0.753270	0.436800	0.866300
O2431	O243	0.778240	0.402270	0.930310
O2441	O244	0.603190	0.296480	0.993740
O2451	O245	0.603300	0.270540	0.969020
O2461	O246	0.577230	0.340630	0.966100
O2471	O247	0.600000	0.363530	0.928510
O2481	O248	0.500600	0.456640	0.000730
O2491	O249	0.522290	0.478570	0.961330
O2501	O250	0.684440	0.458600	0.910740
O2511	O251	0.547510	0.503960	0.956540
O2521	O252	0.738890	0.382380	0.959840
O2531	O253	0.713430	0.417360	0.896680
O2541	O254	0.577730	0.314920	0.941450
O2551	O255	0.650570	0.345860	0.910930
H2391	H239	0.710980	0.672530	0.773780
H2401	H240	0.734680	0.514850	0.840830
H2411	H241	0.749270	0.552510	0.814710
H2421	H242	0.824460	0.384230	0.863050
H2431	H243	0.778690	0.453660	0.817640
H2441	H244	0.583020	0.299360	0.039390
H2451	H245	0.667100	0.270820	0.011580
H2461	H246	0.541510	0.368010	0.996260
H2471	H247	0.514430	0.407970	0.007590
H2481	H248	0.583020	0.411810	0.920830
H2491	H249	0.556060	0.451510	0.932030
H2501	H250	0.639100	0.474390	0.908930
H2511	H251	0.591650	0.490490	0.924510
H2521	H252	0.725920	0.341980	0.992700
H2531	H253	0.703100	0.316240	0.035480
H2541	H254	0.691050	0.406370	0.020720
H2551	H255	0.668690	0.381020	0.062890
Cr311	Cr31	0.305770	0.592300	0.135770
Cr321	Cr32	0.446520	0.719660	0.943440
C4361	C436	0.680560	0.702770	0.827600
C4371	C437	0.523040	0.737530	0.888980
C4381	C438	0.544610	0.745970	0.873970
C4391	C439	0.399460	0.822540	0.933210
C4401	C440	0.419370	0.775110	0.937730
C4411	C441	0.418960	0.798330	0.939110
C4421	C442	0.438300	0.796960	0.945420
C4431	C443	0.292740	0.601570	0.064060
C4441	C444	0.287420	0.624990	0.090640
C4451	C445	0.285060	0.625060	0.067820
C4461	C446	0.276780	0.648570	0.048550
C4471	C447	0.386110	0.544840	0.087030
C4481	C448	0.361960	0.581690	0.105960
C4491	C449	0.386400	0.564700	0.091300
C4501	C450	0.409150	0.529170	0.073190
C4511	C451	0.457700	0.517390	0.046900
C4521	C452	0.433280	0.532740	0.063250
C4531	C453	0.410570	0.568100	0.081490
C4541	C454	0.433530	0.552430	0.067780
C4551	C455	0.477880	0.629010	0.965750
C4561	C456	0.487240	0.601590	0.974800
C4571	C457	0.350500	0.713680	0.927760
C4581	C458	0.393000	0.721700	0.908340
C4591	C459	0.376310	0.710130	0.910280
C4601	C460	0.335770	0.700620	0.931110
C4611	C461	0.328620	0.581920	0.172040
C4621	C462	0.346610	0.683850	0.917010
C4631	C463	0.386690	0.694080	0.895620
C4641	C464	0.372060	0.681190	0.898890
O2561	O256	0.638760	0.747860	0.824410
O2571	O257	0.477350	0.724750	0.916730
O2581	O258	0.586300	0.765230	0.841990
O2591	O259	0.436800	0.753270	0.943630
O2601	O260	0.402270	0.778240	0.889180
O2611	O261	0.296480	0.603190	0.106590
O2621	O262	0.270540	0.603300	0.157150
O2631	O263	0.340630	0.577230	0.116040
O2641	O264	0.363530	0.600000	0.107950
O2651	O265	0.456640	0.500600	0.042030
O2661	O266	0.478570	0.522290	0.037820
O2671	O267	0.458600	0.684440	0.946210
O2681	O268	0.503960	0.547510	0.991990
O2691	O269	0.382380	0.738890	0.918880
O2701	O270	0.417360	0.713430	0.972540
O2711	O271	0.314920	0.577730	0.165900
O2721	O272	0.345860	0.650570	0.092630
H2561	H256	0.672530	0.710980	0.842710
H2571	H257	0.514850	0.734680	0.909630
H2581	H258	0.552510	0.749270	0.883510
H2591	H259	0.384230	0.824460	0.928260
H2601	H260	0.453660	0.778690	0.950010
H2611	H261	0.299360	0.583020	0.078240
H2621	H262	0.270820	0.667100	0.050500
H2631	H263	0.368010	0.541510	0.094210
H2641	H264	0.407970	0.514430	0.070020
H2651	H265	0.411810	0.583020	0.084330
H2661	H266	0.451510	0.556060	0.060390
H2671	H267	0.474390	0.639100	0.977580
H2681	H268	0.490490	0.591650	0.993350
H2691	H269	0.341980	0.725920	0.939410
H2701	H270	0.316240	0.703100	0.945170
H2711	H271	0.406370	0.691050	0.881860
H2721	H272	0.381020	0.668690	0.887400
Cr331	Cr33	0.592300	0.135770	0.305770
Cr341	Cr34	0.719660	0.943440	0.446520
C4651	C465	0.702770	0.827600	0.680560
C4661	C466	0.737530	0.888980	0.523040
C4671	C467	0.745970	0.873970	0.544610
C4681	C468	0.822540	0.933210	0.399460
C4691	C469	0.775110	0.937730	0.419370
C4701	C470	0.798330	0.939110	0.418960
C4711	C471	0.796960	0.945420	0.438300
C4721	C472	0.601570	0.064060	0.292740
C4731	C473	0.624990	0.090640	0.287420
C4741	C474	0.625060	0.067820	0.285060
C4751	C475	0.648570	0.048550	0.276780
C4761	C476	0.544840	0.087030	0.386110
C4771	C477	0.581690	0.105960	0.361960
C4781	C478	0.564700	0.091300	0.386400
C4791	C479	0.529170	0.073190	0.409150
C4801	C480	0.517390	0.046900	0.457700
C4811	C481	0.532740	0.063250	0.433280
C4821	C482	0.568100	0.081490	0.410570
C4831	C483	0.552430	0.067780	0.433530
C4841	C484	0.629010	0.965750	0.477880
C4851	C485	0.601590	0.974800	0.487240
C4861	C486	0.713680	0.927760	0.350500
C4871	C487	0.721700	0.908340	0.393000
C4881	C488	0.710130	0.910280	0.376310
C4891	C489	0.700620	0.931110	0.335770
C4901	C490	0.581920	0.172040	0.328620
C4911	C491	0.683850	0.917010	0.346610
C4921	C492	0.694080	0.895620	0.386690
C4931	C493	0.681190	0.898890	0.372060
O2731	O273	0.747860	0.824410	0.638760
O2741	O274	0.724750	0.916730	0.477350
O2751	O275	0.765230	0.841990	0.586300
O2761	O276	0.753270	0.943630	0.436800
O2771	O277	0.778240	0.889180	0.402270
O2781	O278	0.603190	0.106590	0.296480
O2791	O279	0.603300	0.157150	0.270540
O2801	O280	0.577230	0.116040	0.340630
O2811	O281	0.600000	0.107950	0.363530
O2821	O282	0.500600	0.042030	0.456640
O2831	O283	0.522290	0.037820	0.478570
O2841	O284	0.684440	0.946210	0.458600
O2851	O285	0.547510	0.991990	0.503960
O2861	O286	0.738890	0.918880	0.382380
O2871	O287	0.713430	0.972540	0.417360
O2881	O288	0.577730	0.165900	0.314920
O2891	O289	0.650570	0.092630	0.345860
H2731	H273	0.710980	0.842710	0.672530
H2741	H274	0.734680	0.909630	0.514850
H2751	H275	0.749270	0.883510	0.552510
H2761	H276	0.824460	0.928260	0.384230
H2771	H277	0.778690	0.950010	0.453660
H2781	H278	0.583020	0.078240	0.299360
H2791	H279	0.667100	0.050500	0.270820
H2801	H280	0.541510	0.094210	0.368010
H2811	H281	0.514430	0.070020	0.407970
H2821	H282	0.583020	0.084330	0.411810
H2831	H283	0.556060	0.060390	0.451510
H2841	H284	0.639100	0.977580	0.474390
H2851	H285	0.591650	0.993350	0.490490
H2861	H286	0.725920	0.939410	0.341980
H2871	H287	0.703100	0.945170	0.316240
H2881	H288	0.691050	0.881860	0.406370
H2891	H289	0.668690	0.887400	0.381020
Cr351	Cr35	0.305770	0.966160	0.592300
Cr361	Cr36	0.446520	0.890370	0.719660
C4941	C494	0.680560	0.789080	0.702770
C4951	C495	0.523040	0.850450	0.737530
C4961	C496	0.544610	0.835450	0.745970
C4971	C497	0.399460	0.844790	0.822540
C4981	C498	0.419370	0.867800	0.775110
C4991	C499	0.418960	0.843590	0.798330
C5001	C500	0.438300	0.819320	0.796960
C5011	C501	0.292740	0.041630	0.601570
C5021	C502	0.287420	0.996950	0.624990
C5031	C503	0.285060	0.022050	0.625060
C5041	C504	0.276780	0.026100	0.648570
C5051	C505	0.386110	0.982010	0.544840
C5061	C506	0.361960	0.950390	0.581690
C5071	C507	0.386400	0.957600	0.564700
C5081	C508	0.409150	0.988480	0.529170
C5091	C509	0.457700	0.978010	0.517390
C5101	C510	0.433280	0.970730	0.532740
C5111	C511	0.410570	0.939840	0.568100
C5121	C512	0.433530	0.946260	0.552430
C5131	C513	0.477880	0.927360	0.629010
C5141	C514	0.487240	0.936370	0.601590
C5151	C515	0.350500	0.008060	0.713680
C5161	C516	0.393000	0.976960	0.721700
C5171	C517	0.376310	0.003280	0.710130
C5181	C518	0.335770	0.032500	0.700620
C5191	C519	0.328620	0.917430	0.581920
C5201	C520	0.346610	0.052530	0.683850
C5211	C521	0.386690	0.023620	0.694080
C5221	C522	0.372060	0.047870	0.681190
O2901	O290	0.638760	0.788970	0.747860
O2911	O291	0.477350	0.881170	0.724750
O2921	O292	0.586300	0.806480	0.765230
O2931	O293	0.436800	0.866300	0.753270
O2941	O294	0.402270	0.930310	0.778240
O2951	O295	0.296480	0.993740	0.603190
O2961	O296	0.270540	0.969020	0.603300
O2971	O297	0.340630	0.966100	0.577230
O2981	O298	0.363530	0.928510	0.600000
O2991	O299	0.456640	0.000730	0.500600
O3001	O300	0.478570	0.961330	0.522290
O3011	O301	0.458600	0.910740	0.684440
O3021	O302	0.503960	0.956540	0.547510
O3031	O303	0.382380	0.959840	0.738890
O3041	O304	0.417360	0.896680	0.713430
O3051	O305	0.314920	0.941450	0.577730
O3061	O306	0.345860	0.910930	0.650570
H2901	H290	0.672530	0.773780	0.710980
H2911	H291	0.514850	0.840830	0.734680
H2921	H292	0.552510	0.814710	0.749270
H2931	H293	0.384230	0.863050	0.824460
H2941	H294	0.453660	0.817640	0.778690
H2951	H295	0.299360	0.039390	0.583020
H2961	H296	0.270820	0.011580	0.667100
H2971	H297	0.368010	0.996260	0.541510
H2981	H298	0.407970	0.007590	0.514430
H2991	H299	0.411810	0.920830	0.583020
H3001	H300	0.451510	0.932030	0.556060
H3011	H301	0.474390	0.908930	0.639100
H3021	H302	0.490490	0.924510	0.591650
H3031	H303	0.341980	0.992700	0.725920
H3041	H304	0.316240	0.035480	0.703100
H3051	H305	0.406370	0.020720	0.691050
H3061	H306	0.381020	0.062890	0.668690
Cr371	Cr37	0.135770	0.592300	0.966160
Cr381	Cr38	0.943440	0.719660	0.890370
C5231	C523	0.827600	0.702770	0.789080
C5241	C524	0.888980	0.737530	0.850450
C5251	C525	0.873970	0.745970	0.835450
C5261	C526	0.933210	0.822540	0.844790
C5271	C527	0.937730	0.775110	0.867800
C5281	C528	0.939110	0.798330	0.843590
C5291	C529	0.945420	0.796960	0.819320
C5301	C530	0.064060	0.601570	0.041630
C5311	C531	0.090640	0.624990	0.996950
C5321	C532	0.067820	0.625060	0.022050
C5331	C533	0.048550	0.648570	0.026100
C5341	C534	0.087030	0.544840	0.982010
C5351	C535	0.105960	0.581690	0.950390
C5361	C536	0.091300	0.564700	0.957600
C5371	C537	0.073190	0.529170	0.988480
C5381	C538	0.046900	0.517390	0.978010
C5391	C539	0.063250	0.532740	0.970730
C5401	C540	0.081490	0.568100	0.939840
C5411	C541	0.067780	0.552430	0.946260
C5421	C542	0.965750	0.629010	0.927360
C5431	C543	0.974800	0.601590	0.936370
C5441	C544	0.927760	0.713680	0.008060
C5451	C545	0.908340	0.721700	0.976960
C5461	C546	0.910280	0.710130	0.003280
C5471	C547	0.931110	0.700620	0.032500
C5481	C548	0.172040	0.581920	0.917430
C5491	C549	0.917010	0.683850	0.052530
C5501	C550	0.895620	0.694080	0.023620
C5511	C551	0.898890	0.681190	0.047870
O3071	O307	0.824410	0.747860	0.788970
O3081	O308	0.916730	0.724750	0.881170
O3091	O309	0.841990	0.765230	0.806480
O3101	O310	0.943630	0.753270	0.866300
O3111	O311	0.889180	0.778240	0.930310
O3121	O312	0.106590	0.603190	0.993740
O3131	O313	0.157150	0.603300	0.969020
O3141	O314	0.116040	0.577230	0.966100
O3151	O315	0.107950	0.600000	0.928510
O3161	O316	0.042030	0.500600	0.000730
O3171	O317	0.037820	0.522290	0.961330
O3181	O318	0.946210	0.684440	0.910740
O3191	O319	0.991990	0.547510	0.956540
O3201	O320	0.918880	0.738890	0.959840
O3211	O321	0.972540	0.713430	0.896680
O3221	O322	0.165900	0.577730	0.941450
O3231	O323	0.092630	0.650570	0.910930
H3071	H307	0.842710	0.710980	0.773780
H3081	H308	0.909630	0.734680	0.840830
H3091	H309	0.883510	0.749270	0.814710
H3101	H310	0.928260	0.824460	0.863050
H3111	H311	0.950010	0.778690	0.817640
H3121	H312	0.078240	0.583020	0.039390
H3131	H313	0.050500	0.667100	0.011580
H3141	H314	0.094210	0.541510	0.996260
H3151	H315	0.070020	0.514430	0.007590
H3161	H316	0.084330	0.583020	0.920830
H3171	H317	0.060390	0.556060	0.932030
H3181	H318	0.977580	0.639100	0.908930
H3191	H319	0.993350	0.591650	0.924510
H3201	H320	0.939410	0.725920	0.992700
H3211	H321	0.945170	0.703100	0.035480
H3221	H322	0.881860	0.691050	0.020720
H3231	H323	0.887400	0.668690	0.062890
Cr391	Cr39	0.966160	0.305770	0.135770
Cr401	Cr40	0.890370	0.446520	0.943440
C5521	C552	0.789080	0.680560	0.827600
C5531	C553	0.850450	0.523040	0.888980
C5541	C554	0.835450	0.544610	0.873970
C5551	C555	0.844790	0.399460	0.933210
C5561	C556	0.867800	0.419370	0.937730
C5571	C557	0.843590	0.418960	0.939110
C5581	C558	0.819320	0.438300	0.945420
C5591	C559	0.041630	0.292740	0.064060
C5601	C560	0.996950	0.287420	0.090640
C5611	C561	0.022050	0.285060	0.067820
C5621	C562	0.026100	0.276780	0.048550
C5631	C563	0.982010	0.386110	0.087030
C5641	C564	0.950390	0.361960	0.105960
C5651	C565	0.957600	0.386400	0.091300
C5661	C566	0.988480	0.409150	0.073190
C5671	C567	0.978010	0.457700	0.046900
C5681	C568	0.970730	0.433280	0.063250
C5691	C569	0.939840	0.410570	0.081490
C5701	C570	0.946260	0.433530	0.067780
C5711	C571	0.927360	0.477880	0.965750
C5721	C572	0.936370	0.487240	0.974800
C5731	C573	0.008060	0.350500	0.927760
C5741	C574	0.976960	0.393000	0.908340
C5751	C575	0.003280	0.376310	0.910280
C5761	C576	0.032500	0.335770	0.931110
C5771	C577	0.917430	0.328620	0.172040
C5781	C578	0.052530	0.346610	0.917010
C5791	C579	0.023620	0.386690	0.895620
C5801	C580	0.047870	0.372060	0.898890
O3241	O324	0.788970	0.638760	0.824410
O3251	O325	0.881170	0.477350	0.916730
O3261	O326	0.806480	0.586300	0.841990
O3271	O327	0.866300	0.436800	0.943630
O3281	O328	0.930310	0.402270	0.889180
O3291	O329	0.993740	0.296480	0.106590
O3301	O330	0.969020	0.270540	0.157150
O3311	O331	0.966100	0.340630	0.116040
O3321	O332	0.928510	0.363530	0.107950
O3331	O333	0.000730	0.456640	0.042030
O3341	O334	0.961330	0.478570	0.037820
O3351	O335	0.910740	0.458600	0.946210
O3361	O336	0.956540	0.503960	0.991990
O3371	O337	0.959840	0.382380	0.918880
O3381	O338	0.896680	0.417360	0.972540
O3391	O339	0.941450	0.314920	0.165900
O3401	O340	0.910930	0.345860	0.092630
H3241	H324	0.773780	0.672530	0.842710
H3251	H325	0.840830	0.514850	0.909630
H3261	H326	0.814710	0.552510	0.883510
H3271	H327	0.863050	0.384230	0.928260
H3281	H328	0.817640	0.453660	0.950010
H3291	H329	0.039390	0.299360	0.078240
H3301	H330	0.011580	0.270820	0.050500
H3311	H331	0.996260	0.368010	0.094210
H3321	H332	0.007590	0.407970	0.070020
H3331	H333	0.920830	0.411810	0.084330
H3341	H334	0.932030	0.451510	0.060390
H3351	H335	0.908930	0.474390	0.977580
H3361	H336	0.924510	0.490490	0.993350
H3371	H337	0.992700	0.341980	0.939410
H3381	H338	0.035480	0.316240	0.945170
H3391	H339	0.020720	0.406370	0.881860
H3401	H340	0.062890	0.381020	0.887400
Cr411	Cr41	0.966160	0.592300	0.305770
Cr421	Cr42	0.890370	0.719660	0.446520
C5811	C581	0.789080	0.702770	0.680560
C5821	C582	0.850450	0.737530	0.523040
C5831	C583	0.835450	0.745970	0.544610
C5841	C584	0.844790	0.822540	0.399460
C5851	C585	0.867800	0.775110	0.419370
C5861	C586	0.843590	0.798330	0.418960
C5871	C587	0.819320	0.796960	0.438300
C5881	C588	0.041630	0.601570	0.292740
C5891	C589	0.996950	0.624990	0.287420
C5901	C590	0.022050	0.625060	0.285060
C5911	C591	0.026100	0.648570	0.276780
C5921	C592	0.982010	0.544840	0.386110
C5931	C593	0.950390	0.581690	0.361960
C5941	C594	0.957600	0.564700	0.386400
C5951	C595	0.988480	0.529170	0.409150
C5961	C596	0.978010	0.517390	0.457700
C5971	C597	0.970730	0.532740	0.433280
C5981	C598	0.939840	0.568100	0.410570
C5991	C599	0.946260	0.552430	0.433530
C6001	C600	0.927360	0.629010	0.477880
C6011	C601	0.936370	0.601590	0.487240
C6021	C602	0.008060	0.713680	0.350500
C6031	C603	0.976960	0.721700	0.393000
C6041	C604	0.003280	0.710130	0.376310
C6051	C605	0.032500	0.700620	0.335770
C6061	C606	0.917430	0.581920	0.328620
C6071	C607	0.052530	0.683850	0.346610
C6081	C608	0.023620	0.694080	0.386690
C6091	C609	0.047870	0.681190	0.372060
O3411	O341	0.788970	0.747860	0.638760
O3421	O342	0.881170	0.724750	0.477350
O3431	O343	0.806480	0.765230	0.586300
O3441	O344	0.866300	0.753270	0.436800
O3451	O345	0.930310	0.778240	0.402270
O3461	O346	0.993740	0.603190	0.296480
O3471	O347	0.969020	0.603300	0.270540
O3481	O348	0.966100	0.577230	0.340630
O3491	O349	0.928510	0.600000	0.363530
O3501	O350	0.000730	0.500600	0.456640
O3511	O351	0.961330	0.522290	0.478570
O3521	O352	0.910740	0.684440	0.458600
O3531	O353	0.956540	0.547510	0.503960
O3541	O354	0.959840	0.738890	0.382380
O3551	O355	0.896680	0.713430	0.417360
O3561	O356	0.941450	0.577730	0.314920
O3571	O357	0.910930	0.650570	0.345860
H3411	H341	0.773780	0.710980	0.672530
H3421	H342	0.840830	0.734680	0.514850
H3431	H343	0.814710	0.749270	0.552510
H3441	H344	0.863050	0.824460	0.384230
H3451	H345	0.817640	0.778690	0.453660
H3461	H346	0.039390	0.583020	0.299360
H3471	H347	0.011580	0.667100	0.270820
H3481	H348	0.996260	0.541510	0.368010
H3491	H349	0.007590	0.514430	0.407970
H3501	H350	0.920830	0.583020	0.411810
H3511	H351	0.932030	0.556060	0.451510
H3521	H352	0.908930	0.639100	0.474390
H3531	H353	0.924510	0.591650	0.490490
H3541	H354	0.992700	0.725920	0.341980
H3551	H355	0.035480	0.703100	0.316240
H3561	H356	0.020720	0.691050	0.406370
H3571	H357	0.062890	0.668690	0.381020
Cr431	Cr43	0.135770	0.305770	0.592300
Cr441	Cr44	0.943440	0.446520	0.719660
C6101	C610	0.827600	0.680560	0.702770
C6111	C611	0.888980	0.523040	0.737530
C6121	C612	0.873970	0.544610	0.745970
C6131	C613	0.933210	0.399460	0.822540
C6141	C614	0.937730	0.419370	0.775110
C6151	C615	0.939110	0.418960	0.798330
C6161	C616	0.945420	0.438300	0.796960
C6171	C617	0.064060	0.292740	0.601570
C6181	C618	0.090640	0.287420	0.624990
C6191	C619	0.067820	0.285060	0.625060
C6201	C620	0.048550	0.276780	0.648570
C6211	C621	0.087030	0.386110	0.544840
C6221	C622	0.105960	0.361960	0.581690
C6231	C623	0.091300	0.386400	0.564700
C6241	C624	0.073190	0.409150	0.529170
C6251	C625	0.046900	0.457700	0.517390
C6261	C626	0.063250	0.433280	0.532740
C6271	C627	0.081490	0.410570	0.568100
C6281	C628	0.067780	0.433530	0.552430
C6291	C629	0.965750	0.477880	0.629010
C6301	C630	0.974800	0.487240	0.601590
C6311	C631	0.927760	0.350500	0.713680
C6321	C632	0.908340	0.393000	0.721700
C6331	C633	0.910280	0.376310	0.710130
C6341	C634	0.931110	0.335770	0.700620
C6351	C635	0.172040	0.328620	0.581920
C6361	C636	0.917010	0.346610	0.683850
C6371	C637	0.895620	0.386690	0.694080
C6381	C638	0.898890	0.372060	0.681190
O3581	O358	0.824410	0.638760	0.747860
O3591	O359	0.916730	0.477350	0.724750
O3601	O360	0.841990	0.586300	0.765230
O3611	O361	0.943630	0.436800	0.753270
O3621	O362	0.889180	0.402270	0.778240
O3631	O363	0.106590	0.296480	0.603190
O3641	O364	0.157150	0.270540	0.603300
O3651	O365	0.116040	0.340630	0.577230
O3661	O366	0.107950	0.363530	0.600000
O3671	O367	0.042030	0.456640	0.500600
O3681	O368	0.037820	0.478570	0.522290
O3691	O369	0.946210	0.458600	0.684440
O3701	O370	0.991990	0.503960	0.547510
O3711	O371	0.918880	0.382380	0.738890
O3721	O372	0.972540	0.417360	0.713430
O3731	O373	0.165900	0.314920	0.577730
O3741	O374	0.092630	0.345860	0.650570
H3581	H358	0.842710	0.672530	0.710980
H3591	H359	0.909630	0.514850	0.734680
H3601	H360	0.883510	0.552510	0.749270
H3611	H361	0.928260	0.384230	0.824460
H3621	H362	0.950010	0.453660	0.778690
H3631	H363	0.078240	0.299360	0.583020
H3641	H364	0.050500	0.270820	0.667100
H3651	H365	0.094210	0.368010	0.541510
H3661	H366	0.070020	0.407970	0.514430
H3671	H367	0.084330	0.411810	0.583020
H3681	H368	0.060390	0.451510	0.556060
H3691	H369	0.977580	0.474390	0.639100
H3701	H370	0.993350	0.490490	0.591650
H3711	H371	0.939410	0.341980	0.725920
H3721	H372	0.945170	0.316240	0.703100
H3731	H373	0.881860	0.406370	0.691050
H3741	H374	0.887400	0.381020	0.668690
Cr451	Cr45	0.305770	0.135770	0.966160
Cr461	Cr46	0.446520	0.943440	0.890370
C6391	C639	0.680560	0.827600	0.789080
C6401	C640	0.523040	0.888980	0.850450
C6411	C641	0.544610	0.873970	0.835450
C6421	C642	0.399460	0.933210	0.844790
C6431	C643	0.419370	0.937730	0.867800
C6441	C644	0.418960	0.939110	0.843590
C6451	C645	0.438300	0.945420	0.819320
C6461	C646	0.292740	0.064060	0.041630
C6471	C647	0.287420	0.090640	0.996950
C6481	C648	0.285060	0.067820	0.022050
C6491	C649	0.276780	0.048550	0.026100
C6501	C650	0.386110	0.087030	0.982010
C6511	C651	0.361960	0.105960	0.950390
C6521	C652	0.386400	0.091300	0.957600
C6531	C653	0.409150	0.073190	0.988480
C6541	C654	0.457700	0.046900	0.978010
C6551	C655	0.433280	0.063250	0.970730
C6561	C656	0.410570	0.081490	0.939840
C6571	C657	0.433530	0.067780	0.946260
C6581	C658	0.477880	0.965750	0.927360
C6591	C659	0.487240	0.974800	0.936370
C6601	C660	0.350500	0.927760	0.008060
C6611	C661	0.393000	0.908340	0.976960
C6621	C662	0.376310	0.910280	0.003280
C6631	C663	0.335770	0.931110	0.032500
C6641	C664	0.328620	0.172040	0.917430
C6651	C665	0.346610	0.917010	0.052530
C6661	C666	0.386690	0.895620	0.023620
C6671	C667	0.372060	0.898890	0.047870
O3751	O375	0.638760	0.824410	0.788970
O3761	O376	0.477350	0.916730	0.881170
O3771	O377	0.586300	0.841990	0.806480
O3781	O378	0.436800	0.943630	0.866300
O3791	O379	0.402270	0.889180	0.930310
O3801	O380	0.296480	0.106590	0.993740
O3811	O381	0.270540	0.157150	0.969020
O3821	O382	0.340630	0.116040	0.966100
O3831	O383	0.363530	0.107950	0.928510
O3841	O384	0.456640	0.042030	0.000730
O3851	O385	0.478570	0.037820	0.961330
O3861	O386	0.458600	0.946210	0.910740
O3871	O387	0.503960	0.991990	0.956540
O3881	O388	0.382380	0.918880	0.959840
O3891	O389	0.417360	0.972540	0.896680
O3901	O390	0.314920	0.165900	0.941450
O3911	O391	0.345860	0.092630	0.910930
H3751	H375	0.672530	0.842710	0.773780
H3761	H376	0.514850	0.909630	0.840830
H3771	H377	0.552510	0.883510	0.814710
H3781	H378	0.384230	0.928260	0.863050
H3791	H379	0.453660	0.950010	0.817640
H3801	H380	0.299360	0.078240	0.039390
H3811	H381	0.270820	0.050500	0.011580
H3821	H382	0.368010	0.094210	0.996260
H3831	H383	0.407970	0.070020	0.007590
H3841	H384	0.411810	0.084330	0.920830
H3851	H385	0.451510	0.060390	0.932030
H3861	H386	0.474390	0.977580	0.908930
H3871	H387	0.490490	0.993350	0.924510
H3881	H388	0.341980	0.939410	0.992700
H3891	H389	0.316240	0.945170	0.035480
H3901	H390	0.406370	0.881860	0.020720
H3911	H391	0.381020	0.887400	0.062890
Cr471	Cr47	0.592300	0.966160	0.135770
Cr481	Cr48	0.719660	0.890370	0.943440
C6681	C668	0.702770	0.789080	0.827600
C6691	C669	0.737530	0.850450	0.888980
C6701	C670	0.745970	0.835450	0.873970
C6711	C671	0.822540	0.844790	0.933210
C6721	C672	0.775110	0.867800	0.937730
C6731	C673	0.798330	0.843590	0.939110
C6741	C674	0.796960	0.819320	0.945420
C6751	C675	0.601570	0.041630	0.064060
C6761	C676	0.624990	0.996950	0.090640
C6771	C677	0.625060	0.022050	0.067820
C6781	C678	0.648570	0.026100	0.048550
C6791	C679	0.544840	0.982010	0.087030
C6801	C680	0.581690	0.950390	0.105960
C6811	C681	0.564700	0.957600	0.091300
C6821	C682	0.529170	0.988480	0.073190
C6831	C683	0.517390	0.978010	0.046900
C6841	C684	0.532740	0.970730	0.063250
C6851	C685	0.568100	0.939840	0.081490
C6861	C686	0.552430	0.946260	0.067780
C6871	C687	0.629010	0.927360	0.965750
C6881	C688	0.601590	0.936370	0.974800
C6891	C689	0.713680	0.008060	0.927760
C6901	C690	0.721700	0.976960	0.908340
C6911	C691	0.710130	0.003280	0.910280
C6921	C692	0.700620	0.032500	0.931110
C6931	C693	0.581920	0.917430	0.172040
C6941	C694	0.683850	0.052530	0.917010
C6951	C695	0.694080	0.023620	0.895620
C6961	C696	0.681190	0.047870	0.898890
O3921	O392	0.747860	0.788970	0.824410
O3931	O393	0.724750	0.881170	0.916730
O3941	O394	0.765230	0.806480	0.841990
O3951	O395	0.753270	0.866300	0.943630
O3961	O396	0.778240	0.930310	0.889180
O3971	O397	0.603190	0.993740	0.106590
O3981	O398	0.603300	0.969020	0.157150
O3991	O399	0.577230	0.966100	0.116040
O4001	O400	0.600000	0.928510	0.107950
O4011	O401	0.500600	0.000730	0.042030
O4021	O402	0.522290	0.961330	0.037820
O4031	O403	0.684440	0.910740	0.946210
O4041	O404	0.547510	0.956540	0.991990
O4051	O405	0.738890	0.959840	0.918880
O4061	O406	0.713430	0.896680	0.972540
O4071	O407	0.577730	0.941450	0.165900
O4081	O408	0.650570	0.910930	0.092630
H3921	H392	0.710980	0.773780	0.842710
H3931	H393	0.734680	0.840830	0.909630
H3941	H394	0.749270	0.814710	0.883510
H3951	H395	0.824460	0.863050	0.928260
H3961	H396	0.778690	0.817640	0.950010
H3971	H397	0.583020	0.039390	0.078240
H3981	H398	0.667100	0.011580	0.050500
H3991	H399	0.541510	0.996260	0.094210
H4001	H400	0.514430	0.007590	0.070020
H4011	H401	0.583020	0.920830	0.084330
H4021	H402	0.556060	0.932030	0.060390
H4031	H403	0.639100	0.908930	0.977580
H4041	H404	0.591650	0.924510	0.993350
H4051	H405	0.725920	0.992700	0.939410
H4061	H406	0.703100	0.035480	0.945170
H4071	H407	0.691050	0.020720	0.881860
H4081	H408	0.668690	0.062890	0.887400
Cr491	Cr49	0.135770	0.966160	0.592300
Cr501	Cr50	0.943440	0.890370	0.719660
C6971	C697	0.827600	0.789080	0.702770
C6981	C698	0.888980	0.850450	0.737530
C6991	C699	0.873970	0.835450	0.745970
C7001	C700	0.933210	0.844790	0.822540
C7011	C701	0.937730	0.867800	0.775110
C7021	C702	0.939110	0.843590	0.798330
C7031	C703	0.945420	0.819320	0.796960
C7041	C704	0.064060	0.041630	0.601570
C7051	C705	0.090640	0.996950	0.624990
C7061	C706	0.067820	0.022050	0.625060
C7071	C707	0.048550	0.026100	0.648570
C7081	C708	0.087030	0.982010	0.544840
C7091	C709	0.105960	0.950390	0.581690
C7101	C710	0.091300	0.957600	0.564700
C7111	C711	0.073190	0.988480	0.529170
C7121	C712	0.046900	0.978010	0.517390
C7131	C713	0.063250	0.970730	0.532740
C7141	C714	0.081490	0.939840	0.568100
C7151	C715	0.067780	0.946260	0.552430
C7161	C716	0.965750	0.927360	0.629010
C7171	C717	0.974800	0.936370	0.601590
C7181	C718	0.927760	0.008060	0.713680
C7191	C719	0.908340	0.976960	0.721700
C7201	C720	0.910280	0.003280	0.710130
C7211	C721	0.931110	0.032500	0.700620
C7221	C722	0.172040	0.917430	0.581920
C7231	C723	0.917010	0.052530	0.683850
C7241	C724	0.895620	0.023620	0.694080
C7251	C725	0.898890	0.047870	0.681190
O4091	O409	0.824410	0.788970	0.747860
O4101	O410	0.916730	0.881170	0.724750
O4111	O411	0.841990	0.806480	0.765230
O4121	O412	0.943630	0.866300	0.753270
O4131	O413	0.889180	0.930310	0.778240
O4141	O414	0.106590	0.993740	0.603190
O4151	O415	0.157150	0.969020	0.603300
O4161	O416	0.116040	0.966100	0.577230
O4171	O417	0.107950	0.928510	0.600000
O4181	O418	0.042030	0.000730	0.500600
O4191	O419	0.037820	0.961330	0.522290
O4201	O420	0.946210	0.910740	0.684440
O4211	O421	0.991990	0.956540	0.547510
O4221	O422	0.918880	0.959840	0.738890
O4231	O423	0.972540	0.896680	0.713430
O4241	O424	0.165900	0.941450	0.577730
O4251	O425	0.092630	0.910930	0.650570
H4091	H409	0.842710	0.773780	0.710980
H4101	H410	0.909630	0.840830	0.734680
H4111	H411	0.883510	0.814710	0.749270
H4121	H412	0.928260	0.863050	0.824460
H4131	H413	0.950010	0.817640	0.778690
H4141	H414	0.078240	0.039390	0.583020
H4151	H415	0.050500	0.011580	0.667100
H4161	H416	0.094210	0.996260	0.541510
H4171	H417	0.070020	0.007590	0.514430
H4181	H418	0.084330	0.920830	0.583020
H4191	H419	0.060390	0.932030	0.556060
H4201	H420	0.977580	0.908930	0.639100
H4211	H421	0.993350	0.924510	0.591650
H4221	H422	0.939410	0.992700	0.725920
H4231	H423	0.945170	0.035480	0.703100
H4241	H424	0.881860	0.020720	0.691050
H4251	H425	0.887400	0.062890	0.668690
Cr511	Cr51	0.966160	0.135770	0.305770
Cr521	Cr52	0.890370	0.943440	0.446520
C7261	C726	0.789080	0.827600	0.680560
C7271	C727	0.850450	0.888980	0.523040
C7281	C728	0.835450	0.873970	0.544610
C7291	C729	0.844790	0.933210	0.399460
C7301	C730	0.867800	0.937730	0.419370
C7311	C731	0.843590	0.939110	0.418960
C7321	C732	0.819320	0.945420	0.438300
C7331	C733	0.041630	0.064060	0.292740
C7341	C734	0.996950	0.090640	0.287420
C7351	C735	0.022050	0.067820	0.285060
C7361	C736	0.026100	0.048550	0.276780
C7371	C737	0.982010	0.087030	0.386110
C7381	C738	0.950390	0.105960	0.361960
C7391	C739	0.957600	0.091300	0.386400
C7401	C740	0.988480	0.073190	0.409150
C7411	C741	0.978010	0.046900	0.457700
C7421	C742	0.970730	0.063250	0.433280
C7431	C743	0.939840	0.081490	0.410570
C7441	C744	0.946260	0.067780	0.433530
C7451	C745	0.927360	0.965750	0.477880
C7461	C746	0.936370	0.974800	0.487240
C7471	C747	0.008060	0.927760	0.350500
C7481	C748	0.976960	0.908340	0.393000
C7491	C749	0.003280	0.910280	0.376310
C7501	C750	0.032500	0.931110	0.335770
C7511	C751	0.917430	0.172040	0.328620
C7521	C752	0.052530	0.917010	0.346610
C7531	C753	0.023620	0.895620	0.386690
C7541	C754	0.047870	0.898890	0.372060
O4261	O426	0.788970	0.824410	0.638760
O4271	O427	0.881170	0.916730	0.477350
O4281	O428	0.806480	0.841990	0.586300
O4291	O429	0.866300	0.943630	0.436800
O4301	O430	0.930310	0.889180	0.402270
O4311	O431	0.993740	0.106590	0.296480
O4321	O432	0.969020	0.157150	0.270540
O4331	O433	0.966100	0.116040	0.340630
O4341	O434	0.928510	0.107950	0.363530
O4351	O435	0.000730	0.042030	0.456640
O4361	O436	0.961330	0.037820	0.478570
O4371	O437	0.910740	0.946210	0.458600
O4381	O438	0.956540	0.991990	0.503960
O4391	O439	0.959840	0.918880	0.382380
O4401	O440	0.896680	0.972540	0.417360
O4411	O441	0.941450	0.165900	0.314920
O4421	O442	0.910930	0.092630	0.345860
H4261	H426	0.773780	0.842710	0.672530
H4271	H427	0.840830	0.909630	0.514850
H4281	H428	0.814710	0.883510	0.552510
H4291	H429	0.863050	0.928260	0.384230
H4301	H430	0.817640	0.950010	0.453660
H4311	H431	0.039390	0.078240	0.299360
H4321	H432	0.011580	0.050500	0.270820
H4331	H433	0.996260	0.094210	0.368010
H4341	H434	0.007590	0.070020	0.407970
H4351	H435	0.920830	0.084330	0.411810
H4361	H436	0.932030	0.060390	0.451510
H4371	H437	0.908930	0.977580	0.474390
H4381	H438	0.924510	0.993350	0.490490
H4391	H439	0.992700	0.939410	0.341980
H4401	H440	0.035480	0.945170	0.316240
H4411	H441	0.020720	0.881860	0.406370
H4421	H442	0.062890	0.887400	0.381020
Cr531	Cr53	0.592300	0.305770	0.135770
Cr541	Cr54	0.719660	0.446520	0.943440
C7551	C755	0.702770	0.680560	0.827600
C7561	C756	0.737530	0.523040	0.888980
C7571	C757	0.745970	0.544610	0.873970
C7581	C758	0.822540	0.399460	0.933210
C7591	C759	0.775110	0.419370	0.937730
C7601	C760	0.798330	0.418960	0.939110
C7611	C761	0.796960	0.438300	0.945420
C7621	C762	0.601570	0.292740	0.064060
C7631	C763	0.624990	0.287420	0.090640
C7641	C764	0.625060	0.285060	0.067820
C7651	C765	0.648570	0.276780	0.048550
C7661	C766	0.544840	0.386110	0.087030
C7671	C767	0.581690	0.361960	0.105960
C7681	C768	0.564700	0.386400	0.091300
C7691	C769	0.529170	0.409150	0.073190
C7701	C770	0.517390	0.457700	0.046900
C7711	C771	0.532740	0.433280	0.063250
C7721	C772	0.568100	0.410570	0.081490
C7731	C773	0.552430	0.433530	0.067780
C7741	C774	0.629010	0.477880	0.965750
C7751	C775	0.601590	0.487240	0.974800
C7761	C776	0.713680	0.350500	0.927760
C7771	C777	0.721700	0.393000	0.908340
C7781	C778	0.710130	0.376310	0.910280
C7791	C779	0.700620	0.335770	0.931110
C7801	C780	0.581920	0.328620	0.172040
C7811	C781	0.683850	0.346610	0.917010
C7821	C782	0.694080	0.386690	0.895620
C7831	C783	0.681190	0.372060	0.898890
O4431	O443	0.747860	0.638760	0.824410
O4441	O444	0.724750	0.477350	0.916730
O4451	O445	0.765230	0.586300	0.841990
O4461	O446	0.753270	0.436800	0.943630
O4471	O447	0.778240	0.402270	0.889180
O4481	O448	0.603190	0.296480	0.106590
O4491	O449	0.603300	0.270540	0.157150
O4501	O450	0.577230	0.340630	0.116040
O4511	O451	0.600000	0.363530	0.107950
O4521	O452	0.500600	0.456640	0.042030
O4531	O453	0.522290	0.478570	0.037820
O4541	O454	0.684440	0.458600	0.946210
O4551	O455	0.547510	0.503960	0.991990
O4561	O456	0.738890	0.382380	0.918880
O4571	O457	0.713430	0.417360	0.972540
O4581	O458	0.577730	0.314920	0.165900
O4591	O459	0.650570	0.345860	0.092630
H4431	H443	0.710980	0.672530	0.842710
H4441	H444	0.734680	0.514850	0.909630
H4451	H445	0.749270	0.552510	0.883510
H4461	H446	0.824460	0.384230	0.928260
H4471	H447	0.778690	0.453660	0.950010
H4481	H448	0.583020	0.299360	0.078240
H4491	H449	0.667100	0.270820	0.050500
H4501	H450	0.541510	0.368010	0.094210
H4511	H451	0.514430	0.407970	0.070020
H4521	H452	0.583020	0.411810	0.084330
H4531	H453	0.556060	0.451510	0.060390
H4541	H454	0.639100	0.474390	0.977580
H4551	H455	0.591650	0.490490	0.993350
H4561	H456	0.725920	0.341980	0.939410
H4571	H457	0.703100	0.316240	0.945170
H4581	H458	0.691050	0.406370	0.881860
H4591	H459	0.668690	0.381020	0.887400
Cr551	Cr55	0.305770	0.592300	0.966160
Cr561	Cr56	0.446520	0.719660	0.890370
C7841	C784	0.680560	0.702770	0.789080
C7851	C785	0.523040	0.737530	0.850450
C7861	C786	0.544610	0.745970	0.835450
C7871	C787	0.399460	0.822540	0.844790
C7881	C788	0.419370	0.775110	0.867800
C7891	C789	0.418960	0.798330	0.843590
C7901	C790	0.438300	0.796960	0.819320
C7911	C791	0.292740	0.601570	0.041630
C7921	C792	0.287420	0.624990	0.996950
C7931	C793	0.285060	0.625060	0.022050
C7941	C794	0.276780	0.648570	0.026100
C7951	C795	0.386110	0.544840	0.982010
C7961	C796	0.361960	0.581690	0.950390
C7971	C797	0.386400	0.564700	0.957600
C7981	C798	0.409150	0.529170	0.988480
C7991	C799	0.457700	0.517390	0.978010
C8001	C800	0.433280	0.532740	0.970730
C8011	C801	0.410570	0.568100	0.939840
C8021	C802	0.433530	0.552430	0.946260
C8031	C803	0.477880	0.629010	0.927360
C8041	C804	0.487240	0.601590	0.936370
C8051	C805	0.350500	0.713680	0.008060
C8061	C806	0.393000	0.721700	0.976960
C8071	C807	0.376310	0.710130	0.003280
C8081	C808	0.335770	0.700620	0.032500
C8091	C809	0.328620	0.581920	0.917430
C8101	C810	0.346610	0.683850	0.052530
C8111	C811	0.386690	0.694080	0.023620
C8121	C812	0.372060	0.681190	0.047870
O4601	O460	0.638760	0.747860	0.788970
O4611	O461	0.477350	0.724750	0.881170
O4621	O462	0.586300	0.765230	0.806480
O4631	O463	0.436800	0.753270	0.866300
O4641	O464	0.402270	0.778240	0.930310
O4651	O465	0.296480	0.603190	0.993740
O4661	O466	0.270540	0.603300	0.969020
O4671	O467	0.340630	0.577230	0.966100
O4681	O468	0.363530	0.600000	0.928510
O4691	O469	0.456640	0.500600	0.000730
O4701	O470	0.478570	0.522290	0.961330
O4711	O471	0.458600	0.684440	0.910740
O4721	O472	0.503960	0.547510	0.956540
O4731	O473	0.382380	0.738890	0.959840
O4741	O474	0.417360	0.713430	0.896680
O4751	O475	0.314920	0.577730	0.941450
O4761	O476	0.345860	0.650570	0.910930
H4601	H460	0.672530	0.710980	0.773780
H4611	H461	0.514850	0.734680	0.840830
H4621	H462	0.552510	0.749270	0.814710
H4631	H463	0.384230	0.824460	0.863050
H4641	H464	0.453660	0.778690	0.817640
H4651	H465	0.299360	0.583020	0.039390
H4661	H466	0.270820	0.667100	0.011580
H4671	H467	0.368010	0.541510	0.996260
H4681	H468	0.407970	0.514430	0.007590
H4691	H469	0.411810	0.583020	0.920830
H4701	H470	0.451510	0.556060	0.932030
H4711	H471	0.474390	0.639100	0.908930
H4721	H472	0.490490	0.591650	0.924510
H4731	H473	0.341980	0.725920	0.992700
H4741	H474	0.316240	0.703100	0.035480
H4751	H475	0.406370	0.691050	0.020720
H4761	H476	0.381020	0.668690	0.062890
Cr571	Cr57	0.592300	0.135770	0.966160
Cr581	Cr58	0.719660	0.943440	0.890370
C8131	C813	0.702770	0.827600	0.789080
C8141	C814	0.737530	0.888980	0.850450
C8151	C815	0.745970	0.873970	0.835450
C8161	C816	0.822540	0.933210	0.844790
C8171	C817	0.775110	0.937730	0.867800
C8181	C818	0.798330	0.939110	0.843590
C8191	C819	0.796960	0.945420	0.819320
C8201	C820	0.601570	0.064060	0.041630
C8211	C821	0.624990	0.090640	0.996950
C8221	C822	0.625060	0.067820	0.022050
C8231	C823	0.648570	0.048550	0.026100
C8241	C824	0.544840	0.087030	0.982010
C8251	C825	0.581690	0.105960	0.950390
C8261	C826	0.564700	0.091300	0.957600
C8271	C827	0.529170	0.073190	0.988480
C8281	C828	0.517390	0.046900	0.978010
C8291	C829	0.532740	0.063250	0.970730
C8301	C830	0.568100	0.081490	0.939840
C8311	C831	0.552430	0.067780	0.946260
C8321	C832	0.629010	0.965750	0.927360
C8331	C833	0.601590	0.974800	0.936370
C8341	C834	0.713680	0.927760	0.008060
C8351	C835	0.721700	0.908340	0.976960
C8361	C836	0.710130	0.910280	0.003280
C8371	C837	0.700620	0.931110	0.032500
C8381	C838	0.581920	0.172040	0.917430
C8391	C839	0.683850	0.917010	0.052530
C8401	C840	0.694080	0.895620	0.023620
C8411	C841	0.681190	0.898890	0.047870
O4771	O477	0.747860	0.824410	0.788970
O4781	O478	0.724750	0.916730	0.881170
O4791	O479	0.765230	0.841990	0.806480
O4801	O480	0.753270	0.943630	0.866300
O4811	O481	0.778240	0.889180	0.930310
O4821	O482	0.603190	0.106590	0.993740
O4831	O483	0.603300	0.157150	0.969020
O4841	O484	0.577230	0.116040	0.966100
O4851	O485	0.600000	0.107950	0.928510
O4861	O486	0.500600	0.042030	0.000730
O4871	O487	0.522290	0.037820	0.961330
O4881	O488	0.684440	0.946210	0.910740
O4891	O489	0.547510	0.991990	0.956540
O4901	O490	0.738890	0.918880	0.959840
O4911	O491	0.713430	0.972540	0.896680
O4921	O492	0.577730	0.165900	0.941450
O4931	O493	0.650570	0.092630	0.910930
H4771	H477	0.710980	0.842710	0.773780
H4781	H478	0.734680	0.909630	0.840830
H4791	H479	0.749270	0.883510	0.814710
H4801	H480	0.824460	0.928260	0.863050
H4811	H481	0.778690	0.950010	0.817640
H4821	H482	0.583020	0.078240	0.039390
H4831	H483	0.667100	0.050500	0.011580
H4841	H484	0.541510	0.094210	0.996260
H4851	H485	0.514430	0.070020	0.007590
H4861	H486	0.583020	0.084330	0.920830
H4871	H487	0.556060	0.060390	0.932030
H4881	H488	0.639100	0.977580	0.908930
H4891	H489	0.591650	0.993350	0.924510
H4901	H490	0.725920	0.939410	0.992700
H4911	H491	0.703100	0.945170	0.035480
H4921	H492	0.691050	0.881860	0.020720
H4931	H493	0.668690	0.887400	0.062890
Cr591	Cr59	0.305770	0.966160	0.135770
Cr601	Cr60	0.446520	0.890370	0.943440
C8421	C842	0.680560	0.789080	0.827600
C8431	C843	0.523040	0.850450	0.888980
C8441	C844	0.544610	0.835450	0.873970
C8451	C845	0.399460	0.844790	0.933210
C8461	C846	0.419370	0.867800	0.937730
C8471	C847	0.418960	0.843590	0.939110
C8481	C848	0.438300	0.819320	0.945420
C8491	C849	0.292740	0.041630	0.064060
C8501	C850	0.287420	0.996950	0.090640
C8511	C851	0.285060	0.022050	0.067820
C8521	C852	0.276780	0.026100	0.048550
C8531	C853	0.386110	0.982010	0.087030
C8541	C854	0.361960	0.950390	0.105960
C8551	C855	0.386400	0.957600	0.091300
C8561	C856	0.409150	0.988480	0.073190
C8571	C857	0.457700	0.978010	0.046900
C8581	C858	0.433280	0.970730	0.063250
C8591	C859	0.410570	0.939840	0.081490
C8601	C860	0.433530	0.946260	0.067780
C8611	C861	0.477880	0.927360	0.965750
C8621	C862	0.487240	0.936370	0.974800
C8631	C863	0.350500	0.008060	0.927760
C8641	C864	0.393000	0.976960	0.908340
C8651	C865	0.376310	0.003280	0.910280
C8661	C866	0.335770	0.032500	0.931110
C8671	C867	0.328620	0.917430	0.172040
C8681	C868	0.346610	0.052530	0.917010
C8691	C869	0.386690	0.023620	0.895620
C8701	C870	0.372060	0.047870	0.898890
O4941	O494	0.638760	0.788970	0.824410
O4951	O495	0.477350	0.881170	0.916730
O4961	O496	0.586300	0.806480	0.841990
O4971	O497	0.436800	0.866300	0.943630
O4981	O498	0.402270	0.930310	0.889180
O4991	O499	0.296480	0.993740	0.106590
O5001	O500	0.270540	0.969020	0.157150
O5011	O501	0.340630	0.966100	0.116040
O5021	O502	0.363530	0.928510	0.107950
O5031	O503	0.456640	0.000730	0.042030
O5041	O504	0.478570	0.961330	0.037820
O5051	O505	0.458600	0.910740	0.946210
O5061	O506	0.503960	0.956540	0.991990
O5071	O507	0.382380	0.959840	0.918880
O5081	O508	0.417360	0.896680	0.972540
O5091	O509	0.314920	0.941450	0.165900
O5101	O510	0.345860	0.910930	0.092630
H4941	H494	0.672530	0.773780	0.842710
H4951	H495	0.514850	0.840830	0.909630
H4961	H496	0.552510	0.814710	0.883510
H4971	H497	0.384230	0.863050	0.928260
H4981	H498	0.453660	0.817640	0.950010
H4991	H499	0.299360	0.039390	0.078240
H5001	H500	0.270820	0.011580	0.050500
H5011	H501	0.368010	0.996260	0.094210
H5021	H502	0.407970	0.007590	0.070020
H5031	H503	0.411810	0.920830	0.084330
H5041	H504	0.451510	0.932030	0.060390
H5051	H505	0.474390	0.908930	0.977580
H5061	H506	0.490490	0.924510	0.993350
H5071	H507	0.341980	0.992700	0.939410
H5081	H508	0.316240	0.035480	0.945170
H5091	H509	0.406370	0.020720	0.881860
H5101	H510	0.381020	0.062890	0.887400
Cr611	Cr61	0.135770	0.592300	0.305770
Cr621	Cr62	0.943440	0.719660	0.446520
C8711	C871	0.827600	0.702770	0.680560
C8721	C872	0.888980	0.737530	0.523040
C8731	C873	0.873970	0.745970	0.544610
C8741	C874	0.933210	0.822540	0.399460
C8751	C875	0.937730	0.775110	0.419370
C8761	C876	0.939110	0.798330	0.418960
C8771	C877	0.945420	0.796960	0.438300
C8781	C878	0.064060	0.601570	0.292740
C8791	C879	0.090640	0.624990	0.287420
C8801	C880	0.067820	0.625060	0.285060
C8811	C881	0.048550	0.648570	0.276780
C8821	C882	0.087030	0.544840	0.386110
C8831	C883	0.105960	0.581690	0.361960
C8841	C884	0.091300	0.564700	0.386400
C8851	C885	0.073190	0.529170	0.409150
C8861	C886	0.046900	0.517390	0.457700
C8871	C887	0.063250	0.532740	0.433280
C8881	C888	0.081490	0.568100	0.410570
C8891	C889	0.067780	0.552430	0.433530
C8901	C890	0.965750	0.629010	0.477880
C8911	C891	0.974800	0.601590	0.487240
C8921	C892	0.927760	0.713680	0.350500
C8931	C893	0.908340	0.721700	0.393000
C8941	C894	0.910280	0.710130	0.376310
C8951	C895	0.931110	0.700620	0.335770
C8961	C896	0.172040	0.581920	0.328620
C8971	C897	0.917010	0.683850	0.346610
C8981	C898	0.895620	0.694080	0.386690
C8991	C899	0.898890	0.681190	0.372060
O5111	O511	0.824410	0.747860	0.638760
O5121	O512	0.916730	0.724750	0.477350
O5131	O513	0.841990	0.765230	0.586300
O5141	O514	0.943630	0.753270	0.436800
O5151	O515	0.889180	0.778240	0.402270
O5161	O516	0.106590	0.603190	0.296480
O5171	O517	0.157150	0.603300	0.270540
O5181	O518	0.116040	0.577230	0.340630
O5191	O519	0.107950	0.600000	0.363530
O5201	O520	0.042030	0.500600	0.456640
O5211	O521	0.037820	0.522290	0.478570
O5221	O522	0.946210	0.684440	0.458600
O5231	O523	0.991990	0.547510	0.503960
O5241	O524	0.918880	0.738890	0.382380
O5251	O525	0.972540	0.713430	0.417360
O5261	O526	0.165900	0.577730	0.314920
O5271	O527	0.092630	0.650570	0.345860
H5111	H511	0.842710	0.710980	0.672530
H5121	H512	0.909630	0.734680	0.514850
H5131	H513	0.883510	0.749270	0.552510
H5141	H514	0.928260	0.824460	0.384230
H5151	H515	0.950010	0.778690	0.453660
H5161	H516	0.078240	0.583020	0.299360
H5171	H517	0.050500	0.667100	0.270820
H5181	H518	0.094210	0.541510	0.368010
H5191	H519	0.070020	0.514430	0.407970
H5201	H520	0.084330	0.583020	0.411810
H5211	H521	0.060390	0.556060	0.451510
H5221	H522	0.977580	0.639100	0.474390
H5231	H523	0.993350	0.591650	0.490490
H5241	H524	0.939410	0.725920	0.341980
H5251	H525	0.945170	0.703100	0.316240
H5261	H526	0.881860	0.691050	0.406370
H5271	H527	0.887400	0.668690	0.381020
Cr631	Cr63	0.966160	0.305770	0.592300
Cr641	Cr64	0.890370	0.446520	0.719660
C9001	C900	0.789080	0.680560	0.702770
C9011	C901	0.850450	0.523040	0.737530
C9021	C902	0.835450	0.544610	0.745970
C9031	C903	0.844790	0.399460	0.822540
C9041	C904	0.867800	0.419370	0.775110
C9051	C905	0.843590	0.418960	0.798330
C9061	C906	0.819320	0.438300	0.796960
C9071	C907	0.041630	0.292740	0.601570
C9081	C908	0.996950	0.287420	0.624990
C9091	C909	0.022050	0.285060	0.625060
C9101	C910	0.026100	0.276780	0.648570
C9111	C911	0.982010	0.386110	0.544840
C9121	C912	0.950390	0.361960	0.581690
C9131	C913	0.957600	0.386400	0.564700
C9141	C914	0.988480	0.409150	0.529170
C9151	C915	0.978010	0.457700	0.517390
C9161	C916	0.970730	0.433280	0.532740
C9171	C917	0.939840	0.410570	0.568100
C9181	C918	0.946260	0.433530	0.552430
C9191	C919	0.927360	0.477880	0.629010
C9201	C920	0.936370	0.487240	0.601590
C9211	C921	0.008060	0.350500	0.713680
C9221	C922	0.976960	0.393000	0.721700
C9231	C923	0.003280	0.376310	0.710130
C9241	C924	0.032500	0.335770	0.700620
C9251	C925	0.917430	0.328620	0.581920
C9261	C926	0.052530	0.346610	0.683850
C9271	C927	0.023620	0.386690	0.694080
C9281	C928	0.047870	0.372060	0.681190
O5281	O528	0.788970	0.638760	0.747860
O5291	O529	0.881170	0.477350	0.724750
O5301	O530	0.806480	0.586300	0.765230
O5311	O531	0.866300	0.436800	0.753270
O5321	O532	0.930310	0.402270	0.778240
O5331	O533	0.993740	0.296480	0.603190
O5341	O534	0.969020	0.270540	0.603300
O5351	O535	0.966100	0.340630	0.577230
O5361	O536	0.928510	0.363530	0.600000
O5371	O537	0.000730	0.456640	0.500600
O5381	O538	0.961330	0.478570	0.522290
O5391	O539	0.910740	0.458600	0.684440
O5401	O540	0.956540	0.503960	0.547510
O5411	O541	0.959840	0.382380	0.738890
O5421	O542	0.896680	0.417360	0.713430
O5431	O543	0.941450	0.314920	0.577730
O5441	O544	0.910930	0.345860	0.650570
H5281	H528	0.773780	0.672530	0.710980
H5291	H529	0.840830	0.514850	0.734680
H5301	H530	0.814710	0.552510	0.749270
H5311	H531	0.863050	0.384230	0.824460
H5321	H532	0.817640	0.453660	0.778690
H5331	H533	0.039390	0.299360	0.583020
H5341	H534	0.011580	0.270820	0.667100
H5351	H535	0.996260	0.368010	0.541510
H5361	H536	0.007590	0.407970	0.514430
H5371	H537	0.920830	0.411810	0.583020
H5381	H538	0.932030	0.451510	0.556060
H5391	H539	0.908930	0.474390	0.639100
H5401	H540	0.924510	0.490490	0.591650
H5411	H541	0.992700	0.341980	0.725920
H5421	H542	0.035480	0.316240	0.703100
H5431	H543	0.020720	0.406370	0.691050
H5441	H544	0.062890	0.381020	0.668690
Cr651	Cr65	0.966160	0.592300	0.135770
Cr661	Cr66	0.890370	0.719660	0.943440
C9291	C929	0.789080	0.702770	0.827600
C9301	C930	0.850450	0.737530	0.888980
C9311	C931	0.835450	0.745970	0.873970
C9321	C932	0.844790	0.822540	0.933210
C9331	C933	0.867800	0.775110	0.937730
C9341	C934	0.843590	0.798330	0.939110
C9351	C935	0.819320	0.796960	0.945420
C9361	C936	0.041630	0.601570	0.064060
C9371	C937	0.996950	0.624990	0.090640
C9381	C938	0.022050	0.625060	0.067820
C9391	C939	0.026100	0.648570	0.048550
C9401	C940	0.982010	0.544840	0.087030
C9411	C941	0.950390	0.581690	0.105960
C9421	C942	0.957600	0.564700	0.091300
C9431	C943	0.988480	0.529170	0.073190
C9441	C944	0.978010	0.517390	0.046900
C9451	C945	0.970730	0.532740	0.063250
C9461	C946	0.939840	0.568100	0.081490
C9471	C947	0.946260	0.552430	0.067780
C9481	C948	0.927360	0.629010	0.965750
C9491	C949	0.936370	0.601590	0.974800
C9501	C950	0.008060	0.713680	0.927760
C9511	C951	0.976960	0.721700	0.908340
C9521	C952	0.003280	0.710130	0.910280
C9531	C953	0.032500	0.700620	0.931110
C9541	C954	0.917430	0.581920	0.172040
C9551	C955	0.052530	0.683850	0.917010
C9561	C956	0.023620	0.694080	0.895620
C9571	C957	0.047870	0.681190	0.898890
O5451	O545	0.788970	0.747860	0.824410
O5461	O546	0.881170	0.724750	0.916730
O5471	O547	0.806480	0.765230	0.841990
O5481	O548	0.866300	0.753270	0.943630
O5491	O549	0.930310	0.778240	0.889180
O5501	O550	0.993740	0.603190	0.106590
O5511	O551	0.969020	0.603300	0.157150
O5521	O552	0.966100	0.577230	0.116040
O5531	O553	0.928510	0.600000	0.107950
O5541	O554	0.000730	0.500600	0.042030
O5551	O555	0.961330	0.522290	0.037820
O5561	O556	0.910740	0.684440	0.946210
O5571	O557	0.956540	0.547510	0.991990
O5581	O558	0.959840	0.738890	0.918880
O5591	O559	0.896680	0.713430	0.972540
O5601	O560	0.941450	0.577730	0.165900
O5611	O561	0.910930	0.650570	0.092630
H5451	H545	0.773780	0.710980	0.842710
H5461	H546	0.840830	0.734680	0.909630
H5471	H547	0.814710	0.749270	0.883510
H5481	H548	0.863050	0.824460	0.928260
H5491	H549	0.817640	0.778690	0.950010
H5501	H550	0.039390	0.583020	0.078240
H5511	H551	0.011580	0.667100	0.050500
H5521	H552	0.996260	0.541510	0.094210
H5531	H553	0.007590	0.514430	0.070020
H5541	H554	0.920830	0.583020	0.084330
H5551	H555	0.932030	0.556060	0.060390
H5561	H556	0.908930	0.639100	0.977580
H5571	H557	0.924510	0.591650	0.993350
H5581	H558	0.992700	0.725920	0.939410
H5591	H559	0.035480	0.703100	0.945170
H5601	H560	0.020720	0.691050	0.881860
H5611	H561	0.062890	0.668690	0.887400
Cr671	Cr67	0.135770	0.305770	0.966160
Cr681	Cr68	0.943440	0.446520	0.890370
C9581	C958	0.827600	0.680560	0.789080
C9591	C959	0.888980	0.523040	0.850450
C9601	C960	0.873970	0.544610	0.835450
C9611	C961	0.933210	0.399460	0.844790
C9621	C962	0.937730	0.419370	0.867800
C9631	C963	0.939110	0.418960	0.843590
C9641	C964	0.945420	0.438300	0.819320
C9651	C965	0.064060	0.292740	0.041630
C9661	C966	0.090640	0.287420	0.996950
C9671	C967	0.067820	0.285060	0.022050
C9681	C968	0.048550	0.276780	0.026100
C9691	C969	0.087030	0.386110	0.982010
C9701	C970	0.105960	0.361960	0.950390
C9711	C971	0.091300	0.386400	0.957600
C9721	C972	0.073190	0.409150	0.988480
C9731	C973	0.046900	0.457700	0.978010
C9741	C974	0.063250	0.433280	0.970730
C9751	C975	0.081490	0.410570	0.939840
C9761	C976	0.067780	0.433530	0.946260
C9771	C977	0.965750	0.477880	0.927360
C9781	C978	0.974800	0.487240	0.936370
C9791	C979	0.927760	0.350500	0.008060
C9801	C980	0.908340	0.393000	0.976960
C9811	C981	0.910280	0.376310	0.003280
C9821	C982	0.931110	0.335770	0.032500
C9831	C983	0.172040	0.328620	0.917430
C9841	C984	0.917010	0.346610	0.052530
C9851	C985	0.895620	0.386690	0.023620
C9861	C986	0.898890	0.372060	0.047870
O5621	O562	0.824410	0.638760	0.788970
O5631	O563	0.916730	0.477350	0.881170
O5641	O564	0.841990	0.586300	0.806480
O5651	O565	0.943630	0.436800	0.866300
O5661	O566	0.889180	0.402270	0.930310
O5671	O567	0.106590	0.296480	0.993740
O5681	O568	0.157150	0.270540	0.969020
O5691	O569	0.116040	0.340630	0.966100
O5701	O570	0.107950	0.363530	0.928510
O5711	O571	0.042030	0.456640	0.000730
O5721	O572	0.037820	0.478570	0.961330
O5731	O573	0.946210	0.458600	0.910740
O5741	O574	0.991990	0.503960	0.956540
O5751	O575	0.918880	0.382380	0.959840
O5761	O576	0.972540	0.417360	0.896680
O5771	O577	0.165900	0.314920	0.941450
O5781	O578	0.092630	0.345860	0.910930
H5621	H562	0.842710	0.672530	0.773780
H5631	H563	0.909630	0.514850	0.840830
H5641	H564	0.883510	0.552510	0.814710
H5651	H565	0.928260	0.384230	0.863050
H5661	H566	0.950010	0.453660	0.817640
H5671	H567	0.078240	0.299360	0.039390
H5681	H568	0.050500	0.270820	0.011580
H5691	H569	0.094210	0.368010	0.996260
H5701	H570	0.070020	0.407970	0.007590
H5711	H571	0.084330	0.411810	0.920830
H5721	H572	0.060390	0.451510	0.932030
H5731	H573	0.977580	0.474390	0.908930
H5741	H574	0.993350	0.490490	0.924510
H5751	H575	0.939410	0.341980	0.992700
H5761	H576	0.945170	0.316240	0.035480
H5771	H577	0.881860	0.406370	0.020720
H5781	H578	0.887400	0.381020	0.062890
Cr691	Cr69	0.305770	0.135770	0.592300
Cr701	Cr70	0.446520	0.943440	0.719660
C9871	C987	0.680560	0.827600	0.702770
C9881	C988	0.523040	0.888980	0.737530
C9891	C989	0.544610	0.873970	0.745970
C9901	C990	0.399460	0.933210	0.822540
C9911	C991	0.419370	0.937730	0.775110
C9921	C992	0.418960	0.939110	0.798330
C9931	C993	0.438300	0.945420	0.796960
C9941	C994	0.292740	0.064060	0.601570
C9951	C995	0.287420	0.090640	0.624990
C9961	C996	0.285060	0.067820	0.625060
C9971	C997	0.276780	0.048550	0.648570
C9981	C998	0.386110	0.087030	0.544840
C9991	C999	0.361960	0.105960	0.581690
C10001	C1000	0.386400	0.091300	0.564700
C10011	C1001	0.409150	0.073190	0.529170
C10021	C1002	0.457700	0.046900	0.517390
C10031	C1003	0.433280	0.063250	0.532740
C10041	C1004	0.410570	0.081490	0.568100
C10051	C1005	0.433530	0.067780	0.552430
C10061	C1006	0.477880	0.965750	0.629010
C10071	C1007	0.487240	0.974800	0.601590
C10081	C1008	0.350500	0.927760	0.713680
C10091	C1009	0.393000	0.908340	0.721700
C10101	C1010	0.376310	0.910280	0.710130
C10111	C1011	0.335770	0.931110	0.700620
C10121	C1012	0.328620	0.172040	0.581920
C10131	C1013	0.346610	0.917010	0.683850
C10141	C1014	0.386690	0.895620	0.694080
C10151	C1015	0.372060	0.898890	0.681190
O5791	O579	0.638760	0.824410	0.747860
O5801	O580	0.477350	0.916730	0.724750
O5811	O581	0.586300	0.841990	0.765230
O5821	O582	0.436800	0.943630	0.753270
O5831	O583	0.402270	0.889180	0.778240
O5841	O584	0.296480	0.106590	0.603190
O5851	O585	0.270540	0.157150	0.603300
O5861	O586	0.340630	0.116040	0.577230
O5871	O587	0.363530	0.107950	0.600000
O5881	O588	0.456640	0.042030	0.500600
O5891	O589	0.478570	0.037820	0.522290
O5901	O590	0.458600	0.946210	0.684440
O5911	O591	0.503960	0.991990	0.547510
O5921	O592	0.382380	0.918880	0.738890
O5931	O593	0.417360	0.972540	0.713430
O5941	O594	0.314920	0.165900	0.577730
O5951	O595	0.345860	0.092630	0.650570
H5791	H579	0.672530	0.842710	0.710980
H5801	H580	0.514850	0.909630	0.734680
H5811	H581	0.552510	0.883510	0.749270
H5821	H582	0.384230	0.928260	0.824460
H5831	H583	0.453660	0.950010	0.778690
H5841	H584	0.299360	0.078240	0.583020
H5851	H585	0.270820	0.050500	0.667100
H5861	H586	0.368010	0.094210	0.541510
H5871	H587	0.407970	0.070020	0.514430
H5881	H588	0.411810	0.084330	0.583020
H5891	H589	0.451510	0.060390	0.556060
H5901	H590	0.474390	0.977580	0.639100
H5911	H591	0.490490	0.993350	0.591650
H5921	H592	0.341980	0.939410	0.725920
H5931	H593	0.316240	0.945170	0.703100
H5941	H594	0.406370	0.881860	0.691050
H5951	H595	0.381020	0.887400	0.668690
Cr711	Cr71	0.592300	0.966160	0.305770
Cr721	Cr72	0.719660	0.890370	0.446520
C10161	C1016	0.702770	0.789080	0.680560
C10171	C1017	0.737530	0.850450	0.523040
C10181	C1018	0.745970	0.835450	0.544610
C10191	C1019	0.822540	0.844790	0.399460
C10201	C1020	0.775110	0.867800	0.419370
C10211	C1021	0.798330	0.843590	0.418960
C10221	C1022	0.796960	0.819320	0.438300
C10231	C1023	0.601570	0.041630	0.292740
C10241	C1024	0.624990	0.996950	0.287420
C10251	C1025	0.625060	0.022050	0.285060
C10261	C1026	0.648570	0.026100	0.276780
C10271	C1027	0.544840	0.982010	0.386110
C10281	C1028	0.581690	0.950390	0.361960
C10291	C1029	0.564700	0.957600	0.386400
C10301	C1030	0.529170	0.988480	0.409150
C10311	C1031	0.517390	0.978010	0.457700
C10321	C1032	0.532740	0.970730	0.433280
C10331	C1033	0.568100	0.939840	0.410570
C10341	C1034	0.552430	0.946260	0.433530
C10351	C1035	0.629010	0.927360	0.477880
C10361	C1036	0.601590	0.936370	0.487240
C10371	C1037	0.713680	0.008060	0.350500
C10381	C1038	0.721700	0.976960	0.393000
C10391	C1039	0.710130	0.003280	0.376310
C10401	C1040	0.700620	0.032500	0.335770
C10411	C1041	0.581920	0.917430	0.328620
C10421	C1042	0.683850	0.052530	0.346610
C10431	C1043	0.694080	0.023620	0.386690
C10441	C1044	0.681190	0.047870	0.372060
O5961	O596	0.747860	0.788970	0.638760
O5971	O597	0.724750	0.881170	0.477350
O5981	O598	0.765230	0.806480	0.586300
O5991	O599	0.753270	0.866300	0.436800
O6001	O600	0.778240	0.930310	0.402270
O6011	O601	0.603190	0.993740	0.296480
O6021	O602	0.603300	0.969020	0.270540
O6031	O603	0.577230	0.966100	0.340630
O6041	O604	0.600000	0.928510	0.363530
O6051	O605	0.500600	0.000730	0.456640
O6061	O606	0.522290	0.961330	0.478570
O6071	O607	0.684440	0.910740	0.458600
O6081	O608	0.547510	0.956540	0.503960
O6091	O609	0.738890	0.959840	0.382380
O6101	O610	0.713430	0.896680	0.417360
O6111	O611	0.577730	0.941450	0.314920
O6121	O612	0.650570	0.910930	0.345860
H5961	H596	0.710980	0.773780	0.672530
H5971	H597	0.734680	0.840830	0.514850
H5981	H598	0.749270	0.814710	0.552510
H5991	H599	0.824460	0.863050	0.384230
H6001	H600	0.778690	0.817640	0.453660
H6011	H601	0.583020	0.039390	0.299360
H6021	H602	0.667100	0.011580	0.270820
H6031	H603	0.541510	0.996260	0.368010
H6041	H604	0.514430	0.007590	0.407970
H6051	H605	0.583020	0.920830	0.411810
H6061	H606	0.556060	0.932030	0.451510
H6071	H607	0.639100	0.908930	0.474390
H6081	H608	0.591650	0.924510	0.490490
H6091	H609	0.725920	0.992700	0.341980
H6101	H610	0.703100	0.035480	0.316240
H6111	H611	0.691050	0.020720	0.406370
H6121	H612	0.668690	0.062890	0.381020
Cr731	Cr73	0.114230	0.283840	0.944230
Cr741	Cr74	0.306560	0.359630	0.803480
C10451	C1045	0.422400	0.460920	0.569440
C10461	C1046	0.361020	0.399550	0.726960
C10471	C1047	0.376030	0.414550	0.705390
C10481	C1048	0.316790	0.405210	0.850540
C10491	C1049	0.312270	0.382200	0.830630
C10501	C1050	0.310890	0.406410	0.831040
C10511	C1051	0.304580	0.430680	0.811700
C10521	C1052	0.185940	0.208370	0.957260
C10531	C1053	0.159360	0.253050	0.962580
C10541	C1054	0.182180	0.227950	0.964940
C10551	C1055	0.201450	0.223900	0.973220
C10561	C1056	0.162970	0.267990	0.863890
C10571	C1057	0.144040	0.299610	0.888040
C10581	C1058	0.158700	0.292400	0.863600
C10591	C1059	0.176810	0.261520	0.840850
C10601	C1060	0.203100	0.271990	0.792300
C10611	C1061	0.186750	0.279270	0.816720
C10621	C1062	0.168510	0.310160	0.839430
C10631	C1063	0.182220	0.303740	0.816470
C10641	C1064	0.284250	0.322640	0.772120
C10651	C1065	0.275200	0.313630	0.762760
C10661	C1066	0.322240	0.241940	0.899500
C10671	C1067	0.341660	0.273040	0.857000
C10681	C1068	0.339720	0.246720	0.873690
C10691	C1069	0.318890	0.217500	0.914230
C10701	C1070	0.077960	0.332570	0.921380
C10711	C1071	0.332990	0.197470	0.903390
C10721	C1072	0.354380	0.226380	0.863310
C10731	C1073	0.351110	0.202130	0.877940
O6131	O613	0.425590	0.461030	0.611240
O6141	O614	0.333270	0.368830	0.772650
O6151	O615	0.408010	0.443520	0.663700
O6161	O616	0.306370	0.383700	0.813200
O6171	O617	0.360820	0.319690	0.847730
O6181	O618	0.143410	0.256260	0.953520
O6191	O619	0.092850	0.280980	0.979460
O6201	O620	0.133960	0.283900	0.909370
O6211	O621	0.142050	0.321490	0.886470
O6221	O622	0.207970	0.249270	0.793360
O6231	O623	0.212180	0.288670	0.771430
O6241	O624	0.303790	0.339260	0.791400
O6251	O625	0.258010	0.293460	0.746040
O6261	O626	0.331120	0.290160	0.867620
O6271	O627	0.277460	0.353320	0.832640
O6281	O628	0.084100	0.308550	0.935080
O6291	O629	0.157370	0.339070	0.904140
H6131	H613	0.407290	0.476220	0.577470
H6141	H614	0.340370	0.409170	0.735150
H6151	H615	0.366490	0.435290	0.697490
H6161	H616	0.321740	0.386950	0.865770
H6171	H617	0.299990	0.432360	0.796340
H6181	H618	0.171760	0.210610	0.950640
H6191	H619	0.199500	0.238420	0.979180
H6201	H620	0.155790	0.253740	0.881990
H6211	H621	0.179980	0.242410	0.842030
H6221	H622	0.165670	0.329170	0.838190
H6231	H623	0.189610	0.317970	0.798490
H6241	H624	0.272420	0.341070	0.775610
H6251	H625	0.256650	0.325490	0.759510
H6261	H626	0.310590	0.257300	0.908020
H6271	H627	0.304830	0.214520	0.933760
H6281	H628	0.368140	0.229280	0.843630
H6291	H629	0.362600	0.187110	0.868980
Cr751	Cr75	0.283840	0.114230	0.657700
Cr761	Cr76	0.359630	0.306560	0.530340
C10741	C1074	0.460920	0.422400	0.547230
C10751	C1075	0.399550	0.361020	0.512470
C10761	C1076	0.414550	0.376030	0.504030
C10771	C1077	0.405210	0.316790	0.427460
C10781	C1078	0.382200	0.312270	0.474890
C10791	C1079	0.406410	0.310890	0.451670
C10801	C1080	0.430680	0.304580	0.453040
C10811	C1081	0.208370	0.185940	0.648430
C10821	C1082	0.253050	0.159360	0.625010
C10831	C1083	0.227950	0.182180	0.624940
C10841	C1084	0.223900	0.201450	0.601430
C10851	C1085	0.267990	0.162970	0.705160
C10861	C1086	0.299610	0.144040	0.668310
C10871	C1087	0.292400	0.158700	0.685300
C10881	C1088	0.261520	0.176810	0.720830
C10891	C1089	0.271990	0.203100	0.732610
C10901	C1090	0.279270	0.186750	0.717260
C10911	C1091	0.310160	0.168510	0.681900
C10921	C1092	0.303740	0.182220	0.697570
C10931	C1093	0.322640	0.284250	0.620990
C10941	C1094	0.313630	0.275200	0.648410
C10951	C1095	0.241940	0.322240	0.536320
C10961	C1096	0.273040	0.341660	0.528300
C10971	C1097	0.246720	0.339720	0.539870
C10981	C1098	0.217500	0.318890	0.549380
C10991	C1099	0.332570	0.077960	0.668080
C11001	C1100	0.197470	0.332990	0.566150
C11011	C1101	0.226380	0.354380	0.555920
C11021	C1102	0.202130	0.351110	0.568810
O6301	O630	0.461030	0.425590	0.502140
O6311	O631	0.368830	0.333270	0.525250
O6321	O632	0.443520	0.408010	0.484770
O6331	O633	0.383700	0.306370	0.496730
O6341	O634	0.319690	0.360820	0.471760
O6351	O635	0.256260	0.143410	0.646810
O6361	O636	0.280980	0.092850	0.646700
O6371	O637	0.283900	0.133960	0.672770
O6381	O638	0.321490	0.142050	0.650000
O6391	O639	0.249270	0.207970	0.749400
O6401	O640	0.288670	0.212180	0.727710
O6411	O641	0.339260	0.303790	0.565560
O6421	O642	0.293460	0.258010	0.702490
O6431	O643	0.290160	0.331120	0.511110
O6441	O644	0.353320	0.277460	0.536570
O6451	O645	0.308550	0.084100	0.672270
O6461	O646	0.339070	0.157370	0.599430
H6301	H630	0.476220	0.407290	0.539020
H6311	H631	0.409170	0.340370	0.515320
H6321	H632	0.435290	0.366490	0.500730
H6331	H633	0.386950	0.321740	0.425540
H6341	H634	0.432360	0.299990	0.471310
H6351	H635	0.210610	0.171760	0.666980
H6361	H636	0.238420	0.199500	0.582900
H6371	H637	0.253740	0.155790	0.708490
H6381	H638	0.242410	0.179980	0.735570
H6391	H639	0.329170	0.165670	0.666980
H6401	H640	0.317970	0.189610	0.693940
H6411	H641	0.341070	0.272420	0.610900
H6421	H642	0.325490	0.256650	0.658350
H6431	H643	0.257300	0.310590	0.524080
H6441	H644	0.214520	0.304830	0.546900
H6451	H645	0.229280	0.368140	0.558950
H6461	H646	0.187110	0.362600	0.581310
Cr771	Cr77	0.657700	0.944230	0.283840
Cr781	Cr78	0.530340	0.803480	0.359630
C11031	C1103	0.547230	0.569440	0.460920
C11041	C1104	0.512470	0.726960	0.399550
C11051	C1105	0.504030	0.705390	0.414550
C11061	C1106	0.427460	0.850540	0.405210
C11071	C1107	0.474890	0.830630	0.382200
C11081	C1108	0.451670	0.831040	0.406410
C11091	C1109	0.453040	0.811700	0.430680
C11101	C1110	0.648430	0.957260	0.208370
C11111	C1111	0.625010	0.962580	0.253050
C11121	C1112	0.624940	0.964940	0.227950
C11131	C1113	0.601430	0.973220	0.223900
C11141	C1114	0.705160	0.863890	0.267990
C11151	C1115	0.668310	0.888040	0.299610
C11161	C1116	0.685300	0.863600	0.292400
C11171	C1117	0.720830	0.840850	0.261520
C11181	C1118	0.732610	0.792300	0.271990
C11191	C1119	0.717260	0.816720	0.279270
C11201	C1120	0.681900	0.839430	0.310160
C11211	C1121	0.697570	0.816470	0.303740
C11221	C1122	0.620990	0.772120	0.322640
C11231	C1123	0.648410	0.762760	0.313630
C11241	C1124	0.536320	0.899500	0.241940
C11251	C1125	0.528300	0.857000	0.273040
C11261	C1126	0.539870	0.873690	0.246720
C11271	C1127	0.549380	0.914230	0.217500
C11281	C1128	0.668080	0.921380	0.332570
C11291	C1129	0.566150	0.903390	0.197470
C11301	C1130	0.555920	0.863310	0.226380
C11311	C1131	0.568810	0.877940	0.202130
O6471	O647	0.502140	0.611240	0.461030
O6481	O648	0.525250	0.772650	0.368830
O6491	O649	0.484770	0.663700	0.443520
O6501	O650	0.496730	0.813200	0.383700
O6511	O651	0.471760	0.847730	0.319690
O6521	O652	0.646810	0.953520	0.256260
O6531	O653	0.646700	0.979460	0.280980
O6541	O654	0.672770	0.909370	0.283900
O6551	O655	0.650000	0.886470	0.321490
O6561	O656	0.749400	0.793360	0.249270
O6571	O657	0.727710	0.771430	0.288670
O6581	O658	0.565560	0.791400	0.339260
O6591	O659	0.702490	0.746040	0.293460
O6601	O660	0.511110	0.867620	0.290160
O6611	O661	0.536570	0.832640	0.353320
O6621	O662	0.672270	0.935080	0.308550
O6631	O663	0.599430	0.904140	0.339070
H6471	H647	0.539020	0.577470	0.476220
H6481	H648	0.515320	0.735150	0.409170
H6491	H649	0.500730	0.697490	0.435290
H6501	H650	0.425540	0.865770	0.386950
H6511	H651	0.471310	0.796340	0.432360
H6521	H652	0.666980	0.950640	0.210610
H6531	H653	0.582900	0.979180	0.238420
H6541	H654	0.708490	0.881990	0.253740
H6551	H655	0.735570	0.842030	0.242410
H6561	H656	0.666980	0.838190	0.329170
H6571	H657	0.693940	0.798490	0.317970
H6581	H658	0.610900	0.775610	0.341070
H6591	H659	0.658350	0.759510	0.325490
H6601	H660	0.524080	0.908020	0.257300
H6611	H661	0.546900	0.933760	0.214520
H6621	H662	0.558950	0.843630	0.229280
H6631	H663	0.581310	0.868980	0.187110
Cr791	Cr79	0.944230	0.657700	0.114230
Cr801	Cr80	0.803480	0.530340	0.306560
C11321	C1132	0.569440	0.547230	0.422400
C11331	C1133	0.726960	0.512470	0.361020
C11341	C1134	0.705390	0.504030	0.376030
C11351	C1135	0.850540	0.427460	0.316790
C11361	C1136	0.830630	0.474890	0.312270
C11371	C1137	0.831040	0.451670	0.310890
C11381	C1138	0.811700	0.453040	0.304580
C11391	C1139	0.957260	0.648430	0.185940
C11401	C1140	0.962580	0.625010	0.159360
C11411	C1141	0.964940	0.624940	0.182180
C11421	C1142	0.973220	0.601430	0.201450
C11431	C1143	0.863890	0.705160	0.162970
C11441	C1144	0.888040	0.668310	0.144040
C11451	C1145	0.863600	0.685300	0.158700
C11461	C1146	0.840850	0.720830	0.176810
C11471	C1147	0.792300	0.732610	0.203100
C11481	C1148	0.816720	0.717260	0.186750
C11491	C1149	0.839430	0.681900	0.168510
C11501	C1150	0.816470	0.697570	0.182220
C11511	C1151	0.772120	0.620990	0.284250
C11521	C1152	0.762760	0.648410	0.275200
C11531	C1153	0.899500	0.536320	0.322240
C11541	C1154	0.857000	0.528300	0.341660
C11551	C1155	0.873690	0.539870	0.339720
C11561	C1156	0.914230	0.549380	0.318890
C11571	C1157	0.921380	0.668080	0.077960
C11581	C1158	0.903390	0.566150	0.332990
C11591	C1159	0.863310	0.555920	0.354380
C11601	C1160	0.877940	0.568810	0.351110
O6641	O664	0.611240	0.502140	0.425590
O6651	O665	0.772650	0.525250	0.333270
O6661	O666	0.663700	0.484770	0.408010
O6671	O667	0.813200	0.496730	0.306370
O6681	O668	0.847730	0.471760	0.360820
O6691	O669	0.953520	0.646810	0.143410
O6701	O670	0.979460	0.646700	0.092850
O6711	O671	0.909370	0.672770	0.133960
O6721	O672	0.886470	0.650000	0.142050
O6731	O673	0.793360	0.749400	0.207970
O6741	O674	0.771430	0.727710	0.212180
O6751	O675	0.791400	0.565560	0.303790
O6761	O676	0.746040	0.702490	0.258010
O6771	O677	0.867620	0.511110	0.331120
O6781	O678	0.832640	0.536570	0.277460
O6791	O679	0.935080	0.672270	0.084100
O6801	O680	0.904140	0.599430	0.157370
H6641	H664	0.577470	0.539020	0.407290
H6651	H665	0.735150	0.515320	0.340370
H6661	H666	0.697490	0.500730	0.366490
H6671	H667	0.865770	0.425540	0.321740
H6681	H668	0.796340	0.471310	0.299990
H6691	H669	0.950640	0.666980	0.171760
H6701	H670	0.979180	0.582900	0.199500
H6711	H671	0.881990	0.708490	0.155790
H6721	H672	0.842030	0.735570	0.179980
H6731	H673	0.838190	0.666980	0.165670
H6741	H674	0.798490	0.693940	0.189610
H6751	H675	0.775610	0.610900	0.272420
H6761	H676	0.759510	0.658350	0.256650
H6771	H677	0.908020	0.524080	0.310590
H6781	H678	0.933760	0.546900	0.304830
H6791	H679	0.843630	0.558950	0.368140
H6801	H680	0.868980	0.581310	0.362600
Cr811	Cr81	0.657700	0.114230	0.944230
Cr821	Cr82	0.530340	0.306560	0.803480
C11611	C1161	0.547230	0.422400	0.569440
C11621	C1162	0.512470	0.361020	0.726960
C11631	C1163	0.504030	0.376030	0.705390
C11641	C1164	0.427460	0.316790	0.850540
C11651	C1165	0.474890	0.312270	0.830630
C11661	C1166	0.451670	0.310890	0.831040
C11671	C1167	0.453040	0.304580	0.811700
C11681	C1168	0.648430	0.185940	0.957260
C11691	C1169	0.625010	0.159360	0.962580
C11701	C1170	0.624940	0.182180	0.964940
C11711	C1171	0.601430	0.201450	0.973220
C11721	C1172	0.705160	0.162970	0.863890
C11731	C1173	0.668310	0.144040	0.888040
C11741	C1174	0.685300	0.158700	0.863600
C11751	C1175	0.720830	0.176810	0.840850
C11761	C1176	0.732610	0.203100	0.792300
C11771	C1177	0.717260	0.186750	0.816720
C11781	C1178	0.681900	0.168510	0.839430
C11791	C1179	0.697570	0.182220	0.816470
C11801	C1180	0.620990	0.284250	0.772120
C11811	C1181	0.648410	0.275200	0.762760
C11821	C1182	0.536320	0.322240	0.899500
C11831	C1183	0.528300	0.341660	0.857000
C11841	C1184	0.539870	0.339720	0.873690
C11851	C1185	0.549380	0.318890	0.914230
C11861	C1186	0.668080	0.077960	0.921380
C11871	C1187	0.566150	0.332990	0.903390
C11881	C1188	0.555920	0.354380	0.863310
C11891	C1189	0.568810	0.351110	0.877940
O6811	O681	0.502140	0.425590	0.611240
O6821	O682	0.525250	0.333270	0.772650
O6831	O683	0.484770	0.408010	0.663700
O6841	O684	0.496730	0.306370	0.813200
O6851	O685	0.471760	0.360820	0.847730
O6861	O686	0.646810	0.143410	0.953520
O6871	O687	0.646700	0.092850	0.979460
O6881	O688	0.672770	0.133960	0.909370
O6891	O689	0.650000	0.142050	0.886470
O6901	O690	0.749400	0.207970	0.793360
O6911	O691	0.727710	0.212180	0.771430
O6921	O692	0.565560	0.303790	0.791400
O6931	O693	0.702490	0.258010	0.746040
O6941	O694	0.511110	0.331120	0.867620
O6951	O695	0.536570	0.277460	0.832640
O6961	O696	0.672270	0.084100	0.935080
O6971	O697	0.599430	0.157370	0.904140
H6811	H681	0.539020	0.407290	0.577470
H6821	H682	0.515320	0.340370	0.735150
H6831	H683	0.500730	0.366490	0.697490
H6841	H684	0.425540	0.321740	0.865770
H6851	H685	0.471310	0.299990	0.796340
H6861	H686	0.666980	0.171760	0.950640
H6871	H687	0.582900	0.199500	0.979180
H6881	H688	0.708490	0.155790	0.881990
H6891	H689	0.735570	0.179980	0.842030
H6901	H690	0.666980	0.165670	0.838190
H6911	H691	0.693940	0.189610	0.798490
H6921	H692	0.610900	0.272420	0.775610
H6931	H693	0.658350	0.256650	0.759510
H6941	H694	0.524080	0.310590	0.908020
H6951	H695	0.546900	0.304830	0.933760
H6961	H696	0.558950	0.368140	0.843630
H6971	H697	0.581310	0.362600	0.868980
Cr831	Cr83	0.944230	0.283840	0.657700
Cr841	Cr84	0.803480	0.359630	0.530340
C11901	C1190	0.569440	0.460920	0.547230
C11911	C1191	0.726960	0.399550	0.512470
C11921	C1192	0.705390	0.414550	0.504030
C11931	C1193	0.850540	0.405210	0.427460
C11941	C1194	0.830630	0.382200	0.474890
C11951	C1195	0.831040	0.406410	0.451670
C11961	C1196	0.811700	0.430680	0.453040
C11971	C1197	0.957260	0.208370	0.648430
C11981	C1198	0.962580	0.253050	0.625010
C11991	C1199	0.964940	0.227950	0.624940
C12001	C1200	0.973220	0.223900	0.601430
C12011	C1201	0.863890	0.267990	0.705160
C12021	C1202	0.888040	0.299610	0.668310
C12031	C1203	0.863600	0.292400	0.685300
C12041	C1204	0.840850	0.261520	0.720830
C12051	C1205	0.792300	0.271990	0.732610
C12061	C1206	0.816720	0.279270	0.717260
C12071	C1207	0.839430	0.310160	0.681900
C12081	C1208	0.816470	0.303740	0.697570
C12091	C1209	0.772120	0.322640	0.620990
C12101	C1210	0.762760	0.313630	0.648410
C12111	C1211	0.899500	0.241940	0.536320
C12121	C1212	0.857000	0.273040	0.528300
C12131	C1213	0.873690	0.246720	0.539870
C12141	C1214	0.914230	0.217500	0.549380
C12151	C1215	0.921380	0.332570	0.668080
C12161	C1216	0.903390	0.197470	0.566150
C12171	C1217	0.863310	0.226380	0.555920
C12181	C1218	0.877940	0.202130	0.568810
O6981	O698	0.611240	0.461030	0.502140
O6991	O699	0.772650	0.368830	0.525250
O7001	O700	0.663700	0.443520	0.484770
O7011	O701	0.813200	0.383700	0.496730
O7021	O702	0.847730	0.319690	0.471760
O7031	O703	0.953520	0.256260	0.646810
O7041	O704	0.979460	0.280980	0.646700
O7051	O705	0.909370	0.283900	0.672770
O7061	O706	0.886470	0.321490	0.650000
O7071	O707	0.793360	0.249270	0.749400
O7081	O708	0.771430	0.288670	0.727710
O7091	O709	0.791400	0.339260	0.565560
O7101	O710	0.746040	0.293460	0.702490
O7111	O711	0.867620	0.290160	0.511110
O7121	O712	0.832640	0.353320	0.536570
O7131	O713	0.935080	0.308550	0.672270
O7141	O714	0.904140	0.339070	0.599430
H6981	H698	0.577470	0.476220	0.539020
H6991	H699	0.735150	0.409170	0.515320
H7001	H700	0.697490	0.435290	0.500730
H7011	H701	0.865770	0.386950	0.425540
H7021	H702	0.796340	0.432360	0.471310
H7031	H703	0.950640	0.210610	0.666980
H7041	H704	0.979180	0.238420	0.582900
H7051	H705	0.881990	0.253740	0.708490
H7061	H706	0.842030	0.242410	0.735570
H7071	H707	0.838190	0.329170	0.666980
H7081	H708	0.798490	0.317970	0.693940
H7091	H709	0.775610	0.341070	0.610900
H7101	H710	0.759510	0.325490	0.658350
H7111	H711	0.908020	0.257300	0.524080
H7121	H712	0.933760	0.214520	0.546900
H7131	H713	0.843630	0.229280	0.558950
H7141	H714	0.868980	0.187110	0.581310
Cr851	Cr85	0.114230	0.657700	0.283840
Cr861	Cr86	0.306560	0.530340	0.359630
C12191	C1219	0.422400	0.547230	0.460920
C12201	C1220	0.361020	0.512470	0.399550
C12211	C1221	0.376030	0.504030	0.414550
C12221	C1222	0.316790	0.427460	0.405210
C12231	C1223	0.312270	0.474890	0.382200
C12241	C1224	0.310890	0.451670	0.406410
C12251	C1225	0.304580	0.453040	0.430680
C12261	C1226	0.185940	0.648430	0.208370
C12271	C1227	0.159360	0.625010	0.253050
C12281	C1228	0.182180	0.624940	0.227950
C12291	C1229	0.201450	0.601430	0.223900
C12301	C1230	0.162970	0.705160	0.267990
C12311	C1231	0.144040	0.668310	0.299610
C12321	C1232	0.158700	0.685300	0.292400
C12331	C1233	0.176810	0.720830	0.261520
C12341	C1234	0.203100	0.732610	0.271990
C12351	C1235	0.186750	0.717260	0.279270
C12361	C1236	0.168510	0.681900	0.310160
C12371	C1237	0.182220	0.697570	0.303740
C12381	C1238	0.284250	0.620990	0.322640
C12391	C1239	0.275200	0.648410	0.313630
C12401	C1240	0.322240	0.536320	0.241940
C12411	C1241	0.341660	0.528300	0.273040
C12421	C1242	0.339720	0.539870	0.246720
C12431	C1243	0.318890	0.549380	0.217500
C12441	C1244	0.077960	0.668080	0.332570
C12451	C1245	0.332990	0.566150	0.197470
C12461	C1246	0.354380	0.555920	0.226380
C12471	C1247	0.351110	0.568810	0.202130
O7151	O715	0.425590	0.502140	0.461030
O7161	O716	0.333270	0.525250	0.368830
O7171	O717	0.408010	0.484770	0.443520
O7181	O718	0.306370	0.496730	0.383700
O7191	O719	0.360820	0.471760	0.319690
O7201	O720	0.143410	0.646810	0.256260
O7211	O721	0.092850	0.646700	0.280980
O7221	O722	0.133960	0.672770	0.283900
O7231	O723	0.142050	0.650000	0.321490
O7241	O724	0.207970	0.749400	0.249270
O7251	O725	0.212180	0.727710	0.288670
O7261	O726	0.303790	0.565560	0.339260
O7271	O727	0.258010	0.702490	0.293460
O7281	O728	0.331120	0.511110	0.290160
O7291	O729	0.277460	0.536570	0.353320
O7301	O730	0.084100	0.672270	0.308550
O7311	O731	0.157370	0.599430	0.339070
H7151	H715	0.407290	0.539020	0.476220
H7161	H716	0.340370	0.515320	0.409170
H7171	H717	0.366490	0.500730	0.435290
H7181	H718	0.321740	0.425540	0.386950
H7191	H719	0.299990	0.471310	0.432360
H7201	H720	0.171760	0.666980	0.210610
H7211	H721	0.199500	0.582900	0.238420
H7221	H722	0.155790	0.708490	0.253740
H7231	H723	0.179980	0.735570	0.242410
H7241	H724	0.165670	0.666980	0.329170
H7251	H725	0.189610	0.693940	0.317970
H7261	H726	0.272420	0.610900	0.341070
H7271	H727	0.256650	0.658350	0.325490
H7281	H728	0.310590	0.524080	0.257300
H7291	H729	0.304830	0.546900	0.214520
H7301	H730	0.368140	0.558950	0.229280
H7311	H731	0.362600	0.581310	0.187110
Cr871	Cr87	0.283840	0.944230	0.114230
Cr881	Cr88	0.359630	0.803480	0.306560
C12481	C1248	0.460920	0.569440	0.422400
C12491	C1249	0.399550	0.726960	0.361020
C12501	C1250	0.414550	0.705390	0.376030
C12511	C1251	0.405210	0.850540	0.316790
C12521	C1252	0.382200	0.830630	0.312270
C12531	C1253	0.406410	0.831040	0.310890
C12541	C1254	0.430680	0.811700	0.304580
C12551	C1255	0.208370	0.957260	0.185940
C12561	C1256	0.253050	0.962580	0.159360
C12571	C1257	0.227950	0.964940	0.182180
C12581	C1258	0.223900	0.973220	0.201450
C12591	C1259	0.267990	0.863890	0.162970
C12601	C1260	0.299610	0.888040	0.144040
C12611	C1261	0.292400	0.863600	0.158700
C12621	C1262	0.261520	0.840850	0.176810
C12631	C1263	0.271990	0.792300	0.203100
C12641	C1264	0.279270	0.816720	0.186750
C12651	C1265	0.310160	0.839430	0.168510
C12661	C1266	0.303740	0.816470	0.182220
C12671	C1267	0.322640	0.772120	0.284250
C12681	C1268	0.313630	0.762760	0.275200
C12691	C1269	0.241940	0.899500	0.322240
C12701	C1270	0.273040	0.857000	0.341660
C12711	C1271	0.246720	0.873690	0.339720
C12721	C1272	0.217500	0.914230	0.318890
C12731	C1273	0.332570	0.921380	0.077960
C12741	C1274	0.197470	0.903390	0.332990
C12751	C1275	0.226380	0.863310	0.354380
C12761	C1276	0.202130	0.877940	0.351110
O7321	O732	0.461030	0.611240	0.425590
O7331	O733	0.368830	0.772650	0.333270
O7341	O734	0.443520	0.663700	0.408010
O7351	O735	0.383700	0.813200	0.306370
O7361	O736	0.319690	0.847730	0.360820
O7371	O737	0.256260	0.953520	0.143410
O7381	O738	0.280980	0.979460	0.092850
O7391	O739	0.283900	0.909370	0.133960
O7401	O740	0.321490	0.886470	0.142050
O7411	O741	0.249270	0.793360	0.207970
O7421	O742	0.288670	0.771430	0.212180
O7431	O743	0.339260	0.791400	0.303790
O7441	O744	0.293460	0.746040	0.258010
O7451	O745	0.290160	0.867620	0.331120
O7461	O746	0.353320	0.832640	0.277460
O7471	O747	0.308550	0.935080	0.084100
O7481	O748	0.339070	0.904140	0.157370
H7321	H732	0.476220	0.577470	0.407290
H7331	H733	0.409170	0.735150	0.340370
H7341	H734	0.435290	0.697490	0.366490
H7351	H735	0.386950	0.865770	0.321740
H7361	H736	0.432360	0.796340	0.299990
H7371	H737	0.210610	0.950640	0.171760
H7381	H738	0.238420	0.979180	0.199500
H7391	H739	0.253740	0.881990	0.155790
H7401	H740	0.242410	0.842030	0.179980
H7411	H741	0.329170	0.838190	0.165670
H7421	H742	0.317970	0.798490	0.189610
H7431	H743	0.341070	0.775610	0.272420
H7441	H744	0.325490	0.759510	0.256650
H7451	H745	0.257300	0.908020	0.310590
H7461	H746	0.214520	0.933760	0.304830
H7471	H747	0.229280	0.843630	0.368140
H7481	H748	0.187110	0.868980	0.362600
Cr891	Cr89	0.283840	0.657700	0.944230
Cr901	Cr90	0.359630	0.530340	0.803480
C12771	C1277	0.460920	0.547230	0.569440
C12781	C1278	0.399550	0.512470	0.726960
C12791	C1279	0.414550	0.504030	0.705390
C12801	C1280	0.405210	0.427460	0.850540
C12811	C1281	0.382200	0.474890	0.830630
C12821	C1282	0.406410	0.451670	0.831040
C12831	C1283	0.430680	0.453040	0.811700
C12841	C1284	0.208370	0.648430	0.957260
C12851	C1285	0.253050	0.625010	0.962580
C12861	C1286	0.227950	0.624940	0.964940
C12871	C1287	0.223900	0.601430	0.973220
C12881	C1288	0.267990	0.705160	0.863890
C12891	C1289	0.299610	0.668310	0.888040
C12901	C1290	0.292400	0.685300	0.863600
C12911	C1291	0.261520	0.720830	0.840850
C12921	C1292	0.271990	0.732610	0.792300
C12931	C1293	0.279270	0.717260	0.816720
C12941	C1294	0.310160	0.681900	0.839430
C12951	C1295	0.303740	0.697570	0.816470
C12961	C1296	0.322640	0.620990	0.772120
C12971	C1297	0.313630	0.648410	0.762760
C12981	C1298	0.241940	0.536320	0.899500
C12991	C1299	0.273040	0.528300	0.857000
C13001	C1300	0.246720	0.539870	0.873690
C13011	C1301	0.217500	0.549380	0.914230
C13021	C1302	0.332570	0.668080	0.921380
C13031	C1303	0.197470	0.566150	0.903390
C13041	C1304	0.226380	0.555920	0.863310
C13051	C1305	0.202130	0.568810	0.877940
O7491	O749	0.461030	0.502140	0.611240
O7501	O750	0.368830	0.525250	0.772650
O7511	O751	0.443520	0.484770	0.663700
O7521	O752	0.383700	0.496730	0.813200
O7531	O753	0.319690	0.471760	0.847730
O7541	O754	0.256260	0.646810	0.953520
O7551	O755	0.280980	0.646700	0.979460
O7561	O756	0.283900	0.672770	0.909370
O7571	O757	0.321490	0.650000	0.886470
O7581	O758	0.249270	0.749400	0.793360
O7591	O759	0.288670	0.727710	0.771430
O7601	O760	0.339260	0.565560	0.791400
O7611	O761	0.293460	0.702490	0.746040
O7621	O762	0.290160	0.511110	0.867620
O7631	O763	0.353320	0.536570	0.832640
O7641	O764	0.308550	0.672270	0.935080
O7651	O765	0.339070	0.599430	0.904140
H7491	H749	0.476220	0.539020	0.577470
H7501	H750	0.409170	0.515320	0.735150
H7511	H751	0.435290	0.500730	0.697490
H7521	H752	0.386950	0.425540	0.865770
H7531	H753	0.432360	0.471310	0.796340
H7541	H754	0.210610	0.666980	0.950640
H7551	H755	0.238420	0.582900	0.979180
H7561	H756	0.253740	0.708490	0.881990
H7571	H757	0.242410	0.735570	0.842030
H7581	H758	0.329170	0.666980	0.838190
H7591	H759	0.317970	0.693940	0.798490
H7601	H760	0.341070	0.610900	0.775610
H7611	H761	0.325490	0.658350	0.759510
H7621	H762	0.257300	0.524080	0.908020
H7631	H763	0.214520	0.546900	0.933760
H7641	H764	0.229280	0.558950	0.843630
H7651	H765	0.187110	0.581310	0.868980
Cr911	Cr91	0.114230	0.944230	0.657700
Cr921	Cr92	0.306560	0.803480	0.530340
C13061	C1306	0.422400	0.569440	0.547230
C13071	C1307	0.361020	0.726960	0.512470
C13081	C1308	0.376030	0.705390	0.504030
C13091	C1309	0.316790	0.850540	0.427460
C13101	C1310	0.312270	0.830630	0.474890
C13111	C1311	0.310890	0.831040	0.451670
C13121	C1312	0.304580	0.811700	0.453040
C13131	C1313	0.185940	0.957260	0.648430
C13141	C1314	0.159360	0.962580	0.625010
C13151	C1315	0.182180	0.964940	0.624940
C13161	C1316	0.201450	0.973220	0.601430
C13171	C1317	0.162970	0.863890	0.705160
C13181	C1318	0.144040	0.888040	0.668310
C13191	C1319	0.158700	0.863600	0.685300
C13201	C1320	0.176810	0.840850	0.720830
C13211	C1321	0.203100	0.792300	0.732610
C13221	C1322	0.186750	0.816720	0.717260
C13231	C1323	0.168510	0.839430	0.681900
C13241	C1324	0.182220	0.816470	0.697570
C13251	C1325	0.284250	0.772120	0.620990
C13261	C1326	0.275200	0.762760	0.648410
C13271	C1327	0.322240	0.899500	0.536320
C13281	C1328	0.341660	0.857000	0.528300
C13291	C1329	0.339720	0.873690	0.539870
C13301	C1330	0.318890	0.914230	0.549380
C13311	C1331	0.077960	0.921380	0.668080
C13321	C1332	0.332990	0.903390	0.566150
C13331	C1333	0.354380	0.863310	0.555920
C13341	C1334	0.351110	0.877940	0.568810
O7661	O766	0.425590	0.611240	0.502140
O7671	O767	0.333270	0.772650	0.525250
O7681	O768	0.408010	0.663700	0.484770
O7691	O769	0.306370	0.813200	0.496730
O7701	O770	0.360820	0.847730	0.471760
O7711	O771	0.143410	0.953520	0.646810
O7721	O772	0.092850	0.979460	0.646700
O7731	O773	0.133960	0.909370	0.672770
O7741	O774	0.142050	0.886470	0.650000
O7751	O775	0.207970	0.793360	0.749400
O7761	O776	0.212180	0.771430	0.727710
O7771	O777	0.303790	0.791400	0.565560
O7781	O778	0.258010	0.746040	0.702490
O7791	O779	0.331120	0.867620	0.511110
O7801	O780	0.277460	0.832640	0.536570
O7811	O781	0.084100	0.935080	0.672270
O7821	O782	0.157370	0.904140	0.599430
H7661	H766	0.407290	0.577470	0.539020
H7671	H767	0.340370	0.735150	0.515320
H7681	H768	0.366490	0.697490	0.500730
H7691	H769	0.321740	0.865770	0.425540
H7701	H770	0.299990	0.796340	0.471310
H7711	H771	0.171760	0.950640	0.666980
H7721	H772	0.199500	0.979180	0.582900
H7731	H773	0.155790	0.881990	0.708490
H7741	H774	0.179980	0.842030	0.735570
H7751	H775	0.165670	0.838190	0.666980
H7761	H776	0.189610	0.798490	0.693940
H7771	H777	0.272420	0.775610	0.610900
H7781	H778	0.256650	0.759510	0.658350
H7791	H779	0.310590	0.908020	0.524080
H7801	H780	0.304830	0.933760	0.546900
H7811	H781	0.368140	0.843630	0.558950
H7821	H782	0.362600	0.868980	0.581310
Cr931	Cr93	0.944230	0.114230	0.283840
Cr941	Cr94	0.803480	0.306560	0.359630
C13351	C1335	0.569440	0.422400	0.460920
C13361	C1336	0.726960	0.361020	0.399550
C13371	C1337	0.705390	0.376030	0.414550
C13381	C1338	0.850540	0.316790	0.405210
C13391	C1339	0.830630	0.312270	0.382200
C13401	C1340	0.831040	0.310890	0.406410
C13411	C1341	0.811700	0.304580	0.430680
C13421	C1342	0.957260	0.185940	0.208370
C13431	C1343	0.962580	0.159360	0.253050
C13441	C1344	0.964940	0.182180	0.227950
C13451	C1345	0.973220	0.201450	0.223900
C13461	C1346	0.863890	0.162970	0.267990
C13471	C1347	0.888040	0.144040	0.299610
C13481	C1348	0.863600	0.158700	0.292400
C13491	C1349	0.840850	0.176810	0.261520
C13501	C1350	0.792300	0.203100	0.271990
C13511	C1351	0.816720	0.186750	0.279270
C13521	C1352	0.839430	0.168510	0.310160
C13531	C1353	0.816470	0.182220	0.303740
C13541	C1354	0.772120	0.284250	0.322640
C13551	C1355	0.762760	0.275200	0.313630
C13561	C1356	0.899500	0.322240	0.241940
C13571	C1357	0.857000	0.341660	0.273040
C13581	C1358	0.873690	0.339720	0.246720
C13591	C1359	0.914230	0.318890	0.217500
C13601	C1360	0.921380	0.077960	0.332570
C13611	C1361	0.903390	0.332990	0.197470
C13621	C1362	0.863310	0.354380	0.226380
C13631	C1363	0.877940	0.351110	0.202130
O7831	O783	0.611240	0.425590	0.461030
O7841	O784	0.772650	0.333270	0.368830
O7851	O785	0.663700	0.408010	0.443520
O7861	O786	0.813200	0.306370	0.383700
O7871	O787	0.847730	0.360820	0.319690
O7881	O788	0.953520	0.143410	0.256260
O7891	O789	0.979460	0.092850	0.280980
O7901	O790	0.909370	0.133960	0.283900
O7911	O791	0.886470	0.142050	0.321490
O7921	O792	0.793360	0.207970	0.249270
O7931	O793	0.771430	0.212180	0.288670
O7941	O794	0.791400	0.303790	0.339260
O7951	O795	0.746040	0.258010	0.293460
O7961	O796	0.867620	0.331120	0.290160
O7971	O797	0.832640	0.277460	0.353320
O7981	O798	0.935080	0.084100	0.308550
O7991	O799	0.904140	0.157370	0.339070
H7831	H783	0.577470	0.407290	0.476220
H7841	H784	0.735150	0.340370	0.409170
H7851	H785	0.697490	0.366490	0.435290
H7861	H786	0.865770	0.321740	0.386950
H7871	H787	0.796340	0.299990	0.432360
H7881	H788	0.950640	0.171760	0.210610
H7891	H789	0.979180	0.199500	0.238420
H7901	H790	0.881990	0.155790	0.253740
H7911	H791	0.842030	0.179980	0.242410
H7921	H792	0.838190	0.165670	0.329170
H7931	H793	0.798490	0.189610	0.317970
H7941	H794	0.775610	0.272420	0.341070
H7951	H795	0.759510	0.256650	0.325490
H7961	H796	0.908020	0.310590	0.257300
H7971	H797	0.933760	0.304830	0.214520
H7981	H798	0.843630	0.368140	0.229280
H7991	H799	0.868980	0.362600	0.187110
Cr951	Cr95	0.657700	0.283840	0.114230
Cr961	Cr96	0.530340	0.359630	0.306560
C13641	C1364	0.547230	0.460920	0.422400
C13651	C1365	0.512470	0.399550	0.361020
C13661	C1366	0.504030	0.414550	0.376030
C13671	C1367	0.427460	0.405210	0.316790
C13681	C1368	0.474890	0.382200	0.312270
C13691	C1369	0.451670	0.406410	0.310890
C13701	C1370	0.453040	0.430680	0.304580
C13711	C1371	0.648430	0.208370	0.185940
C13721	C1372	0.625010	0.253050	0.159360
C13731	C1373	0.624940	0.227950	0.182180
C13741	C1374	0.601430	0.223900	0.201450
C13751	C1375	0.705160	0.267990	0.162970
C13761	C1376	0.668310	0.299610	0.144040
C13771	C1377	0.685300	0.292400	0.158700
C13781	C1378	0.720830	0.261520	0.176810
C13791	C1379	0.732610	0.271990	0.203100
C13801	C1380	0.717260	0.279270	0.186750
C13811	C1381	0.681900	0.310160	0.168510
C13821	C1382	0.697570	0.303740	0.182220
C13831	C1383	0.620990	0.322640	0.284250
C13841	C1384	0.648410	0.313630	0.275200
C13851	C1385	0.536320	0.241940	0.322240
C13861	C1386	0.528300	0.273040	0.341660
C13871	C1387	0.539870	0.246720	0.339720
C13881	C1388	0.549380	0.217500	0.318890
C13891	C1389	0.668080	0.332570	0.077960
C13901	C1390	0.566150	0.197470	0.332990
C13911	C1391	0.555920	0.226380	0.354380
C13921	C1392	0.568810	0.202130	0.351110
O8001	O800	0.502140	0.461030	0.425590
O8011	O801	0.525250	0.368830	0.333270
O8021	O802	0.484770	0.443520	0.408010
O8031	O803	0.496730	0.383700	0.306370
O8041	O804	0.471760	0.319690	0.360820
O8051	O805	0.646810	0.256260	0.143410
O8061	O806	0.646700	0.280980	0.092850
O8071	O807	0.672770	0.283900	0.133960
O8081	O808	0.650000	0.321490	0.142050
O8091	O809	0.749400	0.249270	0.207970
O8101	O810	0.727710	0.288670	0.212180
O8111	O811	0.565560	0.339260	0.303790
O8121	O812	0.702490	0.293460	0.258010
O8131	O813	0.511110	0.290160	0.331120
O8141	O814	0.536570	0.353320	0.277460
O8151	O815	0.672270	0.308550	0.084100
O8161	O816	0.599430	0.339070	0.157370
H8001	H800	0.539020	0.476220	0.407290
H8011	H801	0.515320	0.409170	0.340370
H8021	H802	0.500730	0.435290	0.366490
H8031	H803	0.425540	0.386950	0.321740
H8041	H804	0.471310	0.432360	0.299990
H8051	H805	0.666980	0.210610	0.171760
H8061	H806	0.582900	0.238420	0.199500
H8071	H807	0.708490	0.253740	0.155790
H8081	H808	0.735570	0.242410	0.179980
H8091	H809	0.666980	0.329170	0.165670
H8101	H810	0.693940	0.317970	0.189610
H8111	H811	0.610900	0.341070	0.272420
H8121	H812	0.658350	0.325490	0.256650
H8131	H813	0.524080	0.257300	0.310590
H8141	H814	0.546900	0.214520	0.304830
H8151	H815	0.558950	0.229280	0.368140
H8161	H816	0.581310	0.187110	0.362600
Cr971	Cr97	0.418800	0.471850	0.471850
Cr981	Cr98	0.471850	0.418800	0.637500
Cr991	Cr99	0.471850	0.637500	0.418800
Cr1001	Cr100	0.637500	0.471850	0.471850
Cr1011	Cr101	0.471850	0.418800	0.471850
Cr1021	Cr102	0.637500	0.471850	0.418800
Cr1031	Cr103	0.418800	0.471850	0.637500
Cr1041	Cr104	0.471850	0.637500	0.471850
Cr1051	Cr105	0.471850	0.471850	0.418800
Cr1061	Cr106	0.418800	0.637500	0.471850
Cr1071	Cr107	0.637500	0.418800	0.471850
Cr1081	Cr108	0.471850	0.471850	0.637500
Cr1091	Cr109	0.831200	0.778150	0.612500
Cr1101	Cr110	0.778150	0.831200	0.778150
Cr1111	Cr111	0.778150	0.612500	0.778150
Cr1121	Cr112	0.612500	0.778150	0.831200
Cr1131	Cr113	0.778150	0.831200	0.612500
Cr1141	Cr114	0.612500	0.778150	0.778150
Cr1151	Cr115	0.831200	0.778150	0.778150
Cr1161	Cr116	0.778150	0.612500	0.831200
Cr1171	Cr117	0.778150	0.778150	0.612500
Cr1181	Cr118	0.831200	0.612500	0.778150
Cr1191	Cr119	0.612500	0.831200	0.778150
Cr1201	Cr120	0.778150	0.778150	0.831200
Cr1211	Cr121	0.125000	0.340650	0.625000
O8171	O817	0.125000	0.310080	0.625000
Cr1221	Cr122	0.340650	0.125000	0.909350
O8181	O818	0.310080	0.125000	0.939920
Cr1231	Cr123	0.625000	0.909350	0.125000
O8191	O819	0.625000	0.939920	0.125000
Cr1241	Cr124	0.909350	0.625000	0.340650
O8201	O820	0.939920	0.625000	0.310080
Cr1251	Cr125	0.625000	0.125000	0.340650
O8211	O821	0.625000	0.125000	0.310080
Cr1261	Cr126	0.909350	0.340650	0.125000
O8221	O822	0.939920	0.310080	0.125000
Cr1271	Cr127	0.125000	0.625000	0.909350
O8231	O823	0.125000	0.625000	0.939920
Cr1281	Cr128	0.340650	0.909350	0.625000
O8241	O824	0.310080	0.939920	0.625000
Cr1291	Cr129	0.340650	0.625000	0.125000
O8251	O825	0.310080	0.625000	0.125000
Cr1301	Cr130	0.125000	0.909350	0.340650
O8261	O826	0.125000	0.939920	0.310080
Cr1311	Cr131	0.909350	0.125000	0.625000
O8271	O827	0.939920	0.125000	0.625000
Cr1321	Cr132	0.625000	0.340650	0.909350
O8281	O828	0.625000	0.310080	0.939920
Cr1331	Cr133	0.125000	0.909350	0.625000
O8291	O829	0.125000	0.939920	0.625000
Cr1341	Cr134	0.909350	0.125000	0.340650
O8301	O830	0.939920	0.125000	0.310080
Cr1351	Cr135	0.625000	0.340650	0.125000
O8311	O831	0.625000	0.310080	0.125000
Cr1361	Cr136	0.340650	0.625000	0.909350
O8321	O832	0.310080	0.625000	0.939920
Cr1371	Cr137	0.625000	0.125000	0.909350
O8331	O833	0.625000	0.125000	0.939920
Cr1381	Cr138	0.340650	0.909350	0.125000
O8341	O834	0.310080	0.939920	0.125000
Cr1391	Cr139	0.125000	0.625000	0.340650
O8351	O835	0.125000	0.625000	0.310080
Cr1401	Cr140	0.909350	0.340650	0.625000
O8361	O836	0.939920	0.310080	0.625000
Cr1411	Cr141	0.909350	0.625000	0.125000
O8371	O837	0.939920	0.625000	0.125000
Cr1421	Cr142	0.125000	0.340650	0.909350
O8381	O838	0.125000	0.310080	0.939920
Cr1431	Cr143	0.340650	0.125000	0.625000
O8391	O839	0.310080	0.125000	0.625000
Cr1441	Cr144	0.625000	0.909350	0.340650
O8401	O840	0.625000	0.939920	0.310080
Cr1451	Cr145	0.229830	0.229830	0.770170
O8411	O841	0.251570	0.251570	0.748430
Cr1461	Cr146	0.770170	0.770170	0.229830
O8421	O842	0.748430	0.748430	0.251570
Cr1471	Cr147	0.770170	0.229830	0.229830
O8431	O843	0.748430	0.251570	0.251570
Cr1481	Cr148	0.229830	0.770170	0.770170
O8441	O844	0.251570	0.748430	0.748430
Cr1491	Cr149	0.229830	0.770170	0.229830
O8451	O845	0.251570	0.748430	0.251570
Cr1501	Cr150	0.770170	0.229830	0.770170
O8461	O846	0.748430	0.251570	0.748430
Cr1511	Cr151	0.020170	0.020170	0.479830
O8471	O847	0.998430	0.998430	0.501570
Cr1521	Cr152	0.479830	0.479830	0.020170
O8481	O848	0.501570	0.501570	0.998430
Cr1531	Cr153	0.479830	0.020170	0.479830
O8491	O849	0.501570	0.998430	0.501570
Cr1541	Cr154	0.020170	0.479830	0.020170
O8501	O850	0.998430	0.501570	0.998430
Cr1551	Cr155	0.020170	0.479830	0.479830
O8511	O851	0.998430	0.501570	0.501570
Cr1561	Cr156	0.479830	0.020170	0.020170
O8521	O852	0.501570	0.998430	0.998430
Cr1571	Cr157	0.235920	0.288960	0.737560
Cr1581	Cr158	0.288960	0.235920	0.737560
Cr1591	Cr159	0.737560	0.737560	0.235920
Cr1601	Cr160	0.737560	0.737560	0.288960
Cr1611	Cr161	0.737560	0.235920	0.288960
Cr1621	Cr162	0.737560	0.288960	0.235920
Cr1631	Cr163	0.235920	0.737560	0.737560
Cr1641	Cr164	0.288960	0.737560	0.737560
Cr1651	Cr165	0.288960	0.737560	0.235920
Cr1661	Cr166	0.235920	0.737560	0.288960
Cr1671	Cr167	0.737560	0.235920	0.737560
Cr1681	Cr168	0.737560	0.288960	0.737560
Cr1691	Cr169	0.014080	0.961040	0.512440
Cr1701	Cr170	0.961040	0.014080	0.512440
Cr1711	Cr171	0.512440	0.512440	0.961040
Cr1721	Cr172	0.512440	0.512440	0.014080
Cr1731	Cr173	0.512440	0.014080	0.512440
Cr1741	Cr174	0.512440	0.961040	0.512440
Cr1751	Cr175	0.014080	0.512440	0.961040
Cr1761	Cr176	0.961040	0.512440	0.014080
Cr1771	Cr177	0.961040	0.512440	0.512440
Cr1781	Cr178	0.014080	0.512440	0.512440
Cr1791	Cr179	0.512440	0.014080	0.961040
Cr1801	Cr180	0.512440	0.961040	0.014080
Cr1811	Cr181	0.325740	0.325740	0.492850
C13931	C1393	0.357230	0.357230	0.522980
C13941	C1394	0.372660	0.372660	0.516460
C13951	C1395	0.419180	0.419180	0.489080
C13961	C1396	0.403030	0.403030	0.499380
C13971	C1397	0.317620	0.317620	0.577500
C13981	C1398	0.308070	0.308070	0.606800
C13991	C1399	0.280000	0.280000	0.690490
C14001	C1400	0.289650	0.289650	0.662720
O8531	O853	0.330630	0.330630	0.517870
Cr1821	Cr182	0.325740	0.325740	0.855660
C14011	C1401	0.357230	0.357230	0.762560
C14021	C1402	0.372660	0.372660	0.738220
C14031	C1403	0.419180	0.419180	0.672570
C14041	C1404	0.403030	0.403030	0.694550
C14051	C1405	0.317620	0.317620	0.787250
C14061	C1406	0.308070	0.308070	0.777050
C14071	C1407	0.280000	0.280000	0.749510
C14081	C1408	0.289650	0.289650	0.757980
O8541	O854	0.330630	0.330630	0.820860
Cr1831	Cr183	0.492850	0.855660	0.325740
C14091	C1409	0.522980	0.762560	0.357230
C14101	C1410	0.516460	0.738220	0.372660
C14111	C1411	0.489080	0.672570	0.419180
C14121	C1412	0.499380	0.694550	0.403030
C14131	C1413	0.577500	0.787250	0.317620
C14141	C1414	0.606800	0.777050	0.308070
C14151	C1415	0.690490	0.749510	0.280000
C14161	C1416	0.662720	0.757980	0.289650
O8551	O855	0.517870	0.820860	0.330630
Cr1841	Cr184	0.855660	0.492850	0.325740
C14171	C1417	0.762560	0.522980	0.357230
C14181	C1418	0.738220	0.516460	0.372660
C14191	C1419	0.672570	0.489080	0.419180
C14201	C1420	0.694550	0.499380	0.403030
C14211	C1421	0.787250	0.577500	0.317620
C14221	C1422	0.777050	0.606800	0.308070
C14231	C1423	0.749510	0.690490	0.280000
C14241	C1424	0.757980	0.662720	0.289650
O8561	O856	0.820860	0.517870	0.330630
Cr1851	Cr185	0.492850	0.325740	0.325740
C14251	C1425	0.522980	0.357230	0.357230
C14261	C1426	0.516460	0.372660	0.372660
C14271	C1427	0.489080	0.419180	0.419180
C14281	C1428	0.499380	0.403030	0.403030
C14291	C1429	0.577500	0.317620	0.317620
C14301	C1430	0.606800	0.308070	0.308070
C14311	C1431	0.690490	0.280000	0.280000
C14321	C1432	0.662720	0.289650	0.289650
O8571	O857	0.517870	0.330630	0.330630
Cr1861	Cr186	0.855660	0.325740	0.325740
C14331	C1433	0.762560	0.357230	0.357230
C14341	C1434	0.738220	0.372660	0.372660
C14351	C1435	0.672570	0.419180	0.419180
C14361	C1436	0.694550	0.403030	0.403030
C14371	C1437	0.787250	0.317620	0.317620
C14381	C1438	0.777050	0.308070	0.308070
C14391	C1439	0.749510	0.280000	0.280000
C14401	C1440	0.757980	0.289650	0.289650
O8581	O858	0.820860	0.330630	0.330630
Cr1871	Cr187	0.325740	0.492850	0.855660
C14411	C1441	0.357230	0.522980	0.762560
C14421	C1442	0.372660	0.516460	0.738220
C14431	C1443	0.419180	0.489080	0.672570
C14441	C1444	0.403030	0.499380	0.694550
C14451	C1445	0.317620	0.577500	0.787250
C14461	C1446	0.308070	0.606800	0.777050
C14471	C1447	0.280000	0.690490	0.749510
C14481	C1448	0.289650	0.662720	0.757980
O8591	O859	0.330630	0.517870	0.820860
Cr1881	Cr188	0.325740	0.855660	0.492850
C14491	C1449	0.357230	0.762560	0.522980
C14501	C1450	0.372660	0.738220	0.516460
C14511	C1451	0.419180	0.672570	0.489080
C14521	C1452	0.403030	0.694550	0.499380
C14531	C1453	0.317620	0.787250	0.577500
C14541	C1454	0.308070	0.777050	0.606800
C14551	C1455	0.280000	0.749510	0.690490
C14561	C1456	0.289650	0.757980	0.662720
O8601	O860	0.330630	0.820860	0.517870
Cr1891	Cr189	0.325740	0.492850	0.325740
C14571	C1457	0.357230	0.522980	0.357230
C14581	C1458	0.372660	0.516460	0.372660
C14591	C1459	0.419180	0.489080	0.419180
C14601	C1460	0.403030	0.499380	0.403030
C14611	C1461	0.317620	0.577500	0.317620
C14621	C1462	0.308070	0.606800	0.308070
C14631	C1463	0.280000	0.690490	0.280000
C14641	C1464	0.289650	0.662720	0.289650
O8611	O861	0.330630	0.517870	0.330630
Cr1901	Cr190	0.325740	0.855660	0.325740
C14651	C1465	0.357230	0.762560	0.357230
C14661	C1466	0.372660	0.738220	0.372660
C14671	C1467	0.419180	0.672570	0.419180
C14681	C1468	0.403030	0.694550	0.403030
C14691	C1469	0.317620	0.787250	0.317620
C14701	C1470	0.308070	0.777050	0.308070
C14711	C1471	0.280000	0.749510	0.280000
C14721	C1472	0.289650	0.757980	0.289650
O8621	O862	0.330630	0.820860	0.330630
Cr1911	Cr191	0.855660	0.325740	0.492850
C14731	C1473	0.762560	0.357230	0.522980
C14741	C1474	0.738220	0.372660	0.516460
C14751	C1475	0.672570	0.419180	0.489080
C14761	C1476	0.694550	0.403030	0.499380
C14771	C1477	0.787250	0.317620	0.577500
C14781	C1478	0.777050	0.308070	0.606800
C14791	C1479	0.749510	0.280000	0.690490
C14801	C1480	0.757980	0.289650	0.662720
O8631	O863	0.820860	0.330630	0.517870
Cr1921	Cr192	0.492850	0.325740	0.855660
C14811	C1481	0.522980	0.357230	0.762560
C14821	C1482	0.516460	0.372660	0.738220
C14831	C1483	0.489080	0.419180	0.672570
C14841	C1484	0.499380	0.403030	0.694550
C14851	C1485	0.577500	0.317620	0.787250
C14861	C1486	0.606800	0.308070	0.777050
C14871	C1487	0.690490	0.280000	0.749510
C14881	C1488	0.662720	0.289650	0.757980
O8641	O864	0.517870	0.330630	0.820860
Cr1931	Cr193	0.924260	0.924260	0.394340
C14891	C1489	0.892770	0.892770	0.487440
C14901	C1490	0.877340	0.877340	0.511780
C14911	C1491	0.830820	0.830820	0.577430
C14921	C1492	0.846970	0.846970	0.555450
C14931	C1493	0.932380	0.932380	0.462750
C14941	C1494	0.941930	0.941930	0.472950
C14951	C1495	0.970000	0.970000	0.500490
C14961	C1496	0.960350	0.960350	0.492020
O8651	O865	0.919370	0.919370	0.429140
Cr1941	Cr194	0.924260	0.924260	0.757150
C14971	C1497	0.892770	0.892770	0.727020
C14981	C1498	0.877340	0.877340	0.733540
C14991	C1499	0.830820	0.830820	0.760920
C15001	C1500	0.846970	0.846970	0.750620
C15011	C1501	0.932380	0.932380	0.672500
C15021	C1502	0.941930	0.941930	0.643200
C15031	C1503	0.970000	0.970000	0.559510
C15041	C1504	0.960350	0.960350	0.587280
O8661	O866	0.919370	0.919370	0.732130
Cr1951	Cr195	0.757150	0.394340	0.924260
C15051	C1505	0.727020	0.487440	0.892770
C15061	C1506	0.733540	0.511780	0.877340
C15071	C1507	0.760920	0.577430	0.830820
C15081	C1508	0.750620	0.555450	0.846970
C15091	C1509	0.672500	0.462750	0.932380
C15101	C1510	0.643200	0.472950	0.941930
C15111	C1511	0.559510	0.500490	0.970000
C15121	C1512	0.587280	0.492020	0.960350
O8671	O867	0.732130	0.429140	0.919370
Cr1961	Cr196	0.394340	0.757150	0.924260
C15131	C1513	0.487440	0.727020	0.892770
C15141	C1514	0.511780	0.733540	0.877340
C15151	C1515	0.577430	0.760920	0.830820
C15161	C1516	0.555450	0.750620	0.846970
C15171	C1517	0.462750	0.672500	0.932380
C15181	C1518	0.472950	0.643200	0.941930
C15191	C1519	0.500490	0.559510	0.970000
C15201	C1520	0.492020	0.587280	0.960350
O8681	O868	0.429140	0.732130	0.919370
Cr1971	Cr197	0.757150	0.924260	0.394340
C15211	C1521	0.727020	0.892770	0.487440
C15221	C1522	0.733540	0.877340	0.511780
C15231	C1523	0.760920	0.830820	0.577430
C15241	C1524	0.750620	0.846970	0.555450
C15251	C1525	0.672500	0.932380	0.462750
C15261	C1526	0.643200	0.941930	0.472950
C15271	C1527	0.559510	0.970000	0.500490
C15281	C1528	0.587280	0.960350	0.492020
O8691	O869	0.732130	0.919370	0.429140
Cr1981	Cr198	0.394340	0.924260	0.757150
C15291	C1529	0.487440	0.892770	0.727020
C15301	C1530	0.511780	0.877340	0.733540
C15311	C1531	0.577430	0.830820	0.760920
C15321	C1532	0.555450	0.846970	0.750620
C15331	C1533	0.462750	0.932380	0.672500
C15341	C1534	0.472950	0.941930	0.643200
C15351	C1535	0.500490	0.970000	0.559510
C15361	C1536	0.492020	0.960350	0.587280
O8701	O870	0.429140	0.919370	0.732130
Cr1991	Cr199	0.924260	0.757150	0.924260
C15371	C1537	0.892770	0.727020	0.892770
C15381	C1538	0.877340	0.733540	0.877340
C15391	C1539	0.830820	0.760920	0.830820
C15401	C1540	0.846970	0.750620	0.846970
C15411	C1541	0.932380	0.672500	0.932380
C15421	C1542	0.941930	0.643200	0.941930
C15431	C1543	0.970000	0.559510	0.970000
C15441	C1544	0.960350	0.587280	0.960350
O8711	O871	0.919370	0.732130	0.919370
Cr2001	Cr200	0.924260	0.394340	0.924260
C15451	C1545	0.892770	0.487440	0.892770
C15461	C1546	0.877340	0.511780	0.877340
C15471	C1547	0.830820	0.577430	0.830820
C15481	C1548	0.846970	0.555450	0.846970
C15491	C1549	0.932380	0.462750	0.932380
C15501	C1550	0.941930	0.472950	0.941930
C15511	C1551	0.970000	0.500490	0.970000
C15521	C1552	0.960350	0.492020	0.960350
O8721	O872	0.919370	0.429140	0.919370
Cr2011	Cr201	0.924260	0.757150	0.394340
C15531	C1553	0.892770	0.727020	0.487440
C15541	C1554	0.877340	0.733540	0.511780
C15551	C1555	0.830820	0.760920	0.577430
C15561	C1556	0.846970	0.750620	0.555450
C15571	C1557	0.932380	0.672500	0.462750
C15581	C1558	0.941930	0.643200	0.472950
C15591	C1559	0.970000	0.559510	0.500490
C15601	C1560	0.960350	0.587280	0.492020
O8731	O873	0.919370	0.732130	0.429140
Cr2021	Cr202	0.924260	0.394340	0.757150
C15611	C1561	0.892770	0.487440	0.727020
C15621	C1562	0.877340	0.511780	0.733540
C15631	C1563	0.830820	0.577430	0.760920
C15641	C1564	0.846970	0.555450	0.750620
C15651	C1565	0.932380	0.462750	0.672500
C15661	C1566	0.941930	0.472950	0.643200
C15671	C1567	0.970000	0.500490	0.559510
C15681	C1568	0.960350	0.492020	0.587280
O8741	O874	0.919370	0.429140	0.732130
Cr2031	Cr203	0.394340	0.924260	0.924260
C15691	C1569	0.487440	0.892770	0.892770
C15701	C1570	0.511780	0.877340	0.877340
C15711	C1571	0.577430	0.830820	0.830820
C15721	C1572	0.555450	0.846970	0.846970
C15731	C1573	0.462750	0.932380	0.932380
C15741	C1574	0.472950	0.941930	0.941930
C15751	C1575	0.500490	0.970000	0.970000
C15761	C1576	0.492020	0.960350	0.960350
O8751	O875	0.429140	0.919370	0.919370
Cr2041	Cr204	0.757150	0.924260	0.924260
C15771	C1577	0.727020	0.892770	0.892770
C15781	C1578	0.733540	0.877340	0.877340
C15791	C1579	0.760920	0.830820	0.830820
C15801	C1580	0.750620	0.846970	0.846970
C15811	C1581	0.672500	0.932380	0.932380
C15821	C1582	0.643200	0.941930	0.941930
C15831	C1583	0.559510	0.970000	0.970000
C15841	C1584	0.587280	0.960350	0.960350
O8761	O876	0.732130	0.919370	0.919370
C15851	C1585	0.442800	0.442800	0.512290
C15861	C1586	0.441880	0.441880	0.535550
C15871	C1587	0.442800	0.442800	0.602110
C15881	C1588	0.441880	0.441880	0.580690
C15891	C1589	0.512290	0.602110	0.442800
C15901	C1590	0.535550	0.580690	0.441880
C15911	C1591	0.602110	0.512290	0.442800
C15921	C1592	0.580690	0.535550	0.441880
C15931	C1593	0.512290	0.442800	0.442800
C15941	C1594	0.535550	0.441880	0.441880
C15951	C1595	0.602110	0.442800	0.442800
C15961	C1596	0.580690	0.441880	0.441880
C15971	C1597	0.442800	0.512290	0.602110
C15981	C1598	0.441880	0.535550	0.580690
C15991	C1599	0.442800	0.602110	0.512290
C16001	C1600	0.441880	0.580690	0.535550
C16011	C1601	0.442800	0.512290	0.442800
C16021	C1602	0.441880	0.535550	0.441880
C16031	C1603	0.442800	0.602110	0.442800
C16041	C1604	0.441880	0.580690	0.441880
C16051	C1605	0.602110	0.442800	0.512290
C16061	C1606	0.580690	0.441880	0.535550
C16071	C1607	0.512290	0.442800	0.602110
C16081	C1608	0.535550	0.441880	0.580690
C16091	C1609	0.807200	0.807200	0.647890
C16101	C1610	0.808120	0.808120	0.669310
C16111	C1611	0.807200	0.807200	0.737710
C16121	C1612	0.808120	0.808120	0.714450
C16131	C1613	0.737710	0.647890	0.807200
C16141	C1614	0.714450	0.669310	0.808120
C16151	C1615	0.647890	0.737710	0.807200
C16161	C1616	0.669310	0.714450	0.808120
C16171	C1617	0.737710	0.807200	0.647890
C16181	C1618	0.714450	0.808120	0.669310
C16191	C1619	0.647890	0.807200	0.737710
C16201	C1620	0.669310	0.808120	0.714450
C16211	C1621	0.807200	0.737710	0.807200
C16221	C1622	0.808120	0.714450	0.808120
C16231	C1623	0.807200	0.647890	0.807200
C16241	C1624	0.808120	0.669310	0.808120
C16251	C1625	0.807200	0.737710	0.647890
C16261	C1626	0.808120	0.714450	0.669310
C16271	C1627	0.807200	0.647890	0.737710
C16281	C1628	0.808120	0.669310	0.714450
C16291	C1629	0.647890	0.807200	0.807200
C16301	C1630	0.669310	0.808120	0.808120
C16311	C1631	0.737710	0.807200	0.807200
C16321	C1632	0.714450	0.808120	0.808120
O8771	O877	0.454140	0.454140	0.454140
O8781	O878	0.454140	0.454140	0.637590
O8791	O879	0.454140	0.637590	0.454140
O8801	O880	0.637590	0.454140	0.454140
O8811	O881	0.795860	0.795860	0.612410
O8821	O882	0.795860	0.795860	0.795860
O8831	O883	0.795860	0.612410	0.795860
O8841	O884	0.612410	0.795860	0.795860
