data_OCUPUY_clean_PM
_symmetry_space_group_name_H-M	'P1'
_cell_length_a	7.433000
_cell_length_b	9.367300
_cell_length_c	12.447800
_cell_angle_alpha	112.102000
_cell_angle_beta	107.371000
_cell_angle_gamma	90.000100
_symmetry_Int_Tables_number 1

loop_
_symmetry_equiv_pos_as_xyz
'x,y,z'

loop_
_atom_site_label
_atom_site_type_symbol
_atom_site_fract_x
_atom_site_fract_y
_atom_site_fract_z
V11	V1	0.537940	0.244170	0.488340
V21	V2	0.950400	0.244170	0.488340
V31	V3	0.462060	0.755830	0.511660
V41	V4	0.049600	0.755830	0.511660
P11	P1	0.811450	0.579290	0.622900
P21	P2	0.811450	0.043610	0.622900
P31	P3	0.188550	0.956390	0.377100
P41	P4	0.188550	0.420710	0.377100
H11	H1	0.997500	0.521200	0.780600
H21	H2	0.831000	0.796900	0.878000
H31	H3	0.783100	0.259400	0.780600
H41	H4	0.047000	0.081100	0.878000
H51	H5	0.002500	0.740600	0.219400
H61	H6	0.169000	0.918900	0.122000
H71	H7	0.216900	0.478800	0.219400
H81	H8	0.953000	0.203100	0.122000
H91	H9	0.002500	0.478800	0.219400
H101	H10	0.169000	0.203100	0.122000
H111	H11	0.216900	0.740600	0.219400
H121	H12	0.953000	0.918900	0.122000
H131	H13	0.997500	0.259400	0.780600
H141	H14	0.831000	0.081100	0.878000
H151	H15	0.783100	0.521200	0.780600
H161	H16	0.047000	0.796900	0.878000
H171	H17	0.646900	0.209900	0.293800
H181	H18	0.646900	0.083900	0.293800
H191	H19	0.353100	0.916100	0.706200
H201	H20	0.353100	0.790100	0.706200
H211	H21	0.892700	0.647700	0.000000
H221	H22	0.107300	0.352300	0.000000
H231	H23	0.107300	0.647700	0.000000
H241	H24	0.892700	0.352300	0.000000
C11	C1	0.886490	0.579490	0.772980
C21	C2	0.940680	0.736880	0.881360
C31	C3	0.886490	0.193490	0.772980
C41	C4	0.940680	0.144480	0.881360
C51	C5	0.113510	0.806510	0.227020
C61	C6	0.059320	0.855520	0.118640
C71	C7	0.113510	0.420510	0.227020
C81	C8	0.059320	0.263120	0.118640
C91	C9	0.000000	0.710300	0.000000
C101	C10	0.000000	0.289700	0.000000
O11	O1	0.630880	0.654870	0.607000
O21	O2	0.976120	0.952130	0.607000
O31	O3	0.369120	0.047870	0.393000
O41	O4	0.023880	0.345130	0.393000
O51	O5	0.369120	0.345130	0.393000
O61	O6	0.023880	0.047870	0.393000
O71	O7	0.630880	0.952130	0.607000
O81	O8	0.976120	0.654870	0.607000
O91	O9	0.765650	0.404700	0.531300
O101	O10	0.765650	0.126600	0.531300
O111	O11	0.234350	0.873400	0.468700
O121	O12	0.234350	0.595300	0.468700
O131	O13	0.666050	0.166050	0.332100
O141	O14	0.333950	0.833950	0.667900
