data_OCUVUF_clean_PM
_symmetry_space_group_name_H-M	'P1'
_cell_length_a	33.464900
_cell_length_b	33.475500
_cell_length_c	26.622200
_cell_angle_alpha	90.000000
_cell_angle_beta	127.581000
_cell_angle_gamma	90.000000
_symmetry_Int_Tables_number 1

loop_
_symmetry_equiv_pos_as_xyz
'x,y,z'

loop_
_atom_site_label
_atom_site_type_symbol
_atom_site_fract_x
_atom_site_fract_y
_atom_site_fract_z
As11	As1	0.361910	0.872780	0.519680
As21	As2	0.198080	0.868900	0.162850
As31	As3	0.382660	0.632150	0.020960
As41	As4	0.193960	0.611450	0.665830
C11	C1	0.440600	0.456000	0.977000
C21	C2	0.387500	0.574200	0.686000
C31	C3	0.400600	0.463600	0.770400
H11	H1	0.402400	0.439800	0.789800
C41	C4	0.392300	0.534300	0.714500
C51	C5	0.043400	0.793700	0.207400
C61	C6	0.412800	0.448000	0.004300
C71	C7	0.167700	0.712000	0.421000
H21	H2	0.134800	0.718300	0.405000
C81	C8	0.262900	0.695100	0.469500
C91	C9	0.037600	0.726200	0.234000
H31	H3	0.020400	0.706100	0.237700
C101	C10	0.196700	0.741200	0.414800
H41	H4	0.182400	0.765300	0.394100
C111	C11	0.317500	0.689300	0.498900
C121	C12	0.012900	0.763600	0.200800
H51	H5	0.978200	0.766800	0.176500
C131	C13	0.475700	0.430800	0.980000
H61	H6	0.484700	0.406000	0.000300
C141	C14	0.374800	0.499900	0.773000
H71	H7	0.360400	0.498500	0.794100
C151	C15	0.421600	0.466300	0.738200
H81	H8	0.438500	0.444800	0.736600
C161	C16	0.495500	0.445300	0.952000
H91	H9	0.520100	0.430000	0.954700
C171	C17	0.483500	0.477100	0.922300
H101	H10	0.496000	0.484000	0.900500
C181	C18	0.449000	0.503900	0.922800
H111	H11	0.441900	0.528900	0.904000
C191	C19	0.416200	0.502300	0.708900
H121	H12	0.428300	0.505100	0.685600
C201	C20	0.185500	0.678600	0.447200
H131	H13	0.164900	0.660700	0.448700
C211	C21	0.234800	0.667600	0.474000
H141	H14	0.248000	0.643000	0.493800
C221	C22	0.113100	0.754400	0.259600
H151	H15	0.146800	0.751000	0.277200
C231	C23	0.086100	0.722300	0.258200
H161	H16	0.102000	0.697800	0.274500
C241	C24	0.024400	0.834800	0.182000
Dy11	Dy1	0.218260	0.875560	0.415160
Dy21	Dy2	0.249420	0.774040	0.264280
Dy31	Dy3	0.420430	0.632770	0.912120
Dy41	Dy4	0.247190	0.522470	0.776910
K11	K1	0.329100	0.576300	0.519600
K21	K2	0.416400	0.666000	0.512800
K31	K3	0.403800	0.664300	0.668200
K41	K4	0.993400	0.925600	0.168000
N11	N1	0.427500	0.493100	0.949400
N21	N2	0.373000	0.534600	0.745100
N31	N3	0.245600	0.732400	0.439900
N41	N4	0.091500	0.789800	0.236100
O11	O1	0.486800	0.923700	0.617000
O21	O2	0.442800	0.922700	0.669500
O31	O3	0.486900	0.857900	0.672300
O41	O4	0.384600	0.984400	0.601300
O51	O5	0.388100	0.880200	0.694000
O61	O6	0.432800	0.812900	0.694500
O71	O7	0.430600	0.985000	0.550900
O81	O8	0.496800	0.877100	0.541200
O91	O9	0.421900	0.930300	0.471400
O101	O10	0.331800	0.992200	0.477800
O111	O11	0.374700	0.925100	0.534800
O121	O12	0.327100	0.926700	0.593900
O131	O13	0.421700	0.859700	0.538800
O141	O14	0.376300	0.857500	0.594100
O151	O15	0.332100	0.815500	0.630100
O161	O16	0.383900	0.741900	0.649600
O171	O17	0.322800	0.778800	0.534700
O181	O18	0.421100	0.786200	0.591600
O191	O19	0.269800	0.863500	0.521500
O201	O20	0.269800	0.932100	0.466000
O211	O21	0.497400	0.811800	0.595800
O221	O22	0.435600	0.817300	0.472100
O231	O23	0.448900	0.743800	0.529100
O241	O24	0.357500	0.792000	0.467800
O251	O25	0.325300	0.939700	0.391300
O261	O26	0.358200	0.869000	0.409300
O271	O27	0.061600	0.951800	0.150200
O281	O28	0.162700	0.695000	0.712900
O291	O29	0.203400	0.949300	0.069200
O301	O30	0.279400	0.953500	0.216300
O311	O31	0.244800	0.875200	0.150500
O321	O32	0.197500	0.659800	0.641600
O331	O33	0.092800	0.686500	0.566100
O341	O34	0.101400	0.968400	0.086900
O351	O35	0.387500	0.603600	0.813700
O361	O36	0.262600	0.883700	0.380000
O371	O37	0.179100	0.878300	0.017400
O381	O38	0.354300	0.684900	0.118900
O391	O39	0.164000	0.964700	0.211800
O401	O40	0.193500	0.641400	0.793800
O411	O41	0.337700	0.636000	0.876400
O421	O42	0.258900	0.586700	0.808700
O431	O43	0.069700	0.667000	0.640400
O441	O44	0.340600	0.549600	0.978400
O451	O45	0.368200	0.601000	0.697600
O461	O46	0.418900	0.688900	0.959500
O471	O47	0.476200	0.625000	0.019700
O481	O48	0.270600	0.710800	0.701800
O491	O49	0.174900	0.920700	0.144800
O501	O50	0.304100	0.555700	0.765800
O511	O51	0.275500	0.623000	0.912300
O521	O52	0.401300	0.548100	0.099900
O531	O53	0.184400	0.808300	0.257200
O541	O54	0.255500	0.814200	0.420600
O551	O55	0.240300	0.630400	0.588100
O561	O56	0.107100	0.538000	0.602600
O571	O57	0.163800	0.546100	0.725700
O581	O58	0.274000	0.854200	0.083100
O591	O59	0.203800	0.517800	0.668700
O601	O60	0.325900	0.894700	0.290700
O611	O61	0.271400	0.635000	0.047400
O621	O62	0.140300	0.890000	0.212400
O631	O63	0.193400	0.993600	0.144400
O641	O64	0.265400	0.572300	0.982700
O651	O65	0.438200	0.538600	0.039800
O661	O66	0.274500	0.684600	0.972200
O671	O67	0.486200	0.581500	0.199300
O681	O68	0.069400	0.614800	0.518700
O691	O69	0.282100	0.565700	0.652800
O701	O70	0.393000	0.569100	0.926200
O711	O71	0.162000	0.591500	0.489100
O721	O72	0.057100	0.857500	0.986100
O731	O73	0.977000	0.839700	0.146500
O741	O74	0.343500	0.618600	0.042600
O751	O75	0.485200	0.688800	0.084900
O761	O76	0.252100	0.564400	0.532300
O771	O77	0.421700	0.415900	0.035400
O781	O78	0.380300	0.473700	0.993600
O791	O79	0.336100	0.743100	0.041000
O801	O80	0.403600	0.579900	0.654800
O811	O81	0.095400	0.823600	0.145700
O821	O82	0.272700	0.837000	0.301800
O831	O83	0.146700	0.848100	0.086600
O841	O84	0.152800	0.853600	0.314900
O851	O85	0.128100	0.655500	0.505500
O861	O86	0.433700	0.748300	0.090300
O871	O87	0.336600	0.717400	0.483000
O881	O88	0.330100	0.572500	0.109800
O891	O89	0.272900	0.755300	0.365100
O901	O90	0.171500	0.586500	0.592300
O911	O91	0.111800	0.923900	0.012500
O921	O92	0.074100	0.892300	0.086200
O931	O93	0.527900	0.646600	0.190800
O941	O94	0.379900	0.684500	0.027800
O951	O95	0.281000	0.800100	0.213600
O961	O96	0.136800	0.618400	0.656000
O971	O97	0.100100	0.545800	0.497400
O981	O98	0.342400	0.660200	0.533700
O991	O99	0.186600	0.774000	0.155400
O1001	O100	0.298500	0.925400	0.139000
O1011	O101	0.102300	0.602600	0.715300
O1021	O102	0.442200	0.620500	0.095000
O1031	O103	0.298700	0.634700	0.711300
O1041	O104	0.315100	0.501500	0.045800
O1051	O105	0.196000	0.524400	0.558500
O1061	O106	0.043800	0.593700	0.590900
O1071	O107	0.087200	0.787400	0.049600
O1081	O108	0.004600	0.829000	0.026500
O1091	O109	0.245200	0.918600	0.275500
O1101	O110	0.210100	0.705200	0.575500
O1111	O111	0.289400	0.691600	0.888700
O1121	O112	0.497600	0.507600	0.162100
O1131	O113	0.056900	0.859300	0.196100
O1141	O114	0.123000	0.811400	0.987600
O1151	O115	0.174000	0.734100	0.631900
O1161	O116	0.410200	0.623700	0.176200
O1171	O117	0.338000	0.857300	0.208100
O1181	O118	0.311400	0.691300	0.640500
O1191	O119	0.323400	0.510800	0.875600
O1201	O120	0.522400	0.580600	0.131500
O1211	O121	0.217000	0.798900	0.089600
O1221	O122	0.254000	0.668000	0.772400
O1231	O123	0.364600	0.748500	0.969400
O1241	O124	0.447600	0.686700	0.167100
W11	W1	0.444140	0.870070	0.699920
W21	W2	0.444310	0.962690	0.620510
W31	W3	0.504780	0.870500	0.621310
W41	W4	0.317080	0.872590	0.606510
W51	W5	0.375630	0.788670	0.615350
W61	W6	0.434760	0.791900	0.534510
W71	W7	0.432300	0.874690	0.462710
W81	W8	0.373670	0.968180	0.458740
W91	W9	0.316850	0.962080	0.529650
W101	W10	0.296890	0.772010	0.440300
W111	W11	0.293560	0.884230	0.341870
W121	W12	0.133110	0.840660	0.237620
W131	W13	0.227240	0.965690	0.222940
W141	W14	0.323880	0.909300	0.228270
W151	W15	0.283470	0.818990	0.154360
W161	W16	0.155780	0.782360	0.073050
W171	W17	0.066360	0.836390	0.062570
W181	W18	0.108760	0.933790	0.146180
W191	W19	0.148840	0.963470	0.063770
W201	W20	0.111130	0.865590	0.983470
W211	W21	0.242610	0.903470	0.066430
W221	W22	0.343290	0.632010	0.127750
W231	W23	0.395770	0.724990	0.114710
W241	W24	0.478650	0.636190	0.199660
W251	W25	0.332600	0.550540	0.047720
W261	W26	0.258660	0.629890	0.969380
W271	W27	0.306430	0.723830	0.953540
W281	W28	0.431430	0.722560	0.020320
W291	W29	0.512060	0.636450	0.103160
W301	W30	0.469340	0.551860	0.123160
W311	W31	0.273890	0.635790	0.842550
W321	W32	0.375140	0.529610	0.949610
W331	W33	0.333140	0.586260	0.741160
W341	W34	0.131410	0.654910	0.728800
W351	W35	0.103590	0.561580	0.665150
W361	W36	0.152540	0.520890	0.586140
W371	W37	0.228080	0.574160	0.568020
W381	W38	0.262700	0.675040	0.639940
W391	W39	0.217590	0.711230	0.713640
W401	W40	0.054480	0.641810	0.567770
W411	W41	0.141210	0.700990	0.555670
W421	W42	0.105130	0.599570	0.486400
As51	As5	0.861910	0.372780	0.519680
As61	As6	0.698080	0.368900	0.162850
As71	As7	0.882660	0.132150	0.020960
As81	As8	0.693960	0.111450	0.665830
C251	C25	0.940600	0.956000	0.977000
C261	C26	0.887500	0.074200	0.686000
C271	C27	0.900600	0.963600	0.770400
H171	H17	0.902400	0.939800	0.789800
C281	C28	0.892300	0.034300	0.714500
C291	C29	0.543400	0.293700	0.207400
C301	C30	0.912800	0.948000	0.004300
C311	C31	0.667700	0.212000	0.421000
H181	H18	0.634800	0.218300	0.405000
C321	C32	0.762900	0.195100	0.469500
C331	C33	0.537600	0.226200	0.234000
H191	H19	0.520400	0.206100	0.237700
C341	C34	0.696700	0.241200	0.414800
H201	H20	0.682400	0.265300	0.394100
C351	C35	0.817500	0.189300	0.498900
C361	C36	0.512900	0.263600	0.200800
H211	H21	0.478200	0.266800	0.176500
C371	C37	0.975700	0.930800	0.980000
H221	H22	0.984700	0.906000	0.000300
C381	C38	0.874800	0.999900	0.773000
H231	H23	0.860400	0.998500	0.794100
C391	C39	0.921600	0.966300	0.738200
H241	H24	0.938500	0.944800	0.736600
C401	C40	0.995500	0.945300	0.952000
H251	H25	0.020100	0.930000	0.954700
C411	C41	0.983500	0.977100	0.922300
H261	H26	0.996000	0.984000	0.900500
C421	C42	0.949000	0.003900	0.922800
H271	H27	0.941900	0.028900	0.904000
C431	C43	0.916200	0.002300	0.708900
H281	H28	0.928300	0.005100	0.685600
C441	C44	0.685500	0.178600	0.447200
H291	H29	0.664900	0.160700	0.448700
C451	C45	0.734800	0.167600	0.474000
H301	H30	0.748000	0.143000	0.493800
C461	C46	0.613100	0.254400	0.259600
H311	H31	0.646800	0.251000	0.277200
C471	C47	0.586100	0.222300	0.258200
H321	H32	0.602000	0.197800	0.274500
C481	C48	0.524400	0.334800	0.182000
Dy51	Dy5	0.718260	0.375560	0.415160
Dy61	Dy6	0.749420	0.274040	0.264280
Dy71	Dy7	0.920430	0.132770	0.912120
Dy81	Dy8	0.747190	0.022470	0.776910
K51	K5	0.829100	0.076300	0.519600
K61	K6	0.916400	0.166000	0.512800
K71	K7	0.903800	0.164300	0.668200
K81	K8	0.493400	0.425600	0.168000
N51	N5	0.927500	0.993100	0.949400
N61	N6	0.873000	0.034600	0.745100
N71	N7	0.745600	0.232400	0.439900
N81	N8	0.591500	0.289800	0.236100
O1251	O125	0.986800	0.423700	0.617000
O1261	O126	0.942800	0.422700	0.669500
O1271	O127	0.986900	0.357900	0.672300
O1281	O128	0.884600	0.484400	0.601300
O1291	O129	0.888100	0.380200	0.694000
O1301	O130	0.932800	0.312900	0.694500
O1311	O131	0.930600	0.485000	0.550900
O1321	O132	0.996800	0.377100	0.541200
O1331	O133	0.921900	0.430300	0.471400
O1341	O134	0.831800	0.492200	0.477800
O1351	O135	0.874700	0.425100	0.534800
O1361	O136	0.827100	0.426700	0.593900
O1371	O137	0.921700	0.359700	0.538800
O1381	O138	0.876300	0.357500	0.594100
O1391	O139	0.832100	0.315500	0.630100
O1401	O140	0.883900	0.241900	0.649600
O1411	O141	0.822800	0.278800	0.534700
O1421	O142	0.921100	0.286200	0.591600
O1431	O143	0.769800	0.363500	0.521500
O1441	O144	0.769800	0.432100	0.466000
O1451	O145	0.997400	0.311800	0.595800
O1461	O146	0.935600	0.317300	0.472100
O1471	O147	0.948900	0.243800	0.529100
O1481	O148	0.857500	0.292000	0.467800
O1491	O149	0.825300	0.439700	0.391300
O1501	O150	0.858200	0.369000	0.409300
O1511	O151	0.561600	0.451800	0.150200
O1521	O152	0.662700	0.195000	0.712900
O1531	O153	0.703400	0.449300	0.069200
O1541	O154	0.779400	0.453500	0.216300
O1551	O155	0.744800	0.375200	0.150500
O1561	O156	0.697500	0.159800	0.641600
O1571	O157	0.592800	0.186500	0.566100
O1581	O158	0.601400	0.468400	0.086900
O1591	O159	0.887500	0.103600	0.813700
O1601	O160	0.762600	0.383700	0.380000
O1611	O161	0.679100	0.378300	0.017400
O1621	O162	0.854300	0.184900	0.118900
O1631	O163	0.664000	0.464700	0.211800
O1641	O164	0.693500	0.141400	0.793800
O1651	O165	0.837700	0.136000	0.876400
O1661	O166	0.758900	0.086700	0.808700
O1671	O167	0.569700	0.167000	0.640400
O1681	O168	0.840600	0.049600	0.978400
O1691	O169	0.868200	0.101000	0.697600
O1701	O170	0.918900	0.188900	0.959500
O1711	O171	0.976200	0.125000	0.019700
O1721	O172	0.770600	0.210800	0.701800
O1731	O173	0.674900	0.420700	0.144800
O1741	O174	0.804100	0.055700	0.765800
O1751	O175	0.775500	0.123000	0.912300
O1761	O176	0.901300	0.048100	0.099900
O1771	O177	0.684400	0.308300	0.257200
O1781	O178	0.755500	0.314200	0.420600
O1791	O179	0.740300	0.130400	0.588100
O1801	O180	0.607100	0.038000	0.602600
O1811	O181	0.663800	0.046100	0.725700
O1821	O182	0.774000	0.354200	0.083100
O1831	O183	0.703800	0.017800	0.668700
O1841	O184	0.825900	0.394700	0.290700
O1851	O185	0.771400	0.135000	0.047400
O1861	O186	0.640300	0.390000	0.212400
O1871	O187	0.693400	0.493600	0.144400
O1881	O188	0.765400	0.072300	0.982700
O1891	O189	0.938200	0.038600	0.039800
O1901	O190	0.774500	0.184600	0.972200
O1911	O191	0.986200	0.081500	0.199300
O1921	O192	0.569400	0.114800	0.518700
O1931	O193	0.782100	0.065700	0.652800
O1941	O194	0.893000	0.069100	0.926200
O1951	O195	0.662000	0.091500	0.489100
O1961	O196	0.557100	0.357500	0.986100
O1971	O197	0.477000	0.339700	0.146500
O1981	O198	0.843500	0.118600	0.042600
O1991	O199	0.985200	0.188800	0.084900
O2001	O200	0.752100	0.064400	0.532300
O2011	O201	0.921700	0.915900	0.035400
O2021	O202	0.880300	0.973700	0.993600
O2031	O203	0.836100	0.243100	0.041000
O2041	O204	0.903600	0.079900	0.654800
O2051	O205	0.595400	0.323600	0.145700
O2061	O206	0.772700	0.337000	0.301800
O2071	O207	0.646700	0.348100	0.086600
O2081	O208	0.652800	0.353600	0.314900
O2091	O209	0.628100	0.155500	0.505500
O2101	O210	0.933700	0.248300	0.090300
O2111	O211	0.836600	0.217400	0.483000
O2121	O212	0.830100	0.072500	0.109800
O2131	O213	0.772900	0.255300	0.365100
O2141	O214	0.671500	0.086500	0.592300
O2151	O215	0.611800	0.423900	0.012500
O2161	O216	0.574100	0.392300	0.086200
O2171	O217	0.027900	0.146600	0.190800
O2181	O218	0.879900	0.184500	0.027800
O2191	O219	0.781000	0.300100	0.213600
O2201	O220	0.636800	0.118400	0.656000
O2211	O221	0.600100	0.045800	0.497400
O2221	O222	0.842400	0.160200	0.533700
O2231	O223	0.686600	0.274000	0.155400
O2241	O224	0.798500	0.425400	0.139000
O2251	O225	0.602300	0.102600	0.715300
O2261	O226	0.942200	0.120500	0.095000
O2271	O227	0.798700	0.134700	0.711300
O2281	O228	0.815100	0.001500	0.045800
O2291	O229	0.696000	0.024400	0.558500
O2301	O230	0.543800	0.093700	0.590900
O2311	O231	0.587200	0.287400	0.049600
O2321	O232	0.504600	0.329000	0.026500
O2331	O233	0.745200	0.418600	0.275500
O2341	O234	0.710100	0.205200	0.575500
O2351	O235	0.789400	0.191600	0.888700
O2361	O236	0.997600	0.007600	0.162100
O2371	O237	0.556900	0.359300	0.196100
O2381	O238	0.623000	0.311400	0.987600
O2391	O239	0.674000	0.234100	0.631900
O2401	O240	0.910200	0.123700	0.176200
O2411	O241	0.838000	0.357300	0.208100
O2421	O242	0.811400	0.191300	0.640500
O2431	O243	0.823400	0.010800	0.875600
O2441	O244	0.022400	0.080600	0.131500
O2451	O245	0.717000	0.298900	0.089600
O2461	O246	0.754000	0.168000	0.772400
O2471	O247	0.864600	0.248500	0.969400
O2481	O248	0.947600	0.186700	0.167100
W431	W43	0.944140	0.370070	0.699920
W441	W44	0.944310	0.462690	0.620510
W451	W45	0.004780	0.370500	0.621310
W461	W46	0.817080	0.372590	0.606510
W471	W47	0.875630	0.288670	0.615350
W481	W48	0.934760	0.291900	0.534510
W491	W49	0.932300	0.374690	0.462710
W501	W50	0.873670	0.468180	0.458740
W511	W51	0.816850	0.462080	0.529650
W521	W52	0.796890	0.272010	0.440300
W531	W53	0.793560	0.384230	0.341870
W541	W54	0.633110	0.340660	0.237620
W551	W55	0.727240	0.465690	0.222940
W561	W56	0.823880	0.409300	0.228270
W571	W57	0.783470	0.318990	0.154360
W581	W58	0.655780	0.282360	0.073050
W591	W59	0.566360	0.336390	0.062570
W601	W60	0.608760	0.433790	0.146180
W611	W61	0.648840	0.463470	0.063770
W621	W62	0.611130	0.365590	0.983470
W631	W63	0.742610	0.403470	0.066430
W641	W64	0.843290	0.132010	0.127750
W651	W65	0.895770	0.224990	0.114710
W661	W66	0.978650	0.136190	0.199660
W671	W67	0.832600	0.050540	0.047720
W681	W68	0.758660	0.129890	0.969380
W691	W69	0.806430	0.223830	0.953540
W701	W70	0.931430	0.222560	0.020320
W711	W71	0.012060	0.136450	0.103160
W721	W72	0.969340	0.051860	0.123160
W731	W73	0.773890	0.135790	0.842550
W741	W74	0.875140	0.029610	0.949610
W751	W75	0.833140	0.086260	0.741160
W761	W76	0.631410	0.154910	0.728800
W771	W77	0.603590	0.061580	0.665150
W781	W78	0.652540	0.020890	0.586140
W791	W79	0.728080	0.074160	0.568020
W801	W80	0.762700	0.175040	0.639940
W811	W81	0.717590	0.211230	0.713640
W821	W82	0.554480	0.141810	0.567770
W831	W83	0.641210	0.200990	0.555670
W841	W84	0.605130	0.099570	0.486400
As91	As9	0.361910	0.127220	0.019680
As101	As10	0.198080	0.131100	0.662850
As111	As11	0.382660	0.367850	0.520960
As121	As12	0.193960	0.388550	0.165830
C491	C49	0.440600	0.544000	0.477000
C501	C50	0.387500	0.425800	0.186000
C511	C51	0.400600	0.536400	0.270400
H331	H33	0.402400	0.560200	0.289800
C521	C52	0.392300	0.465700	0.214500
C531	C53	0.043400	0.206300	0.707400
C541	C54	0.412800	0.552000	0.504300
C551	C55	0.167700	0.288000	0.921000
H341	H34	0.134800	0.281700	0.905000
C561	C56	0.262900	0.304900	0.969500
C571	C57	0.037600	0.273800	0.734000
H351	H35	0.020400	0.293900	0.737700
C581	C58	0.196700	0.258800	0.914800
H361	H36	0.182400	0.234700	0.894100
C591	C59	0.317500	0.310700	0.998900
C601	C60	0.012900	0.236400	0.700800
H371	H37	0.978200	0.233200	0.676500
C611	C61	0.475700	0.569200	0.480000
H381	H38	0.484700	0.594000	0.500300
C621	C62	0.374800	0.500100	0.273000
H391	H39	0.360400	0.501500	0.294100
C631	C63	0.421600	0.533700	0.238200
H401	H40	0.438500	0.555200	0.236600
C641	C64	0.495500	0.554700	0.452000
H411	H41	0.520100	0.570000	0.454700
C651	C65	0.483500	0.522900	0.422300
H421	H42	0.496000	0.516000	0.400500
C661	C66	0.449000	0.496100	0.422800
H431	H43	0.441900	0.471100	0.404000
C671	C67	0.416200	0.497700	0.208900
H441	H44	0.428300	0.494900	0.185600
C681	C68	0.185500	0.321400	0.947200
H451	H45	0.164900	0.339300	0.948700
C691	C69	0.234800	0.332400	0.974000
H461	H46	0.248000	0.357000	0.993800
C701	C70	0.113100	0.245600	0.759600
H471	H47	0.146800	0.249000	0.777200
C711	C71	0.086100	0.277700	0.758200
H481	H48	0.102000	0.302200	0.774500
C721	C72	0.024400	0.165200	0.682000
Dy91	Dy9	0.218260	0.124440	0.915160
Dy101	Dy10	0.249420	0.225960	0.764280
Dy111	Dy11	0.420430	0.367230	0.412120
Dy121	Dy12	0.247190	0.477530	0.276910
K91	K9	0.329100	0.423700	0.019600
K101	K10	0.416400	0.334000	0.012800
K111	K11	0.403800	0.335700	0.168200
K121	K12	0.993400	0.074400	0.668000
N91	N9	0.427500	0.506900	0.449400
N101	N10	0.373000	0.465400	0.245100
N111	N11	0.245600	0.267600	0.939900
N121	N12	0.091500	0.210200	0.736100
O2491	O249	0.486800	0.076300	0.117000
O2501	O250	0.442800	0.077300	0.169500
O2511	O251	0.486900	0.142100	0.172300
O2521	O252	0.384600	0.015600	0.101300
O2531	O253	0.388100	0.119800	0.194000
O2541	O254	0.432800	0.187100	0.194500
O2551	O255	0.430600	0.015000	0.050900
O2561	O256	0.496800	0.122900	0.041200
O2571	O257	0.421900	0.069700	0.971400
O2581	O258	0.331800	0.007800	0.977800
O2591	O259	0.374700	0.074900	0.034800
O2601	O260	0.327100	0.073300	0.093900
O2611	O261	0.421700	0.140300	0.038800
O2621	O262	0.376300	0.142500	0.094100
O2631	O263	0.332100	0.184500	0.130100
O2641	O264	0.383900	0.258100	0.149600
O2651	O265	0.322800	0.221200	0.034700
O2661	O266	0.421100	0.213800	0.091600
O2671	O267	0.269800	0.136500	0.021500
O2681	O268	0.269800	0.067900	0.966000
O2691	O269	0.497400	0.188200	0.095800
O2701	O270	0.435600	0.182700	0.972100
O2711	O271	0.448900	0.256200	0.029100
O2721	O272	0.357500	0.208000	0.967800
O2731	O273	0.325300	0.060300	0.891300
O2741	O274	0.358200	0.131000	0.909300
O2751	O275	0.061600	0.048200	0.650200
O2761	O276	0.162700	0.305000	0.212900
O2771	O277	0.203400	0.050700	0.569200
O2781	O278	0.279400	0.046500	0.716300
O2791	O279	0.244800	0.124800	0.650500
O2801	O280	0.197500	0.340200	0.141600
O2811	O281	0.092800	0.313500	0.066100
O2821	O282	0.101400	0.031600	0.586900
O2831	O283	0.387500	0.396400	0.313700
O2841	O284	0.262600	0.116300	0.880000
O2851	O285	0.179100	0.121700	0.517400
O2861	O286	0.354300	0.315100	0.618900
O2871	O287	0.164000	0.035300	0.711800
O2881	O288	0.193500	0.358600	0.293800
O2891	O289	0.337700	0.364000	0.376400
O2901	O290	0.258900	0.413300	0.308700
O2911	O291	0.069700	0.333000	0.140400
O2921	O292	0.340600	0.450400	0.478400
O2931	O293	0.368200	0.399000	0.197600
O2941	O294	0.418900	0.311100	0.459500
O2951	O295	0.476200	0.375000	0.519700
O2961	O296	0.270600	0.289200	0.201800
O2971	O297	0.174900	0.079300	0.644800
O2981	O298	0.304100	0.444300	0.265800
O2991	O299	0.275500	0.377000	0.412300
O3001	O300	0.401300	0.451900	0.599900
O3011	O301	0.184400	0.191700	0.757200
O3021	O302	0.255500	0.185800	0.920600
O3031	O303	0.240300	0.369600	0.088100
O3041	O304	0.107100	0.462000	0.102600
O3051	O305	0.163800	0.453900	0.225700
O3061	O306	0.274000	0.145800	0.583100
O3071	O307	0.203800	0.482200	0.168700
O3081	O308	0.325900	0.105300	0.790700
O3091	O309	0.271400	0.365000	0.547400
O3101	O310	0.140300	0.110000	0.712400
O3111	O311	0.193400	0.006400	0.644400
O3121	O312	0.265400	0.427700	0.482700
O3131	O313	0.438200	0.461400	0.539800
O3141	O314	0.274500	0.315400	0.472200
O3151	O315	0.486200	0.418500	0.699300
O3161	O316	0.069400	0.385200	0.018700
O3171	O317	0.282100	0.434300	0.152800
O3181	O318	0.393000	0.430900	0.426200
O3191	O319	0.162000	0.408500	0.989100
O3201	O320	0.057100	0.142500	0.486100
O3211	O321	0.977000	0.160300	0.646500
O3221	O322	0.343500	0.381400	0.542600
O3231	O323	0.485200	0.311200	0.584900
O3241	O324	0.252100	0.435600	0.032300
O3251	O325	0.421700	0.584100	0.535400
O3261	O326	0.380300	0.526300	0.493600
O3271	O327	0.336100	0.256900	0.541000
O3281	O328	0.403600	0.420100	0.154800
O3291	O329	0.095400	0.176400	0.645700
O3301	O330	0.272700	0.163000	0.801800
O3311	O331	0.146700	0.151900	0.586600
O3321	O332	0.152800	0.146400	0.814900
O3331	O333	0.128100	0.344500	0.005500
O3341	O334	0.433700	0.251700	0.590300
O3351	O335	0.336600	0.282600	0.983000
O3361	O336	0.330100	0.427500	0.609800
O3371	O337	0.272900	0.244700	0.865100
O3381	O338	0.171500	0.413500	0.092300
O3391	O339	0.111800	0.076100	0.512500
O3401	O340	0.074100	0.107700	0.586200
O3411	O341	0.527900	0.353400	0.690800
O3421	O342	0.379900	0.315500	0.527800
O3431	O343	0.281000	0.199900	0.713600
O3441	O344	0.136800	0.381600	0.156000
O3451	O345	0.100100	0.454200	0.997400
O3461	O346	0.342400	0.339800	0.033700
O3471	O347	0.186600	0.226000	0.655400
O3481	O348	0.298500	0.074600	0.639000
O3491	O349	0.102300	0.397400	0.215300
O3501	O350	0.442200	0.379500	0.595000
O3511	O351	0.298700	0.365300	0.211300
O3521	O352	0.315100	0.498500	0.545800
O3531	O353	0.196000	0.475600	0.058500
O3541	O354	0.043800	0.406300	0.090900
O3551	O355	0.087200	0.212600	0.549600
O3561	O356	0.004600	0.171000	0.526500
O3571	O357	0.245200	0.081400	0.775500
O3581	O358	0.210100	0.294800	0.075500
O3591	O359	0.289400	0.308400	0.388700
O3601	O360	0.497600	0.492400	0.662100
O3611	O361	0.056900	0.140700	0.696100
O3621	O362	0.123000	0.188600	0.487600
O3631	O363	0.174000	0.265900	0.131900
O3641	O364	0.410200	0.376300	0.676200
O3651	O365	0.338000	0.142700	0.708100
O3661	O366	0.311400	0.308700	0.140500
O3671	O367	0.323400	0.489200	0.375600
O3681	O368	0.522400	0.419400	0.631500
O3691	O369	0.217000	0.201100	0.589600
O3701	O370	0.254000	0.332000	0.272400
O3711	O371	0.364600	0.251500	0.469400
O3721	O372	0.447600	0.313300	0.667100
W851	W85	0.444140	0.129930	0.199920
W861	W86	0.444310	0.037310	0.120510
W871	W87	0.504780	0.129500	0.121310
W881	W88	0.317080	0.127410	0.106510
W891	W89	0.375630	0.211330	0.115350
W901	W90	0.434760	0.208100	0.034510
W911	W91	0.432300	0.125310	0.962710
W921	W92	0.373670	0.031820	0.958740
W931	W93	0.316850	0.037920	0.029650
W941	W94	0.296890	0.227990	0.940300
W951	W95	0.293560	0.115770	0.841870
W961	W96	0.133110	0.159340	0.737620
W971	W97	0.227240	0.034310	0.722940
W981	W98	0.323880	0.090700	0.728270
W991	W99	0.283470	0.181010	0.654360
W1001	W100	0.155780	0.217640	0.573050
W1011	W101	0.066360	0.163610	0.562570
W1021	W102	0.108760	0.066210	0.646180
W1031	W103	0.148840	0.036530	0.563770
W1041	W104	0.111130	0.134410	0.483470
W1051	W105	0.242610	0.096530	0.566430
W1061	W106	0.343290	0.367990	0.627750
W1071	W107	0.395770	0.275010	0.614710
W1081	W108	0.478650	0.363810	0.699660
W1091	W109	0.332600	0.449460	0.547720
W1101	W110	0.258660	0.370110	0.469380
W1111	W111	0.306430	0.276170	0.453540
W1121	W112	0.431430	0.277440	0.520320
W1131	W113	0.512060	0.363550	0.603160
W1141	W114	0.469340	0.448140	0.623160
W1151	W115	0.273890	0.364210	0.342550
W1161	W116	0.375140	0.470390	0.449610
W1171	W117	0.333140	0.413740	0.241160
W1181	W118	0.131410	0.345090	0.228800
W1191	W119	0.103590	0.438420	0.165150
W1201	W120	0.152540	0.479110	0.086140
W1211	W121	0.228080	0.425840	0.068020
W1221	W122	0.262700	0.324960	0.139940
W1231	W123	0.217590	0.288770	0.213640
W1241	W124	0.054480	0.358190	0.067770
W1251	W125	0.141210	0.299010	0.055670
W1261	W126	0.105130	0.400430	0.986400
As131	As13	0.861910	0.627220	0.019680
As141	As14	0.698080	0.631100	0.662850
As151	As15	0.882660	0.867850	0.520960
As161	As16	0.693960	0.888550	0.165830
C731	C73	0.940600	0.044000	0.477000
C741	C74	0.887500	0.925800	0.186000
C751	C75	0.900600	0.036400	0.270400
H491	H49	0.902400	0.060200	0.289800
C761	C76	0.892300	0.965700	0.214500
C771	C77	0.543400	0.706300	0.707400
C781	C78	0.912800	0.052000	0.504300
C791	C79	0.667700	0.788000	0.921000
H501	H50	0.634800	0.781700	0.905000
C801	C80	0.762900	0.804900	0.969500
C811	C81	0.537600	0.773800	0.734000
H511	H51	0.520400	0.793900	0.737700
C821	C82	0.696700	0.758800	0.914800
H521	H52	0.682400	0.734700	0.894100
C831	C83	0.817500	0.810700	0.998900
C841	C84	0.512900	0.736400	0.700800
H531	H53	0.478200	0.733200	0.676500
C851	C85	0.975700	0.069200	0.480000
H541	H54	0.984700	0.094000	0.500300
C861	C86	0.874800	0.000100	0.273000
H551	H55	0.860400	0.001500	0.294100
C871	C87	0.921600	0.033700	0.238200
H561	H56	0.938500	0.055200	0.236600
C881	C88	0.995500	0.054700	0.452000
H571	H57	0.020100	0.070000	0.454700
C891	C89	0.983500	0.022900	0.422300
H581	H58	0.996000	0.016000	0.400500
C901	C90	0.949000	0.996100	0.422800
H591	H59	0.941900	0.971100	0.404000
C911	C91	0.916200	0.997700	0.208900
H601	H60	0.928300	0.994900	0.185600
C921	C92	0.685500	0.821400	0.947200
H611	H61	0.664900	0.839300	0.948700
C931	C93	0.734800	0.832400	0.974000
H621	H62	0.748000	0.857000	0.993800
C941	C94	0.613100	0.745600	0.759600
H631	H63	0.646800	0.749000	0.777200
C951	C95	0.586100	0.777700	0.758200
H641	H64	0.602000	0.802200	0.774500
C961	C96	0.524400	0.665200	0.682000
Dy131	Dy13	0.718260	0.624440	0.915160
Dy141	Dy14	0.749420	0.725960	0.764280
Dy151	Dy15	0.920430	0.867230	0.412120
Dy161	Dy16	0.747190	0.977530	0.276910
K131	K13	0.829100	0.923700	0.019600
K141	K14	0.916400	0.834000	0.012800
K151	K15	0.903800	0.835700	0.168200
K161	K16	0.493400	0.574400	0.668000
N131	N13	0.927500	0.006900	0.449400
N141	N14	0.873000	0.965400	0.245100
N151	N15	0.745600	0.767600	0.939900
N161	N16	0.591500	0.710200	0.736100
O3731	O373	0.986800	0.576300	0.117000
O3741	O374	0.942800	0.577300	0.169500
O3751	O375	0.986900	0.642100	0.172300
O3761	O376	0.884600	0.515600	0.101300
O3771	O377	0.888100	0.619800	0.194000
O3781	O378	0.932800	0.687100	0.194500
O3791	O379	0.930600	0.515000	0.050900
O3801	O380	0.996800	0.622900	0.041200
O3811	O381	0.921900	0.569700	0.971400
O3821	O382	0.831800	0.507800	0.977800
O3831	O383	0.874700	0.574900	0.034800
O3841	O384	0.827100	0.573300	0.093900
O3851	O385	0.921700	0.640300	0.038800
O3861	O386	0.876300	0.642500	0.094100
O3871	O387	0.832100	0.684500	0.130100
O3881	O388	0.883900	0.758100	0.149600
O3891	O389	0.822800	0.721200	0.034700
O3901	O390	0.921100	0.713800	0.091600
O3911	O391	0.769800	0.636500	0.021500
O3921	O392	0.769800	0.567900	0.966000
O3931	O393	0.997400	0.688200	0.095800
O3941	O394	0.935600	0.682700	0.972100
O3951	O395	0.948900	0.756200	0.029100
O3961	O396	0.857500	0.708000	0.967800
O3971	O397	0.825300	0.560300	0.891300
O3981	O398	0.858200	0.631000	0.909300
O3991	O399	0.561600	0.548200	0.650200
O4001	O400	0.662700	0.805000	0.212900
O4011	O401	0.703400	0.550700	0.569200
O4021	O402	0.779400	0.546500	0.716300
O4031	O403	0.744800	0.624800	0.650500
O4041	O404	0.697500	0.840200	0.141600
O4051	O405	0.592800	0.813500	0.066100
O4061	O406	0.601400	0.531600	0.586900
O4071	O407	0.887500	0.896400	0.313700
O4081	O408	0.762600	0.616300	0.880000
O4091	O409	0.679100	0.621700	0.517400
O4101	O410	0.854300	0.815100	0.618900
O4111	O411	0.664000	0.535300	0.711800
O4121	O412	0.693500	0.858600	0.293800
O4131	O413	0.837700	0.864000	0.376400
O4141	O414	0.758900	0.913300	0.308700
O4151	O415	0.569700	0.833000	0.140400
O4161	O416	0.840600	0.950400	0.478400
O4171	O417	0.868200	0.899000	0.197600
O4181	O418	0.918900	0.811100	0.459500
O4191	O419	0.976200	0.875000	0.519700
O4201	O420	0.770600	0.789200	0.201800
O4211	O421	0.674900	0.579300	0.644800
O4221	O422	0.804100	0.944300	0.265800
O4231	O423	0.775500	0.877000	0.412300
O4241	O424	0.901300	0.951900	0.599900
O4251	O425	0.684400	0.691700	0.757200
O4261	O426	0.755500	0.685800	0.920600
O4271	O427	0.740300	0.869600	0.088100
O4281	O428	0.607100	0.962000	0.102600
O4291	O429	0.663800	0.953900	0.225700
O4301	O430	0.774000	0.645800	0.583100
O4311	O431	0.703800	0.982200	0.168700
O4321	O432	0.825900	0.605300	0.790700
O4331	O433	0.771400	0.865000	0.547400
O4341	O434	0.640300	0.610000	0.712400
O4351	O435	0.693400	0.506400	0.644400
O4361	O436	0.765400	0.927700	0.482700
O4371	O437	0.938200	0.961400	0.539800
O4381	O438	0.774500	0.815400	0.472200
O4391	O439	0.986200	0.918500	0.699300
O4401	O440	0.569400	0.885200	0.018700
O4411	O441	0.782100	0.934300	0.152800
O4421	O442	0.893000	0.930900	0.426200
O4431	O443	0.662000	0.908500	0.989100
O4441	O444	0.557100	0.642500	0.486100
O4451	O445	0.477000	0.660300	0.646500
O4461	O446	0.843500	0.881400	0.542600
O4471	O447	0.985200	0.811200	0.584900
O4481	O448	0.752100	0.935600	0.032300
O4491	O449	0.921700	0.084100	0.535400
O4501	O450	0.880300	0.026300	0.493600
O4511	O451	0.836100	0.756900	0.541000
O4521	O452	0.903600	0.920100	0.154800
O4531	O453	0.595400	0.676400	0.645700
O4541	O454	0.772700	0.663000	0.801800
O4551	O455	0.646700	0.651900	0.586600
O4561	O456	0.652800	0.646400	0.814900
O4571	O457	0.628100	0.844500	0.005500
O4581	O458	0.933700	0.751700	0.590300
O4591	O459	0.836600	0.782600	0.983000
O4601	O460	0.830100	0.927500	0.609800
O4611	O461	0.772900	0.744700	0.865100
O4621	O462	0.671500	0.913500	0.092300
O4631	O463	0.611800	0.576100	0.512500
O4641	O464	0.574100	0.607700	0.586200
O4651	O465	0.027900	0.853400	0.690800
O4661	O466	0.879900	0.815500	0.527800
O4671	O467	0.781000	0.699900	0.713600
O4681	O468	0.636800	0.881600	0.156000
O4691	O469	0.600100	0.954200	0.997400
O4701	O470	0.842400	0.839800	0.033700
O4711	O471	0.686600	0.726000	0.655400
O4721	O472	0.798500	0.574600	0.639000
O4731	O473	0.602300	0.897400	0.215300
O4741	O474	0.942200	0.879500	0.595000
O4751	O475	0.798700	0.865300	0.211300
O4761	O476	0.815100	0.998500	0.545800
O4771	O477	0.696000	0.975600	0.058500
O4781	O478	0.543800	0.906300	0.090900
O4791	O479	0.587200	0.712600	0.549600
O4801	O480	0.504600	0.671000	0.526500
O4811	O481	0.745200	0.581400	0.775500
O4821	O482	0.710100	0.794800	0.075500
O4831	O483	0.789400	0.808400	0.388700
O4841	O484	0.997600	0.992400	0.662100
O4851	O485	0.556900	0.640700	0.696100
O4861	O486	0.623000	0.688600	0.487600
O4871	O487	0.674000	0.765900	0.131900
O4881	O488	0.910200	0.876300	0.676200
O4891	O489	0.838000	0.642700	0.708100
O4901	O490	0.811400	0.808700	0.140500
O4911	O491	0.823400	0.989200	0.375600
O4921	O492	0.022400	0.919400	0.631500
O4931	O493	0.717000	0.701100	0.589600
O4941	O494	0.754000	0.832000	0.272400
O4951	O495	0.864600	0.751500	0.469400
O4961	O496	0.947600	0.813300	0.667100
W1271	W127	0.944140	0.629930	0.199920
W1281	W128	0.944310	0.537310	0.120510
W1291	W129	0.004780	0.629500	0.121310
W1301	W130	0.817080	0.627410	0.106510
W1311	W131	0.875630	0.711330	0.115350
W1321	W132	0.934760	0.708100	0.034510
W1331	W133	0.932300	0.625310	0.962710
W1341	W134	0.873670	0.531820	0.958740
W1351	W135	0.816850	0.537920	0.029650
W1361	W136	0.796890	0.727990	0.940300
W1371	W137	0.793560	0.615770	0.841870
W1381	W138	0.633110	0.659340	0.737620
W1391	W139	0.727240	0.534310	0.722940
W1401	W140	0.823880	0.590700	0.728270
W1411	W141	0.783470	0.681010	0.654360
W1421	W142	0.655780	0.717640	0.573050
W1431	W143	0.566360	0.663610	0.562570
W1441	W144	0.608760	0.566210	0.646180
W1451	W145	0.648840	0.536530	0.563770
W1461	W146	0.611130	0.634410	0.483470
W1471	W147	0.742610	0.596530	0.566430
W1481	W148	0.843290	0.867990	0.627750
W1491	W149	0.895770	0.775010	0.614710
W1501	W150	0.978650	0.863810	0.699660
W1511	W151	0.832600	0.949460	0.547720
W1521	W152	0.758660	0.870110	0.469380
W1531	W153	0.806430	0.776170	0.453540
W1541	W154	0.931430	0.777440	0.520320
W1551	W155	0.012060	0.863550	0.603160
W1561	W156	0.969340	0.948140	0.623160
W1571	W157	0.773890	0.864210	0.342550
W1581	W158	0.875140	0.970390	0.449610
W1591	W159	0.833140	0.913740	0.241160
W1601	W160	0.631410	0.845090	0.228800
W1611	W161	0.603590	0.938420	0.165150
W1621	W162	0.652540	0.979110	0.086140
W1631	W163	0.728080	0.925840	0.068020
W1641	W164	0.762700	0.824960	0.139940
W1651	W165	0.717590	0.788770	0.213640
W1661	W166	0.554480	0.858190	0.067770
W1671	W167	0.641210	0.799010	0.055670
W1681	W168	0.605130	0.900430	0.986400
