data_ODIXEG_clean_PM
_symmetry_space_group_name_H-M	'P1'
_cell_length_a	12.706000
_cell_length_b	12.706000
_cell_length_c	23.817000
_cell_angle_alpha	90.000000
_cell_angle_beta	90.000000
_cell_angle_gamma	90.000000
_symmetry_Int_Tables_number 1

loop_
_symmetry_equiv_pos_as_xyz
'x,y,z'

loop_
_atom_site_label
_atom_site_type_symbol
_atom_site_fract_x
_atom_site_fract_y
_atom_site_fract_z
Zn11	Zn1	0.617580	0.000000	0.000000
Zn21	Zn2	0.382420	0.000000	0.000000
Zn31	Zn3	0.000000	0.617580	0.500000
Zn41	Zn4	0.000000	0.382420	0.500000
Si11	Si1	0.500000	0.500000	0.750000
Si21	Si2	0.500000	0.500000	0.250000
H11	H1	0.659100	0.633600	0.804400
H21	H2	0.657600	0.764500	0.871400
H31	H3	0.340900	0.366400	0.804400
H41	H4	0.342400	0.235500	0.871400
H51	H5	0.366400	0.659100	0.304400
H61	H6	0.235500	0.657600	0.371400
H71	H7	0.633600	0.340900	0.304400
H81	H8	0.764500	0.342400	0.371400
H91	H9	0.340900	0.633600	0.195600
H101	H10	0.342400	0.764500	0.128600
H111	H11	0.659100	0.366400	0.195600
H121	H12	0.657600	0.235500	0.128600
H131	H13	0.633600	0.659100	0.695600
H141	H14	0.764500	0.657600	0.628600
H151	H15	0.366400	0.340900	0.695600
H161	H16	0.235500	0.342400	0.628600
H171	H17	0.340900	0.366400	0.195600
H181	H18	0.342400	0.235500	0.128600
H191	H19	0.659100	0.633600	0.195600
H201	H20	0.657600	0.764500	0.128600
H211	H21	0.633600	0.340900	0.695600
H221	H22	0.764500	0.342400	0.628600
H231	H23	0.366400	0.659100	0.695600
H241	H24	0.235500	0.657600	0.628600
H251	H25	0.659100	0.366400	0.804400
H261	H26	0.657600	0.235500	0.871400
H271	H27	0.340900	0.633600	0.804400
H281	H28	0.342400	0.764500	0.871400
H291	H29	0.366400	0.340900	0.304400
H301	H30	0.235500	0.342400	0.371400
H311	H31	0.633600	0.659100	0.304400
H321	H32	0.764500	0.657600	0.371400
C11	C1	0.593690	0.659270	0.818070
C21	C2	0.592770	0.736920	0.858120
C31	C3	0.406310	0.340730	0.818070
C41	C4	0.407230	0.263080	0.858120
C51	C5	0.340730	0.593690	0.318070
C61	C6	0.263080	0.592770	0.358120
C71	C7	0.659270	0.406310	0.318070
C81	C8	0.736920	0.407230	0.358120
C91	C9	0.406310	0.659270	0.181930
C101	C10	0.407230	0.736920	0.141880
C111	C11	0.593690	0.340730	0.181930
C121	C12	0.592770	0.263080	0.141880
C131	C13	0.659270	0.593690	0.681930
C141	C14	0.736920	0.592770	0.641880
C151	C15	0.340730	0.406310	0.681930
C161	C16	0.263080	0.407230	0.641880
C171	C17	0.406310	0.340730	0.181930
C181	C18	0.407230	0.263080	0.141880
C191	C19	0.593690	0.659270	0.181930
C201	C20	0.592770	0.736920	0.141880
C211	C21	0.659270	0.406310	0.681930
C221	C22	0.736920	0.407230	0.641880
C231	C23	0.340730	0.593690	0.681930
C241	C24	0.263080	0.592770	0.641880
C251	C25	0.593690	0.340730	0.818070
C261	C26	0.592770	0.263080	0.858120
C271	C27	0.406310	0.659270	0.818070
C281	C28	0.407230	0.736920	0.858120
C291	C29	0.340730	0.406310	0.318070
C301	C30	0.263080	0.407230	0.358120
C311	C31	0.659270	0.593690	0.318070
C321	C32	0.736920	0.592770	0.358120
C331	C33	0.500000	0.617430	0.797110
C341	C34	0.500000	0.775500	0.879390
C351	C35	0.500000	0.858800	0.923640
C361	C36	0.500000	0.382570	0.797110
C371	C37	0.500000	0.224500	0.879390
C381	C38	0.500000	0.141200	0.923640
C391	C39	0.382570	0.500000	0.297110
C401	C40	0.224500	0.500000	0.379390
C411	C41	0.141200	0.500000	0.423640
C421	C42	0.617430	0.500000	0.297110
C431	C43	0.775500	0.500000	0.379390
C441	C44	0.858800	0.500000	0.423640
C451	C45	0.500000	0.617430	0.202890
C461	C46	0.500000	0.775500	0.120610
C471	C47	0.500000	0.858800	0.076360
C481	C48	0.500000	0.382570	0.202890
C491	C49	0.500000	0.224500	0.120610
C501	C50	0.500000	0.141200	0.076360
C511	C51	0.617430	0.500000	0.702890
C521	C52	0.775500	0.500000	0.620610
C531	C53	0.858800	0.500000	0.576360
C541	C54	0.382570	0.500000	0.702890
C551	C55	0.224500	0.500000	0.620610
C561	C56	0.141200	0.500000	0.576360
O11	O1	0.588490	0.889560	0.941400
O21	O2	0.411510	0.110440	0.941400
O31	O3	0.110440	0.588490	0.441400
O41	O4	0.889560	0.411510	0.441400
O51	O5	0.411510	0.889560	0.058600
O61	O6	0.588490	0.110440	0.058600
O71	O7	0.889560	0.588490	0.558600
O81	O8	0.110440	0.411510	0.558600
O91	O9	0.411510	0.110440	0.058600
O101	O10	0.588490	0.889560	0.058600
O111	O11	0.889560	0.411510	0.558600
O121	O12	0.110440	0.588490	0.558600
O131	O13	0.588490	0.110440	0.941400
O141	O14	0.411510	0.889560	0.941400
O151	O15	0.110440	0.411510	0.441400
O161	O16	0.889560	0.588490	0.441400
