data_ODODOC_clean_PM
_symmetry_space_group_name_H-M	'P1'
_cell_length_a	13.875000
_cell_length_b	14.072000
_cell_length_c	14.208000
_cell_angle_alpha	116.300000
_cell_angle_beta	109.724000
_cell_angle_gamma	101.428000
_symmetry_Int_Tables_number 1

loop_
_symmetry_equiv_pos_as_xyz
'x,y,z'

loop_
_atom_site_label
_atom_site_type_symbol
_atom_site_fract_x
_atom_site_fract_y
_atom_site_fract_z
Cd11	Cd1	0.705310	0.873760	0.886120
Cd21	Cd2	0.294690	0.126240	0.113880
Cd31	Cd3	0.000000	0.000000	0.000000
Si11	Si1	0.989880	0.653960	0.389090
Si21	Si2	0.010120	0.346040	0.610910
H11	H1	0.769000	0.456900	0.189700
H21	H2	0.305700	0.739900	0.745400
H31	H3	0.815900	0.526300	0.420200
H41	H4	0.705100	0.255900	0.065300
H51	H5	0.005900	0.866700	0.576300
H61	H6	0.743400	0.579600	0.552600
H71	H7	0.935800	0.919200	0.710100
H81	H8	0.120800	0.698100	0.623800
H91	H9	0.086300	0.484000	0.340800
H101	H10	0.775500	0.804300	0.187200
H111	H11	0.826900	0.742100	0.315200
H121	H12	0.207500	0.721100	0.389100
H131	H13	0.078400	0.704500	0.246100
H141	H14	0.034500	0.779200	0.128400
H151	H15	0.022700	0.283700	0.212000
H161	H16	0.394200	0.769600	0.514300
H171	H17	0.231000	0.543100	0.810300
H181	H18	0.694300	0.260100	0.254600
H191	H19	0.184100	0.473700	0.579800
H201	H20	0.294900	0.744100	0.934700
H211	H21	0.994100	0.133300	0.423700
H221	H22	0.256600	0.420400	0.447400
H231	H23	0.064200	0.080800	0.289900
H241	H24	0.879200	0.301900	0.376200
H251	H25	0.913700	0.516000	0.659200
H261	H26	0.224500	0.195700	0.812800
H271	H27	0.173100	0.257900	0.684800
H281	H28	0.792500	0.278900	0.610900
H291	H29	0.921600	0.295500	0.753900
H301	H30	0.965500	0.220800	0.871600
H311	H31	0.977300	0.716300	0.788000
H321	H32	0.605800	0.230400	0.485700
C11	C1	0.820900	0.422100	0.196300
C21	C2	0.919800	0.689900	0.484500
C31	C3	0.961400	0.721500	0.300600
C41	C4	0.143100	0.705500	0.492700
C51	C5	0.833900	0.755300	0.645500
C61	C6	0.489600	0.797200	0.726500
C71	C7	0.791000	0.788500	0.734300
C81	C8	0.286500	0.738000	0.673600
C91	C9	0.368300	0.761100	0.643100
C101	C10	0.934800	0.492600	0.281200
C111	C11	0.866100	0.834700	0.058700
C121	C12	0.901300	0.800400	0.147000
C131	C13	0.840800	0.606300	0.479000
C141	C14	0.782700	0.302200	0.121400
C151	C15	0.953500	0.807900	0.571900
C161	C16	0.797600	0.637900	0.558000
C171	C17	0.911300	0.839300	0.651200
C181	C18	0.175600	0.711900	0.600000
C191	C19	0.008500	0.438300	0.285000
C201	C20	0.839900	0.787200	0.201500
C211	C21	0.870600	0.749200	0.277600
C221	C22	0.226900	0.726400	0.462600
C231	C23	0.018600	0.728900	0.238400
C241	C24	0.990900	0.770900	0.165500
C251	C25	0.857600	0.249600	0.128400
C261	C26	0.970500	0.318400	0.208700
C271	C27	0.338800	0.754800	0.536900
C281	C28	0.819500	0.119400	0.055400
C291	C29	0.179100	0.577900	0.803700
C301	C30	0.080200	0.310100	0.515500
C311	C31	0.038600	0.278500	0.699400
C321	C32	0.856900	0.294500	0.507300
C331	C33	0.166100	0.244700	0.354500
C341	C34	0.510400	0.202800	0.273500
C351	C35	0.209000	0.211500	0.265700
C361	C36	0.713500	0.262000	0.326400
C371	C37	0.631700	0.238900	0.356900
C381	C38	0.065200	0.507400	0.718800
C391	C39	0.133900	0.165300	0.941300
C401	C40	0.098700	0.199600	0.853000
C411	C41	0.159200	0.393700	0.521000
C421	C42	0.217300	0.697800	0.878600
C431	C43	0.046500	0.192100	0.428100
C441	C44	0.202400	0.362100	0.442000
C451	C45	0.088700	0.160700	0.348800
C461	C46	0.824400	0.288100	0.400000
C471	C47	0.991500	0.561700	0.715000
C481	C48	0.160100	0.212800	0.798500
C491	C49	0.129400	0.250800	0.722400
C501	C50	0.773100	0.273600	0.537400
C511	C51	0.981400	0.271100	0.761600
C521	C52	0.009100	0.229100	0.834500
C531	C53	0.142400	0.750400	0.871600
C541	C54	0.029500	0.681600	0.791300
C551	C55	0.661200	0.245200	0.463100
C561	C56	0.180500	0.880600	0.944600
O11	O1	0.716800	0.712900	0.724900
O21	O2	0.833500	0.896900	0.818000
O31	O3	0.563100	0.845300	0.711000
O41	O4	0.512500	0.779600	0.809700
O51	O5	0.767700	0.829400	0.019200
O61	O6	0.716300	0.056500	0.988200
O71	O7	0.937500	0.863100	0.029400
O81	O8	0.893000	0.080100	0.067400
O91	O9	0.283200	0.287100	0.275100
O101	O10	0.166500	0.103100	0.182000
O111	O11	0.436900	0.154700	0.289000
O121	O12	0.487500	0.220400	0.190300
O131	O13	0.232300	0.170600	0.980800
O141	O14	0.283700	0.943500	0.011800
O151	O15	0.062500	0.136900	0.970600
O161	O16	0.107000	0.919900	0.932600
