data_ODODUI_clean_PM
_symmetry_space_group_name_H-M	'P1'
_cell_length_a	25.377000
_cell_length_b	29.788000
_cell_length_c	38.220000
_cell_angle_alpha	90.000000
_cell_angle_beta	99.005000
_cell_angle_gamma	90.000000
_symmetry_Int_Tables_number 1

loop_
_symmetry_equiv_pos_as_xyz
'x,y,z'

loop_
_atom_site_label
_atom_site_type_symbol
_atom_site_fract_x
_atom_site_fract_y
_atom_site_fract_z
Zn11	Zn1	0.243320	0.554870	0.549950
Zn21	Zn2	0.259490	0.607240	0.478810
Zn31	Zn3	0.089350	0.397610	0.158750
Zn41	Zn4	0.980480	0.459410	0.159920
Zn51	Zn5	0.350950	0.606470	0.553050
Zn61	Zn6	0.240410	0.655200	0.548790
Zn71	Zn7	0.530400	0.850650	0.859580
Zn81	Zn8	0.474430	0.366700	0.832500
Zn91	Zn9	0.528500	0.592810	0.083240
Zn101	Zn10	0.256680	0.054870	0.450050
Zn111	Zn11	0.240510	0.107240	0.521190
Zn121	Zn12	0.410650	0.897610	0.841250
Zn131	Zn13	0.519520	0.959410	0.840080
Zn141	Zn14	0.149050	0.106470	0.446950
Zn151	Zn15	0.259590	0.155200	0.451210
Zn161	Zn16	0.969600	0.350650	0.140420
Zn171	Zn17	0.025570	0.866700	0.167500
Zn181	Zn18	0.971500	0.092810	0.916760
Zn191	Zn19	0.756680	0.445130	0.450050
Zn201	Zn20	0.740510	0.392760	0.521190
Zn211	Zn21	0.910650	0.602390	0.841250
Zn221	Zn22	0.019520	0.540590	0.840080
Zn231	Zn23	0.649050	0.393530	0.446950
Zn241	Zn24	0.759590	0.344800	0.451210
Zn251	Zn25	0.469600	0.149350	0.140420
Zn261	Zn26	0.525570	0.633300	0.167500
Zn271	Zn27	0.471500	0.407190	0.916760
Zn281	Zn28	0.743320	0.945130	0.549950
Zn291	Zn29	0.759490	0.892760	0.478810
Zn301	Zn30	0.589350	0.102390	0.158750
Zn311	Zn31	0.480480	0.040590	0.159920
Zn321	Zn32	0.850950	0.893530	0.553050
Zn331	Zn33	0.740410	0.844800	0.548790
Zn341	Zn34	0.030400	0.649350	0.859580
Zn351	Zn35	0.974430	0.133300	0.832500
Zn361	Zn36	0.028500	0.907190	0.083240
Si11	Si1	0.065270	0.385810	0.382580
Si21	Si2	0.328190	0.622920	0.780540
Si31	Si3	0.191080	0.654790	0.078100
Si41	Si4	0.452540	0.326240	0.606980
Si51	Si5	0.434730	0.885810	0.617420
Si61	Si6	0.171810	0.122920	0.219460
Si71	Si7	0.308920	0.154790	0.921900
Si81	Si8	0.047460	0.826240	0.393020
Si91	Si9	0.934730	0.614190	0.617420
Si101	Si10	0.671810	0.377080	0.219460
Si111	Si11	0.808920	0.345210	0.921900
Si121	Si12	0.547460	0.673760	0.393020
Si131	Si13	0.565270	0.114190	0.382580
Si141	Si14	0.828190	0.877080	0.780540
Si151	Si15	0.691080	0.845210	0.078100
Si161	Si16	0.952540	0.173760	0.606980
H11	H1	0.994200	0.640500	0.907000
H21	H2	0.745600	0.365400	0.587300
H31	H3	0.181800	0.517500	0.402000
H41	H4	0.127800	0.465100	0.367700
H51	H5	0.104100	0.399600	0.456900
H61	H6	0.158200	0.452100	0.491200
H71	H7	0.924200	0.452300	0.439100
H81	H8	0.009000	0.448600	0.422600
H91	H9	0.967600	0.333300	0.369000
H101	H10	0.882700	0.337100	0.385500
H111	H11	0.070300	0.233900	0.432600
H121	H12	0.030200	0.302400	0.414100
H131	H13	0.166300	0.342300	0.380100
H141	H14	0.206400	0.273800	0.398600
H151	H15	0.114900	0.374200	0.263900
H161	H16	0.122100	0.356200	0.324100
H171	H17	0.001200	0.442000	0.333600
H181	H18	0.994000	0.460000	0.273400
H191	H19	0.183100	0.547800	0.829300
H201	H20	0.267000	0.553300	0.811500
H211	H21	0.234800	0.681800	0.780600
H221	H22	0.150900	0.676300	0.798400
H231	H23	0.386400	0.636800	0.665200
H241	H24	0.391800	0.647600	0.726300
H251	H25	0.248900	0.585700	0.723600
H261	H26	0.243600	0.574800	0.662500
H271	H27	0.350800	0.785200	0.792500
H281	H28	0.305700	0.718700	0.774200
H291	H29	0.433400	0.646500	0.820100
H301	H30	0.478400	0.713000	0.838500
H311	H31	0.423600	0.482700	0.784400
H321	H32	0.379800	0.545800	0.757500
H331	H33	0.364400	0.595500	0.854100
H341	H34	0.408300	0.532400	0.881000
H351	H35	0.180600	0.502700	0.120700
H361	H36	0.222100	0.565100	0.099600
H371	H37	0.095100	0.642300	0.112600
H381	H38	0.053600	0.579900	0.133700
H391	H39	0.364100	0.602900	0.056700
H401	H40	0.271600	0.612600	0.044500
H411	H41	0.276900	0.687400	0.133500
H421	H42	0.369400	0.677700	0.145700
H431	H43	0.135100	0.763200	0.160900
H441	H44	0.175600	0.696900	0.145800
H451	H45	0.148900	0.733400	0.042400
H461	H46	0.108400	0.799700	0.057500
H471	H47	0.043800	0.623200	0.989800
H481	H48	0.095600	0.621800	0.046100
H491	H49	0.219700	0.676000	0.005600
H501	H50	0.167800	0.677300	0.949300
H511	H51	0.439000	0.484200	0.571400
H521	H52	0.483800	0.416900	0.587600
H531	H53	0.342500	0.356000	0.592900
H541	H54	0.297700	0.423300	0.576800
H551	H55	0.440500	0.384800	0.723800
H561	H56	0.429600	0.385800	0.661900
H571	H57	0.489900	0.259800	0.662200
H581	H58	0.500800	0.258800	0.724200
H591	H59	0.358100	0.182500	0.589800
H601	H60	0.409900	0.237000	0.623200
H611	H61	0.403600	0.314900	0.535600
H621	H62	0.351800	0.260300	0.502200
H631	H63	0.581800	0.352400	0.524800
H641	H64	0.497800	0.333100	0.538200
H651	H65	0.558500	0.331400	0.642800
H661	H66	0.642500	0.350700	0.629400
H671	H67	0.505800	0.140500	0.093000
H681	H68	0.754400	0.865400	0.412700
H691	H69	0.318200	0.017500	0.598000
H701	H70	0.372200	0.965100	0.632300
H711	H71	0.395900	0.899600	0.543100
H721	H72	0.341800	0.952100	0.508800
H731	H73	0.575800	0.952300	0.560900
H741	H74	0.491000	0.948600	0.577400
H751	H75	0.532400	0.833300	0.631000
H761	H76	0.617300	0.837100	0.614500
H771	H77	0.429700	0.733900	0.567400
H781	H78	0.469800	0.802400	0.585900
H791	H79	0.333700	0.842300	0.619900
H801	H80	0.293600	0.773800	0.601400
H811	H81	0.385100	0.874200	0.736100
H821	H82	0.377900	0.856200	0.675900
H831	H83	0.498800	0.942000	0.666400
H841	H84	0.506000	0.960000	0.726600
H851	H85	0.316900	0.047800	0.170700
H861	H86	0.233000	0.053300	0.188500
H871	H87	0.265200	0.181800	0.219400
H881	H88	0.349100	0.176300	0.201600
H891	H89	0.113600	0.136800	0.334800
H901	H90	0.108200	0.147600	0.273700
H911	H91	0.251100	0.085700	0.276400
H921	H92	0.256400	0.074800	0.337500
H931	H93	0.149200	0.285200	0.207500
H941	H94	0.194300	0.218700	0.225800
H951	H95	0.066600	0.146500	0.179900
H961	H96	0.021600	0.213000	0.161500
H971	H97	0.076400	0.982700	0.215600
H981	H98	0.120200	0.045800	0.242500
H991	H99	0.135600	0.095500	0.145900
H1001	H100	0.091700	0.032400	0.119000
H1011	H101	0.319400	0.002700	0.879300
H1021	H102	0.277900	0.065100	0.900400
H1031	H103	0.404900	0.142300	0.887400
H1041	H104	0.446400	0.079900	0.866300
H1051	H105	0.135900	0.102900	0.943300
H1061	H106	0.228400	0.112600	0.955500
H1071	H107	0.223100	0.187400	0.866500
H1081	H108	0.130600	0.177700	0.854300
H1091	H109	0.364900	0.263200	0.839100
H1101	H110	0.324400	0.196900	0.854200
H1111	H111	0.351100	0.233400	0.957600
H1121	H112	0.391600	0.299700	0.942500
H1131	H113	0.456200	0.123200	0.010200
H1141	H114	0.404400	0.121800	0.953900
H1151	H115	0.280300	0.176000	0.994400
H1161	H116	0.332200	0.177300	0.050700
H1171	H117	0.061000	0.984200	0.428600
H1181	H118	0.016200	0.916900	0.412400
H1191	H119	0.157500	0.856000	0.407100
H1201	H120	0.202300	0.923300	0.423200
H1211	H121	0.059500	0.884800	0.276200
H1221	H122	0.070400	0.885800	0.338100
H1231	H123	0.010100	0.759800	0.337800
H1241	H124	0.999200	0.758800	0.275800
H1251	H125	0.141900	0.682500	0.410200
H1261	H126	0.090100	0.737000	0.376800
H1271	H127	0.096400	0.814900	0.464400
H1281	H128	0.148200	0.760300	0.497800
H1291	H129	0.918200	0.852400	0.475200
H1301	H130	0.002200	0.833100	0.461800
H1311	H131	0.941500	0.831400	0.357200
H1321	H132	0.857500	0.850700	0.370600
H1331	H133	0.005800	0.359500	0.093000
H1341	H134	0.254400	0.634600	0.412700
H1351	H135	0.818200	0.482500	0.598000
H1361	H136	0.872200	0.534900	0.632300
H1371	H137	0.895900	0.600400	0.543100
H1381	H138	0.841800	0.547900	0.508800
H1391	H139	0.075800	0.547700	0.560900
H1401	H140	0.991000	0.551400	0.577400
H1411	H141	0.032400	0.666700	0.631000
H1421	H142	0.117300	0.662900	0.614500
H1431	H143	0.929700	0.766100	0.567400
H1441	H144	0.969800	0.697600	0.585900
H1451	H145	0.833700	0.657700	0.619900
H1461	H146	0.793600	0.726200	0.601400
H1471	H147	0.885100	0.625800	0.736100
H1481	H148	0.877900	0.643800	0.675900
H1491	H149	0.998800	0.558000	0.666400
H1501	H150	0.006000	0.540000	0.726600
H1511	H151	0.816900	0.452200	0.170700
H1521	H152	0.733000	0.446700	0.188500
H1531	H153	0.765200	0.318200	0.219400
H1541	H154	0.849100	0.323700	0.201600
H1551	H155	0.613600	0.363200	0.334800
H1561	H156	0.608200	0.352400	0.273700
H1571	H157	0.751100	0.414300	0.276400
H1581	H158	0.756400	0.425200	0.337500
H1591	H159	0.649200	0.214800	0.207500
H1601	H160	0.694300	0.281300	0.225800
H1611	H161	0.566600	0.353500	0.179900
H1621	H162	0.521600	0.287000	0.161500
H1631	H163	0.576400	0.517300	0.215600
H1641	H164	0.620200	0.454200	0.242500
H1651	H165	0.635600	0.404500	0.145900
H1661	H166	0.591700	0.467600	0.119000
H1671	H167	0.819400	0.497300	0.879300
H1681	H168	0.777900	0.434900	0.900400
H1691	H169	0.904900	0.357700	0.887400
H1701	H170	0.946400	0.420100	0.866300
H1711	H171	0.635900	0.397100	0.943300
H1721	H172	0.728400	0.387400	0.955500
H1731	H173	0.723100	0.312600	0.866500
H1741	H174	0.630600	0.322300	0.854300
H1751	H175	0.864900	0.236800	0.839100
H1761	H176	0.824400	0.303100	0.854200
H1771	H177	0.851100	0.266600	0.957600
H1781	H178	0.891600	0.200300	0.942500
H1791	H179	0.956200	0.376800	0.010200
H1801	H180	0.904400	0.378200	0.953900
H1811	H181	0.780300	0.324000	0.994400
H1821	H182	0.832200	0.322700	0.050700
H1831	H183	0.561000	0.515800	0.428600
H1841	H184	0.516200	0.583100	0.412400
H1851	H185	0.657500	0.644000	0.407100
H1861	H186	0.702300	0.576700	0.423200
H1871	H187	0.559500	0.615200	0.276200
H1881	H188	0.570400	0.614200	0.338100
H1891	H189	0.510100	0.740200	0.337800
H1901	H190	0.499200	0.741200	0.275800
H1911	H191	0.641900	0.817500	0.410200
H1921	H192	0.590100	0.763000	0.376800
H1931	H193	0.596400	0.685100	0.464400
H1941	H194	0.648200	0.739700	0.497800
H1951	H195	0.418200	0.647600	0.475200
H1961	H196	0.502200	0.666900	0.461800
H1971	H197	0.441500	0.668600	0.357200
H1981	H198	0.357500	0.649300	0.370600
H1991	H199	0.494200	0.859500	0.907000
H2001	H200	0.245600	0.134600	0.587300
H2011	H201	0.681800	0.982500	0.402000
H2021	H202	0.627800	0.034900	0.367700
H2031	H203	0.604100	0.100400	0.456900
H2041	H204	0.658200	0.047900	0.491200
H2051	H205	0.424200	0.047700	0.439100
H2061	H206	0.509000	0.051400	0.422600
H2071	H207	0.467600	0.166700	0.369000
H2081	H208	0.382700	0.162900	0.385500
H2091	H209	0.570300	0.266100	0.432600
H2101	H210	0.530200	0.197600	0.414100
H2111	H211	0.666300	0.157700	0.380100
H2121	H212	0.706400	0.226200	0.398600
H2131	H213	0.614900	0.125800	0.263900
H2141	H214	0.622100	0.143800	0.324100
H2151	H215	0.501200	0.058000	0.333600
H2161	H216	0.494000	0.040000	0.273400
H2171	H217	0.683100	0.952200	0.829300
H2181	H218	0.767000	0.946700	0.811500
H2191	H219	0.734800	0.818200	0.780600
H2201	H220	0.650900	0.823700	0.798400
H2211	H221	0.886400	0.863200	0.665200
H2221	H222	0.891800	0.852400	0.726300
H2231	H223	0.748900	0.914300	0.723600
H2241	H224	0.743600	0.925200	0.662500
H2251	H225	0.850800	0.714800	0.792500
H2261	H226	0.805700	0.781300	0.774200
H2271	H227	0.933400	0.853500	0.820100
H2281	H228	0.978400	0.787000	0.838500
H2291	H229	0.923600	0.017300	0.784400
H2301	H230	0.879800	0.954200	0.757500
H2311	H231	0.864400	0.904500	0.854100
H2321	H232	0.908300	0.967600	0.881000
H2331	H233	0.680600	0.997300	0.120700
H2341	H234	0.722100	0.934900	0.099600
H2351	H235	0.595100	0.857700	0.112600
H2361	H236	0.553600	0.920100	0.133700
H2371	H237	0.864100	0.897100	0.056700
H2381	H238	0.771600	0.887400	0.044500
H2391	H239	0.776900	0.812600	0.133500
H2401	H240	0.869400	0.822300	0.145700
H2411	H241	0.635100	0.736800	0.160900
H2421	H242	0.675600	0.803100	0.145800
H2431	H243	0.648900	0.766600	0.042400
H2441	H244	0.608400	0.700300	0.057500
H2451	H245	0.543800	0.876800	0.989800
H2461	H246	0.595600	0.878200	0.046100
H2471	H247	0.719700	0.824000	0.005600
H2481	H248	0.667800	0.822700	0.949300
H2491	H249	0.939000	0.015800	0.571400
H2501	H250	0.983800	0.083100	0.587600
H2511	H251	0.842500	0.144000	0.592900
H2521	H252	0.797700	0.076700	0.576800
H2531	H253	0.940500	0.115200	0.723800
H2541	H254	0.929600	0.114200	0.661900
H2551	H255	0.989900	0.240200	0.662200
H2561	H256	0.000800	0.241200	0.724200
H2571	H257	0.858100	0.317500	0.589800
H2581	H258	0.909900	0.263000	0.623200
H2591	H259	0.903600	0.185100	0.535600
H2601	H260	0.851800	0.239700	0.502200
H2611	H261	0.081800	0.147600	0.524800
H2621	H262	0.997800	0.166900	0.538200
H2631	H263	0.058500	0.168600	0.642800
H2641	H264	0.142500	0.149300	0.629400
C11	C1	0.204300	0.524730	0.472720
C21	C2	0.175060	0.489700	0.449840
C31	C3	0.166030	0.493560	0.413150
C41	C4	0.133940	0.462420	0.392760
C51	C5	0.110880	0.427420	0.409070
C61	C6	0.119910	0.423560	0.445760
C71	C7	0.152000	0.454700	0.466150
C81	C8	0.843700	0.396240	0.428220
C91	C9	0.895450	0.395060	0.413870
C101	C10	0.932980	0.428180	0.424890
C111	C11	0.983390	0.425930	0.415080
C121	C12	0.996280	0.390570	0.394250
C131	C13	0.958750	0.357450	0.383220
C141	C14	0.908330	0.359700	0.393040
C151	C15	0.167700	0.203490	0.430870
C161	C16	0.142150	0.247400	0.417330
C171	C17	0.089810	0.255890	0.421920
C181	C18	0.065950	0.296570	0.410920
C191	C19	0.094440	0.328760	0.395320
C201	C20	0.146780	0.320270	0.390730
C211	C21	0.170640	0.279590	0.401740
C221	C22	0.046730	0.432090	0.224530
C231	C23	0.053770	0.418800	0.263030
C241	C24	0.091830	0.387970	0.278060
C251	C25	0.096110	0.377280	0.313800
C261	C26	0.062330	0.397400	0.334490
C271	C27	0.024280	0.428220	0.319460
C281	C28	0.020000	0.438920	0.283730
C291	C29	0.108900	0.607900	0.826740
C301	C30	0.159110	0.611530	0.815520
C311	C31	0.193590	0.574990	0.819430
C321	C32	0.243440	0.578260	0.808870
C331	C33	0.258790	0.618080	0.794390
C341	C34	0.224310	0.654620	0.790470
C351	C35	0.174460	0.651350	0.801040
C361	C36	0.310400	0.598100	0.621040
C371	C37	0.314550	0.604780	0.658130
C381	C38	0.358540	0.626390	0.677080
C391	C39	0.361690	0.632850	0.713370
C401	C40	0.320850	0.617690	0.730710
C411	C41	0.276860	0.596070	0.711760
C421	C42	0.273710	0.589620	0.675470
C431	C43	0.448600	0.797840	0.829210
C441	C44	0.418820	0.755390	0.817200
C451	C45	0.367520	0.757070	0.798100
C461	C46	0.340770	0.717540	0.787220
C471	C47	0.365310	0.676330	0.795440
C481	C48	0.416600	0.674650	0.814530
C491	C49	0.443360	0.714180	0.825410
C501	C50	0.440000	0.462200	0.852700
C511	C51	0.420090	0.501610	0.835300
C521	C52	0.411620	0.505600	0.798590
C531	C53	0.385600	0.543100	0.782600
C541	C54	0.367980	0.576610	0.803300
C551	C55	0.376400	0.572600	0.839990
C561	C56	0.402500	0.535100	0.855970
C571	C57	0.085900	0.494800	0.143310
C581	C58	0.113250	0.535460	0.129190
C591	C59	0.163270	0.531060	0.119070
C601	C60	0.187870	0.568120	0.106530
C611	C61	0.162460	0.609590	0.104110
C621	C62	0.112430	0.614000	0.114240
C631	C63	0.087830	0.576940	0.126780
C641	C64	0.430600	0.631200	0.110600
C651	C65	0.375490	0.639420	0.102350
C661	C66	0.346400	0.620080	0.072280
C671	C67	0.291400	0.625810	0.065030
C681	C68	0.265510	0.650880	0.087870
C691	C69	0.294600	0.670230	0.117940
C701	C70	0.349600	0.664500	0.125190
C711	C71	0.084900	0.827800	0.117800
C721	C72	0.117930	0.787700	0.110580
C731	C73	0.137900	0.757100	0.136820
C741	C74	0.161950	0.717740	0.127880
C751	C75	0.166060	0.708910	0.092700
C761	C76	0.146100	0.739500	0.066460
C771	C77	0.122040	0.778860	0.075400
C781	C78	0.057180	0.648600	0.932600
C791	C79	0.101000	0.650400	0.964240
C801	C80	0.079510	0.633920	0.992990
C811	C81	0.110300	0.633110	0.026440
C821	C82	0.162500	0.648770	0.031130
C831	C83	0.183960	0.665250	0.002380
C841	C84	0.153200	0.666060	0.968930
C851	C85	0.337800	0.503630	0.561130
C861	C86	0.364160	0.460120	0.572580
C871	C87	0.419440	0.458210	0.575810
C881	C88	0.446030	0.418210	0.585430
C891	C89	0.417340	0.380130	0.591810
C901	C90	0.362060	0.382040	0.588580
C911	C91	0.335470	0.422040	0.578970
C921	C92	0.479500	0.324900	0.770000
C931	C93	0.471660	0.321700	0.729800
C941	C94	0.450530	0.359440	0.711300
C951	C95	0.444050	0.360030	0.674520
C961	C96	0.458710	0.322900	0.656220
C971	C97	0.479850	0.285170	0.674720
C981	C98	0.486330	0.284570	0.711510
C991	C99	0.312700	0.182900	0.523800
C1001	C100	0.350090	0.216270	0.542840
C1011	C101	0.367350	0.209360	0.578770
C1021	C102	0.398120	0.241770	0.598630
C1031	C103	0.411630	0.281080	0.582550
C1041	C104	0.394360	0.287990	0.546620
C1051	C105	0.363590	0.255580	0.526760
C1061	C106	0.677060	0.361700	0.570900
C1071	C107	0.620040	0.353360	0.575880
C1081	C108	0.577100	0.348120	0.548780
C1091	C109	0.527190	0.336660	0.556720
C1101	C110	0.520250	0.330450	0.591760
C1111	C111	0.563200	0.335690	0.618850
C1121	C112	0.613110	0.347140	0.610920
C1131	C113	0.295700	0.024730	0.527280
C1141	C114	0.324940	0.989700	0.550160
C1151	C115	0.333970	0.993560	0.586850
C1161	C116	0.366060	0.962420	0.607240
C1171	C117	0.389120	0.927420	0.590930
C1181	C118	0.380090	0.923560	0.554240
C1191	C119	0.348000	0.954700	0.533850
C1201	C120	0.656300	0.896240	0.571780
C1211	C121	0.604550	0.895060	0.586130
C1221	C122	0.567020	0.928180	0.575110
C1231	C123	0.516610	0.925930	0.584920
C1241	C124	0.503720	0.890570	0.605750
C1251	C125	0.541250	0.857450	0.616780
C1261	C126	0.591670	0.859700	0.606960
C1271	C127	0.332300	0.703490	0.569130
C1281	C128	0.357850	0.747400	0.582670
C1291	C129	0.410190	0.755890	0.578080
C1301	C130	0.434050	0.796570	0.589080
C1311	C131	0.405560	0.828760	0.604680
C1321	C132	0.353220	0.820270	0.609270
C1331	C133	0.329360	0.779590	0.598260
C1341	C134	0.453270	0.932090	0.775470
C1351	C135	0.446230	0.918800	0.736970
C1361	C136	0.408170	0.887970	0.721940
C1371	C137	0.403890	0.877280	0.686200
C1381	C138	0.437670	0.897400	0.665510
C1391	C139	0.475720	0.928220	0.680540
C1401	C140	0.480000	0.938920	0.716270
C1411	C141	0.391100	0.107900	0.173260
C1421	C142	0.340890	0.111530	0.184480
C1431	C143	0.306410	0.074990	0.180570
C1441	C144	0.256560	0.078260	0.191130
C1451	C145	0.241210	0.118080	0.205610
C1461	C146	0.275690	0.154620	0.209530
C1471	C147	0.325540	0.151350	0.198960
C1481	C148	0.189600	0.098100	0.378960
C1491	C149	0.185450	0.104780	0.341870
C1501	C150	0.141460	0.126390	0.322920
C1511	C151	0.138310	0.132850	0.286630
C1521	C152	0.179150	0.117690	0.269290
C1531	C153	0.223140	0.096070	0.288240
C1541	C154	0.226290	0.089620	0.324530
C1551	C155	0.051400	0.297840	0.170790
C1561	C156	0.081180	0.255390	0.182800
C1571	C157	0.132480	0.257070	0.201900
C1581	C158	0.159230	0.217540	0.212780
C1591	C159	0.134690	0.176330	0.204560
C1601	C160	0.083400	0.174650	0.185470
C1611	C161	0.056640	0.214180	0.174590
C1621	C162	0.060000	0.962200	0.147300
C1631	C163	0.079910	0.001610	0.164700
C1641	C164	0.088380	0.005600	0.201410
C1651	C165	0.114400	0.043100	0.217400
C1661	C166	0.132020	0.076610	0.196700
C1671	C167	0.123600	0.072600	0.160010
C1681	C168	0.097500	0.035100	0.144030
C1691	C169	0.414100	0.994800	0.856690
C1701	C170	0.386750	0.035460	0.870810
C1711	C171	0.336730	0.031060	0.880930
C1721	C172	0.312130	0.068120	0.893470
C1731	C173	0.337540	0.109590	0.895890
C1741	C174	0.387570	0.114000	0.885760
C1751	C175	0.412170	0.076940	0.873220
C1761	C176	0.069400	0.131200	0.889400
C1771	C177	0.124510	0.139420	0.897650
C1781	C178	0.153600	0.120080	0.927720
C1791	C179	0.208600	0.125810	0.934970
C1801	C180	0.234490	0.150880	0.912130
C1811	C181	0.205400	0.170230	0.882060
C1821	C182	0.150400	0.164500	0.874810
C1831	C183	0.415100	0.327800	0.882200
C1841	C184	0.382070	0.287700	0.889420
C1851	C185	0.362100	0.257100	0.863180
C1861	C186	0.338050	0.217740	0.872120
C1871	C187	0.333940	0.208910	0.907300
C1881	C188	0.353900	0.239500	0.933540
C1891	C189	0.377960	0.278860	0.924600
C1901	C190	0.442820	0.148600	0.067400
C1911	C191	0.399000	0.150400	0.035760
C1921	C192	0.420490	0.133920	0.007010
C1931	C193	0.389700	0.133110	0.973560
C1941	C194	0.337500	0.148770	0.968870
C1951	C195	0.316040	0.165250	0.997620
C1961	C196	0.346800	0.166060	0.031070
C1971	C197	0.162200	0.003630	0.438870
C1981	C198	0.135840	0.960120	0.427420
C1991	C199	0.080560	0.958210	0.424190
C2001	C200	0.053970	0.918210	0.414570
C2011	C201	0.082660	0.880130	0.408190
C2021	C202	0.137940	0.882040	0.411420
C2031	C203	0.164530	0.922040	0.421030
C2041	C204	0.020500	0.824900	0.230000
C2051	C205	0.028340	0.821700	0.270200
C2061	C206	0.049470	0.859440	0.288700
C2071	C207	0.055950	0.860030	0.325480
C2081	C208	0.041290	0.822900	0.343780
C2091	C209	0.020150	0.785170	0.325280
C2101	C210	0.013670	0.784570	0.288490
C2111	C211	0.187300	0.682900	0.476200
C2121	C212	0.149910	0.716270	0.457160
C2131	C213	0.132650	0.709360	0.421230
C2141	C214	0.101880	0.741770	0.401370
C2151	C215	0.088370	0.781080	0.417450
C2161	C216	0.105640	0.787990	0.453380
C2171	C217	0.136410	0.755580	0.473240
C2181	C218	0.822940	0.861700	0.429100
C2191	C219	0.879960	0.853360	0.424120
C2201	C220	0.922900	0.848120	0.451220
C2211	C221	0.972810	0.836660	0.443280
C2221	C222	0.979750	0.830450	0.408240
C2231	C223	0.936800	0.835690	0.381150
C2241	C224	0.886890	0.847140	0.389080
C2251	C225	0.795700	0.475270	0.527280
C2261	C226	0.824940	0.510300	0.550160
C2271	C227	0.833970	0.506440	0.586850
C2281	C228	0.866060	0.537580	0.607240
C2291	C229	0.889120	0.572580	0.590930
C2301	C230	0.880090	0.576440	0.554240
C2311	C231	0.848000	0.545300	0.533850
C2321	C232	0.156300	0.603760	0.571780
C2331	C233	0.104550	0.604940	0.586130
C2341	C234	0.067020	0.571820	0.575110
C2351	C235	0.016610	0.574070	0.584920
C2361	C236	0.003720	0.609430	0.605750
C2371	C237	0.041250	0.642550	0.616780
C2381	C238	0.091670	0.640300	0.606960
C2391	C239	0.832300	0.796510	0.569130
C2401	C240	0.857850	0.752600	0.582670
C2411	C241	0.910190	0.744110	0.578080
C2421	C242	0.934050	0.703430	0.589080
C2431	C243	0.905560	0.671240	0.604680
C2441	C244	0.853220	0.679730	0.609270
C2451	C245	0.829360	0.720410	0.598260
C2461	C246	0.953270	0.567910	0.775470
C2471	C247	0.946230	0.581200	0.736970
C2481	C248	0.908170	0.612030	0.721940
C2491	C249	0.903890	0.622720	0.686200
C2501	C250	0.937670	0.602600	0.665510
C2511	C251	0.975720	0.571780	0.680540
C2521	C252	0.980000	0.561080	0.716270
C2531	C253	0.891100	0.392100	0.173260
C2541	C254	0.840890	0.388470	0.184480
C2551	C255	0.806410	0.425010	0.180570
C2561	C256	0.756560	0.421740	0.191130
C2571	C257	0.741210	0.381920	0.205610
C2581	C258	0.775690	0.345380	0.209530
C2591	C259	0.825540	0.348650	0.198960
C2601	C260	0.689600	0.401900	0.378960
C2611	C261	0.685450	0.395220	0.341870
C2621	C262	0.641460	0.373610	0.322920
C2631	C263	0.638310	0.367150	0.286630
C2641	C264	0.679150	0.382310	0.269290
C2651	C265	0.723140	0.403930	0.288240
C2661	C266	0.726290	0.410380	0.324530
C2671	C267	0.551400	0.202160	0.170790
C2681	C268	0.581180	0.244610	0.182800
C2691	C269	0.632480	0.242930	0.201900
C2701	C270	0.659230	0.282460	0.212780
C2711	C271	0.634690	0.323670	0.204560
C2721	C272	0.583400	0.325350	0.185470
C2731	C273	0.556640	0.285820	0.174590
C2741	C274	0.560000	0.537800	0.147300
C2751	C275	0.579910	0.498390	0.164700
C2761	C276	0.588380	0.494400	0.201410
C2771	C277	0.614400	0.456900	0.217400
C2781	C278	0.632020	0.423390	0.196700
C2791	C279	0.623600	0.427400	0.160010
C2801	C280	0.597500	0.464900	0.144030
C2811	C281	0.914100	0.505200	0.856690
C2821	C282	0.886750	0.464540	0.870810
C2831	C283	0.836730	0.468940	0.880930
C2841	C284	0.812130	0.431880	0.893470
C2851	C285	0.837540	0.390410	0.895890
C2861	C286	0.887570	0.386000	0.885760
C2871	C287	0.912170	0.423060	0.873220
C2881	C288	0.569400	0.368800	0.889400
C2891	C289	0.624510	0.360580	0.897650
C2901	C290	0.653600	0.379920	0.927720
C2911	C291	0.708600	0.374190	0.934970
C2921	C292	0.734490	0.349120	0.912130
C2931	C293	0.705400	0.329770	0.882060
C2941	C294	0.650400	0.335500	0.874810
C2951	C295	0.915100	0.172200	0.882200
C2961	C296	0.882070	0.212300	0.889420
C2971	C297	0.862100	0.242900	0.863180
C2981	C298	0.838050	0.282260	0.872120
C2991	C299	0.833940	0.291090	0.907300
C3001	C300	0.853900	0.260500	0.933540
C3011	C301	0.877960	0.221140	0.924600
C3021	C302	0.942820	0.351400	0.067400
C3031	C303	0.899000	0.349600	0.035760
C3041	C304	0.920490	0.366080	0.007010
C3051	C305	0.889700	0.366890	0.973560
C3061	C306	0.837500	0.351230	0.968870
C3071	C307	0.816040	0.334750	0.997620
C3081	C308	0.846800	0.333940	0.031070
C3091	C309	0.662200	0.496370	0.438870
C3101	C310	0.635840	0.539880	0.427420
C3111	C311	0.580560	0.541790	0.424190
C3121	C312	0.553970	0.581790	0.414570
C3131	C313	0.582660	0.619870	0.408190
C3141	C314	0.637940	0.617960	0.411420
C3151	C315	0.664530	0.577960	0.421030
C3161	C316	0.520500	0.675100	0.230000
C3171	C317	0.528340	0.678300	0.270200
C3181	C318	0.549470	0.640560	0.288700
C3191	C319	0.555950	0.639970	0.325480
C3201	C320	0.541290	0.677100	0.343780
C3211	C321	0.520150	0.714830	0.325280
C3221	C322	0.513670	0.715430	0.288490
C3231	C323	0.687300	0.817100	0.476200
C3241	C324	0.649910	0.783730	0.457160
C3251	C325	0.632650	0.790640	0.421230
C3261	C326	0.601880	0.758230	0.401370
C3271	C327	0.588370	0.718920	0.417450
C3281	C328	0.605640	0.712010	0.453380
C3291	C329	0.636410	0.744420	0.473240
C3301	C330	0.322940	0.638300	0.429100
C3311	C331	0.379960	0.646640	0.424120
C3321	C332	0.422900	0.651880	0.451220
C3331	C333	0.472810	0.663340	0.443280
C3341	C334	0.479750	0.669550	0.408240
C3351	C335	0.436800	0.664310	0.381150
C3361	C336	0.386890	0.652860	0.389080
C3371	C337	0.704300	0.975270	0.472720
C3381	C338	0.675060	0.010300	0.449840
C3391	C339	0.666030	0.006440	0.413150
C3401	C340	0.633940	0.037580	0.392760
C3411	C341	0.610880	0.072580	0.409070
C3421	C342	0.619910	0.076440	0.445760
C3431	C343	0.652000	0.045300	0.466150
C3441	C344	0.343700	0.103760	0.428220
C3451	C345	0.395450	0.104940	0.413870
C3461	C346	0.432980	0.071820	0.424890
C3471	C347	0.483390	0.074070	0.415080
C3481	C348	0.496280	0.109430	0.394250
C3491	C349	0.458750	0.142550	0.383220
C3501	C350	0.408330	0.140300	0.393040
C3511	C351	0.667700	0.296510	0.430870
C3521	C352	0.642150	0.252600	0.417330
C3531	C353	0.589810	0.244110	0.421920
C3541	C354	0.565950	0.203430	0.410920
C3551	C355	0.594440	0.171240	0.395320
C3561	C356	0.646780	0.179730	0.390730
C3571	C357	0.670640	0.220410	0.401740
C3581	C358	0.546730	0.067910	0.224530
C3591	C359	0.553770	0.081200	0.263030
C3601	C360	0.591830	0.112030	0.278060
C3611	C361	0.596110	0.122720	0.313800
C3621	C362	0.562330	0.102600	0.334490
C3631	C363	0.524280	0.071780	0.319460
C3641	C364	0.520000	0.061080	0.283730
C3651	C365	0.608900	0.892100	0.826740
C3661	C366	0.659110	0.888470	0.815520
C3671	C367	0.693590	0.925010	0.819430
C3681	C368	0.743440	0.921740	0.808870
C3691	C369	0.758790	0.881920	0.794390
C3701	C370	0.724310	0.845380	0.790470
C3711	C371	0.674460	0.848650	0.801040
C3721	C372	0.810400	0.901900	0.621040
C3731	C373	0.814550	0.895220	0.658130
C3741	C374	0.858540	0.873610	0.677080
C3751	C375	0.861690	0.867150	0.713370
C3761	C376	0.820850	0.882310	0.730710
C3771	C377	0.776860	0.903930	0.711760
C3781	C378	0.773710	0.910380	0.675470
C3791	C379	0.948600	0.702160	0.829210
C3801	C380	0.918820	0.744610	0.817200
C3811	C381	0.867520	0.742930	0.798100
C3821	C382	0.840770	0.782460	0.787220
C3831	C383	0.865310	0.823670	0.795440
C3841	C384	0.916600	0.825350	0.814530
C3851	C385	0.943360	0.785820	0.825410
C3861	C386	0.940000	0.037800	0.852700
C3871	C387	0.920090	0.998390	0.835300
C3881	C388	0.911620	0.994400	0.798590
C3891	C389	0.885600	0.956900	0.782600
C3901	C390	0.867980	0.923390	0.803300
C3911	C391	0.876400	0.927400	0.839990
C3921	C392	0.902500	0.964900	0.855970
C3931	C393	0.585900	0.005200	0.143310
C3941	C394	0.613250	0.964540	0.129190
C3951	C395	0.663270	0.968940	0.119070
C3961	C396	0.687870	0.931880	0.106530
C3971	C397	0.662460	0.890410	0.104110
C3981	C398	0.612430	0.886000	0.114240
C3991	C399	0.587830	0.923060	0.126780
C4001	C400	0.930600	0.868800	0.110600
C4011	C401	0.875490	0.860580	0.102350
C4021	C402	0.846400	0.879920	0.072280
C4031	C403	0.791400	0.874190	0.065030
C4041	C404	0.765510	0.849120	0.087870
C4051	C405	0.794600	0.829770	0.117940
C4061	C406	0.849600	0.835500	0.125190
C4071	C407	0.584900	0.672200	0.117800
C4081	C408	0.617930	0.712300	0.110580
C4091	C409	0.637900	0.742900	0.136820
C4101	C410	0.661950	0.782260	0.127880
C4111	C411	0.666060	0.791090	0.092700
C4121	C412	0.646100	0.760500	0.066460
C4131	C413	0.622040	0.721140	0.075400
C4141	C414	0.557180	0.851400	0.932600
C4151	C415	0.601000	0.849600	0.964240
C4161	C416	0.579510	0.866080	0.992990
C4171	C417	0.610300	0.866890	0.026440
C4181	C418	0.662500	0.851230	0.031130
C4191	C419	0.683960	0.834750	0.002380
C4201	C420	0.653200	0.833940	0.968930
C4211	C421	0.837800	0.996370	0.561130
C4221	C422	0.864160	0.039880	0.572580
C4231	C423	0.919440	0.041790	0.575810
C4241	C424	0.946030	0.081790	0.585430
C4251	C425	0.917340	0.119870	0.591810
C4261	C426	0.862060	0.117960	0.588580
C4271	C427	0.835470	0.077960	0.578970
C4281	C428	0.979500	0.175100	0.770000
C4291	C429	0.971660	0.178300	0.729800
C4301	C430	0.950530	0.140560	0.711300
C4311	C431	0.944050	0.139970	0.674520
C4321	C432	0.958710	0.177100	0.656220
C4331	C433	0.979850	0.214830	0.674720
C4341	C434	0.986330	0.215430	0.711510
C4351	C435	0.812700	0.317100	0.523800
C4361	C436	0.850090	0.283730	0.542840
C4371	C437	0.867350	0.290640	0.578770
C4381	C438	0.898120	0.258230	0.598630
C4391	C439	0.911630	0.218920	0.582550
C4401	C440	0.894360	0.212010	0.546620
C4411	C441	0.863590	0.244420	0.526760
C4421	C442	0.177060	0.138300	0.570900
C4431	C443	0.120040	0.146640	0.575880
C4441	C444	0.077100	0.151880	0.548780
C4451	C445	0.027190	0.163340	0.556720
C4461	C446	0.020250	0.169550	0.591760
C4471	C447	0.063200	0.164310	0.618850
C4481	C448	0.113110	0.152860	0.610920
O11	O1	0.274860	0.606750	0.530110
O21	O2	0.232060	0.551200	0.456420
O31	O3	0.205110	0.523930	0.505050
O41	O4	0.008890	0.405470	0.136870
O51	O5	0.826900	0.432660	0.439060
O61	O6	0.818760	0.357950	0.426610
O71	O7	0.142640	0.177440	0.445940
O81	O8	0.214640	0.200230	0.424080
O91	O9	0.002910	0.450800	0.210960
O101	O10	0.082650	0.417850	0.207370
O111	O11	0.096430	0.570730	0.839390
O121	O12	0.079540	0.641590	0.824190
O131	O13	0.349660	0.608350	0.604890
O141	O14	0.271800	0.578330	0.604560
O151	O15	0.426080	0.834150	0.817150
O161	O16	0.493910	0.794390	0.848670
O171	O17	0.445700	0.455960	0.883590
O181	O18	0.456700	0.430850	0.833400
O191	O19	0.109930	0.457620	0.141460
O201	O20	0.040430	0.500950	0.147470
O211	O21	0.454920	0.645660	0.140150
O221	O22	0.456400	0.610000	0.091770
O231	O23	0.060400	0.852560	0.093580
O241	O24	0.082300	0.832800	0.150500
O251	O25	0.078000	0.657250	0.905000
O261	O26	0.006690	0.655770	0.924880
O271	O27	0.360640	0.535740	0.554160
O281	O28	0.285620	0.501750	0.562340
O291	O29	0.467600	0.358840	0.783320
O301	O30	0.494400	0.289130	0.785540
O311	O31	0.298670	0.192260	0.491350
O321	O32	0.298910	0.148680	0.536970
O331	O33	0.717120	0.367960	0.595710
O341	O34	0.677140	0.372670	0.538700
O351	O35	0.225140	0.106750	0.469890
O361	O36	0.267940	0.051200	0.543580
O371	O37	0.294890	0.023930	0.494950
O381	O38	0.491110	0.905470	0.863130
O391	O39	0.673100	0.932660	0.560940
O401	O40	0.681240	0.857950	0.573390
O411	O41	0.357360	0.677440	0.554060
O421	O42	0.285360	0.700230	0.575920
O431	O43	0.497090	0.950800	0.789040
O441	O44	0.417350	0.917850	0.792630
O451	O45	0.403570	0.070730	0.160610
O461	O46	0.420460	0.141590	0.175810
O471	O47	0.150340	0.108350	0.395110
O481	O48	0.228200	0.078330	0.395440
O491	O49	0.073920	0.334150	0.182850
O501	O50	0.006090	0.294390	0.151330
O511	O51	0.054300	0.955960	0.116410
O521	O52	0.043300	0.930850	0.166600
O531	O53	0.390070	0.957620	0.858540
O541	O54	0.459570	0.000950	0.852530
O551	O55	0.045080	0.145660	0.859850
O561	O56	0.043600	0.110000	0.908230
O571	O57	0.439600	0.352560	0.906420
O581	O58	0.417700	0.332800	0.849500
O591	O59	0.422000	0.157250	0.095000
O601	O60	0.493310	0.155770	0.075120
O611	O61	0.139360	0.035740	0.445840
O621	O62	0.214380	0.001750	0.437660
O631	O63	0.032400	0.858840	0.216680
O641	O64	0.005600	0.789130	0.214460
O651	O65	0.201330	0.692260	0.508650
O661	O66	0.201090	0.648680	0.463030
O671	O67	0.782880	0.867960	0.404290
O681	O68	0.822860	0.872670	0.461300
O691	O69	0.725140	0.393250	0.469890
O701	O70	0.767940	0.448800	0.543580
O711	O71	0.794890	0.476070	0.494950
O721	O72	0.991110	0.594530	0.863130
O731	O73	0.173100	0.567340	0.560940
O741	O74	0.181240	0.642050	0.573390
O751	O75	0.857360	0.822560	0.554060
O761	O76	0.785360	0.799770	0.575920
O771	O77	0.997090	0.549200	0.789040
O781	O78	0.917350	0.582150	0.792630
O791	O79	0.903570	0.429270	0.160610
O801	O80	0.920460	0.358410	0.175810
O811	O81	0.650340	0.391650	0.395110
O821	O82	0.728200	0.421670	0.395440
O831	O83	0.573920	0.165850	0.182850
O841	O84	0.506090	0.205610	0.151330
O851	O85	0.554300	0.544040	0.116410
O861	O86	0.543300	0.569150	0.166600
O871	O87	0.890070	0.542380	0.858540
O881	O88	0.959570	0.499050	0.852530
O891	O89	0.545080	0.354340	0.859850
O901	O90	0.543600	0.390000	0.908230
O911	O91	0.939600	0.147440	0.906420
O921	O92	0.917700	0.167200	0.849500
O931	O93	0.922000	0.342750	0.095000
O941	O94	0.993310	0.344230	0.075120
O951	O95	0.639360	0.464260	0.445840
O961	O96	0.714380	0.498250	0.437660
O971	O97	0.532400	0.641160	0.216680
O981	O98	0.505600	0.710870	0.214460
O991	O99	0.701330	0.807740	0.508650
O1001	O100	0.701090	0.851320	0.463030
O1011	O101	0.282880	0.632040	0.404290
O1021	O102	0.322860	0.627330	0.461300
O1031	O103	0.774860	0.893250	0.530110
O1041	O104	0.732060	0.948800	0.456420
O1051	O105	0.705110	0.976070	0.505050
O1061	O106	0.508890	0.094530	0.136870
O1071	O107	0.326900	0.067340	0.439060
O1081	O108	0.318760	0.142050	0.426610
O1091	O109	0.642640	0.322560	0.445940
O1101	O110	0.714640	0.299770	0.424080
O1111	O111	0.502910	0.049200	0.210960
O1121	O112	0.582650	0.082150	0.207370
O1131	O113	0.596430	0.929270	0.839390
O1141	O114	0.579540	0.858410	0.824190
O1151	O115	0.849660	0.891650	0.604890
O1161	O116	0.771800	0.921670	0.604560
O1171	O117	0.926080	0.665850	0.817150
O1181	O118	0.993910	0.705610	0.848670
O1191	O119	0.945700	0.044040	0.883590
O1201	O120	0.956700	0.069150	0.833400
O1211	O121	0.609930	0.042380	0.141460
O1221	O122	0.540430	0.999050	0.147470
O1231	O123	0.954920	0.854340	0.140150
O1241	O124	0.956400	0.890000	0.091770
O1251	O125	0.560400	0.647440	0.093580
O1261	O126	0.582300	0.667200	0.150500
O1271	O127	0.578000	0.842750	0.905000
O1281	O128	0.506690	0.844230	0.924880
O1291	O129	0.860640	0.964260	0.554160
O1301	O130	0.785620	0.998250	0.562340
O1311	O131	0.967600	0.141160	0.783320
O1321	O132	0.994400	0.210870	0.785540
O1331	O133	0.798670	0.307740	0.491350
O1341	O134	0.798910	0.351320	0.536970
O1351	O135	0.217120	0.132040	0.595710
O1361	O136	0.177140	0.127330	0.538700
