data_ODODIW_clean_PM
_symmetry_space_group_name_H-M	'P1'
_cell_length_a	13.935000
_cell_length_b	14.196000
_cell_length_c	14.670800
_cell_angle_alpha	107.988000
_cell_angle_beta	113.735000
_cell_angle_gamma	100.298000
_symmetry_Int_Tables_number 1

loop_
_symmetry_equiv_pos_as_xyz
'x,y,z'

loop_
_atom_site_label
_atom_site_type_symbol
_atom_site_fract_x
_atom_site_fract_y
_atom_site_fract_z
Zn11	Zn1	0.471250	0.796710	0.556550
Zn21	Zn2	0.696700	0.004160	0.735800
Zn31	Zn3	0.528750	0.203290	0.443450
Zn41	Zn4	0.303300	0.995840	0.264200
Zn51	Zn5	0.500000	0.000000	0.500000
Si11	Si1	0.763830	0.634310	0.120000
Si21	Si2	0.236170	0.365690	0.880000
H11	H1	0.114300	0.758800	0.458500
H21	H2	0.920800	0.691500	0.346000
H31	H3	0.960200	0.707700	0.091100
H41	H4	0.151700	0.781400	0.204600
H51	H5	0.526700	0.616400	0.755700
H61	H6	0.589100	0.550700	0.887300
H71	H7	0.833800	0.832800	0.103800
H81	H8	0.782200	0.895200	0.969000
H91	H9	0.521500	0.258100	0.917800
H101	H10	0.561700	0.439300	0.011200
H111	H11	0.883600	0.497000	0.079300
H121	H12	0.840900	0.317800	0.978100
H131	H13	0.570900	0.614700	0.336900
H141	H14	0.642100	0.544500	0.222100
H151	H15	0.745400	0.831100	0.223900
H161	H16	0.677400	0.900200	0.338800
H171	H17	0.519000	0.987000	0.683000
H181	H18	0.885700	0.241200	0.541500
H191	H19	0.079200	0.308500	0.654000
H201	H20	0.039800	0.292300	0.908900
H211	H21	0.848300	0.218600	0.795400
H221	H22	0.473300	0.383600	0.244300
H231	H23	0.410900	0.449300	0.112700
H241	H24	0.166200	0.167200	0.896200
H251	H25	0.217800	0.104800	0.031000
H261	H26	0.478500	0.741900	0.082200
H271	H27	0.438300	0.560700	0.988800
H281	H28	0.116400	0.503000	0.920700
H291	H29	0.159100	0.682200	0.021900
H301	H30	0.429100	0.385300	0.663100
H311	H31	0.357900	0.455500	0.777900
H321	H32	0.254600	0.168900	0.776100
H331	H33	0.322600	0.099800	0.661200
H341	H34	0.481000	0.013000	0.317000
C11	C1	0.277500	0.815700	0.412800
C21	C2	0.154000	0.775800	0.342800
C31	C3	0.083200	0.749500	0.384200
C41	C4	0.967500	0.709800	0.317000
C51	C5	0.919400	0.696400	0.208800
C61	C6	0.991200	0.720400	0.166300
C71	C7	0.105100	0.761800	0.233200
C81	C8	0.616100	0.806200	0.764500
C91	C9	0.648900	0.763000	0.850300
C101	C10	0.590500	0.659800	0.825700
C111	C11	0.626900	0.621800	0.905000
C121	C12	0.717900	0.685000	0.010700
C131	C13	0.772800	0.787700	0.032500
C141	C14	0.741000	0.825800	0.953100
C151	C15	0.648200	0.157600	0.864700
C161	C16	0.676500	0.270500	0.934400
C171	C17	0.594300	0.306700	0.947700
C181	C18	0.619100	0.415000	0.005300
C191	C19	0.727500	0.488300	0.054500
C201	C20	0.809100	0.449600	0.044600
C211	C21	0.783700	0.342100	0.984600
C221	C22	0.570700	0.812000	0.421200
C231	C23	0.617200	0.765000	0.349000
C241	C24	0.606600	0.658600	0.314000
C251	C25	0.648800	0.616800	0.245000
C261	C26	0.700500	0.679300	0.209100
C271	C27	0.710100	0.786500	0.246500
C281	C28	0.669500	0.827600	0.314700
C291	C29	0.722500	0.184300	0.587200
C301	C30	0.846000	0.224200	0.657200
C311	C31	0.916800	0.250500	0.615800
C321	C32	0.032500	0.290200	0.683000
C331	C33	0.080600	0.303600	0.791200
C341	C34	0.008800	0.279600	0.833700
C351	C35	0.894900	0.238200	0.766800
C361	C36	0.383900	0.193800	0.235500
C371	C37	0.351100	0.237000	0.149700
C381	C38	0.409500	0.340200	0.174300
C391	C39	0.373100	0.378200	0.095000
C401	C40	0.282100	0.315000	0.989300
C411	C41	0.227200	0.212300	0.967500
C421	C42	0.259000	0.174200	0.046900
C431	C43	0.351800	0.842400	0.135300
C441	C44	0.323500	0.729500	0.065600
C451	C45	0.405700	0.693300	0.052300
C461	C46	0.380900	0.585000	0.994700
C471	C47	0.272500	0.511700	0.945500
C481	C48	0.190900	0.550400	0.955400
C491	C49	0.216300	0.657900	0.015400
C501	C50	0.429300	0.188000	0.578800
C511	C51	0.382800	0.235000	0.651000
C521	C52	0.393400	0.341400	0.686000
C531	C53	0.351200	0.383200	0.755000
C541	C54	0.299500	0.320700	0.790900
C551	C55	0.289900	0.213500	0.753500
C561	C56	0.330500	0.172400	0.685300
O11	O1	0.314300	0.780500	0.486600
O21	O2	0.336200	0.877300	0.395000
O31	O3	0.687700	0.889500	0.786100
O41	O4	0.524900	0.755700	0.678900
O51	O5	0.729600	0.135800	0.851200
O61	O6	0.552300	0.092800	0.822200
O71	O7	0.534900	0.756600	0.460500
O81	O8	0.573000	0.904900	0.437400
O91	O9	0.535800	0.955100	0.625600
O101	O10	0.685700	0.219500	0.513400
O111	O11	0.663800	0.122700	0.605000
O121	O12	0.312300	0.110500	0.213900
O131	O13	0.475100	0.244300	0.321100
O141	O14	0.270400	0.864200	0.148800
O151	O15	0.447700	0.907200	0.177800
O161	O16	0.465100	0.243400	0.539500
O171	O17	0.427000	0.095100	0.562600
O181	O18	0.464200	0.044900	0.374400
