data_ODONIF_clean_PM
_symmetry_space_group_name_H-M	'P1'
_cell_length_a	12.576400
_cell_length_b	12.576400
_cell_length_c	62.941000
_cell_angle_alpha	90.000000
_cell_angle_beta	90.000000
_cell_angle_gamma	120.000000
_symmetry_Int_Tables_number 1

loop_
_symmetry_equiv_pos_as_xyz
'x,y,z'

loop_
_atom_site_label
_atom_site_type_symbol
_atom_site_fract_x
_atom_site_fract_y
_atom_site_fract_z
Co11	Co1	0.594250	0.188500	0.416670
Co21	Co2	0.594250	0.405750	0.750000
Co31	Co3	0.811500	0.405750	0.083330
Co41	Co4	0.405750	0.811500	0.916670
Co51	Co5	0.405750	0.594250	0.250000
Co61	Co6	0.188500	0.594250	0.583330
Co71	Co7	0.696380	0.348190	0.583330
Co81	Co8	0.651810	0.303620	0.916670
Co91	Co9	0.651810	0.348190	0.250000
Co101	Co10	0.303620	0.651810	0.083330
Co111	Co11	0.348190	0.696380	0.416670
Co121	Co12	0.348190	0.651810	0.750000
H11	H1	0.978000	0.180000	0.434300
H21	H2	0.977700	0.301700	0.439500
H31	H3	0.903600	0.613600	0.520400
H41	H4	0.015000	0.622400	0.533100
H51	H5	0.942600	0.730500	0.471800
H61	H6	0.001200	0.793300	0.450100
H71	H7	0.590900	0.433800	0.418200
H81	H8	0.624800	0.588000	0.441900
H91	H9	0.662000	0.392100	0.488100
H101	H10	0.627300	0.244200	0.464000
H111	H11	0.690200	0.681900	0.475800
H121	H12	0.753500	0.630900	0.490800
H131	H13	0.560000	0.501400	0.507300
H141	H14	0.628800	0.373300	0.629400
H151	H15	0.471300	0.282700	0.652500
H161	H16	0.299500	0.002700	0.611500
H171	H17	0.463700	0.101800	0.589400
H181	H18	0.239500	0.125500	0.657200
H191	H19	0.183200	0.008400	0.642600
H201	H20	0.304100	0.942300	0.659400
H211	H21	0.903200	0.179700	0.471400
H221	H22	0.889700	0.393500	0.527200
H231	H23	0.974200	0.615100	0.439300
H241	H24	0.214500	0.907700	0.492500
H251	H25	0.202000	0.022000	0.767630
H261	H26	0.324000	0.022300	0.772830
H271	H27	0.710000	0.096400	0.853730
H281	H28	0.607400	0.985000	0.866430
H291	H29	0.787900	0.057400	0.805130
H301	H30	0.792100	0.998800	0.783430
H311	H31	0.842900	0.409100	0.751530
H321	H32	0.963200	0.375200	0.775230
H331	H33	0.730100	0.338000	0.821430
H341	H34	0.616900	0.372700	0.797330
H351	H35	0.991700	0.309800	0.809130
H361	H36	0.877400	0.246500	0.824130
H371	H37	0.941400	0.440000	0.840630
H381	H38	0.744500	0.371200	0.962730
H391	H39	0.811400	0.528700	0.985830
H401	H40	0.703200	0.700500	0.944830
H411	H41	0.638100	0.536300	0.922730
H421	H42	0.886000	0.760500	0.990530
H431	H43	0.825200	0.816800	0.975930
H441	H44	0.638200	0.695900	0.992730
H451	H45	0.276500	0.096800	0.804730
H461	H46	0.503800	0.110300	0.860530
H471	H47	0.640900	0.025800	0.772630
H481	H48	0.693200	0.785500	0.825830
H491	H49	0.820000	0.798000	0.100970
H501	H50	0.698300	0.676000	0.106170
H511	H51	0.386400	0.290000	0.187070
H521	H52	0.377600	0.392600	0.199770
H531	H53	0.269500	0.212100	0.138470
H541	H54	0.206700	0.207900	0.116770
H551	H55	0.566200	0.157100	0.084870
H561	H56	0.412000	0.036800	0.108570
H571	H57	0.607900	0.269900	0.154770
H581	H58	0.755800	0.383100	0.130670
H591	H59	0.318100	0.008300	0.142470
H601	H60	0.369100	0.122600	0.157470
H611	H61	0.498600	0.058600	0.173970
H621	H62	0.626700	0.255500	0.296070
H631	H63	0.717300	0.188600	0.319170
H641	H64	0.997300	0.296800	0.278170
H651	H65	0.898200	0.361900	0.256070
H661	H66	0.874500	0.114000	0.323870
H671	H67	0.991600	0.174800	0.309270
H681	H68	0.057700	0.361800	0.326070
H691	H69	0.820300	0.723500	0.138070
H701	H70	0.606500	0.496200	0.193870
H711	H71	0.384900	0.359100	0.105970
H721	H72	0.092300	0.306800	0.159170
H731	H73	0.022000	0.820000	0.934300
H741	H74	0.022300	0.698300	0.939500
H751	H75	0.096400	0.386400	0.020400
H761	H76	0.985000	0.377600	0.033100
H771	H77	0.057400	0.269500	0.971800
H781	H78	0.998800	0.206700	0.950100
H791	H79	0.409100	0.566200	0.918200
H801	H80	0.375200	0.412000	0.941900
H811	H81	0.338000	0.607900	0.988100
H821	H82	0.372700	0.755800	0.964000
H831	H83	0.309800	0.318100	0.975800
H841	H84	0.246500	0.369100	0.990800
H851	H85	0.440000	0.498600	0.007300
H861	H86	0.371200	0.626700	0.129400
H871	H87	0.528700	0.717300	0.152500
H881	H88	0.700500	0.997300	0.111500
H891	H89	0.536300	0.898200	0.089400
H901	H90	0.760500	0.874500	0.157200
H911	H91	0.816800	0.991600	0.142600
H921	H92	0.695900	0.057700	0.159400
H931	H93	0.096800	0.820300	0.971400
H941	H94	0.110300	0.606500	0.027200
H951	H95	0.025800	0.384900	0.939300
H961	H96	0.785500	0.092300	0.992500
H971	H97	0.798000	0.978000	0.267630
H981	H98	0.676000	0.977700	0.272830
H991	H99	0.290000	0.903600	0.353730
H1001	H100	0.392600	0.015000	0.366430
H1011	H101	0.212100	0.942600	0.305130
H1021	H102	0.207900	0.001200	0.283430
H1031	H103	0.157100	0.590900	0.251530
H1041	H104	0.036800	0.624800	0.275230
H1051	H105	0.269900	0.662000	0.321430
H1061	H106	0.383100	0.627300	0.297330
H1071	H107	0.008300	0.690200	0.309130
H1081	H108	0.122600	0.753500	0.324130
H1091	H109	0.058600	0.560000	0.340630
H1101	H110	0.255500	0.628800	0.462730
H1111	H111	0.188600	0.471300	0.485830
H1121	H112	0.296800	0.299500	0.444830
H1131	H113	0.361900	0.463700	0.422730
H1141	H114	0.114000	0.239500	0.490530
H1151	H115	0.174800	0.183200	0.475930
H1161	H116	0.361800	0.304100	0.492730
H1171	H117	0.723500	0.903200	0.304730
H1181	H118	0.496200	0.889700	0.360530
H1191	H119	0.359100	0.974200	0.272630
H1201	H120	0.306800	0.214500	0.325830
H1211	H121	0.180000	0.202000	0.600970
H1221	H122	0.301700	0.324000	0.606170
H1231	H123	0.613600	0.710000	0.687070
H1241	H124	0.622400	0.607400	0.699770
H1251	H125	0.730500	0.787900	0.638470
H1261	H126	0.793300	0.792100	0.616770
H1271	H127	0.433800	0.842900	0.584870
H1281	H128	0.588000	0.963200	0.608570
H1291	H129	0.392100	0.730100	0.654770
H1301	H130	0.244200	0.616900	0.630670
H1311	H131	0.681900	0.991700	0.642470
H1321	H132	0.630900	0.877400	0.657470
H1331	H133	0.501400	0.941400	0.673970
H1341	H134	0.373300	0.744500	0.796070
H1351	H135	0.282700	0.811400	0.819170
H1361	H136	0.002700	0.703200	0.778170
H1371	H137	0.101800	0.638100	0.756070
H1381	H138	0.125500	0.886000	0.823870
H1391	H139	0.008400	0.825200	0.809270
H1401	H140	0.942300	0.638200	0.826070
H1411	H141	0.179700	0.276500	0.638070
H1421	H142	0.393500	0.503800	0.693870
H1431	H143	0.615100	0.640900	0.605970
H1441	H144	0.907700	0.693200	0.659170
H1451	H145	0.798000	0.820000	0.899030
H1461	H146	0.676000	0.698300	0.893830
H1471	H147	0.290000	0.386400	0.812930
H1481	H148	0.392600	0.377600	0.800230
H1491	H149	0.212100	0.269500	0.861530
H1501	H150	0.207900	0.206700	0.883230
H1511	H151	0.157100	0.566200	0.915130
H1521	H152	0.036800	0.412000	0.891430
H1531	H153	0.269900	0.607900	0.845230
H1541	H154	0.383100	0.755800	0.869330
H1551	H155	0.008300	0.318100	0.857530
H1561	H156	0.122600	0.369100	0.842530
H1571	H157	0.058600	0.498600	0.826030
H1581	H158	0.255500	0.626700	0.703930
H1591	H159	0.188600	0.717300	0.680830
H1601	H160	0.296800	0.997300	0.721830
H1611	H161	0.361900	0.898200	0.743930
H1621	H162	0.114000	0.874500	0.676130
H1631	H163	0.174800	0.991600	0.690730
H1641	H164	0.361800	0.057700	0.673930
H1651	H165	0.723500	0.820300	0.861930
H1661	H166	0.496200	0.606500	0.806130
H1671	H167	0.359100	0.384900	0.894030
H1681	H168	0.306800	0.092300	0.840830
H1691	H169	0.180000	0.978000	0.565700
H1701	H170	0.301700	0.977700	0.560500
H1711	H171	0.613600	0.903600	0.479600
H1721	H172	0.622400	0.015000	0.466900
H1731	H173	0.730500	0.942600	0.528200
H1741	H174	0.793300	0.001200	0.549900
H1751	H175	0.433800	0.590900	0.581800
H1761	H176	0.588000	0.624800	0.558100
H1771	H177	0.392100	0.662000	0.511900
H1781	H178	0.244200	0.627300	0.536000
H1791	H179	0.681900	0.690200	0.524200
H1801	H180	0.630900	0.753500	0.509200
H1811	H181	0.501400	0.560000	0.492700
H1821	H182	0.373300	0.628800	0.370600
H1831	H183	0.282700	0.471300	0.347500
H1841	H184	0.002700	0.299500	0.388500
H1851	H185	0.101800	0.463700	0.410600
H1861	H186	0.125500	0.239500	0.342800
H1871	H187	0.008400	0.183200	0.357400
H1881	H188	0.942300	0.304100	0.340600
H1891	H189	0.179700	0.903200	0.528600
H1901	H190	0.393500	0.889700	0.472800
H1911	H191	0.615100	0.974200	0.560700
H1921	H192	0.907700	0.214500	0.507500
H1931	H193	0.022000	0.202000	0.232370
H1941	H194	0.022300	0.324000	0.227170
H1951	H195	0.096400	0.710000	0.146270
H1961	H196	0.985000	0.607400	0.133570
H1971	H197	0.057400	0.787900	0.194870
H1981	H198	0.998800	0.792100	0.216570
H1991	H199	0.409100	0.842900	0.248470
H2001	H200	0.375200	0.963200	0.224770
H2011	H201	0.338000	0.730100	0.178570
H2021	H202	0.372700	0.616900	0.202670
H2031	H203	0.309800	0.991700	0.190870
H2041	H204	0.246500	0.877400	0.175870
H2051	H205	0.440000	0.941400	0.159370
H2061	H206	0.371200	0.744500	0.037270
H2071	H207	0.528700	0.811400	0.014170
H2081	H208	0.700500	0.703200	0.055170
H2091	H209	0.536300	0.638100	0.077270
H2101	H210	0.760500	0.886000	0.009470
H2111	H211	0.816800	0.825200	0.024070
H2121	H212	0.695900	0.638200	0.007270
H2131	H213	0.096800	0.276500	0.195270
H2141	H214	0.110300	0.503800	0.139470
H2151	H215	0.025800	0.640900	0.227370
H2161	H216	0.785500	0.693200	0.174170
H2171	H217	0.202000	0.180000	0.399030
H2181	H218	0.324000	0.301700	0.393830
H2191	H219	0.710000	0.613600	0.312930
H2201	H220	0.607400	0.622400	0.300230
H2211	H221	0.787900	0.730500	0.361530
H2221	H222	0.792100	0.793300	0.383230
H2231	H223	0.842900	0.433800	0.415130
H2241	H224	0.963200	0.588000	0.391430
H2251	H225	0.730100	0.392100	0.345230
H2261	H226	0.616900	0.244200	0.369330
H2271	H227	0.991700	0.681900	0.357530
H2281	H228	0.877400	0.630900	0.342530
H2291	H229	0.941400	0.501400	0.326030
H2301	H230	0.744500	0.373300	0.203930
H2311	H231	0.811400	0.282700	0.180830
H2321	H232	0.703200	0.002700	0.221830
H2331	H233	0.638100	0.101800	0.243930
H2341	H234	0.886000	0.125500	0.176130
H2351	H235	0.825200	0.008400	0.190730
H2361	H236	0.638200	0.942300	0.173930
H2371	H237	0.276500	0.179700	0.361930
H2381	H238	0.503800	0.393500	0.306130
H2391	H239	0.640900	0.615100	0.394030
H2401	H240	0.693200	0.907700	0.340830
H2411	H241	0.820000	0.022000	0.065700
H2421	H242	0.698300	0.022300	0.060500
H2431	H243	0.386400	0.096400	0.979600
H2441	H244	0.377600	0.985000	0.966900
H2451	H245	0.269500	0.057400	0.028200
H2461	H246	0.206700	0.998800	0.049900
H2471	H247	0.566200	0.409100	0.081800
H2481	H248	0.412000	0.375200	0.058100
H2491	H249	0.607900	0.338000	0.011900
H2501	H250	0.755800	0.372700	0.036000
H2511	H251	0.318100	0.309800	0.024200
H2521	H252	0.369100	0.246500	0.009200
H2531	H253	0.498600	0.440000	0.992700
H2541	H254	0.626700	0.371200	0.870600
H2551	H255	0.717300	0.528700	0.847500
H2561	H256	0.997300	0.700500	0.888500
H2571	H257	0.898200	0.536300	0.910600
H2581	H258	0.874500	0.760500	0.842800
H2591	H259	0.991600	0.816800	0.857400
H2601	H260	0.057700	0.695900	0.840600
H2611	H261	0.820300	0.096800	0.028600
H2621	H262	0.606500	0.110300	0.972800
H2631	H263	0.384900	0.025800	0.060700
H2641	H264	0.092300	0.785500	0.007500
H2651	H265	0.978000	0.798000	0.732370
H2661	H266	0.977700	0.676000	0.727170
H2671	H267	0.903600	0.290000	0.646270
H2681	H268	0.015000	0.392600	0.633570
H2691	H269	0.942600	0.212100	0.694870
H2701	H270	0.001200	0.207900	0.716570
H2711	H271	0.590900	0.157100	0.748470
H2721	H272	0.624800	0.036800	0.724770
H2731	H273	0.662000	0.269900	0.678570
H2741	H274	0.627300	0.383100	0.702670
H2751	H275	0.690200	0.008300	0.690870
H2761	H276	0.753500	0.122600	0.675870
H2771	H277	0.560000	0.058600	0.659370
H2781	H278	0.628800	0.255500	0.537270
H2791	H279	0.471300	0.188600	0.514170
H2801	H280	0.299500	0.296800	0.555170
H2811	H281	0.463700	0.361900	0.577270
H2821	H282	0.239500	0.114000	0.509470
H2831	H283	0.183200	0.174800	0.524070
H2841	H284	0.304100	0.361800	0.507270
H2851	H285	0.903200	0.723500	0.695270
H2861	H286	0.889700	0.496200	0.639470
H2871	H287	0.974200	0.359100	0.727370
H2881	H288	0.214500	0.306800	0.674170
C11	C1	0.923300	0.338400	0.469000
C21	C2	0.924700	0.451200	0.498750
C31	C3	0.959200	0.531500	0.465520
C41	C4	0.929800	0.213600	0.439730
C51	C5	0.817700	0.172100	0.426010
C61	C6	0.928500	0.569700	0.529940
C71	C7	0.855600	0.541400	0.550260
C81	C8	0.005300	0.743500	0.461440
C91	C9	0.130600	0.813600	0.472030
C101	C10	0.605800	0.425100	0.432390
C111	C11	0.626700	0.519000	0.446670
C121	C12	0.650400	0.509800	0.467940
C131	C13	0.648600	0.403400	0.473960
C141	C14	0.627400	0.314500	0.459410
C151	C15	0.677600	0.609800	0.483490
C161	C16	0.561000	0.298800	0.625540
C171	C17	0.466700	0.244800	0.639630
C181	C18	0.363500	0.133100	0.634790
C191	C19	0.364900	0.078800	0.615370
C201	C20	0.464100	0.139700	0.602140
C211	C21	0.256300	0.066500	0.650300
C221	C22	0.415100	0.076700	0.802330
C231	C23	0.526500	0.075300	0.832080
C241	C24	0.572300	0.040800	0.798850
C251	C25	0.283800	0.070200	0.773060
C261	C26	0.354400	0.182300	0.759340
C271	C27	0.641200	0.071500	0.863270
C281	C28	0.685800	0.144400	0.883590
C291	C29	0.738200	0.994700	0.794770
C301	C30	0.683000	0.869400	0.805360
C311	C31	0.819300	0.394200	0.765720
C321	C32	0.892300	0.373300	0.780000
C331	C33	0.859400	0.349600	0.801270
C341	C34	0.754800	0.351400	0.807290
C351	C35	0.687100	0.372600	0.792740
C361	C36	0.932200	0.322400	0.816820
C371	C37	0.737800	0.439000	0.958870
C381	C38	0.778100	0.533300	0.972960
C391	C39	0.769600	0.636500	0.968120
C401	C40	0.713900	0.635100	0.948700
C411	C41	0.675600	0.535900	0.935470
C421	C42	0.810200	0.743700	0.983630
C431	C43	0.661600	0.584900	0.135670
C441	C44	0.548800	0.473500	0.165420
C451	C45	0.468500	0.427700	0.132190
C461	C46	0.786400	0.716200	0.106400
C471	C47	0.827900	0.645600	0.092680
C481	C48	0.430300	0.358800	0.196610
C491	C49	0.458600	0.314200	0.216930
C501	C50	0.256500	0.261800	0.128110
C511	C51	0.186400	0.317000	0.138700
C521	C52	0.574900	0.180700	0.099060
C531	C53	0.481000	0.107700	0.113340
C541	C54	0.490200	0.140600	0.134610
C551	C55	0.596600	0.245200	0.140630
C561	C56	0.685500	0.312900	0.126080
C571	C57	0.390200	0.067800	0.150160
C581	C58	0.701200	0.262200	0.292210
C591	C59	0.755200	0.221900	0.306300
C601	C60	0.866900	0.230400	0.301460
C611	C61	0.921200	0.286100	0.282040
C621	C62	0.860300	0.324400	0.268810
C631	C63	0.933500	0.189800	0.316970
C641	C64	0.076700	0.661600	0.969000
C651	C65	0.075300	0.548800	0.998750
C661	C66	0.040800	0.468500	0.965520
C671	C67	0.070200	0.786400	0.939730
C681	C68	0.182300	0.827900	0.926010
C691	C69	0.071500	0.430300	0.029940
C701	C70	0.144400	0.458600	0.050260
C711	C71	0.994700	0.256500	0.961440
C721	C72	0.869400	0.186400	0.972030
C731	C73	0.394200	0.574900	0.932390
C741	C74	0.373300	0.481000	0.946670
C751	C75	0.349600	0.490200	0.967940
C761	C76	0.351400	0.596600	0.973960
C771	C77	0.372600	0.685500	0.959410
C781	C78	0.322400	0.390200	0.983490
C791	C79	0.439000	0.701200	0.125540
C801	C80	0.533300	0.755200	0.139630
C811	C81	0.636500	0.866900	0.134790
C821	C82	0.635100	0.921200	0.115370
C831	C83	0.535900	0.860300	0.102140
C841	C84	0.743700	0.933500	0.150300
C851	C85	0.584900	0.923300	0.302330
C861	C86	0.473500	0.924700	0.332080
C871	C87	0.427700	0.959200	0.298850
C881	C88	0.716200	0.929800	0.273060
C891	C89	0.645600	0.817700	0.259340
C901	C90	0.358800	0.928500	0.363270
C911	C91	0.314200	0.855600	0.383590
C921	C92	0.261800	0.005300	0.294770
C931	C93	0.317000	0.130600	0.305360
C941	C94	0.180700	0.605800	0.265720
C951	C95	0.107700	0.626700	0.280000
C961	C96	0.140600	0.650400	0.301270
C971	C97	0.245200	0.648600	0.307290
C981	C98	0.312900	0.627400	0.292740
C991	C99	0.067800	0.677600	0.316820
C1001	C100	0.262200	0.561000	0.458870
C1011	C101	0.221900	0.466700	0.472960
C1021	C102	0.230400	0.363500	0.468120
C1031	C103	0.286100	0.364900	0.448700
C1041	C104	0.324400	0.464100	0.435470
C1051	C105	0.189800	0.256300	0.483630
C1061	C106	0.338400	0.415100	0.635670
C1071	C107	0.451200	0.526500	0.665420
C1081	C108	0.531500	0.572300	0.632190
C1091	C109	0.213600	0.283800	0.606400
C1101	C110	0.172100	0.354400	0.592680
C1111	C111	0.569700	0.641200	0.696610
C1121	C112	0.541400	0.685800	0.716930
C1131	C113	0.743500	0.738200	0.628110
C1141	C114	0.813600	0.683000	0.638700
C1151	C115	0.425100	0.819300	0.599060
C1161	C116	0.519000	0.892300	0.613340
C1171	C117	0.509800	0.859400	0.634610
C1181	C118	0.403400	0.754800	0.640630
C1191	C119	0.314500	0.687100	0.626080
C1201	C120	0.609800	0.932200	0.650160
C1211	C121	0.298800	0.737800	0.792210
C1221	C122	0.244800	0.778100	0.806300
C1231	C123	0.133100	0.769600	0.801460
C1241	C124	0.078800	0.713900	0.782040
C1251	C125	0.139700	0.675600	0.768810
C1261	C126	0.066500	0.810200	0.816970
C1271	C127	0.584900	0.661600	0.864330
C1281	C128	0.473500	0.548800	0.834580
C1291	C129	0.427700	0.468500	0.867810
C1301	C130	0.716200	0.786400	0.893600
C1311	C131	0.645600	0.827900	0.907320
C1321	C132	0.358800	0.430300	0.803390
C1331	C133	0.314200	0.458600	0.783070
C1341	C134	0.261800	0.256500	0.871890
C1351	C135	0.317000	0.186400	0.861300
C1361	C136	0.180700	0.574900	0.900940
C1371	C137	0.107700	0.481000	0.886660
C1381	C138	0.140600	0.490200	0.865390
C1391	C139	0.245200	0.596600	0.859370
C1401	C140	0.312900	0.685500	0.873920
C1411	C141	0.067800	0.390200	0.849840
C1421	C142	0.262200	0.701200	0.707790
C1431	C143	0.221900	0.755200	0.693700
C1441	C144	0.230400	0.866900	0.698540
C1451	C145	0.286100	0.921200	0.717960
C1461	C146	0.324400	0.860300	0.731190
C1471	C147	0.189800	0.933500	0.683030
C1481	C148	0.338400	0.923300	0.531000
C1491	C149	0.451200	0.924700	0.501250
C1501	C150	0.531500	0.959200	0.534480
C1511	C151	0.213600	0.929800	0.560270
C1521	C152	0.172100	0.817700	0.573990
C1531	C153	0.569700	0.928500	0.470060
C1541	C154	0.541400	0.855600	0.449740
C1551	C155	0.743500	0.005300	0.538560
C1561	C156	0.813600	0.130600	0.527970
C1571	C157	0.425100	0.605800	0.567610
C1581	C158	0.519000	0.626700	0.553330
C1591	C159	0.509800	0.650400	0.532060
C1601	C160	0.403400	0.648600	0.526040
C1611	C161	0.314500	0.627400	0.540590
C1621	C162	0.609800	0.677600	0.516510
C1631	C163	0.298800	0.561000	0.374460
C1641	C164	0.244800	0.466700	0.360370
C1651	C165	0.133100	0.363500	0.365210
C1661	C166	0.078800	0.364900	0.384630
C1671	C167	0.139700	0.464100	0.397860
C1681	C168	0.066500	0.256300	0.349700
C1691	C169	0.076700	0.415100	0.197670
C1701	C170	0.075300	0.526500	0.167920
C1711	C171	0.040800	0.572300	0.201150
C1721	C172	0.070200	0.283800	0.226940
C1731	C173	0.182300	0.354400	0.240660
C1741	C174	0.071500	0.641200	0.136730
C1751	C175	0.144400	0.685800	0.116410
C1761	C176	0.994700	0.738200	0.205230
C1771	C177	0.869400	0.683000	0.194640
C1781	C178	0.394200	0.819300	0.234280
C1791	C179	0.373300	0.892300	0.220000
C1801	C180	0.349600	0.859400	0.198730
C1811	C181	0.351400	0.754800	0.192710
C1821	C182	0.372600	0.687100	0.207260
C1831	C183	0.322400	0.932200	0.183180
C1841	C184	0.439000	0.737800	0.041130
C1851	C185	0.533300	0.778100	0.027040
C1861	C186	0.636500	0.769600	0.031880
C1871	C187	0.635100	0.713900	0.051300
C1881	C188	0.535900	0.675600	0.064530
C1891	C189	0.743700	0.810200	0.016370
C1901	C190	0.415100	0.338400	0.364330
C1911	C191	0.526500	0.451200	0.334580
C1921	C192	0.572300	0.531500	0.367810
C1931	C193	0.283800	0.213600	0.393600
C1941	C194	0.354400	0.172100	0.407320
C1951	C195	0.641200	0.569700	0.303390
C1961	C196	0.685800	0.541400	0.283070
C1971	C197	0.738200	0.743500	0.371890
C1981	C198	0.683000	0.813600	0.361300
C1991	C199	0.819300	0.425100	0.400940
C2001	C200	0.892300	0.519000	0.386660
C2011	C201	0.859400	0.509800	0.365390
C2021	C202	0.754800	0.403400	0.359370
C2031	C203	0.687100	0.314500	0.373920
C2041	C204	0.932200	0.609800	0.349840
C2051	C205	0.737800	0.298800	0.207790
C2061	C206	0.778100	0.244800	0.193700
C2071	C207	0.769600	0.133100	0.198540
C2081	C208	0.713900	0.078800	0.217960
C2091	C209	0.675600	0.139700	0.231190
C2101	C210	0.810200	0.066500	0.183030
C2111	C211	0.661600	0.076700	0.031000
C2121	C212	0.548800	0.075300	0.001250
C2131	C213	0.468500	0.040800	0.034480
C2141	C214	0.786400	0.070200	0.060270
C2151	C215	0.827900	0.182300	0.073990
C2161	C216	0.430300	0.071500	0.970060
C2171	C217	0.458600	0.144400	0.949740
C2181	C218	0.256500	0.994700	0.038560
C2191	C219	0.186400	0.869400	0.027970
C2201	C220	0.574900	0.394200	0.067610
C2211	C221	0.481000	0.373300	0.053330
C2221	C222	0.490200	0.349600	0.032060
C2231	C223	0.596600	0.351400	0.026040
C2241	C224	0.685500	0.372600	0.040590
C2251	C225	0.390200	0.322400	0.016510
C2261	C226	0.701200	0.439000	0.874460
C2271	C227	0.755200	0.533300	0.860370
C2281	C228	0.866900	0.636500	0.865210
C2291	C229	0.921200	0.635100	0.884630
C2301	C230	0.860300	0.535900	0.897860
C2311	C231	0.933500	0.743700	0.849700
C2321	C232	0.923300	0.584900	0.697670
C2331	C233	0.924700	0.473500	0.667920
C2341	C234	0.959200	0.427700	0.701150
C2351	C235	0.929800	0.716200	0.726940
C2361	C236	0.817700	0.645600	0.740660
C2371	C237	0.928500	0.358800	0.636730
C2381	C238	0.855600	0.314200	0.616410
C2391	C239	0.005300	0.261800	0.705230
C2401	C240	0.130600	0.317000	0.694640
C2411	C241	0.605800	0.180700	0.734280
C2421	C242	0.626700	0.107700	0.720000
C2431	C243	0.650400	0.140600	0.698730
C2441	C244	0.648600	0.245200	0.692710
C2451	C245	0.627400	0.312900	0.707260
C2461	C246	0.677600	0.067800	0.683180
C2471	C247	0.561000	0.262200	0.541130
C2481	C248	0.466700	0.221900	0.527040
C2491	C249	0.363500	0.230400	0.531880
C2501	C250	0.364900	0.286100	0.551300
C2511	C251	0.464100	0.324400	0.564530
C2521	C252	0.256300	0.189800	0.516370
C2531	C253	0.576300	0.576300	0.500000
C2541	C254	0.000000	0.423700	0.833330
C2551	C255	0.423700	0.000000	0.166670
C2561	C256	0.423700	0.423700	0.000000
C2571	C257	0.000000	0.576300	0.333330
C2581	C258	0.576300	0.000000	0.666670
C2591	C259	0.287700	0.000000	0.666670
C2601	C260	0.712300	0.712300	0.000000
C2611	C261	0.000000	0.287700	0.333330
C2621	C262	0.712300	0.000000	0.166670
C2631	C263	0.287700	0.287700	0.500000
C2641	C264	0.000000	0.712300	0.833330
N11	N1	0.947100	0.429900	0.455950
N21	N2	0.908900	0.343500	0.490860
N31	N3	0.951400	0.549300	0.486720
N41	N4	0.916300	0.235900	0.462250
N51	N5	0.910400	0.457700	0.519530
N61	N6	0.978200	0.625300	0.452800
N71	N7	0.606300	0.323500	0.438350
N81	N8	0.562700	0.251300	0.606350
N91	N9	0.482800	0.052900	0.789280
N101	N10	0.434600	0.091100	0.824190
N111	N11	0.597900	0.048600	0.820050
N121	N12	0.319600	0.083700	0.795580
N131	N13	0.547300	0.089600	0.852860
N141	N14	0.647100	0.021800	0.786130
N151	N15	0.717200	0.393700	0.771680
N161	N16	0.688600	0.437300	0.939680
N171	N17	0.570100	0.517200	0.122620
N181	N18	0.656500	0.565400	0.157530
N191	N19	0.450700	0.402100	0.153390
N201	N20	0.764100	0.680400	0.128920
N211	N21	0.542300	0.452700	0.186200
N221	N22	0.374700	0.352900	0.119470
N231	N23	0.676500	0.282800	0.105020
N241	N24	0.748700	0.311400	0.273020
N251	N25	0.052900	0.570100	0.955950
N261	N26	0.091100	0.656500	0.990860
N271	N27	0.048600	0.450700	0.986720
N281	N28	0.083700	0.764100	0.962250
N291	N29	0.089600	0.542300	0.019530
N301	N30	0.021800	0.374700	0.952800
N311	N31	0.393700	0.676500	0.938350
N321	N32	0.437300	0.748700	0.106350
N331	N33	0.517200	0.947100	0.289280
N341	N34	0.565400	0.908900	0.324190
N351	N35	0.402100	0.951400	0.320050
N361	N36	0.680400	0.916300	0.295580
N371	N37	0.452700	0.910400	0.352860
N381	N38	0.352900	0.978200	0.286130
N391	N39	0.282800	0.606300	0.271680
N401	N40	0.311400	0.562700	0.439680
N411	N41	0.429900	0.482800	0.622620
N421	N42	0.343500	0.434600	0.657530
N431	N43	0.549300	0.597900	0.653390
N441	N44	0.235900	0.319600	0.628920
N451	N45	0.457700	0.547300	0.686200
N461	N46	0.625300	0.647100	0.619470
N471	N47	0.323500	0.717200	0.605020
N481	N48	0.251300	0.688600	0.773020
N491	N49	0.517200	0.570100	0.877380
N501	N50	0.565400	0.656500	0.842470
N511	N51	0.402100	0.450700	0.846610
N521	N52	0.680400	0.764100	0.871080
N531	N53	0.452700	0.542300	0.813800
N541	N54	0.352900	0.374700	0.880530
N551	N55	0.282800	0.676500	0.894980
N561	N56	0.311400	0.748700	0.726980
N571	N57	0.429900	0.947100	0.544050
N581	N58	0.343500	0.908900	0.509140
N591	N59	0.549300	0.951400	0.513280
N601	N60	0.235900	0.916300	0.537750
N611	N61	0.457700	0.910400	0.480470
N621	N62	0.625300	0.978200	0.547200
N631	N63	0.323500	0.606300	0.561650
N641	N64	0.251300	0.562700	0.393650
N651	N65	0.052900	0.482800	0.210720
N661	N66	0.091100	0.434600	0.175810
N671	N67	0.048600	0.597900	0.179950
N681	N68	0.083700	0.319600	0.204420
N691	N69	0.089600	0.547300	0.147140
N701	N70	0.021800	0.647100	0.213870
N711	N71	0.393700	0.717200	0.228320
N721	N72	0.437300	0.688600	0.060320
N731	N73	0.482800	0.429900	0.377380
N741	N74	0.434600	0.343500	0.342470
N751	N75	0.597900	0.549300	0.346610
N761	N76	0.319600	0.235900	0.371080
N771	N77	0.547300	0.457700	0.313800
N781	N78	0.647100	0.625300	0.380530
N791	N79	0.717200	0.323500	0.394980
N801	N80	0.688600	0.251300	0.226980
N811	N81	0.570100	0.052900	0.044050
N821	N82	0.656500	0.091100	0.009140
N831	N83	0.450700	0.048600	0.013280
N841	N84	0.764100	0.083700	0.037750
N851	N85	0.542300	0.089600	0.980470
N861	N86	0.374700	0.021800	0.047200
N871	N87	0.676500	0.393700	0.061650
N881	N88	0.748700	0.437300	0.893650
N891	N89	0.947100	0.517200	0.710720
N901	N90	0.908900	0.565400	0.675810
N911	N91	0.951400	0.402100	0.679950
N921	N92	0.916300	0.680400	0.704420
N931	N93	0.910400	0.452700	0.647140
N941	N94	0.978200	0.352900	0.713870
N951	N95	0.606300	0.282800	0.728320
N961	N96	0.562700	0.311400	0.560320
O11	O1	0.732800	0.184500	0.433500
O21	O2	0.820600	0.130200	0.408150
O31	O3	0.829000	0.443000	0.560050
O41	O4	0.827900	0.620800	0.556620
O51	O5	0.143000	0.874800	0.488460
O61	O6	0.217400	0.806200	0.463170
O71	O7	0.451700	0.267200	0.766830
O81	O8	0.309600	0.179400	0.741480
O91	O9	0.614000	0.171000	0.893380
O101	O10	0.792900	0.172100	0.889950
O111	O11	0.731800	0.857000	0.821790
O121	O12	0.588800	0.782600	0.796500
O131	O13	0.815500	0.548300	0.100170
O141	O14	0.869800	0.690400	0.074820
O151	O15	0.557000	0.386000	0.226720
O161	O16	0.379200	0.207100	0.223290
O171	O17	0.125200	0.268200	0.155130
O181	O18	0.193800	0.411200	0.129840
O191	O19	0.267200	0.815500	0.933500
O201	O20	0.179400	0.869800	0.908150
O211	O21	0.171000	0.557000	0.060050
O221	O22	0.172100	0.379200	0.056620
O231	O23	0.857000	0.125200	0.988460
O241	O24	0.782600	0.193800	0.963170
O251	O25	0.548300	0.732800	0.266830
O261	O26	0.690400	0.820600	0.241480
O271	O27	0.386000	0.829000	0.393380
O281	O28	0.207100	0.827900	0.389950
O291	O29	0.268200	0.143000	0.321790
O301	O30	0.411200	0.217400	0.296500
O311	O31	0.184500	0.451700	0.600170
O321	O32	0.130200	0.309600	0.574820
O331	O33	0.443000	0.614000	0.726720
O341	O34	0.620800	0.792900	0.723290
O351	O35	0.874800	0.731800	0.655130
O361	O36	0.806200	0.588800	0.629840
O371	O37	0.548300	0.815500	0.899830
O381	O38	0.690400	0.869800	0.925180
O391	O39	0.386000	0.557000	0.773280
O401	O40	0.207100	0.379200	0.776710
O411	O41	0.268200	0.125200	0.844870
O421	O42	0.411200	0.193800	0.870160
O431	O43	0.184500	0.732800	0.566500
O441	O44	0.130200	0.820600	0.591850
O451	O45	0.443000	0.829000	0.439950
O461	O46	0.620800	0.827900	0.443380
O471	O47	0.874800	0.143000	0.511540
O481	O48	0.806200	0.217400	0.536830
O491	O49	0.267200	0.451700	0.233170
O501	O50	0.179400	0.309600	0.258520
O511	O51	0.171000	0.614000	0.106620
O521	O52	0.172100	0.792900	0.110050
O531	O53	0.857000	0.731800	0.178210
O541	O54	0.782600	0.588800	0.203500
O551	O55	0.451700	0.184500	0.399830
O561	O56	0.309600	0.130200	0.425180
O571	O57	0.614000	0.443000	0.273280
O581	O58	0.792900	0.620800	0.276710
O591	O59	0.731800	0.874800	0.344870
O601	O60	0.588800	0.806200	0.370160
O611	O61	0.815500	0.267200	0.066500
O621	O62	0.869800	0.179400	0.091850
O631	O63	0.557000	0.171000	0.939950
O641	O64	0.379200	0.172100	0.943380
O651	O65	0.125200	0.857000	0.011540
O661	O66	0.193800	0.782600	0.036830
O671	O67	0.732800	0.548300	0.733170
O681	O68	0.820600	0.690400	0.758520
O691	O69	0.829000	0.386000	0.606620
O701	O70	0.827900	0.207100	0.610050
O711	O71	0.143000	0.268200	0.678210
O721	O72	0.217400	0.411200	0.703500
