data_OFESEY_clean_PM
_symmetry_space_group_name_H-M	'P1'
_cell_length_a	13.414000
_cell_length_b	13.414000
_cell_length_c	14.706000
_cell_angle_alpha	90.000000
_cell_angle_beta	90.000000
_cell_angle_gamma	120.000000
_symmetry_Int_Tables_number 1

loop_
_symmetry_equiv_pos_as_xyz
'x,y,z'

loop_
_atom_site_label
_atom_site_type_symbol
_atom_site_fract_x
_atom_site_fract_y
_atom_site_fract_z
Nd11	Nd1	0.666670	0.333340	0.669030
Nd21	Nd2	0.333330	0.666660	0.830970
Nd31	Nd3	0.333330	0.666660	0.330970
Nd41	Nd4	0.666670	0.333340	0.169030
Cu11	Cu1	0.500000	0.500000	0.000000
Cu21	Cu2	0.000000	0.500000	0.000000
Cu31	Cu3	0.500000	0.000000	0.000000
Cu41	Cu4	0.000000	0.500000	0.500000
Cu51	Cu5	0.500000	0.500000	0.500000
Cu61	Cu6	0.500000	0.000000	0.500000
H11	H1	0.325700	0.351100	0.922500
H21	H2	0.458400	0.268300	0.872300
H31	H3	0.398300	0.316400	0.808900
H41	H4	0.292700	0.253100	0.047400
H51	H5	0.320800	0.181900	0.977700
H61	H6	0.025400	0.674300	0.922500
H71	H7	0.809900	0.541600	0.872300
H81	H8	0.918100	0.601700	0.808900
H91	H9	0.960400	0.707300	0.047400
H101	H10	0.861100	0.679200	0.977700
H111	H11	0.648900	0.974600	0.922500
H121	H12	0.731700	0.190100	0.872300
H131	H13	0.683600	0.081900	0.808900
H141	H14	0.746900	0.039600	0.047400
H151	H15	0.818100	0.138900	0.977700
H161	H16	0.974600	0.648900	0.577500
H171	H17	0.190100	0.731700	0.627700
H181	H18	0.081900	0.683600	0.691100
H191	H19	0.039600	0.746900	0.452600
H201	H20	0.138900	0.818100	0.522300
H211	H21	0.351100	0.325700	0.577500
H221	H22	0.268300	0.458400	0.627700
H231	H23	0.316400	0.398300	0.691100
H241	H24	0.253100	0.292700	0.452600
H251	H25	0.181900	0.320800	0.522300
H261	H26	0.674300	0.025400	0.577500
H271	H27	0.541600	0.809900	0.627700
H281	H28	0.601700	0.918100	0.691100
H291	H29	0.707300	0.960400	0.452600
H301	H30	0.679200	0.861100	0.522300
H311	H31	0.674300	0.648900	0.077500
H321	H32	0.541600	0.731700	0.127700
H331	H33	0.601700	0.683600	0.191100
H341	H34	0.707300	0.746900	0.952600
H351	H35	0.679200	0.818100	0.022300
H361	H36	0.974600	0.325700	0.077500
H371	H37	0.190100	0.458400	0.127700
H381	H38	0.081900	0.398300	0.191100
H391	H39	0.039600	0.292700	0.952600
H401	H40	0.138900	0.320800	0.022300
H411	H41	0.351100	0.025400	0.077500
H421	H42	0.268300	0.809900	0.127700
H431	H43	0.316400	0.918100	0.191100
H441	H44	0.253100	0.960400	0.952600
H451	H45	0.181900	0.861100	0.022300
H461	H46	0.025400	0.351100	0.422500
H471	H47	0.809900	0.268300	0.372300
H481	H48	0.918100	0.316400	0.308900
H491	H49	0.960400	0.253100	0.547400
H501	H50	0.861100	0.181900	0.477700
H511	H51	0.648900	0.674300	0.422500
H521	H52	0.731700	0.541600	0.372300
H531	H53	0.683600	0.601700	0.308900
H541	H54	0.746900	0.707300	0.547400
H551	H55	0.818100	0.679200	0.477700
H561	H56	0.325700	0.974600	0.422500
H571	H57	0.458400	0.190100	0.372300
H581	H58	0.398300	0.081900	0.308900
H591	H59	0.292700	0.039600	0.547400
H601	H60	0.320800	0.138900	0.477700
C11	C1	0.561400	0.437000	0.841900
C21	C2	0.447500	0.333600	0.861800
C31	C3	0.352700	0.255100	0.009100
C41	C4	0.453200	0.271700	0.068700
C51	C5	0.875600	0.438600	0.841900
C61	C6	0.886100	0.552500	0.861800
C71	C7	0.902400	0.647300	0.009100
C81	C8	0.818500	0.546800	0.068700
C91	C9	0.563000	0.124400	0.841900
C101	C10	0.666400	0.113900	0.861800
C111	C11	0.744900	0.097600	0.009100
C121	C12	0.728300	0.181500	0.068700
C131	C13	0.124400	0.563000	0.658100
C141	C14	0.113900	0.666400	0.638200
C151	C15	0.097600	0.744900	0.490900
C161	C16	0.181500	0.728300	0.431300
C171	C17	0.437000	0.561400	0.658100
C181	C18	0.333600	0.447500	0.638200
C191	C19	0.255100	0.352700	0.490900
C201	C20	0.271700	0.453200	0.431300
C211	C21	0.438600	0.875600	0.658100
C221	C22	0.552500	0.886100	0.638200
C231	C23	0.647300	0.902400	0.490900
C241	C24	0.546800	0.818500	0.431300
C251	C25	0.438600	0.563000	0.158100
C261	C26	0.552500	0.666400	0.138200
C271	C27	0.647300	0.744900	0.990900
C281	C28	0.546800	0.728300	0.931300
C291	C29	0.124400	0.561400	0.158100
C301	C30	0.113900	0.447500	0.138200
C311	C31	0.097600	0.352700	0.990900
C321	C32	0.181500	0.453200	0.931300
C331	C33	0.437000	0.875600	0.158100
C341	C34	0.333600	0.886100	0.138200
C351	C35	0.255100	0.902400	0.990900
C361	C36	0.271700	0.818500	0.931300
C371	C37	0.875600	0.437000	0.341900
C381	C38	0.886100	0.333600	0.361800
C391	C39	0.902400	0.255100	0.509100
C401	C40	0.818500	0.271700	0.568700
C411	C41	0.563000	0.438600	0.341900
C421	C42	0.666400	0.552500	0.361800
C431	C43	0.744900	0.647300	0.509100
C441	C44	0.728300	0.546800	0.568700
C451	C45	0.561400	0.124400	0.341900
C461	C46	0.447500	0.113900	0.361800
C471	C47	0.352700	0.097600	0.509100
C481	C48	0.453200	0.181500	0.568700
N11	N1	0.388800	0.348400	0.941800
N21	N2	0.959600	0.611200	0.941800
N31	N3	0.651600	0.040400	0.941800
N41	N4	0.040400	0.651600	0.558200
N51	N5	0.348400	0.388800	0.558200
N61	N6	0.611200	0.959600	0.558200
N71	N7	0.611200	0.651600	0.058200
N81	N8	0.040400	0.388800	0.058200
N91	N9	0.348400	0.959600	0.058200
N101	N10	0.959600	0.348400	0.441800
N111	N11	0.651600	0.611200	0.441800
N121	N12	0.388800	0.040400	0.441800
O11	O1	0.598300	0.523700	0.894600
O21	O2	0.615000	0.436100	0.775000
O31	O3	0.547500	0.362200	0.057100
O41	O4	0.439700	0.197900	0.123700
O51	O5	0.925400	0.401700	0.894600
O61	O6	0.821100	0.385000	0.775000
O71	O7	0.814700	0.452500	0.057100
O81	O8	0.758200	0.560300	0.123700
O91	O9	0.476300	0.074600	0.894600
O101	O10	0.563900	0.178900	0.775000
O111	O11	0.637800	0.185300	0.057100
O121	O12	0.802100	0.241800	0.123700
O131	O13	0.074600	0.476300	0.605400
O141	O14	0.178900	0.563900	0.725000
O151	O15	0.185300	0.637800	0.442900
O161	O16	0.241800	0.802100	0.376300
O171	O17	0.523700	0.598300	0.605400
O181	O18	0.436100	0.615000	0.725000
O191	O19	0.362200	0.547500	0.442900
O201	O20	0.197900	0.439700	0.376300
O211	O21	0.401700	0.925400	0.605400
O221	O22	0.385000	0.821100	0.725000
O231	O23	0.452500	0.814700	0.442900
O241	O24	0.560300	0.758200	0.376300
O251	O25	0.401700	0.476300	0.105400
O261	O26	0.385000	0.563900	0.225000
O271	O27	0.452500	0.637800	0.942900
O281	O28	0.560300	0.802100	0.876300
O291	O29	0.074600	0.598300	0.105400
O301	O30	0.178900	0.615000	0.225000
O311	O31	0.185300	0.547500	0.942900
O321	O32	0.241800	0.439700	0.876300
O331	O33	0.523700	0.925400	0.105400
O341	O34	0.436100	0.821100	0.225000
O351	O35	0.362200	0.814700	0.942900
O361	O36	0.197900	0.758200	0.876300
O371	O37	0.925400	0.523700	0.394600
O381	O38	0.821100	0.436100	0.275000
O391	O39	0.814700	0.362200	0.557100
O401	O40	0.758200	0.197900	0.623700
O411	O41	0.476300	0.401700	0.394600
O421	O42	0.563900	0.385000	0.275000
O431	O43	0.637800	0.452500	0.557100
O441	O44	0.802100	0.560300	0.623700
O451	O45	0.598300	0.074600	0.394600
O461	O46	0.615000	0.178900	0.275000
O471	O47	0.547500	0.185300	0.557100
O481	O48	0.439700	0.241800	0.623700
