data_OFUCEZ_clean_PM
_symmetry_space_group_name_H-M	'P1'
_cell_length_a	9.094400
_cell_length_b	9.380900
_cell_length_c	9.945900
_cell_angle_alpha	84.272000
_cell_angle_beta	65.442000
_cell_angle_gamma	63.368000
_symmetry_Int_Tables_number 1

loop_
_symmetry_equiv_pos_as_xyz
'x,y,z'

loop_
_atom_site_label
_atom_site_type_symbol
_atom_site_fract_x
_atom_site_fract_y
_atom_site_fract_z
Ce11	Ce1	0.267870	0.490450	0.460230
O11	O1	0.038900	0.580300	0.738600
O21	O2	0.293300	0.360200	0.699700
O31	O3	0.631300	0.347400	0.440600
O41	O4	0.520200	0.205400	0.388200
O51	O5	0.102600	0.771300	0.400700
O61	O6	0.927500	0.650800	0.468400
C11	C1	0.137000	0.465600	0.786700
C21	C2	0.075900	0.450600	0.950300
H11	H1	0.152800	0.364200	0.981600
C31	C3	0.641900	0.212200	0.412100
C41	C4	0.801500	0.065500	0.409100
H21	H2	0.905500	0.072800	0.395000
C51	C5	0.800900	0.922600	0.425900
H31	H3	0.697600	0.916500	0.436000
C61	C6	0.953900	0.774100	0.429400
Ce21	Ce2	0.732130	0.509550	0.539770
O71	O7	0.961100	0.419700	0.261400
O81	O8	0.706700	0.639800	0.300300
O91	O9	0.368700	0.652600	0.559400
O101	O10	0.479800	0.794600	0.611800
O111	O11	0.897400	0.228700	0.599300
O121	O12	0.072500	0.349200	0.531600
C71	C7	0.863000	0.534400	0.213300
C81	C8	0.924100	0.549400	0.049700
H41	H4	0.847200	0.635800	0.018400
C91	C9	0.358100	0.787800	0.587900
C101	C10	0.198500	0.934500	0.590900
H51	H5	0.094500	0.927200	0.605000
C111	C11	0.199100	0.077400	0.574100
H61	H6	0.302400	0.083500	0.564000
C121	C12	0.046100	0.225900	0.570600
