data_OFUCAV_clean_PM
_symmetry_space_group_name_H-M	'P1'
_cell_length_a	9.160200
_cell_length_b	9.160200
_cell_length_c	14.894000
_cell_angle_alpha	80.012600
_cell_angle_beta	80.012300
_cell_angle_gamma	115.850000
_symmetry_Int_Tables_number 1

loop_
_symmetry_equiv_pos_as_xyz
'x,y,z'

loop_
_atom_site_label
_atom_site_type_symbol
_atom_site_fract_x
_atom_site_fract_y
_atom_site_fract_z
Ce11	Ce1	0.990500	0.240500	0.019000
Ce21	Ce2	0.759500	0.009500	0.481000
Ce31	Ce3	0.009500	0.759500	0.981000
Ce41	Ce4	0.240500	0.990500	0.519000
H11	H1	0.563000	0.659200	0.031400
H21	H2	0.523500	0.639500	0.140400
H31	H3	0.405600	0.809400	0.031400
H41	H4	0.336100	0.720100	0.140400
H51	H5	0.340800	0.437000	0.468600
H61	H6	0.360500	0.476500	0.359600
H71	H7	0.190600	0.594400	0.468600
H81	H8	0.279900	0.663900	0.359600
H91	H9	0.437000	0.340800	0.968600
H101	H10	0.476500	0.360500	0.859600
H111	H11	0.594400	0.190600	0.968600
H121	H12	0.663900	0.279900	0.859600
H131	H13	0.659200	0.563000	0.531400
H141	H14	0.639500	0.523500	0.640400
H151	H15	0.809400	0.405600	0.531400
H161	H16	0.720100	0.336100	0.640400
C11	C1	0.691510	0.876510	0.062380
C21	C2	0.539200	0.711200	0.079400
C31	C3	0.246110	0.561110	0.062380
C41	C4	0.381400	0.709400	0.079400
C51	C5	0.123490	0.308490	0.437620
C61	C6	0.288800	0.460800	0.420600
C71	C7	0.438890	0.753890	0.437620
C81	C8	0.290600	0.618600	0.420600
C91	C9	0.308490	0.123490	0.937620
C101	C10	0.460800	0.288800	0.920600
C111	C11	0.753890	0.438890	0.937620
C121	C12	0.618600	0.290600	0.920600
C131	C13	0.876510	0.691510	0.562380
C141	C14	0.711200	0.539200	0.579400
C151	C15	0.561110	0.246110	0.562380
C161	C16	0.709400	0.381400	0.579400
C171	C17	0.924900	0.075100	0.250000
C181	C18	0.825100	0.174900	0.250000
C191	C19	0.075100	0.924900	0.750000
C201	C20	0.174900	0.825100	0.750000
O11	O1	0.989660	0.067600	0.170940
O21	O2	0.833350	0.887370	0.032880
O31	O3	0.679180	0.001020	0.079800
O41	O4	0.839400	0.261460	0.170940
O51	O5	0.133770	0.579750	0.032880
O61	O6	0.241020	0.419180	0.079800
O71	O7	0.932400	0.010340	0.329060
O81	O8	0.112630	0.166650	0.467120
O91	O9	0.998980	0.320820	0.420200
O101	O10	0.738540	0.160600	0.329060
O111	O11	0.420250	0.866230	0.467120
O121	O12	0.580820	0.758980	0.420200
O131	O13	0.010340	0.932400	0.829060
O141	O14	0.166650	0.112630	0.967120
O151	O15	0.320820	0.998980	0.920200
O161	O16	0.160600	0.738540	0.829060
O171	O17	0.866230	0.420250	0.967120
O181	O18	0.758980	0.580820	0.920200
O191	O19	0.067600	0.989660	0.670940
O201	O20	0.887370	0.833350	0.532880
O211	O21	0.001020	0.679180	0.579800
O221	O22	0.261460	0.839400	0.670940
O231	O23	0.579750	0.133770	0.532880
O241	O24	0.419180	0.241020	0.579800
