data_OGAGAF_clean_PM
_symmetry_space_group_name_H-M	'P1'
_cell_length_a	9.629900
_cell_length_b	9.769800
_cell_length_c	24.563900
_cell_angle_alpha	90.000000
_cell_angle_beta	90.000000
_cell_angle_gamma	90.000000
_symmetry_Int_Tables_number 1

loop_
_symmetry_equiv_pos_as_xyz
'x,y,z'

loop_
_atom_site_label
_atom_site_type_symbol
_atom_site_fract_x
_atom_site_fract_y
_atom_site_fract_z
Zn11	Zn1	0.500170	0.887510	0.983180
Zn21	Zn2	0.368740	0.879300	0.502820
Zn31	Zn3	0.999830	0.112490	0.483180
Zn41	Zn4	0.131260	0.120700	0.002820
Zn51	Zn5	0.499830	0.387510	0.516820
Zn61	Zn6	0.631260	0.379300	0.997180
Zn71	Zn7	0.000170	0.612490	0.016820
Zn81	Zn8	0.868740	0.620700	0.497180
P11	P1	0.729800	0.661460	0.947000
P21	P2	0.419450	0.170080	0.935990
P31	P3	0.770200	0.338540	0.447000
P41	P4	0.080550	0.829920	0.435990
P51	P5	0.270200	0.161460	0.553000
P61	P6	0.580550	0.670080	0.564010
P71	P7	0.229800	0.838540	0.053000
P81	P8	0.919450	0.329920	0.064010
H11	H1	0.749900	0.849000	0.056200
H21	H2	0.832100	0.928800	0.138200
H31	H3	0.517800	0.200700	0.141300
H41	H4	0.442400	0.113800	0.059700
H51	H5	0.835300	0.112600	0.207000
H61	H6	0.719000	0.229400	0.204400
H71	H7	0.557500	0.073300	0.246000
H81	H8	0.680200	0.963700	0.251700
H91	H9	0.683000	0.226400	0.304000
H101	H10	0.802200	0.113700	0.310700
H111	H11	0.785000	0.958500	0.385100
H121	H12	0.665400	0.872400	0.459000
H131	H13	0.326600	0.065300	0.413200
H141	H14	0.438200	0.154900	0.338300
H151	H15	0.801700	0.690300	0.902000
H161	H16	0.390100	0.223300	0.888500
H171	H17	0.750100	0.151000	0.556200
H181	H18	0.667900	0.071200	0.638200
H191	H19	0.982200	0.799300	0.641300
H201	H20	0.057600	0.886200	0.559700
H211	H21	0.664700	0.887400	0.707000
H221	H22	0.781000	0.770600	0.704400
H231	H23	0.942500	0.926700	0.746000
H241	H24	0.819800	0.036300	0.751700
H251	H25	0.817000	0.773600	0.804000
H261	H26	0.697800	0.886300	0.810700
H271	H27	0.715000	0.041500	0.885100
H281	H28	0.834600	0.127600	0.959000
H291	H29	0.173400	0.934700	0.913200
H301	H30	0.061800	0.845100	0.838300
H311	H31	0.698300	0.309700	0.402000
H321	H32	0.109900	0.776700	0.388500
H331	H33	0.250100	0.349000	0.443800
H341	H34	0.167900	0.428800	0.361800
H351	H35	0.482200	0.700700	0.358700
H361	H36	0.557600	0.613800	0.440300
H371	H37	0.164700	0.612600	0.293000
H381	H38	0.281000	0.729400	0.295600
H391	H39	0.442500	0.573300	0.254000
H401	H40	0.319800	0.463700	0.248300
H411	H41	0.317000	0.726400	0.196000
H421	H42	0.197800	0.613700	0.189300
H431	H43	0.215000	0.458500	0.114900
H441	H44	0.334600	0.372400	0.041000
H451	H45	0.673400	0.565300	0.086800
H461	H46	0.561800	0.654900	0.161700
H471	H47	0.198300	0.190300	0.598000
H481	H48	0.609900	0.723300	0.611500
H491	H49	0.249900	0.651000	0.943800
H501	H50	0.332100	0.571200	0.861800
H511	H51	0.017800	0.299300	0.858700
H521	H52	0.942400	0.386200	0.940300
H531	H53	0.335300	0.387400	0.793000
H541	H54	0.219000	0.270600	0.795600
H551	H55	0.057500	0.426700	0.754000
H561	H56	0.180200	0.536300	0.748300
H571	H57	0.183000	0.273600	0.696000
H581	H58	0.302200	0.386300	0.689300
H591	H59	0.285000	0.541500	0.614900
H601	H60	0.165400	0.627600	0.541000
H611	H61	0.826600	0.434700	0.586800
H621	H62	0.938200	0.345100	0.661700
H631	H63	0.301700	0.809700	0.098000
H641	H64	0.890100	0.276700	0.111500
C11	C1	0.701700	0.921100	0.073890
C21	C2	0.751500	0.969100	0.122710
C31	C3	0.685900	0.074800	0.149540
C41	C4	0.567500	0.128000	0.124590
C51	C5	0.522900	0.075500	0.076010
C61	C6	0.734400	0.129200	0.203310
C71	C7	0.658900	0.062800	0.251060
C81	C8	0.701200	0.126700	0.305370
C91	C9	0.625500	0.066900	0.353310
C101	C10	0.690100	0.981900	0.390060
C111	C11	0.618300	0.930400	0.434080
C121	C12	0.421400	0.042700	0.407300
C131	C13	0.487400	0.097000	0.362620
C141	C14	0.798300	0.078900	0.573890
C151	C15	0.748500	0.030900	0.622710
C161	C16	0.814100	0.925200	0.649540
C171	C17	0.932500	0.872000	0.624590
C181	C18	0.977100	0.924500	0.576010
C191	C19	0.765600	0.870800	0.703310
C201	C20	0.841100	0.937200	0.751060
C211	C21	0.798800	0.873300	0.805370
C221	C22	0.874500	0.933100	0.853310
C231	C23	0.809900	0.018100	0.890060
C241	C24	0.881700	0.069600	0.934080
C251	C25	0.078600	0.957300	0.907300
C261	C26	0.012600	0.903000	0.862620
C271	C27	0.298300	0.421100	0.426110
C281	C28	0.248500	0.469100	0.377290
C291	C29	0.314100	0.574800	0.350460
C301	C30	0.432500	0.628000	0.375410
C311	C31	0.477100	0.575500	0.423990
C321	C32	0.265600	0.629200	0.296690
C331	C33	0.341100	0.562800	0.248940
C341	C34	0.298800	0.626700	0.194630
C351	C35	0.374500	0.566900	0.146690
C361	C36	0.309900	0.481900	0.109940
C371	C37	0.381700	0.430400	0.065920
C381	C38	0.578600	0.542700	0.092700
C391	C39	0.512600	0.597000	0.137380
C401	C40	0.201700	0.578900	0.926110
C411	C41	0.251500	0.530900	0.877290
C421	C42	0.185900	0.425200	0.850460
C431	C43	0.067500	0.372000	0.875410
C441	C44	0.022900	0.424500	0.923990
C451	C45	0.234400	0.370800	0.796690
C461	C46	0.158900	0.437200	0.748940
C471	C47	0.201200	0.373300	0.694630
C481	C48	0.125500	0.433100	0.646690
C491	C49	0.190100	0.518100	0.609940
C501	C50	0.118300	0.569600	0.565920
C511	C51	0.921400	0.457300	0.592700
C521	C52	0.987400	0.403000	0.637380
N11	N1	0.587430	0.972660	0.050360
N21	N2	0.483750	0.959930	0.442780
N31	N3	0.912570	0.027340	0.550360
N41	N4	0.016250	0.040070	0.942780
N51	N5	0.412570	0.472660	0.449640
N61	N6	0.516250	0.459930	0.057220
N71	N7	0.087430	0.527340	0.949640
N81	N8	0.983750	0.540070	0.557220
O11	O1	0.604650	0.752040	0.945860
O21	O2	0.442750	0.017710	0.926690
O31	O3	0.825230	0.692450	0.994140
O41	O4	0.691660	0.510510	0.943140
O51	O5	0.298170	0.200780	0.972690
O61	O6	0.551350	0.237430	0.955100
O71	O7	0.895350	0.247960	0.445860
O81	O8	0.057250	0.982290	0.426690
O91	O9	0.674770	0.307550	0.494140
O101	O10	0.808340	0.489490	0.443140
O111	O11	0.201830	0.799220	0.472690
O121	O12	0.948650	0.762570	0.455100
O131	O13	0.395350	0.252040	0.554140
O141	O14	0.557250	0.517710	0.573310
O151	O15	0.174770	0.192450	0.505860
O161	O16	0.308340	0.010510	0.556860
O171	O17	0.701830	0.700780	0.527310
O181	O18	0.448650	0.737430	0.544900
O191	O19	0.104650	0.747960	0.054140
O201	O20	0.942750	0.482290	0.073310
O211	O21	0.325230	0.807550	0.005860
O221	O22	0.191660	0.989490	0.056860
O231	O23	0.798170	0.299220	0.027310
O241	O24	0.051350	0.262570	0.044900
