data_OGAQES_clean_PM
_symmetry_space_group_name_H-M	'P1'
_cell_length_a	4.986500
_cell_length_b	21.389400
_cell_length_c	18.933800
_cell_angle_alpha	90.000000
_cell_angle_beta	90.000000
_cell_angle_gamma	90.000000
_symmetry_Int_Tables_number 1

loop_
_symmetry_equiv_pos_as_xyz
'x,y,z'

loop_
_atom_site_label
_atom_site_type_symbol
_atom_site_fract_x
_atom_site_fract_y
_atom_site_fract_z
Ba11	Ba1	0.804040	0.434030	0.120220
S11	S1	0.303440	0.560070	0.096860
O11	O1	0.300600	0.403970	0.047570
H11	H1	0.300300	0.423200	0.007700
H21	H2	0.300300	0.364500	0.038600
O21	O2	0.194900	0.520680	0.153310
O31	O3	0.596000	0.556440	0.094830
O41	O4	0.182300	0.547070	0.028380
O51	O5	0.575200	0.859560	0.185870
C11	C1	0.331900	0.661200	0.185950
C21	C2	0.543100	0.703530	0.186520
H31	H3	0.617100	0.717600	0.143100
C31	C3	0.215200	0.638890	0.117240
H41	H4	0.278500	0.666500	0.078700
H51	H5	0.017400	0.642300	0.119500
H61	H6	0.979300	0.769200	0.207700
Ba21	Ba2	0.195960	0.565970	0.620220
S21	S2	0.696560	0.439930	0.596860
O61	O6	0.699400	0.596030	0.547570
H71	H7	0.699700	0.576800	0.507700
H81	H8	0.699700	0.635500	0.538600
O71	O7	0.805100	0.479320	0.653310
O81	O8	0.404000	0.443560	0.594830
O91	O9	0.817700	0.452930	0.528380
O101	O10	0.424800	0.140440	0.685870
C41	C4	0.668100	0.338800	0.685950
C51	C5	0.456900	0.296470	0.686520
H91	H9	0.382900	0.282400	0.643100
C61	C6	0.784800	0.361110	0.617240
H101	H10	0.721500	0.333500	0.578700
H111	H11	0.982600	0.357700	0.619500
H121	H12	0.020700	0.230800	0.707700
Ba31	Ba3	0.195960	0.934030	0.379780
S31	S3	0.696560	0.060070	0.403140
O111	O11	0.699400	0.903970	0.452430
H131	H13	0.699700	0.923200	0.492300
H141	H14	0.699700	0.864500	0.461400
O121	O12	0.805100	0.020680	0.346690
O131	O13	0.404000	0.056440	0.405170
O141	O14	0.817700	0.047070	0.471620
O151	O15	0.424800	0.359560	0.314130
C71	C7	0.668100	0.161200	0.314050
C81	C8	0.456900	0.203530	0.313480
H151	H15	0.382900	0.217600	0.356900
C91	C9	0.784800	0.138890	0.382760
H161	H16	0.721500	0.166500	0.421300
H171	H17	0.982600	0.142300	0.380500
H181	H18	0.020700	0.269200	0.292300
Ba41	Ba4	0.804040	0.065970	0.879780
S41	S4	0.303440	0.939930	0.903140
O161	O16	0.300600	0.096030	0.952430
H191	H19	0.300300	0.076800	0.992300
H201	H20	0.300300	0.135500	0.961400
O171	O17	0.194900	0.979320	0.846690
O181	O18	0.596000	0.943560	0.905170
O191	O19	0.182300	0.952930	0.971620
O201	O20	0.575200	0.640440	0.814130
C101	C10	0.331900	0.838800	0.814050
C111	C11	0.543100	0.796470	0.813480
H211	H21	0.617100	0.782400	0.856900
C121	C12	0.215200	0.861110	0.882760
H221	H22	0.278500	0.833500	0.921300
H231	H23	0.017400	0.857700	0.880500
H241	H24	0.979300	0.730800	0.792300
Ba51	Ba5	0.195960	0.565970	0.879780
S51	S5	0.696560	0.439930	0.903140
O211	O21	0.699400	0.596030	0.952430
H251	H25	0.699700	0.576800	0.992300
H261	H26	0.699700	0.635500	0.961400
O221	O22	0.805100	0.479320	0.846690
O231	O23	0.404000	0.443560	0.905170
O241	O24	0.817700	0.452930	0.971620
O251	O25	0.424800	0.140440	0.814130
C131	C13	0.668100	0.338800	0.814050
C141	C14	0.456900	0.296470	0.813480
H271	H27	0.382900	0.282400	0.856900
C151	C15	0.784800	0.361110	0.882760
H281	H28	0.721500	0.333500	0.921300
H291	H29	0.982600	0.357700	0.880500
H301	H30	0.020700	0.230800	0.792300
Ba61	Ba6	0.804040	0.434030	0.379780
S61	S6	0.303440	0.560070	0.403140
O261	O26	0.300600	0.403970	0.452430
H311	H31	0.300300	0.423200	0.492300
H321	H32	0.300300	0.364500	0.461400
O271	O27	0.194900	0.520680	0.346690
O281	O28	0.596000	0.556440	0.405170
O291	O29	0.182300	0.547070	0.471620
O301	O30	0.575200	0.859560	0.314130
C161	C16	0.331900	0.661200	0.314050
C171	C17	0.543100	0.703530	0.313480
H331	H33	0.617100	0.717600	0.356900
C181	C18	0.215200	0.638890	0.382760
H341	H34	0.278500	0.666500	0.421300
H351	H35	0.017400	0.642300	0.380500
H361	H36	0.979300	0.769200	0.292300
Ba71	Ba7	0.804040	0.065970	0.620220
S71	S7	0.303440	0.939930	0.596860
O311	O31	0.300600	0.096030	0.547570
H371	H37	0.300300	0.076800	0.507700
H381	H38	0.300300	0.135500	0.538600
O321	O32	0.194900	0.979320	0.653310
O331	O33	0.596000	0.943560	0.594830
O341	O34	0.182300	0.952930	0.528380
O351	O35	0.575200	0.640440	0.685870
C191	C19	0.331900	0.838800	0.685950
C201	C20	0.543100	0.796470	0.686520
H391	H39	0.617100	0.782400	0.643100
C211	C21	0.215200	0.861110	0.617240
H401	H40	0.278500	0.833500	0.578700
H411	H41	0.017400	0.857700	0.619500
H421	H42	0.979300	0.730800	0.707700
Ba81	Ba8	0.195960	0.934030	0.120220
S81	S8	0.696560	0.060070	0.096860
O361	O36	0.699400	0.903970	0.047570
H431	H43	0.699700	0.923200	0.007700
H441	H44	0.699700	0.864500	0.038600
O371	O37	0.805100	0.020680	0.153310
O381	O38	0.404000	0.056440	0.094830
O391	O39	0.817700	0.047070	0.028380
O401	O40	0.424800	0.359560	0.185870
C221	C22	0.668100	0.161200	0.185950
C231	C23	0.456900	0.203530	0.186520
H451	H45	0.382900	0.217600	0.143100
C241	C24	0.784800	0.138890	0.117240
H461	H46	0.721500	0.166500	0.078700
H471	H47	0.982600	0.142300	0.119500
H481	H48	0.020700	0.269200	0.207700
S91	S9	0.732000	0.852240	0.250000
O411	O41	0.659500	0.498180	0.250000
H491	H49	0.488900	0.504200	0.250000
H501	H50	0.735100	0.534300	0.250000
O421	O42	0.968300	0.893250	0.250000
C251	C25	0.224600	0.640620	0.250000
H511	H51	0.077400	0.612400	0.250000
C261	C26	0.647100	0.725450	0.250000
C271	C27	0.865000	0.774820	0.250000
S101	S10	0.268000	0.147760	0.750000
O431	O43	0.340500	0.501820	0.750000
H521	H52	0.511100	0.495800	0.750000
H531	H53	0.264900	0.465700	0.750000
O441	O44	0.031700	0.106750	0.750000
C281	C28	0.775400	0.359380	0.750000
H541	H54	0.922600	0.387600	0.750000
C291	C29	0.352900	0.274550	0.750000
C301	C30	0.135000	0.225180	0.750000
S111	S11	0.268000	0.352240	0.250000
O451	O45	0.340500	0.998180	0.250000
H551	H55	0.511100	0.004200	0.250000
H561	H56	0.264900	0.034300	0.250000
O461	O46	0.031700	0.393250	0.250000
C311	C31	0.775400	0.140620	0.250000
H571	H57	0.922600	0.112400	0.250000
C321	C32	0.352900	0.225450	0.250000
C331	C33	0.135000	0.274820	0.250000
S121	S12	0.732000	0.647760	0.750000
O471	O47	0.659500	0.001820	0.750000
H581	H58	0.488900	0.995800	0.750000
H591	H59	0.735100	0.965700	0.750000
O481	O48	0.968300	0.606750	0.750000
C341	C34	0.224600	0.859380	0.750000
H601	H60	0.077400	0.887600	0.750000
C351	C35	0.647100	0.774550	0.750000
C361	C36	0.865000	0.725180	0.750000
