data_OGAXUR_clean_PM
_symmetry_space_group_name_H-M	'P1'
_cell_length_a	8.384800
_cell_length_b	17.234300
_cell_length_c	17.234300
_cell_angle_alpha	62.577400
_cell_angle_beta	80.667000
_cell_angle_gamma	99.333000
_symmetry_Int_Tables_number 1

loop_
_symmetry_equiv_pos_as_xyz
'x,y,z'

loop_
_atom_site_label
_atom_site_type_symbol
_atom_site_fract_x
_atom_site_fract_y
_atom_site_fract_z
Co11	Co1	0.344990	0.779370	0.066740
Co21	Co2	0.036450	0.219290	0.933230
Co31	Co3	0.411730	0.066740	0.153890
Co41	Co4	0.969680	0.933230	0.847480
Co51	Co5	0.565620	0.153890	0.779370
Co61	Co6	0.817160	0.847480	0.219290
H11	H1	0.708900	0.520100	0.031600
H21	H2	0.754700	0.598800	0.104300
H31	H3	0.925900	0.674400	0.056300
H41	H4	0.903500	0.587000	0.149500
H51	H5	0.721400	0.366900	0.971700
H61	H6	0.753700	0.459900	0.882600
H71	H7	0.621200	0.436300	0.971200
H81	H8	0.980100	0.396500	0.891200
H91	H9	0.171700	0.425300	0.883700
H101	H10	0.353900	0.457500	0.994500
H111	H11	0.401200	0.562200	0.959100
H121	H12	0.362100	0.526200	0.893700
H131	H13	0.304400	0.562200	0.074300
H141	H14	0.168400	0.595800	0.113600
H151	H15	0.212600	0.704200	0.906400
H161	H16	0.384100	0.779200	0.863500
H171	H17	0.541300	0.684300	0.924600
H181	H18	0.555200	0.660100	0.022800
H191	H19	0.851900	0.311100	0.074300
H201	H20	0.932300	0.234800	0.130000
H211	H21	0.204400	0.314300	0.074200
H221	H22	0.298300	0.336900	0.976500
H231	H23	0.740500	0.031600	0.448300
H241	H24	0.859000	0.104300	0.296900
H251	H25	0.982200	0.056300	0.269300
H261	H26	0.053000	0.149500	0.263500
H271	H27	0.693100	0.971700	0.661400
H281	H28	0.636300	0.882600	0.657500
H291	H29	0.592400	0.971200	0.592500
H301	H30	0.871300	0.891200	0.712300
H311	H31	0.055400	0.883700	0.691000
H321	H32	0.348400	0.994500	0.548000
H331	H33	0.360300	0.959100	0.478700
H341	H34	0.255800	0.893700	0.580100
H351	H35	0.378700	0.074300	0.363500
H361	H36	0.282000	0.113600	0.290600
H371	H37	0.119000	0.906400	0.389400
H381	H38	0.247600	0.863500	0.357300
H391	H39	0.465900	0.924600	0.391100
H401	H40	0.578000	0.022800	0.317100
H411	H41	0.926200	0.074300	0.614600
H421	H42	0.062300	0.130000	0.635200
H431	H43	0.278600	0.074200	0.611500
H441	H44	0.274800	0.976500	0.686600
H451	H45	0.188800	0.448300	0.520100
H461	H46	0.155900	0.296900	0.598800
H471	H47	0.251500	0.269300	0.674400
H481	H48	0.316500	0.263500	0.587000
H491	H49	0.354500	0.661400	0.366900
H501	H50	0.293800	0.657500	0.459900
H511	H51	0.184900	0.592500	0.436300
H521	H52	0.583600	0.712300	0.396500
H531	H53	0.746400	0.691000	0.425300
H541	H54	0.896400	0.548000	0.457500
H551	H55	0.839000	0.478700	0.562200
H561	H56	0.835900	0.580100	0.526200
H571	H57	0.742200	0.363500	0.562200
H581	H58	0.572600	0.290600	0.595800
H591	H59	0.508400	0.389400	0.704200
H601	H60	0.604900	0.357300	0.779200
H611	H61	0.857000	0.391100	0.684300
H621	H62	0.895100	0.317100	0.660100
H631	H63	0.540800	0.614600	0.311100
H641	H64	0.697500	0.635200	0.234800
H651	H65	0.890100	0.611500	0.314300
H661	H66	0.961400	0.686600	0.336900
C11	C1	0.103800	0.558900	0.026900
C21	C2	0.145900	0.508700	0.984800
C31	C3	0.026400	0.463300	0.962500
C41	C4	0.860200	0.472100	0.974900
C51	C5	0.819900	0.518600	0.018100
C61	C6	0.935700	0.563700	0.043100
C71	C7	0.874500	0.610300	0.092700
C81	C8	0.727300	0.430000	0.947800
C91	C9	0.060000	0.399900	0.925200
C101	C10	0.333600	0.514200	0.955200
C111	C11	0.228800	0.600500	0.058000
C121	C12	0.285600	0.747500	0.915200
C131	C13	0.195100	0.814900	0.918400
C141	C14	0.626100	0.800600	0.933200
C151	C15	0.522300	0.701500	0.970900
C161	C16	0.899500	0.263500	0.074100
C171	C17	0.762800	0.193400	0.074800
C181	C18	0.214200	0.196800	0.067700
C191	C19	0.202500	0.296500	0.028500
C201	C20	0.130700	0.026900	0.414200
C211	C21	0.130700	0.984800	0.506500
C221	C22	0.988900	0.962500	0.574200
C231	C23	0.835100	0.974900	0.553000
C241	C24	0.838000	0.018100	0.463300
C251	C25	0.978800	0.043100	0.393200
C261	C26	0.967200	0.092700	0.297000
C271	C27	0.675100	0.947800	0.622200
C281	C28	0.985200	0.925200	0.674900
C291	C29	0.288800	0.955200	0.530600
C301	C30	0.286800	0.058000	0.341500
C311	C31	0.200800	0.915200	0.337300
C321	C32	0.113500	0.918400	0.266700
C331	C33	0.559300	0.933200	0.266200
C341	C34	0.493200	0.970900	0.327600
C351	C35	0.973600	0.074100	0.662400
C361	C36	0.837600	0.074800	0.731800
C371	C37	0.281900	0.067700	0.735500
C381	C38	0.231000	0.028500	0.675000
C391	C39	0.544900	0.414200	0.558900
C401	C40	0.637200	0.506500	0.508700
C411	C41	0.563100	0.574200	0.463300
C421	C42	0.388100	0.553000	0.472100
C431	C43	0.301300	0.463300	0.518600
C441	C44	0.372000	0.393200	0.563700
C451	C45	0.264200	0.297000	0.610300
C461	C46	0.297300	0.622200	0.430000
C471	C47	0.660100	0.674900	0.399900
C481	C48	0.819400	0.530600	0.514200
C491	C49	0.628300	0.341500	0.600500
C501	C50	0.538100	0.337300	0.747500
C511	C51	0.380200	0.266700	0.814900
C521	C52	0.825500	0.266200	0.800600
C531	C53	0.820800	0.327600	0.701500
C541	C54	0.636000	0.662400	0.263500
C551	C55	0.569400	0.731800	0.193400
C561	C56	0.017400	0.735500	0.196800
C571	C57	0.906000	0.675000	0.296500
N11	N1	0.338000	0.697600	0.998800
N21	N2	0.046100	0.304500	0.000500
N31	N3	0.336800	0.998800	0.303600
N41	N4	0.046600	0.000500	0.695000
N51	N5	0.640400	0.303600	0.697600
N61	N6	0.741600	0.695000	0.304500
O11	O1	0.215900	0.842700	0.971700
O21	O2	0.114900	0.844000	0.859300
O31	O3	0.575400	0.843100	0.968200
O41	O4	0.768700	0.823300	0.878500
O51	O5	0.801100	0.162200	0.022000
O61	O6	0.629900	0.161800	0.135900
O71	O7	0.153200	0.153500	0.034600
O81	O8	0.304500	0.172300	0.123000
O91	O9	0.187600	0.971700	0.185600
O101	O10	0.974200	0.859300	0.296700
O111	O11	0.543600	0.968200	0.188700
O121	O12	0.647200	0.878500	0.298200
O131	O13	0.823100	0.022000	0.815800
O141	O14	0.765800	0.135900	0.702300
O151	O15	0.187800	0.034600	0.811900
O161	O16	0.427500	0.123000	0.704700
O171	O17	0.373200	0.185600	0.842700
O181	O18	0.270900	0.296700	0.844000
O191	O19	0.732300	0.188700	0.843100
O201	O20	0.945400	0.298200	0.823300
O211	O21	0.638900	0.815800	0.162200
O221	O22	0.468100	0.702300	0.161800
O231	O23	0.999700	0.811900	0.153500
O241	O24	0.132200	0.704700	0.172300
