data_OGECOU_clean_PM
_symmetry_space_group_name_H-M	'P1'
_cell_length_a	8.306500
_cell_length_b	17.123800
_cell_length_c	17.123800
_cell_angle_alpha	62.562400
_cell_angle_beta	80.694700
_cell_angle_gamma	99.305300
_symmetry_Int_Tables_number 1

loop_
_symmetry_equiv_pos_as_xyz
'x,y,z'

loop_
_atom_site_label
_atom_site_type_symbol
_atom_site_fract_x
_atom_site_fract_y
_atom_site_fract_z
Ni11	Ni1	0.974360	0.782660	0.063160
Ni21	Ni2	0.660570	0.218250	0.937050
Ni31	Ni3	0.037520	0.063160	0.154180
Ni41	Ni4	0.597620	0.937050	0.844700
Ni51	Ni5	0.191700	0.154180	0.782660
Ni61	Ni6	0.442320	0.844700	0.218250
H11	H1	0.706400	0.667000	0.016200
H21	H2	0.813800	0.694200	0.918600
H31	H3	0.077800	0.768400	0.868900
H41	H4	0.161700	0.693200	0.925400
H51	H5	0.829700	0.575200	0.114300
H61	H6	0.020900	0.603800	0.110500
H71	H7	0.288200	0.464200	0.985300
H81	H8	0.652200	0.495800	0.093100
H91	H9	0.602100	0.437800	0.047400
H101	H10	0.655600	0.544800	0.989400
H111	H11	0.238700	0.574700	0.107500
H121	H12	0.351600	0.628800	0.006200
H131	H13	0.362800	0.530500	0.072900
H141	H14	0.213600	0.356200	0.936400
H151	H15	0.156800	0.416400	0.849900
H161	H16	0.026900	0.328200	0.932700
H171	H17	0.833000	0.400700	0.885500
H181	H18	0.696300	0.435000	0.925200
H191	H19	0.793800	0.293500	0.095700
H201	H20	0.623500	0.216200	0.138400
H211	H21	0.448000	0.333400	0.982300
H221	H22	0.464700	0.309600	0.080600
H231	H23	0.722600	0.016200	0.316800
H241	H24	0.732400	0.918600	0.387200
H251	H25	0.946700	0.868900	0.362700
H261	H26	0.087100	0.925400	0.381400
H271	H27	0.944000	0.114300	0.310500
H281	H28	0.131400	0.110500	0.285700
H291	H29	0.273500	0.985300	0.550500
H301	H30	0.745300	0.093100	0.411100
H311	H31	0.649500	0.047400	0.514800
H321	H32	0.645000	0.989400	0.465800
H331	H33	0.346200	0.107500	0.317800
H341	H34	0.357800	0.006200	0.365000
H351	H35	0.435700	0.072900	0.396600
H361	H36	0.150000	0.936400	0.707400
H371	H37	0.006700	0.849900	0.733700
H381	H38	0.959600	0.932700	0.739100
H391	H39	0.718500	0.885500	0.713800
H401	H40	0.621500	0.925200	0.639800
H411	H41	0.889500	0.095700	0.610800
H421	H42	0.761900	0.138400	0.645400
H431	H43	0.430300	0.982300	0.684300
H441	H44	0.545300	0.080600	0.609800
H451	H45	0.039400	0.316800	0.667000
H461	H46	0.119600	0.387200	0.694200
H471	H47	0.309400	0.362700	0.768400
H481	H48	0.468500	0.381400	0.693200
H491	H49	0.254500	0.310500	0.575200
H501	H50	0.417100	0.285700	0.603800
H511	H51	0.824000	0.550500	0.464200
H521	H52	0.156400	0.411100	0.495800
H531	H53	0.164300	0.514800	0.437800
H541	H54	0.110800	0.465800	0.544800
H551	H55	0.664000	0.317800	0.574700
H561	H56	0.722800	0.365000	0.628800
H571	H57	0.832300	0.396600	0.530500
H581	H58	0.857400	0.707400	0.356200
H591	H59	0.740400	0.733700	0.416400
H601	H60	0.698700	0.739100	0.328200
H611	H61	0.432300	0.713800	0.400700
H621	H62	0.261300	0.639800	0.435000
H631	H63	0.500300	0.610800	0.293500
H641	H64	0.407300	0.645400	0.216200
H651	H65	0.114600	0.684300	0.333400
H661	H66	0.155100	0.609800	0.309600
C11	C1	0.797000	0.811700	0.929900
C21	C2	0.807400	0.708500	0.967400
C31	C3	0.111900	0.740700	0.925200
C41	C4	0.249900	0.813500	0.921800
C51	C5	0.943900	0.601600	0.074100
C61	C6	0.982600	0.539500	0.036900
C71	C7	0.145400	0.527100	0.026600
C81	C8	0.181400	0.474400	0.989500
C91	C9	0.069600	0.435500	0.957800
C101	C10	0.901200	0.439100	0.972200
C111	C11	0.860200	0.491900	0.012400
C121	C12	0.675200	0.492600	0.038000
C131	C13	0.288400	0.569300	0.056200
C141	C14	0.121600	0.378800	0.915200
C151	C15	0.773700	0.396900	0.941400
C161	C16	0.722400	0.249800	0.086200
C171	C17	0.814800	0.186300	0.081800
C181	C18	0.384400	0.193800	0.071600
C191	C19	0.483900	0.292400	0.034000
C201	C20	0.726900	0.929900	0.258400
C211	C21	0.774800	0.967400	0.324100
C221	C22	0.037100	0.925200	0.334100
C231	C23	0.171700	0.921800	0.264700
C241	C24	0.018000	0.074100	0.324300
C251	C25	0.019500	0.036900	0.423600
C261	C26	0.172000	0.026600	0.446300
C271	C27	0.170900	0.989500	0.536100
C281	C28	0.027400	0.957800	0.606700
C291	C29	0.873400	0.972200	0.588700
C301	C30	0.872600	0.012400	0.495700
C311	C31	0.713200	0.038000	0.469400
C321	C32	0.344600	0.056200	0.374500
C331	C33	0.036800	0.915200	0.706000
C341	C34	0.715100	0.941400	0.661700
C351	C35	0.808600	0.086200	0.664000
C361	C36	0.896600	0.081800	0.731900
C371	C37	0.456000	0.071600	0.734600
C381	C38	0.517900	0.034000	0.673600
C391	C39	0.985300	0.258400	0.811700
C401	C40	0.098900	0.324100	0.708500
C411	C41	0.371200	0.334100	0.740700
C421	C42	0.436400	0.264700	0.813500
C431	C43	0.342300	0.324300	0.601600
C441	C44	0.443100	0.423600	0.539500
C451	C45	0.618300	0.446300	0.527100
C461	C46	0.707000	0.536100	0.474400
C471	C47	0.634100	0.606700	0.435500
C481	C48	0.462100	0.588700	0.439100
C491	C49	0.368300	0.495700	0.491900
C501	C50	0.182600	0.469400	0.492600
C511	C51	0.719100	0.374500	0.569300
C521	C52	0.742800	0.706000	0.378800
C531	C53	0.376800	0.661700	0.396900
C541	C54	0.472600	0.664000	0.249800
C551	C55	0.628500	0.731900	0.186300
C561	C56	0.190600	0.734600	0.193800
C571	C57	0.191500	0.673600	0.292400
N11	N1	0.958700	0.697300	0.001800
N21	N2	0.667800	0.299300	0.004300
N31	N3	0.960500	0.001800	0.300900
N41	N4	0.672100	0.004300	0.696400
N51	N5	0.261400	0.300900	0.697300
N61	N6	0.368500	0.696400	0.299300
O11	O1	0.861800	0.851200	0.960400
O21	O2	0.707000	0.830700	0.876300
O31	O3	0.208500	0.843500	0.973400
O41	O4	0.383900	0.845400	0.860100
O51	O5	0.892100	0.151400	0.143800
O61	O6	0.791600	0.153600	0.026300
O71	O7	0.240000	0.170000	0.125800
O81	O8	0.438700	0.149200	0.036900
O91	O9	0.822200	0.960400	0.188400
O101	O10	0.583300	0.876300	0.293000
O111	O11	0.181900	0.973400	0.183100
O121	O12	0.244000	0.860100	0.294500
O131	O13	0.035900	0.143800	0.704800
O141	O14	0.817900	0.026300	0.820100
O151	O15	0.365800	0.125800	0.704200
O161	O16	0.475600	0.036900	0.813900
O171	O17	0.010600	0.188400	0.851200
O181	O18	0.876300	0.293000	0.830700
O191	O19	0.365000	0.183100	0.843500
O201	O20	0.538500	0.294500	0.845400
O211	O21	0.740700	0.704800	0.151400
O221	O22	0.638000	0.820100	0.153600
O231	O23	0.070000	0.704200	0.170000
O241	O24	0.289500	0.813900	0.149200
