data_OGIBOV_clean_PM
_symmetry_space_group_name_H-M	'P1'
_cell_length_a	12.232000
_cell_length_b	12.268000
_cell_length_c	16.392000
_cell_angle_alpha	90.000000
_cell_angle_beta	90.000000
_cell_angle_gamma	90.000000
_symmetry_Int_Tables_number 1

loop_
_symmetry_equiv_pos_as_xyz
'x,y,z'

loop_
_atom_site_label
_atom_site_type_symbol
_atom_site_fract_x
_atom_site_fract_y
_atom_site_fract_z
Ga11	Ga1	0.172480	0.476350	0.254060
Ga21	Ga2	0.133110	0.459790	0.900950
P11	P1	0.125540	0.562490	0.078520
P21	P2	0.410650	0.557610	0.237540
F11	F1	0.212700	0.494900	0.367100
F21	F2	0.182800	0.641500	0.258500
O11	O1	0.387200	0.669100	0.199400
O21	O2	0.191800	0.663600	0.097200
O31	O3	0.174500	0.513800	0.000000
O41	O4	0.520800	0.515200	0.203900
O51	O5	0.324900	0.317100	0.378000
O61	O6	0.415100	0.570200	0.331300
O71	O7	0.130600	0.475800	0.144300
O81	O8	0.324900	0.472200	0.217900
O91	O9	0.176500	0.321200	0.268400
O101	O10	0.005600	0.597000	0.063300
Ga31	Ga3	0.327520	0.023650	0.254060
Ga41	Ga4	0.366890	0.040210	0.900950
P31	P3	0.374460	0.937510	0.078520
P41	P4	0.089350	0.942390	0.237540
F31	F3	0.287300	0.005100	0.367100
F41	F4	0.317200	0.858500	0.258500
O111	O11	0.112800	0.830900	0.199400
O121	O12	0.308200	0.836400	0.097200
O131	O13	0.325500	0.986200	0.000000
O141	O14	0.979200	0.984800	0.203900
O151	O15	0.175100	0.182900	0.378000
O161	O16	0.084900	0.929800	0.331300
O171	O17	0.369400	0.024200	0.144300
O181	O18	0.175100	0.027800	0.217900
O191	O19	0.323500	0.178800	0.268400
O201	O20	0.494400	0.903000	0.063300
Ga51	Ga5	0.827520	0.976350	0.245940
Ga61	Ga6	0.866890	0.959790	0.599050
P51	P5	0.874460	0.062490	0.421480
P61	P6	0.589350	0.057610	0.262460
F51	F5	0.787300	0.994900	0.132900
F61	F6	0.817200	0.141500	0.241500
O211	O21	0.612800	0.169100	0.300600
O221	O22	0.808200	0.163600	0.402800
O231	O23	0.825500	0.013800	0.500000
O241	O24	0.479200	0.015200	0.296100
O251	O25	0.675100	0.817100	0.122000
O261	O26	0.584900	0.070200	0.168700
O271	O27	0.869400	0.975800	0.355700
O281	O28	0.675100	0.972200	0.282100
O291	O29	0.823500	0.821200	0.231600
O301	O30	0.994400	0.097000	0.436700
Ga71	Ga7	0.672480	0.523650	0.245940
Ga81	Ga8	0.633110	0.540210	0.599050
P71	P7	0.625540	0.437510	0.421480
P81	P8	0.910650	0.442390	0.262460
F71	F7	0.712700	0.505100	0.132900
F81	F8	0.682800	0.358500	0.241500
O311	O31	0.887200	0.330900	0.300600
O321	O32	0.691800	0.336400	0.402800
O331	O33	0.674500	0.486200	0.500000
O341	O34	0.020800	0.484800	0.296100
O351	O35	0.824900	0.682900	0.122000
O361	O36	0.915100	0.429800	0.168700
O371	O37	0.630600	0.524200	0.355700
O381	O38	0.824900	0.527800	0.282100
O391	O39	0.676500	0.678800	0.231600
O401	O40	0.505600	0.403000	0.436700
Ga91	Ga9	0.827520	0.523650	0.745940
Ga101	Ga10	0.866890	0.540210	0.099050
P91	P9	0.874460	0.437510	0.921480
P101	P10	0.589350	0.442390	0.762460
F91	F9	0.787300	0.505100	0.632900
F101	F10	0.817200	0.358500	0.741500
O411	O41	0.612800	0.330900	0.800600
O421	O42	0.808200	0.336400	0.902800
O431	O43	0.825500	0.486200	0.000000
O441	O44	0.479200	0.484800	0.796100
O451	O45	0.675100	0.682900	0.622000
O461	O46	0.584900	0.429800	0.668700
O471	O47	0.869400	0.524200	0.855700
O481	O48	0.675100	0.527800	0.782100
O491	O49	0.823500	0.678800	0.731600
O501	O50	0.994400	0.403000	0.936700
Ga111	Ga11	0.672480	0.976350	0.745940
Ga121	Ga12	0.633110	0.959790	0.099050
P111	P11	0.625540	0.062490	0.921480
P121	P12	0.910650	0.057610	0.762460
F111	F11	0.712700	0.994900	0.632900
F121	F12	0.682800	0.141500	0.741500
O511	O51	0.887200	0.169100	0.800600
O521	O52	0.691800	0.163600	0.902800
O531	O53	0.674500	0.013800	0.000000
O541	O54	0.020800	0.015200	0.796100
O551	O55	0.824900	0.817100	0.622000
O561	O56	0.915100	0.070200	0.668700
O571	O57	0.630600	0.975800	0.855700
O581	O58	0.824900	0.972200	0.782100
O591	O59	0.676500	0.821200	0.731600
O601	O60	0.505600	0.097000	0.936700
Ga131	Ga13	0.172480	0.023650	0.754060
Ga141	Ga14	0.133110	0.040210	0.400950
P131	P13	0.125540	0.937510	0.578520
P141	P14	0.410650	0.942390	0.737540
F131	F13	0.212700	0.005100	0.867100
F141	F14	0.182800	0.858500	0.758500
O611	O61	0.387200	0.830900	0.699400
O621	O62	0.191800	0.836400	0.597200
O631	O63	0.174500	0.986200	0.500000
O641	O64	0.520800	0.984800	0.703900
O651	O65	0.324900	0.182900	0.878000
O661	O66	0.415100	0.929800	0.831300
O671	O67	0.130600	0.024200	0.644300
O681	O68	0.324900	0.027800	0.717900
O691	O69	0.176500	0.178800	0.768400
O701	O70	0.005600	0.903000	0.563300
Ga151	Ga15	0.327520	0.476350	0.754060
Ga161	Ga16	0.366890	0.459790	0.400950
P151	P15	0.374460	0.562490	0.578520
P161	P16	0.089350	0.557610	0.737540
F151	F15	0.287300	0.494900	0.867100
F161	F16	0.317200	0.641500	0.758500
O711	O71	0.112800	0.669100	0.699400
O721	O72	0.308200	0.663600	0.597200
O731	O73	0.325500	0.513800	0.500000
O741	O74	0.979200	0.515200	0.703900
O751	O75	0.175100	0.317100	0.878000
O761	O76	0.084900	0.570200	0.831300
O771	O77	0.369400	0.475800	0.644300
O781	O78	0.175100	0.472200	0.717900
O791	O79	0.323500	0.321200	0.768400
O801	O80	0.494400	0.597000	0.563300
Ga171	Ga17	0.250000	0.750000	0.183890
Ga181	Ga18	0.750000	0.250000	0.316110
Ga191	Ga19	0.750000	0.250000	0.816110
Ga201	Ga20	0.250000	0.750000	0.683890
P171	P17	0.250000	0.250000	0.321050
P181	P18	0.750000	0.750000	0.178950
P191	P19	0.750000	0.750000	0.678950
P201	P20	0.250000	0.250000	0.821050
