data_OGIYOT_charged_PM
_symmetry_space_group_name_H-M	'P1'
_cell_length_a	18.930700
_cell_length_b	18.930700
_cell_length_c	20.989000
_cell_angle_alpha	90.000000
_cell_angle_beta	90.000000
_cell_angle_gamma	90.000000
_symmetry_Int_Tables_number 1

loop_
_symmetry_equiv_pos_as_xyz
'x,y,z'

loop_
_atom_site_label
_atom_site_type_symbol
_atom_site_fract_x
_atom_site_fract_y
_atom_site_fract_z
Nd11	Nd1	0.500000	0.000000	0.750000
Nd21	Nd2	0.000000	0.500000	0.250000
Nd31	Nd3	0.500000	0.000000	0.250000
Nd41	Nd4	0.000000	0.500000	0.750000
H11	H1	0.322400	0.214100	0.799800
H21	H2	0.434400	0.111700	0.934900
H31	H3	0.606300	0.921200	0.634700
H41	H4	0.648300	0.819500	0.587600
H51	H5	0.611100	0.710800	0.627700
H61	H6	0.535500	0.642900	0.708600
H71	H7	0.677600	0.785900	0.799800
H81	H8	0.565600	0.888300	0.934900
H91	H9	0.393700	0.078800	0.634700
H101	H10	0.351700	0.180500	0.587600
H111	H11	0.388900	0.289200	0.627700
H121	H12	0.464500	0.357100	0.708600
H131	H13	0.785900	0.322400	0.299800
H141	H14	0.888300	0.434400	0.434900
H151	H15	0.078800	0.606300	0.134700
H161	H16	0.180500	0.648300	0.087600
H171	H17	0.289200	0.611100	0.127700
H181	H18	0.357100	0.535500	0.208600
H191	H19	0.214100	0.677600	0.299800
H201	H20	0.111700	0.565600	0.434900
H211	H21	0.921200	0.393700	0.134700
H221	H22	0.819500	0.351700	0.087600
H231	H23	0.710800	0.388900	0.127700
H241	H24	0.642900	0.464500	0.208600
H251	H25	0.677600	0.214100	0.700200
H261	H26	0.565600	0.111700	0.565100
H271	H27	0.393700	0.921200	0.865300
H281	H28	0.351700	0.819500	0.912400
H291	H29	0.388900	0.710800	0.872300
H301	H30	0.464500	0.642900	0.791400
H311	H31	0.322400	0.785900	0.700200
H321	H32	0.434400	0.888300	0.565100
H331	H33	0.606300	0.078800	0.865300
H341	H34	0.648300	0.180500	0.912400
H351	H35	0.611100	0.289200	0.872300
H361	H36	0.535500	0.357100	0.791400
H371	H37	0.214100	0.322400	0.200200
H381	H38	0.111700	0.434400	0.065100
H391	H39	0.921200	0.606300	0.365300
H401	H40	0.819500	0.648300	0.412400
H411	H41	0.710800	0.611100	0.372300
H421	H42	0.642900	0.535500	0.291400
H431	H43	0.785900	0.677600	0.200200
H441	H44	0.888300	0.565600	0.065100
H451	H45	0.078800	0.393700	0.365300
H461	H46	0.180500	0.351700	0.412400
H471	H47	0.289200	0.388900	0.372300
H481	H48	0.357100	0.464500	0.291400
H491	H49	0.677600	0.785900	0.200200
H501	H50	0.565600	0.888300	0.065100
H511	H51	0.393700	0.078800	0.365300
H521	H52	0.351700	0.180500	0.412400
H531	H53	0.388900	0.289200	0.372300
H541	H54	0.464500	0.357100	0.291400
H551	H55	0.322400	0.214100	0.200200
H561	H56	0.434400	0.111700	0.065100
H571	H57	0.606300	0.921200	0.365300
H581	H58	0.648300	0.819500	0.412400
H591	H59	0.611100	0.710800	0.372300
H601	H60	0.535500	0.642900	0.291400
H611	H61	0.214100	0.677600	0.700200
H621	H62	0.111700	0.565600	0.565100
H631	H63	0.921200	0.393700	0.865300
H641	H64	0.819500	0.351700	0.912400
H651	H65	0.710800	0.388900	0.872300
H661	H66	0.642900	0.464500	0.791400
H671	H67	0.785900	0.322400	0.700200
H681	H68	0.888300	0.434400	0.565100
H691	H69	0.078800	0.606300	0.865300
H701	H70	0.180500	0.648300	0.912400
H711	H71	0.289200	0.611100	0.872300
H721	H72	0.357100	0.535500	0.791400
H731	H73	0.322400	0.785900	0.299800
H741	H74	0.434400	0.888300	0.434900
H751	H75	0.606300	0.078800	0.134700
H761	H76	0.648300	0.180500	0.087600
H771	H77	0.611100	0.289200	0.127700
H781	H78	0.535500	0.357100	0.208600
H791	H79	0.677600	0.214100	0.299800
H801	H80	0.565600	0.111700	0.434900
H811	H81	0.393700	0.921200	0.134700
H821	H82	0.351700	0.819500	0.087600
H831	H83	0.388900	0.710800	0.127700
H841	H84	0.464500	0.642900	0.208600
H851	H85	0.785900	0.677600	0.799800
H861	H86	0.888300	0.565600	0.934900
H871	H87	0.078800	0.393700	0.634700
H881	H88	0.180500	0.351700	0.587600
H891	H89	0.289200	0.388900	0.627700
H901	H90	0.357100	0.464500	0.708600
H911	H91	0.214100	0.322400	0.799800
H921	H92	0.111700	0.434400	0.934900
H931	H93	0.921200	0.606300	0.634700
H941	H94	0.819500	0.648300	0.587600
H951	H95	0.710800	0.611100	0.627700
H961	H96	0.642900	0.535500	0.708600
H971	H97	0.341000	0.341000	0.783900
H981	H98	0.385500	0.385500	0.834800
H991	H99	0.659000	0.659000	0.783900
H1001	H100	0.614500	0.614500	0.834800
H1011	H101	0.659000	0.341000	0.283900
H1021	H102	0.614500	0.385500	0.334800
H1031	H103	0.341000	0.659000	0.283900
H1041	H104	0.385500	0.614500	0.334800
H1051	H105	0.659000	0.341000	0.716100
H1061	H106	0.614500	0.385500	0.665200
H1071	H107	0.341000	0.659000	0.716100
H1081	H108	0.385500	0.614500	0.665200
H1091	H109	0.341000	0.341000	0.216100
H1101	H110	0.385500	0.385500	0.165200
H1111	H111	0.659000	0.659000	0.216100
H1121	H112	0.614500	0.614500	0.165200
H1131	H113	0.517300	0.173700	0.000000
H1141	H114	0.519500	0.258400	0.000000
H1151	H115	0.482700	0.826300	0.000000
H1161	H116	0.480500	0.741600	0.000000
H1171	H117	0.826300	0.517300	0.500000
H1181	H118	0.741600	0.519500	0.500000
H1191	H119	0.173700	0.482700	0.500000
H1201	H120	0.258400	0.480500	0.500000
H1211	H121	0.482700	0.173700	0.500000
H1221	H122	0.480500	0.258400	0.500000
H1231	H123	0.517300	0.826300	0.500000
H1241	H124	0.519500	0.741600	0.500000
H1251	H125	0.173700	0.517300	0.000000
H1261	H126	0.258400	0.519500	0.000000
H1271	H127	0.826300	0.482700	0.000000
H1281	H128	0.741600	0.480500	0.000000
C11	C1	0.374700	0.281200	0.859500
C21	C2	0.352300	0.215700	0.836100
C31	C3	0.372700	0.153400	0.864700
C41	C4	0.418800	0.154700	0.916300
C51	C5	0.441700	0.218100	0.940400
C61	C6	0.420000	0.281700	0.913100
C71	C7	0.590500	0.877300	0.651400
C81	C8	0.616400	0.816800	0.622500
C91	C9	0.594600	0.753600	0.646000
C101	C10	0.547300	0.752300	0.697500
C111	C11	0.521000	0.686900	0.726100
C121	C12	0.524100	0.817700	0.722900
C131	C13	0.625300	0.718800	0.859500
C141	C14	0.647700	0.784300	0.836100
C151	C15	0.627300	0.846600	0.864700
C161	C16	0.581200	0.845300	0.916300
C171	C17	0.558300	0.781900	0.940400
C181	C18	0.580000	0.718300	0.913100
C191	C19	0.409500	0.122700	0.651400
C201	C20	0.383600	0.183200	0.622500
C211	C21	0.405400	0.246400	0.646000
C221	C22	0.452700	0.247700	0.697500
C231	C23	0.479000	0.313100	0.726100
C241	C24	0.475900	0.182300	0.722900
C251	C25	0.718800	0.374700	0.359500
C261	C26	0.784300	0.352300	0.336100
C271	C27	0.846600	0.372700	0.364700
C281	C28	0.845300	0.418800	0.416300
C291	C29	0.781900	0.441700	0.440400
C301	C30	0.718300	0.420000	0.413100
C311	C31	0.122700	0.590500	0.151400
C321	C32	0.183200	0.616400	0.122500
C331	C33	0.246400	0.594600	0.146000
C341	C34	0.247700	0.547300	0.197500
C351	C35	0.313100	0.521000	0.226100
C361	C36	0.182300	0.524100	0.222900
C371	C37	0.281200	0.625300	0.359500
C381	C38	0.215700	0.647700	0.336100
C391	C39	0.153400	0.627300	0.364700
C401	C40	0.154700	0.581200	0.416300
C411	C41	0.218100	0.558300	0.440400
C421	C42	0.281700	0.580000	0.413100
C431	C43	0.877300	0.409500	0.151400
C441	C44	0.816800	0.383600	0.122500
C451	C45	0.753600	0.405400	0.146000
C461	C46	0.752300	0.452700	0.197500
C471	C47	0.686900	0.479000	0.226100
C481	C48	0.817700	0.475900	0.222900
C491	C49	0.625300	0.281200	0.640500
C501	C50	0.647700	0.215700	0.663900
C511	C51	0.627300	0.153400	0.635300
C521	C52	0.581200	0.154700	0.583700
C531	C53	0.558300	0.218100	0.559600
C541	C54	0.580000	0.281700	0.586900
C551	C55	0.409500	0.877300	0.848600
C561	C56	0.383600	0.816800	0.877500
C571	C57	0.405400	0.753600	0.854000
C581	C58	0.452700	0.752300	0.802500
C591	C59	0.479000	0.686900	0.773900
C601	C60	0.475900	0.817700	0.777100
C611	C61	0.374700	0.718800	0.640500
C621	C62	0.352300	0.784300	0.663900
C631	C63	0.372700	0.846600	0.635300
C641	C64	0.418800	0.845300	0.583700
C651	C65	0.441700	0.781900	0.559600
C661	C66	0.420000	0.718300	0.586900
C671	C67	0.590500	0.122700	0.848600
C681	C68	0.616400	0.183200	0.877500
C691	C69	0.594600	0.246400	0.854000
C701	C70	0.547300	0.247700	0.802500
C711	C71	0.521000	0.313100	0.773900
C721	C72	0.524100	0.182300	0.777100
C731	C73	0.281200	0.374700	0.140500
C741	C74	0.215700	0.352300	0.163900
C751	C75	0.153400	0.372700	0.135300
C761	C76	0.154700	0.418800	0.083700
C771	C77	0.218100	0.441700	0.059600
C781	C78	0.281700	0.420000	0.086900
C791	C79	0.877300	0.590500	0.348600
C801	C80	0.816800	0.616400	0.377500
C811	C81	0.753600	0.594600	0.354000
C821	C82	0.752300	0.547300	0.302500
C831	C83	0.686900	0.521000	0.273900
C841	C84	0.817700	0.524100	0.277100
C851	C85	0.718800	0.625300	0.140500
C861	C86	0.784300	0.647700	0.163900
C871	C87	0.846600	0.627300	0.135300
C881	C88	0.845300	0.581200	0.083700
C891	C89	0.781900	0.558300	0.059600
C901	C90	0.718300	0.580000	0.086900
C911	C91	0.122700	0.409500	0.348600
C921	C92	0.183200	0.383600	0.377500
C931	C93	0.246400	0.405400	0.354000
C941	C94	0.247700	0.452700	0.302500
C951	C95	0.313100	0.479000	0.273900
C961	C96	0.182300	0.475900	0.277100
C971	C97	0.625300	0.718800	0.140500
C981	C98	0.647700	0.784300	0.163900
C991	C99	0.627300	0.846600	0.135300
C1001	C100	0.581200	0.845300	0.083700
C1011	C101	0.558300	0.781900	0.059600
C1021	C102	0.580000	0.718300	0.086900
C1031	C103	0.409500	0.122700	0.348600
C1041	C104	0.383600	0.183200	0.377500
C1051	C105	0.405400	0.246400	0.354000
C1061	C106	0.452700	0.247700	0.302500
C1071	C107	0.479000	0.313100	0.273900
C1081	C108	0.475900	0.182300	0.277100
C1091	C109	0.374700	0.281200	0.140500
C1101	C110	0.352300	0.215700	0.163900
C1111	C111	0.372700	0.153400	0.135300
C1121	C112	0.418800	0.154700	0.083700
C1131	C113	0.441700	0.218100	0.059600
C1141	C114	0.420000	0.281700	0.086900
C1151	C115	0.590500	0.877300	0.348600
C1161	C116	0.616400	0.816800	0.377500
C1171	C117	0.594600	0.753600	0.354000
C1181	C118	0.547300	0.752300	0.302500
C1191	C119	0.521000	0.686900	0.273900
C1201	C120	0.524100	0.817700	0.277100
C1211	C121	0.281200	0.625300	0.640500
C1221	C122	0.215700	0.647700	0.663900
C1231	C123	0.153400	0.627300	0.635300
C1241	C124	0.154700	0.581200	0.583700
C1251	C125	0.218100	0.558300	0.559600
C1261	C126	0.281700	0.580000	0.586900
C1271	C127	0.877300	0.409500	0.848600
C1281	C128	0.816800	0.383600	0.877500
C1291	C129	0.753600	0.405400	0.854000
C1301	C130	0.752300	0.452700	0.802500
C1311	C131	0.686900	0.479000	0.773900
C1321	C132	0.817700	0.475900	0.777100
C1331	C133	0.718800	0.374700	0.640500
C1341	C134	0.784300	0.352300	0.663900
C1351	C135	0.846600	0.372700	0.635300
C1361	C136	0.845300	0.418800	0.583700
C1371	C137	0.781900	0.441700	0.559600
C1381	C138	0.718300	0.420000	0.586900
C1391	C139	0.122700	0.590500	0.848600
C1401	C140	0.183200	0.616400	0.877500
C1411	C141	0.246400	0.594600	0.854000
C1421	C142	0.247700	0.547300	0.802500
C1431	C143	0.313100	0.521000	0.773900
C1441	C144	0.182300	0.524100	0.777100
C1451	C145	0.374700	0.718800	0.359500
C1461	C146	0.352300	0.784300	0.336100
C1471	C147	0.372700	0.846600	0.364700
C1481	C148	0.418800	0.845300	0.416300
C1491	C149	0.441700	0.781900	0.440400
C1501	C150	0.420000	0.718300	0.413100
C1511	C151	0.590500	0.122700	0.151400
C1521	C152	0.616400	0.183200	0.122500
C1531	C153	0.594600	0.246400	0.146000
C1541	C154	0.547300	0.247700	0.197500
C1551	C155	0.521000	0.313100	0.226100
C1561	C156	0.524100	0.182300	0.222900
C1571	C157	0.625300	0.281200	0.359500
C1581	C158	0.647700	0.215700	0.336100
C1591	C159	0.627300	0.153400	0.364700
C1601	C160	0.581200	0.154700	0.416300
C1611	C161	0.558300	0.218100	0.440400
C1621	C162	0.580000	0.281700	0.413100
C1631	C163	0.409500	0.877300	0.151400
C1641	C164	0.383600	0.816800	0.122500
C1651	C165	0.405400	0.753600	0.146000
C1661	C166	0.452700	0.752300	0.197500
C1671	C167	0.479000	0.686900	0.226100
C1681	C168	0.475900	0.817700	0.222900
C1691	C169	0.718800	0.625300	0.859500
C1701	C170	0.784300	0.647700	0.836100
C1711	C171	0.846600	0.627300	0.864700
C1721	C172	0.845300	0.581200	0.916300
C1731	C173	0.781900	0.558300	0.940400
C1741	C174	0.718300	0.580000	0.913100
C1751	C175	0.122700	0.409500	0.651400
C1761	C176	0.183200	0.383600	0.622500
C1771	C177	0.246400	0.405400	0.646000
C1781	C178	0.247700	0.452700	0.697500
C1791	C179	0.313100	0.479000	0.726100
C1801	C180	0.182300	0.475900	0.722900
C1811	C181	0.281200	0.374700	0.859500
C1821	C182	0.215700	0.352300	0.836100
C1831	C183	0.153400	0.372700	0.864700
C1841	C184	0.154700	0.418800	0.916300
C1851	C185	0.218100	0.441700	0.940400
C1861	C186	0.281700	0.420000	0.913100
C1871	C187	0.877300	0.590500	0.651400
C1881	C188	0.816800	0.616400	0.622500
C1891	C189	0.753600	0.594600	0.646000
C1901	C190	0.752300	0.547300	0.697500
C1911	C191	0.686900	0.521000	0.726100
C1921	C192	0.817700	0.524100	0.722900
C1931	C193	0.348700	0.348700	0.830000
C1941	C194	0.651300	0.651300	0.830000
C1951	C195	0.651300	0.348700	0.330000
C1961	C196	0.348700	0.651300	0.330000
C1971	C197	0.651300	0.348700	0.670000
C1981	C198	0.348700	0.651300	0.670000
C1991	C199	0.348700	0.348700	0.170000
C2001	C200	0.651300	0.651300	0.170000
C2011	C201	0.487700	0.216900	0.000000
C2021	C202	0.512300	0.783100	0.000000
C2031	C203	0.783100	0.487700	0.500000
C2041	C204	0.216900	0.512300	0.500000
C2051	C205	0.512300	0.216900	0.500000
C2061	C206	0.487700	0.783100	0.500000
C2071	C207	0.216900	0.487700	0.000000
C2081	C208	0.783100	0.512300	0.000000
S11	S1	0.343350	0.072570	0.835390
S21	S2	0.656650	0.927430	0.835390
S31	S3	0.927430	0.343350	0.335390
S41	S4	0.072570	0.656650	0.335390
S51	S5	0.656650	0.072570	0.664610
S61	S6	0.343350	0.927430	0.664610
S71	S7	0.072570	0.343350	0.164610
S81	S8	0.927430	0.656650	0.164610
S91	S9	0.656650	0.927430	0.164610
S101	S10	0.343350	0.072570	0.164610
S111	S11	0.072570	0.656650	0.664610
S121	S12	0.927430	0.343350	0.664610
S131	S13	0.343350	0.927430	0.335390
S141	S14	0.656650	0.072570	0.335390
S151	S15	0.927430	0.656650	0.835390
S161	S16	0.072570	0.343350	0.835390
N11	N1	0.546100	0.880200	0.699800
N21	N2	0.453900	0.119800	0.699800
N31	N3	0.119800	0.546100	0.199800
N41	N4	0.880200	0.453900	0.199800
N51	N5	0.453900	0.880200	0.800200
N61	N6	0.546100	0.119800	0.800200
N71	N7	0.880200	0.546100	0.300200
N81	N8	0.119800	0.453900	0.300200
N91	N9	0.453900	0.119800	0.300200
N101	N10	0.546100	0.880200	0.300200
N111	N11	0.880200	0.453900	0.800200
N121	N12	0.119800	0.546100	0.800200
N131	N13	0.546100	0.119800	0.199800
N141	N14	0.453900	0.880200	0.199800
N151	N15	0.119800	0.453900	0.699800
N161	N16	0.880200	0.546100	0.699800
O11	O1	0.443600	0.344500	0.936700
O21	O2	0.307100	0.038000	0.887100
O31	O3	0.408500	0.034400	0.818930
O41	O4	0.300700	0.086900	0.780300
O51	O5	0.556400	0.655500	0.936700
O61	O6	0.692900	0.962000	0.887100
O71	O7	0.591500	0.965600	0.818930
O81	O8	0.699300	0.913100	0.780300
O91	O9	0.655500	0.443600	0.436700
O101	O10	0.962000	0.307100	0.387100
O111	O11	0.965600	0.408500	0.318930
O121	O12	0.913100	0.300700	0.280300
O131	O13	0.344500	0.556400	0.436700
O141	O14	0.038000	0.692900	0.387100
O151	O15	0.034400	0.591500	0.318930
O161	O16	0.086900	0.699300	0.280300
O171	O17	0.556400	0.344500	0.563300
O181	O18	0.692900	0.038000	0.612900
O191	O19	0.591500	0.034400	0.681070
O201	O20	0.699300	0.086900	0.719700
O211	O21	0.443600	0.655500	0.563300
O221	O22	0.307100	0.962000	0.612900
O231	O23	0.408500	0.965600	0.681070
O241	O24	0.300700	0.913100	0.719700
O251	O25	0.344500	0.443600	0.063300
O261	O26	0.038000	0.307100	0.112900
O271	O27	0.034400	0.408500	0.181070
O281	O28	0.086900	0.300700	0.219700
O291	O29	0.655500	0.556400	0.063300
O301	O30	0.962000	0.692900	0.112900
O311	O31	0.965600	0.591500	0.181070
O321	O32	0.913100	0.699300	0.219700
O331	O33	0.556400	0.655500	0.063300
O341	O34	0.692900	0.962000	0.112900
O351	O35	0.591500	0.965600	0.181070
O361	O36	0.699300	0.913100	0.219700
O371	O37	0.443600	0.344500	0.063300
O381	O38	0.307100	0.038000	0.112900
O391	O39	0.408500	0.034400	0.181070
O401	O40	0.300700	0.086900	0.219700
O411	O41	0.344500	0.556400	0.563300
O421	O42	0.038000	0.692900	0.612900
O431	O43	0.034400	0.591500	0.681070
O441	O44	0.086900	0.699300	0.719700
O451	O45	0.655500	0.443600	0.563300
O461	O46	0.962000	0.307100	0.612900
O471	O47	0.965600	0.408500	0.681070
O481	O48	0.913100	0.300700	0.719700
O491	O49	0.443600	0.655500	0.436700
O501	O50	0.307100	0.962000	0.387100
O511	O51	0.408500	0.965600	0.318930
O521	O52	0.300700	0.913100	0.280300
O531	O53	0.556400	0.344500	0.436700
O541	O54	0.692900	0.038000	0.387100
O551	O55	0.591500	0.034400	0.318930
O561	O56	0.699300	0.086900	0.280300
O571	O57	0.655500	0.556400	0.936700
O581	O58	0.962000	0.692900	0.887100
O591	O59	0.965600	0.591500	0.818930
O601	O60	0.913100	0.699300	0.780300
O611	O61	0.344500	0.443600	0.936700
O621	O62	0.038000	0.307100	0.887100
O631	O63	0.034400	0.408500	0.818930
O641	O64	0.086900	0.300700	0.780300
