data_OHAQEU_clean_PM
_symmetry_space_group_name_H-M	'P1'
_cell_length_a	10.755100
_cell_length_b	10.755100
_cell_length_c	10.755100
_cell_angle_alpha	104.041000
_cell_angle_beta	112.253000
_cell_angle_gamma	112.253000
_symmetry_Int_Tables_number 1

loop_
_symmetry_equiv_pos_as_xyz
'x,y,z'

loop_
_atom_site_label
_atom_site_type_symbol
_atom_site_fract_x
_atom_site_fract_y
_atom_site_fract_z
Nb11	Nb1	0.000000	0.249640	0.249640
Nb21	Nb2	0.000000	0.750360	0.750360
Fe11	Fe1	0.492020	0.801150	0.690870
Fe21	Fe2	0.507980	0.198850	0.309130
Fe31	Fe3	0.889720	0.690870	0.198850
Fe41	Fe4	0.110280	0.309130	0.801150
C11	C1	0.780800	0.076410	0.023810
C21	C2	0.800010	0.190420	0.292230
C31	C3	0.219200	0.243010	0.295610
C41	C4	0.199990	0.492220	0.390410
C51	C5	0.947400	0.023810	0.243010
C61	C6	0.101810	0.292230	0.492220
C71	C7	0.052600	0.295610	0.076410
C81	C8	0.898190	0.390410	0.190420
C91	C9	0.219200	0.923590	0.976190
C101	C10	0.199990	0.809580	0.707770
C111	C11	0.780800	0.756990	0.704390
C121	C12	0.800010	0.507780	0.609590
C131	C13	0.052600	0.976190	0.756990
C141	C14	0.898190	0.707770	0.507780
C151	C15	0.947400	0.704390	0.923590
C161	C16	0.101810	0.609590	0.809580
N11	N1	0.668070	0.983490	0.911760
N21	N2	0.693930	0.164780	0.306430
N31	N3	0.331930	0.243690	0.315420
N41	N4	0.306070	0.612500	0.470850
N51	N5	0.928270	0.911760	0.243690
N61	N6	0.141650	0.306430	0.612500
N71	N7	0.071730	0.315420	0.983490
N81	N8	0.858350	0.470850	0.164780
N91	N9	0.331930	0.016510	0.088240
N101	N10	0.306070	0.835220	0.693570
N111	N11	0.668070	0.756310	0.684580
N121	N12	0.693930	0.387500	0.529150
N131	N13	0.071730	0.088240	0.756310
N141	N14	0.858350	0.693570	0.387500
N151	N15	0.928270	0.684580	0.016510
N161	N16	0.141650	0.529150	0.835220
