data_OHEGAJ_clean_PM
_symmetry_space_group_name_H-M	'P1'
_cell_length_a	16.085700
_cell_length_b	9.197300
_cell_length_c	15.421600
_cell_angle_alpha	90.000000
_cell_angle_beta	112.033000
_cell_angle_gamma	90.000000
_symmetry_Int_Tables_number 1

loop_
_symmetry_equiv_pos_as_xyz
'x,y,z'

loop_
_atom_site_label
_atom_site_type_symbol
_atom_site_fract_x
_atom_site_fract_y
_atom_site_fract_z
As11	As1	0.719170	0.449570	0.840550
As21	As2	0.777300	0.203360	0.118570
As31	As3	0.529120	0.729670	0.040770
Zn11	Zn1	0.893580	0.250850	0.974650
Zn21	Zn2	0.646650	0.469040	0.012690
Zn31	Zn3	0.592490	0.433460	0.629340
O11	O1	0.715500	0.523900	0.937200
O21	O2	0.792100	0.314700	0.854700
O31	O3	0.617000	0.404300	0.763900
O41	O4	0.756100	0.594000	0.791400
H11	H1	0.760200	0.567600	0.742400
O51	O5	0.727900	0.362000	0.119500
O61	O6	0.809300	0.168900	0.030800
O71	O7	0.712100	0.059600	0.122400
O81	O8	0.871700	0.196300	0.220000
H21	H2	0.857900	0.213100	0.265000
O91	O9	0.534800	0.878200	0.105200
O101	O10	0.632600	0.662700	0.061600
O111	O11	0.481900	0.767700	0.925700
O121	O12	0.466700	0.607800	0.070300
O131	O13	0.931300	0.440300	0.058200
O141	O14	0.002200	0.136500	0.079700
O151	O15	0.086800	0.934700	0.100600
O161	O16	0.015300	0.640000	0.080600
C11	C1	0.985300	0.523400	0.039800
C21	C2	0.025500	0.021200	0.052200
As41	As4	0.280830	0.949570	0.659450
As51	As5	0.222700	0.703360	0.381430
As61	As6	0.470880	0.229670	0.459230
Zn41	Zn4	0.106420	0.750850	0.525350
Zn51	Zn5	0.353350	0.969040	0.487310
Zn61	Zn6	0.407510	0.933460	0.870660
O171	O17	0.284500	0.023900	0.562800
O181	O18	0.207900	0.814700	0.645300
O191	O19	0.383000	0.904300	0.736100
O201	O20	0.243900	0.094000	0.708600
H31	H3	0.239800	0.067600	0.757600
O211	O21	0.272100	0.862000	0.380500
O221	O22	0.190700	0.668900	0.469200
O231	O23	0.287900	0.559600	0.377600
O241	O24	0.128300	0.696300	0.280000
H41	H4	0.142100	0.713100	0.235000
O251	O25	0.465200	0.378200	0.394800
O261	O26	0.367400	0.162700	0.438400
O271	O27	0.518100	0.267700	0.574300
O281	O28	0.533300	0.107800	0.429700
O291	O29	0.068700	0.940300	0.441800
O301	O30	0.997800	0.636500	0.420300
O311	O31	0.913200	0.434700	0.399400
O321	O32	0.984700	0.140000	0.419400
C31	C3	0.014700	0.023400	0.460200
C41	C4	0.974500	0.521200	0.447800
As71	As7	0.280830	0.550430	0.159450
As81	As8	0.222700	0.796640	0.881430
As91	As9	0.470880	0.270330	0.959230
Zn71	Zn7	0.106420	0.749150	0.025350
Zn81	Zn8	0.353350	0.530960	0.987310
Zn91	Zn9	0.407510	0.566540	0.370660
O331	O33	0.284500	0.476100	0.062800
O341	O34	0.207900	0.685300	0.145300
O351	O35	0.383000	0.595700	0.236100
O361	O36	0.243900	0.406000	0.208600
H51	H5	0.239800	0.432400	0.257600
O371	O37	0.272100	0.638000	0.880500
O381	O38	0.190700	0.831100	0.969200
O391	O39	0.287900	0.940400	0.877600
O401	O40	0.128300	0.803700	0.780000
H61	H6	0.142100	0.786900	0.735000
O411	O41	0.465200	0.121800	0.894800
O421	O42	0.367400	0.337300	0.938400
O431	O43	0.518100	0.232300	0.074300
O441	O44	0.533300	0.392200	0.929700
O451	O45	0.068700	0.559700	0.941800
O461	O46	0.997800	0.863500	0.920300
O471	O47	0.913200	0.065300	0.899400
O481	O48	0.984700	0.360000	0.919400
C51	C5	0.014700	0.476600	0.960200
C61	C6	0.974500	0.978800	0.947800
As101	As10	0.719170	0.050430	0.340550
As111	As11	0.777300	0.296640	0.618570
As121	As12	0.529120	0.770330	0.540770
Zn101	Zn10	0.893580	0.249150	0.474650
Zn111	Zn11	0.646650	0.030960	0.512690
Zn121	Zn12	0.592490	0.066540	0.129340
O491	O49	0.715500	0.976100	0.437200
O501	O50	0.792100	0.185300	0.354700
O511	O51	0.617000	0.095700	0.263900
O521	O52	0.756100	0.906000	0.291400
H71	H7	0.760200	0.932400	0.242400
O531	O53	0.727900	0.138000	0.619500
O541	O54	0.809300	0.331100	0.530800
O551	O55	0.712100	0.440400	0.622400
O561	O56	0.871700	0.303700	0.720000
H81	H8	0.857900	0.286900	0.765000
O571	O57	0.534800	0.621800	0.605200
O581	O58	0.632600	0.837300	0.561600
O591	O59	0.481900	0.732300	0.425700
O601	O60	0.466700	0.892200	0.570300
O611	O61	0.931300	0.059700	0.558200
O621	O62	0.002200	0.363500	0.579700
O631	O63	0.086800	0.565300	0.600600
O641	O64	0.015300	0.860000	0.580600
C71	C7	0.985300	0.976600	0.539800
C81	C8	0.025500	0.478800	0.552200
