data_OHIHUJ_clean_PM
_symmetry_space_group_name_H-M	'P1'
_cell_length_a	10.158000
_cell_length_b	13.269000
_cell_length_c	14.470000
_cell_angle_alpha	90.000000
_cell_angle_beta	90.000000
_cell_angle_gamma	90.000000
_symmetry_Int_Tables_number 1

loop_
_symmetry_equiv_pos_as_xyz
'x,y,z'

loop_
_atom_site_label
_atom_site_type_symbol
_atom_site_fract_x
_atom_site_fract_y
_atom_site_fract_z
La11	La1	0.001350	0.842360	0.696210
O11	O1	0.225200	0.974000	0.688600
O21	O2	0.066300	0.997100	0.792300
O31	O3	0.340700	0.287600	0.082900
O41	O4	0.153500	0.204500	0.072000
O51	O5	0.845100	0.803600	0.819500
O61	O6	0.659300	0.715700	0.811700
O71	O7	0.537900	0.497700	0.087700
O81	O8	0.687700	0.482100	0.196600
C11	C1	0.261500	0.094700	0.809900
C21	C2	0.224600	0.126700	0.897800
H11	H1	0.147400	0.102500	0.924300
C31	C3	0.302300	0.194500	0.946200
C41	C4	0.417800	0.229900	0.906700
H21	H2	0.471500	0.273900	0.939500
C51	C5	0.453200	0.199900	0.818600
H31	H3	0.529700	0.225200	0.792000
C61	C6	0.376400	0.133200	0.770300
H41	H4	0.400800	0.113500	0.711000
C71	C7	0.178400	0.017600	0.761300
C81	C8	0.262100	0.231500	0.041800
C91	C9	0.776000	0.717400	0.953100
C101	C10	0.702100	0.640100	0.991800
H51	H5	0.639700	0.607200	0.955900
C111	C11	0.719600	0.611000	0.083400
C121	C12	0.809300	0.664300	0.137600
H61	H6	0.819800	0.647200	0.199500
C131	C13	0.882400	0.741600	0.100900
H71	H7	0.942800	0.775700	0.137700
C141	C14	0.866200	0.769200	0.008600
H81	H8	0.915200	0.822000	0.984000
C151	C15	0.758000	0.746400	0.854100
C161	C16	0.644200	0.525000	0.125900
La21	La2	0.998650	0.157640	0.196210
O91	O9	0.774800	0.026000	0.188600
O101	O10	0.933700	0.002900	0.292300
O111	O11	0.659300	0.712400	0.582900
O121	O12	0.846500	0.795500	0.572000
O131	O13	0.154900	0.196400	0.319500
O141	O14	0.340700	0.284300	0.311700
O151	O15	0.462100	0.502300	0.587700
O161	O16	0.312300	0.517900	0.696600
C171	C17	0.738500	0.905300	0.309900
C181	C18	0.775400	0.873300	0.397800
H91	H9	0.852600	0.897500	0.424300
C191	C19	0.697700	0.805500	0.446200
C201	C20	0.582200	0.770100	0.406700
H101	H10	0.528500	0.726100	0.439500
C211	C21	0.546800	0.800100	0.318600
H111	H11	0.470300	0.774800	0.292000
C221	C22	0.623600	0.866800	0.270300
H121	H12	0.599200	0.886500	0.211000
C231	C23	0.821600	0.982400	0.261300
C241	C24	0.737900	0.768500	0.541800
C251	C25	0.224000	0.282600	0.453100
C261	C26	0.297900	0.359900	0.491800
H131	H13	0.360300	0.392800	0.455900
C271	C27	0.280400	0.389000	0.583400
C281	C28	0.190700	0.335700	0.637600
H141	H14	0.180200	0.352800	0.699500
C291	C29	0.117600	0.258400	0.600900
H151	H15	0.057200	0.224300	0.637700
C301	C30	0.133800	0.230800	0.508600
H161	H16	0.084800	0.178000	0.484000
C311	C31	0.242000	0.253600	0.354100
C321	C32	0.355800	0.475000	0.625900
La31	La3	0.501350	0.657640	0.696210
O171	O17	0.725200	0.526000	0.688600
O181	O18	0.566300	0.502900	0.792300
O191	O19	0.840700	0.212400	0.082900
O201	O20	0.653500	0.295500	0.072000
O211	O21	0.345100	0.696400	0.819500
O221	O22	0.159300	0.784300	0.811700
O231	O23	0.037900	0.002300	0.087700
O241	O24	0.187700	0.017900	0.196600
C331	C33	0.761500	0.405300	0.809900
C341	C34	0.724600	0.373300	0.897800
H171	H17	0.647400	0.397500	0.924300
C351	C35	0.802300	0.305500	0.946200
C361	C36	0.917800	0.270100	0.906700
H181	H18	0.971500	0.226100	0.939500
C371	C37	0.953200	0.300100	0.818600
H191	H19	0.029700	0.274800	0.792000
C381	C38	0.876400	0.366800	0.770300
H201	H20	0.900800	0.386500	0.711000
C391	C39	0.678400	0.482400	0.761300
C401	C40	0.762100	0.268500	0.041800
C411	C41	0.276000	0.782600	0.953100
C421	C42	0.202100	0.859900	0.991800
H211	H21	0.139700	0.892800	0.955900
C431	C43	0.219600	0.889000	0.083400
C441	C44	0.309300	0.835700	0.137600
H221	H22	0.319800	0.852800	0.199500
C451	C45	0.382400	0.758400	0.100900
H231	H23	0.442800	0.724300	0.137700
C461	C46	0.366200	0.730800	0.008600
H241	H24	0.415200	0.678000	0.984000
C471	C47	0.258000	0.753600	0.854100
C481	C48	0.144200	0.975000	0.125900
La41	La4	0.498650	0.342360	0.196210
O251	O25	0.274800	0.474000	0.188600
O261	O26	0.433700	0.497100	0.292300
O271	O27	0.159300	0.787600	0.582900
O281	O28	0.346500	0.704500	0.572000
O291	O29	0.654900	0.303600	0.319500
O301	O30	0.840700	0.215700	0.311700
O311	O31	0.962100	0.997700	0.587700
O321	O32	0.812300	0.982100	0.696600
C491	C49	0.238500	0.594700	0.309900
C501	C50	0.275400	0.626700	0.397800
H251	H25	0.352600	0.602500	0.424300
C511	C51	0.197700	0.694500	0.446200
C521	C52	0.082200	0.729900	0.406700
H261	H26	0.028500	0.773900	0.439500
C531	C53	0.046800	0.699900	0.318600
H271	H27	0.970300	0.725200	0.292000
C541	C54	0.123600	0.633200	0.270300
H281	H28	0.099200	0.613500	0.211000
C551	C55	0.321600	0.517600	0.261300
C561	C56	0.237900	0.731500	0.541800
C571	C57	0.724000	0.217400	0.453100
C581	C58	0.797900	0.140100	0.491800
H291	H29	0.860300	0.107200	0.455900
C591	C59	0.780400	0.111000	0.583400
C601	C60	0.690700	0.164300	0.637600
H301	H30	0.680200	0.147200	0.699500
C611	C61	0.617600	0.241600	0.600900
H311	H31	0.557200	0.275700	0.637700
C621	C62	0.633800	0.269200	0.508600
H321	H32	0.584800	0.322000	0.484000
C631	C63	0.742000	0.246400	0.354100
C641	C64	0.855800	0.025000	0.625900
