data_OHUMEL_clean_PM
_symmetry_space_group_name_H-M	'P1'
_cell_length_a	48.928000
_cell_length_b	48.928000
_cell_length_c	48.928000
_cell_angle_alpha	90.000000
_cell_angle_beta	90.000000
_cell_angle_gamma	90.000000
_symmetry_Int_Tables_number 1

loop_
_symmetry_equiv_pos_as_xyz
'x,y,z'

loop_
_atom_site_label
_atom_site_type_symbol
_atom_site_fract_x
_atom_site_fract_y
_atom_site_fract_z
Mo11	Mo1	0.606790	0.939820	0.791670
O11	O1	0.603990	0.974330	0.811650
O21	O2	0.609280	0.915620	0.756940
O31	O3	0.568370	0.948040	0.782180
O41	O4	0.645580	0.943590	0.786370
Mo21	Mo2	0.556030	0.967260	0.752660
Mo31	Mo3	0.607310	0.933480	0.719150
Zn11	Zn1	0.578440	0.005180	0.808940
O51	O5	0.558770	0.997250	0.725120
O61	O6	0.570800	0.942000	0.726140
O71	O7	0.554790	0.006130	0.840940
C11	C1	0.566800	0.009300	0.862700
C21	C2	0.547800	0.011600	0.885800
O81	O8	0.592390	0.010260	0.865080
C31	C3	0.558300	0.017400	0.910300
C41	C4	0.522300	0.006300	0.883000
H11	H1	0.577000	0.020400	0.911600
C51	C5	0.541900	0.019100	0.935000
C61	C6	0.503500	0.009300	0.906400
H21	H2	0.515600	0.000500	0.866200
H31	H3	0.549600	0.022900	0.951900
C71	C7	0.513700	0.014900	0.931800
H41	H4	0.484700	0.007300	0.903900
C81	C8	0.496900	0.017800	0.956700
C91	C9	0.500300	0.040100	0.973500
H51	H5	0.514000	0.052800	0.970000
Mo41	Mo4	0.106790	0.439820	0.291670
O91	O9	0.103990	0.474330	0.311650
O101	O10	0.109280	0.415620	0.256940
O111	O11	0.068370	0.448040	0.282180
O121	O12	0.145580	0.443590	0.286370
Mo51	Mo5	0.056030	0.467260	0.252660
Mo61	Mo6	0.107310	0.433480	0.219150
Zn21	Zn2	0.078440	0.505180	0.308940
O131	O13	0.058770	0.497250	0.225120
O141	O14	0.070800	0.442000	0.226140
O151	O15	0.054790	0.506130	0.340940
C101	C10	0.066800	0.509300	0.362700
C111	C11	0.047800	0.511600	0.385800
O161	O16	0.092390	0.510260	0.365080
C121	C12	0.058300	0.517400	0.410300
C131	C13	0.022300	0.506300	0.383000
H61	H6	0.077000	0.520400	0.411600
C141	C14	0.041900	0.519100	0.435000
C151	C15	0.003500	0.509300	0.406400
H71	H7	0.015600	0.500500	0.366200
H81	H8	0.049600	0.522900	0.451900
C161	C16	0.013700	0.514900	0.431800
H91	H9	0.984700	0.507300	0.403900
C171	C17	0.996900	0.517800	0.456700
C181	C18	0.000300	0.540100	0.473500
H101	H10	0.014000	0.552800	0.470000
Mo71	Mo7	0.893210	0.060180	0.291670
O171	O17	0.896010	0.025670	0.311650
O181	O18	0.890720	0.084380	0.256940
O191	O19	0.931630	0.051960	0.282180
O201	O20	0.854420	0.056410	0.286370
Mo81	Mo8	0.943970	0.032740	0.252660
Mo91	Mo9	0.892690	0.066520	0.219150
Zn31	Zn3	0.921560	0.994820	0.308940
O211	O21	0.941230	0.002750	0.225120
O221	O22	0.929200	0.058000	0.226140
O231	O23	0.945210	0.993870	0.340940
C191	C19	0.933200	0.990700	0.362700
C201	C20	0.952200	0.988400	0.385800
O241	O24	0.907610	0.989740	0.365080
C211	C21	0.941700	0.982600	0.410300
C221	C22	0.977700	0.993700	0.383000
H111	H11	0.923000	0.979600	0.411600
C231	C23	0.958100	0.980900	0.435000
C241	C24	0.996500	0.990700	0.406400
H121	H12	0.984400	0.999500	0.366200
H131	H13	0.950400	0.977100	0.451900
C251	C25	0.986300	0.985100	0.431800
H141	H14	0.015300	0.992700	0.403900
C261	C26	0.003100	0.982200	0.456700
C271	C27	0.999700	0.959900	0.473500
H151	H15	0.986000	0.947200	0.470000
Mo101	Mo10	0.393210	0.560180	0.791670
O251	O25	0.396010	0.525670	0.811650
O261	O26	0.390720	0.584380	0.756940
O271	O27	0.431630	0.551960	0.782180
O281	O28	0.354420	0.556410	0.786370
Mo111	Mo11	0.443970	0.532740	0.752660
Mo121	Mo12	0.392690	0.566520	0.719150
Zn41	Zn4	0.421560	0.494820	0.808940
O291	O29	0.441230	0.502750	0.725120
O301	O30	0.429200	0.558000	0.726140
O311	O31	0.445210	0.493870	0.840940
C281	C28	0.433200	0.490700	0.862700
C291	C29	0.452200	0.488400	0.885800
O321	O32	0.407610	0.489740	0.865080
C301	C30	0.441700	0.482600	0.910300
C311	C31	0.477700	0.493700	0.883000
H161	H16	0.423000	0.479600	0.911600
C321	C32	0.458100	0.480900	0.935000
C331	C33	0.496500	0.490700	0.906400
H171	H17	0.484400	0.499500	0.866200
H181	H18	0.450400	0.477100	0.951900
C341	C34	0.486300	0.485100	0.931800
H191	H19	0.515300	0.492700	0.903900
C351	C35	0.503100	0.482200	0.956700
C361	C36	0.499700	0.459900	0.973500
H201	H20	0.486000	0.447200	0.970000
Mo131	Mo13	0.393210	0.439820	0.708330
O331	O33	0.396010	0.474330	0.688350
O341	O34	0.390720	0.415620	0.743060
O351	O35	0.431630	0.448040	0.717820
O361	O36	0.354420	0.443590	0.713630
Mo141	Mo14	0.443970	0.467260	0.747340
Mo151	Mo15	0.392690	0.433480	0.780850
Zn51	Zn5	0.421560	0.505180	0.691060
O371	O37	0.441230	0.497250	0.774880
O381	O38	0.429200	0.442000	0.773860
O391	O39	0.445210	0.506130	0.659060
C371	C37	0.433200	0.509300	0.637300
C381	C38	0.452200	0.511600	0.614200
O401	O40	0.407610	0.510260	0.634920
C391	C39	0.441700	0.517400	0.589700
C401	C40	0.477700	0.506300	0.617000
H211	H21	0.423000	0.520400	0.588400
C411	C41	0.458100	0.519100	0.565000
C421	C42	0.496500	0.509300	0.593600
H221	H22	0.484400	0.500500	0.633800
H231	H23	0.450400	0.522900	0.548100
C431	C43	0.486300	0.514900	0.568200
H241	H24	0.515300	0.507300	0.596100
C441	C44	0.503100	0.517800	0.543300
C451	C45	0.499700	0.540100	0.526500
H251	H25	0.486000	0.552800	0.530000
Mo161	Mo16	0.893210	0.939820	0.208330
O411	O41	0.896010	0.974330	0.188350
O421	O42	0.890720	0.915620	0.243060
O431	O43	0.931630	0.948040	0.217820
O441	O44	0.854420	0.943590	0.213630
Mo171	Mo17	0.943970	0.967260	0.247340
Mo181	Mo18	0.892690	0.933480	0.280850
Zn61	Zn6	0.921560	0.005180	0.191060
O451	O45	0.941230	0.997250	0.274880
O461	O46	0.929200	0.942000	0.273860
O471	O47	0.945210	0.006130	0.159060
C461	C46	0.933200	0.009300	0.137300
C471	C47	0.952200	0.011600	0.114200
O481	O48	0.907610	0.010260	0.134920
C481	C48	0.941700	0.017400	0.089700
C491	C49	0.977700	0.006300	0.117000
H261	H26	0.923000	0.020400	0.088400
C501	C50	0.958100	0.019100	0.065000
C511	C51	0.996500	0.009300	0.093600
H271	H27	0.984400	0.000500	0.133800
H281	H28	0.950400	0.022900	0.048100
C521	C52	0.986300	0.014900	0.068200
H291	H29	0.015300	0.007300	0.096100
C531	C53	0.003100	0.017800	0.043300
C541	C54	0.999700	0.040100	0.026500
H301	H30	0.986000	0.052800	0.030000
Mo191	Mo19	0.106790	0.560180	0.208330
O491	O49	0.103990	0.525670	0.188350
O501	O50	0.109280	0.584380	0.243060
O511	O51	0.068370	0.551960	0.217820
O521	O52	0.145580	0.556410	0.213630
Mo201	Mo20	0.056030	0.532740	0.247340
Mo211	Mo21	0.107310	0.566520	0.280850
Zn71	Zn7	0.078440	0.494820	0.191060
O531	O53	0.058770	0.502750	0.274880
O541	O54	0.070800	0.558000	0.273860
O551	O55	0.054790	0.493870	0.159060
C551	C55	0.066800	0.490700	0.137300
C561	C56	0.047800	0.488400	0.114200
O561	O56	0.092390	0.489740	0.134920
C571	C57	0.058300	0.482600	0.089700
C581	C58	0.022300	0.493700	0.117000
H311	H31	0.077000	0.479600	0.088400
C591	C59	0.041900	0.480900	0.065000
C601	C60	0.003500	0.490700	0.093600
H321	H32	0.015600	0.499500	0.133800
H331	H33	0.049600	0.477100	0.048100
C611	C61	0.013700	0.485100	0.068200
H341	H34	0.984700	0.492700	0.096100
C621	C62	0.996900	0.482200	0.043300
C631	C63	0.000300	0.459900	0.026500
H351	H35	0.014000	0.447200	0.030000
Mo221	Mo22	0.606790	0.060180	0.708330
O571	O57	0.603990	0.025670	0.688350
O581	O58	0.609280	0.084380	0.743060
O591	O59	0.568370	0.051960	0.717820
O601	O60	0.645580	0.056410	0.713630
Mo231	Mo23	0.556030	0.032740	0.747340
Mo241	Mo24	0.607310	0.066520	0.780850
Zn81	Zn8	0.578440	0.994820	0.691060
O611	O61	0.558770	0.002750	0.774880
O621	O62	0.570800	0.058000	0.773860
O631	O63	0.554790	0.993870	0.659060
C641	C64	0.566800	0.990700	0.637300
C651	C65	0.547800	0.988400	0.614200
O641	O64	0.592390	0.989740	0.634920
C661	C66	0.558300	0.982600	0.589700
C671	C67	0.522300	0.993700	0.617000
H361	H36	0.577000	0.979600	0.588400
C681	C68	0.541900	0.980900	0.565000
C691	C69	0.503500	0.990700	0.593600
H371	H37	0.515600	0.999500	0.633800
H381	H38	0.549600	0.977100	0.548100
C701	C70	0.513700	0.985100	0.568200
H391	H39	0.484700	0.992700	0.596100
C711	C71	0.496900	0.982200	0.543300
C721	C72	0.500300	0.959900	0.526500
H401	H40	0.514000	0.947200	0.530000
Mo251	Mo25	0.791670	0.606790	0.939820
O651	O65	0.811650	0.603990	0.974330
O661	O66	0.756940	0.609280	0.915620
O671	O67	0.782180	0.568370	0.948040
O681	O68	0.786370	0.645580	0.943590
Mo261	Mo26	0.752660	0.556030	0.967260
Mo271	Mo27	0.719150	0.607310	0.933480
Zn91	Zn9	0.808940	0.578440	0.005180
O691	O69	0.725120	0.558770	0.997250
O701	O70	0.726140	0.570800	0.942000
O711	O71	0.840940	0.554790	0.006130
C731	C73	0.862700	0.566800	0.009300
C741	C74	0.885800	0.547800	0.011600
O721	O72	0.865080	0.592390	0.010260
C751	C75	0.910300	0.558300	0.017400
C761	C76	0.883000	0.522300	0.006300
H411	H41	0.911600	0.577000	0.020400
C771	C77	0.935000	0.541900	0.019100
C781	C78	0.906400	0.503500	0.009300
H421	H42	0.866200	0.515600	0.000500
H431	H43	0.951900	0.549600	0.022900
C791	C79	0.931800	0.513700	0.014900
H441	H44	0.903900	0.484700	0.007300
C801	C80	0.956700	0.496900	0.017800
C811	C81	0.973500	0.500300	0.040100
H451	H45	0.970000	0.514000	0.052800
Mo281	Mo28	0.291670	0.106790	0.439820
O731	O73	0.311650	0.103990	0.474330
O741	O74	0.256940	0.109280	0.415620
O751	O75	0.282180	0.068370	0.448040
O761	O76	0.286370	0.145580	0.443590
Mo291	Mo29	0.252660	0.056030	0.467260
Mo301	Mo30	0.219150	0.107310	0.433480
Zn101	Zn10	0.308940	0.078440	0.505180
O771	O77	0.225120	0.058770	0.497250
O781	O78	0.226140	0.070800	0.442000
O791	O79	0.340940	0.054790	0.506130
C821	C82	0.362700	0.066800	0.509300
C831	C83	0.385800	0.047800	0.511600
O801	O80	0.365080	0.092390	0.510260
C841	C84	0.410300	0.058300	0.517400
C851	C85	0.383000	0.022300	0.506300
H461	H46	0.411600	0.077000	0.520400
C861	C86	0.435000	0.041900	0.519100
C871	C87	0.406400	0.003500	0.509300
H471	H47	0.366200	0.015600	0.500500
H481	H48	0.451900	0.049600	0.522900
C881	C88	0.431800	0.013700	0.514900
H491	H49	0.403900	0.984700	0.507300
C891	C89	0.456700	0.996900	0.517800
C901	C90	0.473500	0.000300	0.540100
H501	H50	0.470000	0.014000	0.552800
Mo311	Mo31	0.291670	0.893210	0.060180
O811	O81	0.311650	0.896010	0.025670
O821	O82	0.256940	0.890720	0.084380
O831	O83	0.282180	0.931630	0.051960
O841	O84	0.286370	0.854420	0.056410
Mo321	Mo32	0.252660	0.943970	0.032740
Mo331	Mo33	0.219150	0.892690	0.066520
Zn111	Zn11	0.308940	0.921560	0.994820
O851	O85	0.225120	0.941230	0.002750
O861	O86	0.226140	0.929200	0.058000
O871	O87	0.340940	0.945210	0.993870
C911	C91	0.362700	0.933200	0.990700
C921	C92	0.385800	0.952200	0.988400
O881	O88	0.365080	0.907610	0.989740
C931	C93	0.410300	0.941700	0.982600
C941	C94	0.383000	0.977700	0.993700
H511	H51	0.411600	0.923000	0.979600
C951	C95	0.435000	0.958100	0.980900
C961	C96	0.406400	0.996500	0.990700
H521	H52	0.366200	0.984400	0.999500
H531	H53	0.451900	0.950400	0.977100
C971	C97	0.431800	0.986300	0.985100
H541	H54	0.403900	0.015300	0.992700
C981	C98	0.456700	0.003100	0.982200
C991	C99	0.473500	0.999700	0.959900
H551	H55	0.470000	0.986000	0.947200
Mo341	Mo34	0.791670	0.393210	0.560180
O891	O89	0.811650	0.396010	0.525670
O901	O90	0.756940	0.390720	0.584380
O911	O91	0.782180	0.431630	0.551960
O921	O92	0.786370	0.354420	0.556410
Mo351	Mo35	0.752660	0.443970	0.532740
Mo361	Mo36	0.719150	0.392690	0.566520
Zn121	Zn12	0.808940	0.421560	0.494820
O931	O93	0.725120	0.441230	0.502750
O941	O94	0.726140	0.429200	0.558000
O951	O95	0.840940	0.445210	0.493870
C1001	C100	0.862700	0.433200	0.490700
C1011	C101	0.885800	0.452200	0.488400
O961	O96	0.865080	0.407610	0.489740
C1021	C102	0.910300	0.441700	0.482600
C1031	C103	0.883000	0.477700	0.493700
H561	H56	0.911600	0.423000	0.479600
C1041	C104	0.935000	0.458100	0.480900
C1051	C105	0.906400	0.496500	0.490700
H571	H57	0.866200	0.484400	0.499500
H581	H58	0.951900	0.450400	0.477100
C1061	C106	0.931800	0.486300	0.485100
H591	H59	0.903900	0.515300	0.492700
C1071	C107	0.956700	0.503100	0.482200
C1081	C108	0.973500	0.499700	0.459900
H601	H60	0.970000	0.486000	0.447200
Mo371	Mo37	0.708330	0.393210	0.439820
O971	O97	0.688350	0.396010	0.474330
O981	O98	0.743060	0.390720	0.415620
O991	O99	0.717820	0.431630	0.448040
O1001	O100	0.713630	0.354420	0.443590
Mo381	Mo38	0.747340	0.443970	0.467260
Mo391	Mo39	0.780850	0.392690	0.433480
Zn131	Zn13	0.691060	0.421560	0.505180
O1011	O101	0.774880	0.441230	0.497250
O1021	O102	0.773860	0.429200	0.442000
O1031	O103	0.659060	0.445210	0.506130
C1091	C109	0.637300	0.433200	0.509300
C1101	C110	0.614200	0.452200	0.511600
O1041	O104	0.634920	0.407610	0.510260
C1111	C111	0.589700	0.441700	0.517400
C1121	C112	0.617000	0.477700	0.506300
H611	H61	0.588400	0.423000	0.520400
C1131	C113	0.565000	0.458100	0.519100
C1141	C114	0.593600	0.496500	0.509300
H621	H62	0.633800	0.484400	0.500500
H631	H63	0.548100	0.450400	0.522900
C1151	C115	0.568200	0.486300	0.514900
H641	H64	0.596100	0.515300	0.507300
C1161	C116	0.543300	0.503100	0.517800
C1171	C117	0.526500	0.499700	0.540100
H651	H65	0.530000	0.486000	0.552800
Mo401	Mo40	0.208330	0.893210	0.939820
O1051	O105	0.188350	0.896010	0.974330
O1061	O106	0.243060	0.890720	0.915620
O1071	O107	0.217820	0.931630	0.948040
O1081	O108	0.213630	0.854420	0.943590
Mo411	Mo41	0.247340	0.943970	0.967260
Mo421	Mo42	0.280850	0.892690	0.933480
Zn141	Zn14	0.191060	0.921560	0.005180
O1091	O109	0.274880	0.941230	0.997250
O1101	O110	0.273860	0.929200	0.942000
O1111	O111	0.159060	0.945210	0.006130
C1181	C118	0.137300	0.933200	0.009300
C1191	C119	0.114200	0.952200	0.011600
O1121	O112	0.134920	0.907610	0.010260
C1201	C120	0.089700	0.941700	0.017400
C1211	C121	0.117000	0.977700	0.006300
H661	H66	0.088400	0.923000	0.020400
C1221	C122	0.065000	0.958100	0.019100
C1231	C123	0.093600	0.996500	0.009300
H671	H67	0.133800	0.984400	0.000500
H681	H68	0.048100	0.950400	0.022900
C1241	C124	0.068200	0.986300	0.014900
H691	H69	0.096100	0.015300	0.007300
C1251	C125	0.043300	0.003100	0.017800
C1261	C126	0.026500	0.999700	0.040100
H701	H70	0.030000	0.986000	0.052800
Mo431	Mo43	0.208330	0.106790	0.560180
O1131	O113	0.188350	0.103990	0.525670
O1141	O114	0.243060	0.109280	0.584380
O1151	O115	0.217820	0.068370	0.551960
O1161	O116	0.213630	0.145580	0.556410
Mo441	Mo44	0.247340	0.056030	0.532740
Mo451	Mo45	0.280850	0.107310	0.566520
Zn151	Zn15	0.191060	0.078440	0.494820
O1171	O117	0.274880	0.058770	0.502750
O1181	O118	0.273860	0.070800	0.558000
O1191	O119	0.159060	0.054790	0.493870
C1271	C127	0.137300	0.066800	0.490700
C1281	C128	0.114200	0.047800	0.488400
O1201	O120	0.134920	0.092390	0.489740
C1291	C129	0.089700	0.058300	0.482600
C1301	C130	0.117000	0.022300	0.493700
H711	H71	0.088400	0.077000	0.479600
C1311	C131	0.065000	0.041900	0.480900
C1321	C132	0.093600	0.003500	0.490700
H721	H72	0.133800	0.015600	0.499500
H731	H73	0.048100	0.049600	0.477100
C1331	C133	0.068200	0.013700	0.485100
H741	H74	0.096100	0.984700	0.492700
C1341	C134	0.043300	0.996900	0.482200
C1351	C135	0.026500	0.000300	0.459900
H751	H75	0.030000	0.014000	0.447200
Mo461	Mo46	0.708330	0.606790	0.060180
O1211	O121	0.688350	0.603990	0.025670
O1221	O122	0.743060	0.609280	0.084380
O1231	O123	0.717820	0.568370	0.051960
O1241	O124	0.713630	0.645580	0.056410
Mo471	Mo47	0.747340	0.556030	0.032740
Mo481	Mo48	0.780850	0.607310	0.066520
Zn161	Zn16	0.691060	0.578440	0.994820
O1251	O125	0.774880	0.558770	0.002750
O1261	O126	0.773860	0.570800	0.058000
O1271	O127	0.659060	0.554790	0.993870
C1361	C136	0.637300	0.566800	0.990700
C1371	C137	0.614200	0.547800	0.988400
O1281	O128	0.634920	0.592390	0.989740
C1381	C138	0.589700	0.558300	0.982600
C1391	C139	0.617000	0.522300	0.993700
H761	H76	0.588400	0.577000	0.979600
C1401	C140	0.565000	0.541900	0.980900
C1411	C141	0.593600	0.503500	0.990700
H771	H77	0.633800	0.515600	0.999500
H781	H78	0.548100	0.549600	0.977100
C1421	C142	0.568200	0.513700	0.985100
H791	H79	0.596100	0.484700	0.992700
C1431	C143	0.543300	0.496900	0.982200
C1441	C144	0.526500	0.500300	0.959900
H801	H80	0.530000	0.514000	0.947200
Mo491	Mo49	0.939820	0.791670	0.606790
O1291	O129	0.974330	0.811650	0.603990
O1301	O130	0.915620	0.756940	0.609280
O1311	O131	0.948040	0.782180	0.568370
O1321	O132	0.943590	0.786370	0.645580
Mo501	Mo50	0.967260	0.752660	0.556030
Mo511	Mo51	0.933480	0.719150	0.607310
Zn171	Zn17	0.005180	0.808940	0.578440
O1331	O133	0.997250	0.725120	0.558770
O1341	O134	0.942000	0.726140	0.570800
O1351	O135	0.006130	0.840940	0.554790
C1451	C145	0.009300	0.862700	0.566800
C1461	C146	0.011600	0.885800	0.547800
O1361	O136	0.010260	0.865080	0.592390
C1471	C147	0.017400	0.910300	0.558300
C1481	C148	0.006300	0.883000	0.522300
H811	H81	0.020400	0.911600	0.577000
C1491	C149	0.019100	0.935000	0.541900
C1501	C150	0.009300	0.906400	0.503500
H821	H82	0.000500	0.866200	0.515600
H831	H83	0.022900	0.951900	0.549600
C1511	C151	0.014900	0.931800	0.513700
H841	H84	0.007300	0.903900	0.484700
C1521	C152	0.017800	0.956700	0.496900
C1531	C153	0.040100	0.973500	0.500300
H851	H85	0.052800	0.970000	0.514000
Mo521	Mo52	0.439820	0.291670	0.106790
O1371	O137	0.474330	0.311650	0.103990
O1381	O138	0.415620	0.256940	0.109280
O1391	O139	0.448040	0.282180	0.068370
O1401	O140	0.443590	0.286370	0.145580
Mo531	Mo53	0.467260	0.252660	0.056030
Mo541	Mo54	0.433480	0.219150	0.107310
Zn181	Zn18	0.505180	0.308940	0.078440
O1411	O141	0.497250	0.225120	0.058770
O1421	O142	0.442000	0.226140	0.070800
O1431	O143	0.506130	0.340940	0.054790
C1541	C154	0.509300	0.362700	0.066800
C1551	C155	0.511600	0.385800	0.047800
O1441	O144	0.510260	0.365080	0.092390
C1561	C156	0.517400	0.410300	0.058300
C1571	C157	0.506300	0.383000	0.022300
H861	H86	0.520400	0.411600	0.077000
C1581	C158	0.519100	0.435000	0.041900
C1591	C159	0.509300	0.406400	0.003500
H871	H87	0.500500	0.366200	0.015600
H881	H88	0.522900	0.451900	0.049600
C1601	C160	0.514900	0.431800	0.013700
H891	H89	0.507300	0.403900	0.984700
C1611	C161	0.517800	0.456700	0.996900
C1621	C162	0.540100	0.473500	0.000300
H901	H90	0.552800	0.470000	0.014000
Mo551	Mo55	0.060180	0.291670	0.893210
O1451	O145	0.025670	0.311650	0.896010
O1461	O146	0.084380	0.256940	0.890720
O1471	O147	0.051960	0.282180	0.931630
O1481	O148	0.056410	0.286370	0.854420
Mo561	Mo56	0.032740	0.252660	0.943970
Mo571	Mo57	0.066520	0.219150	0.892690
Zn191	Zn19	0.994820	0.308940	0.921560
O1491	O149	0.002750	0.225120	0.941230
O1501	O150	0.058000	0.226140	0.929200
O1511	O151	0.993870	0.340940	0.945210
C1631	C163	0.990700	0.362700	0.933200
C1641	C164	0.988400	0.385800	0.952200
O1521	O152	0.989740	0.365080	0.907610
C1651	C165	0.982600	0.410300	0.941700
C1661	C166	0.993700	0.383000	0.977700
H911	H91	0.979600	0.411600	0.923000
C1671	C167	0.980900	0.435000	0.958100
C1681	C168	0.990700	0.406400	0.996500
H921	H92	0.999500	0.366200	0.984400
H931	H93	0.977100	0.451900	0.950400
C1691	C169	0.985100	0.431800	0.986300
H941	H94	0.992700	0.403900	0.015300
C1701	C170	0.982200	0.456700	0.003100
C1711	C171	0.959900	0.473500	0.999700
H951	H95	0.947200	0.470000	0.986000
Mo581	Mo58	0.560180	0.791670	0.393210
O1531	O153	0.525670	0.811650	0.396010
O1541	O154	0.584380	0.756940	0.390720
O1551	O155	0.551960	0.782180	0.431630
O1561	O156	0.556410	0.786370	0.354420
Mo591	Mo59	0.532740	0.752660	0.443970
Mo601	Mo60	0.566520	0.719150	0.392690
Zn201	Zn20	0.494820	0.808940	0.421560
O1571	O157	0.502750	0.725120	0.441230
O1581	O158	0.558000	0.726140	0.429200
O1591	O159	0.493870	0.840940	0.445210
C1721	C172	0.490700	0.862700	0.433200
C1731	C173	0.488400	0.885800	0.452200
O1601	O160	0.489740	0.865080	0.407610
C1741	C174	0.482600	0.910300	0.441700
C1751	C175	0.493700	0.883000	0.477700
H961	H96	0.479600	0.911600	0.423000
C1761	C176	0.480900	0.935000	0.458100
C1771	C177	0.490700	0.906400	0.496500
H971	H97	0.499500	0.866200	0.484400
H981	H98	0.477100	0.951900	0.450400
C1781	C178	0.485100	0.931800	0.486300
H991	H99	0.492700	0.903900	0.515300
C1791	C179	0.482200	0.956700	0.503100
C1801	C180	0.459900	0.973500	0.499700
H1001	H100	0.447200	0.970000	0.486000
Mo611	Mo61	0.439820	0.708330	0.393210
O1611	O161	0.474330	0.688350	0.396010
O1621	O162	0.415620	0.743060	0.390720
O1631	O163	0.448040	0.717820	0.431630
O1641	O164	0.443590	0.713630	0.354420
Mo621	Mo62	0.467260	0.747340	0.443970
Mo631	Mo63	0.433480	0.780850	0.392690
Zn211	Zn21	0.505180	0.691060	0.421560
O1651	O165	0.497250	0.774880	0.441230
O1661	O166	0.442000	0.773860	0.429200
O1671	O167	0.506130	0.659060	0.445210
C1811	C181	0.509300	0.637300	0.433200
C1821	C182	0.511600	0.614200	0.452200
O1681	O168	0.510260	0.634920	0.407610
C1831	C183	0.517400	0.589700	0.441700
C1841	C184	0.506300	0.617000	0.477700
H1011	H101	0.520400	0.588400	0.423000
C1851	C185	0.519100	0.565000	0.458100
C1861	C186	0.509300	0.593600	0.496500
H1021	H102	0.500500	0.633800	0.484400
H1031	H103	0.522900	0.548100	0.450400
C1871	C187	0.514900	0.568200	0.486300
H1041	H104	0.507300	0.596100	0.515300
C1881	C188	0.517800	0.543300	0.503100
C1891	C189	0.540100	0.526500	0.499700
H1051	H105	0.552800	0.530000	0.486000
Mo641	Mo64	0.939820	0.208330	0.893210
O1691	O169	0.974330	0.188350	0.896010
O1701	O170	0.915620	0.243060	0.890720
O1711	O171	0.948040	0.217820	0.931630
O1721	O172	0.943590	0.213630	0.854420
Mo651	Mo65	0.967260	0.247340	0.943970
Mo661	Mo66	0.933480	0.280850	0.892690
Zn221	Zn22	0.005180	0.191060	0.921560
O1731	O173	0.997250	0.274880	0.941230
O1741	O174	0.942000	0.273860	0.929200
O1751	O175	0.006130	0.159060	0.945210
C1901	C190	0.009300	0.137300	0.933200
C1911	C191	0.011600	0.114200	0.952200
O1761	O176	0.010260	0.134920	0.907610
C1921	C192	0.017400	0.089700	0.941700
C1931	C193	0.006300	0.117000	0.977700
H1061	H106	0.020400	0.088400	0.923000
C1941	C194	0.019100	0.065000	0.958100
C1951	C195	0.009300	0.093600	0.996500
H1071	H107	0.000500	0.133800	0.984400
H1081	H108	0.022900	0.048100	0.950400
C1961	C196	0.014900	0.068200	0.986300
H1091	H109	0.007300	0.096100	0.015300
C1971	C197	0.017800	0.043300	0.003100
C1981	C198	0.040100	0.026500	0.999700
H1101	H110	0.052800	0.030000	0.986000
Mo671	Mo67	0.560180	0.208330	0.106790
O1771	O177	0.525670	0.188350	0.103990
O1781	O178	0.584380	0.243060	0.109280
O1791	O179	0.551960	0.217820	0.068370
O1801	O180	0.556410	0.213630	0.145580
Mo681	Mo68	0.532740	0.247340	0.056030
Mo691	Mo69	0.566520	0.280850	0.107310
Zn231	Zn23	0.494820	0.191060	0.078440
O1811	O181	0.502750	0.274880	0.058770
O1821	O182	0.558000	0.273860	0.070800
O1831	O183	0.493870	0.159060	0.054790
C1991	C199	0.490700	0.137300	0.066800
C2001	C200	0.488400	0.114200	0.047800
O1841	O184	0.489740	0.134920	0.092390
C2011	C201	0.482600	0.089700	0.058300
C2021	C202	0.493700	0.117000	0.022300
H1111	H111	0.479600	0.088400	0.077000
C2031	C203	0.480900	0.065000	0.041900
C2041	C204	0.490700	0.093600	0.003500
H1121	H112	0.499500	0.133800	0.015600
H1131	H113	0.477100	0.048100	0.049600
C2051	C205	0.485100	0.068200	0.013700
H1141	H114	0.492700	0.096100	0.984700
C2061	C206	0.482200	0.043300	0.996900
C2071	C207	0.459900	0.026500	0.000300
H1151	H115	0.447200	0.030000	0.014000
Mo701	Mo70	0.060180	0.708330	0.606790
O1851	O185	0.025670	0.688350	0.603990
O1861	O186	0.084380	0.743060	0.609280
O1871	O187	0.051960	0.717820	0.568370
O1881	O188	0.056410	0.713630	0.645580
Mo711	Mo71	0.032740	0.747340	0.556030
Mo721	Mo72	0.066520	0.780850	0.607310
Zn241	Zn24	0.994820	0.691060	0.578440
O1891	O189	0.002750	0.774880	0.558770
O1901	O190	0.058000	0.773860	0.570800
O1911	O191	0.993870	0.659060	0.554790
C2081	C208	0.990700	0.637300	0.566800
C2091	C209	0.988400	0.614200	0.547800
O1921	O192	0.989740	0.634920	0.592390
C2101	C210	0.982600	0.589700	0.558300
C2111	C211	0.993700	0.617000	0.522300
H1161	H116	0.979600	0.588400	0.577000
C2121	C212	0.980900	0.565000	0.541900
C2131	C213	0.990700	0.593600	0.503500
H1171	H117	0.999500	0.633800	0.515600
H1181	H118	0.977100	0.548100	0.549600
C2141	C214	0.985100	0.568200	0.513700
H1191	H119	0.992700	0.596100	0.484700
C2151	C215	0.982200	0.543300	0.496900
C2161	C216	0.959900	0.526500	0.500300
H1201	H120	0.947200	0.530000	0.514000
Mo731	Mo73	0.310180	0.143210	0.541670
O1931	O193	0.275670	0.146010	0.561650
O1941	O194	0.334380	0.140720	0.506940
O1951	O195	0.301960	0.181630	0.532180
O1961	O196	0.306410	0.104420	0.536370
Mo741	Mo74	0.282740	0.193970	0.502660
Mo751	Mo75	0.316520	0.142690	0.469150
Zn251	Zn25	0.244820	0.171560	0.558940
O1971	O197	0.252750	0.191230	0.475120
O1981	O198	0.308000	0.179200	0.476140
O1991	O199	0.243870	0.195210	0.590940
C2171	C217	0.240700	0.183200	0.612700
C2181	C218	0.238400	0.202200	0.635800
O2001	O200	0.239740	0.157610	0.615080
C2191	C219	0.232600	0.191700	0.660300
C2201	C220	0.243700	0.227700	0.633000
H1211	H121	0.229600	0.173000	0.661600
C2211	C221	0.230900	0.208100	0.685000
C2221	C222	0.240700	0.246500	0.656400
H1221	H122	0.249500	0.234400	0.616200
H1231	H123	0.227100	0.200400	0.701900
C2231	C223	0.235100	0.236300	0.681800
H1241	H124	0.242700	0.265300	0.653900
C2241	C224	0.232200	0.253100	0.706700
C2251	C225	0.209900	0.249700	0.723500
H1251	H125	0.197200	0.236000	0.720000
Mo761	Mo76	0.810180	0.643210	0.041670
O2011	O201	0.775670	0.646010	0.061650
O2021	O202	0.834380	0.640720	0.006940
O2031	O203	0.801960	0.681630	0.032180
O2041	O204	0.806410	0.604420	0.036370
Mo771	Mo77	0.782740	0.693970	0.002660
Mo781	Mo78	0.816520	0.642690	0.969150
Zn261	Zn26	0.744820	0.671560	0.058940
O2051	O205	0.752750	0.691230	0.975120
O2061	O206	0.808000	0.679200	0.976140
O2071	O207	0.743870	0.695210	0.090940
C2261	C226	0.740700	0.683200	0.112700
C2271	C227	0.738400	0.702200	0.135800
O2081	O208	0.739740	0.657610	0.115080
C2281	C228	0.732600	0.691700	0.160300
C2291	C229	0.743700	0.727700	0.133000
H1261	H126	0.729600	0.673000	0.161600
C2301	C230	0.730900	0.708100	0.185000
C2311	C231	0.740700	0.746500	0.156400
H1271	H127	0.749500	0.734400	0.116200
H1281	H128	0.727100	0.700400	0.201900
C2321	C232	0.735100	0.736300	0.181800
H1291	H129	0.742700	0.765300	0.153900
C2331	C233	0.732200	0.753100	0.206700
C2341	C234	0.709900	0.749700	0.223500
H1301	H130	0.697200	0.736000	0.220000
Mo791	Mo79	0.189820	0.856790	0.041670
O2091	O209	0.224330	0.853990	0.061650
O2101	O210	0.165620	0.859280	0.006940
O2111	O211	0.198040	0.818370	0.032180
O2121	O212	0.193590	0.895580	0.036370
Mo801	Mo80	0.217260	0.806030	0.002660
Mo811	Mo81	0.183480	0.857310	0.969150
Zn271	Zn27	0.255180	0.828440	0.058940
O2131	O213	0.247250	0.808770	0.975120
O2141	O214	0.192000	0.820800	0.976140
O2151	O215	0.256130	0.804790	0.090940
C2351	C235	0.259300	0.816800	0.112700
C2361	C236	0.261600	0.797800	0.135800
O2161	O216	0.260260	0.842390	0.115080
C2371	C237	0.267400	0.808300	0.160300
C2381	C238	0.256300	0.772300	0.133000
H1311	H131	0.270400	0.827000	0.161600
C2391	C239	0.269100	0.791900	0.185000
C2401	C240	0.259300	0.753500	0.156400
H1321	H132	0.250500	0.765600	0.116200
H1331	H133	0.272900	0.799600	0.201900
C2411	C241	0.264900	0.763700	0.181800
H1341	H134	0.257300	0.734700	0.153900
C2421	C242	0.267800	0.746900	0.206700
C2431	C243	0.290100	0.750300	0.223500
H1351	H135	0.302800	0.764000	0.220000
Mo821	Mo82	0.689820	0.356790	0.541670
O2171	O217	0.724330	0.353990	0.561650
O2181	O218	0.665620	0.359280	0.506940
O2191	O219	0.698040	0.318370	0.532180
O2201	O220	0.693590	0.395580	0.536370
Mo831	Mo83	0.717260	0.306030	0.502660
Mo841	Mo84	0.683480	0.357310	0.469150
Zn281	Zn28	0.755180	0.328440	0.558940
O2211	O221	0.747250	0.308770	0.475120
O2221	O222	0.692000	0.320800	0.476140
O2231	O223	0.756130	0.304790	0.590940
C2441	C244	0.759300	0.316800	0.612700
C2451	C245	0.761600	0.297800	0.635800
O2241	O224	0.760260	0.342390	0.615080
C2461	C246	0.767400	0.308300	0.660300
C2471	C247	0.756300	0.272300	0.633000
H1361	H136	0.770400	0.327000	0.661600
C2481	C248	0.769100	0.291900	0.685000
C2491	C249	0.759300	0.253500	0.656400
H1371	H137	0.750500	0.265600	0.616200
H1381	H138	0.772900	0.299600	0.701900
C2501	C250	0.764900	0.263700	0.681800
H1391	H139	0.757300	0.234700	0.653900
C2511	C251	0.767800	0.246900	0.706700
C2521	C252	0.790100	0.250300	0.723500
H1401	H140	0.802800	0.264000	0.720000
Mo851	Mo85	0.810180	0.356790	0.458330
O2251	O225	0.775670	0.353990	0.438350
O2261	O226	0.834380	0.359280	0.493060
O2271	O227	0.801960	0.318370	0.467820
O2281	O228	0.806410	0.395580	0.463630
Mo861	Mo86	0.782740	0.306030	0.497340
Mo871	Mo87	0.816520	0.357310	0.530850
Zn291	Zn29	0.744820	0.328440	0.441060
O2291	O229	0.752750	0.308770	0.524880
O2301	O230	0.808000	0.320800	0.523860
O2311	O231	0.743870	0.304790	0.409060
C2531	C253	0.740700	0.316800	0.387300
C2541	C254	0.738400	0.297800	0.364200
O2321	O232	0.739740	0.342390	0.384920
C2551	C255	0.732600	0.308300	0.339700
C2561	C256	0.743700	0.272300	0.367000
H1411	H141	0.729600	0.327000	0.338400
C2571	C257	0.730900	0.291900	0.315000
C2581	C258	0.740700	0.253500	0.343600
H1421	H142	0.749500	0.265600	0.383800
H1431	H143	0.727100	0.299600	0.298100
C2591	C259	0.735100	0.263700	0.318200
H1441	H144	0.742700	0.234700	0.346100
C2601	C260	0.732200	0.246900	0.293300
C2611	C261	0.709900	0.250300	0.276500
H1451	H145	0.697200	0.264000	0.280000
Mo881	Mo88	0.310180	0.856790	0.958330
O2331	O233	0.275670	0.853990	0.938350
O2341	O234	0.334380	0.859280	0.993060
O2351	O235	0.301960	0.818370	0.967820
O2361	O236	0.306410	0.895580	0.963630
Mo891	Mo89	0.282740	0.806030	0.997340
Mo901	Mo90	0.316520	0.857310	0.030850
Zn301	Zn30	0.244820	0.828440	0.941060
O2371	O237	0.252750	0.808770	0.024880
O2381	O238	0.308000	0.820800	0.023860
O2391	O239	0.243870	0.804790	0.909060
C2621	C262	0.240700	0.816800	0.887300
C2631	C263	0.238400	0.797800	0.864200
O2401	O240	0.239740	0.842390	0.884920
C2641	C264	0.232600	0.808300	0.839700
C2651	C265	0.243700	0.772300	0.867000
H1461	H146	0.229600	0.827000	0.838400
C2661	C266	0.230900	0.791900	0.815000
C2671	C267	0.240700	0.753500	0.843600
H1471	H147	0.249500	0.765600	0.883800
H1481	H148	0.227100	0.799600	0.798100
C2681	C268	0.235100	0.763700	0.818200
H1491	H149	0.242700	0.734700	0.846100
C2691	C269	0.232200	0.746900	0.793300
C2701	C270	0.209900	0.750300	0.776500
H1501	H150	0.197200	0.764000	0.780000
Mo911	Mo91	0.689820	0.643210	0.958330
O2411	O241	0.724330	0.646010	0.938350
O2421	O242	0.665620	0.640720	0.993060
O2431	O243	0.698040	0.681630	0.967820
O2441	O244	0.693590	0.604420	0.963630
Mo921	Mo92	0.717260	0.693970	0.997340
Mo931	Mo93	0.683480	0.642690	0.030850
Zn311	Zn31	0.755180	0.671560	0.941060
O2451	O245	0.747250	0.691230	0.024880
O2461	O246	0.692000	0.679200	0.023860
O2471	O247	0.756130	0.695210	0.909060
C2711	C271	0.759300	0.683200	0.887300
C2721	C272	0.761600	0.702200	0.864200
O2481	O248	0.760260	0.657610	0.884920
C2731	C273	0.767400	0.691700	0.839700
C2741	C274	0.756300	0.727700	0.867000
H1511	H151	0.770400	0.673000	0.838400
C2751	C275	0.769100	0.708100	0.815000
C2761	C276	0.759300	0.746500	0.843600
H1521	H152	0.750500	0.734400	0.883800
H1531	H153	0.772900	0.700400	0.798100
C2771	C277	0.764900	0.736300	0.818200
H1541	H154	0.757300	0.765300	0.846100
C2781	C278	0.767800	0.753100	0.793300
C2791	C279	0.790100	0.749700	0.776500
H1551	H155	0.802800	0.736000	0.780000
Mo941	Mo94	0.189820	0.143210	0.458330
O2491	O249	0.224330	0.146010	0.438350
O2501	O250	0.165620	0.140720	0.493060
O2511	O251	0.198040	0.181630	0.467820
O2521	O252	0.193590	0.104420	0.463630
Mo951	Mo95	0.217260	0.193970	0.497340
Mo961	Mo96	0.183480	0.142690	0.530850
Zn321	Zn32	0.255180	0.171560	0.441060
O2531	O253	0.247250	0.191230	0.524880
O2541	O254	0.192000	0.179200	0.523860
O2551	O255	0.256130	0.195210	0.409060
C2801	C280	0.259300	0.183200	0.387300
C2811	C281	0.261600	0.202200	0.364200
O2561	O256	0.260260	0.157610	0.384920
C2821	C282	0.267400	0.191700	0.339700
C2831	C283	0.256300	0.227700	0.367000
H1561	H156	0.270400	0.173000	0.338400
C2841	C284	0.269100	0.208100	0.315000
C2851	C285	0.259300	0.246500	0.343600
H1571	H157	0.250500	0.234400	0.383800
H1581	H158	0.272900	0.200400	0.298100
C2861	C286	0.264900	0.236300	0.318200
H1591	H159	0.257300	0.265300	0.346100
C2871	C287	0.267800	0.253100	0.293300
C2881	C288	0.290100	0.249700	0.276500
H1601	H160	0.302800	0.236000	0.280000
Mo971	Mo97	0.643210	0.958330	0.689820
O2571	O257	0.646010	0.938350	0.724330
O2581	O258	0.640720	0.993060	0.665620
O2591	O259	0.681630	0.967820	0.698040
O2601	O260	0.604420	0.963630	0.693590
Mo981	Mo98	0.693970	0.997340	0.717260
Mo991	Mo99	0.642690	0.030850	0.683480
Zn331	Zn33	0.671560	0.941060	0.755180
O2611	O261	0.691230	0.024880	0.747250
O2621	O262	0.679200	0.023860	0.692000
O2631	O263	0.695210	0.909060	0.756130
C2891	C289	0.683200	0.887300	0.759300
C2901	C290	0.702200	0.864200	0.761600
O2641	O264	0.657610	0.884920	0.760260
C2911	C291	0.691700	0.839700	0.767400
C2921	C292	0.727700	0.867000	0.756300
H1611	H161	0.673000	0.838400	0.770400
C2931	C293	0.708100	0.815000	0.769100
C2941	C294	0.746500	0.843600	0.759300
H1621	H162	0.734400	0.883800	0.750500
H1631	H163	0.700400	0.798100	0.772900
C2951	C295	0.736300	0.818200	0.764900
H1641	H164	0.765300	0.846100	0.757300
C2961	C296	0.753100	0.793300	0.767800
C2971	C297	0.749700	0.776500	0.790100
H1651	H165	0.736000	0.780000	0.802800
Mo1001	Mo100	0.143210	0.458330	0.189820
O2651	O265	0.146010	0.438350	0.224330
O2661	O266	0.140720	0.493060	0.165620
O2671	O267	0.181630	0.467820	0.198040
O2681	O268	0.104420	0.463630	0.193590
Mo1011	Mo101	0.193970	0.497340	0.217260
Mo1021	Mo102	0.142690	0.530850	0.183480
Zn341	Zn34	0.171560	0.441060	0.255180
O2691	O269	0.191230	0.524880	0.247250
O2701	O270	0.179200	0.523860	0.192000
O2711	O271	0.195210	0.409060	0.256130
C2981	C298	0.183200	0.387300	0.259300
C2991	C299	0.202200	0.364200	0.261600
O2721	O272	0.157610	0.384920	0.260260
C3001	C300	0.191700	0.339700	0.267400
C3011	C301	0.227700	0.367000	0.256300
H1661	H166	0.173000	0.338400	0.270400
C3021	C302	0.208100	0.315000	0.269100
C3031	C303	0.246500	0.343600	0.259300
H1671	H167	0.234400	0.383800	0.250500
H1681	H168	0.200400	0.298100	0.272900
C3041	C304	0.236300	0.318200	0.264900
H1691	H169	0.265300	0.346100	0.257300
C3051	C305	0.253100	0.293300	0.267800
C3061	C306	0.249700	0.276500	0.290100
H1701	H170	0.236000	0.280000	0.302800
Mo1031	Mo103	0.356790	0.458330	0.810180
O2731	O273	0.353990	0.438350	0.775670
O2741	O274	0.359280	0.493060	0.834380
O2751	O275	0.318370	0.467820	0.801960
O2761	O276	0.395580	0.463630	0.806410
Mo1041	Mo104	0.306030	0.497340	0.782740
Mo1051	Mo105	0.357310	0.530850	0.816520
Zn351	Zn35	0.328440	0.441060	0.744820
O2771	O277	0.308770	0.524880	0.752750
O2781	O278	0.320800	0.523860	0.808000
O2791	O279	0.304790	0.409060	0.743870
C3071	C307	0.316800	0.387300	0.740700
C3081	C308	0.297800	0.364200	0.738400
O2801	O280	0.342390	0.384920	0.739740
C3091	C309	0.308300	0.339700	0.732600
C3101	C310	0.272300	0.367000	0.743700
H1711	H171	0.327000	0.338400	0.729600
C3111	C311	0.291900	0.315000	0.730900
C3121	C312	0.253500	0.343600	0.740700
H1721	H172	0.265600	0.383800	0.749500
H1731	H173	0.299600	0.298100	0.727100
C3131	C313	0.263700	0.318200	0.735100
H1741	H174	0.234700	0.346100	0.742700
C3141	C314	0.246900	0.293300	0.732200
C3151	C315	0.250300	0.276500	0.709900
H1751	H175	0.264000	0.280000	0.697200
Mo1061	Mo106	0.856790	0.958330	0.310180
O2811	O281	0.853990	0.938350	0.275670
O2821	O282	0.859280	0.993060	0.334380
O2831	O283	0.818370	0.967820	0.301960
O2841	O284	0.895580	0.963630	0.306410
Mo1071	Mo107	0.806030	0.997340	0.282740
Mo1081	Mo108	0.857310	0.030850	0.316520
Zn361	Zn36	0.828440	0.941060	0.244820
O2851	O285	0.808770	0.024880	0.252750
O2861	O286	0.820800	0.023860	0.308000
O2871	O287	0.804790	0.909060	0.243870
C3161	C316	0.816800	0.887300	0.240700
C3171	C317	0.797800	0.864200	0.238400
O2881	O288	0.842390	0.884920	0.239740
C3181	C318	0.808300	0.839700	0.232600
C3191	C319	0.772300	0.867000	0.243700
H1761	H176	0.827000	0.838400	0.229600
C3201	C320	0.791900	0.815000	0.230900
C3211	C321	0.753500	0.843600	0.240700
H1771	H177	0.765600	0.883800	0.249500
H1781	H178	0.799600	0.798100	0.227100
C3221	C322	0.763700	0.818200	0.235100
H1791	H179	0.734700	0.846100	0.242700
C3231	C323	0.746900	0.793300	0.232200
C3241	C324	0.750300	0.776500	0.209900
H1801	H180	0.764000	0.780000	0.197200
Mo1091	Mo109	0.856790	0.041670	0.189820
O2891	O289	0.853990	0.061650	0.224330
O2901	O290	0.859280	0.006940	0.165620
O2911	O291	0.818370	0.032180	0.198040
O2921	O292	0.895580	0.036370	0.193590
Mo1101	Mo110	0.806030	0.002660	0.217260
Mo1111	Mo111	0.857310	0.969150	0.183480
Zn371	Zn37	0.828440	0.058940	0.255180
O2931	O293	0.808770	0.975120	0.247250
O2941	O294	0.820800	0.976140	0.192000
O2951	O295	0.804790	0.090940	0.256130
C3251	C325	0.816800	0.112700	0.259300
C3261	C326	0.797800	0.135800	0.261600
O2961	O296	0.842390	0.115080	0.260260
C3271	C327	0.808300	0.160300	0.267400
C3281	C328	0.772300	0.133000	0.256300
H1811	H181	0.827000	0.161600	0.270400
C3291	C329	0.791900	0.185000	0.269100
C3301	C330	0.753500	0.156400	0.259300
H1821	H182	0.765600	0.116200	0.250500
H1831	H183	0.799600	0.201900	0.272900
C3311	C331	0.763700	0.181800	0.264900
H1841	H184	0.734700	0.153900	0.257300
C3321	C332	0.746900	0.206700	0.267800
C3331	C333	0.750300	0.223500	0.290100
H1851	H185	0.764000	0.220000	0.302800
Mo1121	Mo112	0.356790	0.541670	0.689820
O2971	O297	0.353990	0.561650	0.724330
O2981	O298	0.359280	0.506940	0.665620
O2991	O299	0.318370	0.532180	0.698040
O3001	O300	0.395580	0.536370	0.693590
Mo1131	Mo113	0.306030	0.502660	0.717260
Mo1141	Mo114	0.357310	0.469150	0.683480
Zn381	Zn38	0.328440	0.558940	0.755180
O3011	O301	0.308770	0.475120	0.747250
O3021	O302	0.320800	0.476140	0.692000
O3031	O303	0.304790	0.590940	0.756130
C3341	C334	0.316800	0.612700	0.759300
C3351	C335	0.297800	0.635800	0.761600
O3041	O304	0.342390	0.615080	0.760260
C3361	C336	0.308300	0.660300	0.767400
C3371	C337	0.272300	0.633000	0.756300
H1861	H186	0.327000	0.661600	0.770400
C3381	C338	0.291900	0.685000	0.769100
C3391	C339	0.253500	0.656400	0.759300
H1871	H187	0.265600	0.616200	0.750500
H1881	H188	0.299600	0.701900	0.772900
C3401	C340	0.263700	0.681800	0.764900
H1891	H189	0.234700	0.653900	0.757300
C3411	C341	0.246900	0.706700	0.767800
C3421	C342	0.250300	0.723500	0.790100
H1901	H190	0.264000	0.720000	0.802800
Mo1151	Mo115	0.143210	0.541670	0.310180
O3051	O305	0.146010	0.561650	0.275670
O3061	O306	0.140720	0.506940	0.334380
O3071	O307	0.181630	0.532180	0.301960
O3081	O308	0.104420	0.536370	0.306410
Mo1161	Mo116	0.193970	0.502660	0.282740
Mo1171	Mo117	0.142690	0.469150	0.316520
Zn391	Zn39	0.171560	0.558940	0.244820
O3091	O309	0.191230	0.475120	0.252750
O3101	O310	0.179200	0.476140	0.308000
O3111	O311	0.195210	0.590940	0.243870
C3431	C343	0.183200	0.612700	0.240700
C3441	C344	0.202200	0.635800	0.238400
O3121	O312	0.157610	0.615080	0.239740
C3451	C345	0.191700	0.660300	0.232600
C3461	C346	0.227700	0.633000	0.243700
H1911	H191	0.173000	0.661600	0.229600
C3471	C347	0.208100	0.685000	0.230900
C3481	C348	0.246500	0.656400	0.240700
H1921	H192	0.234400	0.616200	0.249500
H1931	H193	0.200400	0.701900	0.227100
C3491	C349	0.236300	0.681800	0.235100
H1941	H194	0.265300	0.653900	0.242700
C3501	C350	0.253100	0.706700	0.232200
C3511	C351	0.249700	0.723500	0.209900
H1951	H195	0.236000	0.720000	0.197200
Mo1181	Mo118	0.643210	0.041670	0.810180
O3131	O313	0.646010	0.061650	0.775670
O3141	O314	0.640720	0.006940	0.834380
O3151	O315	0.681630	0.032180	0.801960
O3161	O316	0.604420	0.036370	0.806410
Mo1191	Mo119	0.693970	0.002660	0.782740
Mo1201	Mo120	0.642690	0.969150	0.816520
Zn401	Zn40	0.671560	0.058940	0.744820
O3171	O317	0.691230	0.975120	0.752750
O3181	O318	0.679200	0.976140	0.808000
O3191	O319	0.695210	0.090940	0.743870
C3521	C352	0.683200	0.112700	0.740700
C3531	C353	0.702200	0.135800	0.738400
O3201	O320	0.657610	0.115080	0.739740
C3541	C354	0.691700	0.160300	0.732600
C3551	C355	0.727700	0.133000	0.743700
H1961	H196	0.673000	0.161600	0.729600
C3561	C356	0.708100	0.185000	0.730900
C3571	C357	0.746500	0.156400	0.740700
H1971	H197	0.734400	0.116200	0.749500
H1981	H198	0.700400	0.201900	0.727100
C3581	C358	0.736300	0.181800	0.735100
H1991	H199	0.765300	0.153900	0.742700
C3591	C359	0.753100	0.206700	0.732200
C3601	C360	0.749700	0.223500	0.709900
H2001	H200	0.736000	0.220000	0.697200
Mo1211	Mo121	0.458330	0.810180	0.356790
O3211	O321	0.438350	0.775670	0.353990
O3221	O322	0.493060	0.834380	0.359280
O3231	O323	0.467820	0.801960	0.318370
O3241	O324	0.463630	0.806410	0.395580
Mo1221	Mo122	0.497340	0.782740	0.306030
Mo1231	Mo123	0.530850	0.816520	0.357310
Zn411	Zn41	0.441060	0.744820	0.328440
O3251	O325	0.524880	0.752750	0.308770
O3261	O326	0.523860	0.808000	0.320800
O3271	O327	0.409060	0.743870	0.304790
C3611	C361	0.387300	0.740700	0.316800
C3621	C362	0.364200	0.738400	0.297800
O3281	O328	0.384920	0.739740	0.342390
C3631	C363	0.339700	0.732600	0.308300
C3641	C364	0.367000	0.743700	0.272300
H2011	H201	0.338400	0.729600	0.327000
C3651	C365	0.315000	0.730900	0.291900
C3661	C366	0.343600	0.740700	0.253500
H2021	H202	0.383800	0.749500	0.265600
H2031	H203	0.298100	0.727100	0.299600
C3671	C367	0.318200	0.735100	0.263700
H2041	H204	0.346100	0.742700	0.234700
C3681	C368	0.293300	0.732200	0.246900
C3691	C369	0.276500	0.709900	0.250300
H2051	H205	0.280000	0.697200	0.264000
Mo1241	Mo124	0.958330	0.310180	0.856790
O3291	O329	0.938350	0.275670	0.853990
O3301	O330	0.993060	0.334380	0.859280
O3311	O331	0.967820	0.301960	0.818370
O3321	O332	0.963630	0.306410	0.895580
Mo1251	Mo125	0.997340	0.282740	0.806030
Mo1261	Mo126	0.030850	0.316520	0.857310
Zn421	Zn42	0.941060	0.244820	0.828440
O3331	O333	0.024880	0.252750	0.808770
O3341	O334	0.023860	0.308000	0.820800
O3351	O335	0.909060	0.243870	0.804790
C3701	C370	0.887300	0.240700	0.816800
C3711	C371	0.864200	0.238400	0.797800
O3361	O336	0.884920	0.239740	0.842390
C3721	C372	0.839700	0.232600	0.808300
C3731	C373	0.867000	0.243700	0.772300
H2061	H206	0.838400	0.229600	0.827000
C3741	C374	0.815000	0.230900	0.791900
C3751	C375	0.843600	0.240700	0.753500
H2071	H207	0.883800	0.249500	0.765600
H2081	H208	0.798100	0.227100	0.799600
C3761	C376	0.818200	0.235100	0.763700
H2091	H209	0.846100	0.242700	0.734700
C3771	C377	0.793300	0.232200	0.746900
C3781	C378	0.776500	0.209900	0.750300
H2101	H210	0.780000	0.197200	0.764000
Mo1271	Mo127	0.958330	0.689820	0.643210
O3371	O337	0.938350	0.724330	0.646010
O3381	O338	0.993060	0.665620	0.640720
O3391	O339	0.967820	0.698040	0.681630
O3401	O340	0.963630	0.693590	0.604420
Mo1281	Mo128	0.997340	0.717260	0.693970
Mo1291	Mo129	0.030850	0.683480	0.642690
Zn431	Zn43	0.941060	0.755180	0.671560
O3411	O341	0.024880	0.747250	0.691230
O3421	O342	0.023860	0.692000	0.679200
O3431	O343	0.909060	0.756130	0.695210
C3791	C379	0.887300	0.759300	0.683200
C3801	C380	0.864200	0.761600	0.702200
O3441	O344	0.884920	0.760260	0.657610
C3811	C381	0.839700	0.767400	0.691700
C3821	C382	0.867000	0.756300	0.727700
H2111	H211	0.838400	0.770400	0.673000
C3831	C383	0.815000	0.769100	0.708100
C3841	C384	0.843600	0.759300	0.746500
H2121	H212	0.883800	0.750500	0.734400
H2131	H213	0.798100	0.772900	0.700400
C3851	C385	0.818200	0.764900	0.736300
H2141	H214	0.846100	0.757300	0.765300
C3861	C386	0.793300	0.767800	0.753100
C3871	C387	0.776500	0.790100	0.749700
H2151	H215	0.780000	0.802800	0.736000
Mo1301	Mo130	0.458330	0.189820	0.143210
O3451	O345	0.438350	0.224330	0.146010
O3461	O346	0.493060	0.165620	0.140720
O3471	O347	0.467820	0.198040	0.181630
O3481	O348	0.463630	0.193590	0.104420
Mo1311	Mo131	0.497340	0.217260	0.193970
Mo1321	Mo132	0.530850	0.183480	0.142690
Zn441	Zn44	0.441060	0.255180	0.171560
O3491	O349	0.524880	0.247250	0.191230
O3501	O350	0.523860	0.192000	0.179200
O3511	O351	0.409060	0.256130	0.195210
C3881	C388	0.387300	0.259300	0.183200
C3891	C389	0.364200	0.261600	0.202200
O3521	O352	0.384920	0.260260	0.157610
C3901	C390	0.339700	0.267400	0.191700
C3911	C391	0.367000	0.256300	0.227700
H2161	H216	0.338400	0.270400	0.173000
C3921	C392	0.315000	0.269100	0.208100
C3931	C393	0.343600	0.259300	0.246500
H2171	H217	0.383800	0.250500	0.234400
H2181	H218	0.298100	0.272900	0.200400
C3941	C394	0.318200	0.264900	0.236300
H2191	H219	0.346100	0.257300	0.265300
C3951	C395	0.293300	0.267800	0.253100
C3961	C396	0.276500	0.290100	0.249700
H2201	H220	0.280000	0.302800	0.236000
Mo1331	Mo133	0.541670	0.310180	0.143210
O3531	O353	0.561650	0.275670	0.146010
O3541	O354	0.506940	0.334380	0.140720
O3551	O355	0.532180	0.301960	0.181630
O3561	O356	0.536370	0.306410	0.104420
Mo1341	Mo134	0.502660	0.282740	0.193970
Mo1351	Mo135	0.469150	0.316520	0.142690
Zn451	Zn45	0.558940	0.244820	0.171560
O3571	O357	0.475120	0.252750	0.191230
O3581	O358	0.476140	0.308000	0.179200
O3591	O359	0.590940	0.243870	0.195210
C3971	C397	0.612700	0.240700	0.183200
C3981	C398	0.635800	0.238400	0.202200
O3601	O360	0.615080	0.239740	0.157610
C3991	C399	0.660300	0.232600	0.191700
C4001	C400	0.633000	0.243700	0.227700
H2211	H221	0.661600	0.229600	0.173000
C4011	C401	0.685000	0.230900	0.208100
C4021	C402	0.656400	0.240700	0.246500
H2221	H222	0.616200	0.249500	0.234400
H2231	H223	0.701900	0.227100	0.200400
C4031	C403	0.681800	0.235100	0.236300
H2241	H224	0.653900	0.242700	0.265300
C4041	C404	0.706700	0.232200	0.253100
C4051	C405	0.723500	0.209900	0.249700
H2251	H225	0.720000	0.197200	0.236000
Mo1361	Mo136	0.041670	0.810180	0.643210
O3611	O361	0.061650	0.775670	0.646010
O3621	O362	0.006940	0.834380	0.640720
O3631	O363	0.032180	0.801960	0.681630
O3641	O364	0.036370	0.806410	0.604420
Mo1371	Mo137	0.002660	0.782740	0.693970
Mo1381	Mo138	0.969150	0.816520	0.642690
Zn461	Zn46	0.058940	0.744820	0.671560
O3651	O365	0.975120	0.752750	0.691230
O3661	O366	0.976140	0.808000	0.679200
O3671	O367	0.090940	0.743870	0.695210
C4061	C406	0.112700	0.740700	0.683200
C4071	C407	0.135800	0.738400	0.702200
O3681	O368	0.115080	0.739740	0.657610
C4081	C408	0.160300	0.732600	0.691700
C4091	C409	0.133000	0.743700	0.727700
H2261	H226	0.161600	0.729600	0.673000
C4101	C410	0.185000	0.730900	0.708100
C4111	C411	0.156400	0.740700	0.746500
H2271	H227	0.116200	0.749500	0.734400
H2281	H228	0.201900	0.727100	0.700400
C4121	C412	0.181800	0.735100	0.736300
H2291	H229	0.153900	0.742700	0.765300
C4131	C413	0.206700	0.732200	0.753100
C4141	C414	0.223500	0.709900	0.749700
H2301	H230	0.220000	0.697200	0.736000
Mo1391	Mo139	0.041670	0.189820	0.856790
O3691	O369	0.061650	0.224330	0.853990
O3701	O370	0.006940	0.165620	0.859280
O3711	O371	0.032180	0.198040	0.818370
O3721	O372	0.036370	0.193590	0.895580
Mo1401	Mo140	0.002660	0.217260	0.806030
Mo1411	Mo141	0.969150	0.183480	0.857310
Zn471	Zn47	0.058940	0.255180	0.828440
O3731	O373	0.975120	0.247250	0.808770
O3741	O374	0.976140	0.192000	0.820800
O3751	O375	0.090940	0.256130	0.804790
C4151	C415	0.112700	0.259300	0.816800
C4161	C416	0.135800	0.261600	0.797800
O3761	O376	0.115080	0.260260	0.842390
C4171	C417	0.160300	0.267400	0.808300
C4181	C418	0.133000	0.256300	0.772300
H2311	H231	0.161600	0.270400	0.827000
C4191	C419	0.185000	0.269100	0.791900
C4201	C420	0.156400	0.259300	0.753500
H2321	H232	0.116200	0.250500	0.765600
H2331	H233	0.201900	0.272900	0.799600
C4211	C421	0.181800	0.264900	0.763700
H2341	H234	0.153900	0.257300	0.734700
C4221	C422	0.206700	0.267800	0.746900
C4231	C423	0.223500	0.290100	0.750300
H2351	H235	0.220000	0.302800	0.764000
Mo1421	Mo142	0.541670	0.689820	0.356790
O3771	O377	0.561650	0.724330	0.353990
O3781	O378	0.506940	0.665620	0.359280
O3791	O379	0.532180	0.698040	0.318370
O3801	O380	0.536370	0.693590	0.395580
Mo1431	Mo143	0.502660	0.717260	0.306030
Mo1441	Mo144	0.469150	0.683480	0.357310
Zn481	Zn48	0.558940	0.755180	0.328440
O3811	O381	0.475120	0.747250	0.308770
O3821	O382	0.476140	0.692000	0.320800
O3831	O383	0.590940	0.756130	0.304790
C4241	C424	0.612700	0.759300	0.316800
C4251	C425	0.635800	0.761600	0.297800
O3841	O384	0.615080	0.760260	0.342390
C4261	C426	0.660300	0.767400	0.308300
C4271	C427	0.633000	0.756300	0.272300
H2361	H236	0.661600	0.770400	0.327000
C4281	C428	0.685000	0.769100	0.291900
C4291	C429	0.656400	0.759300	0.253500
H2371	H237	0.616200	0.750500	0.265600
H2381	H238	0.701900	0.772900	0.299600
C4301	C430	0.681800	0.764900	0.263700
H2391	H239	0.653900	0.757300	0.234700
C4311	C431	0.706700	0.767800	0.246900
C4321	C432	0.723500	0.790100	0.250300
H2401	H240	0.720000	0.802800	0.264000
Mo1451	Mo145	0.689820	0.856790	0.458330
O3851	O385	0.724330	0.853990	0.438350
O3861	O386	0.665620	0.859280	0.493060
O3871	O387	0.698040	0.818370	0.467820
O3881	O388	0.693590	0.895580	0.463630
Mo1461	Mo146	0.717260	0.806030	0.497340
Mo1471	Mo147	0.683480	0.857310	0.530850
Zn491	Zn49	0.755180	0.828440	0.441060
O3891	O389	0.747250	0.808770	0.524880
O3901	O390	0.692000	0.820800	0.523860
O3911	O391	0.756130	0.804790	0.409060
C4331	C433	0.759300	0.816800	0.387300
C4341	C434	0.761600	0.797800	0.364200
O3921	O392	0.760260	0.842390	0.384920
C4351	C435	0.767400	0.808300	0.339700
C4361	C436	0.756300	0.772300	0.367000
H2411	H241	0.770400	0.827000	0.338400
C4371	C437	0.769100	0.791900	0.315000
C4381	C438	0.759300	0.753500	0.343600
H2421	H242	0.750500	0.765600	0.383800
H2431	H243	0.772900	0.799600	0.298100
C4391	C439	0.764900	0.763700	0.318200
H2441	H244	0.757300	0.734700	0.346100
C4401	C440	0.767800	0.746900	0.293300
C4411	C441	0.790100	0.750300	0.276500
H2451	H245	0.802800	0.764000	0.280000
Mo1481	Mo148	0.189820	0.356790	0.958330
O3931	O393	0.224330	0.353990	0.938350
O3941	O394	0.165620	0.359280	0.993060
O3951	O395	0.198040	0.318370	0.967820
O3961	O396	0.193590	0.395580	0.963630
Mo1491	Mo149	0.217260	0.306030	0.997340
Mo1501	Mo150	0.183480	0.357310	0.030850
Zn501	Zn50	0.255180	0.328440	0.941060
O3971	O397	0.247250	0.308770	0.024880
O3981	O398	0.192000	0.320800	0.023860
O3991	O399	0.256130	0.304790	0.909060
C4421	C442	0.259300	0.316800	0.887300
C4431	C443	0.261600	0.297800	0.864200
O4001	O400	0.260260	0.342390	0.884920
C4441	C444	0.267400	0.308300	0.839700
C4451	C445	0.256300	0.272300	0.867000
H2461	H246	0.270400	0.327000	0.838400
C4461	C446	0.269100	0.291900	0.815000
C4471	C447	0.259300	0.253500	0.843600
H2471	H247	0.250500	0.265600	0.883800
H2481	H248	0.272900	0.299600	0.798100
C4481	C448	0.264900	0.263700	0.818200
H2491	H249	0.257300	0.234700	0.846100
C4491	C449	0.267800	0.246900	0.793300
C4501	C450	0.290100	0.250300	0.776500
H2501	H250	0.302800	0.264000	0.780000
Mo1511	Mo151	0.810180	0.143210	0.958330
O4011	O401	0.775670	0.146010	0.938350
O4021	O402	0.834380	0.140720	0.993060
O4031	O403	0.801960	0.181630	0.967820
O4041	O404	0.806410	0.104420	0.963630
Mo1521	Mo152	0.782740	0.193970	0.997340
Mo1531	Mo153	0.816520	0.142690	0.030850
Zn511	Zn51	0.744820	0.171560	0.941060
O4051	O405	0.752750	0.191230	0.024880
O4061	O406	0.808000	0.179200	0.023860
O4071	O407	0.743870	0.195210	0.909060
C4511	C451	0.740700	0.183200	0.887300
C4521	C452	0.738400	0.202200	0.864200
O4081	O408	0.739740	0.157610	0.884920
C4531	C453	0.732600	0.191700	0.839700
C4541	C454	0.743700	0.227700	0.867000
H2511	H251	0.729600	0.173000	0.838400
C4551	C455	0.730900	0.208100	0.815000
C4561	C456	0.740700	0.246500	0.843600
H2521	H252	0.749500	0.234400	0.883800
H2531	H253	0.727100	0.200400	0.798100
C4571	C457	0.735100	0.236300	0.818200
H2541	H254	0.742700	0.265300	0.846100
C4581	C458	0.732200	0.253100	0.793300
C4591	C459	0.709900	0.249700	0.776500
H2551	H255	0.697200	0.236000	0.780000
Mo1541	Mo154	0.310180	0.643210	0.458330
O4091	O409	0.275670	0.646010	0.438350
O4101	O410	0.334380	0.640720	0.493060
O4111	O411	0.301960	0.681630	0.467820
O4121	O412	0.306410	0.604420	0.463630
Mo1551	Mo155	0.282740	0.693970	0.497340
Mo1561	Mo156	0.316520	0.642690	0.530850
Zn521	Zn52	0.244820	0.671560	0.441060
O4131	O413	0.252750	0.691230	0.524880
O4141	O414	0.308000	0.679200	0.523860
O4151	O415	0.243870	0.695210	0.409060
C4601	C460	0.240700	0.683200	0.387300
C4611	C461	0.238400	0.702200	0.364200
O4161	O416	0.239740	0.657610	0.384920
C4621	C462	0.232600	0.691700	0.339700
C4631	C463	0.243700	0.727700	0.367000
H2561	H256	0.229600	0.673000	0.338400
C4641	C464	0.230900	0.708100	0.315000
C4651	C465	0.240700	0.746500	0.343600
H2571	H257	0.249500	0.734400	0.383800
H2581	H258	0.227100	0.700400	0.298100
C4661	C466	0.235100	0.736300	0.318200
H2591	H259	0.242700	0.765300	0.346100
C4671	C467	0.232200	0.753100	0.293300
C4681	C468	0.209900	0.749700	0.276500
H2601	H260	0.197200	0.736000	0.280000
Mo1571	Mo157	0.189820	0.643210	0.541670
O4171	O417	0.224330	0.646010	0.561650
O4181	O418	0.165620	0.640720	0.506940
O4191	O419	0.198040	0.681630	0.532180
O4201	O420	0.193590	0.604420	0.536370
Mo1581	Mo158	0.217260	0.693970	0.502660
Mo1591	Mo159	0.183480	0.642690	0.469150
Zn531	Zn53	0.255180	0.671560	0.558940
O4211	O421	0.247250	0.691230	0.475120
O4221	O422	0.192000	0.679200	0.476140
O4231	O423	0.256130	0.695210	0.590940
C4691	C469	0.259300	0.683200	0.612700
C4701	C470	0.261600	0.702200	0.635800
O4241	O424	0.260260	0.657610	0.615080
C4711	C471	0.267400	0.691700	0.660300
C4721	C472	0.256300	0.727700	0.633000
H2611	H261	0.270400	0.673000	0.661600
C4731	C473	0.269100	0.708100	0.685000
C4741	C474	0.259300	0.746500	0.656400
H2621	H262	0.250500	0.734400	0.616200
H2631	H263	0.272900	0.700400	0.701900
C4751	C475	0.264900	0.736300	0.681800
H2641	H264	0.257300	0.765300	0.653900
C4761	C476	0.267800	0.753100	0.706700
C4771	C477	0.290100	0.749700	0.723500
H2651	H265	0.302800	0.736000	0.720000
Mo1601	Mo160	0.689820	0.143210	0.041670
O4251	O425	0.724330	0.146010	0.061650
O4261	O426	0.665620	0.140720	0.006940
O4271	O427	0.698040	0.181630	0.032180
O4281	O428	0.693590	0.104420	0.036370
Mo1611	Mo161	0.717260	0.193970	0.002660
Mo1621	Mo162	0.683480	0.142690	0.969150
Zn541	Zn54	0.755180	0.171560	0.058940
O4291	O429	0.747250	0.191230	0.975120
O4301	O430	0.692000	0.179200	0.976140
O4311	O431	0.756130	0.195210	0.090940
C4781	C478	0.759300	0.183200	0.112700
C4791	C479	0.761600	0.202200	0.135800
O4321	O432	0.760260	0.157610	0.115080
C4801	C480	0.767400	0.191700	0.160300
C4811	C481	0.756300	0.227700	0.133000
H2661	H266	0.770400	0.173000	0.161600
C4821	C482	0.769100	0.208100	0.185000
C4831	C483	0.759300	0.246500	0.156400
H2671	H267	0.750500	0.234400	0.116200
H2681	H268	0.772900	0.200400	0.201900
C4841	C484	0.764900	0.236300	0.181800
H2691	H269	0.757300	0.265300	0.153900
C4851	C485	0.767800	0.253100	0.206700
C4861	C486	0.790100	0.249700	0.223500
H2701	H270	0.802800	0.236000	0.220000
Mo1631	Mo163	0.310180	0.356790	0.041670
O4331	O433	0.275670	0.353990	0.061650
O4341	O434	0.334380	0.359280	0.006940
O4351	O435	0.301960	0.318370	0.032180
O4361	O436	0.306410	0.395580	0.036370
Mo1641	Mo164	0.282740	0.306030	0.002660
Mo1651	Mo165	0.316520	0.357310	0.969150
Zn551	Zn55	0.244820	0.328440	0.058940
O4371	O437	0.252750	0.308770	0.975120
O4381	O438	0.308000	0.320800	0.976140
O4391	O439	0.243870	0.304790	0.090940
C4871	C487	0.240700	0.316800	0.112700
C4881	C488	0.238400	0.297800	0.135800
O4401	O440	0.239740	0.342390	0.115080
C4891	C489	0.232600	0.308300	0.160300
C4901	C490	0.243700	0.272300	0.133000
H2711	H271	0.229600	0.327000	0.161600
C4911	C491	0.230900	0.291900	0.185000
C4921	C492	0.240700	0.253500	0.156400
H2721	H272	0.249500	0.265600	0.116200
H2731	H273	0.227100	0.299600	0.201900
C4931	C493	0.235100	0.263700	0.181800
H2741	H274	0.242700	0.234700	0.153900
C4941	C494	0.232200	0.246900	0.206700
C4951	C495	0.209900	0.250300	0.223500
H2751	H275	0.197200	0.264000	0.220000
Mo1661	Mo166	0.810180	0.856790	0.541670
O4411	O441	0.775670	0.853990	0.561650
O4421	O442	0.834380	0.859280	0.506940
O4431	O443	0.801960	0.818370	0.532180
O4441	O444	0.806410	0.895580	0.536370
Mo1671	Mo167	0.782740	0.806030	0.502660
Mo1681	Mo168	0.816520	0.857310	0.469150
Zn561	Zn56	0.744820	0.828440	0.558940
O4451	O445	0.752750	0.808770	0.475120
O4461	O446	0.808000	0.820800	0.476140
O4471	O447	0.743870	0.804790	0.590940
C4961	C496	0.740700	0.816800	0.612700
C4971	C497	0.738400	0.797800	0.635800
O4481	O448	0.739740	0.842390	0.615080
C4981	C498	0.732600	0.808300	0.660300
C4991	C499	0.743700	0.772300	0.633000
H2761	H276	0.729600	0.827000	0.661600
C5001	C500	0.730900	0.791900	0.685000
C5011	C501	0.740700	0.753500	0.656400
H2771	H277	0.749500	0.765600	0.616200
H2781	H278	0.727100	0.799600	0.701900
C5021	C502	0.735100	0.763700	0.681800
H2791	H279	0.742700	0.734700	0.653900
C5031	C503	0.732200	0.746900	0.706700
C5041	C504	0.709900	0.750300	0.723500
H2801	H280	0.697200	0.764000	0.720000
Mo1691	Mo169	0.356790	0.041670	0.310180
O4491	O449	0.353990	0.061650	0.275670
O4501	O450	0.359280	0.006940	0.334380
O4511	O451	0.318370	0.032180	0.301960
O4521	O452	0.395580	0.036370	0.306410
Mo1701	Mo170	0.306030	0.002660	0.282740
Mo1711	Mo171	0.357310	0.969150	0.316520
Zn571	Zn57	0.328440	0.058940	0.244820
O4531	O453	0.308770	0.975120	0.252750
O4541	O454	0.320800	0.976140	0.308000
O4551	O455	0.304790	0.090940	0.243870
C5051	C505	0.316800	0.112700	0.240700
C5061	C506	0.297800	0.135800	0.238400
O4561	O456	0.342390	0.115080	0.239740
C5071	C507	0.308300	0.160300	0.232600
C5081	C508	0.272300	0.133000	0.243700
H2811	H281	0.327000	0.161600	0.229600
C5091	C509	0.291900	0.185000	0.230900
C5101	C510	0.253500	0.156400	0.240700
H2821	H282	0.265600	0.116200	0.249500
H2831	H283	0.299600	0.201900	0.227100
C5111	C511	0.263700	0.181800	0.235100
H2841	H284	0.234700	0.153900	0.242700
C5121	C512	0.246900	0.206700	0.232200
C5131	C513	0.250300	0.223500	0.209900
H2851	H285	0.264000	0.220000	0.197200
Mo1721	Mo172	0.856790	0.541670	0.810180
O4571	O457	0.853990	0.561650	0.775670
O4581	O458	0.859280	0.506940	0.834380
O4591	O459	0.818370	0.532180	0.801960
O4601	O460	0.895580	0.536370	0.806410
Mo1731	Mo173	0.806030	0.502660	0.782740
Mo1741	Mo174	0.857310	0.469150	0.816520
Zn581	Zn58	0.828440	0.558940	0.744820
O4611	O461	0.808770	0.475120	0.752750
O4621	O462	0.820800	0.476140	0.808000
O4631	O463	0.804790	0.590940	0.743870
C5141	C514	0.816800	0.612700	0.740700
C5151	C515	0.797800	0.635800	0.738400
O4641	O464	0.842390	0.615080	0.739740
C5161	C516	0.808300	0.660300	0.732600
C5171	C517	0.772300	0.633000	0.743700
H2861	H286	0.827000	0.661600	0.729600
C5181	C518	0.791900	0.685000	0.730900
C5191	C519	0.753500	0.656400	0.740700
H2871	H287	0.765600	0.616200	0.749500
H2881	H288	0.799600	0.701900	0.727100
C5201	C520	0.763700	0.681800	0.735100
H2891	H289	0.734700	0.653900	0.742700
C5211	C521	0.746900	0.706700	0.732200
C5221	C522	0.750300	0.723500	0.709900
H2901	H290	0.764000	0.720000	0.697200
Mo1751	Mo175	0.643210	0.541670	0.189820
O4651	O465	0.646010	0.561650	0.224330
O4661	O466	0.640720	0.506940	0.165620
O4671	O467	0.681630	0.532180	0.198040
O4681	O468	0.604420	0.536370	0.193590
Mo1761	Mo176	0.693970	0.502660	0.217260
Mo1771	Mo177	0.642690	0.469150	0.183480
Zn591	Zn59	0.671560	0.558940	0.255180
O4691	O469	0.691230	0.475120	0.247250
O4701	O470	0.679200	0.476140	0.192000
O4711	O471	0.695210	0.590940	0.256130
C5231	C523	0.683200	0.612700	0.259300
C5241	C524	0.702200	0.635800	0.261600
O4721	O472	0.657610	0.615080	0.260260
C5251	C525	0.691700	0.660300	0.267400
C5261	C526	0.727700	0.633000	0.256300
H2911	H291	0.673000	0.661600	0.270400
C5271	C527	0.708100	0.685000	0.269100
C5281	C528	0.746500	0.656400	0.259300
H2921	H292	0.734400	0.616200	0.250500
H2931	H293	0.700400	0.701900	0.272900
C5291	C529	0.736300	0.681800	0.264900
H2941	H294	0.765300	0.653900	0.257300
C5301	C530	0.753100	0.706700	0.267800
C5311	C531	0.749700	0.723500	0.290100
H2951	H295	0.736000	0.720000	0.302800
Mo1781	Mo178	0.143210	0.041670	0.689820
O4731	O473	0.146010	0.061650	0.724330
O4741	O474	0.140720	0.006940	0.665620
O4751	O475	0.181630	0.032180	0.698040
O4761	O476	0.104420	0.036370	0.693590
Mo1791	Mo179	0.193970	0.002660	0.717260
Mo1801	Mo180	0.142690	0.969150	0.683480
Zn601	Zn60	0.171560	0.058940	0.755180
O4771	O477	0.191230	0.975120	0.747250
O4781	O478	0.179200	0.976140	0.692000
O4791	O479	0.195210	0.090940	0.756130
C5321	C532	0.183200	0.112700	0.759300
C5331	C533	0.202200	0.135800	0.761600
O4801	O480	0.157610	0.115080	0.760260
C5341	C534	0.191700	0.160300	0.767400
C5351	C535	0.227700	0.133000	0.756300
H2961	H296	0.173000	0.161600	0.770400
C5361	C536	0.208100	0.185000	0.769100
C5371	C537	0.246500	0.156400	0.759300
H2971	H297	0.234400	0.116200	0.750500
H2981	H298	0.200400	0.201900	0.772900
C5381	C538	0.236300	0.181800	0.764900
H2991	H299	0.265300	0.153900	0.757300
C5391	C539	0.253100	0.206700	0.767800
C5401	C540	0.249700	0.223500	0.790100
H3001	H300	0.236000	0.220000	0.802800
Mo1811	Mo181	0.143210	0.958330	0.810180
O4811	O481	0.146010	0.938350	0.775670
O4821	O482	0.140720	0.993060	0.834380
O4831	O483	0.181630	0.967820	0.801960
O4841	O484	0.104420	0.963630	0.806410
Mo1821	Mo182	0.193970	0.997340	0.782740
Mo1831	Mo183	0.142690	0.030850	0.816520
Zn611	Zn61	0.171560	0.941060	0.744820
O4851	O485	0.191230	0.024880	0.752750
O4861	O486	0.179200	0.023860	0.808000
O4871	O487	0.195210	0.909060	0.743870
C5411	C541	0.183200	0.887300	0.740700
C5421	C542	0.202200	0.864200	0.738400
O4881	O488	0.157610	0.884920	0.739740
C5431	C543	0.191700	0.839700	0.732600
C5441	C544	0.227700	0.867000	0.743700
H3011	H301	0.173000	0.838400	0.729600
C5451	C545	0.208100	0.815000	0.730900
C5461	C546	0.246500	0.843600	0.740700
H3021	H302	0.234400	0.883800	0.749500
H3031	H303	0.200400	0.798100	0.727100
C5471	C547	0.236300	0.818200	0.735100
H3041	H304	0.265300	0.846100	0.742700
C5481	C548	0.253100	0.793300	0.732200
C5491	C549	0.249700	0.776500	0.709900
H3051	H305	0.236000	0.780000	0.697200
Mo1841	Mo184	0.643210	0.458330	0.310180
O4891	O489	0.646010	0.438350	0.275670
O4901	O490	0.640720	0.493060	0.334380
O4911	O491	0.681630	0.467820	0.301960
O4921	O492	0.604420	0.463630	0.306410
Mo1851	Mo185	0.693970	0.497340	0.282740
Mo1861	Mo186	0.642690	0.530850	0.316520
Zn621	Zn62	0.671560	0.441060	0.244820
O4931	O493	0.691230	0.524880	0.252750
O4941	O494	0.679200	0.523860	0.308000
O4951	O495	0.695210	0.409060	0.243870
C5501	C550	0.683200	0.387300	0.240700
C5511	C551	0.702200	0.364200	0.238400
O4961	O496	0.657610	0.384920	0.239740
C5521	C552	0.691700	0.339700	0.232600
C5531	C553	0.727700	0.367000	0.243700
H3061	H306	0.673000	0.338400	0.229600
C5541	C554	0.708100	0.315000	0.230900
C5551	C555	0.746500	0.343600	0.240700
H3071	H307	0.734400	0.383800	0.249500
H3081	H308	0.700400	0.298100	0.227100
C5561	C556	0.736300	0.318200	0.235100
H3091	H309	0.765300	0.346100	0.242700
C5571	C557	0.753100	0.293300	0.232200
C5581	C558	0.749700	0.276500	0.209900
H3101	H310	0.736000	0.280000	0.197200
Mo1871	Mo187	0.856790	0.458330	0.689820
O4971	O497	0.853990	0.438350	0.724330
O4981	O498	0.859280	0.493060	0.665620
O4991	O499	0.818370	0.467820	0.698040
O5001	O500	0.895580	0.463630	0.693590
Mo1881	Mo188	0.806030	0.497340	0.717260
Mo1891	Mo189	0.857310	0.530850	0.683480
Zn631	Zn63	0.828440	0.441060	0.755180
O5011	O501	0.808770	0.524880	0.747250
O5021	O502	0.820800	0.523860	0.692000
O5031	O503	0.804790	0.409060	0.756130
C5591	C559	0.816800	0.387300	0.759300
C5601	C560	0.797800	0.364200	0.761600
O5041	O504	0.842390	0.384920	0.760260
C5611	C561	0.808300	0.339700	0.767400
C5621	C562	0.772300	0.367000	0.756300
H3111	H311	0.827000	0.338400	0.770400
C5631	C563	0.791900	0.315000	0.769100
C5641	C564	0.753500	0.343600	0.759300
H3121	H312	0.765600	0.383800	0.750500
H3131	H313	0.799600	0.298100	0.772900
C5651	C565	0.763700	0.318200	0.764900
H3141	H314	0.734700	0.346100	0.757300
C5661	C566	0.746900	0.293300	0.767800
C5671	C567	0.750300	0.276500	0.790100
H3151	H315	0.764000	0.280000	0.802800
Mo1901	Mo190	0.356790	0.958330	0.189820
O5051	O505	0.353990	0.938350	0.224330
O5061	O506	0.359280	0.993060	0.165620
O5071	O507	0.318370	0.967820	0.198040
O5081	O508	0.395580	0.963630	0.193590
Mo1911	Mo191	0.306030	0.997340	0.217260
Mo1921	Mo192	0.357310	0.030850	0.183480
Zn641	Zn64	0.328440	0.941060	0.255180
O5091	O509	0.308770	0.024880	0.247250
O5101	O510	0.320800	0.023860	0.192000
O5111	O511	0.304790	0.909060	0.256130
C5681	C568	0.316800	0.887300	0.259300
C5691	C569	0.297800	0.864200	0.261600
O5121	O512	0.342390	0.884920	0.260260
C5701	C570	0.308300	0.839700	0.267400
C5711	C571	0.272300	0.867000	0.256300
H3161	H316	0.327000	0.838400	0.270400
C5721	C572	0.291900	0.815000	0.269100
C5731	C573	0.253500	0.843600	0.259300
H3171	H317	0.265600	0.883800	0.250500
H3181	H318	0.299600	0.798100	0.272900
C5741	C574	0.263700	0.818200	0.264900
H3191	H319	0.234700	0.846100	0.257300
C5751	C575	0.246900	0.793300	0.267800
C5761	C576	0.250300	0.776500	0.290100
H3201	H320	0.264000	0.780000	0.302800
Mo1931	Mo193	0.541670	0.189820	0.643210
O5131	O513	0.561650	0.224330	0.646010
O5141	O514	0.506940	0.165620	0.640720
O5151	O515	0.532180	0.198040	0.681630
O5161	O516	0.536370	0.193590	0.604420
Mo1941	Mo194	0.502660	0.217260	0.693970
Mo1951	Mo195	0.469150	0.183480	0.642690
Zn651	Zn65	0.558940	0.255180	0.671560
O5171	O517	0.475120	0.247250	0.691230
O5181	O518	0.476140	0.192000	0.679200
O5191	O519	0.590940	0.256130	0.695210
C5771	C577	0.612700	0.259300	0.683200
C5781	C578	0.635800	0.261600	0.702200
O5201	O520	0.615080	0.260260	0.657610
C5791	C579	0.660300	0.267400	0.691700
C5801	C580	0.633000	0.256300	0.727700
H3211	H321	0.661600	0.270400	0.673000
C5811	C581	0.685000	0.269100	0.708100
C5821	C582	0.656400	0.259300	0.746500
H3221	H322	0.616200	0.250500	0.734400
H3231	H323	0.701900	0.272900	0.700400
C5831	C583	0.681800	0.264900	0.736300
H3241	H324	0.653900	0.257300	0.765300
C5841	C584	0.706700	0.267800	0.753100
C5851	C585	0.723500	0.290100	0.749700
H3251	H325	0.720000	0.302800	0.736000
Mo1961	Mo196	0.041670	0.689820	0.143210
O5211	O521	0.061650	0.724330	0.146010
O5221	O522	0.006940	0.665620	0.140720
O5231	O523	0.032180	0.698040	0.181630
O5241	O524	0.036370	0.693590	0.104420
Mo1971	Mo197	0.002660	0.717260	0.193970
Mo1981	Mo198	0.969150	0.683480	0.142690
Zn661	Zn66	0.058940	0.755180	0.171560
O5251	O525	0.975120	0.747250	0.191230
O5261	O526	0.976140	0.692000	0.179200
O5271	O527	0.090940	0.756130	0.195210
C5861	C586	0.112700	0.759300	0.183200
C5871	C587	0.135800	0.761600	0.202200
O5281	O528	0.115080	0.760260	0.157610
C5881	C588	0.160300	0.767400	0.191700
C5891	C589	0.133000	0.756300	0.227700
H3261	H326	0.161600	0.770400	0.173000
C5901	C590	0.185000	0.769100	0.208100
C5911	C591	0.156400	0.759300	0.246500
H3271	H327	0.116200	0.750500	0.234400
H3281	H328	0.201900	0.772900	0.200400
C5921	C592	0.181800	0.764900	0.236300
H3291	H329	0.153900	0.757300	0.265300
C5931	C593	0.206700	0.767800	0.253100
C5941	C594	0.223500	0.790100	0.249700
H3301	H330	0.220000	0.802800	0.236000
Mo1991	Mo199	0.041670	0.310180	0.356790
O5291	O529	0.061650	0.275670	0.353990
O5301	O530	0.006940	0.334380	0.359280
O5311	O531	0.032180	0.301960	0.318370
O5321	O532	0.036370	0.306410	0.395580
Mo2001	Mo200	0.002660	0.282740	0.306030
Mo2011	Mo201	0.969150	0.316520	0.357310
Zn671	Zn67	0.058940	0.244820	0.328440
O5331	O533	0.975120	0.252750	0.308770
O5341	O534	0.976140	0.308000	0.320800
O5351	O535	0.090940	0.243870	0.304790
C5951	C595	0.112700	0.240700	0.316800
C5961	C596	0.135800	0.238400	0.297800
O5361	O536	0.115080	0.239740	0.342390
C5971	C597	0.160300	0.232600	0.308300
C5981	C598	0.133000	0.243700	0.272300
H3311	H331	0.161600	0.229600	0.327000
C5991	C599	0.185000	0.230900	0.291900
C6001	C600	0.156400	0.240700	0.253500
H3321	H332	0.116200	0.249500	0.265600
H3331	H333	0.201900	0.227100	0.299600
C6011	C601	0.181800	0.235100	0.263700
H3341	H334	0.153900	0.242700	0.234700
C6021	C602	0.206700	0.232200	0.246900
C6031	C603	0.223500	0.209900	0.250300
H3351	H335	0.220000	0.197200	0.264000
Mo2021	Mo202	0.541670	0.810180	0.856790
O5371	O537	0.561650	0.775670	0.853990
O5381	O538	0.506940	0.834380	0.859280
O5391	O539	0.532180	0.801960	0.818370
O5401	O540	0.536370	0.806410	0.895580
Mo2031	Mo203	0.502660	0.782740	0.806030
Mo2041	Mo204	0.469150	0.816520	0.857310
Zn681	Zn68	0.558940	0.744820	0.828440
O5411	O541	0.475120	0.752750	0.808770
O5421	O542	0.476140	0.808000	0.820800
O5431	O543	0.590940	0.743870	0.804790
C6041	C604	0.612700	0.740700	0.816800
C6051	C605	0.635800	0.738400	0.797800
O5441	O544	0.615080	0.739740	0.842390
C6061	C606	0.660300	0.732600	0.808300
C6071	C607	0.633000	0.743700	0.772300
H3361	H336	0.661600	0.729600	0.827000
C6081	C608	0.685000	0.730900	0.791900
C6091	C609	0.656400	0.740700	0.753500
H3371	H337	0.616200	0.749500	0.765600
H3381	H338	0.701900	0.727100	0.799600
C6101	C610	0.681800	0.735100	0.763700
H3391	H339	0.653900	0.742700	0.734700
C6111	C611	0.706700	0.732200	0.746900
C6121	C612	0.723500	0.709900	0.750300
H3401	H340	0.720000	0.697200	0.764000
Mo2051	Mo205	0.458330	0.689820	0.856790
O5451	O545	0.438350	0.724330	0.853990
O5461	O546	0.493060	0.665620	0.859280
O5471	O547	0.467820	0.698040	0.818370
O5481	O548	0.463630	0.693590	0.895580
Mo2061	Mo206	0.497340	0.717260	0.806030
Mo2071	Mo207	0.530850	0.683480	0.857310
Zn691	Zn69	0.441060	0.755180	0.828440
O5491	O549	0.524880	0.747250	0.808770
O5501	O550	0.523860	0.692000	0.820800
O5511	O551	0.409060	0.756130	0.804790
C6131	C613	0.387300	0.759300	0.816800
C6141	C614	0.364200	0.761600	0.797800
O5521	O552	0.384920	0.760260	0.842390
C6151	C615	0.339700	0.767400	0.808300
C6161	C616	0.367000	0.756300	0.772300
H3411	H341	0.338400	0.770400	0.827000
C6171	C617	0.315000	0.769100	0.791900
C6181	C618	0.343600	0.759300	0.753500
H3421	H342	0.383800	0.750500	0.765600
H3431	H343	0.298100	0.772900	0.799600
C6191	C619	0.318200	0.764900	0.763700
H3441	H344	0.346100	0.757300	0.734700
C6201	C620	0.293300	0.767800	0.746900
C6211	C621	0.276500	0.790100	0.750300
H3451	H345	0.280000	0.802800	0.764000
Mo2081	Mo208	0.958330	0.189820	0.356790
O5531	O553	0.938350	0.224330	0.353990
O5541	O554	0.993060	0.165620	0.359280
O5551	O555	0.967820	0.198040	0.318370
O5561	O556	0.963630	0.193590	0.395580
Mo2091	Mo209	0.997340	0.217260	0.306030
Mo2101	Mo210	0.030850	0.183480	0.357310
Zn701	Zn70	0.941060	0.255180	0.328440
O5571	O557	0.024880	0.247250	0.308770
O5581	O558	0.023860	0.192000	0.320800
O5591	O559	0.909060	0.256130	0.304790
C6221	C622	0.887300	0.259300	0.316800
C6231	C623	0.864200	0.261600	0.297800
O5601	O560	0.884920	0.260260	0.342390
C6241	C624	0.839700	0.267400	0.308300
C6251	C625	0.867000	0.256300	0.272300
H3461	H346	0.838400	0.270400	0.327000
C6261	C626	0.815000	0.269100	0.291900
C6271	C627	0.843600	0.259300	0.253500
H3471	H347	0.883800	0.250500	0.265600
H3481	H348	0.798100	0.272900	0.299600
C6281	C628	0.818200	0.264900	0.263700
H3491	H349	0.846100	0.257300	0.234700
C6291	C629	0.793300	0.267800	0.246900
C6301	C630	0.776500	0.290100	0.250300
H3501	H350	0.780000	0.302800	0.264000
Mo2111	Mo211	0.958330	0.810180	0.143210
O5611	O561	0.938350	0.775670	0.146010
O5621	O562	0.993060	0.834380	0.140720
O5631	O563	0.967820	0.801960	0.181630
O5641	O564	0.963630	0.806410	0.104420
Mo2121	Mo212	0.997340	0.782740	0.193970
Mo2131	Mo213	0.030850	0.816520	0.142690
Zn711	Zn71	0.941060	0.744820	0.171560
O5651	O565	0.024880	0.752750	0.191230
O5661	O566	0.023860	0.808000	0.179200
O5671	O567	0.909060	0.743870	0.195210
C6311	C631	0.887300	0.740700	0.183200
C6321	C632	0.864200	0.738400	0.202200
O5681	O568	0.884920	0.739740	0.157610
C6331	C633	0.839700	0.732600	0.191700
C6341	C634	0.867000	0.743700	0.227700
H3511	H351	0.838400	0.729600	0.173000
C6351	C635	0.815000	0.730900	0.208100
C6361	C636	0.843600	0.740700	0.246500
H3521	H352	0.883800	0.749500	0.234400
H3531	H353	0.798100	0.727100	0.200400
C6371	C637	0.818200	0.735100	0.236300
H3541	H354	0.846100	0.742700	0.265300
C6381	C638	0.793300	0.732200	0.253100
C6391	C639	0.776500	0.709900	0.249700
H3551	H355	0.780000	0.697200	0.236000
Mo2141	Mo214	0.458330	0.310180	0.643210
O5691	O569	0.438350	0.275670	0.646010
O5701	O570	0.493060	0.334380	0.640720
O5711	O571	0.467820	0.301960	0.681630
O5721	O572	0.463630	0.306410	0.604420
Mo2151	Mo215	0.497340	0.282740	0.693970
Mo2161	Mo216	0.530850	0.316520	0.642690
Zn721	Zn72	0.441060	0.244820	0.671560
O5731	O573	0.524880	0.252750	0.691230
O5741	O574	0.523860	0.308000	0.679200
O5751	O575	0.409060	0.243870	0.695210
C6401	C640	0.387300	0.240700	0.683200
C6411	C641	0.364200	0.238400	0.702200
O5761	O576	0.384920	0.239740	0.657610
C6421	C642	0.339700	0.232600	0.691700
C6431	C643	0.367000	0.243700	0.727700
H3561	H356	0.338400	0.229600	0.673000
C6441	C644	0.315000	0.230900	0.708100
C6451	C645	0.343600	0.240700	0.746500
H3571	H357	0.383800	0.249500	0.734400
H3581	H358	0.298100	0.227100	0.700400
C6461	C646	0.318200	0.235100	0.736300
H3591	H359	0.346100	0.242700	0.765300
C6471	C647	0.293300	0.232200	0.753100
C6481	C648	0.276500	0.209900	0.749700
H3601	H360	0.280000	0.197200	0.736000
Mo2171	Mo217	0.393210	0.060180	0.208330
O5771	O577	0.396010	0.025670	0.188350
O5781	O578	0.390720	0.084380	0.243060
O5791	O579	0.431630	0.051960	0.217820
O5801	O580	0.354420	0.056410	0.213630
Mo2181	Mo218	0.443970	0.032740	0.247340
Mo2191	Mo219	0.392690	0.066520	0.280850
Zn731	Zn73	0.421560	0.994820	0.191060
O5811	O581	0.441230	0.002750	0.274880
O5821	O582	0.429200	0.058000	0.273860
O5831	O583	0.445210	0.993870	0.159060
C6491	C649	0.433200	0.990700	0.137300
C6501	C650	0.452200	0.988400	0.114200
O5841	O584	0.407610	0.989740	0.134920
C6511	C651	0.441700	0.982600	0.089700
C6521	C652	0.477700	0.993700	0.117000
H3611	H361	0.423000	0.979600	0.088400
C6531	C653	0.458100	0.980900	0.065000
C6541	C654	0.496500	0.990700	0.093600
H3621	H362	0.484400	0.999500	0.133800
H3631	H363	0.450400	0.977100	0.048100
C6551	C655	0.486300	0.985100	0.068200
H3641	H364	0.515300	0.992700	0.096100
C6561	C656	0.503100	0.982200	0.043300
C6571	C657	0.499700	0.959900	0.026500
H3651	H365	0.486000	0.947200	0.030000
Mo2201	Mo220	0.893210	0.560180	0.708330
O5851	O585	0.896010	0.525670	0.688350
O5861	O586	0.890720	0.584380	0.743060
O5871	O587	0.931630	0.551960	0.717820
O5881	O588	0.854420	0.556410	0.713630
Mo2211	Mo221	0.943970	0.532740	0.747340
Mo2221	Mo222	0.892690	0.566520	0.780850
Zn741	Zn74	0.921560	0.494820	0.691060
O5891	O589	0.941230	0.502750	0.774880
O5901	O590	0.929200	0.558000	0.773860
O5911	O591	0.945210	0.493870	0.659060
C6581	C658	0.933200	0.490700	0.637300
C6591	C659	0.952200	0.488400	0.614200
O5921	O592	0.907610	0.489740	0.634920
C6601	C660	0.941700	0.482600	0.589700
C6611	C661	0.977700	0.493700	0.617000
H3661	H366	0.923000	0.479600	0.588400
C6621	C662	0.958100	0.480900	0.565000
C6631	C663	0.996500	0.490700	0.593600
H3671	H367	0.984400	0.499500	0.633800
H3681	H368	0.950400	0.477100	0.548100
C6641	C664	0.986300	0.485100	0.568200
H3691	H369	0.015300	0.492700	0.596100
C6651	C665	0.003100	0.482200	0.543300
C6661	C666	0.999700	0.459900	0.526500
H3701	H370	0.986000	0.447200	0.530000
Mo2231	Mo223	0.106790	0.939820	0.708330
O5931	O593	0.103990	0.974330	0.688350
O5941	O594	0.109280	0.915620	0.743060
O5951	O595	0.068370	0.948040	0.717820
O5961	O596	0.145580	0.943590	0.713630
Mo2241	Mo224	0.056030	0.967260	0.747340
Mo2251	Mo225	0.107310	0.933480	0.780850
Zn751	Zn75	0.078440	0.005180	0.691060
O5971	O597	0.058770	0.997250	0.774880
O5981	O598	0.070800	0.942000	0.773860
O5991	O599	0.054790	0.006130	0.659060
C6671	C667	0.066800	0.009300	0.637300
C6681	C668	0.047800	0.011600	0.614200
O6001	O600	0.092390	0.010260	0.634920
C6691	C669	0.058300	0.017400	0.589700
C6701	C670	0.022300	0.006300	0.617000
H3711	H371	0.077000	0.020400	0.588400
C6711	C671	0.041900	0.019100	0.565000
C6721	C672	0.003500	0.009300	0.593600
H3721	H372	0.015600	0.000500	0.633800
H3731	H373	0.049600	0.022900	0.548100
C6731	C673	0.013700	0.014900	0.568200
H3741	H374	0.984700	0.007300	0.596100
C6741	C674	0.996900	0.017800	0.543300
C6751	C675	0.000300	0.040100	0.526500
H3751	H375	0.014000	0.052800	0.530000
Mo2261	Mo226	0.606790	0.439820	0.208330
O6011	O601	0.603990	0.474330	0.188350
O6021	O602	0.609280	0.415620	0.243060
O6031	O603	0.568370	0.448040	0.217820
O6041	O604	0.645580	0.443590	0.213630
Mo2271	Mo227	0.556030	0.467260	0.247340
Mo2281	Mo228	0.607310	0.433480	0.280850
Zn761	Zn76	0.578440	0.505180	0.191060
O6051	O605	0.558770	0.497250	0.274880
O6061	O606	0.570800	0.442000	0.273860
O6071	O607	0.554790	0.506130	0.159060
C6761	C676	0.566800	0.509300	0.137300
C6771	C677	0.547800	0.511600	0.114200
O6081	O608	0.592390	0.510260	0.134920
C6781	C678	0.558300	0.517400	0.089700
C6791	C679	0.522300	0.506300	0.117000
H3761	H376	0.577000	0.520400	0.088400
C6801	C680	0.541900	0.519100	0.065000
C6811	C681	0.503500	0.509300	0.093600
H3771	H377	0.515600	0.500500	0.133800
H3781	H378	0.549600	0.522900	0.048100
C6821	C682	0.513700	0.514900	0.068200
H3791	H379	0.484700	0.507300	0.096100
C6831	C683	0.496900	0.517800	0.043300
C6841	C684	0.500300	0.540100	0.026500
H3801	H380	0.514000	0.552800	0.030000
Mo2291	Mo229	0.606790	0.560180	0.291670
O6091	O609	0.603990	0.525670	0.311650
O6101	O610	0.609280	0.584380	0.256940
O6111	O611	0.568370	0.551960	0.282180
O6121	O612	0.645580	0.556410	0.286370
Mo2301	Mo230	0.556030	0.532740	0.252660
Mo2311	Mo231	0.607310	0.566520	0.219150
Zn771	Zn77	0.578440	0.494820	0.308940
O6131	O613	0.558770	0.502750	0.225120
O6141	O614	0.570800	0.558000	0.226140
O6151	O615	0.554790	0.493870	0.340940
C6851	C685	0.566800	0.490700	0.362700
C6861	C686	0.547800	0.488400	0.385800
O6161	O616	0.592390	0.489740	0.365080
C6871	C687	0.558300	0.482600	0.410300
C6881	C688	0.522300	0.493700	0.383000
H3811	H381	0.577000	0.479600	0.411600
C6891	C689	0.541900	0.480900	0.435000
C6901	C690	0.503500	0.490700	0.406400
H3821	H382	0.515600	0.499500	0.366200
H3831	H383	0.549600	0.477100	0.451900
C6911	C691	0.513700	0.485100	0.431800
H3841	H384	0.484700	0.492700	0.403900
C6921	C692	0.496900	0.482200	0.456700
C6931	C693	0.500300	0.459900	0.473500
H3851	H385	0.514000	0.447200	0.470000
Mo2321	Mo232	0.106790	0.060180	0.791670
O6171	O617	0.103990	0.025670	0.811650
O6181	O618	0.109280	0.084380	0.756940
O6191	O619	0.068370	0.051960	0.782180
O6201	O620	0.145580	0.056410	0.786370
Mo2331	Mo233	0.056030	0.032740	0.752660
Mo2341	Mo234	0.107310	0.066520	0.719150
Zn781	Zn78	0.078440	0.994820	0.808940
O6211	O621	0.058770	0.002750	0.725120
O6221	O622	0.070800	0.058000	0.726140
O6231	O623	0.054790	0.993870	0.840940
C6941	C694	0.066800	0.990700	0.862700
C6951	C695	0.047800	0.988400	0.885800
O6241	O624	0.092390	0.989740	0.865080
C6961	C696	0.058300	0.982600	0.910300
C6971	C697	0.022300	0.993700	0.883000
H3861	H386	0.077000	0.979600	0.911600
C6981	C698	0.041900	0.980900	0.935000
C6991	C699	0.003500	0.990700	0.906400
H3871	H387	0.015600	0.999500	0.866200
H3881	H388	0.049600	0.977100	0.951900
C7001	C700	0.013700	0.985100	0.931800
H3891	H389	0.984700	0.992700	0.903900
C7011	C701	0.996900	0.982200	0.956700
C7021	C702	0.000300	0.959900	0.973500
H3901	H390	0.014000	0.947200	0.970000
Mo2351	Mo235	0.893210	0.439820	0.791670
O6251	O625	0.896010	0.474330	0.811650
O6261	O626	0.890720	0.415620	0.756940
O6271	O627	0.931630	0.448040	0.782180
O6281	O628	0.854420	0.443590	0.786370
Mo2361	Mo236	0.943970	0.467260	0.752660
Mo2371	Mo237	0.892690	0.433480	0.719150
Zn791	Zn79	0.921560	0.505180	0.808940
O6291	O629	0.941230	0.497250	0.725120
O6301	O630	0.929200	0.442000	0.726140
O6311	O631	0.945210	0.506130	0.840940
C7031	C703	0.933200	0.509300	0.862700
C7041	C704	0.952200	0.511600	0.885800
O6321	O632	0.907610	0.510260	0.865080
C7051	C705	0.941700	0.517400	0.910300
C7061	C706	0.977700	0.506300	0.883000
H3911	H391	0.923000	0.520400	0.911600
C7071	C707	0.958100	0.519100	0.935000
C7081	C708	0.996500	0.509300	0.906400
H3921	H392	0.984400	0.500500	0.866200
H3931	H393	0.950400	0.522900	0.951900
C7091	C709	0.986300	0.514900	0.931800
H3941	H394	0.015300	0.507300	0.903900
C7101	C710	0.003100	0.517800	0.956700
C7111	C711	0.999700	0.540100	0.973500
H3951	H395	0.986000	0.552800	0.970000
Mo2381	Mo238	0.393210	0.939820	0.291670
O6331	O633	0.396010	0.974330	0.311650
O6341	O634	0.390720	0.915620	0.256940
O6351	O635	0.431630	0.948040	0.282180
O6361	O636	0.354420	0.943590	0.286370
Mo2391	Mo239	0.443970	0.967260	0.252660
Mo2401	Mo240	0.392690	0.933480	0.219150
Zn801	Zn80	0.421560	0.005180	0.308940
O6371	O637	0.441230	0.997250	0.225120
O6381	O638	0.429200	0.942000	0.226140
O6391	O639	0.445210	0.006130	0.340940
C7121	C712	0.433200	0.009300	0.362700
C7131	C713	0.452200	0.011600	0.385800
O6401	O640	0.407610	0.010260	0.365080
C7141	C714	0.441700	0.017400	0.410300
C7151	C715	0.477700	0.006300	0.383000
H3961	H396	0.423000	0.020400	0.411600
C7161	C716	0.458100	0.019100	0.435000
C7171	C717	0.496500	0.009300	0.406400
H3971	H397	0.484400	0.000500	0.366200
H3981	H398	0.450400	0.022900	0.451900
C7181	C718	0.486300	0.014900	0.431800
H3991	H399	0.515300	0.007300	0.403900
C7191	C719	0.503100	0.017800	0.456700
C7201	C720	0.499700	0.040100	0.473500
H4001	H400	0.486000	0.052800	0.470000
Mo2411	Mo241	0.208330	0.393210	0.060180
O6411	O641	0.188350	0.396010	0.025670
O6421	O642	0.243060	0.390720	0.084380
O6431	O643	0.217820	0.431630	0.051960
O6441	O644	0.213630	0.354420	0.056410
Mo2421	Mo242	0.247340	0.443970	0.032740
Mo2431	Mo243	0.280850	0.392690	0.066520
Zn811	Zn81	0.191060	0.421560	0.994820
O6451	O645	0.274880	0.441230	0.002750
O6461	O646	0.273860	0.429200	0.058000
O6471	O647	0.159060	0.445210	0.993870
C7211	C721	0.137300	0.433200	0.990700
C7221	C722	0.114200	0.452200	0.988400
O6481	O648	0.134920	0.407610	0.989740
C7231	C723	0.089700	0.441700	0.982600
C7241	C724	0.117000	0.477700	0.993700
H4011	H401	0.088400	0.423000	0.979600
C7251	C725	0.065000	0.458100	0.980900
C7261	C726	0.093600	0.496500	0.990700
H4021	H402	0.133800	0.484400	0.999500
H4031	H403	0.048100	0.450400	0.977100
C7271	C727	0.068200	0.486300	0.985100
H4041	H404	0.096100	0.515300	0.992700
C7281	C728	0.043300	0.503100	0.982200
C7291	C729	0.026500	0.499700	0.959900
H4051	H405	0.030000	0.486000	0.947200
Mo2441	Mo244	0.708330	0.893210	0.560180
O6491	O649	0.688350	0.896010	0.525670
O6501	O650	0.743060	0.890720	0.584380
O6511	O651	0.717820	0.931630	0.551960
O6521	O652	0.713630	0.854420	0.556410
Mo2451	Mo245	0.747340	0.943970	0.532740
Mo2461	Mo246	0.780850	0.892690	0.566520
Zn821	Zn82	0.691060	0.921560	0.494820
O6531	O653	0.774880	0.941230	0.502750
O6541	O654	0.773860	0.929200	0.558000
O6551	O655	0.659060	0.945210	0.493870
C7301	C730	0.637300	0.933200	0.490700
C7311	C731	0.614200	0.952200	0.488400
O6561	O656	0.634920	0.907610	0.489740
C7321	C732	0.589700	0.941700	0.482600
C7331	C733	0.617000	0.977700	0.493700
H4061	H406	0.588400	0.923000	0.479600
C7341	C734	0.565000	0.958100	0.480900
C7351	C735	0.593600	0.996500	0.490700
H4071	H407	0.633800	0.984400	0.499500
H4081	H408	0.548100	0.950400	0.477100
C7361	C736	0.568200	0.986300	0.485100
H4091	H409	0.596100	0.015300	0.492700
C7371	C737	0.543300	0.003100	0.482200
C7381	C738	0.526500	0.999700	0.459900
H4101	H410	0.530000	0.986000	0.447200
Mo2471	Mo247	0.708330	0.106790	0.939820
O6571	O657	0.688350	0.103990	0.974330
O6581	O658	0.743060	0.109280	0.915620
O6591	O659	0.717820	0.068370	0.948040
O6601	O660	0.713630	0.145580	0.943590
Mo2481	Mo248	0.747340	0.056030	0.967260
Mo2491	Mo249	0.780850	0.107310	0.933480
Zn831	Zn83	0.691060	0.078440	0.005180
O6611	O661	0.774880	0.058770	0.997250
O6621	O662	0.773860	0.070800	0.942000
O6631	O663	0.659060	0.054790	0.006130
C7391	C739	0.637300	0.066800	0.009300
C7401	C740	0.614200	0.047800	0.011600
O6641	O664	0.634920	0.092390	0.010260
C7411	C741	0.589700	0.058300	0.017400
C7421	C742	0.617000	0.022300	0.006300
H4111	H411	0.588400	0.077000	0.020400
C7431	C743	0.565000	0.041900	0.019100
C7441	C744	0.593600	0.003500	0.009300
H4121	H412	0.633800	0.015600	0.000500
H4131	H413	0.548100	0.049600	0.022900
C7451	C745	0.568200	0.013700	0.014900
H4141	H414	0.596100	0.984700	0.007300
C7461	C746	0.543300	0.996900	0.017800
C7471	C747	0.526500	0.000300	0.040100
H4151	H415	0.530000	0.014000	0.052800
Mo2501	Mo250	0.208330	0.606790	0.439820
O6651	O665	0.188350	0.603990	0.474330
O6661	O666	0.243060	0.609280	0.415620
O6671	O667	0.217820	0.568370	0.448040
O6681	O668	0.213630	0.645580	0.443590
Mo2511	Mo251	0.247340	0.556030	0.467260
Mo2521	Mo252	0.280850	0.607310	0.433480
Zn841	Zn84	0.191060	0.578440	0.505180
O6691	O669	0.274880	0.558770	0.497250
O6701	O670	0.273860	0.570800	0.442000
O6711	O671	0.159060	0.554790	0.506130
C7481	C748	0.137300	0.566800	0.509300
C7491	C749	0.114200	0.547800	0.511600
O6721	O672	0.134920	0.592390	0.510260
C7501	C750	0.089700	0.558300	0.517400
C7511	C751	0.117000	0.522300	0.506300
H4161	H416	0.088400	0.577000	0.520400
C7521	C752	0.065000	0.541900	0.519100
C7531	C753	0.093600	0.503500	0.509300
H4171	H417	0.133800	0.515600	0.500500
H4181	H418	0.048100	0.549600	0.522900
C7541	C754	0.068200	0.513700	0.514900
H4191	H419	0.096100	0.484700	0.507300
C7551	C755	0.043300	0.496900	0.517800
C7561	C756	0.026500	0.500300	0.540100
H4201	H420	0.030000	0.514000	0.552800
Mo2531	Mo253	0.291670	0.606790	0.560180
O6731	O673	0.311650	0.603990	0.525670
O6741	O674	0.256940	0.609280	0.584380
O6751	O675	0.282180	0.568370	0.551960
O6761	O676	0.286370	0.645580	0.556410
Mo2541	Mo254	0.252660	0.556030	0.532740
Mo2551	Mo255	0.219150	0.607310	0.566520
Zn851	Zn85	0.308940	0.578440	0.494820
O6771	O677	0.225120	0.558770	0.502750
O6781	O678	0.226140	0.570800	0.558000
O6791	O679	0.340940	0.554790	0.493870
C7571	C757	0.362700	0.566800	0.490700
C7581	C758	0.385800	0.547800	0.488400
O6801	O680	0.365080	0.592390	0.489740
C7591	C759	0.410300	0.558300	0.482600
C7601	C760	0.383000	0.522300	0.493700
H4211	H421	0.411600	0.577000	0.479600
C7611	C761	0.435000	0.541900	0.480900
C7621	C762	0.406400	0.503500	0.490700
H4221	H422	0.366200	0.515600	0.499500
H4231	H423	0.451900	0.549600	0.477100
C7631	C763	0.431800	0.513700	0.485100
H4241	H424	0.403900	0.484700	0.492700
C7641	C764	0.456700	0.496900	0.482200
C7651	C765	0.473500	0.500300	0.459900
H4251	H425	0.470000	0.514000	0.447200
Mo2561	Mo256	0.791670	0.106790	0.060180
O6811	O681	0.811650	0.103990	0.025670
O6821	O682	0.756940	0.109280	0.084380
O6831	O683	0.782180	0.068370	0.051960
O6841	O684	0.786370	0.145580	0.056410
Mo2571	Mo257	0.752660	0.056030	0.032740
Mo2581	Mo258	0.719150	0.107310	0.066520
Zn861	Zn86	0.808940	0.078440	0.994820
O6851	O685	0.725120	0.058770	0.002750
O6861	O686	0.726140	0.070800	0.058000
O6871	O687	0.840940	0.054790	0.993870
C7661	C766	0.862700	0.066800	0.990700
C7671	C767	0.885800	0.047800	0.988400
O6881	O688	0.865080	0.092390	0.989740
C7681	C768	0.910300	0.058300	0.982600
C7691	C769	0.883000	0.022300	0.993700
H4261	H426	0.911600	0.077000	0.979600
C7701	C770	0.935000	0.041900	0.980900
C7711	C771	0.906400	0.003500	0.990700
H4271	H427	0.866200	0.015600	0.999500
H4281	H428	0.951900	0.049600	0.977100
C7721	C772	0.931800	0.013700	0.985100
H4291	H429	0.903900	0.984700	0.992700
C7731	C773	0.956700	0.996900	0.982200
C7741	C774	0.973500	0.000300	0.959900
H4301	H430	0.970000	0.014000	0.947200
Mo2591	Mo259	0.791670	0.893210	0.439820
O6891	O689	0.811650	0.896010	0.474330
O6901	O690	0.756940	0.890720	0.415620
O6911	O691	0.782180	0.931630	0.448040
O6921	O692	0.786370	0.854420	0.443590
Mo2601	Mo260	0.752660	0.943970	0.467260
Mo2611	Mo261	0.719150	0.892690	0.433480
Zn871	Zn87	0.808940	0.921560	0.505180
O6931	O693	0.725120	0.941230	0.497250
O6941	O694	0.726140	0.929200	0.442000
O6951	O695	0.840940	0.945210	0.506130
C7751	C775	0.862700	0.933200	0.509300
C7761	C776	0.885800	0.952200	0.511600
O6961	O696	0.865080	0.907610	0.510260
C7771	C777	0.910300	0.941700	0.517400
C7781	C778	0.883000	0.977700	0.506300
H4311	H431	0.911600	0.923000	0.520400
C7791	C779	0.935000	0.958100	0.519100
C7801	C780	0.906400	0.996500	0.509300
H4321	H432	0.866200	0.984400	0.500500
H4331	H433	0.951900	0.950400	0.522900
C7811	C781	0.931800	0.986300	0.514900
H4341	H434	0.903900	0.015300	0.507300
C7821	C782	0.956700	0.003100	0.517800
C7831	C783	0.973500	0.999700	0.540100
H4351	H435	0.970000	0.986000	0.552800
Mo2621	Mo262	0.291670	0.393210	0.939820
O6971	O697	0.311650	0.396010	0.974330
O6981	O698	0.256940	0.390720	0.915620
O6991	O699	0.282180	0.431630	0.948040
O7001	O700	0.286370	0.354420	0.943590
Mo2631	Mo263	0.252660	0.443970	0.967260
Mo2641	Mo264	0.219150	0.392690	0.933480
Zn881	Zn88	0.308940	0.421560	0.005180
O7011	O701	0.225120	0.441230	0.997250
O7021	O702	0.226140	0.429200	0.942000
O7031	O703	0.340940	0.445210	0.006130
C7841	C784	0.362700	0.433200	0.009300
C7851	C785	0.385800	0.452200	0.011600
O7041	O704	0.365080	0.407610	0.010260
C7861	C786	0.410300	0.441700	0.017400
C7871	C787	0.383000	0.477700	0.006300
H4361	H436	0.411600	0.423000	0.020400
C7881	C788	0.435000	0.458100	0.019100
C7891	C789	0.406400	0.496500	0.009300
H4371	H437	0.366200	0.484400	0.000500
H4381	H438	0.451900	0.450400	0.022900
C7901	C790	0.431800	0.486300	0.014900
H4391	H439	0.403900	0.515300	0.007300
C7911	C791	0.456700	0.503100	0.017800
C7921	C792	0.473500	0.499700	0.040100
H4401	H440	0.470000	0.486000	0.052800
Mo2651	Mo265	0.060180	0.208330	0.393210
O7051	O705	0.025670	0.188350	0.396010
O7061	O706	0.084380	0.243060	0.390720
O7071	O707	0.051960	0.217820	0.431630
O7081	O708	0.056410	0.213630	0.354420
Mo2661	Mo266	0.032740	0.247340	0.443970
Mo2671	Mo267	0.066520	0.280850	0.392690
Zn891	Zn89	0.994820	0.191060	0.421560
O7091	O709	0.002750	0.274880	0.441230
O7101	O710	0.058000	0.273860	0.429200
O7111	O711	0.993870	0.159060	0.445210
C7931	C793	0.990700	0.137300	0.433200
C7941	C794	0.988400	0.114200	0.452200
O7121	O712	0.989740	0.134920	0.407610
C7951	C795	0.982600	0.089700	0.441700
C7961	C796	0.993700	0.117000	0.477700
H4411	H441	0.979600	0.088400	0.423000
C7971	C797	0.980900	0.065000	0.458100
C7981	C798	0.990700	0.093600	0.496500
H4421	H442	0.999500	0.133800	0.484400
H4431	H443	0.977100	0.048100	0.450400
C7991	C799	0.985100	0.068200	0.486300
H4441	H444	0.992700	0.096100	0.515300
C8001	C800	0.982200	0.043300	0.503100
C8011	C801	0.959900	0.026500	0.499700
H4451	H445	0.947200	0.030000	0.486000
Mo2681	Mo268	0.560180	0.708330	0.893210
O7131	O713	0.525670	0.688350	0.896010
O7141	O714	0.584380	0.743060	0.890720
O7151	O715	0.551960	0.717820	0.931630
O7161	O716	0.556410	0.713630	0.854420
Mo2691	Mo269	0.532740	0.747340	0.943970
Mo2701	Mo270	0.566520	0.780850	0.892690
Zn901	Zn90	0.494820	0.691060	0.921560
O7171	O717	0.502750	0.774880	0.941230
O7181	O718	0.558000	0.773860	0.929200
O7191	O719	0.493870	0.659060	0.945210
C8021	C802	0.490700	0.637300	0.933200
C8031	C803	0.488400	0.614200	0.952200
O7201	O720	0.489740	0.634920	0.907610
C8041	C804	0.482600	0.589700	0.941700
C8051	C805	0.493700	0.617000	0.977700
H4461	H446	0.479600	0.588400	0.923000
C8061	C806	0.480900	0.565000	0.958100
C8071	C807	0.490700	0.593600	0.996500
H4471	H447	0.499500	0.633800	0.984400
H4481	H448	0.477100	0.548100	0.950400
C8081	C808	0.485100	0.568200	0.986300
H4491	H449	0.492700	0.596100	0.015300
C8091	C809	0.482200	0.543300	0.003100
C8101	C810	0.459900	0.526500	0.999700
H4501	H450	0.447200	0.530000	0.986000
Mo2711	Mo271	0.939820	0.708330	0.106790
O7211	O721	0.974330	0.688350	0.103990
O7221	O722	0.915620	0.743060	0.109280
O7231	O723	0.948040	0.717820	0.068370
O7241	O724	0.943590	0.713630	0.145580
Mo2721	Mo272	0.967260	0.747340	0.056030
Mo2731	Mo273	0.933480	0.780850	0.107310
Zn911	Zn91	0.005180	0.691060	0.078440
O7251	O725	0.997250	0.774880	0.058770
O7261	O726	0.942000	0.773860	0.070800
O7271	O727	0.006130	0.659060	0.054790
C8111	C811	0.009300	0.637300	0.066800
C8121	C812	0.011600	0.614200	0.047800
O7281	O728	0.010260	0.634920	0.092390
C8131	C813	0.017400	0.589700	0.058300
C8141	C814	0.006300	0.617000	0.022300
H4511	H451	0.020400	0.588400	0.077000
C8151	C815	0.019100	0.565000	0.041900
C8161	C816	0.009300	0.593600	0.003500
H4521	H452	0.000500	0.633800	0.015600
H4531	H453	0.022900	0.548100	0.049600
C8171	C817	0.014900	0.568200	0.013700
H4541	H454	0.007300	0.596100	0.984700
C8181	C818	0.017800	0.543300	0.996900
C8191	C819	0.040100	0.526500	0.000300
H4551	H455	0.052800	0.530000	0.014000
Mo2741	Mo274	0.439820	0.208330	0.606790
O7291	O729	0.474330	0.188350	0.603990
O7301	O730	0.415620	0.243060	0.609280
O7311	O731	0.448040	0.217820	0.568370
O7321	O732	0.443590	0.213630	0.645580
Mo2751	Mo275	0.467260	0.247340	0.556030
Mo2761	Mo276	0.433480	0.280850	0.607310
Zn921	Zn92	0.505180	0.191060	0.578440
O7331	O733	0.497250	0.274880	0.558770
O7341	O734	0.442000	0.273860	0.570800
O7351	O735	0.506130	0.159060	0.554790
C8201	C820	0.509300	0.137300	0.566800
C8211	C821	0.511600	0.114200	0.547800
O7361	O736	0.510260	0.134920	0.592390
C8221	C822	0.517400	0.089700	0.558300
C8231	C823	0.506300	0.117000	0.522300
H4561	H456	0.520400	0.088400	0.577000
C8241	C824	0.519100	0.065000	0.541900
C8251	C825	0.509300	0.093600	0.503500
H4571	H457	0.500500	0.133800	0.515600
H4581	H458	0.522900	0.048100	0.549600
C8261	C826	0.514900	0.068200	0.513700
H4591	H459	0.507300	0.096100	0.484700
C8271	C827	0.517800	0.043300	0.496900
C8281	C828	0.540100	0.026500	0.500300
H4601	H460	0.552800	0.030000	0.514000
Mo2771	Mo277	0.560180	0.291670	0.606790
O7371	O737	0.525670	0.311650	0.603990
O7381	O738	0.584380	0.256940	0.609280
O7391	O739	0.551960	0.282180	0.568370
O7401	O740	0.556410	0.286370	0.645580
Mo2781	Mo278	0.532740	0.252660	0.556030
Mo2791	Mo279	0.566520	0.219150	0.607310
Zn931	Zn93	0.494820	0.308940	0.578440
O7411	O741	0.502750	0.225120	0.558770
O7421	O742	0.558000	0.226140	0.570800
O7431	O743	0.493870	0.340940	0.554790
C8291	C829	0.490700	0.362700	0.566800
C8301	C830	0.488400	0.385800	0.547800
O7441	O744	0.489740	0.365080	0.592390
C8311	C831	0.482600	0.410300	0.558300
C8321	C832	0.493700	0.383000	0.522300
H4611	H461	0.479600	0.411600	0.577000
C8331	C833	0.480900	0.435000	0.541900
C8341	C834	0.490700	0.406400	0.503500
H4621	H462	0.499500	0.366200	0.515600
H4631	H463	0.477100	0.451900	0.549600
C8351	C835	0.485100	0.431800	0.513700
H4641	H464	0.492700	0.403900	0.484700
C8361	C836	0.482200	0.456700	0.496900
C8371	C837	0.459900	0.473500	0.500300
H4651	H465	0.447200	0.470000	0.514000
Mo2801	Mo280	0.060180	0.791670	0.106790
O7451	O745	0.025670	0.811650	0.103990
O7461	O746	0.084380	0.756940	0.109280
O7471	O747	0.051960	0.782180	0.068370
O7481	O748	0.056410	0.786370	0.145580
Mo2811	Mo281	0.032740	0.752660	0.056030
Mo2821	Mo282	0.066520	0.719150	0.107310
Zn941	Zn94	0.994820	0.808940	0.078440
O7491	O749	0.002750	0.725120	0.058770
O7501	O750	0.058000	0.726140	0.070800
O7511	O751	0.993870	0.840940	0.054790
C8381	C838	0.990700	0.862700	0.066800
C8391	C839	0.988400	0.885800	0.047800
O7521	O752	0.989740	0.865080	0.092390
C8401	C840	0.982600	0.910300	0.058300
C8411	C841	0.993700	0.883000	0.022300
H4661	H466	0.979600	0.911600	0.077000
C8421	C842	0.980900	0.935000	0.041900
C8431	C843	0.990700	0.906400	0.003500
H4671	H467	0.999500	0.866200	0.015600
H4681	H468	0.977100	0.951900	0.049600
C8441	C844	0.985100	0.931800	0.013700
H4691	H469	0.992700	0.903900	0.984700
C8451	C845	0.982200	0.956700	0.996900
C8461	C846	0.959900	0.973500	0.000300
H4701	H470	0.947200	0.970000	0.014000
Mo2831	Mo283	0.439820	0.791670	0.893210
O7531	O753	0.474330	0.811650	0.896010
O7541	O754	0.415620	0.756940	0.890720
O7551	O755	0.448040	0.782180	0.931630
O7561	O756	0.443590	0.786370	0.854420
Mo2841	Mo284	0.467260	0.752660	0.943970
Mo2851	Mo285	0.433480	0.719150	0.892690
Zn951	Zn95	0.505180	0.808940	0.921560
O7571	O757	0.497250	0.725120	0.941230
O7581	O758	0.442000	0.726140	0.929200
O7591	O759	0.506130	0.840940	0.945210
C8471	C847	0.509300	0.862700	0.933200
C8481	C848	0.511600	0.885800	0.952200
O7601	O760	0.510260	0.865080	0.907610
C8491	C849	0.517400	0.910300	0.941700
C8501	C850	0.506300	0.883000	0.977700
H4711	H471	0.520400	0.911600	0.923000
C8511	C851	0.519100	0.935000	0.958100
C8521	C852	0.509300	0.906400	0.996500
H4721	H472	0.500500	0.866200	0.984400
H4731	H473	0.522900	0.951900	0.950400
C8531	C853	0.514900	0.931800	0.986300
H4741	H474	0.507300	0.903900	0.015300
C8541	C854	0.517800	0.956700	0.003100
C8551	C855	0.540100	0.973500	0.999700
H4751	H475	0.552800	0.970000	0.986000
Mo2861	Mo286	0.939820	0.291670	0.393210
O7611	O761	0.974330	0.311650	0.396010
O7621	O762	0.915620	0.256940	0.390720
O7631	O763	0.948040	0.282180	0.431630
O7641	O764	0.943590	0.286370	0.354420
Mo2871	Mo287	0.967260	0.252660	0.443970
Mo2881	Mo288	0.933480	0.219150	0.392690
Zn961	Zn96	0.005180	0.308940	0.421560
O7651	O765	0.997250	0.225120	0.441230
O7661	O766	0.942000	0.226140	0.429200
O7671	O767	0.006130	0.340940	0.445210
C8561	C856	0.009300	0.362700	0.433200
C8571	C857	0.011600	0.385800	0.452200
O7681	O768	0.010260	0.365080	0.407610
C8581	C858	0.017400	0.410300	0.441700
C8591	C859	0.006300	0.383000	0.477700
H4761	H476	0.020400	0.411600	0.423000
C8601	C860	0.019100	0.435000	0.458100
C8611	C861	0.009300	0.406400	0.496500
H4771	H477	0.000500	0.366200	0.484400
H4781	H478	0.022900	0.451900	0.450400
C8621	C862	0.014900	0.431800	0.486300
H4791	H479	0.007300	0.403900	0.515300
C8631	C863	0.017800	0.456700	0.503100
C8641	C864	0.040100	0.473500	0.499700
H4801	H480	0.052800	0.470000	0.486000
