data_OJAKOA_clean_PM
_symmetry_space_group_name_H-M	'P1'
_cell_length_a	9.016700
_cell_length_b	15.131300
_cell_length_c	16.828400
_cell_angle_alpha	90.000000
_cell_angle_beta	90.000000
_cell_angle_gamma	103.841000
_symmetry_Int_Tables_number 1

loop_
_symmetry_equiv_pos_as_xyz
'x,y,z'

loop_
_atom_site_label
_atom_site_type_symbol
_atom_site_fract_x
_atom_site_fract_y
_atom_site_fract_z
Pr11	Pr1	0.432710	0.038540	0.890870
Pr21	Pr2	0.067290	0.961460	0.390870
Pr31	Pr3	0.567290	0.961460	0.109130
Pr41	Pr4	0.932710	0.038540	0.609130
H11	H1	0.995600	0.861500	0.991200
H21	H2	0.966900	0.911900	0.069000
H31	H3	0.146300	0.783700	0.946700
H41	H4	0.242300	0.665600	0.900000
H51	H5	0.134600	0.532200	0.105100
H61	H6	0.034800	0.648700	0.151000
H71	H7	0.151200	0.420500	0.043600
H81	H8	0.651600	0.365700	0.760000
H91	H9	0.568200	0.492700	0.791700
H101	H10	0.450300	0.269600	0.053100
H111	H11	0.288600	0.201800	0.058400
H121	H12	0.652100	0.240200	0.721600
H131	H13	0.778100	0.225500	0.781200
H141	H14	0.504400	0.138500	0.491200
H151	H15	0.533100	0.088100	0.569000
H161	H16	0.353700	0.216300	0.446700
H171	H17	0.257700	0.334400	0.400000
H181	H18	0.365400	0.467800	0.605100
H191	H19	0.465200	0.351300	0.651000
H201	H20	0.348800	0.579500	0.543600
H211	H21	0.848400	0.634300	0.260000
H221	H22	0.931800	0.507300	0.291700
H231	H23	0.049700	0.730400	0.553100
H241	H24	0.211400	0.798200	0.558400
H251	H25	0.847900	0.759800	0.221600
H261	H26	0.721900	0.774500	0.281200
H271	H27	0.004400	0.138500	0.008800
H281	H28	0.033100	0.088100	0.931000
H291	H29	0.853700	0.216300	0.053300
H301	H30	0.757700	0.334400	0.100000
H311	H31	0.865400	0.467800	0.894900
H321	H32	0.965200	0.351300	0.849000
H331	H33	0.848800	0.579500	0.956400
H341	H34	0.348400	0.634300	0.240000
H351	H35	0.431800	0.507300	0.208300
H361	H36	0.549700	0.730400	0.946900
H371	H37	0.711400	0.798200	0.941600
H381	H38	0.347900	0.759800	0.278400
H391	H39	0.221900	0.774500	0.218800
H401	H40	0.495600	0.861500	0.508800
H411	H41	0.466900	0.911900	0.431000
H421	H42	0.646300	0.783700	0.553300
H431	H43	0.742300	0.665600	0.600000
H441	H44	0.634600	0.532200	0.394900
H451	H45	0.534800	0.648700	0.349000
H461	H46	0.651200	0.420500	0.456400
H471	H47	0.151600	0.365700	0.740000
H481	H48	0.068200	0.492700	0.708300
H491	H49	0.950300	0.269600	0.446900
H501	H50	0.788600	0.201800	0.441600
H511	H51	0.152100	0.240200	0.778400
H521	H52	0.278100	0.225500	0.718800
C11	C1	0.194000	0.937700	0.039700
C21	C2	0.032800	0.877400	0.044700
C31	C3	0.082900	0.729600	0.054600
C41	C4	0.144100	0.733400	0.978900
C51	C5	0.202100	0.662100	0.951100
C61	C6	0.202200	0.585600	0.996900
C71	C7	0.137700	0.582400	0.072800
C81	C8	0.078400	0.652800	0.100600
C91	C9	0.377700	0.520500	0.903900
C101	C10	0.266400	0.509100	0.968400
C111	C11	0.223200	0.426800	0.003100
C121	C12	0.377800	0.357700	0.924800
C131	C13	0.431900	0.280100	0.908900
C141	C14	0.530400	0.283100	0.844900
C151	C15	0.582800	0.363700	0.801500
C161	C16	0.532300	0.439400	0.820500
C171	C17	0.428500	0.438400	0.881700
C181	C18	0.391700	0.209400	0.038200
C191	C19	0.463700	0.137700	0.073700
C201	C20	0.673500	0.201700	0.764100
C211	C21	0.654600	0.105900	0.733700
C221	C22	0.306000	0.062300	0.539700
C231	C23	0.467200	0.122600	0.544700
C241	C24	0.417100	0.270400	0.554600
C251	C25	0.355900	0.266600	0.478900
C261	C26	0.297900	0.337900	0.451100
C271	C27	0.297800	0.414400	0.496900
C281	C28	0.362300	0.417600	0.572800
C291	C29	0.421600	0.347200	0.600600
C301	C30	0.122300	0.479500	0.403900
C311	C31	0.233600	0.490900	0.468400
C321	C32	0.276800	0.573200	0.503100
C331	C33	0.122200	0.642300	0.424800
C341	C34	0.068100	0.719900	0.408900
C351	C35	0.969600	0.716900	0.344900
C361	C36	0.917200	0.636300	0.301500
C371	C37	0.967700	0.560600	0.320500
C381	C38	0.071500	0.561600	0.381700
C391	C39	0.108300	0.790600	0.538200
C401	C40	0.036300	0.862300	0.573700
C411	C41	0.826500	0.798300	0.264100
C421	C42	0.845400	0.894100	0.233700
C431	C43	0.806000	0.062300	0.960300
C441	C44	0.967200	0.122600	0.955300
C451	C45	0.917100	0.270400	0.945400
C461	C46	0.855900	0.266600	0.021100
C471	C47	0.797900	0.337900	0.048900
C481	C48	0.797800	0.414400	0.003100
C491	C49	0.862300	0.417600	0.927200
C501	C50	0.921600	0.347200	0.899400
C511	C51	0.622300	0.479500	0.096100
C521	C52	0.733600	0.490900	0.031600
C531	C53	0.776800	0.573200	0.996900
C541	C54	0.622200	0.642300	0.075200
C551	C55	0.568100	0.719900	0.091100
C561	C56	0.469600	0.716900	0.155100
C571	C57	0.417200	0.636300	0.198500
C581	C58	0.467700	0.560600	0.179500
C591	C59	0.571500	0.561600	0.118300
C601	C60	0.608300	0.790600	0.961800
C611	C61	0.536300	0.862300	0.926300
C621	C62	0.326500	0.798300	0.235900
C631	C63	0.345400	0.894100	0.266300
C641	C64	0.694000	0.937700	0.460300
C651	C65	0.532800	0.877400	0.455300
C661	C66	0.582900	0.729600	0.445400
C671	C67	0.644100	0.733400	0.521100
C681	C68	0.702100	0.662100	0.548900
C691	C69	0.702200	0.585600	0.503100
C701	C70	0.637700	0.582400	0.427200
C711	C71	0.578400	0.652800	0.399400
C721	C72	0.877700	0.520500	0.596100
C731	C73	0.766400	0.509100	0.531600
C741	C74	0.723200	0.426800	0.496900
C751	C75	0.877800	0.357700	0.575200
C761	C76	0.931900	0.280100	0.591100
C771	C77	0.030400	0.283100	0.655100
C781	C78	0.082800	0.363700	0.698500
C791	C79	0.032300	0.439400	0.679500
C801	C80	0.928500	0.438400	0.618300
C811	C81	0.891700	0.209400	0.461800
C821	C82	0.963700	0.137700	0.426300
C831	C83	0.173500	0.201700	0.735900
C841	C84	0.154600	0.105900	0.766300
O11	O1	0.218200	0.992700	0.982900
O21	O2	0.286700	0.930100	0.093300
O31	O3	0.022100	0.795300	0.089250
O41	O4	0.429600	0.592900	0.869100
O51	O5	0.274600	0.352000	0.984530
O61	O6	0.388000	0.200800	0.951400
O71	O7	0.463000	0.129300	0.145600
O81	O8	0.522100	0.090400	0.027300
O91	O9	0.572100	0.203450	0.829350
O101	O10	0.748000	0.098900	0.680400
O111	O11	0.548200	0.044200	0.758410
O121	O12	0.281800	0.007300	0.482900
O131	O13	0.213300	0.069900	0.593300
O141	O14	0.477900	0.204700	0.589250
O151	O15	0.070400	0.407100	0.369100
O161	O16	0.225400	0.648000	0.484530
O171	O17	0.112000	0.799200	0.451400
O181	O18	0.037000	0.870700	0.645600
O191	O19	0.977900	0.909600	0.527300
O201	O20	0.927900	0.796550	0.329350
O211	O21	0.752000	0.901100	0.180400
O221	O22	0.951800	0.955800	0.258410
O231	O23	0.781800	0.007300	0.017100
O241	O24	0.713300	0.069900	0.906700
O251	O25	0.977900	0.204700	0.910750
O261	O26	0.570400	0.407100	0.130900
O271	O27	0.725400	0.648000	0.015470
O281	O28	0.612000	0.799200	0.048600
O291	O29	0.537000	0.870700	0.854400
O301	O30	0.477900	0.909600	0.972700
O311	O31	0.427900	0.796550	0.170650
O321	O32	0.252000	0.901100	0.319600
O331	O33	0.451800	0.955800	0.241590
O341	O34	0.718200	0.992700	0.517100
O351	O35	0.786700	0.930100	0.406700
O361	O36	0.522100	0.795300	0.410750
O371	O37	0.929600	0.592900	0.630900
O381	O38	0.774600	0.352000	0.515470
O391	O39	0.888000	0.200800	0.548600
O401	O40	0.963000	0.129300	0.354400
O411	O41	0.022100	0.090400	0.472700
O421	O42	0.072100	0.203450	0.670650
O431	O43	0.248000	0.098900	0.819600
O441	O44	0.048200	0.044200	0.741590
