data_OJAZOP_clean_PM
_symmetry_space_group_name_H-M	'P1'
_cell_length_a	34.183700
_cell_length_b	34.183700
_cell_length_c	34.183700
_cell_angle_alpha	90.000000
_cell_angle_beta	90.000000
_cell_angle_gamma	90.000000
_symmetry_Int_Tables_number 1

loop_
_symmetry_equiv_pos_as_xyz
'x,y,z'

loop_
_atom_site_label
_atom_site_type_symbol
_atom_site_fract_x
_atom_site_fract_y
_atom_site_fract_z
Nd11	Nd1	0.630510	0.542540	0.701560
Nd21	Nd2	0.547600	0.619300	0.707660
Ge11	Ge1	0.716480	0.599430	0.715190
Ge21	Ge2	0.639040	0.638800	0.754450
Ge31	Ge3	0.541170	0.528720	0.649820
Ge41	Ge4	0.495610	0.604420	0.618530
C11	C1	0.752000	0.569400	0.747900
C21	C2	0.733800	0.554400	0.785300
C31	C3	0.692800	0.537600	0.781200
C41	C4	0.636300	0.625700	0.810100
C51	C5	0.605400	0.648000	0.829500
C61	C6	0.568400	0.649900	0.806700
C71	C7	0.509700	0.495400	0.682500
C81	C8	0.528800	0.455900	0.693900
C91	C9	0.565300	0.461800	0.716300
C101	C10	0.440400	0.609200	0.625300
C111	C11	0.424900	0.583900	0.657800
C121	C12	0.450000	0.584500	0.693900
O11	O1	0.690100	0.637400	0.740100
O21	O2	0.566900	0.504100	0.612400
O31	O3	0.512200	0.555000	0.614300
O41	O4	0.743100	0.638100	0.690100
O51	O5	0.619000	0.612000	0.715000
O61	O6	0.688900	0.575100	0.679800
O71	O7	0.570600	0.563500	0.672500
O81	O8	0.642000	0.527900	0.634900
O91	O9	0.670500	0.555300	0.757800
O101	O10	0.683100	0.509300	0.800100
O111	O11	0.573400	0.648400	0.768800
O121	O12	0.537100	0.654200	0.821100
O131	O13	0.591300	0.485300	0.702900
O141	O14	0.572000	0.441500	0.746600
O151	O15	0.486900	0.584300	0.689500
O161	O16	0.436200	0.584100	0.726700
Nd31	Nd3	0.130510	0.042540	0.201560
Nd41	Nd4	0.047600	0.119300	0.207660
Ge51	Ge5	0.216480	0.099430	0.215190
Ge61	Ge6	0.139040	0.138800	0.254450
Ge71	Ge7	0.041170	0.028720	0.149820
Ge81	Ge8	0.995610	0.104420	0.118530
C131	C13	0.252000	0.069400	0.247900
C141	C14	0.233800	0.054400	0.285300
C151	C15	0.192800	0.037600	0.281200
C161	C16	0.136300	0.125700	0.310100
C171	C17	0.105400	0.148000	0.329500
C181	C18	0.068400	0.149900	0.306700
C191	C19	0.009700	0.995400	0.182500
C201	C20	0.028800	0.955900	0.193900
C211	C21	0.065300	0.961800	0.216300
C221	C22	0.940400	0.109200	0.125300
C231	C23	0.924900	0.083900	0.157800
C241	C24	0.950000	0.084500	0.193900
O171	O17	0.190100	0.137400	0.240100
O181	O18	0.066900	0.004100	0.112400
O191	O19	0.012200	0.055000	0.114300
O201	O20	0.243100	0.138100	0.190100
O211	O21	0.119000	0.112000	0.215000
O221	O22	0.188900	0.075100	0.179800
O231	O23	0.070600	0.063500	0.172500
O241	O24	0.142000	0.027900	0.134900
O251	O25	0.170500	0.055300	0.257800
O261	O26	0.183100	0.009300	0.300100
O271	O27	0.073400	0.148400	0.268800
O281	O28	0.037100	0.154200	0.321100
O291	O29	0.091300	0.985300	0.202900
O301	O30	0.072000	0.941500	0.246600
O311	O31	0.986900	0.084300	0.189500
O321	O32	0.936200	0.084100	0.226700
Nd51	Nd5	0.869490	0.457460	0.201560
Nd61	Nd6	0.952400	0.380700	0.207660
Ge91	Ge9	0.783520	0.400570	0.215190
Ge101	Ge10	0.860960	0.361200	0.254450
Ge111	Ge11	0.958830	0.471280	0.149820
Ge121	Ge12	0.004390	0.395580	0.118530
C251	C25	0.748000	0.430600	0.247900
C261	C26	0.766200	0.445600	0.285300
C271	C27	0.807200	0.462400	0.281200
C281	C28	0.863700	0.374300	0.310100
C291	C29	0.894600	0.352000	0.329500
C301	C30	0.931600	0.350100	0.306700
C311	C31	0.990300	0.504600	0.182500
C321	C32	0.971200	0.544100	0.193900
C331	C33	0.934700	0.538200	0.216300
C341	C34	0.059600	0.390800	0.125300
C351	C35	0.075100	0.416100	0.157800
C361	C36	0.050000	0.415500	0.193900
O331	O33	0.809900	0.362600	0.240100
O341	O34	0.933100	0.495900	0.112400
O351	O35	0.987800	0.445000	0.114300
O361	O36	0.756900	0.361900	0.190100
O371	O37	0.881000	0.388000	0.215000
O381	O38	0.811100	0.424900	0.179800
O391	O39	0.929400	0.436500	0.172500
O401	O40	0.858000	0.472100	0.134900
O411	O41	0.829500	0.444700	0.257800
O421	O42	0.816900	0.490700	0.300100
O431	O43	0.926600	0.351600	0.268800
O441	O44	0.962900	0.345800	0.321100
O451	O45	0.908700	0.514700	0.202900
O461	O46	0.928000	0.558500	0.246600
O471	O47	0.013100	0.415700	0.189500
O481	O48	0.063800	0.415900	0.226700
Nd71	Nd7	0.369490	0.957460	0.701560
Nd81	Nd8	0.452400	0.880700	0.707660
Ge131	Ge13	0.283520	0.900570	0.715190
Ge141	Ge14	0.360960	0.861200	0.754450
Ge151	Ge15	0.458830	0.971280	0.649820
Ge161	Ge16	0.504390	0.895580	0.618530
C371	C37	0.248000	0.930600	0.747900
C381	C38	0.266200	0.945600	0.785300
C391	C39	0.307200	0.962400	0.781200
C401	C40	0.363700	0.874300	0.810100
C411	C41	0.394600	0.852000	0.829500
C421	C42	0.431600	0.850100	0.806700
C431	C43	0.490300	0.004600	0.682500
C441	C44	0.471200	0.044100	0.693900
C451	C45	0.434700	0.038200	0.716300
C461	C46	0.559600	0.890800	0.625300
C471	C47	0.575100	0.916100	0.657800
C481	C48	0.550000	0.915500	0.693900
O491	O49	0.309900	0.862600	0.740100
O501	O50	0.433100	0.995900	0.612400
O511	O51	0.487800	0.945000	0.614300
O521	O52	0.256900	0.861900	0.690100
O531	O53	0.381000	0.888000	0.715000
O541	O54	0.311100	0.924900	0.679800
O551	O55	0.429400	0.936500	0.672500
O561	O56	0.358000	0.972100	0.634900
O571	O57	0.329500	0.944700	0.757800
O581	O58	0.316900	0.990700	0.800100
O591	O59	0.426600	0.851600	0.768800
O601	O60	0.462900	0.845800	0.821100
O611	O61	0.408700	0.014700	0.702900
O621	O62	0.428000	0.058500	0.746600
O631	O63	0.513100	0.915700	0.689500
O641	O64	0.563800	0.915900	0.726700
Nd91	Nd9	0.369490	0.042540	0.798440
Nd101	Nd10	0.452400	0.119300	0.792340
Ge171	Ge17	0.283520	0.099430	0.784810
Ge181	Ge18	0.360960	0.138800	0.745550
Ge191	Ge19	0.458830	0.028720	0.850180
Ge201	Ge20	0.504390	0.104420	0.881470
C491	C49	0.248000	0.069400	0.752100
C501	C50	0.266200	0.054400	0.714700
C511	C51	0.307200	0.037600	0.718800
C521	C52	0.363700	0.125700	0.689900
C531	C53	0.394600	0.148000	0.670500
C541	C54	0.431600	0.149900	0.693300
C551	C55	0.490300	0.995400	0.817500
C561	C56	0.471200	0.955900	0.806100
C571	C57	0.434700	0.961800	0.783700
C581	C58	0.559600	0.109200	0.874700
C591	C59	0.575100	0.083900	0.842200
C601	C60	0.550000	0.084500	0.806100
O651	O65	0.309900	0.137400	0.759900
O661	O66	0.433100	0.004100	0.887600
O671	O67	0.487800	0.055000	0.885700
O681	O68	0.256900	0.138100	0.809900
O691	O69	0.381000	0.112000	0.785000
O701	O70	0.311100	0.075100	0.820200
O711	O71	0.429400	0.063500	0.827500
O721	O72	0.358000	0.027900	0.865100
O731	O73	0.329500	0.055300	0.742200
O741	O74	0.316900	0.009300	0.699900
O751	O75	0.426600	0.148400	0.731200
O761	O76	0.462900	0.154200	0.678900
O771	O77	0.408700	0.985300	0.797100
O781	O78	0.428000	0.941500	0.753400
O791	O79	0.513100	0.084300	0.810500
O801	O80	0.563800	0.084100	0.773300
Nd111	Nd11	0.869490	0.542540	0.298440
Nd121	Nd12	0.952400	0.619300	0.292340
Ge211	Ge21	0.783520	0.599430	0.284810
Ge221	Ge22	0.860960	0.638800	0.245550
Ge231	Ge23	0.958830	0.528720	0.350180
Ge241	Ge24	0.004390	0.604420	0.381470
C611	C61	0.748000	0.569400	0.252100
C621	C62	0.766200	0.554400	0.214700
C631	C63	0.807200	0.537600	0.218800
C641	C64	0.863700	0.625700	0.189900
C651	C65	0.894600	0.648000	0.170500
C661	C66	0.931600	0.649900	0.193300
C671	C67	0.990300	0.495400	0.317500
C681	C68	0.971200	0.455900	0.306100
C691	C69	0.934700	0.461800	0.283700
C701	C70	0.059600	0.609200	0.374700
C711	C71	0.075100	0.583900	0.342200
C721	C72	0.050000	0.584500	0.306100
O811	O81	0.809900	0.637400	0.259900
O821	O82	0.933100	0.504100	0.387600
O831	O83	0.987800	0.555000	0.385700
O841	O84	0.756900	0.638100	0.309900
O851	O85	0.881000	0.612000	0.285000
O861	O86	0.811100	0.575100	0.320200
O871	O87	0.929400	0.563500	0.327500
O881	O88	0.858000	0.527900	0.365100
O891	O89	0.829500	0.555300	0.242200
O901	O90	0.816900	0.509300	0.199900
O911	O91	0.926600	0.648400	0.231200
O921	O92	0.962900	0.654200	0.178900
O931	O93	0.908700	0.485300	0.297100
O941	O94	0.928000	0.441500	0.253400
O951	O95	0.013100	0.584300	0.310500
O961	O96	0.063800	0.584100	0.273300
Nd131	Nd13	0.130510	0.957460	0.298440
Nd141	Nd14	0.047600	0.880700	0.292340
Ge251	Ge25	0.216480	0.900570	0.284810
Ge261	Ge26	0.139040	0.861200	0.245550
Ge271	Ge27	0.041170	0.971280	0.350180
Ge281	Ge28	0.995610	0.895580	0.381470
C731	C73	0.252000	0.930600	0.252100
C741	C74	0.233800	0.945600	0.214700
C751	C75	0.192800	0.962400	0.218800
C761	C76	0.136300	0.874300	0.189900
C771	C77	0.105400	0.852000	0.170500
C781	C78	0.068400	0.850100	0.193300
C791	C79	0.009700	0.004600	0.317500
C801	C80	0.028800	0.044100	0.306100
C811	C81	0.065300	0.038200	0.283700
C821	C82	0.940400	0.890800	0.374700
C831	C83	0.924900	0.916100	0.342200
C841	C84	0.950000	0.915500	0.306100
O971	O97	0.190100	0.862600	0.259900
O981	O98	0.066900	0.995900	0.387600
O991	O99	0.012200	0.945000	0.385700
O1001	O100	0.243100	0.861900	0.309900
O1011	O101	0.119000	0.888000	0.285000
O1021	O102	0.188900	0.924900	0.320200
O1031	O103	0.070600	0.936500	0.327500
O1041	O104	0.142000	0.972100	0.365100
O1051	O105	0.170500	0.944700	0.242200
O1061	O106	0.183100	0.990700	0.199900
O1071	O107	0.073400	0.851600	0.231200
O1081	O108	0.037100	0.845800	0.178900
O1091	O109	0.091300	0.014700	0.297100
O1101	O110	0.072000	0.058500	0.253400
O1111	O111	0.986900	0.915700	0.310500
O1121	O112	0.936200	0.915900	0.273300
Nd151	Nd15	0.630510	0.457460	0.798440
Nd161	Nd16	0.547600	0.380700	0.792340
Ge291	Ge29	0.716480	0.400570	0.784810
Ge301	Ge30	0.639040	0.361200	0.745550
Ge311	Ge31	0.541170	0.471280	0.850180
Ge321	Ge32	0.495610	0.395580	0.881470
C851	C85	0.752000	0.430600	0.752100
C861	C86	0.733800	0.445600	0.714700
C871	C87	0.692800	0.462400	0.718800
C881	C88	0.636300	0.374300	0.689900
C891	C89	0.605400	0.352000	0.670500
C901	C90	0.568400	0.350100	0.693300
C911	C91	0.509700	0.504600	0.817500
C921	C92	0.528800	0.544100	0.806100
C931	C93	0.565300	0.538200	0.783700
C941	C94	0.440400	0.390800	0.874700
C951	C95	0.424900	0.416100	0.842200
C961	C96	0.450000	0.415500	0.806100
O1131	O113	0.690100	0.362600	0.759900
O1141	O114	0.566900	0.495900	0.887600
O1151	O115	0.512200	0.445000	0.885700
O1161	O116	0.743100	0.361900	0.809900
O1171	O117	0.619000	0.388000	0.785000
O1181	O118	0.688900	0.424900	0.820200
O1191	O119	0.570600	0.436500	0.827500
O1201	O120	0.642000	0.472100	0.865100
O1211	O121	0.670500	0.444700	0.742200
O1221	O122	0.683100	0.490700	0.699900
O1231	O123	0.573400	0.351600	0.731200
O1241	O124	0.537100	0.345800	0.678900
O1251	O125	0.591300	0.514700	0.797100
O1261	O126	0.572000	0.558500	0.753400
O1271	O127	0.486900	0.415700	0.810500
O1281	O128	0.436200	0.415900	0.773300
Nd171	Nd17	0.701560	0.630510	0.542540
Nd181	Nd18	0.707660	0.547600	0.619300
Ge331	Ge33	0.715190	0.716480	0.599430
Ge341	Ge34	0.754450	0.639040	0.638800
Ge351	Ge35	0.649820	0.541170	0.528720
Ge361	Ge36	0.618530	0.495610	0.604420
C971	C97	0.747900	0.752000	0.569400
C981	C98	0.785300	0.733800	0.554400
C991	C99	0.781200	0.692800	0.537600
C1001	C100	0.810100	0.636300	0.625700
C1011	C101	0.829500	0.605400	0.648000
C1021	C102	0.806700	0.568400	0.649900
C1031	C103	0.682500	0.509700	0.495400
C1041	C104	0.693900	0.528800	0.455900
C1051	C105	0.716300	0.565300	0.461800
C1061	C106	0.625300	0.440400	0.609200
C1071	C107	0.657800	0.424900	0.583900
C1081	C108	0.693900	0.450000	0.584500
O1291	O129	0.740100	0.690100	0.637400
O1301	O130	0.612400	0.566900	0.504100
O1311	O131	0.614300	0.512200	0.555000
O1321	O132	0.690100	0.743100	0.638100
O1331	O133	0.715000	0.619000	0.612000
O1341	O134	0.679800	0.688900	0.575100
O1351	O135	0.672500	0.570600	0.563500
O1361	O136	0.634900	0.642000	0.527900
O1371	O137	0.757800	0.670500	0.555300
O1381	O138	0.800100	0.683100	0.509300
O1391	O139	0.768800	0.573400	0.648400
O1401	O140	0.821100	0.537100	0.654200
O1411	O141	0.702900	0.591300	0.485300
O1421	O142	0.746600	0.572000	0.441500
O1431	O143	0.689500	0.486900	0.584300
O1441	O144	0.726700	0.436200	0.584100
Nd191	Nd19	0.201560	0.130510	0.042540
Nd201	Nd20	0.207660	0.047600	0.119300
Ge371	Ge37	0.215190	0.216480	0.099430
Ge381	Ge38	0.254450	0.139040	0.138800
Ge391	Ge39	0.149820	0.041170	0.028720
Ge401	Ge40	0.118530	0.995610	0.104420
C1091	C109	0.247900	0.252000	0.069400
C1101	C110	0.285300	0.233800	0.054400
C1111	C111	0.281200	0.192800	0.037600
C1121	C112	0.310100	0.136300	0.125700
C1131	C113	0.329500	0.105400	0.148000
C1141	C114	0.306700	0.068400	0.149900
C1151	C115	0.182500	0.009700	0.995400
C1161	C116	0.193900	0.028800	0.955900
C1171	C117	0.216300	0.065300	0.961800
C1181	C118	0.125300	0.940400	0.109200
C1191	C119	0.157800	0.924900	0.083900
C1201	C120	0.193900	0.950000	0.084500
O1451	O145	0.240100	0.190100	0.137400
O1461	O146	0.112400	0.066900	0.004100
O1471	O147	0.114300	0.012200	0.055000
O1481	O148	0.190100	0.243100	0.138100
O1491	O149	0.215000	0.119000	0.112000
O1501	O150	0.179800	0.188900	0.075100
O1511	O151	0.172500	0.070600	0.063500
O1521	O152	0.134900	0.142000	0.027900
O1531	O153	0.257800	0.170500	0.055300
O1541	O154	0.300100	0.183100	0.009300
O1551	O155	0.268800	0.073400	0.148400
O1561	O156	0.321100	0.037100	0.154200
O1571	O157	0.202900	0.091300	0.985300
O1581	O158	0.246600	0.072000	0.941500
O1591	O159	0.189500	0.986900	0.084300
O1601	O160	0.226700	0.936200	0.084100
Nd211	Nd21	0.201560	0.869490	0.457460
Nd221	Nd22	0.207660	0.952400	0.380700
Ge411	Ge41	0.215190	0.783520	0.400570
Ge421	Ge42	0.254450	0.860960	0.361200
Ge431	Ge43	0.149820	0.958830	0.471280
Ge441	Ge44	0.118530	0.004390	0.395580
C1211	C121	0.247900	0.748000	0.430600
C1221	C122	0.285300	0.766200	0.445600
C1231	C123	0.281200	0.807200	0.462400
C1241	C124	0.310100	0.863700	0.374300
C1251	C125	0.329500	0.894600	0.352000
C1261	C126	0.306700	0.931600	0.350100
C1271	C127	0.182500	0.990300	0.504600
C1281	C128	0.193900	0.971200	0.544100
C1291	C129	0.216300	0.934700	0.538200
C1301	C130	0.125300	0.059600	0.390800
C1311	C131	0.157800	0.075100	0.416100
C1321	C132	0.193900	0.050000	0.415500
O1611	O161	0.240100	0.809900	0.362600
O1621	O162	0.112400	0.933100	0.495900
O1631	O163	0.114300	0.987800	0.445000
O1641	O164	0.190100	0.756900	0.361900
O1651	O165	0.215000	0.881000	0.388000
O1661	O166	0.179800	0.811100	0.424900
O1671	O167	0.172500	0.929400	0.436500
O1681	O168	0.134900	0.858000	0.472100
O1691	O169	0.257800	0.829500	0.444700
O1701	O170	0.300100	0.816900	0.490700
O1711	O171	0.268800	0.926600	0.351600
O1721	O172	0.321100	0.962900	0.345800
O1731	O173	0.202900	0.908700	0.514700
O1741	O174	0.246600	0.928000	0.558500
O1751	O175	0.189500	0.013100	0.415700
O1761	O176	0.226700	0.063800	0.415900
Nd231	Nd23	0.701560	0.369490	0.957460
Nd241	Nd24	0.707660	0.452400	0.880700
Ge451	Ge45	0.715190	0.283520	0.900570
Ge461	Ge46	0.754450	0.360960	0.861200
Ge471	Ge47	0.649820	0.458830	0.971280
Ge481	Ge48	0.618530	0.504390	0.895580
C1331	C133	0.747900	0.248000	0.930600
C1341	C134	0.785300	0.266200	0.945600
C1351	C135	0.781200	0.307200	0.962400
C1361	C136	0.810100	0.363700	0.874300
C1371	C137	0.829500	0.394600	0.852000
C1381	C138	0.806700	0.431600	0.850100
C1391	C139	0.682500	0.490300	0.004600
C1401	C140	0.693900	0.471200	0.044100
C1411	C141	0.716300	0.434700	0.038200
C1421	C142	0.625300	0.559600	0.890800
C1431	C143	0.657800	0.575100	0.916100
C1441	C144	0.693900	0.550000	0.915500
O1771	O177	0.740100	0.309900	0.862600
O1781	O178	0.612400	0.433100	0.995900
O1791	O179	0.614300	0.487800	0.945000
O1801	O180	0.690100	0.256900	0.861900
O1811	O181	0.715000	0.381000	0.888000
O1821	O182	0.679800	0.311100	0.924900
O1831	O183	0.672500	0.429400	0.936500
O1841	O184	0.634900	0.358000	0.972100
O1851	O185	0.757800	0.329500	0.944700
O1861	O186	0.800100	0.316900	0.990700
O1871	O187	0.768800	0.426600	0.851600
O1881	O188	0.821100	0.462900	0.845800
O1891	O189	0.702900	0.408700	0.014700
O1901	O190	0.746600	0.428000	0.058500
O1911	O191	0.689500	0.513100	0.915700
O1921	O192	0.726700	0.563800	0.915900
Nd251	Nd25	0.798440	0.369490	0.042540
Nd261	Nd26	0.792340	0.452400	0.119300
Ge491	Ge49	0.784810	0.283520	0.099430
Ge501	Ge50	0.745550	0.360960	0.138800
Ge511	Ge51	0.850180	0.458830	0.028720
Ge521	Ge52	0.881470	0.504390	0.104420
C1451	C145	0.752100	0.248000	0.069400
C1461	C146	0.714700	0.266200	0.054400
C1471	C147	0.718800	0.307200	0.037600
C1481	C148	0.689900	0.363700	0.125700
C1491	C149	0.670500	0.394600	0.148000
C1501	C150	0.693300	0.431600	0.149900
C1511	C151	0.817500	0.490300	0.995400
C1521	C152	0.806100	0.471200	0.955900
C1531	C153	0.783700	0.434700	0.961800
C1541	C154	0.874700	0.559600	0.109200
C1551	C155	0.842200	0.575100	0.083900
C1561	C156	0.806100	0.550000	0.084500
O1931	O193	0.759900	0.309900	0.137400
O1941	O194	0.887600	0.433100	0.004100
O1951	O195	0.885700	0.487800	0.055000
O1961	O196	0.809900	0.256900	0.138100
O1971	O197	0.785000	0.381000	0.112000
O1981	O198	0.820200	0.311100	0.075100
O1991	O199	0.827500	0.429400	0.063500
O2001	O200	0.865100	0.358000	0.027900
O2011	O201	0.742200	0.329500	0.055300
O2021	O202	0.699900	0.316900	0.009300
O2031	O203	0.731200	0.426600	0.148400
O2041	O204	0.678900	0.462900	0.154200
O2051	O205	0.797100	0.408700	0.985300
O2061	O206	0.753400	0.428000	0.941500
O2071	O207	0.810500	0.513100	0.084300
O2081	O208	0.773300	0.563800	0.084100
Nd271	Nd27	0.298440	0.869490	0.542540
Nd281	Nd28	0.292340	0.952400	0.619300
Ge531	Ge53	0.284810	0.783520	0.599430
Ge541	Ge54	0.245550	0.860960	0.638800
Ge551	Ge55	0.350180	0.958830	0.528720
Ge561	Ge56	0.381470	0.004390	0.604420
C1571	C157	0.252100	0.748000	0.569400
C1581	C158	0.214700	0.766200	0.554400
C1591	C159	0.218800	0.807200	0.537600
C1601	C160	0.189900	0.863700	0.625700
C1611	C161	0.170500	0.894600	0.648000
C1621	C162	0.193300	0.931600	0.649900
C1631	C163	0.317500	0.990300	0.495400
C1641	C164	0.306100	0.971200	0.455900
C1651	C165	0.283700	0.934700	0.461800
C1661	C166	0.374700	0.059600	0.609200
C1671	C167	0.342200	0.075100	0.583900
C1681	C168	0.306100	0.050000	0.584500
O2091	O209	0.259900	0.809900	0.637400
O2101	O210	0.387600	0.933100	0.504100
O2111	O211	0.385700	0.987800	0.555000
O2121	O212	0.309900	0.756900	0.638100
O2131	O213	0.285000	0.881000	0.612000
O2141	O214	0.320200	0.811100	0.575100
O2151	O215	0.327500	0.929400	0.563500
O2161	O216	0.365100	0.858000	0.527900
O2171	O217	0.242200	0.829500	0.555300
O2181	O218	0.199900	0.816900	0.509300
O2191	O219	0.231200	0.926600	0.648400
O2201	O220	0.178900	0.962900	0.654200
O2211	O221	0.297100	0.908700	0.485300
O2221	O222	0.253400	0.928000	0.441500
O2231	O223	0.310500	0.013100	0.584300
O2241	O224	0.273300	0.063800	0.584100
Nd291	Nd29	0.298440	0.130510	0.957460
Nd301	Nd30	0.292340	0.047600	0.880700
Ge571	Ge57	0.284810	0.216480	0.900570
Ge581	Ge58	0.245550	0.139040	0.861200
Ge591	Ge59	0.350180	0.041170	0.971280
Ge601	Ge60	0.381470	0.995610	0.895580
C1691	C169	0.252100	0.252000	0.930600
C1701	C170	0.214700	0.233800	0.945600
C1711	C171	0.218800	0.192800	0.962400
C1721	C172	0.189900	0.136300	0.874300
C1731	C173	0.170500	0.105400	0.852000
C1741	C174	0.193300	0.068400	0.850100
C1751	C175	0.317500	0.009700	0.004600
C1761	C176	0.306100	0.028800	0.044100
C1771	C177	0.283700	0.065300	0.038200
C1781	C178	0.374700	0.940400	0.890800
C1791	C179	0.342200	0.924900	0.916100
C1801	C180	0.306100	0.950000	0.915500
O2251	O225	0.259900	0.190100	0.862600
O2261	O226	0.387600	0.066900	0.995900
O2271	O227	0.385700	0.012200	0.945000
O2281	O228	0.309900	0.243100	0.861900
O2291	O229	0.285000	0.119000	0.888000
O2301	O230	0.320200	0.188900	0.924900
O2311	O231	0.327500	0.070600	0.936500
O2321	O232	0.365100	0.142000	0.972100
O2331	O233	0.242200	0.170500	0.944700
O2341	O234	0.199900	0.183100	0.990700
O2351	O235	0.231200	0.073400	0.851600
O2361	O236	0.178900	0.037100	0.845800
O2371	O237	0.297100	0.091300	0.014700
O2381	O238	0.253400	0.072000	0.058500
O2391	O239	0.310500	0.986900	0.915700
O2401	O240	0.273300	0.936200	0.915900
Nd311	Nd31	0.798440	0.630510	0.457460
Nd321	Nd32	0.792340	0.547600	0.380700
Ge611	Ge61	0.784810	0.716480	0.400570
Ge621	Ge62	0.745550	0.639040	0.361200
Ge631	Ge63	0.850180	0.541170	0.471280
Ge641	Ge64	0.881470	0.495610	0.395580
C1811	C181	0.752100	0.752000	0.430600
C1821	C182	0.714700	0.733800	0.445600
C1831	C183	0.718800	0.692800	0.462400
C1841	C184	0.689900	0.636300	0.374300
C1851	C185	0.670500	0.605400	0.352000
C1861	C186	0.693300	0.568400	0.350100
C1871	C187	0.817500	0.509700	0.504600
C1881	C188	0.806100	0.528800	0.544100
C1891	C189	0.783700	0.565300	0.538200
C1901	C190	0.874700	0.440400	0.390800
C1911	C191	0.842200	0.424900	0.416100
C1921	C192	0.806100	0.450000	0.415500
O2411	O241	0.759900	0.690100	0.362600
O2421	O242	0.887600	0.566900	0.495900
O2431	O243	0.885700	0.512200	0.445000
O2441	O244	0.809900	0.743100	0.361900
O2451	O245	0.785000	0.619000	0.388000
O2461	O246	0.820200	0.688900	0.424900
O2471	O247	0.827500	0.570600	0.436500
O2481	O248	0.865100	0.642000	0.472100
O2491	O249	0.742200	0.670500	0.444700
O2501	O250	0.699900	0.683100	0.490700
O2511	O251	0.731200	0.573400	0.351600
O2521	O252	0.678900	0.537100	0.345800
O2531	O253	0.797100	0.591300	0.514700
O2541	O254	0.753400	0.572000	0.558500
O2551	O255	0.810500	0.486900	0.415700
O2561	O256	0.773300	0.436200	0.415900
Nd331	Nd33	0.542540	0.701560	0.630510
Nd341	Nd34	0.619300	0.707660	0.547600
Ge651	Ge65	0.599430	0.715190	0.716480
Ge661	Ge66	0.638800	0.754450	0.639040
Ge671	Ge67	0.528720	0.649820	0.541170
Ge681	Ge68	0.604420	0.618530	0.495610
C1931	C193	0.569400	0.747900	0.752000
C1941	C194	0.554400	0.785300	0.733800
C1951	C195	0.537600	0.781200	0.692800
C1961	C196	0.625700	0.810100	0.636300
C1971	C197	0.648000	0.829500	0.605400
C1981	C198	0.649900	0.806700	0.568400
C1991	C199	0.495400	0.682500	0.509700
C2001	C200	0.455900	0.693900	0.528800
C2011	C201	0.461800	0.716300	0.565300
C2021	C202	0.609200	0.625300	0.440400
C2031	C203	0.583900	0.657800	0.424900
C2041	C204	0.584500	0.693900	0.450000
O2571	O257	0.637400	0.740100	0.690100
O2581	O258	0.504100	0.612400	0.566900
O2591	O259	0.555000	0.614300	0.512200
O2601	O260	0.638100	0.690100	0.743100
O2611	O261	0.612000	0.715000	0.619000
O2621	O262	0.575100	0.679800	0.688900
O2631	O263	0.563500	0.672500	0.570600
O2641	O264	0.527900	0.634900	0.642000
O2651	O265	0.555300	0.757800	0.670500
O2661	O266	0.509300	0.800100	0.683100
O2671	O267	0.648400	0.768800	0.573400
O2681	O268	0.654200	0.821100	0.537100
O2691	O269	0.485300	0.702900	0.591300
O2701	O270	0.441500	0.746600	0.572000
O2711	O271	0.584300	0.689500	0.486900
O2721	O272	0.584100	0.726700	0.436200
Nd351	Nd35	0.042540	0.201560	0.130510
Nd361	Nd36	0.119300	0.207660	0.047600
Ge691	Ge69	0.099430	0.215190	0.216480
Ge701	Ge70	0.138800	0.254450	0.139040
Ge711	Ge71	0.028720	0.149820	0.041170
Ge721	Ge72	0.104420	0.118530	0.995610
C2051	C205	0.069400	0.247900	0.252000
C2061	C206	0.054400	0.285300	0.233800
C2071	C207	0.037600	0.281200	0.192800
C2081	C208	0.125700	0.310100	0.136300
C2091	C209	0.148000	0.329500	0.105400
C2101	C210	0.149900	0.306700	0.068400
C2111	C211	0.995400	0.182500	0.009700
C2121	C212	0.955900	0.193900	0.028800
C2131	C213	0.961800	0.216300	0.065300
C2141	C214	0.109200	0.125300	0.940400
C2151	C215	0.083900	0.157800	0.924900
C2161	C216	0.084500	0.193900	0.950000
O2731	O273	0.137400	0.240100	0.190100
O2741	O274	0.004100	0.112400	0.066900
O2751	O275	0.055000	0.114300	0.012200
O2761	O276	0.138100	0.190100	0.243100
O2771	O277	0.112000	0.215000	0.119000
O2781	O278	0.075100	0.179800	0.188900
O2791	O279	0.063500	0.172500	0.070600
O2801	O280	0.027900	0.134900	0.142000
O2811	O281	0.055300	0.257800	0.170500
O2821	O282	0.009300	0.300100	0.183100
O2831	O283	0.148400	0.268800	0.073400
O2841	O284	0.154200	0.321100	0.037100
O2851	O285	0.985300	0.202900	0.091300
O2861	O286	0.941500	0.246600	0.072000
O2871	O287	0.084300	0.189500	0.986900
O2881	O288	0.084100	0.226700	0.936200
Nd371	Nd37	0.457460	0.201560	0.869490
Nd381	Nd38	0.380700	0.207660	0.952400
Ge731	Ge73	0.400570	0.215190	0.783520
Ge741	Ge74	0.361200	0.254450	0.860960
Ge751	Ge75	0.471280	0.149820	0.958830
Ge761	Ge76	0.395580	0.118530	0.004390
C2171	C217	0.430600	0.247900	0.748000
C2181	C218	0.445600	0.285300	0.766200
C2191	C219	0.462400	0.281200	0.807200
C2201	C220	0.374300	0.310100	0.863700
C2211	C221	0.352000	0.329500	0.894600
C2221	C222	0.350100	0.306700	0.931600
C2231	C223	0.504600	0.182500	0.990300
C2241	C224	0.544100	0.193900	0.971200
C2251	C225	0.538200	0.216300	0.934700
C2261	C226	0.390800	0.125300	0.059600
C2271	C227	0.416100	0.157800	0.075100
C2281	C228	0.415500	0.193900	0.050000
O2891	O289	0.362600	0.240100	0.809900
O2901	O290	0.495900	0.112400	0.933100
O2911	O291	0.445000	0.114300	0.987800
O2921	O292	0.361900	0.190100	0.756900
O2931	O293	0.388000	0.215000	0.881000
O2941	O294	0.424900	0.179800	0.811100
O2951	O295	0.436500	0.172500	0.929400
O2961	O296	0.472100	0.134900	0.858000
O2971	O297	0.444700	0.257800	0.829500
O2981	O298	0.490700	0.300100	0.816900
O2991	O299	0.351600	0.268800	0.926600
O3001	O300	0.345800	0.321100	0.962900
O3011	O301	0.514700	0.202900	0.908700
O3021	O302	0.558500	0.246600	0.928000
O3031	O303	0.415700	0.189500	0.013100
O3041	O304	0.415900	0.226700	0.063800
Nd391	Nd39	0.957460	0.701560	0.369490
Nd401	Nd40	0.880700	0.707660	0.452400
Ge771	Ge77	0.900570	0.715190	0.283520
Ge781	Ge78	0.861200	0.754450	0.360960
Ge791	Ge79	0.971280	0.649820	0.458830
Ge801	Ge80	0.895580	0.618530	0.504390
C2291	C229	0.930600	0.747900	0.248000
C2301	C230	0.945600	0.785300	0.266200
C2311	C231	0.962400	0.781200	0.307200
C2321	C232	0.874300	0.810100	0.363700
C2331	C233	0.852000	0.829500	0.394600
C2341	C234	0.850100	0.806700	0.431600
C2351	C235	0.004600	0.682500	0.490300
C2361	C236	0.044100	0.693900	0.471200
C2371	C237	0.038200	0.716300	0.434700
C2381	C238	0.890800	0.625300	0.559600
C2391	C239	0.916100	0.657800	0.575100
C2401	C240	0.915500	0.693900	0.550000
O3051	O305	0.862600	0.740100	0.309900
O3061	O306	0.995900	0.612400	0.433100
O3071	O307	0.945000	0.614300	0.487800
O3081	O308	0.861900	0.690100	0.256900
O3091	O309	0.888000	0.715000	0.381000
O3101	O310	0.924900	0.679800	0.311100
O3111	O311	0.936500	0.672500	0.429400
O3121	O312	0.972100	0.634900	0.358000
O3131	O313	0.944700	0.757800	0.329500
O3141	O314	0.990700	0.800100	0.316900
O3151	O315	0.851600	0.768800	0.426600
O3161	O316	0.845800	0.821100	0.462900
O3171	O317	0.014700	0.702900	0.408700
O3181	O318	0.058500	0.746600	0.428000
O3191	O319	0.915700	0.689500	0.513100
O3201	O320	0.915900	0.726700	0.563800
Nd411	Nd41	0.042540	0.798440	0.369490
Nd421	Nd42	0.119300	0.792340	0.452400
Ge811	Ge81	0.099430	0.784810	0.283520
Ge821	Ge82	0.138800	0.745550	0.360960
Ge831	Ge83	0.028720	0.850180	0.458830
Ge841	Ge84	0.104420	0.881470	0.504390
C2411	C241	0.069400	0.752100	0.248000
C2421	C242	0.054400	0.714700	0.266200
C2431	C243	0.037600	0.718800	0.307200
C2441	C244	0.125700	0.689900	0.363700
C2451	C245	0.148000	0.670500	0.394600
C2461	C246	0.149900	0.693300	0.431600
C2471	C247	0.995400	0.817500	0.490300
C2481	C248	0.955900	0.806100	0.471200
C2491	C249	0.961800	0.783700	0.434700
C2501	C250	0.109200	0.874700	0.559600
C2511	C251	0.083900	0.842200	0.575100
C2521	C252	0.084500	0.806100	0.550000
O3211	O321	0.137400	0.759900	0.309900
O3221	O322	0.004100	0.887600	0.433100
O3231	O323	0.055000	0.885700	0.487800
O3241	O324	0.138100	0.809900	0.256900
O3251	O325	0.112000	0.785000	0.381000
O3261	O326	0.075100	0.820200	0.311100
O3271	O327	0.063500	0.827500	0.429400
O3281	O328	0.027900	0.865100	0.358000
O3291	O329	0.055300	0.742200	0.329500
O3301	O330	0.009300	0.699900	0.316900
O3311	O331	0.148400	0.731200	0.426600
O3321	O332	0.154200	0.678900	0.462900
O3331	O333	0.985300	0.797100	0.408700
O3341	O334	0.941500	0.753400	0.428000
O3351	O335	0.084300	0.810500	0.513100
O3361	O336	0.084100	0.773300	0.563800
Nd431	Nd43	0.542540	0.298440	0.869490
Nd441	Nd44	0.619300	0.292340	0.952400
Ge851	Ge85	0.599430	0.284810	0.783520
Ge861	Ge86	0.638800	0.245550	0.860960
Ge871	Ge87	0.528720	0.350180	0.958830
Ge881	Ge88	0.604420	0.381470	0.004390
C2531	C253	0.569400	0.252100	0.748000
C2541	C254	0.554400	0.214700	0.766200
C2551	C255	0.537600	0.218800	0.807200
C2561	C256	0.625700	0.189900	0.863700
C2571	C257	0.648000	0.170500	0.894600
C2581	C258	0.649900	0.193300	0.931600
C2591	C259	0.495400	0.317500	0.990300
C2601	C260	0.455900	0.306100	0.971200
C2611	C261	0.461800	0.283700	0.934700
C2621	C262	0.609200	0.374700	0.059600
C2631	C263	0.583900	0.342200	0.075100
C2641	C264	0.584500	0.306100	0.050000
O3371	O337	0.637400	0.259900	0.809900
O3381	O338	0.504100	0.387600	0.933100
O3391	O339	0.555000	0.385700	0.987800
O3401	O340	0.638100	0.309900	0.756900
O3411	O341	0.612000	0.285000	0.881000
O3421	O342	0.575100	0.320200	0.811100
O3431	O343	0.563500	0.327500	0.929400
O3441	O344	0.527900	0.365100	0.858000
O3451	O345	0.555300	0.242200	0.829500
O3461	O346	0.509300	0.199900	0.816900
O3471	O347	0.648400	0.231200	0.926600
O3481	O348	0.654200	0.178900	0.962900
O3491	O349	0.485300	0.297100	0.908700
O3501	O350	0.441500	0.253400	0.928000
O3511	O351	0.584300	0.310500	0.013100
O3521	O352	0.584100	0.273300	0.063800
Nd451	Nd45	0.957460	0.298440	0.130510
Nd461	Nd46	0.880700	0.292340	0.047600
Ge891	Ge89	0.900570	0.284810	0.216480
Ge901	Ge90	0.861200	0.245550	0.139040
Ge911	Ge91	0.971280	0.350180	0.041170
Ge921	Ge92	0.895580	0.381470	0.995610
C2651	C265	0.930600	0.252100	0.252000
C2661	C266	0.945600	0.214700	0.233800
C2671	C267	0.962400	0.218800	0.192800
C2681	C268	0.874300	0.189900	0.136300
C2691	C269	0.852000	0.170500	0.105400
C2701	C270	0.850100	0.193300	0.068400
C2711	C271	0.004600	0.317500	0.009700
C2721	C272	0.044100	0.306100	0.028800
C2731	C273	0.038200	0.283700	0.065300
C2741	C274	0.890800	0.374700	0.940400
C2751	C275	0.916100	0.342200	0.924900
C2761	C276	0.915500	0.306100	0.950000
O3531	O353	0.862600	0.259900	0.190100
O3541	O354	0.995900	0.387600	0.066900
O3551	O355	0.945000	0.385700	0.012200
O3561	O356	0.861900	0.309900	0.243100
O3571	O357	0.888000	0.285000	0.119000
O3581	O358	0.924900	0.320200	0.188900
O3591	O359	0.936500	0.327500	0.070600
O3601	O360	0.972100	0.365100	0.142000
O3611	O361	0.944700	0.242200	0.170500
O3621	O362	0.990700	0.199900	0.183100
O3631	O363	0.851600	0.231200	0.073400
O3641	O364	0.845800	0.178900	0.037100
O3651	O365	0.014700	0.297100	0.091300
O3661	O366	0.058500	0.253400	0.072000
O3671	O367	0.915700	0.310500	0.986900
O3681	O368	0.915900	0.273300	0.936200
Nd471	Nd47	0.457460	0.798440	0.630510
Nd481	Nd48	0.380700	0.792340	0.547600
Ge931	Ge93	0.400570	0.784810	0.716480
Ge941	Ge94	0.361200	0.745550	0.639040
Ge951	Ge95	0.471280	0.850180	0.541170
Ge961	Ge96	0.395580	0.881470	0.495610
C2771	C277	0.430600	0.752100	0.752000
C2781	C278	0.445600	0.714700	0.733800
C2791	C279	0.462400	0.718800	0.692800
C2801	C280	0.374300	0.689900	0.636300
C2811	C281	0.352000	0.670500	0.605400
C2821	C282	0.350100	0.693300	0.568400
C2831	C283	0.504600	0.817500	0.509700
C2841	C284	0.544100	0.806100	0.528800
C2851	C285	0.538200	0.783700	0.565300
C2861	C286	0.390800	0.874700	0.440400
C2871	C287	0.416100	0.842200	0.424900
C2881	C288	0.415500	0.806100	0.450000
O3691	O369	0.362600	0.759900	0.690100
O3701	O370	0.495900	0.887600	0.566900
O3711	O371	0.445000	0.885700	0.512200
O3721	O372	0.361900	0.809900	0.743100
O3731	O373	0.388000	0.785000	0.619000
O3741	O374	0.424900	0.820200	0.688900
O3751	O375	0.436500	0.827500	0.570600
O3761	O376	0.472100	0.865100	0.642000
O3771	O377	0.444700	0.742200	0.670500
O3781	O378	0.490700	0.699900	0.683100
O3791	O379	0.351600	0.731200	0.573400
O3801	O380	0.345800	0.678900	0.537100
O3811	O381	0.514700	0.797100	0.591300
O3821	O382	0.558500	0.753400	0.572000
O3831	O383	0.415700	0.810500	0.486900
O3841	O384	0.415900	0.773300	0.436200
Nd491	Nd49	0.698850	0.698850	0.698850
Nd501	Nd50	0.549880	0.549880	0.549880
Nd511	Nd51	0.198850	0.198850	0.198850
Nd521	Nd52	0.049880	0.049880	0.049880
Nd531	Nd53	0.801150	0.301150	0.198850
Nd541	Nd54	0.950120	0.450120	0.049880
Nd551	Nd55	0.301150	0.801150	0.698850
Nd561	Nd56	0.450120	0.950120	0.549880
Nd571	Nd57	0.301150	0.198850	0.801150
Nd581	Nd58	0.450120	0.049880	0.950120
Nd591	Nd59	0.801150	0.698850	0.301150
Nd601	Nd60	0.950120	0.549880	0.450120
Nd611	Nd61	0.198850	0.801150	0.301150
Nd621	Nd62	0.049880	0.950120	0.450120
Nd631	Nd63	0.698850	0.301150	0.801150
Nd641	Nd64	0.549880	0.450120	0.950120
Nd651	Nd65	0.369490	0.457460	0.298440
Nd661	Nd66	0.452400	0.380700	0.292340
Ge971	Ge97	0.283520	0.400570	0.284810
Ge981	Ge98	0.360960	0.361200	0.245550
Ge991	Ge99	0.458830	0.471280	0.350180
Ge1001	Ge100	0.504390	0.395580	0.381470
C2891	C289	0.248000	0.430600	0.252100
C2901	C290	0.266200	0.445600	0.214700
C2911	C291	0.307200	0.462400	0.218800
C2921	C292	0.363700	0.374300	0.189900
C2931	C293	0.394600	0.352000	0.170500
C2941	C294	0.431600	0.350100	0.193300
C2951	C295	0.490300	0.504600	0.317500
C2961	C296	0.471200	0.544100	0.306100
C2971	C297	0.434700	0.538200	0.283700
C2981	C298	0.559600	0.390800	0.374700
C2991	C299	0.575100	0.416100	0.342200
C3001	C300	0.550000	0.415500	0.306100
O3851	O385	0.309900	0.362600	0.259900
O3861	O386	0.433100	0.495900	0.387600
O3871	O387	0.487800	0.445000	0.385700
O3881	O388	0.256900	0.361900	0.309900
O3891	O389	0.381000	0.388000	0.285000
O3901	O390	0.311100	0.424900	0.320200
O3911	O391	0.429400	0.436500	0.327500
O3921	O392	0.358000	0.472100	0.365100
O3931	O393	0.329500	0.444700	0.242200
O3941	O394	0.316900	0.490700	0.199900
O3951	O395	0.426600	0.351600	0.231200
O3961	O396	0.462900	0.345800	0.178900
O3971	O397	0.408700	0.514700	0.297100
O3981	O398	0.428000	0.558500	0.253400
O3991	O399	0.513100	0.415700	0.310500
O4001	O400	0.563800	0.415900	0.273300
Nd671	Nd67	0.869490	0.957460	0.798440
Nd681	Nd68	0.952400	0.880700	0.792340
Ge1011	Ge101	0.783520	0.900570	0.784810
Ge1021	Ge102	0.860960	0.861200	0.745550
Ge1031	Ge103	0.958830	0.971280	0.850180
Ge1041	Ge104	0.004390	0.895580	0.881470
C3011	C301	0.748000	0.930600	0.752100
C3021	C302	0.766200	0.945600	0.714700
C3031	C303	0.807200	0.962400	0.718800
C3041	C304	0.863700	0.874300	0.689900
C3051	C305	0.894600	0.852000	0.670500
C3061	C306	0.931600	0.850100	0.693300
C3071	C307	0.990300	0.004600	0.817500
C3081	C308	0.971200	0.044100	0.806100
C3091	C309	0.934700	0.038200	0.783700
C3101	C310	0.059600	0.890800	0.874700
C3111	C311	0.075100	0.916100	0.842200
C3121	C312	0.050000	0.915500	0.806100
O4011	O401	0.809900	0.862600	0.759900
O4021	O402	0.933100	0.995900	0.887600
O4031	O403	0.987800	0.945000	0.885700
O4041	O404	0.756900	0.861900	0.809900
O4051	O405	0.881000	0.888000	0.785000
O4061	O406	0.811100	0.924900	0.820200
O4071	O407	0.929400	0.936500	0.827500
O4081	O408	0.858000	0.972100	0.865100
O4091	O409	0.829500	0.944700	0.742200
O4101	O410	0.816900	0.990700	0.699900
O4111	O411	0.926600	0.851600	0.731200
O4121	O412	0.962900	0.845800	0.678900
O4131	O413	0.908700	0.014700	0.797100
O4141	O414	0.928000	0.058500	0.753400
O4151	O415	0.013100	0.915700	0.810500
O4161	O416	0.063800	0.915900	0.773300
Nd691	Nd69	0.130510	0.542540	0.798440
Nd701	Nd70	0.047600	0.619300	0.792340
Ge1051	Ge105	0.216480	0.599430	0.784810
Ge1061	Ge106	0.139040	0.638800	0.745550
Ge1071	Ge107	0.041170	0.528720	0.850180
Ge1081	Ge108	0.995610	0.604420	0.881470
C3131	C313	0.252000	0.569400	0.752100
C3141	C314	0.233800	0.554400	0.714700
C3151	C315	0.192800	0.537600	0.718800
C3161	C316	0.136300	0.625700	0.689900
C3171	C317	0.105400	0.648000	0.670500
C3181	C318	0.068400	0.649900	0.693300
C3191	C319	0.009700	0.495400	0.817500
C3201	C320	0.028800	0.455900	0.806100
C3211	C321	0.065300	0.461800	0.783700
C3221	C322	0.940400	0.609200	0.874700
C3231	C323	0.924900	0.583900	0.842200
C3241	C324	0.950000	0.584500	0.806100
O4171	O417	0.190100	0.637400	0.759900
O4181	O418	0.066900	0.504100	0.887600
O4191	O419	0.012200	0.555000	0.885700
O4201	O420	0.243100	0.638100	0.809900
O4211	O421	0.119000	0.612000	0.785000
O4221	O422	0.188900	0.575100	0.820200
O4231	O423	0.070600	0.563500	0.827500
O4241	O424	0.142000	0.527900	0.865100
O4251	O425	0.170500	0.555300	0.742200
O4261	O426	0.183100	0.509300	0.699900
O4271	O427	0.073400	0.648400	0.731200
O4281	O428	0.037100	0.654200	0.678900
O4291	O429	0.091300	0.485300	0.797100
O4301	O430	0.072000	0.441500	0.753400
O4311	O431	0.986900	0.584300	0.810500
O4321	O432	0.936200	0.584100	0.773300
Nd711	Nd71	0.630510	0.042540	0.298440
Nd721	Nd72	0.547600	0.119300	0.292340
Ge1091	Ge109	0.716480	0.099430	0.284810
Ge1101	Ge110	0.639040	0.138800	0.245550
Ge1111	Ge111	0.541170	0.028720	0.350180
Ge1121	Ge112	0.495610	0.104420	0.381470
C3251	C325	0.752000	0.069400	0.252100
C3261	C326	0.733800	0.054400	0.214700
C3271	C327	0.692800	0.037600	0.218800
C3281	C328	0.636300	0.125700	0.189900
C3291	C329	0.605400	0.148000	0.170500
C3301	C330	0.568400	0.149900	0.193300
C3311	C331	0.509700	0.995400	0.317500
C3321	C332	0.528800	0.955900	0.306100
C3331	C333	0.565300	0.961800	0.283700
C3341	C334	0.440400	0.109200	0.374700
C3351	C335	0.424900	0.083900	0.342200
C3361	C336	0.450000	0.084500	0.306100
O4331	O433	0.690100	0.137400	0.259900
O4341	O434	0.566900	0.004100	0.387600
O4351	O435	0.512200	0.055000	0.385700
O4361	O436	0.743100	0.138100	0.309900
O4371	O437	0.619000	0.112000	0.285000
O4381	O438	0.688900	0.075100	0.320200
O4391	O439	0.570600	0.063500	0.327500
O4401	O440	0.642000	0.027900	0.365100
O4411	O441	0.670500	0.055300	0.242200
O4421	O442	0.683100	0.009300	0.199900
O4431	O443	0.573400	0.148400	0.231200
O4441	O444	0.537100	0.154200	0.178900
O4451	O445	0.591300	0.985300	0.297100
O4461	O446	0.572000	0.941500	0.253400
O4471	O447	0.486900	0.084300	0.310500
O4481	O448	0.436200	0.084100	0.273300
Nd731	Nd73	0.630510	0.957460	0.201560
Nd741	Nd74	0.547600	0.880700	0.207660
Ge1131	Ge113	0.716480	0.900570	0.215190
Ge1141	Ge114	0.639040	0.861200	0.254450
Ge1151	Ge115	0.541170	0.971280	0.149820
Ge1161	Ge116	0.495610	0.895580	0.118530
C3371	C337	0.752000	0.930600	0.247900
C3381	C338	0.733800	0.945600	0.285300
C3391	C339	0.692800	0.962400	0.281200
C3401	C340	0.636300	0.874300	0.310100
C3411	C341	0.605400	0.852000	0.329500
C3421	C342	0.568400	0.850100	0.306700
C3431	C343	0.509700	0.004600	0.182500
C3441	C344	0.528800	0.044100	0.193900
C3451	C345	0.565300	0.038200	0.216300
C3461	C346	0.440400	0.890800	0.125300
C3471	C347	0.424900	0.916100	0.157800
C3481	C348	0.450000	0.915500	0.193900
O4491	O449	0.690100	0.862600	0.240100
O4501	O450	0.566900	0.995900	0.112400
O4511	O451	0.512200	0.945000	0.114300
O4521	O452	0.743100	0.861900	0.190100
O4531	O453	0.619000	0.888000	0.215000
O4541	O454	0.688900	0.924900	0.179800
O4551	O455	0.570600	0.936500	0.172500
O4561	O456	0.642000	0.972100	0.134900
O4571	O457	0.670500	0.944700	0.257800
O4581	O458	0.683100	0.990700	0.300100
O4591	O459	0.573400	0.851600	0.268800
O4601	O460	0.537100	0.845800	0.321100
O4611	O461	0.591300	0.014700	0.202900
O4621	O462	0.572000	0.058500	0.246600
O4631	O463	0.486900	0.915700	0.189500
O4641	O464	0.436200	0.915900	0.226700
Nd751	Nd75	0.130510	0.457460	0.701560
Nd761	Nd76	0.047600	0.380700	0.707660
Ge1171	Ge117	0.216480	0.400570	0.715190
Ge1181	Ge118	0.139040	0.361200	0.754450
Ge1191	Ge119	0.041170	0.471280	0.649820
Ge1201	Ge120	0.995610	0.395580	0.618530
C3491	C349	0.252000	0.430600	0.747900
C3501	C350	0.233800	0.445600	0.785300
C3511	C351	0.192800	0.462400	0.781200
C3521	C352	0.136300	0.374300	0.810100
C3531	C353	0.105400	0.352000	0.829500
C3541	C354	0.068400	0.350100	0.806700
C3551	C355	0.009700	0.504600	0.682500
C3561	C356	0.028800	0.544100	0.693900
C3571	C357	0.065300	0.538200	0.716300
C3581	C358	0.940400	0.390800	0.625300
C3591	C359	0.924900	0.416100	0.657800
C3601	C360	0.950000	0.415500	0.693900
O4651	O465	0.190100	0.362600	0.740100
O4661	O466	0.066900	0.495900	0.612400
O4671	O467	0.012200	0.445000	0.614300
O4681	O468	0.243100	0.361900	0.690100
O4691	O469	0.119000	0.388000	0.715000
O4701	O470	0.188900	0.424900	0.679800
O4711	O471	0.070600	0.436500	0.672500
O4721	O472	0.142000	0.472100	0.634900
O4731	O473	0.170500	0.444700	0.757800
O4741	O474	0.183100	0.490700	0.800100
O4751	O475	0.073400	0.351600	0.768800
O4761	O476	0.037100	0.345800	0.821100
O4771	O477	0.091300	0.514700	0.702900
O4781	O478	0.072000	0.558500	0.746600
O4791	O479	0.986900	0.415700	0.689500
O4801	O480	0.936200	0.415900	0.726700
Nd771	Nd77	0.869490	0.042540	0.701560
Nd781	Nd78	0.952400	0.119300	0.707660
Ge1211	Ge121	0.783520	0.099430	0.715190
Ge1221	Ge122	0.860960	0.138800	0.754450
Ge1231	Ge123	0.958830	0.028720	0.649820
Ge1241	Ge124	0.004390	0.104420	0.618530
C3611	C361	0.748000	0.069400	0.747900
C3621	C362	0.766200	0.054400	0.785300
C3631	C363	0.807200	0.037600	0.781200
C3641	C364	0.863700	0.125700	0.810100
C3651	C365	0.894600	0.148000	0.829500
C3661	C366	0.931600	0.149900	0.806700
C3671	C367	0.990300	0.995400	0.682500
C3681	C368	0.971200	0.955900	0.693900
C3691	C369	0.934700	0.961800	0.716300
C3701	C370	0.059600	0.109200	0.625300
C3711	C371	0.075100	0.083900	0.657800
C3721	C372	0.050000	0.084500	0.693900
O4811	O481	0.809900	0.137400	0.740100
O4821	O482	0.933100	0.004100	0.612400
O4831	O483	0.987800	0.055000	0.614300
O4841	O484	0.756900	0.138100	0.690100
O4851	O485	0.881000	0.112000	0.715000
O4861	O486	0.811100	0.075100	0.679800
O4871	O487	0.929400	0.063500	0.672500
O4881	O488	0.858000	0.027900	0.634900
O4891	O489	0.829500	0.055300	0.757800
O4901	O490	0.816900	0.009300	0.800100
O4911	O491	0.926600	0.148400	0.768800
O4921	O492	0.962900	0.154200	0.821100
O4931	O493	0.908700	0.985300	0.702900
O4941	O494	0.928000	0.941500	0.746600
O4951	O495	0.013100	0.084300	0.689500
O4961	O496	0.063800	0.084100	0.726700
Nd791	Nd79	0.369490	0.542540	0.201560
Nd801	Nd80	0.452400	0.619300	0.207660
Ge1251	Ge125	0.283520	0.599430	0.215190
Ge1261	Ge126	0.360960	0.638800	0.254450
Ge1271	Ge127	0.458830	0.528720	0.149820
Ge1281	Ge128	0.504390	0.604420	0.118530
C3731	C373	0.248000	0.569400	0.247900
C3741	C374	0.266200	0.554400	0.285300
C3751	C375	0.307200	0.537600	0.281200
C3761	C376	0.363700	0.625700	0.310100
C3771	C377	0.394600	0.648000	0.329500
C3781	C378	0.431600	0.649900	0.306700
C3791	C379	0.490300	0.495400	0.182500
C3801	C380	0.471200	0.455900	0.193900
C3811	C381	0.434700	0.461800	0.216300
C3821	C382	0.559600	0.609200	0.125300
C3831	C383	0.575100	0.583900	0.157800
C3841	C384	0.550000	0.584500	0.193900
O4971	O497	0.309900	0.637400	0.240100
O4981	O498	0.433100	0.504100	0.112400
O4991	O499	0.487800	0.555000	0.114300
O5001	O500	0.256900	0.638100	0.190100
O5011	O501	0.381000	0.612000	0.215000
O5021	O502	0.311100	0.575100	0.179800
O5031	O503	0.429400	0.563500	0.172500
O5041	O504	0.358000	0.527900	0.134900
O5051	O505	0.329500	0.555300	0.257800
O5061	O506	0.316900	0.509300	0.300100
O5071	O507	0.426600	0.648400	0.268800
O5081	O508	0.462900	0.654200	0.321100
O5091	O509	0.408700	0.485300	0.202900
O5101	O510	0.428000	0.441500	0.246600
O5111	O511	0.513100	0.584300	0.189500
O5121	O512	0.563800	0.584100	0.226700
Nd811	Nd81	0.298440	0.369490	0.457460
Nd821	Nd82	0.292340	0.452400	0.380700
Ge1291	Ge129	0.284810	0.283520	0.400570
Ge1301	Ge130	0.245550	0.360960	0.361200
Ge1311	Ge131	0.350180	0.458830	0.471280
Ge1321	Ge132	0.381470	0.504390	0.395580
C3851	C385	0.252100	0.248000	0.430600
C3861	C386	0.214700	0.266200	0.445600
C3871	C387	0.218800	0.307200	0.462400
C3881	C388	0.189900	0.363700	0.374300
C3891	C389	0.170500	0.394600	0.352000
C3901	C390	0.193300	0.431600	0.350100
C3911	C391	0.317500	0.490300	0.504600
C3921	C392	0.306100	0.471200	0.544100
C3931	C393	0.283700	0.434700	0.538200
C3941	C394	0.374700	0.559600	0.390800
C3951	C395	0.342200	0.575100	0.416100
C3961	C396	0.306100	0.550000	0.415500
O5131	O513	0.259900	0.309900	0.362600
O5141	O514	0.387600	0.433100	0.495900
O5151	O515	0.385700	0.487800	0.445000
O5161	O516	0.309900	0.256900	0.361900
O5171	O517	0.285000	0.381000	0.388000
O5181	O518	0.320200	0.311100	0.424900
O5191	O519	0.327500	0.429400	0.436500
O5201	O520	0.365100	0.358000	0.472100
O5211	O521	0.242200	0.329500	0.444700
O5221	O522	0.199900	0.316900	0.490700
O5231	O523	0.231200	0.426600	0.351600
O5241	O524	0.178900	0.462900	0.345800
O5251	O525	0.297100	0.408700	0.514700
O5261	O526	0.253400	0.428000	0.558500
O5271	O527	0.310500	0.513100	0.415700
O5281	O528	0.273300	0.563800	0.415900
Nd831	Nd83	0.798440	0.869490	0.957460
Nd841	Nd84	0.792340	0.952400	0.880700
Ge1331	Ge133	0.784810	0.783520	0.900570
Ge1341	Ge134	0.745550	0.860960	0.861200
Ge1351	Ge135	0.850180	0.958830	0.971280
Ge1361	Ge136	0.881470	0.004390	0.895580
C3971	C397	0.752100	0.748000	0.930600
C3981	C398	0.714700	0.766200	0.945600
C3991	C399	0.718800	0.807200	0.962400
C4001	C400	0.689900	0.863700	0.874300
C4011	C401	0.670500	0.894600	0.852000
C4021	C402	0.693300	0.931600	0.850100
C4031	C403	0.817500	0.990300	0.004600
C4041	C404	0.806100	0.971200	0.044100
C4051	C405	0.783700	0.934700	0.038200
C4061	C406	0.874700	0.059600	0.890800
C4071	C407	0.842200	0.075100	0.916100
C4081	C408	0.806100	0.050000	0.915500
O5291	O529	0.759900	0.809900	0.862600
O5301	O530	0.887600	0.933100	0.995900
O5311	O531	0.885700	0.987800	0.945000
O5321	O532	0.809900	0.756900	0.861900
O5331	O533	0.785000	0.881000	0.888000
O5341	O534	0.820200	0.811100	0.924900
O5351	O535	0.827500	0.929400	0.936500
O5361	O536	0.865100	0.858000	0.972100
O5371	O537	0.742200	0.829500	0.944700
O5381	O538	0.699900	0.816900	0.990700
O5391	O539	0.731200	0.926600	0.851600
O5401	O540	0.678900	0.962900	0.845800
O5411	O541	0.797100	0.908700	0.014700
O5421	O542	0.753400	0.928000	0.058500
O5431	O543	0.810500	0.013100	0.915700
O5441	O544	0.773300	0.063800	0.915900
Nd851	Nd85	0.798440	0.130510	0.542540
Nd861	Nd86	0.792340	0.047600	0.619300
Ge1371	Ge137	0.784810	0.216480	0.599430
Ge1381	Ge138	0.745550	0.139040	0.638800
Ge1391	Ge139	0.850180	0.041170	0.528720
Ge1401	Ge140	0.881470	0.995610	0.604420
C4091	C409	0.752100	0.252000	0.569400
C4101	C410	0.714700	0.233800	0.554400
C4111	C411	0.718800	0.192800	0.537600
C4121	C412	0.689900	0.136300	0.625700
C4131	C413	0.670500	0.105400	0.648000
C4141	C414	0.693300	0.068400	0.649900
C4151	C415	0.817500	0.009700	0.495400
C4161	C416	0.806100	0.028800	0.455900
C4171	C417	0.783700	0.065300	0.461800
C4181	C418	0.874700	0.940400	0.609200
C4191	C419	0.842200	0.924900	0.583900
C4201	C420	0.806100	0.950000	0.584500
O5451	O545	0.759900	0.190100	0.637400
O5461	O546	0.887600	0.066900	0.504100
O5471	O547	0.885700	0.012200	0.555000
O5481	O548	0.809900	0.243100	0.638100
O5491	O549	0.785000	0.119000	0.612000
O5501	O550	0.820200	0.188900	0.575100
O5511	O551	0.827500	0.070600	0.563500
O5521	O552	0.865100	0.142000	0.527900
O5531	O553	0.742200	0.170500	0.555300
O5541	O554	0.699900	0.183100	0.509300
O5551	O555	0.731200	0.073400	0.648400
O5561	O556	0.678900	0.037100	0.654200
O5571	O557	0.797100	0.091300	0.485300
O5581	O558	0.753400	0.072000	0.441500
O5591	O559	0.810500	0.986900	0.584300
O5601	O560	0.773300	0.936200	0.584100
Nd871	Nd87	0.298440	0.630510	0.042540
Nd881	Nd88	0.292340	0.547600	0.119300
Ge1411	Ge141	0.284810	0.716480	0.099430
Ge1421	Ge142	0.245550	0.639040	0.138800
Ge1431	Ge143	0.350180	0.541170	0.028720
Ge1441	Ge144	0.381470	0.495610	0.104420
C4211	C421	0.252100	0.752000	0.069400
C4221	C422	0.214700	0.733800	0.054400
C4231	C423	0.218800	0.692800	0.037600
C4241	C424	0.189900	0.636300	0.125700
C4251	C425	0.170500	0.605400	0.148000
C4261	C426	0.193300	0.568400	0.149900
C4271	C427	0.317500	0.509700	0.995400
C4281	C428	0.306100	0.528800	0.955900
C4291	C429	0.283700	0.565300	0.961800
C4301	C430	0.374700	0.440400	0.109200
C4311	C431	0.342200	0.424900	0.083900
C4321	C432	0.306100	0.450000	0.084500
O5611	O561	0.259900	0.690100	0.137400
O5621	O562	0.387600	0.566900	0.004100
O5631	O563	0.385700	0.512200	0.055000
O5641	O564	0.309900	0.743100	0.138100
O5651	O565	0.285000	0.619000	0.112000
O5661	O566	0.320200	0.688900	0.075100
O5671	O567	0.327500	0.570600	0.063500
O5681	O568	0.365100	0.642000	0.027900
O5691	O569	0.242200	0.670500	0.055300
O5701	O570	0.199900	0.683100	0.009300
O5711	O571	0.231200	0.573400	0.148400
O5721	O572	0.178900	0.537100	0.154200
O5731	O573	0.297100	0.591300	0.985300
O5741	O574	0.253400	0.572000	0.941500
O5751	O575	0.310500	0.486900	0.084300
O5761	O576	0.273300	0.436200	0.084100
Nd891	Nd89	0.201560	0.630510	0.957460
Nd901	Nd90	0.207660	0.547600	0.880700
Ge1451	Ge145	0.215190	0.716480	0.900570
Ge1461	Ge146	0.254450	0.639040	0.861200
Ge1471	Ge147	0.149820	0.541170	0.971280
Ge1481	Ge148	0.118530	0.495610	0.895580
C4331	C433	0.247900	0.752000	0.930600
C4341	C434	0.285300	0.733800	0.945600
C4351	C435	0.281200	0.692800	0.962400
C4361	C436	0.310100	0.636300	0.874300
C4371	C437	0.329500	0.605400	0.852000
C4381	C438	0.306700	0.568400	0.850100
C4391	C439	0.182500	0.509700	0.004600
C4401	C440	0.193900	0.528800	0.044100
C4411	C441	0.216300	0.565300	0.038200
C4421	C442	0.125300	0.440400	0.890800
C4431	C443	0.157800	0.424900	0.916100
C4441	C444	0.193900	0.450000	0.915500
O5771	O577	0.240100	0.690100	0.862600
O5781	O578	0.112400	0.566900	0.995900
O5791	O579	0.114300	0.512200	0.945000
O5801	O580	0.190100	0.743100	0.861900
O5811	O581	0.215000	0.619000	0.888000
O5821	O582	0.179800	0.688900	0.924900
O5831	O583	0.172500	0.570600	0.936500
O5841	O584	0.134900	0.642000	0.972100
O5851	O585	0.257800	0.670500	0.944700
O5861	O586	0.300100	0.683100	0.990700
O5871	O587	0.268800	0.573400	0.851600
O5881	O588	0.321100	0.537100	0.845800
O5891	O589	0.202900	0.591300	0.014700
O5901	O590	0.246600	0.572000	0.058500
O5911	O591	0.189500	0.486900	0.915700
O5921	O592	0.226700	0.436200	0.915900
Nd911	Nd91	0.701560	0.130510	0.457460
Nd921	Nd92	0.707660	0.047600	0.380700
Ge1491	Ge149	0.715190	0.216480	0.400570
Ge1501	Ge150	0.754450	0.139040	0.361200
Ge1511	Ge151	0.649820	0.041170	0.471280
Ge1521	Ge152	0.618530	0.995610	0.395580
C4451	C445	0.747900	0.252000	0.430600
C4461	C446	0.785300	0.233800	0.445600
C4471	C447	0.781200	0.192800	0.462400
C4481	C448	0.810100	0.136300	0.374300
C4491	C449	0.829500	0.105400	0.352000
C4501	C450	0.806700	0.068400	0.350100
C4511	C451	0.682500	0.009700	0.504600
C4521	C452	0.693900	0.028800	0.544100
C4531	C453	0.716300	0.065300	0.538200
C4541	C454	0.625300	0.940400	0.390800
C4551	C455	0.657800	0.924900	0.416100
C4561	C456	0.693900	0.950000	0.415500
O5931	O593	0.740100	0.190100	0.362600
O5941	O594	0.612400	0.066900	0.495900
O5951	O595	0.614300	0.012200	0.445000
O5961	O596	0.690100	0.243100	0.361900
O5971	O597	0.715000	0.119000	0.388000
O5981	O598	0.679800	0.188900	0.424900
O5991	O599	0.672500	0.070600	0.436500
O6001	O600	0.634900	0.142000	0.472100
O6011	O601	0.757800	0.170500	0.444700
O6021	O602	0.800100	0.183100	0.490700
O6031	O603	0.768800	0.073400	0.351600
O6041	O604	0.821100	0.037100	0.345800
O6051	O605	0.702900	0.091300	0.514700
O6061	O606	0.746600	0.072000	0.558500
O6071	O607	0.689500	0.986900	0.415700
O6081	O608	0.726700	0.936200	0.415900
Nd931	Nd93	0.701560	0.869490	0.042540
Nd941	Nd94	0.707660	0.952400	0.119300
Ge1531	Ge153	0.715190	0.783520	0.099430
Ge1541	Ge154	0.754450	0.860960	0.138800
Ge1551	Ge155	0.649820	0.958830	0.028720
Ge1561	Ge156	0.618530	0.004390	0.104420
C4571	C457	0.747900	0.748000	0.069400
C4581	C458	0.785300	0.766200	0.054400
C4591	C459	0.781200	0.807200	0.037600
C4601	C460	0.810100	0.863700	0.125700
C4611	C461	0.829500	0.894600	0.148000
C4621	C462	0.806700	0.931600	0.149900
C4631	C463	0.682500	0.990300	0.995400
C4641	C464	0.693900	0.971200	0.955900
C4651	C465	0.716300	0.934700	0.961800
C4661	C466	0.625300	0.059600	0.109200
C4671	C467	0.657800	0.075100	0.083900
C4681	C468	0.693900	0.050000	0.084500
O6091	O609	0.740100	0.809900	0.137400
O6101	O610	0.612400	0.933100	0.004100
O6111	O611	0.614300	0.987800	0.055000
O6121	O612	0.690100	0.756900	0.138100
O6131	O613	0.715000	0.881000	0.112000
O6141	O614	0.679800	0.811100	0.075100
O6151	O615	0.672500	0.929400	0.063500
O6161	O616	0.634900	0.858000	0.027900
O6171	O617	0.757800	0.829500	0.055300
O6181	O618	0.800100	0.816900	0.009300
O6191	O619	0.768800	0.926600	0.148400
O6201	O620	0.821100	0.962900	0.154200
O6211	O621	0.702900	0.908700	0.985300
O6221	O622	0.746600	0.928000	0.941500
O6231	O623	0.689500	0.013100	0.084300
O6241	O624	0.726700	0.063800	0.084100
Nd951	Nd95	0.201560	0.369490	0.542540
Nd961	Nd96	0.207660	0.452400	0.619300
Ge1571	Ge157	0.215190	0.283520	0.599430
Ge1581	Ge158	0.254450	0.360960	0.638800
Ge1591	Ge159	0.149820	0.458830	0.528720
Ge1601	Ge160	0.118530	0.504390	0.604420
C4691	C469	0.247900	0.248000	0.569400
C4701	C470	0.285300	0.266200	0.554400
C4711	C471	0.281200	0.307200	0.537600
C4721	C472	0.310100	0.363700	0.625700
C4731	C473	0.329500	0.394600	0.648000
C4741	C474	0.306700	0.431600	0.649900
C4751	C475	0.182500	0.490300	0.495400
C4761	C476	0.193900	0.471200	0.455900
C4771	C477	0.216300	0.434700	0.461800
C4781	C478	0.125300	0.559600	0.609200
C4791	C479	0.157800	0.575100	0.583900
C4801	C480	0.193900	0.550000	0.584500
O6251	O625	0.240100	0.309900	0.637400
O6261	O626	0.112400	0.433100	0.504100
O6271	O627	0.114300	0.487800	0.555000
O6281	O628	0.190100	0.256900	0.638100
O6291	O629	0.215000	0.381000	0.612000
O6301	O630	0.179800	0.311100	0.575100
O6311	O631	0.172500	0.429400	0.563500
O6321	O632	0.134900	0.358000	0.527900
O6331	O633	0.257800	0.329500	0.555300
O6341	O634	0.300100	0.316900	0.509300
O6351	O635	0.268800	0.426600	0.648400
O6361	O636	0.321100	0.462900	0.654200
O6371	O637	0.202900	0.408700	0.485300
O6381	O638	0.246600	0.428000	0.441500
O6391	O639	0.189500	0.513100	0.584300
O6401	O640	0.226700	0.563800	0.584100
Nd971	Nd97	0.457460	0.298440	0.369490
Nd981	Nd98	0.380700	0.292340	0.452400
Ge1611	Ge161	0.400570	0.284810	0.283520
Ge1621	Ge162	0.361200	0.245550	0.360960
Ge1631	Ge163	0.471280	0.350180	0.458830
Ge1641	Ge164	0.395580	0.381470	0.504390
C4811	C481	0.430600	0.252100	0.248000
C4821	C482	0.445600	0.214700	0.266200
C4831	C483	0.462400	0.218800	0.307200
C4841	C484	0.374300	0.189900	0.363700
C4851	C485	0.352000	0.170500	0.394600
C4861	C486	0.350100	0.193300	0.431600
C4871	C487	0.504600	0.317500	0.490300
C4881	C488	0.544100	0.306100	0.471200
C4891	C489	0.538200	0.283700	0.434700
C4901	C490	0.390800	0.374700	0.559600
C4911	C491	0.416100	0.342200	0.575100
C4921	C492	0.415500	0.306100	0.550000
O6411	O641	0.362600	0.259900	0.309900
O6421	O642	0.495900	0.387600	0.433100
O6431	O643	0.445000	0.385700	0.487800
O6441	O644	0.361900	0.309900	0.256900
O6451	O645	0.388000	0.285000	0.381000
O6461	O646	0.424900	0.320200	0.311100
O6471	O647	0.436500	0.327500	0.429400
O6481	O648	0.472100	0.365100	0.358000
O6491	O649	0.444700	0.242200	0.329500
O6501	O650	0.490700	0.199900	0.316900
O6511	O651	0.351600	0.231200	0.426600
O6521	O652	0.345800	0.178900	0.462900
O6531	O653	0.514700	0.297100	0.408700
O6541	O654	0.558500	0.253400	0.428000
O6551	O655	0.415700	0.310500	0.513100
O6561	O656	0.415900	0.273300	0.563800
Nd991	Nd99	0.957460	0.798440	0.869490
Nd1001	Nd100	0.880700	0.792340	0.952400
Ge1651	Ge165	0.900570	0.784810	0.783520
Ge1661	Ge166	0.861200	0.745550	0.860960
Ge1671	Ge167	0.971280	0.850180	0.958830
Ge1681	Ge168	0.895580	0.881470	0.004390
C4931	C493	0.930600	0.752100	0.748000
C4941	C494	0.945600	0.714700	0.766200
C4951	C495	0.962400	0.718800	0.807200
C4961	C496	0.874300	0.689900	0.863700
C4971	C497	0.852000	0.670500	0.894600
C4981	C498	0.850100	0.693300	0.931600
C4991	C499	0.004600	0.817500	0.990300
C5001	C500	0.044100	0.806100	0.971200
C5011	C501	0.038200	0.783700	0.934700
C5021	C502	0.890800	0.874700	0.059600
C5031	C503	0.916100	0.842200	0.075100
C5041	C504	0.915500	0.806100	0.050000
O6571	O657	0.862600	0.759900	0.809900
O6581	O658	0.995900	0.887600	0.933100
O6591	O659	0.945000	0.885700	0.987800
O6601	O660	0.861900	0.809900	0.756900
O6611	O661	0.888000	0.785000	0.881000
O6621	O662	0.924900	0.820200	0.811100
O6631	O663	0.936500	0.827500	0.929400
O6641	O664	0.972100	0.865100	0.858000
O6651	O665	0.944700	0.742200	0.829500
O6661	O666	0.990700	0.699900	0.816900
O6671	O667	0.851600	0.731200	0.926600
O6681	O668	0.845800	0.678900	0.962900
O6691	O669	0.014700	0.797100	0.908700
O6701	O670	0.058500	0.753400	0.928000
O6711	O671	0.915700	0.810500	0.013100
O6721	O672	0.915900	0.773300	0.063800
Nd1011	Nd101	0.542540	0.798440	0.130510
Nd1021	Nd102	0.619300	0.792340	0.047600
Ge1691	Ge169	0.599430	0.784810	0.216480
Ge1701	Ge170	0.638800	0.745550	0.139040
Ge1711	Ge171	0.528720	0.850180	0.041170
Ge1721	Ge172	0.604420	0.881470	0.995610
C5051	C505	0.569400	0.752100	0.252000
C5061	C506	0.554400	0.714700	0.233800
C5071	C507	0.537600	0.718800	0.192800
C5081	C508	0.625700	0.689900	0.136300
C5091	C509	0.648000	0.670500	0.105400
C5101	C510	0.649900	0.693300	0.068400
C5111	C511	0.495400	0.817500	0.009700
C5121	C512	0.455900	0.806100	0.028800
C5131	C513	0.461800	0.783700	0.065300
C5141	C514	0.609200	0.874700	0.940400
C5151	C515	0.583900	0.842200	0.924900
C5161	C516	0.584500	0.806100	0.950000
O6731	O673	0.637400	0.759900	0.190100
O6741	O674	0.504100	0.887600	0.066900
O6751	O675	0.555000	0.885700	0.012200
O6761	O676	0.638100	0.809900	0.243100
O6771	O677	0.612000	0.785000	0.119000
O6781	O678	0.575100	0.820200	0.188900
O6791	O679	0.563500	0.827500	0.070600
O6801	O680	0.527900	0.865100	0.142000
O6811	O681	0.555300	0.742200	0.170500
O6821	O682	0.509300	0.699900	0.183100
O6831	O683	0.648400	0.731200	0.073400
O6841	O684	0.654200	0.678900	0.037100
O6851	O685	0.485300	0.797100	0.091300
O6861	O686	0.441500	0.753400	0.072000
O6871	O687	0.584300	0.810500	0.986900
O6881	O688	0.584100	0.773300	0.936200
Nd1031	Nd103	0.042540	0.298440	0.630510
Nd1041	Nd104	0.119300	0.292340	0.547600
Ge1731	Ge173	0.099430	0.284810	0.716480
Ge1741	Ge174	0.138800	0.245550	0.639040
Ge1751	Ge175	0.028720	0.350180	0.541170
Ge1761	Ge176	0.104420	0.381470	0.495610
C5171	C517	0.069400	0.252100	0.752000
C5181	C518	0.054400	0.214700	0.733800
C5191	C519	0.037600	0.218800	0.692800
C5201	C520	0.125700	0.189900	0.636300
C5211	C521	0.148000	0.170500	0.605400
C5221	C522	0.149900	0.193300	0.568400
C5231	C523	0.995400	0.317500	0.509700
C5241	C524	0.955900	0.306100	0.528800
C5251	C525	0.961800	0.283700	0.565300
C5261	C526	0.109200	0.374700	0.440400
C5271	C527	0.083900	0.342200	0.424900
C5281	C528	0.084500	0.306100	0.450000
O6891	O689	0.137400	0.259900	0.690100
O6901	O690	0.004100	0.387600	0.566900
O6911	O691	0.055000	0.385700	0.512200
O6921	O692	0.138100	0.309900	0.743100
O6931	O693	0.112000	0.285000	0.619000
O6941	O694	0.075100	0.320200	0.688900
O6951	O695	0.063500	0.327500	0.570600
O6961	O696	0.027900	0.365100	0.642000
O6971	O697	0.055300	0.242200	0.670500
O6981	O698	0.009300	0.199900	0.683100
O6991	O699	0.148400	0.231200	0.573400
O7001	O700	0.154200	0.178900	0.537100
O7011	O701	0.985300	0.297100	0.591300
O7021	O702	0.941500	0.253400	0.572000
O7031	O703	0.084300	0.310500	0.486900
O7041	O704	0.084100	0.273300	0.436200
Nd1051	Nd105	0.957460	0.201560	0.630510
Nd1061	Nd106	0.880700	0.207660	0.547600
Ge1771	Ge177	0.900570	0.215190	0.716480
Ge1781	Ge178	0.861200	0.254450	0.639040
Ge1791	Ge179	0.971280	0.149820	0.541170
Ge1801	Ge180	0.895580	0.118530	0.495610
C5291	C529	0.930600	0.247900	0.752000
C5301	C530	0.945600	0.285300	0.733800
C5311	C531	0.962400	0.281200	0.692800
C5321	C532	0.874300	0.310100	0.636300
C5331	C533	0.852000	0.329500	0.605400
C5341	C534	0.850100	0.306700	0.568400
C5351	C535	0.004600	0.182500	0.509700
C5361	C536	0.044100	0.193900	0.528800
C5371	C537	0.038200	0.216300	0.565300
C5381	C538	0.890800	0.125300	0.440400
C5391	C539	0.916100	0.157800	0.424900
C5401	C540	0.915500	0.193900	0.450000
O7051	O705	0.862600	0.240100	0.690100
O7061	O706	0.995900	0.112400	0.566900
O7071	O707	0.945000	0.114300	0.512200
O7081	O708	0.861900	0.190100	0.743100
O7091	O709	0.888000	0.215000	0.619000
O7101	O710	0.924900	0.179800	0.688900
O7111	O711	0.936500	0.172500	0.570600
O7121	O712	0.972100	0.134900	0.642000
O7131	O713	0.944700	0.257800	0.670500
O7141	O714	0.990700	0.300100	0.683100
O7151	O715	0.851600	0.268800	0.573400
O7161	O716	0.845800	0.321100	0.537100
O7171	O717	0.014700	0.202900	0.591300
O7181	O718	0.058500	0.246600	0.572000
O7191	O719	0.915700	0.189500	0.486900
O7201	O720	0.915900	0.226700	0.436200
Nd1071	Nd107	0.457460	0.701560	0.130510
Nd1081	Nd108	0.380700	0.707660	0.047600
Ge1811	Ge181	0.400570	0.715190	0.216480
Ge1821	Ge182	0.361200	0.754450	0.139040
Ge1831	Ge183	0.471280	0.649820	0.041170
Ge1841	Ge184	0.395580	0.618530	0.995610
C5411	C541	0.430600	0.747900	0.252000
C5421	C542	0.445600	0.785300	0.233800
C5431	C543	0.462400	0.781200	0.192800
C5441	C544	0.374300	0.810100	0.136300
C5451	C545	0.352000	0.829500	0.105400
C5461	C546	0.350100	0.806700	0.068400
C5471	C547	0.504600	0.682500	0.009700
C5481	C548	0.544100	0.693900	0.028800
C5491	C549	0.538200	0.716300	0.065300
C5501	C550	0.390800	0.625300	0.940400
C5511	C551	0.416100	0.657800	0.924900
C5521	C552	0.415500	0.693900	0.950000
O7211	O721	0.362600	0.740100	0.190100
O7221	O722	0.495900	0.612400	0.066900
O7231	O723	0.445000	0.614300	0.012200
O7241	O724	0.361900	0.690100	0.243100
O7251	O725	0.388000	0.715000	0.119000
O7261	O726	0.424900	0.679800	0.188900
O7271	O727	0.436500	0.672500	0.070600
O7281	O728	0.472100	0.634900	0.142000
O7291	O729	0.444700	0.757800	0.170500
O7301	O730	0.490700	0.800100	0.183100
O7311	O731	0.351600	0.768800	0.073400
O7321	O732	0.345800	0.821100	0.037100
O7331	O733	0.514700	0.702900	0.091300
O7341	O734	0.558500	0.746600	0.072000
O7351	O735	0.415700	0.689500	0.986900
O7361	O736	0.415900	0.726700	0.936200
Nd1091	Nd109	0.042540	0.701560	0.869490
Nd1101	Nd110	0.119300	0.707660	0.952400
Ge1851	Ge185	0.099430	0.715190	0.783520
Ge1861	Ge186	0.138800	0.754450	0.860960
Ge1871	Ge187	0.028720	0.649820	0.958830
Ge1881	Ge188	0.104420	0.618530	0.004390
C5531	C553	0.069400	0.747900	0.748000
C5541	C554	0.054400	0.785300	0.766200
C5551	C555	0.037600	0.781200	0.807200
C5561	C556	0.125700	0.810100	0.863700
C5571	C557	0.148000	0.829500	0.894600
C5581	C558	0.149900	0.806700	0.931600
C5591	C559	0.995400	0.682500	0.990300
C5601	C560	0.955900	0.693900	0.971200
C5611	C561	0.961800	0.716300	0.934700
C5621	C562	0.109200	0.625300	0.059600
C5631	C563	0.083900	0.657800	0.075100
C5641	C564	0.084500	0.693900	0.050000
O7371	O737	0.137400	0.740100	0.809900
O7381	O738	0.004100	0.612400	0.933100
O7391	O739	0.055000	0.614300	0.987800
O7401	O740	0.138100	0.690100	0.756900
O7411	O741	0.112000	0.715000	0.881000
O7421	O742	0.075100	0.679800	0.811100
O7431	O743	0.063500	0.672500	0.929400
O7441	O744	0.027900	0.634900	0.858000
O7451	O745	0.055300	0.757800	0.829500
O7461	O746	0.009300	0.800100	0.816900
O7471	O747	0.148400	0.768800	0.926600
O7481	O748	0.154200	0.821100	0.962900
O7491	O749	0.985300	0.702900	0.908700
O7501	O750	0.941500	0.746600	0.928000
O7511	O751	0.084300	0.689500	0.013100
O7521	O752	0.084100	0.726700	0.063800
Nd1111	Nd111	0.542540	0.201560	0.369490
Nd1121	Nd112	0.619300	0.207660	0.452400
Ge1891	Ge189	0.599430	0.215190	0.283520
Ge1901	Ge190	0.638800	0.254450	0.360960
Ge1911	Ge191	0.528720	0.149820	0.458830
Ge1921	Ge192	0.604420	0.118530	0.504390
C5651	C565	0.569400	0.247900	0.248000
C5661	C566	0.554400	0.285300	0.266200
C5671	C567	0.537600	0.281200	0.307200
C5681	C568	0.625700	0.310100	0.363700
C5691	C569	0.648000	0.329500	0.394600
C5701	C570	0.649900	0.306700	0.431600
C5711	C571	0.495400	0.182500	0.490300
C5721	C572	0.455900	0.193900	0.471200
C5731	C573	0.461800	0.216300	0.434700
C5741	C574	0.609200	0.125300	0.559600
C5751	C575	0.583900	0.157800	0.575100
C5761	C576	0.584500	0.193900	0.550000
O7531	O753	0.637400	0.240100	0.309900
O7541	O754	0.504100	0.112400	0.433100
O7551	O755	0.555000	0.114300	0.487800
O7561	O756	0.638100	0.190100	0.256900
O7571	O757	0.612000	0.215000	0.381000
O7581	O758	0.575100	0.179800	0.311100
O7591	O759	0.563500	0.172500	0.429400
O7601	O760	0.527900	0.134900	0.358000
O7611	O761	0.555300	0.257800	0.329500
O7621	O762	0.509300	0.300100	0.316900
O7631	O763	0.648400	0.268800	0.426600
O7641	O764	0.654200	0.321100	0.462900
O7651	O765	0.485300	0.202900	0.408700
O7661	O766	0.441500	0.246600	0.428000
O7671	O767	0.584300	0.189500	0.513100
O7681	O768	0.584100	0.226700	0.563800
Nd1131	Nd113	0.301150	0.301150	0.301150
Nd1141	Nd114	0.450120	0.450120	0.450120
Nd1151	Nd115	0.801150	0.801150	0.801150
Nd1161	Nd116	0.950120	0.950120	0.950120
Nd1171	Nd117	0.198850	0.698850	0.801150
Nd1181	Nd118	0.049880	0.549880	0.950120
Nd1191	Nd119	0.698850	0.198850	0.301150
Nd1201	Nd120	0.549880	0.049880	0.450120
Nd1211	Nd121	0.698850	0.801150	0.198850
Nd1221	Nd122	0.549880	0.950120	0.049880
Nd1231	Nd123	0.198850	0.301150	0.698850
Nd1241	Nd124	0.049880	0.450120	0.549880
Nd1251	Nd125	0.801150	0.198850	0.698850
Nd1261	Nd126	0.950120	0.049880	0.549880
Nd1271	Nd127	0.301150	0.698850	0.198850
Nd1281	Nd128	0.450120	0.549880	0.049880
