data_OJONOQ_clean_PM
_symmetry_space_group_name_H-M	'P1'
_cell_length_a	7.230800
_cell_length_b	17.984500
_cell_length_c	17.984500
_cell_angle_alpha	61.767000
_cell_angle_beta	82.298100
_cell_angle_gamma	97.701900
_symmetry_Int_Tables_number 1

loop_
_symmetry_equiv_pos_as_xyz
'x,y,z'

loop_
_atom_site_label
_atom_site_type_symbol
_atom_site_fract_x
_atom_site_fract_y
_atom_site_fract_z
Er11	Er1	0.783230	0.000520	0.668510
Er21	Er2	0.451740	0.668510	0.330970
Er31	Er3	0.782710	0.330970	0.000520
Er41	Er4	0.216770	0.999480	0.331490
Er51	Er5	0.548260	0.331490	0.669030
Er61	Er6	0.217290	0.669030	0.999480
C11	C1	0.076100	0.039700	0.490400
C21	C2	0.573200	0.133400	0.707400
C31	C3	0.743000	0.195300	0.630400
C41	C4	0.566500	0.490400	0.469900
C51	C5	0.280600	0.707400	0.159200
C61	C6	0.373400	0.630400	0.174300
C71	C7	0.036400	0.469900	0.039700
C81	C8	0.439800	0.159200	0.133400
C91	C9	0.547700	0.174300	0.195300
C101	C10	0.923900	0.960300	0.509600
C111	C11	0.426800	0.866600	0.292600
C121	C12	0.257000	0.804700	0.369600
C131	C13	0.433500	0.509600	0.530100
C141	C14	0.719400	0.292600	0.840800
C151	C15	0.626600	0.369600	0.825700
C161	C16	0.963600	0.530100	0.960300
C171	C17	0.560200	0.840800	0.866600
C181	C18	0.452300	0.825700	0.804700
O11	O1	0.555770	0.054840	0.732430
O21	O2	0.845700	0.161340	0.600640
O31	O3	0.050100	0.068590	0.541490
O41	O4	0.209430	0.068700	0.425110
O51	O5	0.468760	0.167900	0.736620
O61	O6	0.760600	0.274360	0.605060
O71	O7	0.288200	0.732430	0.212730
O81	O8	0.446340	0.600640	0.238020
O91	O9	0.591590	0.541490	0.389920
O101	O10	0.634540	0.425110	0.506190
O111	O11	0.205380	0.736620	0.095480
O121	O12	0.365660	0.605060	0.120580
O131	O13	0.500930	0.212730	0.054840
O141	O14	0.684360	0.238020	0.161340
O151	O15	0.981510	0.389920	0.068590
O161	O16	0.140730	0.506190	0.068700
O171	O17	0.300860	0.095480	0.167900
O181	O18	0.486240	0.120580	0.274360
O191	O19	0.444230	0.945160	0.267570
O201	O20	0.154300	0.838660	0.399360
O211	O21	0.949900	0.931410	0.458510
O221	O22	0.790570	0.931300	0.574890
O231	O23	0.531240	0.832100	0.263380
O241	O24	0.239400	0.725640	0.394940
O251	O25	0.711800	0.267570	0.787270
O261	O26	0.553660	0.399360	0.761980
O271	O27	0.408410	0.458510	0.610080
O281	O28	0.365460	0.574890	0.493810
O291	O29	0.794620	0.263380	0.904520
O301	O30	0.634340	0.394940	0.879420
O311	O31	0.499070	0.787270	0.945160
O321	O32	0.315640	0.761980	0.838660
O331	O33	0.018490	0.610080	0.931410
O341	O34	0.859270	0.493810	0.931300
O351	O35	0.699140	0.904520	0.832100
O361	O36	0.513760	0.879420	0.725640
