data_OJORUC_clean_PM
_symmetry_space_group_name_H-M	'P1'
_cell_length_a	15.954000
_cell_length_b	19.226000
_cell_length_c	16.734000
_cell_angle_alpha	90.000000
_cell_angle_beta	96.828000
_cell_angle_gamma	90.000000
_symmetry_Int_Tables_number 1

loop_
_symmetry_equiv_pos_as_xyz
'x,y,z'

loop_
_atom_site_label
_atom_site_type_symbol
_atom_site_fract_x
_atom_site_fract_y
_atom_site_fract_z
Zn11	Zn1	0.534490	0.427320	0.533300
Zn21	Zn2	0.333720	0.431020	0.501840
O11	O1	0.486100	0.357400	0.608400
O21	O2	0.345400	0.366100	0.596100
O31	O3	0.488700	0.124200	0.926800
O41	O4	0.349600	0.134900	0.915300
O51	O5	0.214900	0.452000	0.475000
O61	O6	0.223100	0.500100	0.595100
O71	O7	0.427300	0.494310	0.537000
N11	N1	0.576800	0.197600	0.829100
H11	H1	0.577200	0.158000	0.853000
N21	N2	0.260600	0.301500	0.700400
H21	H2	0.262100	0.338100	0.671000
N31	N3	0.917800	0.465500	0.347200
H31	H3	0.868200	0.447900	0.346900
C11	C1	0.726700	0.185200	0.842700
H41	H4	0.719200	0.138100	0.851900
C21	C2	0.807400	0.211100	0.845400
H51	H5	0.853900	0.181700	0.854600
C31	C3	0.817700	0.280800	0.834100
H61	H6	0.871700	0.299500	0.836800
C41	C4	0.747100	0.324200	0.818500
H71	H7	0.755300	0.371300	0.809100
C51	C5	0.665400	0.299200	0.816500
H81	H8	0.619200	0.328900	0.808600
C61	C6	0.655000	0.228300	0.826500
C71	C7	0.496700	0.222700	0.798000
C81	C8	0.421900	0.202100	0.826700
C91	C9	0.345300	0.226800	0.791600
H91	H9	0.296300	0.211700	0.811200
C101	C10	0.338900	0.272400	0.729500
C111	C11	0.413600	0.293900	0.698000
C121	C12	0.490100	0.268400	0.733500
H101	H10	0.539200	0.282500	0.713200
C131	C13	0.421500	0.149100	0.896200
C141	C14	0.415200	0.342800	0.629100
C151	C15	0.179900	0.278100	0.713400
C161	C16	0.116600	0.323000	0.721200
H111	H11	0.127100	0.370500	0.721100
C171	C17	0.036200	0.299300	0.729400
H121	H12	0.993000	0.330900	0.734100
C181	C18	0.020100	0.230100	0.730700
H131	H13	0.966400	0.214500	0.738000
C191	C19	0.082200	0.183700	0.721500
H141	H14	0.071000	0.136200	0.721300
C201	C20	0.160700	0.207100	0.712600
H151	H15	0.203000	0.175000	0.705700
C211	C21	0.180200	0.481100	0.533600
C221	C22	0.088700	0.489800	0.518900
C231	C23	0.045300	0.474600	0.444500
H161	H16	0.076800	0.456800	0.405900
C241	C24	0.959100	0.483400	0.421600
C251	C25	0.947500	0.472800	0.271600
C261	C26	0.895600	0.441200	0.207300
H171	H17	0.847400	0.416600	0.216200
C271	C27	0.997800	0.490600	0.122100
H181	H18	0.014800	0.497300	0.071400
C281	C28	0.920300	0.448600	0.127400
H191	H19	0.889800	0.428500	0.082400
C291	C29	0.043000	0.518200	0.182800
H201	H20	0.091300	0.543300	0.175400
C301	C30	0.018600	0.510200	0.260900
H211	H21	0.050800	0.530200	0.305000
Zn31	Zn3	0.465510	0.927320	0.966700
Zn41	Zn4	0.666280	0.931020	0.998160
O81	O8	0.513900	0.857400	0.891600
O91	O9	0.654600	0.866100	0.903900
O101	O10	0.511300	0.624200	0.573200
O111	O11	0.650400	0.634900	0.584700
O121	O12	0.785100	0.952000	0.025000
O131	O13	0.776900	0.000100	0.904900
O141	O14	0.572700	0.994310	0.963000
N41	N4	0.423200	0.697600	0.670900
H221	H22	0.422800	0.658000	0.647000
N51	N5	0.739400	0.801500	0.799600
H231	H23	0.737900	0.838100	0.829000
N61	N6	0.082200	0.965500	0.152800
H241	H24	0.131800	0.947900	0.153100
C311	C31	0.273300	0.685200	0.657300
H251	H25	0.280800	0.638100	0.648100
C321	C32	0.192600	0.711100	0.654600
H261	H26	0.146100	0.681700	0.645400
C331	C33	0.182300	0.780800	0.665900
H271	H27	0.128300	0.799500	0.663200
C341	C34	0.252900	0.824200	0.681500
H281	H28	0.244700	0.871300	0.690900
C351	C35	0.334600	0.799200	0.683500
H291	H29	0.380800	0.828900	0.691400
C361	C36	0.345000	0.728300	0.673500
C371	C37	0.503300	0.722700	0.702000
C381	C38	0.578100	0.702100	0.673300
C391	C39	0.654700	0.726800	0.708400
H301	H30	0.703700	0.711700	0.688800
C401	C40	0.661100	0.772400	0.770500
C411	C41	0.586400	0.793900	0.802000
C421	C42	0.509900	0.768400	0.766500
H311	H31	0.460800	0.782500	0.786800
C431	C43	0.578500	0.649100	0.603800
C441	C44	0.584800	0.842800	0.870900
C451	C45	0.820100	0.778100	0.786600
C461	C46	0.883400	0.823000	0.778800
H321	H32	0.872900	0.870500	0.778900
C471	C47	0.963800	0.799300	0.770600
H331	H33	0.007000	0.830900	0.765900
C481	C48	0.979900	0.730100	0.769300
H341	H34	0.033600	0.714500	0.762000
C491	C49	0.917800	0.683700	0.778500
H351	H35	0.929000	0.636200	0.778700
C501	C50	0.839300	0.707100	0.787400
H361	H36	0.797000	0.675000	0.794300
C511	C51	0.819800	0.981100	0.966400
C521	C52	0.911300	0.989800	0.981100
C531	C53	0.954700	0.974600	0.055500
H371	H37	0.923200	0.956800	0.094100
C541	C54	0.040900	0.983400	0.078400
C551	C55	0.052500	0.972800	0.228400
C561	C56	0.104400	0.941200	0.292700
H381	H38	0.152600	0.916600	0.283800
C571	C57	0.002200	0.990600	0.377900
H391	H39	0.985200	0.997300	0.428600
C581	C58	0.079700	0.948600	0.372600
H401	H40	0.110200	0.928500	0.417600
C591	C59	0.957000	0.018200	0.317200
H411	H41	0.908700	0.043300	0.324600
C601	C60	0.981400	0.010200	0.239100
H421	H42	0.949200	0.030200	0.195000
Zn51	Zn5	0.465510	0.572680	0.466700
Zn61	Zn6	0.666280	0.568980	0.498160
O151	O15	0.513900	0.642600	0.391600
O161	O16	0.654600	0.633900	0.403900
O171	O17	0.511300	0.875800	0.073200
O181	O18	0.650400	0.865100	0.084700
O191	O19	0.785100	0.548000	0.525000
O201	O20	0.776900	0.499900	0.404900
O211	O21	0.572700	0.505690	0.463000
N71	N7	0.423200	0.802400	0.170900
H431	H43	0.422800	0.842000	0.147000
N81	N8	0.739400	0.698500	0.299600
H441	H44	0.737900	0.661900	0.329000
N91	N9	0.082200	0.534500	0.652800
H451	H45	0.131800	0.552100	0.653100
C611	C61	0.273300	0.814800	0.157300
H461	H46	0.280800	0.861900	0.148100
C621	C62	0.192600	0.788900	0.154600
H471	H47	0.146100	0.818300	0.145400
C631	C63	0.182300	0.719200	0.165900
H481	H48	0.128300	0.700500	0.163200
C641	C64	0.252900	0.675800	0.181500
H491	H49	0.244700	0.628700	0.190900
C651	C65	0.334600	0.700800	0.183500
H501	H50	0.380800	0.671100	0.191400
C661	C66	0.345000	0.771700	0.173500
C671	C67	0.503300	0.777300	0.202000
C681	C68	0.578100	0.797900	0.173300
C691	C69	0.654700	0.773200	0.208400
H511	H51	0.703700	0.788300	0.188800
C701	C70	0.661100	0.727600	0.270500
C711	C71	0.586400	0.706100	0.302000
C721	C72	0.509900	0.731600	0.266500
H521	H52	0.460800	0.717500	0.286800
C731	C73	0.578500	0.850900	0.103800
C741	C74	0.584800	0.657200	0.370900
C751	C75	0.820100	0.721900	0.286600
C761	C76	0.883400	0.677000	0.278800
H531	H53	0.872900	0.629500	0.278900
C771	C77	0.963800	0.700700	0.270600
H541	H54	0.007000	0.669100	0.265900
C781	C78	0.979900	0.769900	0.269300
H551	H55	0.033600	0.785500	0.262000
C791	C79	0.917800	0.816300	0.278500
H561	H56	0.929000	0.863800	0.278700
C801	C80	0.839300	0.792900	0.287400
H571	H57	0.797000	0.825000	0.294300
C811	C81	0.819800	0.518900	0.466400
C821	C82	0.911300	0.510200	0.481100
C831	C83	0.954700	0.525400	0.555500
H581	H58	0.923200	0.543200	0.594100
C841	C84	0.040900	0.516600	0.578400
C851	C85	0.052500	0.527200	0.728400
C861	C86	0.104400	0.558800	0.792700
H591	H59	0.152600	0.583400	0.783800
C871	C87	0.002200	0.509400	0.877900
H601	H60	0.985200	0.502700	0.928600
C881	C88	0.079700	0.551400	0.872600
H611	H61	0.110200	0.571500	0.917600
C891	C89	0.957000	0.481800	0.817200
H621	H62	0.908700	0.456700	0.824600
C901	C90	0.981400	0.489800	0.739100
H631	H63	0.949200	0.469800	0.695000
Zn71	Zn7	0.534490	0.072680	0.033300
Zn81	Zn8	0.333720	0.068980	0.001840
O221	O22	0.486100	0.142600	0.108400
O231	O23	0.345400	0.133900	0.096100
O241	O24	0.488700	0.375800	0.426800
O251	O25	0.349600	0.365100	0.415300
O261	O26	0.214900	0.048000	0.975000
O271	O27	0.223100	0.999900	0.095100
O281	O28	0.427300	0.005690	0.037000
N101	N10	0.576800	0.302400	0.329100
H641	H64	0.577200	0.342000	0.353000
N111	N11	0.260600	0.198500	0.200400
H651	H65	0.262100	0.161900	0.171000
N121	N12	0.917800	0.034500	0.847200
H661	H66	0.868200	0.052100	0.846900
C911	C91	0.726700	0.314800	0.342700
H671	H67	0.719200	0.361900	0.351900
C921	C92	0.807400	0.288900	0.345400
H681	H68	0.853900	0.318300	0.354600
C931	C93	0.817700	0.219200	0.334100
H691	H69	0.871700	0.200500	0.336800
C941	C94	0.747100	0.175800	0.318500
H701	H70	0.755300	0.128700	0.309100
C951	C95	0.665400	0.200800	0.316500
H711	H71	0.619200	0.171100	0.308600
C961	C96	0.655000	0.271700	0.326500
C971	C97	0.496700	0.277300	0.298000
C981	C98	0.421900	0.297900	0.326700
C991	C99	0.345300	0.273200	0.291600
H721	H72	0.296300	0.288300	0.311200
C1001	C100	0.338900	0.227600	0.229500
C1011	C101	0.413600	0.206100	0.198000
C1021	C102	0.490100	0.231600	0.233500
H731	H73	0.539200	0.217500	0.213200
C1031	C103	0.421500	0.350900	0.396200
C1041	C104	0.415200	0.157200	0.129100
C1051	C105	0.179900	0.221900	0.213400
C1061	C106	0.116600	0.177000	0.221200
H741	H74	0.127100	0.129500	0.221100
C1071	C107	0.036200	0.200700	0.229400
H751	H75	0.993000	0.169100	0.234100
C1081	C108	0.020100	0.269900	0.230700
H761	H76	0.966400	0.285500	0.238000
C1091	C109	0.082200	0.316300	0.221500
H771	H77	0.071000	0.363800	0.221300
C1101	C110	0.160700	0.292900	0.212600
H781	H78	0.203000	0.325000	0.205700
C1111	C111	0.180200	0.018900	0.033600
C1121	C112	0.088700	0.010200	0.018900
C1131	C113	0.045300	0.025400	0.944500
H791	H79	0.076800	0.043200	0.905900
C1141	C114	0.959100	0.016600	0.921600
C1151	C115	0.947500	0.027200	0.771600
C1161	C116	0.895600	0.058800	0.707300
H801	H80	0.847400	0.083400	0.716200
C1171	C117	0.997800	0.009400	0.622100
H811	H81	0.014800	0.002700	0.571400
C1181	C118	0.920300	0.051400	0.627400
H821	H82	0.889800	0.071500	0.582400
C1191	C119	0.043000	0.981800	0.682800
H831	H83	0.091300	0.956700	0.675400
C1201	C120	0.018600	0.989800	0.760900
H841	H84	0.050800	0.969800	0.805000
