data_OJOZOE_clean_PM
_symmetry_space_group_name_H-M	'P1'
_cell_length_a	6.113900
_cell_length_b	8.771800
_cell_length_c	13.154300
_cell_angle_alpha	101.048000
_cell_angle_beta	101.805000
_cell_angle_gamma	96.546000
_symmetry_Int_Tables_number 1

loop_
_symmetry_equiv_pos_as_xyz
'x,y,z'

loop_
_atom_site_label
_atom_site_type_symbol
_atom_site_fract_x
_atom_site_fract_y
_atom_site_fract_z
Gd11	Gd1	0.747160	0.219310	0.724570
O11	O1	0.501700	0.800200	0.451500
O21	O2	0.065000	0.106600	0.800500
O31	O3	0.766900	0.356900	0.909700
H11	H1	0.683000	0.330000	0.951000
O41	O4	0.067300	0.455100	0.813700
H21	H2	0.173000	0.509000	0.791000
O51	O5	0.659500	0.479200	0.712400
O61	O6	0.630200	0.029000	0.829300
H31	H3	0.674000	0.936000	0.825000
O71	O7	0.505300	0.212700	0.010300
H41	H4	0.459600	0.246400	0.065100
O81	O8	0.658300	0.713800	0.815400
O91	O9	0.363900	0.200700	0.744200
O101	O10	0.678000	0.958600	0.609900
C11	C1	0.408400	0.008300	0.850500
H51	H5	0.335500	0.896300	0.820300
C21	C2	0.267800	0.115200	0.794000
C31	C3	0.417200	0.047900	0.970400
H61	H6	0.262400	0.023900	0.983000
C41	C4	0.895500	0.507900	0.958700
H71	H7	0.800600	0.577200	0.993700
C51	C5	0.550300	0.928600	0.517700
C61	C6	0.743600	0.591300	0.791600
C71	C7	0.960700	0.571700	0.867400
H81	H8	0.066000	0.674000	0.894700
Gd21	Gd2	0.252840	0.780690	0.275430
O111	O11	0.498300	0.199800	0.548500
O121	O12	0.935000	0.893400	0.199500
O131	O13	0.233100	0.643100	0.090300
H91	H9	0.317000	0.670000	0.049000
O141	O14	0.932700	0.544900	0.186300
H101	H10	0.827000	0.491000	0.209000
O151	O15	0.340500	0.520800	0.287600
O161	O16	0.369800	0.971000	0.170700
H111	H11	0.326000	0.064000	0.175000
O171	O17	0.494700	0.787300	0.989700
H121	H12	0.540400	0.753600	0.934900
O181	O18	0.341700	0.286200	0.184600
O191	O19	0.636100	0.799300	0.255800
O201	O20	0.322000	0.041400	0.390100
C81	C8	0.591600	0.991700	0.149500
H131	H13	0.664500	0.103700	0.179700
C91	C9	0.732200	0.884800	0.206000
C101	C10	0.582800	0.952100	0.029600
H141	H14	0.737600	0.976100	0.017000
C111	C11	0.104500	0.492100	0.041300
H151	H15	0.199400	0.422800	0.006300
C121	C12	0.449700	0.071400	0.482300
C131	C13	0.256400	0.408700	0.208400
C141	C14	0.039300	0.428300	0.132600
H161	H16	0.934000	0.326000	0.105300
