data_OKAYEG_clean_PM
_symmetry_space_group_name_H-M	'P1'
_cell_length_a	11.595500
_cell_length_b	5.558100
_cell_length_c	22.954800
_cell_angle_alpha	90.000000
_cell_angle_beta	101.062000
_cell_angle_gamma	90.000000
_symmetry_Int_Tables_number 1

loop_
_symmetry_equiv_pos_as_xyz
'x,y,z'

loop_
_atom_site_label
_atom_site_type_symbol
_atom_site_fract_x
_atom_site_fract_y
_atom_site_fract_z
O11	O1	0.737290	0.478600	0.672320
C11	C1	0.727760	0.263300	0.655550
Ca11	Ca1	0.363190	0.242200	0.279170
S11	S1	0.604260	0.033430	0.394670
O21	O2	0.011640	0.474400	0.252060
O31	O3	0.741040	0.086600	0.691070
O41	O4	0.506030	0.191100	0.371640
O51	O5	0.040450	0.079300	0.243210
O61	O6	0.587520	0.776720	0.391130
C21	C2	0.704690	0.210200	0.590210
C31	C3	0.737400	0.989500	0.569440
H11	H1	0.776800	0.876600	0.595900
C41	C4	0.721590	0.107300	0.359480
C51	C5	0.650300	0.108800	0.470360
C61	C6	0.900710	0.206900	0.299040
C71	C7	0.900600	0.989600	0.329490
H21	H2	0.960100	0.877900	0.329000
C81	C8	0.811690	0.940100	0.360580
H31	H3	0.812200	0.797500	0.381800
C91	C9	0.620290	0.332300	0.490260
H41	H4	0.582100	0.446100	0.463700
C101	C10	0.812210	0.375000	0.300390
H51	H5	0.814200	0.521900	0.281200
C111	C11	0.710940	0.938800	0.508990
H61	H6	0.733500	0.793200	0.494600
C121	C12	0.992900	0.257700	0.261990
C131	C13	0.720970	0.326400	0.329930
H71	H7	0.660900	0.437200	0.330000
C141	C14	0.648490	0.382100	0.550560
H81	H8	0.629700	0.531300	0.564600
O71	O7	0.762710	0.978600	0.827680
C151	C15	0.772240	0.763300	0.844450
Ca21	Ca2	0.136810	0.742200	0.220830
S21	S2	0.895740	0.533430	0.105330
O81	O8	0.488360	0.974400	0.247940
O91	O9	0.758960	0.586600	0.808930
O101	O10	0.993970	0.691100	0.128360
O111	O11	0.459550	0.579300	0.256790
O121	O12	0.912480	0.276720	0.108870
C161	C16	0.795310	0.710200	0.909790
C171	C17	0.762600	0.489500	0.930560
H91	H9	0.723200	0.376600	0.904100
C181	C18	0.778410	0.607300	0.140520
C191	C19	0.849700	0.608800	0.029640
C201	C20	0.599290	0.706900	0.200960
C211	C21	0.599400	0.489600	0.170510
H101	H10	0.539900	0.377900	0.171000
C221	C22	0.688310	0.440100	0.139420
H111	H11	0.687800	0.297500	0.118200
C231	C23	0.879710	0.832300	0.009740
H121	H12	0.917900	0.946100	0.036300
C241	C24	0.687790	0.875000	0.199610
H131	H13	0.685800	0.021900	0.218800
C251	C25	0.789060	0.438800	0.991010
H141	H14	0.766500	0.293200	0.005400
C261	C26	0.507100	0.757700	0.238010
C271	C27	0.779030	0.826400	0.170070
H151	H15	0.839100	0.937200	0.170000
C281	C28	0.851510	0.882100	0.949440
H161	H16	0.870300	0.031300	0.935400
O131	O13	0.262710	0.521400	0.327680
C291	C29	0.272240	0.736700	0.344450
Ca31	Ca3	0.636810	0.757800	0.720830
S31	S3	0.395740	0.966570	0.605330
O141	O14	0.988360	0.525600	0.747940
O151	O15	0.258960	0.913400	0.308930
O161	O16	0.493970	0.808900	0.628360
O171	O17	0.959550	0.920700	0.756790
O181	O18	0.412480	0.223280	0.608870
C301	C30	0.295310	0.789800	0.409790
C311	C31	0.262600	0.010500	0.430560
H171	H17	0.223200	0.123400	0.404100
C321	C32	0.278410	0.892700	0.640520
C331	C33	0.349700	0.891200	0.529640
C341	C34	0.099290	0.793100	0.700960
C351	C35	0.099400	0.010400	0.670510
H181	H18	0.039900	0.122100	0.671000
C361	C36	0.188310	0.059900	0.639420
H191	H19	0.187800	0.202500	0.618200
C371	C37	0.379710	0.667700	0.509740
H201	H20	0.417900	0.553900	0.536300
C381	C38	0.187790	0.625000	0.699610
H211	H21	0.185800	0.478100	0.718800
C391	C39	0.289060	0.061200	0.491010
H221	H22	0.266500	0.206800	0.505400
C401	C40	0.007100	0.742300	0.738010
C411	C41	0.279030	0.673600	0.670070
H231	H23	0.339100	0.562800	0.670000
C421	C42	0.351510	0.617900	0.449440
H241	H24	0.370300	0.468700	0.435400
O191	O19	0.237290	0.021400	0.172320
C431	C43	0.227760	0.236700	0.155550
Ca41	Ca4	0.863190	0.257800	0.779170
S41	S4	0.104260	0.466570	0.894670
O201	O20	0.511640	0.025600	0.752060
O211	O21	0.241040	0.413400	0.191070
O221	O22	0.006030	0.308900	0.871640
O231	O23	0.540450	0.420700	0.743210
O241	O24	0.087520	0.723280	0.891130
C441	C44	0.204690	0.289800	0.090210
C451	C45	0.237400	0.510500	0.069440
H251	H25	0.276800	0.623400	0.095900
C461	C46	0.221590	0.392700	0.859480
C471	C47	0.150300	0.391200	0.970360
C481	C48	0.400710	0.293100	0.799040
C491	C49	0.400600	0.510400	0.829490
H261	H26	0.460100	0.622100	0.829000
C501	C50	0.311690	0.559900	0.860580
H271	H27	0.312200	0.702500	0.881800
C511	C51	0.120290	0.167700	0.990260
H281	H28	0.082100	0.053900	0.963700
C521	C52	0.312210	0.125000	0.800390
H291	H29	0.314200	0.978100	0.781200
C531	C53	0.210940	0.561200	0.008990
H301	H30	0.233500	0.706800	0.994600
C541	C54	0.492900	0.242300	0.761990
C551	C55	0.220970	0.173600	0.829930
H311	H31	0.160900	0.062800	0.830000
C561	C56	0.148490	0.117900	0.050560
H321	H32	0.129700	0.968700	0.064600
