data_OKECIQ01_clean_PM
_symmetry_space_group_name_H-M	'P1'
_cell_length_a	16.794200
_cell_length_b	16.794200
_cell_length_c	16.794200
_cell_angle_alpha	90.000000
_cell_angle_beta	90.000000
_cell_angle_gamma	90.000000
_symmetry_Int_Tables_number 1

loop_
_symmetry_equiv_pos_as_xyz
'x,y,z'

loop_
_atom_site_label
_atom_site_type_symbol
_atom_site_fract_x
_atom_site_fract_y
_atom_site_fract_z
O11	O1	0.016490	0.591880	0.305360
O21	O2	0.516490	0.091880	0.805360
O31	O3	0.983510	0.408120	0.305360
O41	O4	0.483510	0.908120	0.805360
O51	O5	0.983510	0.591880	0.694640
O61	O6	0.483510	0.091880	0.194640
O71	O7	0.016490	0.408120	0.694640
O81	O8	0.516490	0.908120	0.194640
O91	O9	0.305360	0.016490	0.591880
O101	O10	0.805360	0.516490	0.091880
O111	O11	0.305360	0.983510	0.408120
O121	O12	0.805360	0.483510	0.908120
O131	O13	0.694640	0.983510	0.591880
O141	O14	0.194640	0.483510	0.091880
O151	O15	0.694640	0.016490	0.408120
O161	O16	0.194640	0.516490	0.908120
O171	O17	0.591880	0.305360	0.016490
O181	O18	0.091880	0.805360	0.516490
O191	O19	0.408120	0.305360	0.983510
O201	O20	0.908120	0.805360	0.483510
O211	O21	0.591880	0.694640	0.983510
O221	O22	0.091880	0.194640	0.483510
O231	O23	0.408120	0.694640	0.016490
O241	O24	0.908120	0.194640	0.516490
O251	O25	0.591880	0.016490	0.305360
O261	O26	0.091880	0.516490	0.805360
O271	O27	0.408120	0.983510	0.305360
O281	O28	0.908120	0.483510	0.805360
O291	O29	0.591880	0.983510	0.694640
O301	O30	0.091880	0.483510	0.194640
O311	O31	0.408120	0.016490	0.694640
O321	O32	0.908120	0.516490	0.194640
O331	O33	0.016490	0.305360	0.591880
O341	O34	0.516490	0.805360	0.091880
O351	O35	0.983510	0.305360	0.408120
O361	O36	0.483510	0.805360	0.908120
O371	O37	0.983510	0.694640	0.591880
O381	O38	0.483510	0.194640	0.091880
O391	O39	0.016490	0.694640	0.408120
O401	O40	0.516490	0.194640	0.908120
O411	O41	0.305360	0.591880	0.016490
O421	O42	0.805360	0.091880	0.516490
O431	O43	0.305360	0.408120	0.983510
O441	O44	0.805360	0.908120	0.483510
O451	O45	0.694640	0.591880	0.983510
O461	O46	0.194640	0.091880	0.483510
O471	O47	0.694640	0.408120	0.016490
O481	O48	0.194640	0.908120	0.516490
Al11	Al1	0.000000	0.500000	0.500000
Al21	Al2	0.500000	0.000000	0.000000
Al31	Al3	0.500000	0.000000	0.500000
Al41	Al4	0.000000	0.500000	0.000000
Al51	Al5	0.500000	0.500000	0.000000
Al61	Al6	0.000000	0.000000	0.500000
Al71	Al7	0.000000	0.500000	0.250000
Al81	Al8	0.000000	0.500000	0.750000
Al91	Al9	0.500000	0.000000	0.250000
Al101	Al10	0.250000	0.000000	0.500000
Al111	Al11	0.750000	0.000000	0.500000
Al121	Al12	0.250000	0.500000	0.000000
Al131	Al13	0.500000	0.250000	0.000000
Al141	Al14	0.500000	0.750000	0.000000
Al151	Al15	0.000000	0.250000	0.500000
Al161	Al16	0.500000	0.000000	0.750000
Al171	Al17	0.000000	0.750000	0.500000
Al181	Al18	0.750000	0.500000	0.000000
P11	P1	0.064450	0.622540	0.377460
O491	O49	0.148660	0.644540	0.355460
O501	O50	0.064710	0.557840	0.442160
P21	P2	0.564450	0.122540	0.877460
O511	O51	0.648660	0.144540	0.855460
O521	O52	0.564710	0.057840	0.942160
P31	P3	0.935550	0.377460	0.377460
O531	O53	0.851340	0.355460	0.355460
O541	O54	0.935290	0.442160	0.442160
P41	P4	0.435550	0.877460	0.877460
O551	O55	0.351340	0.855460	0.855460
O561	O56	0.435290	0.942160	0.942160
P51	P5	0.935550	0.622540	0.622540
O571	O57	0.851340	0.644540	0.644540
O581	O58	0.935290	0.557840	0.557840
P61	P6	0.435550	0.122540	0.122540
O591	O59	0.351340	0.144540	0.144540
O601	O60	0.435290	0.057840	0.057840
P71	P7	0.064450	0.377460	0.622540
O611	O61	0.148660	0.355460	0.644540
O621	O62	0.064710	0.442160	0.557840
P81	P8	0.564450	0.877460	0.122540
O631	O63	0.648660	0.855460	0.144540
O641	O64	0.564710	0.942160	0.057840
P91	P9	0.377460	0.064450	0.622540
O651	O65	0.355460	0.148660	0.644540
O661	O66	0.442160	0.064710	0.557840
P101	P10	0.877460	0.564450	0.122540
O671	O67	0.855460	0.648660	0.144540
O681	O68	0.942160	0.564710	0.057840
P111	P11	0.377460	0.935550	0.377460
O691	O69	0.355460	0.851340	0.355460
O701	O70	0.442160	0.935290	0.442160
P121	P12	0.877460	0.435550	0.877460
O711	O71	0.855460	0.351340	0.855460
O721	O72	0.942160	0.435290	0.942160
P131	P13	0.622540	0.935550	0.622540
O731	O73	0.644540	0.851340	0.644540
O741	O74	0.557840	0.935290	0.557840
P141	P14	0.122540	0.435550	0.122540
O751	O75	0.144540	0.351340	0.144540
O761	O76	0.057840	0.435290	0.057840
P151	P15	0.622540	0.064450	0.377460
O771	O77	0.644540	0.148660	0.355460
O781	O78	0.557840	0.064710	0.442160
P161	P16	0.122540	0.564450	0.877460
O791	O79	0.144540	0.648660	0.855460
O801	O80	0.057840	0.564710	0.942160
P171	P17	0.622540	0.377460	0.064450
O811	O81	0.644540	0.355460	0.148660
O821	O82	0.557840	0.442160	0.064710
P181	P18	0.122540	0.877460	0.564450
O831	O83	0.144540	0.855460	0.648660
O841	O84	0.057840	0.942160	0.564710
P191	P19	0.377460	0.377460	0.935550
O851	O85	0.355460	0.355460	0.851340
O861	O86	0.442160	0.442160	0.935290
P201	P20	0.877460	0.877460	0.435550
O871	O87	0.855460	0.855460	0.351340
O881	O88	0.942160	0.942160	0.435290
P211	P21	0.622540	0.622540	0.935550
O891	O89	0.644540	0.644540	0.851340
O901	O90	0.557840	0.557840	0.935290
P221	P22	0.122540	0.122540	0.435550
O911	O91	0.144540	0.144540	0.351340
O921	O92	0.057840	0.057840	0.435290
P231	P23	0.377460	0.622540	0.064450
O931	O93	0.355460	0.644540	0.148660
O941	O94	0.442160	0.557840	0.064710
P241	P24	0.877460	0.122540	0.564450
O951	O95	0.855460	0.144540	0.648660
O961	O96	0.942160	0.057840	0.564710
