data_OKELIB_clean_PM
_symmetry_space_group_name_H-M	'P1'
_cell_length_a	11.003100
_cell_length_b	11.221700
_cell_length_c	11.695900
_cell_angle_alpha	69.193000
_cell_angle_beta	79.676000
_cell_angle_gamma	81.008000
_symmetry_Int_Tables_number 1

loop_
_symmetry_equiv_pos_as_xyz
'x,y,z'

loop_
_atom_site_label
_atom_site_type_symbol
_atom_site_fract_x
_atom_site_fract_y
_atom_site_fract_z
Ni11	Ni1	0.984670	0.245300	0.238130
Ni21	Ni2	0.863470	0.017600	0.500690
Ni31	Ni3	0.028430	0.573500	0.074880
O11	O1	0.013100	0.070900	0.371000
H11	H1	0.019500	0.019100	0.331600
O21	O2	0.942400	0.416500	0.103300
H21	H2	0.865300	0.437100	0.119500
O31	O3	0.823900	0.188300	0.203900
O41	O4	0.726800	0.098800	0.397900
O51	O5	0.200900	0.468800	0.093900
O61	O6	0.151900	0.297200	0.258500
O71	O7	0.139600	0.821800	0.455600
O81	O8	0.115800	0.667300	0.640500
O91	O9	0.908400	0.844500	0.878900
O101	O10	0.864400	0.689900	0.057100
C11	C1	0.727300	0.161500	0.284800
C21	C2	0.600200	0.218200	0.247400
C31	C3	0.547100	0.187300	0.159600
C41	C4	0.429700	0.244300	0.135000
H31	H3	0.393700	0.224500	0.078700
C51	C5	0.362200	0.330300	0.190500
C61	C6	0.226600	0.366000	0.182900
C71	C7	0.417300	0.359700	0.278300
C81	C8	0.535600	0.304800	0.299200
H41	H4	0.573900	0.328000	0.351700
C91	C9	0.349400	0.446000	0.341700
C101	C10	0.336800	0.412100	0.470800
H51	H5	0.372200	0.332400	0.516600
C111	C11	0.275000	0.491600	0.530500
H61	H6	0.266000	0.464600	0.616200
C121	C12	0.223000	0.617500	0.462700
C131	C13	0.157800	0.703500	0.529600
C141	C14	0.238700	0.653200	0.332900
H71	H7	0.207400	0.734400	0.285900
C151	C15	0.299600	0.569300	0.275500
H81	H8	0.308200	0.594900	0.189900
C161	C16	0.608500	0.084300	0.112000
C171	C17	0.640500	0.100400	0.987300
H91	H9	0.613600	0.177300	0.929700
C181	C18	0.707300	0.011200	0.946700
H101	H10	0.723000	0.026900	0.862100
C191	C19	0.756000	0.892800	0.027200
C201	C20	0.850800	0.802100	0.983900
C211	C21	0.722700	0.870900	0.151900
H111	H11	0.745600	0.791400	0.208200
C221	C22	0.655200	0.966100	0.194700
H121	H12	0.640500	0.951800	0.279100
Ni41	Ni4	0.015330	0.754700	0.761870
Ni51	Ni5	0.136530	0.982400	0.499310
Ni61	Ni6	0.971570	0.426500	0.925120
O111	O11	0.986900	0.929100	0.629000
H131	H13	0.980500	0.980900	0.668400
O121	O12	0.057600	0.583500	0.896700
H141	H14	0.134700	0.562900	0.880500
O131	O13	0.176100	0.811700	0.796100
O141	O14	0.273200	0.901200	0.602100
O151	O15	0.799100	0.531200	0.906100
O161	O16	0.848100	0.702800	0.741500
O171	O17	0.860400	0.178200	0.544400
O181	O18	0.884200	0.332700	0.359500
O191	O19	0.091600	0.155500	0.121100
O201	O20	0.135600	0.310100	0.942900
C231	C23	0.272700	0.838500	0.715200
C241	C24	0.399800	0.781800	0.752600
C251	C25	0.452900	0.812700	0.840400
C261	C26	0.570300	0.755700	0.865000
H151	H15	0.606300	0.775500	0.921300
C271	C27	0.637800	0.669700	0.809500
C281	C28	0.773400	0.634000	0.817100
C291	C29	0.582700	0.640300	0.721700
C301	C30	0.464400	0.695200	0.700800
H161	H16	0.426100	0.672000	0.648300
C311	C31	0.650600	0.554000	0.658300
C321	C32	0.663200	0.587900	0.529200
H171	H17	0.627800	0.667600	0.483400
C331	C33	0.725000	0.508400	0.469500
H181	H18	0.734000	0.535400	0.383800
C341	C34	0.777000	0.382500	0.537300
C351	C35	0.842200	0.296500	0.470400
C361	C36	0.761300	0.346800	0.667100
H191	H19	0.792600	0.265600	0.714100
C371	C37	0.700400	0.430700	0.724500
H201	H20	0.691800	0.405100	0.810100
C381	C38	0.391500	0.915700	0.888000
C391	C39	0.359500	0.899600	0.012700
H211	H21	0.386400	0.822700	0.070300
C401	C40	0.292700	0.988800	0.053300
H221	H22	0.277000	0.973100	0.137900
C411	C41	0.244000	0.107200	0.972800
C421	C42	0.149200	0.197900	0.016100
C431	C43	0.277300	0.129100	0.848100
H231	H23	0.254400	0.208600	0.791800
C441	C44	0.344800	0.033900	0.805300
H241	H24	0.359500	0.048200	0.720900
