data_OKIKAV_charged_PM
_symmetry_space_group_name_H-M	'P1'
_cell_length_a	9.870400
_cell_length_b	12.138100
_cell_length_c	26.390000
_cell_angle_alpha	90.000000
_cell_angle_beta	90.000000
_cell_angle_gamma	90.000000
_symmetry_Int_Tables_number 1

loop_
_symmetry_equiv_pos_as_xyz
'x,y,z'

loop_
_atom_site_label
_atom_site_type_symbol
_atom_site_fract_x
_atom_site_fract_y
_atom_site_fract_z
Ag11	Ag1	0.710480	0.002600	0.989360
Ag21	Ag2	0.289520	0.002600	0.010640
Ag31	Ag3	0.710480	0.502600	0.510640
Ag41	Ag4	0.289520	0.502600	0.489360
H11	H1	0.808100	0.139400	0.175500
H21	H2	0.810000	0.142900	0.262900
H31	H3	0.713800	0.826800	0.267900
H41	H4	0.718500	0.820200	0.179700
H51	H5	0.533900	0.065000	0.304300
H61	H6	0.408900	0.197700	0.340400
H71	H7	0.689400	0.217800	0.453900
H81	H8	0.813800	0.086200	0.411300
H91	H9	0.708200	0.882600	0.411700
H101	H10	0.829900	0.750200	0.452900
H111	H11	0.120400	0.760600	0.348100
H121	H12	0.000900	0.903800	0.305700
H131	H13	0.191900	0.139400	0.824500
H141	H14	0.190000	0.142900	0.737100
H151	H15	0.286200	0.826800	0.732100
H161	H16	0.281500	0.820200	0.820300
H171	H17	0.466100	0.065000	0.695700
H181	H18	0.591100	0.197700	0.659600
H191	H19	0.310600	0.217800	0.546100
H201	H20	0.186200	0.086200	0.588700
H211	H21	0.291800	0.882600	0.588300
H221	H22	0.170100	0.750200	0.547100
H231	H23	0.879600	0.760600	0.651900
H241	H24	0.999100	0.903800	0.694300
H251	H25	0.808100	0.639400	0.324500
H261	H26	0.810000	0.642900	0.237100
H271	H27	0.713800	0.326800	0.232100
H281	H28	0.718500	0.320200	0.320300
H291	H29	0.533900	0.565000	0.195700
H301	H30	0.408900	0.697700	0.159600
H311	H31	0.689400	0.717800	0.046100
H321	H32	0.813800	0.586200	0.088700
H331	H33	0.708200	0.382600	0.088300
H341	H34	0.829900	0.250200	0.047100
H351	H35	0.120400	0.260600	0.151900
H361	H36	0.000900	0.403800	0.194300
H371	H37	0.191900	0.639400	0.675500
H381	H38	0.190000	0.642900	0.762900
H391	H39	0.286200	0.326800	0.767900
H401	H40	0.281500	0.320200	0.679700
H411	H41	0.466100	0.565000	0.804300
H421	H42	0.591100	0.697700	0.840400
H431	H43	0.310600	0.717800	0.953900
H441	H44	0.186200	0.586200	0.911300
H451	H45	0.291800	0.382600	0.911700
H461	H46	0.170100	0.250200	0.952900
H471	H47	0.879600	0.260600	0.848100
H481	H48	0.999100	0.403800	0.805700
C11	C1	0.752400	0.980600	0.114200
C21	C2	0.761300	0.980500	0.169500
C31	C3	0.789700	0.075700	0.193800
C41	C4	0.791200	0.077500	0.246000
C51	C5	0.765100	0.983600	0.273100
C61	C6	0.735000	0.889600	0.249300
C71	C7	0.735500	0.886000	0.196500
C81	C8	0.685100	0.065600	0.353800
C91	C9	0.564400	0.097900	0.334000
C101	C10	0.489000	0.174600	0.355700
C111	C11	0.533000	0.223200	0.404300
C121	C12	0.451900	0.298800	0.429800
C131	C13	0.656800	0.188300	0.423800
C141	C14	0.731200	0.109500	0.398100
C151	C15	0.841400	0.905100	0.353700
C161	C16	0.790900	0.859200	0.398700
C171	C17	0.863300	0.780600	0.423000
C181	C18	0.986300	0.745300	0.403900
C191	C19	0.038600	0.786700	0.360800
C201	C20	0.965500	0.871700	0.334800
C211	C21	0.070800	0.666400	0.433700
C221	C22	0.247600	0.980600	0.885800
C231	C23	0.238700	0.980500	0.830500
C241	C24	0.210300	0.075700	0.806200
C251	C25	0.208800	0.077500	0.754000
C261	C26	0.234900	0.983600	0.726900
C271	C27	0.265000	0.889600	0.750700
C281	C28	0.264500	0.886000	0.803500
C291	C29	0.314900	0.065600	0.646200
C301	C30	0.435600	0.097900	0.666000
C311	C31	0.511000	0.174600	0.644300
C321	C32	0.467000	0.223200	0.595700
C331	C33	0.548100	0.298800	0.570200
C341	C34	0.343200	0.188300	0.576200
C351	C35	0.268800	0.109500	0.601900
C361	C36	0.158600	0.905100	0.646300
C371	C37	0.209100	0.859200	0.601300
C381	C38	0.136700	0.780600	0.577000
C391	C39	0.013700	0.745300	0.596100
C401	C40	0.961400	0.786700	0.639200
C411	C41	0.034500	0.871700	0.665200
C421	C42	0.929200	0.666400	0.566300
C431	C43	0.752400	0.480600	0.385800
C441	C44	0.761300	0.480500	0.330500
C451	C45	0.789700	0.575700	0.306200
C461	C46	0.791200	0.577500	0.254000
C471	C47	0.765100	0.483600	0.226900
C481	C48	0.735000	0.389600	0.250700
C491	C49	0.735500	0.386000	0.303500
C501	C50	0.685100	0.565600	0.146200
C511	C51	0.564400	0.597900	0.166000
C521	C52	0.489000	0.674600	0.144300
C531	C53	0.533000	0.723200	0.095700
C541	C54	0.451900	0.798800	0.070200
C551	C55	0.656800	0.688300	0.076200
C561	C56	0.731200	0.609500	0.101900
C571	C57	0.841400	0.405100	0.146300
C581	C58	0.790900	0.359200	0.101300
C591	C59	0.863300	0.280600	0.077000
C601	C60	0.986300	0.245300	0.096100
C611	C61	0.038600	0.286700	0.139200
C621	C62	0.965500	0.371700	0.165200
C631	C63	0.070800	0.166400	0.066300
C641	C64	0.247600	0.480600	0.614200
C651	C65	0.238700	0.480500	0.669500
C661	C66	0.210300	0.575700	0.693800
C671	C67	0.208800	0.577500	0.746000
C681	C68	0.234900	0.483600	0.773100
C691	C69	0.265000	0.389600	0.749300
C701	C70	0.264500	0.386000	0.696500
C711	C71	0.314900	0.565600	0.853800
C721	C72	0.435600	0.597900	0.834000
C731	C73	0.511000	0.674600	0.855700
C741	C74	0.467000	0.723200	0.904300
C751	C75	0.548100	0.798800	0.929800
C761	C76	0.343200	0.688300	0.923800
C771	C77	0.268800	0.609500	0.898100
C781	C78	0.158600	0.405100	0.853700
C791	C79	0.209100	0.359200	0.898700
C801	C80	0.136700	0.280600	0.923000
C811	C81	0.013700	0.245300	0.903900
C821	C82	0.961400	0.286700	0.860800
C831	C83	0.034500	0.371700	0.834800
C841	C84	0.929200	0.166400	0.933700
N11	N1	0.752400	0.975800	0.072100
N21	N2	0.388000	0.362200	0.450600
N31	N3	0.130500	0.605500	0.453900
N41	N4	0.767600	0.986500	0.327700
N51	N5	0.247600	0.975800	0.927900
N61	N6	0.612000	0.362200	0.549400
N71	N7	0.869500	0.605500	0.546100
N81	N8	0.232400	0.986500	0.672300
N91	N9	0.752400	0.475800	0.427900
N101	N10	0.388000	0.862200	0.049400
N111	N11	0.130500	0.105500	0.046100
N121	N12	0.767600	0.486500	0.172300
N131	N13	0.247600	0.475800	0.572100
N141	N14	0.612000	0.862200	0.950600
N151	N15	0.869500	0.105500	0.953900
N161	N16	0.232400	0.486500	0.827700
Cl11	Cl1	0.461500	0.222800	0.137100
O11	O1	0.336100	0.167500	0.144200
O21	O2	0.527000	0.239000	0.186000
O31	O3	0.438000	0.330300	0.115200
O41	O4	0.551000	0.160500	0.105800
Cl21	Cl2	0.538500	0.222800	0.862900
O51	O5	0.663900	0.167500	0.855800
O61	O6	0.473000	0.239000	0.814000
O71	O7	0.562000	0.330300	0.884800
O81	O8	0.449000	0.160500	0.894200
Cl31	Cl3	0.461500	0.722800	0.362900
O91	O9	0.336100	0.667500	0.355800
O101	O10	0.527000	0.739000	0.314000
O111	O11	0.438000	0.830300	0.384800
O121	O12	0.551000	0.660500	0.394200
Cl41	Cl4	0.538500	0.722800	0.637100
O131	O13	0.663900	0.667500	0.644200
O141	O14	0.473000	0.739000	0.686000
O151	O15	0.562000	0.830300	0.615200
O161	O16	0.449000	0.660500	0.605800
