data_OKILUR_clean_PM
_symmetry_space_group_name_H-M	'P1'
_cell_length_a	7.747600
_cell_length_b	18.393000
_cell_length_c	18.753000
_cell_angle_alpha	90.000000
_cell_angle_beta	101.720000
_cell_angle_gamma	90.000000
_symmetry_Int_Tables_number 1

loop_
_symmetry_equiv_pos_as_xyz
'x,y,z'

loop_
_atom_site_label
_atom_site_type_symbol
_atom_site_fract_x
_atom_site_fract_y
_atom_site_fract_z
Cd11	Cd1	0.459310	0.163420	0.102770
Cd21	Cd2	0.083660	0.463040	0.362550
O11	O1	0.089200	0.510400	0.253600
O21	O2	0.033300	0.608600	0.313300
O31	O3	0.980200	0.847100	0.188800
O41	O4	0.986500	0.855600	0.072700
O51	O5	0.429400	0.415400	0.704000
O61	O6	0.436400	0.297800	0.720900
O71	O7	0.444200	0.200500	0.973300
O81	O8	0.394000	0.278300	0.057100
O91	O9	0.598600	0.061700	0.076500
O101	O10	0.821300	0.020600	0.030000
N11	N1	0.227500	0.531300	0.002300
N21	N2	0.265300	0.584700	0.903400
H11	H1	0.290700	0.592100	0.861400
N31	N3	0.209900	0.635600	0.945900
C11	C1	0.067300	0.578500	0.258400
C21	C2	0.084100	0.624000	0.191500
C31	C3	0.043700	0.697100	0.190900
H21	H2	0.010700	0.717900	0.231300
C41	C4	0.051700	0.740600	0.130100
C51	C5	0.099300	0.709700	0.069400
H31	H3	0.105400	0.738100	0.029000
C61	C6	0.138400	0.634800	0.069900
C71	C7	0.135100	0.592700	0.130700
H41	H4	0.166400	0.543900	0.131300
C81	C8	0.005300	0.819400	0.130000
C91	C9	0.193000	0.602300	0.006100
C101	C10	0.273000	0.523400	0.936900
C111	C11	0.320500	0.452300	0.913100
C121	C12	0.337200	0.392400	0.959600
H51	H5	0.314800	0.398500	0.006100
C131	C13	0.385100	0.325000	0.939600
C141	C14	0.412000	0.316500	0.867500
H61	H6	0.441200	0.270800	0.852200
C151	C15	0.396700	0.372200	0.820900
C161	C16	0.351000	0.441000	0.842200
H71	H7	0.340500	0.479600	0.809600
C171	C17	0.421600	0.361500	0.743100
C181	C18	0.410000	0.262900	0.993600
C191	C19	0.698300	0.063600	0.030800
H81	H8	0.677800	0.099600	0.995300
Cd31	Cd3	0.540690	0.663420	0.397230
Cd41	Cd4	0.916340	0.963040	0.137450
O111	O11	0.910800	0.010400	0.246400
O121	O12	0.966700	0.108600	0.186700
O131	O13	0.019800	0.347100	0.311200
O141	O14	0.013500	0.355600	0.427300
O151	O15	0.570600	0.915400	0.796000
O161	O16	0.563600	0.797800	0.779100
O171	O17	0.555800	0.700500	0.526700
O181	O18	0.606000	0.778300	0.442900
O191	O19	0.401400	0.561700	0.423500
O201	O20	0.178700	0.520600	0.470000
N41	N4	0.772500	0.031300	0.497700
N51	N5	0.734700	0.084700	0.596600
H91	H9	0.709300	0.092100	0.638600
N61	N6	0.790100	0.135600	0.554100
C201	C20	0.932700	0.078500	0.241600
C211	C21	0.915900	0.124000	0.308500
C221	C22	0.956300	0.197100	0.309100
H101	H10	0.989300	0.217900	0.268700
C231	C23	0.948300	0.240600	0.369900
C241	C24	0.900700	0.209700	0.430600
H111	H11	0.894600	0.238100	0.471000
C251	C25	0.861600	0.134800	0.430100
C261	C26	0.864900	0.092700	0.369300
H121	H12	0.833600	0.043900	0.368700
C271	C27	0.994700	0.319400	0.370000
C281	C28	0.807000	0.102300	0.493900
C291	C29	0.727000	0.023400	0.563100
C301	C30	0.679500	0.952300	0.586900
C311	C31	0.662800	0.892400	0.540400
H131	H13	0.685200	0.898500	0.493900
C321	C32	0.614900	0.825000	0.560400
C331	C33	0.588000	0.816500	0.632500
H141	H14	0.558800	0.770800	0.647800
C341	C34	0.603300	0.872200	0.679100
C351	C35	0.649000	0.941000	0.657800
H151	H15	0.659500	0.979600	0.690400
C361	C36	0.578400	0.861500	0.756900
C371	C37	0.590000	0.762900	0.506400
C381	C38	0.301700	0.563600	0.469200
H161	H16	0.322200	0.599600	0.504700
Cd51	Cd5	0.540690	0.836580	0.897230
Cd61	Cd6	0.916340	0.536960	0.637450
O211	O21	0.910800	0.489600	0.746400
O221	O22	0.966700	0.391400	0.686700
O231	O23	0.019800	0.152900	0.811200
O241	O24	0.013500	0.144400	0.927300
O251	O25	0.570600	0.584600	0.296000
O261	O26	0.563600	0.702200	0.279100
O271	O27	0.555800	0.799500	0.026700
O281	O28	0.606000	0.721700	0.942900
O291	O29	0.401400	0.938300	0.923500
O301	O30	0.178700	0.979400	0.970000
N71	N7	0.772500	0.468700	0.997700
N81	N8	0.734700	0.415300	0.096600
H171	H17	0.709300	0.407900	0.138600
N91	N9	0.790100	0.364400	0.054100
C391	C39	0.932700	0.421500	0.741600
C401	C40	0.915900	0.376000	0.808500
C411	C41	0.956300	0.302900	0.809100
H181	H18	0.989300	0.282100	0.768700
C421	C42	0.948300	0.259400	0.869900
C431	C43	0.900700	0.290300	0.930600
H191	H19	0.894600	0.261900	0.971000
C441	C44	0.861600	0.365200	0.930100
C451	C45	0.864900	0.407300	0.869300
H201	H20	0.833600	0.456100	0.868700
C461	C46	0.994700	0.180600	0.870000
C471	C47	0.807000	0.397700	0.993900
C481	C48	0.727000	0.476600	0.063100
C491	C49	0.679500	0.547700	0.086900
C501	C50	0.662800	0.607600	0.040400
H211	H21	0.685200	0.601500	0.993900
C511	C51	0.614900	0.675000	0.060400
C521	C52	0.588000	0.683500	0.132500
H221	H22	0.558800	0.729200	0.147800
C531	C53	0.603300	0.627800	0.179100
C541	C54	0.649000	0.559000	0.157800
H231	H23	0.659500	0.520400	0.190400
C551	C55	0.578400	0.638500	0.256900
C561	C56	0.590000	0.737100	0.006400
C571	C57	0.301700	0.936400	0.969200
H241	H24	0.322200	0.900400	0.004700
Cd71	Cd7	0.459310	0.336580	0.602770
Cd81	Cd8	0.083660	0.036960	0.862550
O311	O31	0.089200	0.989600	0.753600
O321	O32	0.033300	0.891400	0.813300
O331	O33	0.980200	0.652900	0.688800
O341	O34	0.986500	0.644400	0.572700
O351	O35	0.429400	0.084600	0.204000
O361	O36	0.436400	0.202200	0.220900
O371	O37	0.444200	0.299500	0.473300
O381	O38	0.394000	0.221700	0.557100
O391	O39	0.598600	0.438300	0.576500
O401	O40	0.821300	0.479400	0.530000
N101	N10	0.227500	0.968700	0.502300
N111	N11	0.265300	0.915300	0.403400
H251	H25	0.290700	0.907900	0.361400
N121	N12	0.209900	0.864400	0.445900
C581	C58	0.067300	0.921500	0.758400
C591	C59	0.084100	0.876000	0.691500
C601	C60	0.043700	0.802900	0.690900
H261	H26	0.010700	0.782100	0.731300
C611	C61	0.051700	0.759400	0.630100
C621	C62	0.099300	0.790300	0.569400
H271	H27	0.105400	0.761900	0.529000
C631	C63	0.138400	0.865200	0.569900
C641	C64	0.135100	0.907300	0.630700
H281	H28	0.166400	0.956100	0.631300
C651	C65	0.005300	0.680600	0.630000
C661	C66	0.193000	0.897700	0.506100
C671	C67	0.273000	0.976600	0.436900
C681	C68	0.320500	0.047700	0.413100
C691	C69	0.337200	0.107600	0.459600
H291	H29	0.314800	0.101500	0.506100
C701	C70	0.385100	0.175000	0.439600
C711	C71	0.412000	0.183500	0.367500
H301	H30	0.441200	0.229200	0.352200
C721	C72	0.396700	0.127800	0.320900
C731	C73	0.351000	0.059000	0.342200
H311	H31	0.340500	0.020400	0.309600
C741	C74	0.421600	0.138500	0.243100
C751	C75	0.410000	0.237100	0.493600
C761	C76	0.698300	0.436400	0.530800
H321	H32	0.677800	0.400400	0.495300
