data_OKILIE_clean_PM
_symmetry_space_group_name_H-M	'P1'
_cell_length_a	8.744200
_cell_length_b	16.765900
_cell_length_c	16.765900
_cell_angle_alpha	62.956600
_cell_angle_beta	79.988400
_cell_angle_gamma	100.012000
_symmetry_Int_Tables_number 1

loop_
_symmetry_equiv_pos_as_xyz
'x,y,z'

loop_
_atom_site_label
_atom_site_type_symbol
_atom_site_fract_x
_atom_site_fract_y
_atom_site_fract_z
Mn11	Mn1	0.714910	0.423520	0.427920
Mn21	Mn2	0.142830	0.427920	0.148560
Mn31	Mn3	0.291390	0.148560	0.423520
Mn41	Mn4	0.642830	0.851440	0.572080
Mn51	Mn5	0.791390	0.576480	0.851440
Mn61	Mn6	0.214910	0.572080	0.576480
H11	H1	0.589800	0.374300	0.767500
H21	H2	0.333700	0.272500	0.810900
H31	H3	0.146000	0.126700	0.878400
H41	H4	0.144200	0.040800	0.808400
H51	H5	0.365600	0.074400	0.688100
H61	H6	0.555000	0.213900	0.617600
H71	H7	0.357300	0.767500	0.858200
H81	H8	0.144600	0.810900	0.916600
H91	H9	0.024400	0.878400	0.994900
H101	H10	0.952600	0.808400	0.150800
H111	H11	0.053700	0.688100	0.237500
H121	H12	0.172600	0.617600	0.168500
H131	H13	0.215500	0.858200	0.374300
H141	H14	0.061200	0.916600	0.272500
H151	H15	0.019300	0.994900	0.126700
H161	H16	0.103400	0.150800	0.040800
H171	H17	0.291200	0.237500	0.074400
H181	H18	0.341100	0.168500	0.213900
H191	H19	0.857300	0.141800	0.232500
H201	H20	0.644600	0.083400	0.189100
H211	H21	0.524400	0.005100	0.121600
H221	H22	0.452600	0.849200	0.191600
H231	H23	0.553700	0.762500	0.311900
H241	H24	0.672600	0.831500	0.382400
H251	H25	0.715500	0.625700	0.141800
H261	H26	0.561200	0.727500	0.083400
H271	H27	0.519300	0.873300	0.005100
H281	H28	0.603400	0.959200	0.849200
H291	H29	0.791200	0.925600	0.762500
H301	H30	0.841100	0.786100	0.831500
H311	H31	0.089800	0.232500	0.625700
H321	H32	0.833700	0.189100	0.727500
H331	H33	0.646000	0.121600	0.873300
H341	H34	0.644200	0.191600	0.959200
H351	H35	0.865600	0.311900	0.925600
H361	H36	0.055000	0.382400	0.786100
C11	C1	0.820200	0.459200	0.576400
C21	C2	0.784400	0.462700	0.658200
C31	C3	0.603400	0.345100	0.665700
C41	C4	0.944400	0.519900	0.487700
C51	C5	0.844900	0.512300	0.703300
C61	C6	0.467000	0.256300	0.705600
C71	C7	0.339600	0.233100	0.786200
C81	C8	0.227600	0.148000	0.823500
C91	C9	0.230500	0.094400	0.784600
C101	C10	0.358900	0.116100	0.710000
C111	C11	0.471600	0.196900	0.670200
C121	C12	0.396600	0.576400	0.964400
C131	C13	0.442600	0.658200	0.879100
C141	C14	0.269100	0.665700	0.989200
C151	C15	0.432100	0.487700	0.992400
C161	C16	0.548200	0.703300	0.784400
C171	C17	0.172600	0.705600	0.038100
C181	C18	0.125800	0.786200	0.980700
C191	C19	0.051100	0.823500	0.028500
C201	C20	0.015100	0.784600	0.121000
C211	C21	0.068900	0.710000	0.173900
C221	C22	0.141800	0.670200	0.132900
C231	C23	0.361000	0.964400	0.459200
C241	C24	0.321700	0.879100	0.462700
C251	C25	0.258300	0.989200	0.345100
C261	C26	0.424500	0.992400	0.519900
C271	C27	0.332600	0.784400	0.512300
C281	C28	0.210700	0.038100	0.256300
C291	C29	0.106500	0.980700	0.233100
C301	C30	0.079600	0.028500	0.148000
C311	C31	0.136100	0.121000	0.094400
C321	C32	0.242800	0.173900	0.116100
C331	C33	0.274700	0.132900	0.196900
C341	C34	0.896600	0.035600	0.423600
C351	C35	0.942600	0.120900	0.341800
C361	C36	0.769100	0.010800	0.334300
C371	C37	0.932100	0.007600	0.512300
C381	C38	0.048200	0.215600	0.296700
C391	C39	0.672600	0.961900	0.294400
C401	C40	0.625800	0.019300	0.213800
C411	C41	0.551100	0.971500	0.176500
C421	C42	0.515100	0.879000	0.215400
C431	C43	0.568900	0.826100	0.290000
C441	C44	0.641800	0.867100	0.329800
C451	C45	0.861000	0.540800	0.035600
C461	C46	0.821700	0.537300	0.120900
C471	C47	0.758300	0.654900	0.010800
C481	C48	0.924500	0.480100	0.007600
C491	C49	0.832600	0.487700	0.215600
C501	C50	0.710700	0.743700	0.961900
C511	C51	0.606500	0.766900	0.019300
C521	C52	0.579600	0.852000	0.971500
C531	C53	0.636100	0.905600	0.879000
C541	C54	0.742800	0.883900	0.826100
C551	C55	0.774700	0.803100	0.867100
C561	C56	0.320200	0.423600	0.540800
C571	C57	0.284400	0.341800	0.537300
C581	C58	0.103400	0.334300	0.654900
C591	C59	0.444400	0.512300	0.480100
C601	C60	0.344900	0.296700	0.487700
C611	C61	0.967000	0.294400	0.743700
C621	C62	0.839600	0.213800	0.766900
C631	C63	0.727600	0.176500	0.852000
C641	C64	0.730500	0.215400	0.905600
C651	C65	0.858900	0.290000	0.883900
C661	C66	0.971600	0.329800	0.803100
N11	N1	0.708100	0.388300	0.579600
N21	N2	0.643700	0.389400	0.712100
N31	N3	0.287700	0.579600	0.032100
N41	N4	0.355800	0.712100	0.898500
N51	N5	0.319800	0.032100	0.388300
N61	N6	0.254300	0.898500	0.389400
N71	N7	0.787700	0.967900	0.420400
N81	N8	0.855800	0.101500	0.287900
N91	N9	0.819800	0.611700	0.967900
N101	N10	0.754300	0.610600	0.101500
N111	N11	0.208100	0.420400	0.611700
N121	N12	0.143700	0.287900	0.610600
O11	O1	0.929760	0.519020	0.417940
O21	O2	0.071420	0.575940	0.482780
O31	O3	0.000630	0.560600	0.667510
O41	O4	0.759610	0.507650	0.770920
O51	O5	0.347700	0.417940	0.063040
O61	O6	0.554200	0.482780	0.941280
O71	O7	0.668140	0.667510	0.771890
O81	O8	0.530530	0.770920	0.721430
O91	O9	0.410740	0.063040	0.519020
O101	O10	0.495480	0.941280	0.575940
O111	O11	0.440030	0.771890	0.560600
O121	O12	0.251960	0.721430	0.507650
O131	O13	0.847700	0.936960	0.582060
O141	O14	0.054200	0.058720	0.517220
O151	O15	0.168140	0.228110	0.332490
O161	O16	0.030530	0.278570	0.229080
O171	O17	0.910740	0.480980	0.936960
O181	O18	0.995480	0.424060	0.058720
O191	O19	0.940030	0.439400	0.228110
O201	O20	0.751960	0.492350	0.278570
O211	O21	0.429760	0.582060	0.480980
O221	O22	0.571420	0.517220	0.424060
O231	O23	0.500630	0.332490	0.439400
O241	O24	0.259610	0.229080	0.492350
