data_OKIMAY_clean_PM
_symmetry_space_group_name_H-M	'P1'
_cell_length_a	8.009800
_cell_length_b	13.813000
_cell_length_c	22.126000
_cell_angle_alpha	90.000000
_cell_angle_beta	98.250000
_cell_angle_gamma	90.000000
_symmetry_Int_Tables_number 1

loop_
_symmetry_equiv_pos_as_xyz
'x,y,z'

loop_
_atom_site_label
_atom_site_type_symbol
_atom_site_fract_x
_atom_site_fract_y
_atom_site_fract_z
Zn11	Zn1	0.190510	0.020990	0.150180
O11	O1	0.163500	0.938600	0.077690
O21	O2	0.006600	0.848600	0.128700
H11	H1	0.070400	0.813100	0.150900
O31	O3	0.029000	0.907700	0.847590
O41	O4	0.059900	0.757100	0.816400
O51	O5	0.767600	0.483900	0.262900
O61	O6	0.569100	0.391100	0.291400
O71	O7	0.349700	0.128500	0.150620
O81	O8	0.385700	0.131200	0.052800
H21	H2	0.477000	0.112100	0.044900
N11	N1	0.781000	0.537100	0.041580
N21	N2	0.689400	0.427600	0.973100
H31	H3	0.642500	0.376400	0.956300
N31	N3	0.766600	0.500100	0.944100
C11	C1	0.068700	0.867300	0.082700
C21	C2	0.021900	0.804500	0.026200
C31	C3	0.050200	0.836400	0.969400
H41	H4	0.098700	0.896800	0.965400
C41	C4	0.006500	0.778600	0.918000
C51	C5	0.937000	0.688400	0.923500
H51	H5	0.912500	0.648800	0.889400
C61	C6	0.903300	0.656500	0.980500
C71	C7	0.946100	0.714300	0.031500
H61	H6	0.924400	0.692900	0.069500
C81	C8	0.032300	0.816100	0.855400
C91	C9	0.817400	0.563000	0.985700
C101	C10	0.700700	0.451100	0.030800
C111	C11	0.641300	0.399800	0.080700
C121	C12	0.556300	0.309700	0.069900
H71	H7	0.542700	0.283100	0.030900
C131	C13	0.493700	0.261100	0.116500
C141	C14	0.518000	0.301300	0.175100
H81	H8	0.472300	0.270400	0.206300
C151	C15	0.609000	0.386500	0.187900
C161	C16	0.669900	0.435500	0.140200
H91	H9	0.730400	0.492700	0.148300
C171	C17	0.648600	0.422100	0.252000
C181	C18	0.404600	0.167200	0.105100
Zn21	Zn2	0.809490	0.520990	0.349820
O91	O9	0.836500	0.438600	0.422310
O101	O10	0.993400	0.348600	0.371300
H101	H10	0.929600	0.313100	0.349100
O111	O11	0.971000	0.407700	0.652410
O121	O12	0.940100	0.257100	0.683600
O131	O13	0.232400	0.983900	0.237100
O141	O14	0.430900	0.891100	0.208600
O151	O15	0.650300	0.628500	0.349380
O161	O16	0.614300	0.631200	0.447200
H111	H11	0.523000	0.612100	0.455100
N41	N4	0.219000	0.037100	0.458420
N51	N5	0.310600	0.927600	0.526900
H121	H12	0.357500	0.876400	0.543700
N61	N6	0.233400	0.000100	0.555900
C191	C19	0.931300	0.367300	0.417300
C201	C20	0.978100	0.304500	0.473800
C211	C21	0.949800	0.336400	0.530600
H131	H13	0.901300	0.396800	0.534600
C221	C22	0.993500	0.278600	0.582000
C231	C23	0.063000	0.188400	0.576500
H141	H14	0.087500	0.148800	0.610600
C241	C24	0.096700	0.156500	0.519500
C251	C25	0.053900	0.214300	0.468500
H151	H15	0.075600	0.192900	0.430500
C261	C26	0.967700	0.316100	0.644600
C271	C27	0.182600	0.063000	0.514300
C281	C28	0.299300	0.951100	0.469200
C291	C29	0.358700	0.899800	0.419300
C301	C30	0.443700	0.809700	0.430100
H161	H16	0.457300	0.783100	0.469100
C311	C31	0.506300	0.761100	0.383500
C321	C32	0.482000	0.801300	0.324900
H171	H17	0.527700	0.770400	0.293700
C331	C33	0.391000	0.886500	0.312100
C341	C34	0.330100	0.935500	0.359800
H181	H18	0.269600	0.992700	0.351700
C351	C35	0.351400	0.922100	0.248000
C361	C36	0.595400	0.667200	0.394900
Zn31	Zn3	0.809490	0.979010	0.849820
O171	O17	0.836500	0.061400	0.922310
O181	O18	0.993400	0.151400	0.871300
H191	H19	0.929600	0.186900	0.849100
O191	O19	0.971000	0.092300	0.152410
O201	O20	0.940100	0.242900	0.183600
O211	O21	0.232400	0.516100	0.737100
O221	O22	0.430900	0.608900	0.708600
O231	O23	0.650300	0.871500	0.849380
O241	O24	0.614300	0.868800	0.947200
H201	H20	0.523000	0.887900	0.955100
N71	N7	0.219000	0.462900	0.958420
N81	N8	0.310600	0.572400	0.026900
H211	H21	0.357500	0.623600	0.043700
N91	N9	0.233400	0.499900	0.055900
C371	C37	0.931300	0.132700	0.917300
C381	C38	0.978100	0.195500	0.973800
C391	C39	0.949800	0.163600	0.030600
H221	H22	0.901300	0.103200	0.034600
C401	C40	0.993500	0.221400	0.082000
C411	C41	0.063000	0.311600	0.076500
H231	H23	0.087500	0.351200	0.110600
C421	C42	0.096700	0.343500	0.019500
C431	C43	0.053900	0.285700	0.968500
H241	H24	0.075600	0.307100	0.930500
C441	C44	0.967700	0.183900	0.144600
C451	C45	0.182600	0.437000	0.014300
C461	C46	0.299300	0.548900	0.969200
C471	C47	0.358700	0.600200	0.919300
C481	C48	0.443700	0.690300	0.930100
H251	H25	0.457300	0.716900	0.969100
C491	C49	0.506300	0.738900	0.883500
C501	C50	0.482000	0.698700	0.824900
H261	H26	0.527700	0.729600	0.793700
C511	C51	0.391000	0.613500	0.812100
C521	C52	0.330100	0.564500	0.859800
H271	H27	0.269600	0.507300	0.851700
C531	C53	0.351400	0.577900	0.748000
C541	C54	0.595400	0.832800	0.894900
Zn41	Zn4	0.190510	0.479010	0.650180
O251	O25	0.163500	0.561400	0.577690
O261	O26	0.006600	0.651400	0.628700
H281	H28	0.070400	0.686900	0.650900
O271	O27	0.029000	0.592300	0.347590
O281	O28	0.059900	0.742900	0.316400
O291	O29	0.767600	0.016100	0.762900
O301	O30	0.569100	0.108900	0.791400
O311	O31	0.349700	0.371500	0.650620
O321	O32	0.385700	0.368800	0.552800
H291	H29	0.477000	0.387900	0.544900
N101	N10	0.781000	0.962900	0.541580
N111	N11	0.689400	0.072400	0.473100
H301	H30	0.642500	0.123600	0.456300
N121	N12	0.766600	0.999900	0.444100
C551	C55	0.068700	0.632700	0.582700
C561	C56	0.021900	0.695500	0.526200
C571	C57	0.050200	0.663600	0.469400
H311	H31	0.098700	0.603200	0.465400
C581	C58	0.006500	0.721400	0.418000
C591	C59	0.937000	0.811600	0.423500
H321	H32	0.912500	0.851200	0.389400
C601	C60	0.903300	0.843500	0.480500
C611	C61	0.946100	0.785700	0.531500
H331	H33	0.924400	0.807100	0.569500
C621	C62	0.032300	0.683900	0.355400
C631	C63	0.817400	0.937000	0.485700
C641	C64	0.700700	0.048900	0.530800
C651	C65	0.641300	0.100200	0.580700
C661	C66	0.556300	0.190300	0.569900
H341	H34	0.542700	0.216900	0.530900
C671	C67	0.493700	0.238900	0.616500
C681	C68	0.518000	0.198700	0.675100
H351	H35	0.472300	0.229600	0.706300
C691	C69	0.609000	0.113500	0.687900
C701	C70	0.669900	0.064500	0.640200
H361	H36	0.730400	0.007300	0.648300
C711	C71	0.648600	0.077900	0.752000
C721	C72	0.404600	0.332800	0.605100
