data_OKIPUU_clean_PM
_symmetry_space_group_name_H-M	'P1'
_cell_length_a	18.903100
_cell_length_b	18.903100
_cell_length_c	33.893500
_cell_angle_alpha	73.807700
_cell_angle_beta	73.807700
_cell_angle_gamma	89.999800
_symmetry_Int_Tables_number 1

loop_
_symmetry_equiv_pos_as_xyz
'x,y,z'

loop_
_atom_site_label
_atom_site_type_symbol
_atom_site_fract_x
_atom_site_fract_y
_atom_site_fract_z
Cd11	Cd1	0.428470	0.908490	0.369400
Cd21	Cd2	0.702130	0.722110	0.369400
Cd31	Cd3	0.408490	0.202130	0.869400
Cd41	Cd4	0.222110	0.928470	0.869400
Cd51	Cd5	0.202130	0.408490	0.369400
Cd61	Cd6	0.928470	0.222110	0.369400
Cd71	Cd7	0.722110	0.702130	0.869400
Cd81	Cd8	0.908490	0.428470	0.869400
H11	H1	0.532700	0.820600	0.295600
H21	H2	0.496500	0.802100	0.236400
H31	H3	0.334200	0.883900	0.306400
H41	H4	0.398900	0.757200	0.213600
H51	H5	0.320100	0.751100	0.172000
H61	H6	0.218500	0.920700	0.203200
H71	H7	0.293600	0.923400	0.247200
H81	H8	0.382600	0.954800	0.892400
H91	H9	0.396500	0.937100	0.963600
H101	H10	0.192100	0.878900	0.974800
H111	H11	0.345500	0.953300	0.034600
H121	H12	0.317500	0.918700	0.108800
H131	H13	0.153300	0.779800	0.117200
H141	H14	0.181900	0.810900	0.044000
H151	H15	0.282100	0.106400	0.306800
H161	H16	0.183300	0.967300	0.421800
H171	H17	0.076700	0.026900	0.423400
H181	H18	0.176300	0.168700	0.309000
H191	H19	0.671700	0.883800	0.295600
H201	H20	0.767100	0.961500	0.236400
H211	H21	0.859400	0.809700	0.306400
H221	H22	0.887500	0.029200	0.213600
H231	H23	0.007900	0.076900	0.172000
H241	H24	0.078300	0.876100	0.203200
H251	H25	0.959200	0.829400	0.247200
H261	H26	0.225000	0.152800	0.892400
H271	H27	0.139900	0.099300	0.963600
H281	H28	0.333100	0.146300	0.974800
H291	H29	0.119900	0.012100	0.034600
H301	H30	0.073700	0.972500	0.108800
H311	H31	0.229500	0.103000	0.117200
H321	H32	0.274100	0.145100	0.044000
H331	H33	0.911100	0.586800	0.306800
H341	H34	0.894900	0.610900	0.421800
H351	H35	0.999900	0.549700	0.423400
H361	H36	0.014700	0.522300	0.309000
H371	H37	0.320600	0.171700	0.795600
H381	H38	0.302100	0.267100	0.736400
H391	H39	0.383900	0.359400	0.806400
H401	H40	0.257200	0.387500	0.713600
H411	H41	0.251100	0.507900	0.672000
H421	H42	0.420700	0.578300	0.703200
H431	H43	0.423400	0.459200	0.747200
H441	H44	0.454800	0.725000	0.392400
H451	H45	0.437100	0.639900	0.463600
H461	H46	0.378900	0.833100	0.474800
H471	H47	0.453300	0.619900	0.534600
H481	H48	0.418700	0.573700	0.608800
H491	H49	0.279800	0.729500	0.617200
H501	H50	0.310900	0.774100	0.544000
H511	H51	0.606400	0.411100	0.806800
H521	H52	0.467300	0.394900	0.921800
H531	H53	0.526900	0.499900	0.923400
H541	H54	0.668700	0.514700	0.809000
H551	H55	0.383800	0.032700	0.795600
H561	H56	0.461500	0.996500	0.736400
H571	H57	0.309700	0.834200	0.806400
H581	H58	0.529200	0.898900	0.713600
H591	H59	0.576900	0.820100	0.672000
H601	H60	0.376100	0.718500	0.703200
H611	H61	0.329400	0.793600	0.747200
H621	H62	0.652800	0.882600	0.392400
H631	H63	0.599300	0.896500	0.463600
H641	H64	0.646300	0.692100	0.474800
H651	H65	0.512100	0.845500	0.534600
H661	H66	0.472500	0.817500	0.608800
H671	H67	0.603000	0.653300	0.617200
H681	H68	0.645100	0.681900	0.544000
H691	H69	0.086800	0.782100	0.806800
H701	H70	0.110900	0.683300	0.921800
H711	H71	0.049700	0.576700	0.923400
H721	H72	0.022300	0.676300	0.809000
H731	H73	0.171700	0.320600	0.295600
H741	H74	0.267100	0.302100	0.236400
H751	H75	0.359400	0.383900	0.306400
H761	H76	0.387500	0.257200	0.213600
H771	H77	0.507900	0.251100	0.172000
H781	H78	0.578300	0.420700	0.203200
H791	H79	0.459200	0.423400	0.247200
H801	H80	0.725000	0.454800	0.892400
H811	H81	0.639900	0.437100	0.963600
H821	H82	0.833100	0.378900	0.974800
H831	H83	0.619900	0.453300	0.034600
H841	H84	0.573700	0.418700	0.108800
H851	H85	0.729500	0.279800	0.117200
H861	H86	0.774100	0.310900	0.044000
H871	H87	0.411100	0.606400	0.306800
H881	H88	0.394900	0.467300	0.421800
H891	H89	0.499900	0.526900	0.423400
H901	H90	0.514700	0.668700	0.309000
H911	H91	0.032700	0.383800	0.295600
H921	H92	0.996500	0.461500	0.236400
H931	H93	0.834200	0.309700	0.306400
H941	H94	0.898900	0.529200	0.213600
H951	H95	0.820100	0.576900	0.172000
H961	H96	0.718500	0.376100	0.203200
H971	H97	0.793600	0.329400	0.247200
H981	H98	0.882600	0.652800	0.892400
H991	H99	0.896500	0.599300	0.963600
H1001	H100	0.692100	0.646300	0.974800
H1011	H101	0.845500	0.512100	0.034600
H1021	H102	0.817500	0.472500	0.108800
H1031	H103	0.653300	0.603000	0.117200
H1041	H104	0.681900	0.645100	0.044000
H1051	H105	0.782100	0.086800	0.306800
H1061	H106	0.683300	0.110900	0.421800
H1071	H107	0.576700	0.049700	0.423400
H1081	H108	0.676300	0.022300	0.309000
H1091	H109	0.883800	0.671700	0.795600
H1101	H110	0.961500	0.767100	0.736400
H1111	H111	0.809700	0.859400	0.806400
H1121	H112	0.029200	0.887500	0.713600
H1131	H113	0.076900	0.007900	0.672000
H1141	H114	0.876100	0.078300	0.703200
H1151	H115	0.829400	0.959200	0.747200
H1161	H116	0.152800	0.225000	0.392400
H1171	H117	0.099300	0.139900	0.463600
H1181	H118	0.146300	0.333100	0.474800
H1191	H119	0.012100	0.119900	0.534600
H1201	H120	0.972500	0.073700	0.608800
H1211	H121	0.103000	0.229500	0.617200
H1221	H122	0.145100	0.274100	0.544000
H1231	H123	0.586800	0.911100	0.806800
H1241	H124	0.610900	0.894900	0.921800
H1251	H125	0.549700	0.999900	0.923400
H1261	H126	0.522300	0.014700	0.809000
H1271	H127	0.820600	0.532700	0.795600
H1281	H128	0.802100	0.496500	0.736400
H1291	H129	0.883900	0.334200	0.806400
H1301	H130	0.757200	0.398900	0.713600
H1311	H131	0.751100	0.320100	0.672000
H1321	H132	0.920700	0.218500	0.703200
H1331	H133	0.923400	0.293600	0.747200
H1341	H134	0.954800	0.382600	0.392400
H1351	H135	0.937100	0.396500	0.463600
H1361	H136	0.878900	0.192100	0.474800
H1371	H137	0.953300	0.345500	0.534600
H1381	H138	0.918700	0.317500	0.608800
H1391	H139	0.779800	0.153300	0.617200
H1401	H140	0.810900	0.181900	0.544000
H1411	H141	0.106400	0.282100	0.806800
H1421	H142	0.967300	0.183300	0.921800
H1431	H143	0.026900	0.076700	0.923400
H1441	H144	0.168700	0.176300	0.809000
C11	C1	0.487360	0.830560	0.290480
C21	C2	0.467780	0.820180	0.258040
C31	C3	0.378890	0.864790	0.296820
C41	C4	0.351010	0.839210	0.234780
C51	C5	0.361430	0.788830	0.212340
C61	C6	0.314200	0.785500	0.187400
C71	C7	0.260360	0.831860	0.185680
C81	C8	0.253180	0.886280	0.206440
C91	C9	0.298770	0.888570	0.232060
C101	C10	0.345020	0.938620	0.918160
C111	C11	0.352820	0.929320	0.957360
C121	C12	0.241070	0.898370	0.963060
C131	C13	0.267120	0.885320	0.031760
C141	C14	0.306920	0.917620	0.051160
C151	C15	0.289880	0.897180	0.095640
C161	C16	0.232520	0.845420	0.119960
C171	C17	0.192740	0.814440	0.100520
C181	C18	0.209430	0.833230	0.056740
C191	C19	0.311970	0.990770	0.363460
C201	C20	0.243990	0.030390	0.364220
C211	C21	0.240900	0.090700	0.330600
C221	C22	0.182310	0.007710	0.398780
C231	C23	0.047790	0.145090	0.368420
C241	C24	0.115960	0.105160	0.366880
C251	C25	0.118420	0.044020	0.399960
C261	C26	0.177320	0.128190	0.331820
C271	C27	0.722160	0.878960	0.290480
C281	C28	0.774180	0.921780	0.258040
C291	C29	0.824290	0.838390	0.296820
C301	C30	0.914210	0.926010	0.234780
C311	C31	0.926230	0.998830	0.212340
C321	C32	0.998400	0.027100	0.187400
C331	C33	0.053960	0.982460	0.185680
C341	C34	0.040380	0.907280	0.206440
C351	C35	0.969170	0.879370	0.232060
C361	C36	0.236820	0.143220	0.918160
C371	C37	0.189820	0.113320	0.957360
C381	C38	0.295870	0.138570	0.963060
C391	C39	0.201120	0.082920	0.031760
C401	C40	0.141920	0.031220	0.051160
C411	C41	0.114480	0.007180	0.095640
C421	C42	0.147520	0.034620	0.119960
C431	C43	0.206740	0.085040	0.100520
C441	C44	0.233830	0.110030	0.056740
C451	C45	0.824570	0.645770	0.363460
C461	C46	0.891790	0.605390	0.364220
C471	C47	0.928500	0.578700	0.330600
C481	C48	0.918910	0.593510	0.398780
C491	C49	0.083790	0.486490	0.368420
C501	C50	0.017160	0.527960	0.366880
C511	C51	0.981620	0.556020	0.399960
C521	C52	0.990860	0.539990	0.331820
C531	C53	0.330560	0.222160	0.790480
C541	C54	0.320180	0.274180	0.758040
C551	C55	0.364790	0.324290	0.796820
C561	C56	0.339210	0.414210	0.734780
C571	C57	0.288830	0.426230	0.712340
C581	C58	0.285500	0.498400	0.687400
C591	C59	0.331860	0.553960	0.685680
C601	C60	0.386280	0.540380	0.706440
C611	C61	0.388570	0.469170	0.732060
C621	C62	0.438620	0.736820	0.418160
C631	C63	0.429320	0.689820	0.457360
C641	C64	0.398370	0.795870	0.463060
C651	C65	0.385320	0.701120	0.531760
C661	C66	0.417620	0.641920	0.551160
C671	C67	0.397180	0.614480	0.595640
C681	C68	0.345420	0.647520	0.619960
C691	C69	0.314440	0.706740	0.600520
C701	C70	0.333230	0.733830	0.556740
C711	C71	0.490770	0.324570	0.863460
C721	C72	0.530390	0.391790	0.864220
C731	C73	0.590700	0.428500	0.830600
C741	C74	0.507710	0.418910	0.898780
C751	C75	0.645090	0.583790	0.868420
C761	C76	0.605160	0.517160	0.866880
C771	C77	0.544020	0.481620	0.899960
C781	C78	0.628190	0.490860	0.831820
C791	C79	0.378960	0.987360	0.790480
C801	C80	0.421780	0.967780	0.758040
C811	C81	0.338390	0.878890	0.796820
C821	C82	0.426010	0.851010	0.734780
C831	C83	0.498830	0.861430	0.712340
C841	C84	0.527100	0.814200	0.687400
C851	C85	0.482460	0.760360	0.685680
C861	C86	0.407280	0.753180	0.706440
C871	C87	0.379370	0.798770	0.732060
C881	C88	0.643220	0.845020	0.418160
C891	C89	0.613320	0.852820	0.457360
C901	C90	0.638570	0.741070	0.463060
C911	C91	0.582920	0.767120	0.531760
C921	C92	0.531220	0.806920	0.551160
C931	C93	0.507180	0.789880	0.595640
C941	C94	0.534620	0.732520	0.619960
C951	C95	0.585040	0.692740	0.600520
C961	C96	0.610030	0.709430	0.556740
C971	C97	0.145770	0.811970	0.863460
C981	C98	0.105390	0.743990	0.864220
C991	C99	0.078700	0.740900	0.830600
C1001	C100	0.093510	0.682310	0.898780
C1011	C101	0.986490	0.547790	0.868420
C1021	C102	0.027960	0.615960	0.866880
C1031	C103	0.056020	0.618420	0.899960
C1041	C104	0.039990	0.677320	0.831820
C1051	C105	0.222160	0.330560	0.290480
C1061	C106	0.274180	0.320180	0.258040
C1071	C107	0.324290	0.364790	0.296820
C1081	C108	0.414210	0.339210	0.234780
C1091	C109	0.426230	0.288830	0.212340
C1101	C110	0.498400	0.285500	0.187400
C1111	C111	0.553960	0.331860	0.185680
C1121	C112	0.540380	0.386280	0.206440
C1131	C113	0.469170	0.388570	0.232060
C1141	C114	0.736820	0.438620	0.918160
C1151	C115	0.689820	0.429320	0.957360
C1161	C116	0.795870	0.398370	0.963060
C1171	C117	0.701120	0.385320	0.031760
C1181	C118	0.641920	0.417620	0.051160
C1191	C119	0.614480	0.397180	0.095640
C1201	C120	0.647520	0.345420	0.119960
C1211	C121	0.706740	0.314440	0.100520
C1221	C122	0.733830	0.333230	0.056740
C1231	C123	0.324570	0.490770	0.363460
C1241	C124	0.391790	0.530390	0.364220
C1251	C125	0.428500	0.590700	0.330600
C1261	C126	0.418910	0.507710	0.398780
C1271	C127	0.583790	0.645090	0.368420
C1281	C128	0.517160	0.605160	0.366880
C1291	C129	0.481620	0.544020	0.399960
C1301	C130	0.490860	0.628190	0.331820
C1311	C131	0.987360	0.378960	0.290480
C1321	C132	0.967780	0.421780	0.258040
C1331	C133	0.878890	0.338390	0.296820
C1341	C134	0.851010	0.426010	0.234780
C1351	C135	0.861430	0.498830	0.212340
C1361	C136	0.814200	0.527100	0.187400
C1371	C137	0.760360	0.482460	0.185680
C1381	C138	0.753180	0.407280	0.206440
C1391	C139	0.798770	0.379370	0.232060
C1401	C140	0.845020	0.643220	0.918160
C1411	C141	0.852820	0.613320	0.957360
C1421	C142	0.741070	0.638570	0.963060
C1431	C143	0.767120	0.582920	0.031760
C1441	C144	0.806920	0.531220	0.051160
C1451	C145	0.789880	0.507180	0.095640
C1461	C146	0.732520	0.534620	0.119960
C1471	C147	0.692740	0.585040	0.100520
C1481	C148	0.709430	0.610030	0.056740
C1491	C149	0.811970	0.145770	0.363460
C1501	C150	0.743990	0.105390	0.364220
C1511	C151	0.740900	0.078700	0.330600
C1521	C152	0.682310	0.093510	0.398780
C1531	C153	0.547790	0.986490	0.368420
C1541	C154	0.615960	0.027960	0.366880
C1551	C155	0.618420	0.056020	0.399960
C1561	C156	0.677320	0.039990	0.331820
C1571	C157	0.878960	0.722160	0.790480
C1581	C158	0.921780	0.774180	0.758040
C1591	C159	0.838390	0.824290	0.796820
C1601	C160	0.926010	0.914210	0.734780
C1611	C161	0.998830	0.926230	0.712340
C1621	C162	0.027100	0.998400	0.687400
C1631	C163	0.982460	0.053960	0.685680
C1641	C164	0.907280	0.040380	0.706440
C1651	C165	0.879370	0.969170	0.732060
C1661	C166	0.143220	0.236820	0.418160
C1671	C167	0.113320	0.189820	0.457360
C1681	C168	0.138570	0.295870	0.463060
C1691	C169	0.082920	0.201120	0.531760
C1701	C170	0.031220	0.141920	0.551160
C1711	C171	0.007180	0.114480	0.595640
C1721	C172	0.034620	0.147520	0.619960
C1731	C173	0.085040	0.206740	0.600520
C1741	C174	0.110030	0.233830	0.556740
C1751	C175	0.645770	0.824570	0.863460
C1761	C176	0.605390	0.891790	0.864220
C1771	C177	0.578700	0.928500	0.830600
C1781	C178	0.593510	0.918910	0.898780
C1791	C179	0.486490	0.083790	0.868420
C1801	C180	0.527960	0.017160	0.866880
C1811	C181	0.556020	0.981620	0.899960
C1821	C182	0.539990	0.990860	0.831820
C1831	C183	0.830560	0.487360	0.790480
C1841	C184	0.820180	0.467780	0.758040
C1851	C185	0.864790	0.378890	0.796820
C1861	C186	0.839210	0.351010	0.734780
C1871	C187	0.788830	0.361430	0.712340
C1881	C188	0.785500	0.314200	0.687400
C1891	C189	0.831860	0.260360	0.685680
C1901	C190	0.886280	0.253180	0.706440
C1911	C191	0.888570	0.298770	0.732060
C1921	C192	0.938620	0.345020	0.418160
C1931	C193	0.929320	0.352820	0.457360
C1941	C194	0.898370	0.241070	0.463060
C1951	C195	0.885320	0.267120	0.531760
C1961	C196	0.917620	0.306920	0.551160
C1971	C197	0.897180	0.289880	0.595640
C1981	C198	0.845420	0.232520	0.619960
C1991	C199	0.814440	0.192740	0.600520
C2001	C200	0.833230	0.209430	0.556740
C2011	C201	0.990770	0.311970	0.863460
C2021	C202	0.030390	0.243990	0.864220
C2031	C203	0.090700	0.240900	0.830600
C2041	C204	0.007710	0.182310	0.898780
C2051	C205	0.145090	0.047790	0.868420
C2061	C206	0.105160	0.115960	0.866880
C2071	C207	0.044020	0.118420	0.899960
C2081	C208	0.128190	0.177320	0.831820
N11	N1	0.431150	0.858150	0.315500
N21	N2	0.397560	0.840810	0.262020
N31	N3	0.273450	0.920750	0.922300
N41	N4	0.284960	0.906160	0.986680
N51	N5	0.753350	0.826350	0.315500
N61	N6	0.840420	0.897170	0.262020
N71	N7	0.304250	0.156950	0.922300
N81	N8	0.228360	0.107160	0.986680
N91	N9	0.358150	0.253350	0.815500
N101	N10	0.340810	0.340420	0.762020
N111	N11	0.420750	0.804250	0.422300
N121	N12	0.406160	0.728360	0.486680
N131	N13	0.326350	0.931150	0.815500
N141	N14	0.397170	0.897560	0.762020
N151	N15	0.656950	0.773450	0.422300
N161	N16	0.607160	0.784960	0.486680
N171	N17	0.253350	0.358150	0.315500
N181	N18	0.340420	0.340810	0.262020
N191	N19	0.804250	0.420750	0.922300
N201	N20	0.728360	0.406160	0.986680
N211	N21	0.931150	0.326350	0.315500
N221	N22	0.897560	0.397170	0.262020
N231	N23	0.773450	0.656950	0.922300
N241	N24	0.784960	0.607160	0.986680
N251	N25	0.826350	0.753350	0.815500
N261	N26	0.897170	0.840420	0.762020
N271	N27	0.156950	0.304250	0.422300
N281	N28	0.107160	0.228360	0.486680
N291	N29	0.858150	0.431150	0.815500
N301	N30	0.840810	0.397560	0.762020
N311	N31	0.920750	0.273450	0.422300
N321	N32	0.906160	0.284960	0.486680
O11	O1	0.366480	0.010170	0.331320
O21	O2	0.312150	0.937020	0.395300
O31	O3	0.050760	0.205260	0.340440
O41	O4	0.990690	0.119450	0.397660
O51	O5	0.209380	0.825930	0.164140
O61	O6	0.802200	0.658510	0.331320
O71	O7	0.792550	0.667680	0.395300
O81	O8	0.108800	0.454300	0.340440
O91	O9	0.111650	0.482890	0.397660
O101	O10	0.126480	0.009930	0.164140
O111	O11	0.510170	0.302200	0.831320
O121	O12	0.437020	0.292550	0.895300
O131	O13	0.705260	0.608800	0.840440
O141	O14	0.619450	0.611650	0.897660
O151	O15	0.325930	0.626480	0.664140
O161	O16	0.158510	0.866480	0.831320
O171	O17	0.167680	0.812150	0.895300
O181	O18	0.954300	0.550760	0.840440
O191	O19	0.982890	0.490690	0.897660
O201	O20	0.509930	0.709380	0.664140
O211	O21	0.302200	0.510170	0.331320
O221	O22	0.292550	0.437020	0.395300
O231	O23	0.608800	0.705260	0.340440
O241	O24	0.611650	0.619450	0.397660
O251	O25	0.626480	0.325930	0.164140
O261	O26	0.866480	0.158510	0.331320
O271	O27	0.812150	0.167680	0.395300
O281	O28	0.550760	0.954300	0.340440
O291	O29	0.490690	0.982890	0.397660
O301	O30	0.709380	0.509930	0.164140
O311	O31	0.658510	0.802200	0.831320
O321	O32	0.667680	0.792550	0.895300
O331	O33	0.454300	0.108800	0.840440
O341	O34	0.482890	0.111650	0.897660
O351	O35	0.009930	0.126480	0.664140
O361	O36	0.010170	0.366480	0.831320
O371	O37	0.937020	0.312150	0.895300
O381	O38	0.205260	0.050760	0.840440
O391	O39	0.119450	0.990690	0.897660
O401	O40	0.825930	0.209380	0.664140
Cd91	Cd9	0.797870	0.591510	0.630600
Cd101	Cd10	0.071530	0.777890	0.630600
Cd111	Cd11	0.277890	0.297870	0.130600
Cd121	Cd12	0.091510	0.571530	0.130600
Cd131	Cd13	0.571530	0.091510	0.630600
Cd141	Cd14	0.297870	0.277890	0.630600
Cd151	Cd15	0.591510	0.797870	0.130600
Cd161	Cd16	0.777890	0.071530	0.130600
H1451	H145	0.828300	0.679400	0.704400
H1461	H146	0.732900	0.697900	0.763600
H1471	H147	0.640600	0.616100	0.693600
H1481	H148	0.612500	0.742800	0.786400
H1491	H149	0.492100	0.748900	0.828000
H1501	H150	0.421700	0.579300	0.796800
H1511	H151	0.540800	0.576600	0.752800
H1521	H152	0.275000	0.545200	0.107600
H1531	H153	0.360100	0.562900	0.036400
H1541	H154	0.166900	0.621100	0.025200
H1551	H155	0.380100	0.546700	0.965400
H1561	H156	0.426300	0.581300	0.891200
H1571	H157	0.270500	0.720200	0.882800
H1581	H158	0.225900	0.689100	0.956000
H1591	H159	0.588900	0.393600	0.693200
H1601	H160	0.605100	0.532700	0.578200
H1611	H161	0.500100	0.473100	0.576600
H1621	H162	0.485300	0.331300	0.691000
H1631	H163	0.967300	0.616200	0.704400
H1641	H164	0.003500	0.538500	0.763600
H1651	H165	0.165800	0.690300	0.693600
H1661	H166	0.101100	0.470800	0.786400
H1671	H167	0.179900	0.423100	0.828000
H1681	H168	0.281500	0.623900	0.796800
H1691	H169	0.206400	0.670600	0.752800
H1701	H170	0.117400	0.347200	0.107600
H1711	H171	0.103500	0.400700	0.036400
H1721	H172	0.307900	0.353700	0.025200
H1731	H173	0.154500	0.487900	0.965400
H1741	H174	0.182500	0.527500	0.891200
H1751	H175	0.346700	0.397000	0.882800
H1761	H176	0.318100	0.354900	0.956000
H1771	H177	0.217900	0.913200	0.693200
H1781	H178	0.316700	0.889100	0.578200
H1791	H179	0.423300	0.950300	0.576600
H1801	H180	0.323700	0.977700	0.691000
H1811	H181	0.116200	0.328300	0.204400
H1821	H182	0.038500	0.232900	0.263600
H1831	H183	0.190300	0.140600	0.193600
H1841	H184	0.970800	0.112500	0.286400
H1851	H185	0.923100	0.992100	0.328000
H1861	H186	0.123900	0.921700	0.296800
H1871	H187	0.170600	0.040800	0.252800
H1881	H188	0.847200	0.775000	0.607600
H1891	H189	0.900700	0.860100	0.536400
H1901	H190	0.853700	0.666900	0.525200
H1911	H191	0.987900	0.880100	0.465400
H1921	H192	0.027500	0.926300	0.391200
H1931	H193	0.897000	0.770500	0.382800
H1941	H194	0.854900	0.725900	0.456000
H1951	H195	0.413200	0.088900	0.193200
H1961	H196	0.389100	0.105100	0.078200
H1971	H197	0.450300	0.000100	0.076600
H1981	H198	0.477700	0.985300	0.191000
H1991	H199	0.179400	0.467300	0.204400
H2001	H200	0.197900	0.503500	0.263600
H2011	H201	0.116100	0.665800	0.193600
H2021	H202	0.242800	0.601100	0.286400
H2031	H203	0.248900	0.679900	0.328000
H2041	H204	0.079300	0.781500	0.296800
H2051	H205	0.076600	0.706400	0.252800
H2061	H206	0.045200	0.617400	0.607600
H2071	H207	0.062900	0.603500	0.536400
H2081	H208	0.121100	0.807900	0.525200
H2091	H209	0.046700	0.654500	0.465400
H2101	H210	0.081300	0.682500	0.391200
H2111	H211	0.220200	0.846700	0.382800
H2121	H212	0.189100	0.818100	0.456000
H2131	H213	0.893600	0.717900	0.193200
H2141	H214	0.032700	0.816700	0.078200
H2151	H215	0.973100	0.923300	0.076600
H2161	H216	0.831300	0.823700	0.191000
H2171	H217	0.467300	0.179400	0.704400
H2181	H218	0.503500	0.197900	0.763600
H2191	H219	0.665800	0.116100	0.693600
H2201	H220	0.601100	0.242800	0.786400
H2211	H221	0.679900	0.248900	0.828000
H2221	H222	0.781500	0.079300	0.796800
H2231	H223	0.706400	0.076600	0.752800
H2241	H224	0.617400	0.045200	0.107600
H2251	H225	0.603500	0.062900	0.036400
H2261	H226	0.807900	0.121100	0.025200
H2271	H227	0.654500	0.046700	0.965400
H2281	H228	0.682500	0.081300	0.891200
H2291	H229	0.846700	0.220200	0.882800
H2301	H230	0.818100	0.189100	0.956000
H2311	H231	0.717900	0.893600	0.693200
H2321	H232	0.816700	0.032700	0.578200
H2331	H233	0.923300	0.973100	0.576600
H2341	H234	0.823700	0.831300	0.691000
H2351	H235	0.328300	0.116200	0.704400
H2361	H236	0.232900	0.038500	0.763600
H2371	H237	0.140600	0.190300	0.693600
H2381	H238	0.112500	0.970800	0.786400
H2391	H239	0.992100	0.923100	0.828000
H2401	H240	0.921700	0.123900	0.796800
H2411	H241	0.040800	0.170600	0.752800
H2421	H242	0.775000	0.847200	0.107600
H2431	H243	0.860100	0.900700	0.036400
H2441	H244	0.666900	0.853700	0.025200
H2451	H245	0.880100	0.987900	0.965400
H2461	H246	0.926300	0.027500	0.891200
H2471	H247	0.770500	0.897000	0.882800
H2481	H248	0.725900	0.854900	0.956000
H2491	H249	0.088900	0.413200	0.693200
H2501	H250	0.105100	0.389100	0.578200
H2511	H251	0.000100	0.450300	0.576600
H2521	H252	0.985300	0.477700	0.691000
H2531	H253	0.679400	0.828300	0.204400
H2541	H254	0.697900	0.732900	0.263600
H2551	H255	0.616100	0.640600	0.193600
H2561	H256	0.742800	0.612500	0.286400
H2571	H257	0.748900	0.492100	0.328000
H2581	H258	0.579300	0.421700	0.296800
H2591	H259	0.576600	0.540800	0.252800
H2601	H260	0.545200	0.275000	0.607600
H2611	H261	0.562900	0.360100	0.536400
H2621	H262	0.621100	0.166900	0.525200
H2631	H263	0.546700	0.380100	0.465400
H2641	H264	0.581300	0.426300	0.391200
H2651	H265	0.720200	0.270500	0.382800
H2661	H266	0.689100	0.225900	0.456000
H2671	H267	0.393600	0.588900	0.193200
H2681	H268	0.532700	0.605100	0.078200
H2691	H269	0.473100	0.500100	0.076600
H2701	H270	0.331300	0.485300	0.191000
H2711	H271	0.616200	0.967300	0.204400
H2721	H272	0.538500	0.003500	0.263600
H2731	H273	0.690300	0.165800	0.193600
H2741	H274	0.470800	0.101100	0.286400
H2751	H275	0.423100	0.179900	0.328000
H2761	H276	0.623900	0.281500	0.296800
H2771	H277	0.670600	0.206400	0.252800
H2781	H278	0.347200	0.117400	0.607600
H2791	H279	0.400700	0.103500	0.536400
H2801	H280	0.353700	0.307900	0.525200
H2811	H281	0.487900	0.154500	0.465400
H2821	H282	0.527500	0.182500	0.391200
H2831	H283	0.397000	0.346700	0.382800
H2841	H284	0.354900	0.318100	0.456000
H2851	H285	0.913200	0.217900	0.193200
H2861	H286	0.889100	0.316700	0.078200
H2871	H287	0.950300	0.423300	0.076600
H2881	H288	0.977700	0.323700	0.191000
C2091	C209	0.777840	0.669440	0.709520
C2101	C210	0.725820	0.679820	0.741960
C2111	C211	0.675710	0.635210	0.703180
C2121	C212	0.585790	0.660790	0.765220
C2131	C213	0.573770	0.711170	0.787660
C2141	C214	0.501600	0.714500	0.812600
C2151	C215	0.446040	0.668140	0.814320
C2161	C216	0.459620	0.613720	0.793560
C2171	C217	0.530830	0.611430	0.767940
C2181	C218	0.263180	0.561380	0.081840
C2191	C219	0.310180	0.570680	0.042640
C2201	C220	0.204130	0.601630	0.036940
C2211	C221	0.298880	0.614680	0.968240
C2221	C222	0.358080	0.582380	0.948840
C2231	C223	0.385520	0.602820	0.904360
C2241	C224	0.352480	0.654580	0.880040
C2251	C225	0.293260	0.685560	0.899480
C2261	C226	0.266170	0.666770	0.943260
C2271	C227	0.675430	0.509230	0.636540
C2281	C228	0.608210	0.469610	0.635780
C2291	C229	0.571500	0.409300	0.669400
C2301	C230	0.581090	0.492290	0.601220
C2311	C231	0.416210	0.354910	0.631580
C2321	C232	0.482840	0.394840	0.633120
C2331	C233	0.518380	0.455980	0.600040
C2341	C234	0.509140	0.371810	0.668180
C2351	C235	0.012640	0.621040	0.709520
C2361	C236	0.032220	0.578220	0.741960
C2371	C237	0.121110	0.661610	0.703180
C2381	C238	0.148990	0.573990	0.765220
C2391	C239	0.138570	0.501170	0.787660
C2401	C240	0.185800	0.472900	0.812600
C2411	C241	0.239640	0.517540	0.814320
C2421	C242	0.246820	0.592720	0.793560
C2431	C243	0.201230	0.620630	0.767940
C2441	C244	0.154980	0.356780	0.081840
C2451	C245	0.147180	0.386680	0.042640
C2461	C246	0.258930	0.361430	0.036940
C2471	C247	0.232880	0.417080	0.968240
C2481	C248	0.193080	0.468780	0.948840
C2491	C249	0.210120	0.492820	0.904360
C2501	C250	0.267480	0.465380	0.880040
C2511	C251	0.307260	0.414960	0.899480
C2521	C252	0.290570	0.389970	0.943260
C2531	C253	0.188030	0.854230	0.636540
C2541	C254	0.256010	0.894610	0.635780
C2551	C255	0.259100	0.921300	0.669400
C2561	C256	0.317690	0.906490	0.601220
C2571	C257	0.452210	0.013510	0.631580
C2581	C258	0.384040	0.972040	0.633120
C2591	C259	0.381580	0.943980	0.600040
C2601	C260	0.322680	0.960010	0.668180
C2611	C261	0.121040	0.277840	0.209520
C2621	C262	0.078220	0.225820	0.241960
C2631	C263	0.161610	0.175710	0.203180
C2641	C264	0.073990	0.085790	0.265220
C2651	C265	0.001170	0.073770	0.287660
C2661	C266	0.972900	0.001600	0.312600
C2671	C267	0.017540	0.946040	0.314320
C2681	C268	0.092720	0.959620	0.293560
C2691	C269	0.120630	0.030830	0.267940
C2701	C270	0.856780	0.763180	0.581840
C2711	C271	0.886680	0.810180	0.542640
C2721	C272	0.861430	0.704130	0.536940
C2731	C273	0.917080	0.798880	0.468240
C2741	C274	0.968780	0.858080	0.448840
C2751	C275	0.992820	0.885520	0.404360
C2761	C276	0.965380	0.852480	0.380040
C2771	C277	0.914960	0.793260	0.399480
C2781	C278	0.889970	0.766170	0.443260
C2791	C279	0.354230	0.175430	0.136540
C2801	C280	0.394610	0.108210	0.135780
C2811	C281	0.421300	0.071500	0.169400
C2821	C282	0.406490	0.081090	0.101220
C2831	C283	0.513510	0.916210	0.131580
C2841	C284	0.472040	0.982840	0.133120
C2851	C285	0.443980	0.018380	0.100040
C2861	C286	0.460010	0.009140	0.168180
C2871	C287	0.169440	0.512640	0.209520
C2881	C288	0.179820	0.532220	0.241960
C2891	C289	0.135210	0.621110	0.203180
C2901	C290	0.160790	0.648990	0.265220
C2911	C291	0.211170	0.638570	0.287660
C2921	C292	0.214500	0.685800	0.312600
C2931	C293	0.168140	0.739640	0.314320
C2941	C294	0.113720	0.746820	0.293560
C2951	C295	0.111430	0.701230	0.267940
C2961	C296	0.061380	0.654980	0.581840
C2971	C297	0.070680	0.647180	0.542640
C2981	C298	0.101630	0.758930	0.536940
C2991	C299	0.114680	0.732880	0.468240
C3001	C300	0.082380	0.693080	0.448840
C3011	C301	0.102820	0.710120	0.404360
C3021	C302	0.154580	0.767480	0.380040
C3031	C303	0.185560	0.807260	0.399480
C3041	C304	0.166770	0.790570	0.443260
C3051	C305	0.009230	0.688030	0.136540
C3061	C306	0.969610	0.756010	0.135780
C3071	C307	0.909300	0.759100	0.169400
C3081	C308	0.992290	0.817690	0.101220
C3091	C309	0.854910	0.952210	0.131580
C3101	C310	0.894840	0.884040	0.133120
C3111	C311	0.955980	0.881580	0.100040
C3121	C312	0.871810	0.822680	0.168180
C3131	C313	0.512640	0.169440	0.709520
C3141	C314	0.532220	0.179820	0.741960
C3151	C315	0.621110	0.135210	0.703180
C3161	C316	0.648990	0.160790	0.765220
C3171	C317	0.638570	0.211170	0.787660
C3181	C318	0.685800	0.214500	0.812600
C3191	C319	0.739640	0.168140	0.814320
C3201	C320	0.746820	0.113720	0.793560
C3211	C321	0.701230	0.111430	0.767940
C3221	C322	0.654980	0.061380	0.081840
C3231	C323	0.647180	0.070680	0.042640
C3241	C324	0.758930	0.101630	0.036940
C3251	C325	0.732880	0.114680	0.968240
C3261	C326	0.693080	0.082380	0.948840
C3271	C327	0.710120	0.102820	0.904360
C3281	C328	0.767480	0.154580	0.880040
C3291	C329	0.807260	0.185560	0.899480
C3301	C330	0.790570	0.166770	0.943260
C3311	C331	0.688030	0.009230	0.636540
C3321	C332	0.756010	0.969610	0.635780
C3331	C333	0.759100	0.909300	0.669400
C3341	C334	0.817690	0.992290	0.601220
C3351	C335	0.952210	0.854910	0.631580
C3361	C336	0.884040	0.894840	0.633120
C3371	C337	0.881580	0.955980	0.600040
C3381	C338	0.822680	0.871810	0.668180
C3391	C339	0.277840	0.121040	0.709520
C3401	C340	0.225820	0.078220	0.741960
C3411	C341	0.175710	0.161610	0.703180
C3421	C342	0.085790	0.073990	0.765220
C3431	C343	0.073770	0.001170	0.787660
C3441	C344	0.001600	0.972900	0.812600
C3451	C345	0.946040	0.017540	0.814320
C3461	C346	0.959620	0.092720	0.793560
C3471	C347	0.030830	0.120630	0.767940
C3481	C348	0.763180	0.856780	0.081840
C3491	C349	0.810180	0.886680	0.042640
C3501	C350	0.704130	0.861430	0.036940
C3511	C351	0.798880	0.917080	0.968240
C3521	C352	0.858080	0.968780	0.948840
C3531	C353	0.885520	0.992820	0.904360
C3541	C354	0.852480	0.965380	0.880040
C3551	C355	0.793260	0.914960	0.899480
C3561	C356	0.766170	0.889970	0.943260
C3571	C357	0.175430	0.354230	0.636540
C3581	C358	0.108210	0.394610	0.635780
C3591	C359	0.071500	0.421300	0.669400
C3601	C360	0.081090	0.406490	0.601220
C3611	C361	0.916210	0.513510	0.631580
C3621	C362	0.982840	0.472040	0.633120
C3631	C363	0.018380	0.443980	0.600040
C3641	C364	0.009140	0.460010	0.668180
C3651	C365	0.669440	0.777840	0.209520
C3661	C366	0.679820	0.725820	0.241960
C3671	C367	0.635210	0.675710	0.203180
C3681	C368	0.660790	0.585790	0.265220
C3691	C369	0.711170	0.573770	0.287660
C3701	C370	0.714500	0.501600	0.312600
C3711	C371	0.668140	0.446040	0.314320
C3721	C372	0.613720	0.459620	0.293560
C3731	C373	0.611430	0.530830	0.267940
C3741	C374	0.561380	0.263180	0.581840
C3751	C375	0.570680	0.310180	0.542640
C3761	C376	0.601630	0.204130	0.536940
C3771	C377	0.614680	0.298880	0.468240
C3781	C378	0.582380	0.358080	0.448840
C3791	C379	0.602820	0.385520	0.404360
C3801	C380	0.654580	0.352480	0.380040
C3811	C381	0.685560	0.293260	0.399480
C3821	C382	0.666770	0.266170	0.443260
C3831	C383	0.509230	0.675430	0.136540
C3841	C384	0.469610	0.608210	0.135780
C3851	C385	0.409300	0.571500	0.169400
C3861	C386	0.492290	0.581090	0.101220
C3871	C387	0.354910	0.416210	0.131580
C3881	C388	0.394840	0.482840	0.133120
C3891	C389	0.455980	0.518380	0.100040
C3901	C390	0.371810	0.509140	0.168180
C3911	C391	0.621040	0.012640	0.209520
C3921	C392	0.578220	0.032220	0.241960
C3931	C393	0.661610	0.121110	0.203180
C3941	C394	0.573990	0.148990	0.265220
C3951	C395	0.501170	0.138570	0.287660
C3961	C396	0.472900	0.185800	0.312600
C3971	C397	0.517540	0.239640	0.314320
C3981	C398	0.592720	0.246820	0.293560
C3991	C399	0.620630	0.201230	0.267940
C4001	C400	0.356780	0.154980	0.581840
C4011	C401	0.386680	0.147180	0.542640
C4021	C402	0.361430	0.258930	0.536940
C4031	C403	0.417080	0.232880	0.468240
C4041	C404	0.468780	0.193080	0.448840
C4051	C405	0.492820	0.210120	0.404360
C4061	C406	0.465380	0.267480	0.380040
C4071	C407	0.414960	0.307260	0.399480
C4081	C408	0.389970	0.290570	0.443260
C4091	C409	0.854230	0.188030	0.136540
C4101	C410	0.894610	0.256010	0.135780
C4111	C411	0.921300	0.259100	0.169400
C4121	C412	0.906490	0.317690	0.101220
C4131	C413	0.013510	0.452210	0.131580
C4141	C414	0.972040	0.384040	0.133120
C4151	C415	0.943980	0.381580	0.100040
C4161	C416	0.960010	0.322680	0.168180
N331	N33	0.746650	0.641850	0.684500
N341	N34	0.659580	0.659190	0.737980
N351	N35	0.195750	0.579250	0.077700
N361	N36	0.271640	0.593840	0.013320
N371	N37	0.068850	0.673650	0.684500
N381	N38	0.102440	0.602830	0.737980
N391	N39	0.226550	0.343050	0.077700
N401	N40	0.215040	0.392840	0.013320
N411	N41	0.173650	0.246650	0.184500
N421	N42	0.102830	0.159580	0.237980
N431	N43	0.843050	0.695750	0.577700
N441	N44	0.892840	0.771640	0.513320
N451	N45	0.141850	0.568850	0.184500
N461	N46	0.159190	0.602440	0.237980
N471	N47	0.079250	0.726550	0.577700
N481	N48	0.093840	0.715040	0.513320
N491	N49	0.568850	0.141850	0.684500
N501	N50	0.602440	0.159190	0.737980
N511	N51	0.726550	0.079250	0.077700
N521	N52	0.715040	0.093840	0.013320
N531	N53	0.246650	0.173650	0.684500
N541	N54	0.159580	0.102830	0.737980
N551	N55	0.695750	0.843050	0.077700
N561	N56	0.771640	0.892840	0.013320
N571	N57	0.641850	0.746650	0.184500
N581	N58	0.659190	0.659580	0.237980
N591	N59	0.579250	0.195750	0.577700
N601	N60	0.593840	0.271640	0.513320
N611	N61	0.673650	0.068850	0.184500
N621	N62	0.602830	0.102440	0.237980
N631	N63	0.343050	0.226550	0.577700
N641	N64	0.392840	0.215040	0.513320
O411	O41	0.697800	0.489830	0.668680
O421	O42	0.707450	0.562980	0.604700
O431	O43	0.391200	0.294740	0.659560
O441	O44	0.388350	0.380550	0.602340
O451	O45	0.373520	0.674070	0.835860
O461	O46	0.133520	0.841490	0.668680
O471	O47	0.187850	0.832320	0.604700
O481	O48	0.449240	0.045700	0.659560
O491	O49	0.509310	0.017110	0.602340
O501	O50	0.290620	0.490070	0.835860
O511	O51	0.341490	0.197800	0.168680
O521	O52	0.332320	0.207450	0.104700
O531	O53	0.545700	0.891200	0.159560
O541	O54	0.517110	0.888350	0.102340
O551	O55	0.990070	0.873520	0.335860
O561	O56	0.989830	0.633520	0.168680
O571	O57	0.062980	0.687850	0.104700
O581	O58	0.794740	0.949240	0.159560
O591	O59	0.880550	0.009310	0.102340
O601	O60	0.174070	0.790620	0.335860
O611	O61	0.633520	0.989830	0.668680
O621	O62	0.687850	0.062980	0.604700
O631	O63	0.949240	0.794740	0.659560
O641	O64	0.009310	0.880550	0.602340
O651	O65	0.790620	0.174070	0.835860
O661	O66	0.197800	0.341490	0.668680
O671	O67	0.207450	0.332320	0.604700
O681	O68	0.891200	0.545700	0.659560
O691	O69	0.888350	0.517110	0.602340
O701	O70	0.873520	0.990070	0.835860
O711	O71	0.489830	0.697800	0.168680
O721	O72	0.562980	0.707450	0.104700
O731	O73	0.294740	0.391200	0.159560
O741	O74	0.380550	0.388350	0.102340
O751	O75	0.674070	0.373520	0.335860
O761	O76	0.841490	0.133520	0.168680
O771	O77	0.832320	0.187850	0.104700
O781	O78	0.045700	0.449240	0.159560
O791	O79	0.017110	0.509310	0.102340
O801	O80	0.490070	0.290620	0.335860
