data_OKIQAB_clean_PM
_symmetry_space_group_name_H-M	'P1'
_cell_length_a	18.386300
_cell_length_b	18.386300
_cell_length_c	33.585900
_cell_angle_alpha	105.886000
_cell_angle_beta	105.886000
_cell_angle_gamma	90.000100
_symmetry_Int_Tables_number 1

loop_
_symmetry_equiv_pos_as_xyz
'x,y,z'

loop_
_atom_site_label
_atom_site_type_symbol
_atom_site_fract_x
_atom_site_fract_y
_atom_site_fract_z
Zn11	Zn1	0.229190	0.422440	0.134600
Zn21	Zn2	0.405410	0.712160	0.134600
Zn31	Zn3	0.422440	0.405410	0.634600
Zn41	Zn4	0.712160	0.229190	0.634600
Zn51	Zn5	0.905410	0.922440	0.134600
Zn61	Zn6	0.729190	0.212160	0.134600
Zn71	Zn7	0.212160	0.905410	0.634600
Zn81	Zn8	0.922440	0.729190	0.634600
H11	H1	0.379600	0.531500	0.203600
H21	H2	0.461500	0.496000	0.264800
H31	H3	0.313500	0.322800	0.192200
H41	H4	0.537000	0.392500	0.284800
H51	H5	0.585800	0.317900	0.330600
H61	H6	0.329900	0.291000	0.259600
H71	H7	0.379600	0.212500	0.302000
H81	H8	0.656800	0.380500	0.614000
H91	H9	0.587300	0.389800	0.541200
H101	H10	0.662200	0.189800	0.531400
H111	H11	0.662000	0.182700	0.463200
H121	H12	0.618500	0.151500	0.388800
H131	H13	0.514600	0.344900	0.471400
H141	H14	0.476400	0.318000	0.397400
H151	H15	0.080300	0.273100	0.202000
H161	H16	0.014000	0.159500	0.191400
H171	H17	0.116600	0.193800	0.085800
H181	H18	0.054200	0.077300	0.076200
H191	H19	0.324000	0.672100	0.203600
H201	H20	0.303300	0.768800	0.264800
H211	H21	0.378700	0.869400	0.192200
H221	H22	0.247800	0.892300	0.284800
H231	H23	0.244800	0.012700	0.330600
H241	H24	0.429700	0.968600	0.259600
H251	H25	0.422400	0.089500	0.302000
H261	H26	0.457200	0.233500	0.614000
H271	H27	0.453900	0.151400	0.541200
H281	H28	0.369200	0.341600	0.531400
H291	H29	0.301200	0.280500	0.463200
H301	H30	0.270300	0.237300	0.388800
H311	H31	0.456800	0.126500	0.471400
H321	H32	0.421000	0.079400	0.397400
H331	H33	0.621700	0.928900	0.202000
H341	H34	0.677400	0.031900	0.191400
H351	H35	0.469200	0.892000	0.085800
H361	H36	0.522000	0.998900	0.076200
H371	H37	0.531500	0.324000	0.703600
H381	H38	0.496000	0.303300	0.764800
H391	H39	0.322800	0.378700	0.692200
H401	H40	0.392500	0.247800	0.784800
H411	H41	0.317900	0.244800	0.830600
H421	H42	0.291000	0.429700	0.759600
H431	H43	0.212500	0.422400	0.802000
H441	H44	0.380500	0.457200	0.114000
H451	H45	0.389800	0.453900	0.041200
H461	H46	0.189800	0.369200	0.031400
H471	H47	0.182700	0.301200	0.963200
H481	H48	0.151500	0.270300	0.888800
H491	H49	0.344900	0.456800	0.971400
H501	H50	0.318000	0.421000	0.897400
H511	H51	0.273100	0.621700	0.702000
H521	H52	0.159500	0.677400	0.691400
H531	H53	0.193800	0.469200	0.585800
H541	H54	0.077300	0.522000	0.576200
H551	H55	0.672100	0.379600	0.703600
H561	H56	0.768800	0.461500	0.764800
H571	H57	0.869400	0.313500	0.692200
H581	H58	0.892300	0.537000	0.784800
H591	H59	0.012700	0.585800	0.830600
H601	H60	0.968600	0.329900	0.759600
H611	H61	0.089500	0.379600	0.802000
H621	H62	0.233500	0.656800	0.114000
H631	H63	0.151400	0.587300	0.041200
H641	H64	0.341600	0.662200	0.031400
H651	H65	0.280500	0.662000	0.963200
H661	H66	0.237300	0.618500	0.888800
H671	H67	0.126500	0.514600	0.971400
H681	H68	0.079400	0.476400	0.897400
H691	H69	0.928900	0.080300	0.702000
H701	H70	0.031900	0.014000	0.691400
H711	H71	0.892000	0.116600	0.585800
H721	H72	0.998900	0.054200	0.576200
H731	H73	0.824000	0.031500	0.203600
H741	H74	0.803300	0.996000	0.264800
H751	H75	0.878700	0.822800	0.192200
H761	H76	0.747800	0.892500	0.284800
H771	H77	0.744800	0.817900	0.330600
H781	H78	0.929700	0.791000	0.259600
H791	H79	0.922400	0.712500	0.302000
H801	H80	0.957200	0.880500	0.614000
H811	H81	0.953900	0.889800	0.541200
H821	H82	0.869200	0.689800	0.531400
H831	H83	0.801200	0.682700	0.463200
H841	H84	0.770300	0.651500	0.388800
H851	H85	0.956800	0.844900	0.471400
H861	H86	0.921000	0.818000	0.397400
H871	H87	0.121700	0.773100	0.202000
H881	H88	0.177400	0.659500	0.191400
H891	H89	0.969200	0.693800	0.085800
H901	H90	0.022000	0.577300	0.076200
H911	H91	0.879600	0.172100	0.203600
H921	H92	0.961500	0.268800	0.264800
H931	H93	0.813500	0.369400	0.192200
H941	H94	0.037000	0.392300	0.284800
H951	H95	0.085800	0.512700	0.330600
H961	H96	0.829900	0.468600	0.259600
H971	H97	0.879600	0.589500	0.302000
H981	H98	0.156800	0.733500	0.614000
H991	H99	0.087300	0.651400	0.541200
H1001	H100	0.162200	0.841600	0.531400
H1011	H101	0.162000	0.780500	0.463200
H1021	H102	0.118500	0.737300	0.388800
H1031	H103	0.014600	0.626500	0.471400
H1041	H104	0.976400	0.579400	0.397400
H1051	H105	0.580300	0.428900	0.202000
H1061	H106	0.514000	0.531900	0.191400
H1071	H107	0.616600	0.392000	0.085800
H1081	H108	0.554200	0.498900	0.076200
H1091	H109	0.172100	0.824000	0.703600
H1101	H110	0.268800	0.803300	0.764800
H1111	H111	0.369400	0.878700	0.692200
H1121	H112	0.392300	0.747800	0.784800
H1131	H113	0.512700	0.744800	0.830600
H1141	H114	0.468600	0.929700	0.759600
H1151	H115	0.589500	0.922400	0.802000
H1161	H116	0.733500	0.957200	0.114000
H1171	H117	0.651400	0.953900	0.041200
H1181	H118	0.841600	0.869200	0.031400
H1191	H119	0.780500	0.801200	0.963200
H1201	H120	0.737300	0.770300	0.888800
H1211	H121	0.626500	0.956800	0.971400
H1221	H122	0.579400	0.921000	0.897400
H1231	H123	0.428900	0.121700	0.702000
H1241	H124	0.531900	0.177400	0.691400
H1251	H125	0.392000	0.969200	0.585800
H1261	H126	0.498900	0.022000	0.576200
H1271	H127	0.031500	0.879600	0.703600
H1281	H128	0.996000	0.961500	0.764800
H1291	H129	0.822800	0.813500	0.692200
H1301	H130	0.892500	0.037000	0.784800
H1311	H131	0.817900	0.085800	0.830600
H1321	H132	0.791000	0.829900	0.759600
H1331	H133	0.712500	0.879600	0.802000
H1341	H134	0.880500	0.156800	0.114000
H1351	H135	0.889800	0.087300	0.041200
H1361	H136	0.689800	0.162200	0.031400
H1371	H137	0.682700	0.162000	0.963200
H1381	H138	0.651500	0.118500	0.888800
H1391	H139	0.844900	0.014600	0.971400
H1401	H140	0.818000	0.976400	0.897400
H1411	H141	0.773100	0.580300	0.702000
H1421	H142	0.659500	0.514000	0.691400
H1431	H143	0.693800	0.616600	0.585800
H1441	H144	0.577300	0.554200	0.576200
C11	C1	0.375990	0.483890	0.209180
C21	C2	0.421180	0.464680	0.242360
C31	C3	0.340300	0.371500	0.202800
C41	C4	0.428920	0.347320	0.266840
C51	C5	0.504580	0.356080	0.288360
C61	C6	0.533450	0.311650	0.315100
C71	C7	0.382900	0.295300	0.273200
C81	C8	0.411430	0.249730	0.298660
C91	C9	0.486410	0.259110	0.319020
C101	C10	0.543040	0.232440	0.386080
C111	C11	0.648020	0.340920	0.587840
C121	C12	0.611550	0.347150	0.547700
C131	C13	0.650980	0.240080	0.543360
C141	C14	0.592440	0.266140	0.474080
C151	C15	0.623250	0.209550	0.449700
C161	C16	0.598280	0.191780	0.405960
C171	C17	0.536560	0.306060	0.454320
C181	C18	0.513490	0.289590	0.410780
C191	C19	0.149730	0.316930	0.152060
C201	C20	0.104700	0.243800	0.144800
C211	C21	0.074460	0.233460	0.176120
C221	C22	0.035730	0.165730	0.169860
C231	C23	0.096430	0.186330	0.107660
C241	C24	0.058630	0.117330	0.101860
C251	C25	0.027440	0.106240	0.133080
C261	C26	0.987610	0.031810	0.127020
C271	C27	0.333190	0.725290	0.209180
C281	C28	0.321180	0.777680	0.242360
C291	C29	0.362500	0.831300	0.202800
C301	C30	0.337920	0.919520	0.266840
C311	C31	0.283780	0.932280	0.288360
C321	C32	0.281650	0.003450	0.315100
C331	C33	0.390300	0.977900	0.273200
C341	C34	0.387230	0.048930	0.298660
C351	C35	0.332610	0.059910	0.319020
C361	C36	0.343040	0.153640	0.386080
C371	C37	0.439820	0.246920	0.587840
C381	C38	0.436150	0.200550	0.547700
C391	C39	0.392380	0.303280	0.543360
C401	C40	0.381640	0.207940	0.474080
C411	C41	0.326450	0.240150	0.449700
C421	C42	0.307680	0.214180	0.405960
C431	C43	0.417760	0.148260	0.454320
C441	C44	0.397290	0.121190	0.410780
C451	C45	0.502330	0.835130	0.152060
C461	C46	0.540100	0.901000	0.144800
C471	C47	0.601660	0.942660	0.176120
C481	C48	0.634130	0.004130	0.169860
C491	C49	0.511230	0.921330	0.107660
C501	C50	0.543230	0.984530	0.101860
C511	C51	0.605640	0.026840	0.133080
C521	C52	0.639410	0.095210	0.127020
C531	C53	0.483890	0.333190	0.709180
C541	C54	0.464680	0.321180	0.742360
C551	C55	0.371500	0.362500	0.702800
C561	C56	0.347320	0.337920	0.766840
C571	C57	0.356080	0.283780	0.788360
C581	C58	0.311650	0.281650	0.815100
C591	C59	0.295300	0.390300	0.773200
C601	C60	0.249730	0.387230	0.798660
C611	C61	0.259110	0.332610	0.819020
C621	C62	0.232440	0.343040	0.886080
C631	C63	0.340920	0.439820	0.087840
C641	C64	0.347150	0.436150	0.047700
C651	C65	0.240080	0.392380	0.043360
C661	C66	0.266140	0.381640	0.974080
C671	C67	0.209550	0.326450	0.949700
C681	C68	0.191780	0.307680	0.905960
C691	C69	0.306060	0.417760	0.954320
C701	C70	0.289590	0.397290	0.910780
C711	C71	0.316930	0.502330	0.652060
C721	C72	0.243800	0.540100	0.644800
C731	C73	0.233460	0.601660	0.676120
C741	C74	0.165730	0.634130	0.669860
C751	C75	0.186330	0.511230	0.607660
C761	C76	0.117330	0.543230	0.601860
C771	C77	0.106240	0.605640	0.633080
C781	C78	0.031810	0.639410	0.627020
C791	C79	0.725290	0.375990	0.709180
C801	C80	0.777680	0.421180	0.742360
C811	C81	0.831300	0.340300	0.702800
C821	C82	0.919520	0.428920	0.766840
C831	C83	0.932280	0.504580	0.788360
C841	C84	0.003450	0.533450	0.815100
C851	C85	0.977900	0.382900	0.773200
C861	C86	0.048930	0.411430	0.798660
C871	C87	0.059910	0.486410	0.819020
C881	C88	0.153640	0.543040	0.886080
C891	C89	0.246920	0.648020	0.087840
C901	C90	0.200550	0.611550	0.047700
C911	C91	0.303280	0.650980	0.043360
C921	C92	0.207940	0.592440	0.974080
C931	C93	0.240150	0.623250	0.949700
C941	C94	0.214180	0.598280	0.905960
C951	C95	0.148260	0.536560	0.954320
C961	C96	0.121190	0.513490	0.910780
C971	C97	0.835130	0.149730	0.652060
C981	C98	0.901000	0.104700	0.644800
C991	C99	0.942660	0.074460	0.676120
C1001	C100	0.004130	0.035730	0.669860
C1011	C101	0.921330	0.096430	0.607660
C1021	C102	0.984530	0.058630	0.601860
C1031	C103	0.026840	0.027440	0.633080
C1041	C104	0.095210	0.987610	0.627020
C1051	C105	0.833190	0.983890	0.209180
C1061	C106	0.821180	0.964680	0.242360
C1071	C107	0.862500	0.871500	0.202800
C1081	C108	0.837920	0.847320	0.266840
C1091	C109	0.783780	0.856080	0.288360
C1101	C110	0.781650	0.811650	0.315100
C1111	C111	0.890300	0.795300	0.273200
C1121	C112	0.887230	0.749730	0.298660
C1131	C113	0.832610	0.759110	0.319020
C1141	C114	0.843040	0.732440	0.386080
C1151	C115	0.939820	0.840920	0.587840
C1161	C116	0.936150	0.847150	0.547700
C1171	C117	0.892380	0.740080	0.543360
C1181	C118	0.881640	0.766140	0.474080
C1191	C119	0.826450	0.709550	0.449700
C1201	C120	0.807680	0.691780	0.405960
C1211	C121	0.917760	0.806060	0.454320
C1221	C122	0.897290	0.789590	0.410780
C1231	C123	0.002330	0.816930	0.152060
C1241	C124	0.040100	0.743800	0.144800
C1251	C125	0.101660	0.733460	0.176120
C1261	C126	0.134130	0.665730	0.169860
C1271	C127	0.011230	0.686330	0.107660
C1281	C128	0.043230	0.617330	0.101860
C1291	C129	0.105640	0.606240	0.133080
C1301	C130	0.139410	0.531810	0.127020
C1311	C131	0.875990	0.225290	0.209180
C1321	C132	0.921180	0.277680	0.242360
C1331	C133	0.840300	0.331300	0.202800
C1341	C134	0.928920	0.419520	0.266840
C1351	C135	0.004580	0.432280	0.288360
C1361	C136	0.033450	0.503450	0.315100
C1371	C137	0.882900	0.477900	0.273200
C1381	C138	0.911430	0.548930	0.298660
C1391	C139	0.986410	0.559910	0.319020
C1401	C140	0.043040	0.653640	0.386080
C1411	C141	0.148020	0.746920	0.587840
C1421	C142	0.111550	0.700550	0.547700
C1431	C143	0.150980	0.803280	0.543360
C1441	C144	0.092440	0.707940	0.474080
C1451	C145	0.123250	0.740150	0.449700
C1461	C146	0.098280	0.714180	0.405960
C1471	C147	0.036560	0.648260	0.454320
C1481	C148	0.013490	0.621190	0.410780
C1491	C149	0.649730	0.335130	0.152060
C1501	C150	0.604700	0.401000	0.144800
C1511	C151	0.574460	0.442660	0.176120
C1521	C152	0.535730	0.504130	0.169860
C1531	C153	0.596430	0.421330	0.107660
C1541	C154	0.558630	0.484530	0.101860
C1551	C155	0.527440	0.526840	0.133080
C1561	C156	0.487610	0.595210	0.127020
C1571	C157	0.225290	0.833190	0.709180
C1581	C158	0.277680	0.821180	0.742360
C1591	C159	0.331300	0.862500	0.702800
C1601	C160	0.419520	0.837920	0.766840
C1611	C161	0.432280	0.783780	0.788360
C1621	C162	0.503450	0.781650	0.815100
C1631	C163	0.477900	0.890300	0.773200
C1641	C164	0.548930	0.887230	0.798660
C1651	C165	0.559910	0.832610	0.819020
C1661	C166	0.653640	0.843040	0.886080
C1671	C167	0.746920	0.939820	0.087840
C1681	C168	0.700550	0.936150	0.047700
C1691	C169	0.803280	0.892380	0.043360
C1701	C170	0.707940	0.881640	0.974080
C1711	C171	0.740150	0.826450	0.949700
C1721	C172	0.714180	0.807680	0.905960
C1731	C173	0.648260	0.917760	0.954320
C1741	C174	0.621190	0.897290	0.910780
C1751	C175	0.335130	0.002330	0.652060
C1761	C176	0.401000	0.040100	0.644800
C1771	C177	0.442660	0.101660	0.676120
C1781	C178	0.504130	0.134130	0.669860
C1791	C179	0.421330	0.011230	0.607660
C1801	C180	0.484530	0.043230	0.601860
C1811	C181	0.526840	0.105640	0.633080
C1821	C182	0.595210	0.139410	0.627020
C1831	C183	0.983890	0.875990	0.709180
C1841	C184	0.964680	0.921180	0.742360
C1851	C185	0.871500	0.840300	0.702800
C1861	C186	0.847320	0.928920	0.766840
C1871	C187	0.856080	0.004580	0.788360
C1881	C188	0.811650	0.033450	0.815100
C1891	C189	0.795300	0.882900	0.773200
C1901	C190	0.749730	0.911430	0.798660
C1911	C191	0.759110	0.986410	0.819020
C1921	C192	0.732440	0.043040	0.886080
C1931	C193	0.840920	0.148020	0.087840
C1941	C194	0.847150	0.111550	0.047700
C1951	C195	0.740080	0.150980	0.043360
C1961	C196	0.766140	0.092440	0.974080
C1971	C197	0.709550	0.123250	0.949700
C1981	C198	0.691780	0.098280	0.905960
C1991	C199	0.806060	0.036560	0.954320
C2001	C200	0.789590	0.013490	0.910780
C2011	C201	0.816930	0.649730	0.652060
C2021	C202	0.743800	0.604700	0.644800
C2031	C203	0.733460	0.574460	0.676120
C2041	C204	0.665730	0.535730	0.669860
C2051	C205	0.686330	0.596430	0.607660
C2061	C206	0.617330	0.558630	0.601860
C2071	C207	0.606240	0.527440	0.633080
C2081	C208	0.531810	0.487610	0.627020
N11	N1	0.323980	0.425280	0.184360
N21	N2	0.398890	0.392190	0.238180
N31	N3	0.669170	0.271870	0.584740
N41	N4	0.616550	0.281950	0.519500
N51	N5	0.360380	0.759080	0.184360
N61	N6	0.339290	0.845990	0.238180
N71	N7	0.415570	0.312870	0.584740
N81	N8	0.402950	0.237550	0.519500
N91	N9	0.425280	0.360380	0.684360
N101	N10	0.392190	0.339290	0.738180
N111	N11	0.271870	0.415570	0.084740
N121	N12	0.281950	0.402950	0.019500
N131	N13	0.759080	0.323980	0.684360
N141	N14	0.845990	0.398890	0.738180
N151	N15	0.312870	0.669170	0.084740
N161	N16	0.237550	0.616550	0.019500
N171	N17	0.860380	0.925280	0.184360
N181	N18	0.839290	0.892190	0.238180
N191	N19	0.915570	0.771870	0.584740
N201	N20	0.902950	0.781950	0.519500
N211	N21	0.823980	0.259080	0.184360
N221	N22	0.898890	0.345990	0.238180
N231	N23	0.169170	0.812870	0.584740
N241	N24	0.116550	0.737550	0.519500
N251	N25	0.259080	0.860380	0.684360
N261	N26	0.345990	0.839290	0.738180
N271	N27	0.812870	0.915570	0.084740
N281	N28	0.737550	0.902950	0.019500
N291	N29	0.925280	0.823980	0.684360
N301	N30	0.892190	0.898890	0.738180
N311	N31	0.771870	0.169170	0.084740
N321	N32	0.781950	0.116550	0.019500
O11	O1	0.172210	0.325410	0.121220
O21	O2	0.165290	0.363590	0.188380
O31	O3	0.984850	0.977150	0.095700
O41	O4	0.954740	0.027140	0.155080
O51	O5	0.518810	0.208310	0.341620
O61	O6	0.449010	0.795810	0.121220
O71	O7	0.523090	0.824790	0.188380
O81	O8	0.610850	0.118550	0.095700
O91	O9	0.700340	0.127940	0.155080
O101	O10	0.322810	0.133310	0.341620
O111	O11	0.325410	0.449010	0.621220
O121	O12	0.363590	0.523090	0.688380
O131	O13	0.977150	0.610850	0.595700
O141	O14	0.027140	0.700340	0.655080
O151	O15	0.208310	0.322810	0.841620
O161	O16	0.795810	0.172210	0.621220
O171	O17	0.824790	0.165290	0.688380
O181	O18	0.118550	0.984850	0.595700
O191	O19	0.127940	0.954740	0.655080
O201	O20	0.133310	0.518810	0.841620
O211	O21	0.949010	0.825410	0.121220
O221	O22	0.023090	0.863590	0.188380
O231	O23	0.110850	0.477150	0.095700
O241	O24	0.200340	0.527140	0.155080
O251	O25	0.822810	0.708310	0.341620
O261	O26	0.672210	0.295810	0.121220
O271	O27	0.665290	0.324790	0.188380
O281	O28	0.484850	0.618550	0.095700
O291	O29	0.454740	0.627940	0.155080
O301	O30	0.018810	0.633310	0.341620
O311	O31	0.295810	0.949010	0.621220
O321	O32	0.324790	0.023090	0.688380
O331	O33	0.618550	0.110850	0.595700
O341	O34	0.627940	0.200340	0.655080
O351	O35	0.633310	0.822810	0.841620
O361	O36	0.825410	0.672210	0.621220
O371	O37	0.863590	0.665290	0.688380
O381	O38	0.477150	0.484850	0.595700
O391	O39	0.527140	0.454740	0.655080
O401	O40	0.708310	0.018810	0.841620
Zn91	Zn9	0.094590	0.077560	0.865400
Zn101	Zn10	0.270810	0.787840	0.865400
Zn111	Zn11	0.787840	0.094590	0.365400
Zn121	Zn12	0.077560	0.270810	0.365400
Zn131	Zn13	0.770810	0.577560	0.865400
Zn141	Zn14	0.594590	0.287840	0.865400
Zn151	Zn15	0.577560	0.594590	0.365400
Zn161	Zn16	0.287840	0.770810	0.365400
H1451	H145	0.176000	0.968500	0.796400
H1461	H146	0.196700	0.004000	0.735200
H1471	H147	0.121300	0.177200	0.807800
H1481	H148	0.252200	0.107500	0.715200
H1491	H149	0.255200	0.182100	0.669400
H1501	H150	0.070300	0.209000	0.740400
H1511	H151	0.077600	0.287500	0.698000
H1521	H152	0.042800	0.119500	0.386000
H1531	H153	0.046100	0.110200	0.458800
H1541	H154	0.130800	0.310200	0.468600
H1551	H155	0.198800	0.317300	0.536800
H1561	H156	0.229700	0.348500	0.611200
H1571	H157	0.043200	0.155100	0.528600
H1581	H158	0.079000	0.182000	0.602600
H1591	H159	0.878300	0.226900	0.798000
H1601	H160	0.822600	0.340500	0.808600
H1611	H161	0.030800	0.306200	0.914200
H1621	H162	0.978000	0.422700	0.923800
H1631	H163	0.120400	0.827900	0.796400
H1641	H164	0.038500	0.731200	0.735200
H1651	H165	0.186500	0.630600	0.807800
H1661	H166	0.963000	0.607700	0.715200
H1671	H167	0.914200	0.487300	0.669400
H1681	H168	0.170100	0.531400	0.740400
H1691	H169	0.120400	0.410500	0.698000
H1701	H170	0.843200	0.266500	0.386000
H1711	H171	0.912700	0.348600	0.458800
H1721	H172	0.837800	0.158400	0.468600
H1731	H173	0.838000	0.219500	0.536800
H1741	H174	0.881500	0.262700	0.611200
H1751	H175	0.985400	0.373500	0.528600
H1761	H176	0.023600	0.420600	0.602600
H1771	H177	0.419700	0.571100	0.798000
H1781	H178	0.486000	0.468100	0.808600
H1791	H179	0.383400	0.608000	0.914200
H1801	H180	0.445800	0.501100	0.923800
H1811	H181	0.827900	0.176000	0.296400
H1821	H182	0.731200	0.196700	0.235200
H1831	H183	0.630600	0.121300	0.307800
H1841	H184	0.607700	0.252200	0.215200
H1851	H185	0.487300	0.255200	0.169400
H1861	H186	0.531400	0.070300	0.240400
H1871	H187	0.410500	0.077600	0.198000
H1881	H188	0.266500	0.042800	0.886000
H1891	H189	0.348600	0.046100	0.958800
H1901	H190	0.158400	0.130800	0.968600
H1911	H191	0.219500	0.198800	0.036800
H1921	H192	0.262700	0.229700	0.111200
H1931	H193	0.373500	0.043200	0.028600
H1941	H194	0.420600	0.079000	0.102600
H1951	H195	0.571100	0.878300	0.298000
H1961	H196	0.468100	0.822600	0.308600
H1971	H197	0.608000	0.030800	0.414200
H1981	H198	0.501100	0.978000	0.423800
H1991	H199	0.968500	0.120400	0.296400
H2001	H200	0.004000	0.038500	0.235200
H2011	H201	0.177200	0.186500	0.307800
H2021	H202	0.107500	0.963000	0.215200
H2031	H203	0.182100	0.914200	0.169400
H2041	H204	0.209000	0.170100	0.240400
H2051	H205	0.287500	0.120400	0.198000
H2061	H206	0.119500	0.843200	0.886000
H2071	H207	0.110200	0.912700	0.958800
H2081	H208	0.310200	0.837800	0.968600
H2091	H209	0.317300	0.838000	0.036800
H2101	H210	0.348500	0.881500	0.111200
H2111	H211	0.155100	0.985400	0.028600
H2121	H212	0.182000	0.023600	0.102600
H2131	H213	0.226900	0.419700	0.298000
H2141	H214	0.340500	0.486000	0.308600
H2151	H215	0.306200	0.383400	0.414200
H2161	H216	0.422700	0.445800	0.423800
H2171	H217	0.620400	0.468500	0.796400
H2181	H218	0.538500	0.504000	0.735200
H2191	H219	0.686500	0.677200	0.807800
H2201	H220	0.463000	0.607500	0.715200
H2211	H221	0.414200	0.682100	0.669400
H2221	H222	0.670100	0.709000	0.740400
H2231	H223	0.620400	0.787500	0.698000
H2241	H224	0.343200	0.619500	0.386000
H2251	H225	0.412700	0.610200	0.458800
H2261	H226	0.337800	0.810200	0.468600
H2271	H227	0.338000	0.817300	0.536800
H2281	H228	0.381500	0.848500	0.611200
H2291	H229	0.485400	0.655100	0.528600
H2301	H230	0.523600	0.682000	0.602600
H2311	H231	0.919700	0.726900	0.798000
H2321	H232	0.986000	0.840500	0.808600
H2331	H233	0.883400	0.806200	0.914200
H2341	H234	0.945800	0.922700	0.923800
H2351	H235	0.676000	0.327900	0.796400
H2361	H236	0.696700	0.231200	0.735200
H2371	H237	0.621300	0.130600	0.807800
H2381	H238	0.752200	0.107700	0.715200
H2391	H239	0.755200	0.987300	0.669400
H2401	H240	0.570300	0.031400	0.740400
H2411	H241	0.577600	0.910500	0.698000
H2421	H242	0.542800	0.766500	0.386000
H2431	H243	0.546100	0.848600	0.458800
H2441	H244	0.630800	0.658400	0.468600
H2451	H245	0.698800	0.719500	0.536800
H2461	H246	0.729700	0.762700	0.611200
H2471	H247	0.543200	0.873500	0.528600
H2481	H248	0.579000	0.920600	0.602600
H2491	H249	0.378300	0.071100	0.798000
H2501	H250	0.322600	0.968100	0.808600
H2511	H251	0.530800	0.108000	0.914200
H2521	H252	0.478000	0.001100	0.923800
H2531	H253	0.468500	0.676000	0.296400
H2541	H254	0.504000	0.696700	0.235200
H2551	H255	0.677200	0.621300	0.307800
H2561	H256	0.607500	0.752200	0.215200
H2571	H257	0.682100	0.755200	0.169400
H2581	H258	0.709000	0.570300	0.240400
H2591	H259	0.787500	0.577600	0.198000
H2601	H260	0.619500	0.542800	0.886000
H2611	H261	0.610200	0.546100	0.958800
H2621	H262	0.810200	0.630800	0.968600
H2631	H263	0.817300	0.698800	0.036800
H2641	H264	0.848500	0.729700	0.111200
H2651	H265	0.655100	0.543200	0.028600
H2661	H266	0.682000	0.579000	0.102600
H2671	H267	0.726900	0.378300	0.298000
H2681	H268	0.840500	0.322600	0.308600
H2691	H269	0.806200	0.530800	0.414200
H2701	H270	0.922700	0.478000	0.423800
H2711	H271	0.327900	0.620400	0.296400
H2721	H272	0.231200	0.538500	0.235200
H2731	H273	0.130600	0.686500	0.307800
H2741	H274	0.107700	0.463000	0.215200
H2751	H275	0.987300	0.414200	0.169400
H2761	H276	0.031400	0.670100	0.240400
H2771	H277	0.910500	0.620400	0.198000
H2781	H278	0.766500	0.343200	0.886000
H2791	H279	0.848600	0.412700	0.958800
H2801	H280	0.658400	0.337800	0.968600
H2811	H281	0.719500	0.338000	0.036800
H2821	H282	0.762700	0.381500	0.111200
H2831	H283	0.873500	0.485400	0.028600
H2841	H284	0.920600	0.523600	0.102600
H2851	H285	0.071100	0.919700	0.298000
H2861	H286	0.968100	0.986000	0.308600
H2871	H287	0.108000	0.883400	0.414200
H2881	H288	0.001100	0.945800	0.423800
C2091	C209	0.166810	0.016110	0.790820
C2101	C210	0.178820	0.035320	0.757640
C2111	C211	0.137500	0.128500	0.797200
C2121	C212	0.162080	0.152680	0.733160
C2131	C213	0.216220	0.143920	0.711640
C2141	C214	0.218350	0.188350	0.684900
C2151	C215	0.109700	0.204700	0.726800
C2161	C216	0.112770	0.250270	0.701340
C2171	C217	0.167390	0.240890	0.680980
C2181	C218	0.156960	0.267560	0.613920
C2191	C219	0.060180	0.159080	0.412160
C2201	C220	0.063850	0.152850	0.452300
C2211	C221	0.107620	0.259920	0.456640
C2221	C222	0.118360	0.233860	0.525920
C2231	C223	0.173550	0.290450	0.550300
C2241	C224	0.192320	0.308220	0.594040
C2251	C225	0.082240	0.193940	0.545680
C2261	C226	0.102710	0.210410	0.589220
C2271	C227	0.997670	0.183070	0.847940
C2281	C228	0.959900	0.256200	0.855200
C2291	C229	0.898340	0.266540	0.823880
C2301	C230	0.865870	0.334270	0.830140
C2311	C231	0.988770	0.313670	0.892340
C2321	C232	0.956770	0.382670	0.898140
C2331	C233	0.894360	0.393760	0.866920
C2341	C234	0.860590	0.468190	0.872980
C2351	C235	0.124010	0.774710	0.790820
C2361	C236	0.078820	0.722320	0.757640
C2371	C237	0.159700	0.668700	0.797200
C2381	C238	0.071080	0.580480	0.733160
C2391	C239	0.995420	0.567720	0.711640
C2401	C240	0.966550	0.496550	0.684900
C2411	C241	0.117100	0.522100	0.726800
C2421	C242	0.088570	0.451070	0.701340
C2431	C243	0.013590	0.440090	0.680980
C2441	C244	0.956960	0.346360	0.613920
C2451	C245	0.851980	0.253080	0.412160
C2461	C246	0.888450	0.299450	0.452300
C2471	C247	0.849020	0.196720	0.456640
C2481	C248	0.907560	0.292060	0.525920
C2491	C249	0.876750	0.259850	0.550300
C2501	C250	0.901720	0.285820	0.594040
C2511	C251	0.963440	0.351740	0.545680
C2521	C252	0.986510	0.378810	0.589220
C2531	C253	0.350270	0.664870	0.847940
C2541	C254	0.395300	0.599000	0.855200
C2551	C255	0.425540	0.557340	0.823880
C2561	C256	0.464270	0.495870	0.830140
C2571	C257	0.403570	0.578670	0.892340
C2581	C258	0.441370	0.515470	0.898140
C2591	C259	0.472560	0.473160	0.866920
C2601	C260	0.512390	0.404790	0.872980
C2611	C261	0.774710	0.166810	0.290820
C2621	C262	0.722320	0.178820	0.257640
C2631	C263	0.668700	0.137500	0.297200
C2641	C264	0.580480	0.162080	0.233160
C2651	C265	0.567720	0.216220	0.211640
C2661	C266	0.496550	0.218350	0.184900
C2671	C267	0.522100	0.109700	0.226800
C2681	C268	0.451070	0.112770	0.201340
C2691	C269	0.440090	0.167390	0.180980
C2701	C270	0.346360	0.156960	0.113920
C2711	C271	0.253080	0.060180	0.912160
C2721	C272	0.299450	0.063850	0.952300
C2731	C273	0.196720	0.107620	0.956640
C2741	C274	0.292060	0.118360	0.025920
C2751	C275	0.259850	0.173550	0.050300
C2761	C276	0.285820	0.192320	0.094040
C2771	C277	0.351740	0.082240	0.045680
C2781	C278	0.378810	0.102710	0.089220
C2791	C279	0.664870	0.997670	0.347940
C2801	C280	0.599000	0.959900	0.355200
C2811	C281	0.557340	0.898340	0.323880
C2821	C282	0.495870	0.865870	0.330140
C2831	C283	0.578670	0.988770	0.392340
C2841	C284	0.515470	0.956770	0.398140
C2851	C285	0.473160	0.894360	0.366920
C2861	C286	0.404790	0.860590	0.372980
C2871	C287	0.016110	0.124010	0.290820
C2881	C288	0.035320	0.078820	0.257640
C2891	C289	0.128500	0.159700	0.297200
C2901	C290	0.152680	0.071080	0.233160
C2911	C291	0.143920	0.995420	0.211640
C2921	C292	0.188350	0.966550	0.184900
C2931	C293	0.204700	0.117100	0.226800
C2941	C294	0.250270	0.088570	0.201340
C2951	C295	0.240890	0.013590	0.180980
C2961	C296	0.267560	0.956960	0.113920
C2971	C297	0.159080	0.851980	0.912160
C2981	C298	0.152850	0.888450	0.952300
C2991	C299	0.259920	0.849020	0.956640
C3001	C300	0.233860	0.907560	0.025920
C3011	C301	0.290450	0.876750	0.050300
C3021	C302	0.308220	0.901720	0.094040
C3031	C303	0.193940	0.963440	0.045680
C3041	C304	0.210410	0.986510	0.089220
C3051	C305	0.183070	0.350270	0.347940
C3061	C306	0.256200	0.395300	0.355200
C3071	C307	0.266540	0.425540	0.323880
C3081	C308	0.334270	0.464270	0.330140
C3091	C309	0.313670	0.403570	0.392340
C3101	C310	0.382670	0.441370	0.398140
C3111	C311	0.393760	0.472560	0.366920
C3121	C312	0.468190	0.512390	0.372980
C3131	C313	0.624010	0.516110	0.790820
C3141	C314	0.578820	0.535320	0.757640
C3151	C315	0.659700	0.628500	0.797200
C3161	C316	0.571080	0.652680	0.733160
C3171	C317	0.495420	0.643920	0.711640
C3181	C318	0.466550	0.688350	0.684900
C3191	C319	0.617100	0.704700	0.726800
C3201	C320	0.588570	0.750270	0.701340
C3211	C321	0.513590	0.740890	0.680980
C3221	C322	0.456960	0.767560	0.613920
C3231	C323	0.351980	0.659080	0.412160
C3241	C324	0.388450	0.652850	0.452300
C3251	C325	0.349020	0.759920	0.456640
C3261	C326	0.407560	0.733860	0.525920
C3271	C327	0.376750	0.790450	0.550300
C3281	C328	0.401720	0.808220	0.594040
C3291	C329	0.463440	0.693940	0.545680
C3301	C330	0.486510	0.710410	0.589220
C3311	C331	0.850270	0.683070	0.847940
C3321	C332	0.895300	0.756200	0.855200
C3331	C333	0.925540	0.766540	0.823880
C3341	C334	0.964270	0.834270	0.830140
C3351	C335	0.903570	0.813670	0.892340
C3361	C336	0.941370	0.882670	0.898140
C3371	C337	0.972560	0.893760	0.866920
C3381	C338	0.012390	0.968190	0.872980
C3391	C339	0.666810	0.274710	0.790820
C3401	C340	0.678820	0.222320	0.757640
C3411	C341	0.637500	0.168700	0.797200
C3421	C342	0.662080	0.080480	0.733160
C3431	C343	0.716220	0.067720	0.711640
C3441	C344	0.718350	0.996550	0.684900
C3451	C345	0.609700	0.022100	0.726800
C3461	C346	0.612770	0.951070	0.701340
C3471	C347	0.667390	0.940090	0.680980
C3481	C348	0.656960	0.846360	0.613920
C3491	C349	0.560180	0.753080	0.412160
C3501	C350	0.563850	0.799450	0.452300
C3511	C351	0.607620	0.696720	0.456640
C3521	C352	0.618360	0.792060	0.525920
C3531	C353	0.673550	0.759850	0.550300
C3541	C354	0.692320	0.785820	0.594040
C3551	C355	0.582240	0.851740	0.545680
C3561	C356	0.602710	0.878810	0.589220
C3571	C357	0.497670	0.164870	0.847940
C3581	C358	0.459900	0.099000	0.855200
C3591	C359	0.398340	0.057340	0.823880
C3601	C360	0.365870	0.995870	0.830140
C3611	C361	0.488770	0.078670	0.892340
C3621	C362	0.456770	0.015470	0.898140
C3631	C363	0.394360	0.973160	0.866920
C3641	C364	0.360590	0.904790	0.872980
C3651	C365	0.516110	0.666810	0.290820
C3661	C366	0.535320	0.678820	0.257640
C3671	C367	0.628500	0.637500	0.297200
C3681	C368	0.652680	0.662080	0.233160
C3691	C369	0.643920	0.716220	0.211640
C3701	C370	0.688350	0.718350	0.184900
C3711	C371	0.704700	0.609700	0.226800
C3721	C372	0.750270	0.612770	0.201340
C3731	C373	0.740890	0.667390	0.180980
C3741	C374	0.767560	0.656960	0.113920
C3751	C375	0.659080	0.560180	0.912160
C3761	C376	0.652850	0.563850	0.952300
C3771	C377	0.759920	0.607620	0.956640
C3781	C378	0.733860	0.618360	0.025920
C3791	C379	0.790450	0.673550	0.050300
C3801	C380	0.808220	0.692320	0.094040
C3811	C381	0.693940	0.582240	0.045680
C3821	C382	0.710410	0.602710	0.089220
C3831	C383	0.683070	0.497670	0.347940
C3841	C384	0.756200	0.459900	0.355200
C3851	C385	0.766540	0.398340	0.323880
C3861	C386	0.834270	0.365870	0.330140
C3871	C387	0.813670	0.488770	0.392340
C3881	C388	0.882670	0.456770	0.398140
C3891	C389	0.893760	0.394360	0.366920
C3901	C390	0.968190	0.360590	0.372980
C3911	C391	0.274710	0.624010	0.290820
C3921	C392	0.222320	0.578820	0.257640
C3931	C393	0.168700	0.659700	0.297200
C3941	C394	0.080480	0.571080	0.233160
C3951	C395	0.067720	0.495420	0.211640
C3961	C396	0.996550	0.466550	0.184900
C3971	C397	0.022100	0.617100	0.226800
C3981	C398	0.951070	0.588570	0.201340
C3991	C399	0.940090	0.513590	0.180980
C4001	C400	0.846360	0.456960	0.113920
C4011	C401	0.753080	0.351980	0.912160
C4021	C402	0.799450	0.388450	0.952300
C4031	C403	0.696720	0.349020	0.956640
C4041	C404	0.792060	0.407560	0.025920
C4051	C405	0.759850	0.376750	0.050300
C4061	C406	0.785820	0.401720	0.094040
C4071	C407	0.851740	0.463440	0.045680
C4081	C408	0.878810	0.486510	0.089220
C4091	C409	0.164870	0.850270	0.347940
C4101	C410	0.099000	0.895300	0.355200
C4111	C411	0.057340	0.925540	0.323880
C4121	C412	0.995870	0.964270	0.330140
C4131	C413	0.078670	0.903570	0.392340
C4141	C414	0.015470	0.941370	0.398140
C4151	C415	0.973160	0.972560	0.366920
C4161	C416	0.904790	0.012390	0.372980
N331	N33	0.139620	0.074720	0.815640
N341	N34	0.160710	0.107810	0.761820
N351	N35	0.084430	0.228130	0.415260
N361	N36	0.097050	0.218050	0.480500
N371	N37	0.176020	0.740920	0.815640
N381	N38	0.101110	0.654010	0.761820
N391	N39	0.830830	0.187130	0.415260
N401	N40	0.883450	0.262450	0.480500
N411	N41	0.740920	0.139620	0.315640
N421	N42	0.654010	0.160710	0.261820
N431	N43	0.187130	0.084430	0.915260
N441	N44	0.262450	0.097050	0.980500
N451	N45	0.074720	0.176020	0.315640
N461	N46	0.107810	0.101110	0.261820
N471	N47	0.228130	0.830830	0.915260
N481	N48	0.218050	0.883450	0.980500
N491	N49	0.676020	0.574720	0.815640
N501	N50	0.601110	0.607810	0.761820
N511	N51	0.330830	0.728130	0.415260
N521	N52	0.383450	0.718050	0.480500
N531	N53	0.639620	0.240920	0.815640
N541	N54	0.660710	0.154010	0.761820
N551	N55	0.584430	0.687130	0.415260
N561	N56	0.597050	0.762450	0.480500
N571	N57	0.574720	0.639620	0.315640
N581	N58	0.607810	0.660710	0.261820
N591	N59	0.728130	0.584430	0.915260
N601	N60	0.718050	0.597050	0.980500
N611	N61	0.240920	0.676020	0.315640
N621	N62	0.154010	0.601110	0.261820
N631	N63	0.687130	0.330830	0.915260
N641	N64	0.762450	0.383450	0.980500
O411	O41	0.050990	0.174590	0.878780
O421	O42	0.976910	0.136410	0.811620
O431	O43	0.889150	0.522850	0.904300
O441	O44	0.799660	0.472860	0.844920
O451	O45	0.177190	0.291690	0.658380
O461	O46	0.327790	0.704190	0.878780
O471	O47	0.334710	0.675210	0.811620
O481	O48	0.515150	0.381450	0.904300
O491	O49	0.545260	0.372060	0.844920
O501	O50	0.981190	0.366690	0.658380
O511	O51	0.704190	0.050990	0.378780
O521	O52	0.675210	0.976910	0.311620
O531	O53	0.381450	0.889150	0.404300
O541	O54	0.372060	0.799660	0.344920
O551	O55	0.366690	0.177190	0.158380
O561	O56	0.174590	0.327790	0.378780
O571	O57	0.136410	0.334710	0.311620
O581	O58	0.522850	0.515150	0.404300
O591	O59	0.472860	0.545260	0.344920
O601	O60	0.291690	0.981190	0.158380
O611	O61	0.827790	0.674590	0.878780
O621	O62	0.834710	0.636410	0.811620
O631	O63	0.015150	0.022850	0.904300
O641	O64	0.045260	0.972860	0.844920
O651	O65	0.481190	0.791690	0.658380
O661	O66	0.550990	0.204190	0.878780
O671	O67	0.476910	0.175210	0.811620
O681	O68	0.389150	0.881450	0.904300
O691	O69	0.299660	0.872060	0.844920
O701	O70	0.677190	0.866690	0.658380
O711	O71	0.674590	0.550990	0.378780
O721	O72	0.636410	0.476910	0.311620
O731	O73	0.022850	0.389150	0.404300
O741	O74	0.972860	0.299660	0.344920
O751	O75	0.791690	0.677190	0.158380
O761	O76	0.204190	0.827790	0.378780
O771	O77	0.175210	0.834710	0.311620
O781	O78	0.881450	0.015150	0.404300
O791	O79	0.872060	0.045260	0.344920
O801	O80	0.866690	0.481190	0.158380
