data_OKIVIO_charged_PM
_symmetry_space_group_name_H-M	'P1'
_cell_length_a	15.831800
_cell_length_b	15.831800
_cell_length_c	21.957000
_cell_angle_alpha	90.000000
_cell_angle_beta	90.000000
_cell_angle_gamma	90.000000
_symmetry_Int_Tables_number 1

loop_
_symmetry_equiv_pos_as_xyz
'x,y,z'

loop_
_atom_site_label
_atom_site_type_symbol
_atom_site_fract_x
_atom_site_fract_y
_atom_site_fract_z
Cd11	Cd1	0.942590	0.057410	0.750000
Cd21	Cd2	0.057410	0.942590	0.250000
Cd31	Cd3	0.442590	0.442590	0.500000
Cd41	Cd4	0.557410	0.557410	0.000000
H11	H1	0.465000	0.388500	0.649700
H21	H2	0.417800	0.285500	0.712600
H31	H3	0.216800	0.258800	0.604300
H41	H4	0.273500	0.360300	0.542000
H51	H5	0.347100	0.204200	0.779700
H61	H6	0.295700	0.091900	0.833300
H71	H7	0.198300	0.001600	0.792700
H81	H8	0.205600	0.134900	0.636600
H91	H9	0.958000	0.882200	0.539900
H101	H10	0.938000	0.771100	0.472700
H111	H11	0.040300	0.669600	0.460900
H121	H12	0.173900	0.776400	0.594900
H131	H13	0.155700	0.605100	0.437100
H141	H14	0.266500	0.511900	0.427600
H151	H15	0.337300	0.556400	0.593600
H161	H16	0.232500	0.650500	0.607700
H171	H17	0.257500	0.976700	0.609000
H181	H18	0.260600	0.900400	0.645700
H191	H19	0.535000	0.611500	0.149700
H201	H20	0.582200	0.714500	0.212600
H211	H21	0.783200	0.741200	0.104300
H221	H22	0.726500	0.639700	0.042000
H231	H23	0.652900	0.795800	0.279700
H241	H24	0.704300	0.908100	0.333300
H251	H25	0.801700	0.998400	0.292700
H261	H26	0.794400	0.865100	0.136600
H271	H27	0.042000	0.117800	0.039900
H281	H28	0.062000	0.228900	0.972700
H291	H29	0.959700	0.330400	0.960900
H301	H30	0.826100	0.223600	0.094900
H311	H31	0.844300	0.394900	0.937100
H321	H32	0.733500	0.488100	0.927600
H331	H33	0.662700	0.443600	0.093600
H341	H34	0.767500	0.349500	0.107700
H351	H35	0.742500	0.023300	0.109000
H361	H36	0.739400	0.099600	0.145700
H371	H37	0.111500	0.965000	0.399700
H381	H38	0.214500	0.917800	0.462600
H391	H39	0.241200	0.716800	0.354300
H401	H40	0.139700	0.773500	0.292000
H411	H41	0.295800	0.847100	0.529700
H421	H42	0.408100	0.795700	0.583300
H431	H43	0.498400	0.698300	0.542700
H441	H44	0.365100	0.705600	0.386600
H451	H45	0.617800	0.458000	0.289900
H461	H46	0.728900	0.438000	0.222700
H471	H47	0.830400	0.540300	0.210900
H481	H48	0.723600	0.673900	0.344900
H491	H49	0.894900	0.655700	0.187100
H501	H50	0.988100	0.766500	0.177600
H511	H51	0.943600	0.837300	0.343600
H521	H52	0.849500	0.732500	0.357700
H531	H53	0.523300	0.757500	0.359000
H541	H54	0.599600	0.760600	0.395700
H551	H55	0.888500	0.035000	0.899700
H561	H56	0.785500	0.082200	0.962600
H571	H57	0.758800	0.283200	0.854300
H581	H58	0.860300	0.226500	0.792000
H591	H59	0.704200	0.152900	0.029700
H601	H60	0.591900	0.204300	0.083300
H611	H61	0.501600	0.301700	0.042700
H621	H62	0.634900	0.294400	0.886600
H631	H63	0.382200	0.542000	0.789900
H641	H64	0.271100	0.562000	0.722700
H651	H65	0.169600	0.459700	0.710900
H661	H66	0.276400	0.326100	0.844900
H671	H67	0.105100	0.344300	0.687100
H681	H68	0.011900	0.233500	0.677600
H691	H69	0.056400	0.162700	0.843600
H701	H70	0.150500	0.267500	0.857700
H711	H71	0.476700	0.242500	0.859000
H721	H72	0.400400	0.239400	0.895700
H731	H73	0.035000	0.888500	0.100300
H741	H74	0.082200	0.785500	0.037400
H751	H75	0.283200	0.758800	0.145700
H761	H76	0.226500	0.860300	0.208000
H771	H77	0.152900	0.704200	0.970300
H781	H78	0.204300	0.591900	0.916700
H791	H79	0.301700	0.501600	0.957300
H801	H80	0.294400	0.634900	0.113400
H811	H81	0.542000	0.382200	0.210100
H821	H82	0.562000	0.271100	0.277300
H831	H83	0.459700	0.169600	0.289100
H841	H84	0.326100	0.276400	0.155100
H851	H85	0.344300	0.105100	0.312900
H861	H86	0.233500	0.011900	0.322400
H871	H87	0.162700	0.056400	0.156400
H881	H88	0.267500	0.150500	0.142300
H891	H89	0.242500	0.476700	0.141000
H901	H90	0.239400	0.400400	0.104300
H911	H91	0.965000	0.111500	0.600300
H921	H92	0.917800	0.214500	0.537400
H931	H93	0.716800	0.241200	0.645700
H941	H94	0.773500	0.139700	0.708000
H951	H95	0.847100	0.295800	0.470300
H961	H96	0.795700	0.408100	0.416700
H971	H97	0.698300	0.498400	0.457300
H981	H98	0.705600	0.365100	0.613400
H991	H99	0.458000	0.617800	0.710100
H1001	H100	0.438000	0.728900	0.777300
H1011	H101	0.540300	0.830400	0.789100
H1021	H102	0.673900	0.723600	0.655100
H1031	H103	0.655700	0.894900	0.812900
H1041	H104	0.766500	0.988100	0.822400
H1051	H105	0.837300	0.943600	0.656400
H1061	H106	0.732500	0.849500	0.642300
H1071	H107	0.757500	0.523300	0.641000
H1081	H108	0.760600	0.599600	0.604300
H1091	H109	0.388500	0.465000	0.350300
H1101	H110	0.285500	0.417800	0.287400
H1111	H111	0.258800	0.216800	0.395700
H1121	H112	0.360300	0.273500	0.458000
H1131	H113	0.204200	0.347100	0.220300
H1141	H114	0.091900	0.295700	0.166700
H1151	H115	0.001600	0.198300	0.207300
H1161	H116	0.134900	0.205600	0.363400
H1171	H117	0.882200	0.958000	0.460100
H1181	H118	0.771100	0.938000	0.527300
H1191	H119	0.669600	0.040300	0.539100
H1201	H120	0.776400	0.173900	0.405100
H1211	H121	0.605100	0.155700	0.562900
H1221	H122	0.511900	0.266500	0.572400
H1231	H123	0.556400	0.337300	0.406400
H1241	H124	0.650500	0.232500	0.392300
H1251	H125	0.976700	0.257500	0.391000
H1261	H126	0.900400	0.260600	0.354300
H1271	H127	0.611500	0.535000	0.850300
H1281	H128	0.714500	0.582200	0.787400
H1291	H129	0.741200	0.783200	0.895700
H1301	H130	0.639700	0.726500	0.958000
H1311	H131	0.795800	0.652900	0.720300
H1321	H132	0.908100	0.704300	0.666700
H1331	H133	0.998400	0.801700	0.707300
H1341	H134	0.865100	0.794400	0.863400
H1351	H135	0.117800	0.042000	0.960100
H1361	H136	0.228900	0.062000	0.027300
H1371	H137	0.330400	0.959700	0.039100
H1381	H138	0.223600	0.826100	0.905100
H1391	H139	0.394900	0.844300	0.062900
H1401	H140	0.488100	0.733500	0.072400
H1411	H141	0.443600	0.662700	0.906400
H1421	H142	0.349500	0.767500	0.892300
H1431	H143	0.023300	0.742500	0.891000
H1441	H144	0.099600	0.739400	0.854300
C11	C1	0.416200	0.359300	0.639000
C21	C2	0.387600	0.298200	0.677400
C31	C3	0.312900	0.254200	0.664500
C41	C4	0.269400	0.281800	0.613500
C51	C5	0.303700	0.343500	0.576200
C61	C6	0.281400	0.182600	0.702000
C71	C7	0.308000	0.168200	0.761700
C81	C8	0.276700	0.100900	0.793700
C91	C9	0.218700	0.046700	0.769800
C101	C10	0.190000	0.060300	0.709600
C111	C11	0.222900	0.127000	0.676700
C121	C12	0.127800	0.004000	0.680700
C131	C13	0.076700	0.908800	0.617900
C141	C14	0.069200	0.840000	0.574500
C151	C15	0.997700	0.839100	0.537300
C161	C16	0.986600	0.773200	0.496400
C171	C17	0.046500	0.711200	0.490400
C181	C18	0.115600	0.710700	0.528300
C191	C19	0.126500	0.776200	0.569800
C201	C20	0.182800	0.643000	0.522700
C211	C21	0.193000	0.597600	0.469300
C221	C22	0.259800	0.540500	0.464300
C231	C23	0.300900	0.567100	0.561200
C241	C24	0.238400	0.624100	0.570100
C251	C25	0.583800	0.640700	0.139000
C261	C26	0.612400	0.701800	0.177400
C271	C27	0.687100	0.745800	0.164500
C281	C28	0.730600	0.718200	0.113500
C291	C29	0.696300	0.656500	0.076200
C301	C30	0.718600	0.817400	0.202000
C311	C31	0.692000	0.831800	0.261700
C321	C32	0.723300	0.899100	0.293700
C331	C33	0.781300	0.953300	0.269800
C341	C34	0.810000	0.939700	0.209600
C351	C35	0.777100	0.873000	0.176700
C361	C36	0.872200	0.996000	0.180700
C371	C37	0.923300	0.091200	0.117900
C381	C38	0.930800	0.160000	0.074500
C391	C39	0.002300	0.160900	0.037300
C401	C40	0.013400	0.226800	0.996400
C411	C41	0.953500	0.288800	0.990400
C421	C42	0.884400	0.289300	0.028300
C431	C43	0.873500	0.223800	0.069800
C441	C44	0.817200	0.357000	0.022700
C451	C45	0.807000	0.402400	0.969300
C461	C46	0.740200	0.459500	0.964300
C471	C47	0.699100	0.432900	0.061200
C481	C48	0.761600	0.375900	0.070100
C491	C49	0.140700	0.916200	0.389000
C501	C50	0.201800	0.887600	0.427400
C511	C51	0.245800	0.812900	0.414500
C521	C52	0.218200	0.769400	0.363500
C531	C53	0.156500	0.803700	0.326200
C541	C54	0.317400	0.781400	0.452000
C551	C55	0.331800	0.808000	0.511700
C561	C56	0.399100	0.776700	0.543700
C571	C57	0.453300	0.718700	0.519800
C581	C58	0.439700	0.690000	0.459600
C591	C59	0.373000	0.722900	0.426700
C601	C60	0.496000	0.627800	0.430700
C611	C61	0.591200	0.576700	0.367900
C621	C62	0.660000	0.569200	0.324500
C631	C63	0.660900	0.497700	0.287300
C641	C64	0.726800	0.486600	0.246400
C651	C65	0.788800	0.546500	0.240400
C661	C66	0.789300	0.615600	0.278300
C671	C67	0.723800	0.626500	0.319800
C681	C68	0.857000	0.682800	0.272700
C691	C69	0.902400	0.693000	0.219300
C701	C70	0.959500	0.759800	0.214300
C711	C71	0.932900	0.800900	0.311200
C721	C72	0.875900	0.738400	0.320100
C731	C73	0.859300	0.083800	0.889000
C741	C74	0.798200	0.112400	0.927400
C751	C75	0.754200	0.187100	0.914500
C761	C76	0.781800	0.230600	0.863500
C771	C77	0.843500	0.196300	0.826200
C781	C78	0.682600	0.218600	0.952000
C791	C79	0.668200	0.192000	0.011700
C801	C80	0.600900	0.223300	0.043700
C811	C81	0.546700	0.281300	0.019800
C821	C82	0.560300	0.310000	0.959600
C831	C83	0.627000	0.277100	0.926700
C841	C84	0.504000	0.372200	0.930700
C851	C85	0.408800	0.423300	0.867900
C861	C86	0.340000	0.430800	0.824500
C871	C87	0.339100	0.502300	0.787300
C881	C88	0.273200	0.513400	0.746400
C891	C89	0.211200	0.453500	0.740400
C901	C90	0.210700	0.384400	0.778300
C911	C91	0.276200	0.373500	0.819800
C921	C92	0.143000	0.317200	0.772700
C931	C93	0.097600	0.307000	0.719300
C941	C94	0.040500	0.240200	0.714300
C951	C95	0.067100	0.199100	0.811200
C961	C96	0.124100	0.261600	0.820100
C971	C97	0.083800	0.859300	0.111000
C981	C98	0.112400	0.798200	0.072600
C991	C99	0.187100	0.754200	0.085500
C1001	C100	0.230600	0.781800	0.136500
C1011	C101	0.196300	0.843500	0.173800
C1021	C102	0.218600	0.682600	0.048000
C1031	C103	0.192000	0.668200	0.988300
C1041	C104	0.223300	0.600900	0.956300
C1051	C105	0.281300	0.546700	0.980200
C1061	C106	0.310000	0.560300	0.040400
C1071	C107	0.277100	0.627000	0.073300
C1081	C108	0.372200	0.504000	0.069300
C1091	C109	0.423300	0.408800	0.132100
C1101	C110	0.430800	0.340000	0.175500
C1111	C111	0.502300	0.339100	0.212700
C1121	C112	0.513400	0.273200	0.253600
C1131	C113	0.453500	0.211200	0.259600
C1141	C114	0.384400	0.210700	0.221700
C1151	C115	0.373500	0.276200	0.180200
C1161	C116	0.317200	0.143000	0.227300
C1171	C117	0.307000	0.097600	0.280700
C1181	C118	0.240200	0.040500	0.285700
C1191	C119	0.199100	0.067100	0.188800
C1201	C120	0.261600	0.124100	0.179900
C1211	C121	0.916200	0.140700	0.611000
C1221	C122	0.887600	0.201800	0.572600
C1231	C123	0.812900	0.245800	0.585500
C1241	C124	0.769400	0.218200	0.636500
C1251	C125	0.803700	0.156500	0.673800
C1261	C126	0.781400	0.317400	0.548000
C1271	C127	0.808000	0.331800	0.488300
C1281	C128	0.776700	0.399100	0.456300
C1291	C129	0.718700	0.453300	0.480200
C1301	C130	0.690000	0.439700	0.540400
C1311	C131	0.722900	0.373000	0.573300
C1321	C132	0.627800	0.496000	0.569300
C1331	C133	0.576700	0.591200	0.632100
C1341	C134	0.569200	0.660000	0.675500
C1351	C135	0.497700	0.660900	0.712700
C1361	C136	0.486600	0.726800	0.753600
C1371	C137	0.546500	0.788800	0.759600
C1381	C138	0.615600	0.789300	0.721700
C1391	C139	0.626500	0.723800	0.680200
C1401	C140	0.682800	0.857000	0.727300
C1411	C141	0.693000	0.902400	0.780700
C1421	C142	0.759800	0.959500	0.785700
C1431	C143	0.800900	0.932900	0.688800
C1441	C144	0.738400	0.875900	0.679900
C1451	C145	0.359300	0.416200	0.361000
C1461	C146	0.298200	0.387600	0.322600
C1471	C147	0.254200	0.312900	0.335500
C1481	C148	0.281800	0.269400	0.386500
C1491	C149	0.343500	0.303700	0.423800
C1501	C150	0.182600	0.281400	0.298000
C1511	C151	0.168200	0.308000	0.238300
C1521	C152	0.100900	0.276700	0.206300
C1531	C153	0.046700	0.218700	0.230200
C1541	C154	0.060300	0.190000	0.290400
C1551	C155	0.127000	0.222900	0.323300
C1561	C156	0.004000	0.127800	0.319300
C1571	C157	0.908800	0.076700	0.382100
C1581	C158	0.840000	0.069200	0.425500
C1591	C159	0.839100	0.997700	0.462700
C1601	C160	0.773200	0.986600	0.503600
C1611	C161	0.711200	0.046500	0.509600
C1621	C162	0.710700	0.115600	0.471700
C1631	C163	0.776200	0.126500	0.430200
C1641	C164	0.643000	0.182800	0.477300
C1651	C165	0.597600	0.193000	0.530700
C1661	C166	0.540500	0.259800	0.535700
C1671	C167	0.567100	0.300900	0.438800
C1681	C168	0.624100	0.238400	0.429900
C1691	C169	0.640700	0.583800	0.861000
C1701	C170	0.701800	0.612400	0.822600
C1711	C171	0.745800	0.687100	0.835500
C1721	C172	0.718200	0.730600	0.886500
C1731	C173	0.656500	0.696300	0.923800
C1741	C174	0.817400	0.718600	0.798000
C1751	C175	0.831800	0.692000	0.738300
C1761	C176	0.899100	0.723300	0.706300
C1771	C177	0.953300	0.781300	0.730200
C1781	C178	0.939700	0.810000	0.790400
C1791	C179	0.873000	0.777100	0.823300
C1801	C180	0.996000	0.872200	0.819300
C1811	C181	0.091200	0.923300	0.882100
C1821	C182	0.160000	0.930800	0.925500
C1831	C183	0.160900	0.002300	0.962700
C1841	C184	0.226800	0.013400	0.003600
C1851	C185	0.288800	0.953500	0.009600
C1861	C186	0.289300	0.884400	0.971700
C1871	C187	0.223800	0.873500	0.930200
C1881	C188	0.357000	0.817200	0.977300
C1891	C189	0.402400	0.807000	0.030700
C1901	C190	0.459500	0.740200	0.035700
C1911	C191	0.432900	0.699100	0.938800
C1921	C192	0.375900	0.761600	0.929900
N11	N1	0.378100	0.379600	0.587100
N21	N2	0.046700	0.005600	0.685400
N31	N3	0.013700	0.944800	0.645700
N41	N4	0.150400	0.944700	0.638900
N51	N5	0.231700	0.928100	0.617300
N61	N6	0.314300	0.524600	0.508900
N71	N7	0.621900	0.620400	0.087100
N81	N8	0.953300	0.994400	0.185400
N91	N9	0.986300	0.055200	0.145700
N101	N10	0.849600	0.055300	0.138900
N111	N11	0.768300	0.071900	0.117300
N121	N12	0.685700	0.475400	0.008900
N131	N13	0.120400	0.878100	0.337100
N141	N14	0.494400	0.546700	0.435400
N151	N15	0.555200	0.513700	0.395700
N161	N16	0.555300	0.650400	0.388900
N171	N17	0.571900	0.731700	0.367300
N181	N18	0.975400	0.814300	0.258900
N191	N19	0.879600	0.121900	0.837100
N201	N20	0.505600	0.453300	0.935400
N211	N21	0.444800	0.486300	0.895700
N221	N22	0.444700	0.349600	0.888900
N231	N23	0.428100	0.268300	0.867300
N241	N24	0.024600	0.185700	0.758900
N251	N25	0.121900	0.879600	0.162900
N261	N26	0.453300	0.505600	0.064600
N271	N27	0.486300	0.444800	0.104300
N281	N28	0.349600	0.444700	0.111100
N291	N29	0.268300	0.428100	0.132700
N301	N30	0.185700	0.024600	0.241100
N311	N31	0.878100	0.120400	0.662900
N321	N32	0.546700	0.494400	0.564600
N331	N33	0.513700	0.555200	0.604300
N341	N34	0.650400	0.555300	0.611100
N351	N35	0.731700	0.571900	0.632700
N361	N36	0.814300	0.975400	0.741100
N371	N37	0.379600	0.378100	0.412900
N381	N38	0.005600	0.046700	0.314600
N391	N39	0.944800	0.013700	0.354300
N401	N40	0.944700	0.150400	0.361100
N411	N41	0.928100	0.231700	0.382700
N421	N42	0.524600	0.314300	0.491100
N431	N43	0.620400	0.621900	0.912900
N441	N44	0.994400	0.953300	0.814600
N451	N45	0.055200	0.986300	0.854300
N461	N46	0.055300	0.849600	0.861100
N471	N47	0.071900	0.768300	0.882700
N481	N48	0.475400	0.685700	0.991100
Cl11	Cl1	0.879480	0.879480	0.000000
O11	O1	0.823800	0.886000	0.954800
O21	O2	0.945400	0.865500	0.968000
O31	O3	0.886000	0.823800	0.045200
O41	O4	0.865500	0.945400	0.032000
Cl21	Cl2	0.269300	0.269300	0.000000
O51	O5	0.229400	0.246400	0.951300
O61	O6	0.213800	0.330000	0.016000
O71	O7	0.246400	0.229400	0.048700
O81	O8	0.330000	0.213800	0.984000
Cl31	Cl3	0.120520	0.120520	0.500000
O91	O9	0.176200	0.114000	0.454800
O101	O10	0.054600	0.134500	0.468000
O111	O11	0.114000	0.176200	0.545200
O121	O12	0.134500	0.054600	0.532000
Cl41	Cl4	0.730700	0.730700	0.500000
O131	O13	0.770600	0.753600	0.451300
O141	O14	0.786200	0.670000	0.516000
O151	O15	0.753600	0.770600	0.548700
O161	O16	0.670000	0.786200	0.484000
Cl51	Cl5	0.620520	0.379480	0.750000
O171	O17	0.614000	0.323800	0.704800
O181	O18	0.634500	0.445400	0.718000
O191	O19	0.676200	0.386000	0.795200
O201	O20	0.554600	0.365500	0.782000
Cl61	Cl6	0.230700	0.769300	0.750000
O211	O21	0.253600	0.729400	0.701300
O221	O22	0.170000	0.713800	0.766000
O231	O23	0.270600	0.746400	0.798700
O241	O24	0.286200	0.830000	0.734000
Cl71	Cl7	0.379480	0.620520	0.250000
O251	O25	0.386000	0.676200	0.204800
O261	O26	0.365500	0.554600	0.218000
O271	O27	0.323800	0.614000	0.295200
O281	O28	0.445400	0.634500	0.282000
Cl81	Cl8	0.769300	0.230700	0.250000
O291	O29	0.746400	0.270600	0.201300
O301	O30	0.830000	0.286200	0.266000
O311	O31	0.729400	0.253600	0.298700
O321	O32	0.713800	0.170000	0.234000
