data_OKIWUB01_charged_PM
_symmetry_space_group_name_H-M	'P1'
_cell_length_a	15.863300
_cell_length_b	15.863300
_cell_length_c	21.760000
_cell_angle_alpha	90.000000
_cell_angle_beta	90.000000
_cell_angle_gamma	90.000000
_symmetry_Int_Tables_number 1

loop_
_symmetry_equiv_pos_as_xyz
'x,y,z'

loop_
_atom_site_label
_atom_site_type_symbol
_atom_site_fract_x
_atom_site_fract_y
_atom_site_fract_z
Cd11	Cd1	0.940960	0.059040	0.750000
Cd21	Cd2	0.059040	0.940960	0.250000
Cd31	Cd3	0.440960	0.440960	0.500000
Cd41	Cd4	0.559040	0.559040	0.000000
H11	H1	0.464600	0.386900	0.649300
H21	H2	0.415500	0.286000	0.716100
H31	H3	0.210900	0.262500	0.605900
H41	H4	0.269800	0.360400	0.540600
H51	H5	0.346800	0.204900	0.781100
H61	H6	0.295900	0.091100	0.836200
H71	H7	0.197700	0.998500	0.792700
H81	H8	0.197200	0.139300	0.637200
H91	H9	0.955800	0.881100	0.540200
H101	H10	0.934800	0.769600	0.473000
H111	H11	0.036600	0.665900	0.461800
H121	H12	0.175200	0.776900	0.595400
H131	H13	0.148700	0.601000	0.437500
H141	H14	0.258100	0.504100	0.427300
H151	H15	0.342600	0.559700	0.591800
H161	H16	0.234500	0.654400	0.607800
H171	H17	0.260200	0.898700	0.647000
H181	H18	0.257000	0.974900	0.607400
H191	H19	0.535400	0.613100	0.149300
H201	H20	0.584500	0.714000	0.216100
H211	H21	0.789100	0.737500	0.105900
H221	H22	0.730200	0.639600	0.040600
H231	H23	0.653200	0.795100	0.281100
H241	H24	0.704100	0.908900	0.336200
H251	H25	0.802300	0.001500	0.292700
H261	H26	0.802800	0.860700	0.137200
H271	H27	0.044200	0.118900	0.040200
H281	H28	0.065200	0.230400	0.973000
H291	H29	0.963400	0.334100	0.961800
H301	H30	0.824800	0.223100	0.095400
H311	H31	0.851300	0.399000	0.937500
H321	H32	0.741900	0.495900	0.927300
H331	H33	0.657400	0.440300	0.091800
H341	H34	0.765500	0.345600	0.107800
H351	H35	0.739800	0.101300	0.147000
H361	H36	0.743000	0.025100	0.107400
H371	H37	0.113100	0.964600	0.399300
H381	H38	0.214000	0.915500	0.466100
H391	H39	0.237500	0.710900	0.355900
H401	H40	0.139600	0.769800	0.290600
H411	H41	0.295100	0.846800	0.531100
H421	H42	0.408900	0.795900	0.586200
H431	H43	0.501500	0.697700	0.542700
H441	H44	0.360700	0.697200	0.387200
H451	H45	0.618900	0.455800	0.290200
H461	H46	0.730400	0.434800	0.223000
H471	H47	0.834100	0.536600	0.211800
H481	H48	0.723100	0.675200	0.345400
H491	H49	0.899000	0.648700	0.187500
H501	H50	0.995900	0.758100	0.177300
H511	H51	0.940300	0.842600	0.341800
H521	H52	0.845600	0.734500	0.357800
H531	H53	0.601300	0.760200	0.397000
H541	H54	0.525100	0.757000	0.357400
H551	H55	0.886900	0.035400	0.899300
H561	H56	0.786000	0.084500	0.966100
H571	H57	0.762500	0.289100	0.855900
H581	H58	0.860400	0.230200	0.790600
H591	H59	0.704900	0.153200	0.031100
H601	H60	0.591100	0.204100	0.086200
H611	H61	0.498500	0.302300	0.042700
H621	H62	0.639300	0.302800	0.887200
H631	H63	0.381100	0.544200	0.790200
H641	H64	0.269600	0.565200	0.723000
H651	H65	0.165900	0.463400	0.711800
H661	H66	0.276900	0.324800	0.845400
H671	H67	0.101000	0.351300	0.687500
H681	H68	0.004100	0.241900	0.677300
H691	H69	0.059700	0.157400	0.841800
H701	H70	0.154400	0.265500	0.857800
H711	H71	0.398700	0.239800	0.897000
H721	H72	0.474900	0.243000	0.857400
H731	H73	0.035400	0.886900	0.100700
H741	H74	0.084500	0.786000	0.033900
H751	H75	0.289100	0.762500	0.144100
H761	H76	0.230200	0.860400	0.209400
H771	H77	0.153200	0.704900	0.968900
H781	H78	0.204100	0.591100	0.913800
H791	H79	0.302300	0.498500	0.957300
H801	H80	0.302800	0.639300	0.112800
H811	H81	0.544200	0.381100	0.209800
H821	H82	0.565200	0.269600	0.277000
H831	H83	0.463400	0.165900	0.288200
H841	H84	0.324800	0.276900	0.154600
H851	H85	0.351300	0.101000	0.312500
H861	H86	0.241900	0.004100	0.322700
H871	H87	0.157400	0.059700	0.158200
H881	H88	0.265500	0.154400	0.142200
H891	H89	0.239800	0.398700	0.103000
H901	H90	0.243000	0.474900	0.142600
H911	H91	0.964600	0.113100	0.600700
H921	H92	0.915500	0.214000	0.533900
H931	H93	0.710900	0.237500	0.644100
H941	H94	0.769800	0.139600	0.709400
H951	H95	0.846800	0.295100	0.468900
H961	H96	0.795900	0.408900	0.413800
H971	H97	0.697700	0.501500	0.457300
H981	H98	0.697200	0.360700	0.612800
H991	H99	0.455800	0.618900	0.709800
H1001	H100	0.434800	0.730400	0.777000
H1011	H101	0.536600	0.834100	0.788200
H1021	H102	0.675200	0.723100	0.654600
H1031	H103	0.648700	0.899000	0.812500
H1041	H104	0.758100	0.995900	0.822700
H1051	H105	0.842600	0.940300	0.658200
H1061	H106	0.734500	0.845600	0.642200
H1071	H107	0.760200	0.601300	0.603000
H1081	H108	0.757000	0.525100	0.642600
H1091	H109	0.386900	0.464600	0.350700
H1101	H110	0.286000	0.415500	0.283900
H1111	H111	0.262500	0.210900	0.394100
H1121	H112	0.360400	0.269800	0.459400
H1131	H113	0.204900	0.346800	0.218900
H1141	H114	0.091100	0.295900	0.163800
H1151	H115	0.998500	0.197700	0.207300
H1161	H116	0.139300	0.197200	0.362800
H1171	H117	0.881100	0.955800	0.459800
H1181	H118	0.769600	0.934800	0.527000
H1191	H119	0.665900	0.036600	0.538200
H1201	H120	0.776900	0.175200	0.404600
H1211	H121	0.601000	0.148700	0.562500
H1221	H122	0.504100	0.258100	0.572700
H1231	H123	0.559700	0.342600	0.408200
H1241	H124	0.654400	0.234500	0.392200
H1251	H125	0.898700	0.260200	0.353000
H1261	H126	0.974900	0.257000	0.392600
H1271	H127	0.613100	0.535400	0.850700
H1281	H128	0.714000	0.584500	0.783900
H1291	H129	0.737500	0.789100	0.894100
H1301	H130	0.639600	0.730200	0.959400
H1311	H131	0.795100	0.653200	0.718900
H1321	H132	0.908900	0.704100	0.663800
H1331	H133	0.001500	0.802300	0.707300
H1341	H134	0.860700	0.802800	0.862800
H1351	H135	0.118900	0.044200	0.959800
H1361	H136	0.230400	0.065200	0.027000
H1371	H137	0.334100	0.963400	0.038200
H1381	H138	0.223100	0.824800	0.904600
H1391	H139	0.399000	0.851300	0.062500
H1401	H140	0.495900	0.741900	0.072700
H1411	H141	0.440300	0.657400	0.908200
H1421	H142	0.345600	0.765500	0.892200
H1431	H143	0.101300	0.739800	0.853000
H1441	H144	0.025100	0.743000	0.892600
C11	C1	0.413500	0.358700	0.639400
C21	C2	0.385000	0.298600	0.679700
C31	C3	0.309000	0.255800	0.665800
C41	C4	0.265400	0.284400	0.614600
C51	C5	0.300100	0.344100	0.576300
C61	C6	0.278500	0.184200	0.703300
C71	C7	0.306400	0.168400	0.762800
C81	C8	0.276300	0.100600	0.795600
C91	C9	0.217700	0.045600	0.770000
C101	C10	0.188900	0.060600	0.710600
C111	C11	0.218000	0.129200	0.677500
C121	C12	0.126600	0.005100	0.680100
C131	C13	0.075800	0.909400	0.618300
C141	C14	0.067600	0.839000	0.573900
C151	C15	0.996400	0.837200	0.537500
C161	C16	0.984600	0.771700	0.497300
C171	C17	0.043900	0.709100	0.491600
C181	C18	0.114800	0.708700	0.529400
C191	C19	0.126400	0.775300	0.570100
C201	C20	0.180700	0.641800	0.522900
C211	C21	0.188300	0.594200	0.469900
C221	C22	0.254200	0.536200	0.464000
C231	C23	0.302800	0.568300	0.559800
C241	C24	0.238900	0.625900	0.569600
C251	C25	0.586500	0.641300	0.139400
C261	C26	0.615000	0.701400	0.179700
C271	C27	0.691000	0.744200	0.165800
C281	C28	0.734600	0.715600	0.114600
C291	C29	0.699900	0.655900	0.076300
C301	C30	0.721500	0.815800	0.203300
C311	C31	0.693600	0.831600	0.262800
C321	C32	0.723700	0.899400	0.295600
C331	C33	0.782300	0.954400	0.270000
C341	C34	0.811100	0.939400	0.210600
C351	C35	0.782000	0.870800	0.177500
C361	C36	0.873400	0.994900	0.180100
C371	C37	0.924200	0.090600	0.118300
C381	C38	0.932400	0.161000	0.073900
C391	C39	0.003600	0.162800	0.037500
C401	C40	0.015400	0.228300	0.997300
C411	C41	0.956100	0.290900	0.991600
C421	C42	0.885200	0.291300	0.029400
C431	C43	0.873600	0.224700	0.070100
C441	C44	0.819300	0.358200	0.022900
C451	C45	0.811700	0.405800	0.969900
C461	C46	0.745800	0.463800	0.964000
C471	C47	0.697200	0.431700	0.059800
C481	C48	0.761100	0.374100	0.069600
C491	C49	0.141300	0.913500	0.389400
C501	C50	0.201400	0.885000	0.429700
C511	C51	0.244200	0.809000	0.415800
C521	C52	0.215600	0.765400	0.364600
C531	C53	0.155900	0.800100	0.326300
C541	C54	0.315800	0.778500	0.453300
C551	C55	0.331600	0.806400	0.512800
C561	C56	0.399400	0.776300	0.545600
C571	C57	0.454400	0.717700	0.520000
C581	C58	0.439400	0.688900	0.460600
C591	C59	0.370800	0.718000	0.427500
C601	C60	0.494900	0.626600	0.430100
C611	C61	0.590600	0.575800	0.368300
C621	C62	0.661000	0.567600	0.323900
C631	C63	0.662800	0.496400	0.287500
C641	C64	0.728300	0.484600	0.247300
C651	C65	0.790900	0.543900	0.241600
C661	C66	0.791300	0.614800	0.279400
C671	C67	0.724700	0.626400	0.320100
C681	C68	0.858200	0.680700	0.272900
C691	C69	0.905800	0.688300	0.219900
C701	C70	0.963800	0.754200	0.214000
C711	C71	0.931700	0.802800	0.309800
C721	C72	0.874100	0.738900	0.319600
C731	C73	0.858700	0.086500	0.889400
C741	C74	0.798600	0.115000	0.929700
C751	C75	0.755800	0.191000	0.915800
C761	C76	0.784400	0.234600	0.864600
C771	C77	0.844100	0.199900	0.826300
C781	C78	0.684200	0.221500	0.953300
C791	C79	0.668400	0.193600	0.012800
C801	C80	0.600600	0.223700	0.045600
C811	C81	0.545600	0.282300	0.020000
C821	C82	0.560600	0.311100	0.960600
C831	C83	0.629200	0.282000	0.927500
C841	C84	0.505100	0.373400	0.930100
C851	C85	0.409400	0.424200	0.868300
C861	C86	0.339000	0.432400	0.823900
C871	C87	0.337200	0.503600	0.787500
C881	C88	0.271700	0.515400	0.747300
C891	C89	0.209100	0.456100	0.741600
C901	C90	0.208700	0.385200	0.779400
C911	C91	0.275300	0.373600	0.820100
C921	C92	0.141800	0.319300	0.772900
C931	C93	0.094200	0.311700	0.719900
C941	C94	0.036200	0.245800	0.714000
C951	C95	0.068300	0.197200	0.809800
C961	C96	0.125900	0.261100	0.819600
C971	C97	0.086500	0.858700	0.110600
C981	C98	0.115000	0.798600	0.070300
C991	C99	0.191000	0.755800	0.084200
C1001	C100	0.234600	0.784400	0.135400
C1011	C101	0.199900	0.844100	0.173700
C1021	C102	0.221500	0.684200	0.046700
C1031	C103	0.193600	0.668400	0.987200
C1041	C104	0.223700	0.600600	0.954400
C1051	C105	0.282300	0.545600	0.980000
C1061	C106	0.311100	0.560600	0.039400
C1071	C107	0.282000	0.629200	0.072500
C1081	C108	0.373400	0.505100	0.069900
C1091	C109	0.424200	0.409400	0.131700
C1101	C110	0.432400	0.339000	0.176100
C1111	C111	0.503600	0.337200	0.212500
C1121	C112	0.515400	0.271700	0.252700
C1131	C113	0.456100	0.209100	0.258400
C1141	C114	0.385200	0.208700	0.220600
C1151	C115	0.373600	0.275300	0.179900
C1161	C116	0.319300	0.141800	0.227100
C1171	C117	0.311700	0.094200	0.280100
C1181	C118	0.245800	0.036200	0.286000
C1191	C119	0.197200	0.068300	0.190200
C1201	C120	0.261100	0.125900	0.180400
C1211	C121	0.913500	0.141300	0.610600
C1221	C122	0.885000	0.201400	0.570300
C1231	C123	0.809000	0.244200	0.584200
C1241	C124	0.765400	0.215600	0.635400
C1251	C125	0.800100	0.155900	0.673700
C1261	C126	0.778500	0.315800	0.546700
C1271	C127	0.806400	0.331600	0.487200
C1281	C128	0.776300	0.399400	0.454400
C1291	C129	0.717700	0.454400	0.480000
C1301	C130	0.688900	0.439400	0.539400
C1311	C131	0.718000	0.370800	0.572500
C1321	C132	0.626600	0.494900	0.569900
C1331	C133	0.575800	0.590600	0.631700
C1341	C134	0.567600	0.661000	0.676100
C1351	C135	0.496400	0.662800	0.712500
C1361	C136	0.484600	0.728300	0.752700
C1371	C137	0.543900	0.790900	0.758400
C1381	C138	0.614800	0.791300	0.720600
C1391	C139	0.626400	0.724700	0.679900
C1401	C140	0.680700	0.858200	0.727100
C1411	C141	0.688300	0.905800	0.780100
C1421	C142	0.754200	0.963800	0.786000
C1431	C143	0.802800	0.931700	0.690200
C1441	C144	0.738900	0.874100	0.680400
C1451	C145	0.358700	0.413500	0.360600
C1461	C146	0.298600	0.385000	0.320300
C1471	C147	0.255800	0.309000	0.334200
C1481	C148	0.284400	0.265400	0.385400
C1491	C149	0.344100	0.300100	0.423700
C1501	C150	0.184200	0.278500	0.296700
C1511	C151	0.168400	0.306400	0.237200
C1521	C152	0.100600	0.276300	0.204400
C1531	C153	0.045600	0.217700	0.230000
C1541	C154	0.060600	0.188900	0.289400
C1551	C155	0.129200	0.218000	0.322500
C1561	C156	0.005100	0.126600	0.319900
C1571	C157	0.909400	0.075800	0.381700
C1581	C158	0.839000	0.067600	0.426100
C1591	C159	0.837200	0.996400	0.462500
C1601	C160	0.771700	0.984600	0.502700
C1611	C161	0.709100	0.043900	0.508400
C1621	C162	0.708700	0.114800	0.470600
C1631	C163	0.775300	0.126400	0.429900
C1641	C164	0.641800	0.180700	0.477100
C1651	C165	0.594200	0.188300	0.530100
C1661	C166	0.536200	0.254200	0.536000
C1671	C167	0.568300	0.302800	0.440200
C1681	C168	0.625900	0.238900	0.430400
C1691	C169	0.641300	0.586500	0.860600
C1701	C170	0.701400	0.615000	0.820300
C1711	C171	0.744200	0.691000	0.834200
C1721	C172	0.715600	0.734600	0.885400
C1731	C173	0.655900	0.699900	0.923700
C1741	C174	0.815800	0.721500	0.796700
C1751	C175	0.831600	0.693600	0.737200
C1761	C176	0.899400	0.723700	0.704400
C1771	C177	0.954400	0.782300	0.730000
C1781	C178	0.939400	0.811100	0.789400
C1791	C179	0.870800	0.782000	0.822500
C1801	C180	0.994900	0.873400	0.819900
C1811	C181	0.090600	0.924200	0.881700
C1821	C182	0.161000	0.932400	0.926100
C1831	C183	0.162800	0.003600	0.962500
C1841	C184	0.228300	0.015400	0.002700
C1851	C185	0.290900	0.956100	0.008400
C1861	C186	0.291300	0.885200	0.970600
C1871	C187	0.224700	0.873600	0.929900
C1881	C188	0.358200	0.819300	0.977100
C1891	C189	0.405800	0.811700	0.030100
C1901	C190	0.463800	0.745800	0.036000
C1911	C191	0.431700	0.697200	0.940200
C1921	C192	0.374100	0.761100	0.930400
N11	N1	0.374900	0.380400	0.587290
N21	N2	0.044200	0.006500	0.683800
N31	N3	0.011900	0.945300	0.645570
N41	N4	0.149100	0.944400	0.639570
N51	N5	0.230400	0.926000	0.617300
N61	N6	0.312000	0.524100	0.508100
N71	N7	0.625100	0.619600	0.087290
N81	N8	0.955800	0.993500	0.183800
N91	N9	0.988100	0.054700	0.145570
N101	N10	0.850900	0.055600	0.139570
N111	N11	0.769600	0.074000	0.117300
N121	N12	0.688000	0.475900	0.008100
N131	N13	0.119600	0.874900	0.337290
N141	N14	0.493500	0.544200	0.433800
N151	N15	0.554700	0.511900	0.395570
N161	N16	0.555600	0.649100	0.389570
N171	N17	0.574000	0.730400	0.367300
N181	N18	0.975900	0.812000	0.258100
N191	N19	0.880400	0.125100	0.837290
N201	N20	0.506500	0.455800	0.933800
N211	N21	0.445300	0.488100	0.895570
N221	N22	0.444400	0.350900	0.889570
N231	N23	0.426000	0.269600	0.867300
N241	N24	0.024100	0.188000	0.758100
N251	N25	0.125100	0.880400	0.162710
N261	N26	0.455800	0.506500	0.066200
N271	N27	0.488100	0.445300	0.104430
N281	N28	0.350900	0.444400	0.110430
N291	N29	0.269600	0.426000	0.132700
N301	N30	0.188000	0.024100	0.241900
N311	N31	0.874900	0.119600	0.662710
N321	N32	0.544200	0.493500	0.566200
N331	N33	0.511900	0.554700	0.604430
N341	N34	0.649100	0.555600	0.610430
N351	N35	0.730400	0.574000	0.632700
N361	N36	0.812000	0.975900	0.741900
N371	N37	0.380400	0.374900	0.412710
N381	N38	0.006500	0.044200	0.316200
N391	N39	0.945300	0.011900	0.354430
N401	N40	0.944400	0.149100	0.360430
N411	N41	0.926000	0.230400	0.382700
N421	N42	0.524100	0.312000	0.491900
N431	N43	0.619600	0.625100	0.912710
N441	N44	0.993500	0.955800	0.816200
N451	N45	0.054700	0.988100	0.854430
N461	N46	0.055600	0.850900	0.860430
N471	N47	0.074000	0.769600	0.882700
N481	N48	0.475900	0.688000	0.991900
Cl11	Cl1	0.877390	0.877390	0.000000
O11	O1	0.812300	0.883700	0.964800
O21	O2	0.936500	0.873400	0.961100
O31	O3	0.883700	0.812300	0.035200
O41	O4	0.873400	0.936500	0.038900
Cl21	Cl2	0.122610	0.122610	0.500000
O51	O5	0.187700	0.116300	0.464800
O61	O6	0.063500	0.126600	0.461100
O71	O7	0.116300	0.187700	0.535200
O81	O8	0.126600	0.063500	0.538900
Cl31	Cl3	0.622610	0.377390	0.750000
O91	O9	0.616300	0.312300	0.714800
O101	O10	0.626600	0.436500	0.711100
O111	O11	0.687700	0.383700	0.785200
O121	O12	0.563500	0.373400	0.788900
Cl41	Cl4	0.377390	0.622610	0.250000
O131	O13	0.383700	0.687700	0.214800
O141	O14	0.373400	0.563500	0.211100
O151	O15	0.312300	0.616300	0.285200
O161	O16	0.436500	0.626600	0.288900
