data_OKIYIR_charged_PM
_symmetry_space_group_name_H-M	'P1'
_cell_length_a	15.850800
_cell_length_b	15.850800
_cell_length_c	21.766000
_cell_angle_alpha	90.000000
_cell_angle_beta	90.000000
_cell_angle_gamma	90.000000
_symmetry_Int_Tables_number 1

loop_
_symmetry_equiv_pos_as_xyz
'x,y,z'

loop_
_atom_site_label
_atom_site_type_symbol
_atom_site_fract_x
_atom_site_fract_y
_atom_site_fract_z
Cd11	Cd1	0.059690	0.940310	0.250000
Cd21	Cd2	0.940310	0.059690	0.750000
Cd31	Cd3	0.559690	0.559690	0.500000
Cd41	Cd4	0.440310	0.440310	0.000000
H11	H1	0.743300	0.495200	0.570700
H21	H2	0.853300	0.403500	0.558900
H31	H3	0.764100	0.345500	0.393300
H41	H4	0.657900	0.440600	0.408700
H51	H5	0.967000	0.336700	0.534200
H61	H6	0.067200	0.234100	0.523700
H71	H7	0.046100	0.120800	0.458600
H81	H8	0.826100	0.223900	0.404800
H91	H9	0.801700	0.002000	0.209100
H101	H10	0.705800	0.909300	0.164200
H111	H11	0.656000	0.794800	0.219400
H121	H12	0.804300	0.859300	0.360500
H131	H13	0.587400	0.714500	0.284800
H141	H14	0.536900	0.614000	0.350700
H151	H15	0.731700	0.639900	0.457200
H161	H16	0.790100	0.735700	0.393300
H171	H17	0.741600	0.026500	0.386600
H181	H18	0.743000	0.105800	0.353100
H191	H19	0.256700	0.504800	0.070700
H201	H20	0.146700	0.596500	0.058900
H211	H21	0.235900	0.654500	0.893300
H221	H22	0.342100	0.559400	0.908700
H231	H23	0.033000	0.663300	0.034200
H241	H24	0.932800	0.765900	0.023700
H251	H25	0.953900	0.879200	0.958600
H261	H26	0.173900	0.776100	0.904800
H271	H27	0.198300	0.998000	0.709100
H281	H28	0.294200	0.090700	0.664200
H291	H29	0.344000	0.205200	0.719400
H301	H30	0.195700	0.140700	0.860500
H311	H31	0.412600	0.285500	0.784800
H321	H32	0.463100	0.386000	0.850700
H331	H33	0.268300	0.360100	0.957200
H341	H34	0.209900	0.264300	0.893300
H351	H35	0.258400	0.973500	0.886600
H361	H36	0.257000	0.894200	0.853100
H371	H37	0.004800	0.243300	0.820700
H381	H38	0.096500	0.353300	0.808900
H391	H39	0.154500	0.264100	0.643300
H401	H40	0.059400	0.157900	0.658700
H411	H41	0.163300	0.467000	0.784200
H421	H42	0.265900	0.567200	0.773700
H431	H43	0.379200	0.546100	0.708600
H441	H44	0.276100	0.326100	0.654800
H451	H45	0.498000	0.301700	0.459100
H461	H46	0.590700	0.205800	0.414200
H471	H47	0.705200	0.156000	0.469400
H481	H48	0.640700	0.304300	0.610500
H491	H49	0.785500	0.087400	0.534800
H501	H50	0.886000	0.036900	0.600700
H511	H51	0.860100	0.231700	0.707200
H521	H52	0.764300	0.290100	0.643300
H531	H53	0.473500	0.241600	0.636600
H541	H54	0.394200	0.243000	0.603100
H551	H55	0.995200	0.756700	0.320700
H561	H56	0.903500	0.646700	0.308900
H571	H57	0.845500	0.735900	0.143300
H581	H58	0.940600	0.842100	0.158700
H591	H59	0.836700	0.533000	0.284200
H601	H60	0.734100	0.432800	0.273700
H611	H61	0.620800	0.453900	0.208600
H621	H62	0.723900	0.673900	0.154800
H631	H63	0.502000	0.698300	0.959100
H641	H64	0.409300	0.794200	0.914200
H651	H65	0.294800	0.844000	0.969400
H661	H66	0.359300	0.695700	0.110500
H671	H67	0.214500	0.912600	0.034800
H681	H68	0.114000	0.963100	0.100700
H691	H69	0.139900	0.768300	0.207200
H701	H70	0.235700	0.709900	0.143300
H711	H71	0.526500	0.758400	0.136600
H721	H72	0.605800	0.757000	0.103100
H731	H73	0.756700	0.995200	0.679300
H741	H74	0.646700	0.903500	0.691100
H751	H75	0.735900	0.845500	0.856700
H761	H76	0.842100	0.940600	0.841300
H771	H77	0.533000	0.836700	0.715800
H781	H78	0.432800	0.734100	0.726300
H791	H79	0.453900	0.620800	0.791400
H801	H80	0.673900	0.723900	0.845200
H811	H81	0.698300	0.502000	0.040900
H821	H82	0.794200	0.409300	0.085800
H831	H83	0.844000	0.294800	0.030600
H841	H84	0.695700	0.359300	0.889500
H851	H85	0.912600	0.214500	0.965200
H861	H86	0.963100	0.114000	0.899300
H871	H87	0.768300	0.139900	0.792800
H881	H88	0.709900	0.235700	0.856700
H891	H89	0.758400	0.526500	0.863400
H901	H90	0.757000	0.605800	0.896900
H911	H91	0.243300	0.004800	0.179300
H921	H92	0.353300	0.096500	0.191100
H931	H93	0.264100	0.154500	0.356700
H941	H94	0.157900	0.059400	0.341300
H951	H95	0.467000	0.163300	0.215800
H961	H96	0.567200	0.265900	0.226300
H971	H97	0.546100	0.379200	0.291400
H981	H98	0.326100	0.276100	0.345200
H991	H99	0.301700	0.498000	0.540900
H1001	H100	0.205800	0.590700	0.585800
H1011	H101	0.156000	0.705200	0.530600
H1021	H102	0.304300	0.640700	0.389500
H1031	H103	0.087400	0.785500	0.465200
H1041	H104	0.036900	0.886000	0.399300
H1051	H105	0.231700	0.860100	0.292800
H1061	H106	0.290100	0.764300	0.356700
H1071	H107	0.241600	0.473500	0.363400
H1081	H108	0.243000	0.394200	0.396900
H1091	H109	0.495200	0.743300	0.429300
H1101	H110	0.403500	0.853300	0.441100
H1111	H111	0.345500	0.764100	0.606700
H1121	H112	0.440600	0.657900	0.591300
H1131	H113	0.336700	0.967000	0.465800
H1141	H114	0.234100	0.067200	0.476300
H1151	H115	0.120800	0.046100	0.541400
H1161	H116	0.223900	0.826100	0.595200
H1171	H117	0.002000	0.801700	0.790900
H1181	H118	0.909300	0.705800	0.835800
H1191	H119	0.794800	0.656000	0.780600
H1201	H120	0.859300	0.804300	0.639500
H1211	H121	0.714500	0.587400	0.715200
H1221	H122	0.614000	0.536900	0.649300
H1231	H123	0.639900	0.731700	0.542800
H1241	H124	0.735700	0.790100	0.606700
H1251	H125	0.026500	0.741600	0.613400
H1261	H126	0.105800	0.743000	0.646900
H1271	H127	0.504800	0.256700	0.929300
H1281	H128	0.596500	0.146700	0.941100
H1291	H129	0.654500	0.235900	0.106700
H1301	H130	0.559400	0.342100	0.091300
H1311	H131	0.663300	0.033000	0.965800
H1321	H132	0.765900	0.932800	0.976300
H1331	H133	0.879200	0.953900	0.041400
H1341	H134	0.776100	0.173900	0.095200
H1351	H135	0.998000	0.198300	0.290900
H1361	H136	0.090700	0.294200	0.335800
H1371	H137	0.205200	0.344000	0.280600
H1381	H138	0.140700	0.195700	0.139500
H1391	H139	0.285500	0.412600	0.215200
H1401	H140	0.386000	0.463100	0.149300
H1411	H141	0.360100	0.268300	0.042800
H1421	H142	0.264300	0.209900	0.106700
H1431	H143	0.973500	0.258400	0.113400
H1441	H144	0.894200	0.257000	0.146900
C11	C1	0.747100	0.464300	0.534500
C21	C2	0.813200	0.408200	0.527900
C31	C3	0.820400	0.359300	0.476200
C41	C4	0.760800	0.374400	0.430400
C51	C5	0.697000	0.432200	0.440000
C61	C6	0.886000	0.292900	0.469900
C71	C7	0.958700	0.293400	0.506000
C81	C8	0.018000	0.231100	0.500400
C91	C9	0.006300	0.163800	0.461000
C101	C10	0.933700	0.161300	0.424700
C111	C11	0.874200	0.225700	0.429200
C121	C12	0.925000	0.091600	0.381300
C131	C13	0.874400	0.995500	0.319700
C141	C14	0.812700	0.938700	0.289100
C151	C15	0.783000	0.954800	0.230600
C161	C16	0.724900	0.899800	0.204000
C171	C17	0.695400	0.830700	0.237000
C181	C18	0.724200	0.815100	0.295900
C191	C19	0.783800	0.869700	0.321200
C201	C20	0.693300	0.742700	0.333400
C211	C21	0.617300	0.701500	0.320400
C221	C22	0.587000	0.641300	0.360500
C231	C23	0.701400	0.656000	0.422500
C241	C24	0.736600	0.714500	0.384700
C251	C25	0.252900	0.535700	0.034500
C261	C26	0.186800	0.591800	0.027900
C271	C27	0.179600	0.640700	0.976200
C281	C28	0.239200	0.625600	0.930400
C291	C29	0.303000	0.567800	0.940000
C301	C30	0.114000	0.707100	0.969900
C311	C31	0.041300	0.706600	0.006000
C321	C32	0.982000	0.768900	0.000400
C331	C33	0.993700	0.836200	0.961000
C341	C34	0.066300	0.838700	0.924700
C351	C35	0.125800	0.774300	0.929200
C361	C36	0.075000	0.908400	0.881300
C371	C37	0.125600	0.004500	0.819700
C381	C38	0.187300	0.061300	0.789100
C391	C39	0.217000	0.045200	0.730600
C401	C40	0.275100	0.100200	0.704000
C411	C41	0.304600	0.169300	0.737000
C421	C42	0.275800	0.184900	0.795900
C431	C43	0.216200	0.130300	0.821200
C441	C44	0.306700	0.257300	0.833400
C451	C45	0.382700	0.298500	0.820400
C461	C46	0.413000	0.358700	0.860500
C471	C47	0.298600	0.344000	0.922500
C481	C48	0.263400	0.285500	0.884700
C491	C49	0.035700	0.247100	0.784500
C501	C50	0.091800	0.313200	0.777900
C511	C51	0.140700	0.320400	0.726200
C521	C52	0.125600	0.260800	0.680400
C531	C53	0.067800	0.197000	0.690000
C541	C54	0.207100	0.386000	0.719900
C551	C55	0.206600	0.458700	0.756000
C561	C56	0.268900	0.518000	0.750400
C571	C57	0.336200	0.506300	0.711000
C581	C58	0.338700	0.433700	0.674700
C591	C59	0.274300	0.374200	0.679200
C601	C60	0.408400	0.425000	0.631300
C611	C61	0.504500	0.374400	0.569700
C621	C62	0.561300	0.312700	0.539100
C631	C63	0.545200	0.283000	0.480600
C641	C64	0.600200	0.224900	0.454000
C651	C65	0.669300	0.195400	0.487000
C661	C66	0.684900	0.224200	0.545900
C671	C67	0.630300	0.283800	0.571200
C681	C68	0.757300	0.193300	0.583400
C691	C69	0.798500	0.117300	0.570400
C701	C70	0.858700	0.087000	0.610500
C711	C71	0.844000	0.201400	0.672500
C721	C72	0.785500	0.236600	0.634700
C731	C73	0.964300	0.752900	0.284500
C741	C74	0.908200	0.686800	0.277900
C751	C75	0.859300	0.679600	0.226200
C761	C76	0.874400	0.739200	0.180400
C771	C77	0.932200	0.803000	0.190000
C781	C78	0.792900	0.614000	0.219900
C791	C79	0.793400	0.541300	0.256000
C801	C80	0.731100	0.482000	0.250400
C811	C81	0.663800	0.493700	0.211000
C821	C82	0.661300	0.566300	0.174700
C831	C83	0.725700	0.625800	0.179200
C841	C84	0.591600	0.575000	0.131300
C851	C85	0.495500	0.625600	0.069700
C861	C86	0.438700	0.687300	0.039100
C871	C87	0.454800	0.717000	0.980600
C881	C88	0.399800	0.775100	0.954000
C891	C89	0.330700	0.804600	0.987000
C901	C90	0.315100	0.775800	0.045900
C911	C91	0.369700	0.716200	0.071200
C921	C92	0.242700	0.806700	0.083400
C931	C93	0.201500	0.882700	0.070400
C941	C94	0.141300	0.913000	0.110500
C951	C95	0.156000	0.798600	0.172500
C961	C96	0.214500	0.763400	0.134700
C971	C97	0.752900	0.964300	0.715500
C981	C98	0.686800	0.908200	0.722100
C991	C99	0.679600	0.859300	0.773800
C1001	C100	0.739200	0.874400	0.819600
C1011	C101	0.803000	0.932200	0.810000
C1021	C102	0.614000	0.792900	0.780100
C1031	C103	0.541300	0.793400	0.744000
C1041	C104	0.482000	0.731100	0.749600
C1051	C105	0.493700	0.663800	0.789000
C1061	C106	0.566300	0.661300	0.825300
C1071	C107	0.625800	0.725700	0.820800
C1081	C108	0.575000	0.591600	0.868700
C1091	C109	0.625600	0.495500	0.930300
C1101	C110	0.687300	0.438700	0.960900
C1111	C111	0.717000	0.454800	0.019400
C1121	C112	0.775100	0.399800	0.046000
C1131	C113	0.804600	0.330700	0.013000
C1141	C114	0.775800	0.315100	0.954100
C1151	C115	0.716200	0.369700	0.928800
C1161	C116	0.806700	0.242700	0.916600
C1171	C117	0.882700	0.201500	0.929600
C1181	C118	0.913000	0.141300	0.889500
C1191	C119	0.798600	0.156000	0.827500
C1201	C120	0.763400	0.214500	0.865300
C1211	C121	0.247100	0.035700	0.215500
C1221	C122	0.313200	0.091800	0.222100
C1231	C123	0.320400	0.140700	0.273800
C1241	C124	0.260800	0.125600	0.319600
C1251	C125	0.197000	0.067800	0.310000
C1261	C126	0.386000	0.207100	0.280100
C1271	C127	0.458700	0.206600	0.244000
C1281	C128	0.518000	0.268900	0.249600
C1291	C129	0.506300	0.336200	0.289000
C1301	C130	0.433700	0.338700	0.325300
C1311	C131	0.374200	0.274300	0.320800
C1321	C132	0.425000	0.408400	0.368700
C1331	C133	0.374400	0.504500	0.430300
C1341	C134	0.312700	0.561300	0.460900
C1351	C135	0.283000	0.545200	0.519400
C1361	C136	0.224900	0.600200	0.546000
C1371	C137	0.195400	0.669300	0.513000
C1381	C138	0.224200	0.684900	0.454100
C1391	C139	0.283800	0.630300	0.428800
C1401	C140	0.193300	0.757300	0.416600
C1411	C141	0.117300	0.798500	0.429600
C1421	C142	0.087000	0.858700	0.389500
C1431	C143	0.201400	0.844000	0.327500
C1441	C144	0.236600	0.785500	0.365300
C1451	C145	0.464300	0.747100	0.465500
C1461	C146	0.408200	0.813200	0.472100
C1471	C147	0.359300	0.820400	0.523800
C1481	C148	0.374400	0.760800	0.569600
C1491	C149	0.432200	0.697000	0.560000
C1501	C150	0.292900	0.886000	0.530100
C1511	C151	0.293400	0.958700	0.494000
C1521	C152	0.231100	0.018000	0.499600
C1531	C153	0.163800	0.006300	0.539000
C1541	C154	0.161300	0.933700	0.575300
C1551	C155	0.225700	0.874200	0.570800
C1561	C156	0.091600	0.925000	0.618700
C1571	C157	0.995500	0.874400	0.680300
C1581	C158	0.938700	0.812700	0.710900
C1591	C159	0.954800	0.783000	0.769400
C1601	C160	0.899800	0.724900	0.796000
C1611	C161	0.830700	0.695400	0.763000
C1621	C162	0.815100	0.724200	0.704100
C1631	C163	0.869700	0.783800	0.678800
C1641	C164	0.742700	0.693300	0.666600
C1651	C165	0.701500	0.617300	0.679600
C1661	C166	0.641300	0.587000	0.639500
C1671	C167	0.656000	0.701400	0.577500
C1681	C168	0.714500	0.736600	0.615300
C1691	C169	0.535700	0.252900	0.965500
C1701	C170	0.591800	0.186800	0.972100
C1711	C171	0.640700	0.179600	0.023800
C1721	C172	0.625600	0.239200	0.069600
C1731	C173	0.567800	0.303000	0.060000
C1741	C174	0.707100	0.114000	0.030100
C1751	C175	0.706600	0.041300	0.994000
C1761	C176	0.768900	0.982000	0.999600
C1771	C177	0.836200	0.993700	0.039000
C1781	C178	0.838700	0.066300	0.075300
C1791	C179	0.774300	0.125800	0.070800
C1801	C180	0.908400	0.075000	0.118700
C1811	C181	0.004500	0.125600	0.180300
C1821	C182	0.061300	0.187300	0.210900
C1831	C183	0.045200	0.217000	0.269400
C1841	C184	0.100200	0.275100	0.296000
C1851	C185	0.169300	0.304600	0.263000
C1861	C186	0.184900	0.275800	0.204100
C1871	C187	0.130300	0.216200	0.178800
C1881	C188	0.257300	0.306700	0.166600
C1891	C189	0.298500	0.382700	0.179600
C1901	C190	0.358700	0.413000	0.139500
C1911	C191	0.344000	0.298600	0.077500
C1921	C192	0.285500	0.263400	0.115300
N11	N1	0.688500	0.476300	0.491300
N21	N2	0.989000	0.054200	0.354700
N31	N3	0.956100	0.993200	0.316200
N41	N4	0.851600	0.056100	0.360100
N51	N5	0.769600	0.074600	0.381000
N61	N6	0.626200	0.619900	0.413200
N71	N7	0.311500	0.523700	0.991300
N81	N8	0.011000	0.945800	0.854700
N91	N9	0.043900	0.006800	0.816200
N101	N10	0.148400	0.943900	0.860100
N111	N11	0.230400	0.925400	0.881000
N121	N12	0.373800	0.380100	0.913200
N131	N13	0.023700	0.188500	0.741300
N141	N14	0.445800	0.489000	0.604700
N151	N15	0.506800	0.456100	0.566200
N161	N16	0.443900	0.351600	0.610100
N171	N17	0.425400	0.269600	0.631000
N181	N18	0.880100	0.126200	0.663200
N191	N19	0.976300	0.811500	0.241300
N201	N20	0.554200	0.511000	0.104700
N211	N21	0.493200	0.543900	0.066200
N221	N22	0.556100	0.648400	0.110100
N231	N23	0.574600	0.730400	0.131000
N241	N24	0.119900	0.873800	0.163200
N251	N25	0.811500	0.976300	0.758700
N261	N26	0.511000	0.554200	0.895300
N271	N27	0.543900	0.493200	0.933800
N281	N28	0.648400	0.556100	0.889900
N291	N29	0.730400	0.574600	0.869000
N301	N30	0.873800	0.119900	0.836800
N311	N31	0.188500	0.023700	0.258700
N321	N32	0.489000	0.445800	0.395300
N331	N33	0.456100	0.506800	0.433800
N341	N34	0.351600	0.443900	0.389900
N351	N35	0.269600	0.425400	0.369000
N361	N36	0.126200	0.880100	0.336800
N371	N37	0.476300	0.688500	0.508700
N381	N38	0.054200	0.989000	0.645300
N391	N39	0.993200	0.956100	0.683800
N401	N40	0.056100	0.851600	0.639900
N411	N41	0.074600	0.769600	0.619000
N421	N42	0.619900	0.626200	0.586800
N431	N43	0.523700	0.311500	0.008700
N441	N44	0.945800	0.011000	0.145300
N451	N45	0.006800	0.043900	0.183800
N461	N46	0.943900	0.148400	0.139900
N471	N47	0.925400	0.230400	0.119000
N481	N48	0.380100	0.373800	0.086800
Cl11	Cl1	0.626530	0.373470	0.750000
O11	O1	0.631700	0.443400	0.787800
O21	O2	0.667500	0.405800	0.699500
O31	O3	0.556600	0.368300	0.712200
O41	O4	0.594200	0.332500	0.800500
Cl21	Cl2	0.373470	0.626530	0.250000
O51	O5	0.368300	0.556600	0.287800
O61	O6	0.332500	0.594200	0.199500
O71	O7	0.443400	0.631700	0.212200
O81	O8	0.405800	0.667500	0.300500
Cl31	Cl3	0.126530	0.126530	0.000000
O91	O9	0.056600	0.131700	0.037800
O101	O10	0.094200	0.167500	0.949500
O111	O11	0.131700	0.056600	0.962200
O121	O12	0.167500	0.094200	0.050500
Cl41	Cl4	0.873470	0.873470	0.500000
O131	O13	0.943400	0.868300	0.537800
O141	O14	0.905800	0.832500	0.449500
O151	O15	0.868300	0.943400	0.462200
O161	O16	0.832500	0.905800	0.550500
Cl51	Cl5	0.729990	0.729990	0.000000
O171	O17	0.763100	0.766000	0.052800
O181	O18	0.783100	0.645200	0.995800
O191	O19	0.766000	0.763100	0.947200
O201	O20	0.645200	0.783100	0.004200
Cl61	Cl6	0.270010	0.270010	0.500000
O211	O21	0.236900	0.234000	0.552800
O221	O22	0.216900	0.354800	0.495800
O231	O23	0.234000	0.236900	0.447200
O241	O24	0.354800	0.216900	0.504200
Cl71	Cl7	0.770010	0.229990	0.250000
O251	O25	0.734000	0.263100	0.302800
O261	O26	0.854800	0.283100	0.245800
O271	O27	0.736900	0.266000	0.197200
O281	O28	0.716900	0.145200	0.254200
Cl81	Cl8	0.229990	0.770010	0.750000
O291	O29	0.266000	0.736900	0.802800
O301	O30	0.145200	0.716900	0.745800
O311	O31	0.263100	0.734000	0.697200
O321	O32	0.283100	0.854800	0.754200
