data_OKIYIR02_charged_PM
_symmetry_space_group_name_H-M	'P1'
_cell_length_a	15.802900
_cell_length_b	15.802900
_cell_length_c	21.845000
_cell_angle_alpha	90.000000
_cell_angle_beta	90.000000
_cell_angle_gamma	90.000000
_symmetry_Int_Tables_number 1

loop_
_symmetry_equiv_pos_as_xyz
'x,y,z'

loop_
_atom_site_label
_atom_site_type_symbol
_atom_site_fract_x
_atom_site_fract_y
_atom_site_fract_z
Cd11	Cd1	0.059490	0.940510	0.250000
Cd21	Cd2	0.940510	0.059490	0.750000
Cd31	Cd3	0.559490	0.559490	0.500000
Cd41	Cd4	0.440510	0.440510	0.000000
H11	H1	0.743000	0.494600	0.570400
H21	H2	0.853200	0.403200	0.558100
H31	H3	0.763500	0.345900	0.393300
H41	H4	0.657700	0.440700	0.408900
H51	H5	0.967100	0.336400	0.533300
H61	H6	0.066800	0.233800	0.522500
H71	H7	0.046100	0.120900	0.458300
H81	H8	0.825100	0.223900	0.405200
H91	H9	0.801800	0.001500	0.209500
H101	H10	0.705800	0.908100	0.165000
H111	H11	0.656000	0.793800	0.219600
H121	H12	0.803000	0.860400	0.360700
H131	H13	0.586500	0.713900	0.285200
H141	H14	0.535800	0.613900	0.351400
H151	H15	0.731800	0.640200	0.457100
H161	H16	0.789400	0.736000	0.393700
H171	H17	0.741400	0.026300	0.386400
H181	H18	0.742700	0.105600	0.352900
H191	H19	0.257000	0.505400	0.070400
H201	H20	0.146800	0.596800	0.058100
H211	H21	0.236500	0.654100	0.893300
H221	H22	0.342300	0.559300	0.908900
H231	H23	0.032900	0.663600	0.033300
H241	H24	0.933200	0.766200	0.022500
H251	H25	0.953900	0.879100	0.958300
H261	H26	0.174900	0.776100	0.905200
H271	H27	0.198200	0.998500	0.709500
H281	H28	0.294200	0.091900	0.665000
H291	H29	0.344000	0.206200	0.719600
H301	H30	0.197000	0.139600	0.860700
H311	H31	0.413500	0.286100	0.785200
H321	H32	0.464200	0.386100	0.851400
H331	H33	0.268200	0.359800	0.957100
H341	H34	0.210600	0.264000	0.893700
H351	H35	0.258600	0.973700	0.886400
H361	H36	0.257300	0.894400	0.852900
H371	H37	0.005400	0.243000	0.820400
H381	H38	0.096800	0.353200	0.808100
H391	H39	0.154100	0.263500	0.643300
H401	H40	0.059300	0.157700	0.658900
H411	H41	0.163600	0.467100	0.783300
H421	H42	0.266200	0.566800	0.772500
H431	H43	0.379100	0.546100	0.708300
H441	H44	0.276100	0.325100	0.655200
H451	H45	0.498500	0.301800	0.459500
H461	H46	0.591900	0.205800	0.415000
H471	H47	0.706200	0.156000	0.469600
H481	H48	0.639600	0.303000	0.610700
H491	H49	0.786100	0.086500	0.535200
H501	H50	0.886100	0.035800	0.601400
H511	H51	0.859800	0.231800	0.707100
H521	H52	0.764000	0.289400	0.643700
H531	H53	0.473700	0.241400	0.636400
H541	H54	0.394400	0.242700	0.602900
H551	H55	0.994600	0.757000	0.320400
H561	H56	0.903200	0.646800	0.308100
H571	H57	0.845900	0.736500	0.143300
H581	H58	0.940700	0.842300	0.158900
H591	H59	0.836400	0.532900	0.283300
H601	H60	0.733800	0.433200	0.272500
H611	H61	0.620900	0.453900	0.208300
H621	H62	0.723900	0.674900	0.155200
H631	H63	0.501500	0.698200	0.959500
H641	H64	0.408100	0.794200	0.915000
H651	H65	0.293800	0.844000	0.969600
H661	H66	0.360400	0.697000	0.110700
H671	H67	0.213900	0.913500	0.035200
H681	H68	0.113900	0.964200	0.101400
H691	H69	0.140200	0.768200	0.207100
H701	H70	0.236000	0.710600	0.143700
H711	H71	0.526300	0.758600	0.136400
H721	H72	0.605600	0.757300	0.102900
H731	H73	0.757000	0.994600	0.679600
H741	H74	0.646800	0.903200	0.691900
H751	H75	0.736500	0.845900	0.856700
H761	H76	0.842300	0.940700	0.841100
H771	H77	0.532900	0.836400	0.716700
H781	H78	0.433200	0.733800	0.727500
H791	H79	0.453900	0.620900	0.791700
H801	H80	0.674900	0.723900	0.844800
H811	H81	0.698200	0.501500	0.040500
H821	H82	0.794200	0.408100	0.085000
H831	H83	0.844000	0.293800	0.030400
H841	H84	0.697000	0.360400	0.889300
H851	H85	0.913500	0.213900	0.964800
H861	H86	0.964200	0.113900	0.898600
H871	H87	0.768200	0.140200	0.792900
H881	H88	0.710600	0.236000	0.856300
H891	H89	0.758600	0.526300	0.863600
H901	H90	0.757300	0.605600	0.897100
H911	H91	0.243000	0.005400	0.179600
H921	H92	0.353200	0.096800	0.191900
H931	H93	0.263500	0.154100	0.356700
H941	H94	0.157700	0.059300	0.341100
H951	H95	0.467100	0.163600	0.216700
H961	H96	0.566800	0.266200	0.227500
H971	H97	0.546100	0.379100	0.291700
H981	H98	0.325100	0.276100	0.344800
H991	H99	0.301800	0.498500	0.540500
H1001	H100	0.205800	0.591900	0.585000
H1011	H101	0.156000	0.706200	0.530400
H1021	H102	0.303000	0.639600	0.389300
H1031	H103	0.086500	0.786100	0.464800
H1041	H104	0.035800	0.886100	0.398600
H1051	H105	0.231800	0.859800	0.292900
H1061	H106	0.289400	0.764000	0.356300
H1071	H107	0.241400	0.473700	0.363600
H1081	H108	0.242700	0.394400	0.397100
H1091	H109	0.494600	0.743000	0.429600
H1101	H110	0.403200	0.853200	0.441900
H1111	H111	0.345900	0.763500	0.606700
H1121	H112	0.440700	0.657700	0.591100
H1131	H113	0.336400	0.967100	0.466700
H1141	H114	0.233800	0.066800	0.477500
H1151	H115	0.120900	0.046100	0.541700
H1161	H116	0.223900	0.825100	0.594800
H1171	H117	0.001500	0.801800	0.790500
H1181	H118	0.908100	0.705800	0.835000
H1191	H119	0.793800	0.656000	0.780400
H1201	H120	0.860400	0.803000	0.639300
H1211	H121	0.713900	0.586500	0.714800
H1221	H122	0.613900	0.535800	0.648600
H1231	H123	0.640200	0.731800	0.542900
H1241	H124	0.736000	0.789400	0.606300
H1251	H125	0.026300	0.741400	0.613600
H1261	H126	0.105600	0.742700	0.647100
H1271	H127	0.505400	0.257000	0.929600
H1281	H128	0.596800	0.146800	0.941900
H1291	H129	0.654100	0.236500	0.106700
H1301	H130	0.559300	0.342300	0.091100
H1311	H131	0.663600	0.032900	0.966700
H1321	H132	0.766200	0.933200	0.977500
H1331	H133	0.879100	0.953900	0.041700
H1341	H134	0.776100	0.174900	0.094800
H1351	H135	0.998500	0.198200	0.290500
H1361	H136	0.091900	0.294200	0.335000
H1371	H137	0.206200	0.344000	0.280400
H1381	H138	0.139600	0.197000	0.139300
H1391	H139	0.286100	0.413500	0.214800
H1401	H140	0.386100	0.464200	0.148600
H1411	H141	0.359800	0.268200	0.042900
H1421	H142	0.264000	0.210600	0.106300
H1431	H143	0.973700	0.258600	0.113600
H1441	H144	0.894400	0.257300	0.147100
C11	C1	0.746900	0.464000	0.534200
C21	C2	0.813000	0.407900	0.527300
C31	C3	0.820500	0.359000	0.476100
C41	C4	0.760300	0.374700	0.430400
C51	C5	0.696900	0.432200	0.440000
C61	C6	0.885500	0.292800	0.469300
C71	C7	0.958500	0.293100	0.505100
C81	C8	0.017500	0.230800	0.499400
C91	C9	0.006000	0.163900	0.460500
C101	C10	0.932900	0.160900	0.423900
C111	C11	0.873700	0.225600	0.429200
C121	C12	0.924700	0.091300	0.380900
C131	C13	0.873800	0.995200	0.319600
C141	C14	0.812400	0.938000	0.289600
C151	C15	0.783000	0.954300	0.230900
C161	C16	0.724800	0.898800	0.204700
C171	C17	0.695300	0.830100	0.237400
C181	C18	0.723400	0.814600	0.296500
C191	C19	0.782900	0.870100	0.321300
C201	C20	0.692800	0.742300	0.334100
C211	C21	0.616400	0.701000	0.320700
C221	C22	0.586300	0.641100	0.360900
C231	C23	0.701400	0.656100	0.422500
C241	C24	0.735900	0.714400	0.385000
C251	C25	0.253100	0.536000	0.034200
C261	C26	0.187000	0.592100	0.027300
C271	C27	0.179500	0.641000	0.976100
C281	C28	0.239700	0.625300	0.930400
C291	C29	0.303100	0.567800	0.940000
C301	C30	0.114500	0.707200	0.969300
C311	C31	0.041500	0.706900	0.005100
C321	C32	0.982500	0.769200	0.999400
C331	C33	0.994000	0.836100	0.960500
C341	C34	0.067100	0.839100	0.923900
C351	C35	0.126300	0.774400	0.929200
C361	C36	0.075300	0.908700	0.880900
C371	C37	0.126200	0.004800	0.819600
C381	C38	0.187600	0.062000	0.789600
C391	C39	0.217000	0.045700	0.730900
C401	C40	0.275200	0.101200	0.704700
C411	C41	0.304700	0.169900	0.737400
C421	C42	0.276600	0.185400	0.796500
C431	C43	0.217100	0.129900	0.821300
C441	C44	0.307200	0.257700	0.834100
C451	C45	0.383600	0.299000	0.820700
C461	C46	0.413700	0.358900	0.860900
C471	C47	0.298600	0.343900	0.922500
C481	C48	0.264100	0.285600	0.885000
C491	C49	0.036000	0.246900	0.784200
C501	C50	0.092100	0.313000	0.777300
C511	C51	0.141000	0.320500	0.726100
C521	C52	0.125300	0.260300	0.680400
C531	C53	0.067800	0.196900	0.690000
C541	C54	0.207200	0.385500	0.719300
C551	C55	0.206900	0.458500	0.755100
C561	C56	0.269200	0.517500	0.749400
C571	C57	0.336100	0.506000	0.710500
C581	C58	0.339100	0.432900	0.673900
C591	C59	0.274400	0.373700	0.679200
C601	C60	0.408700	0.424700	0.630900
C611	C61	0.504800	0.373800	0.569600
C621	C62	0.562000	0.312400	0.539600
C631	C63	0.545700	0.283000	0.480900
C641	C64	0.601200	0.224800	0.454700
C651	C65	0.669900	0.195300	0.487400
C661	C66	0.685400	0.223400	0.546500
C671	C67	0.629900	0.282900	0.571300
C681	C68	0.757700	0.192800	0.584100
C691	C69	0.799000	0.116400	0.570700
C701	C70	0.858900	0.086300	0.610900
C711	C71	0.843900	0.201400	0.672500
C721	C72	0.785600	0.235900	0.635000
C731	C73	0.964000	0.753100	0.284200
C741	C74	0.907900	0.687000	0.277300
C751	C75	0.859000	0.679500	0.226100
C761	C76	0.874700	0.739700	0.180400
C771	C77	0.932200	0.803100	0.190000
C781	C78	0.792800	0.614500	0.219300
C791	C79	0.793100	0.541500	0.255100
C801	C80	0.730800	0.482500	0.249400
C811	C81	0.663900	0.494000	0.210500
C821	C82	0.660900	0.567100	0.173900
C831	C83	0.725600	0.626300	0.179200
C841	C84	0.591300	0.575300	0.130900
C851	C85	0.495200	0.626200	0.069600
C861	C86	0.438000	0.687600	0.039600
C871	C87	0.454300	0.717000	0.980900
C881	C88	0.398800	0.775200	0.954700
C891	C89	0.330100	0.804700	0.987400
C901	C90	0.314600	0.776600	0.046500
C911	C91	0.370100	0.717100	0.071300
C921	C92	0.242300	0.807200	0.084100
C931	C93	0.201000	0.883600	0.070700
C941	C94	0.141100	0.913700	0.110900
C951	C95	0.156100	0.798600	0.172500
C961	C96	0.214400	0.764100	0.135000
C971	C97	0.753100	0.964000	0.715800
C981	C98	0.687000	0.907900	0.722700
C991	C99	0.679500	0.859000	0.773900
C1001	C100	0.739700	0.874700	0.819600
C1011	C101	0.803100	0.932200	0.810000
C1021	C102	0.614500	0.792800	0.780700
C1031	C103	0.541500	0.793100	0.744900
C1041	C104	0.482500	0.730800	0.750600
C1051	C105	0.494000	0.663900	0.789500
C1061	C106	0.567100	0.660900	0.826100
C1071	C107	0.626300	0.725600	0.820800
C1081	C108	0.575300	0.591300	0.869100
C1091	C109	0.626200	0.495200	0.930400
C1101	C110	0.687600	0.438000	0.960400
C1111	C111	0.717000	0.454300	0.019100
C1121	C112	0.775200	0.398800	0.045300
C1131	C113	0.804700	0.330100	0.012600
C1141	C114	0.776600	0.314600	0.953500
C1151	C115	0.717100	0.370100	0.928700
C1161	C116	0.807200	0.242300	0.915900
C1171	C117	0.883600	0.201000	0.929300
C1181	C118	0.913700	0.141100	0.889100
C1191	C119	0.798600	0.156100	0.827500
C1201	C120	0.764100	0.214400	0.865000
C1211	C121	0.246900	0.036000	0.215800
C1221	C122	0.313000	0.092100	0.222700
C1231	C123	0.320500	0.141000	0.273900
C1241	C124	0.260300	0.125300	0.319600
C1251	C125	0.196900	0.067800	0.310000
C1261	C126	0.385500	0.207200	0.280700
C1271	C127	0.458500	0.206900	0.244900
C1281	C128	0.517500	0.269200	0.250600
C1291	C129	0.506000	0.336100	0.289500
C1301	C130	0.432900	0.339100	0.326100
C1311	C131	0.373700	0.274400	0.320800
C1321	C132	0.424700	0.408700	0.369100
C1331	C133	0.373800	0.504800	0.430400
C1341	C134	0.312400	0.562000	0.460400
C1351	C135	0.283000	0.545700	0.519100
C1361	C136	0.224800	0.601200	0.545300
C1371	C137	0.195300	0.669900	0.512600
C1381	C138	0.223400	0.685400	0.453500
C1391	C139	0.282900	0.629900	0.428700
C1401	C140	0.192800	0.757700	0.415900
C1411	C141	0.116400	0.799000	0.429300
C1421	C142	0.086300	0.858900	0.389100
C1431	C143	0.201400	0.843900	0.327500
C1441	C144	0.235900	0.785600	0.365000
C1451	C145	0.464000	0.746900	0.465800
C1461	C146	0.407900	0.813000	0.472700
C1471	C147	0.359000	0.820500	0.523900
C1481	C148	0.374700	0.760300	0.569600
C1491	C149	0.432200	0.696900	0.560000
C1501	C150	0.292800	0.885500	0.530700
C1511	C151	0.293100	0.958500	0.494900
C1521	C152	0.230800	0.017500	0.500600
C1531	C153	0.163900	0.006000	0.539500
C1541	C154	0.160900	0.932900	0.576100
C1551	C155	0.225600	0.873700	0.570800
C1561	C156	0.091300	0.924700	0.619100
C1571	C157	0.995200	0.873800	0.680400
C1581	C158	0.938000	0.812400	0.710400
C1591	C159	0.954300	0.783000	0.769100
C1601	C160	0.898800	0.724800	0.795300
C1611	C161	0.830100	0.695300	0.762600
C1621	C162	0.814600	0.723400	0.703500
C1631	C163	0.870100	0.782900	0.678700
C1641	C164	0.742300	0.692800	0.665900
C1651	C165	0.701000	0.616400	0.679300
C1661	C166	0.641100	0.586300	0.639100
C1671	C167	0.656100	0.701400	0.577500
C1681	C168	0.714400	0.735900	0.615000
C1691	C169	0.536000	0.253100	0.965800
C1701	C170	0.592100	0.187000	0.972700
C1711	C171	0.641000	0.179500	0.023900
C1721	C172	0.625300	0.239700	0.069600
C1731	C173	0.567800	0.303100	0.060000
C1741	C174	0.707200	0.114500	0.030700
C1751	C175	0.706900	0.041500	0.994900
C1761	C176	0.769200	0.982500	0.000600
C1771	C177	0.836100	0.994000	0.039500
C1781	C178	0.839100	0.067100	0.076100
C1791	C179	0.774400	0.126300	0.070800
C1801	C180	0.908700	0.075300	0.119100
C1811	C181	0.004800	0.126200	0.180400
C1821	C182	0.062000	0.187600	0.210400
C1831	C183	0.045700	0.217000	0.269100
C1841	C184	0.101200	0.275200	0.295300
C1851	C185	0.169900	0.304700	0.262600
C1861	C186	0.185400	0.276600	0.203500
C1871	C187	0.129900	0.217100	0.178700
C1881	C188	0.257700	0.307200	0.165900
C1891	C189	0.299000	0.383600	0.179300
C1901	C190	0.358900	0.413700	0.139100
C1911	C191	0.343900	0.298600	0.077500
C1921	C192	0.285600	0.264100	0.115000
N11	N1	0.688500	0.476200	0.491100
N21	N2	0.988300	0.054300	0.354490
N31	N3	0.955500	0.993300	0.315900
N41	N4	0.851000	0.055900	0.359900
N51	N5	0.769300	0.074400	0.380900
N61	N6	0.625600	0.619600	0.413050
N71	N7	0.311500	0.523800	0.991100
N81	N8	0.011700	0.945700	0.854490
N91	N9	0.044500	0.006700	0.815900
N101	N10	0.149000	0.944100	0.859900
N111	N11	0.230700	0.925600	0.880900
N121	N12	0.374400	0.380400	0.913050
N131	N13	0.023800	0.188500	0.741100
N141	N14	0.445700	0.488300	0.604490
N151	N15	0.506700	0.455500	0.565900
N161	N16	0.444100	0.351000	0.609900
N171	N17	0.425600	0.269300	0.630900
N181	N18	0.880400	0.125600	0.663050
N191	N19	0.976200	0.811500	0.241100
N201	N20	0.554300	0.511700	0.104490
N211	N21	0.493300	0.544500	0.065900
N221	N22	0.555900	0.649000	0.109900
N231	N23	0.574400	0.730700	0.130900
N241	N24	0.119600	0.874400	0.163050
N251	N25	0.811500	0.976200	0.758900
N261	N26	0.511700	0.554300	0.895510
N271	N27	0.544500	0.493300	0.934100
N281	N28	0.649000	0.555900	0.890100
N291	N29	0.730700	0.574400	0.869100
N301	N30	0.874400	0.119600	0.836950
N311	N31	0.188500	0.023800	0.258900
N321	N32	0.488300	0.445700	0.395510
N331	N33	0.455500	0.506700	0.434100
N341	N34	0.351000	0.444100	0.390100
N351	N35	0.269300	0.425600	0.369100
N361	N36	0.125600	0.880400	0.336950
N371	N37	0.476200	0.688500	0.508900
N381	N38	0.054300	0.988300	0.645510
N391	N39	0.993300	0.955500	0.684100
N401	N40	0.055900	0.851000	0.640100
N411	N41	0.074400	0.769300	0.619100
N421	N42	0.619600	0.625600	0.586950
N431	N43	0.523800	0.311500	0.008900
N441	N44	0.945700	0.011700	0.145510
N451	N45	0.006700	0.044500	0.184100
N461	N46	0.944100	0.149000	0.140100
N471	N47	0.925600	0.230700	0.119100
N481	N48	0.380400	0.374400	0.086950
Cl11	Cl1	0.626440	0.373560	0.750000
O11	O1	0.629600	0.440900	0.789100
O21	O2	0.673300	0.406200	0.698900
O31	O3	0.559100	0.370400	0.710900
O41	O4	0.593800	0.326700	0.801100
Cl21	Cl2	0.373560	0.626440	0.250000
O51	O5	0.370400	0.559100	0.289100
O61	O6	0.326700	0.593800	0.198900
O71	O7	0.440900	0.629600	0.210900
O81	O8	0.406200	0.673300	0.301100
Cl31	Cl3	0.126440	0.126440	0.000000
O91	O9	0.059100	0.129600	0.039100
O101	O10	0.093800	0.173300	0.948900
O111	O11	0.129600	0.059100	0.960900
O121	O12	0.173300	0.093800	0.051100
Cl41	Cl4	0.873560	0.873560	0.500000
O131	O13	0.940900	0.870400	0.539100
O141	O14	0.906200	0.826700	0.448900
O151	O15	0.870400	0.940900	0.460900
O161	O16	0.826700	0.906200	0.551100
Cl51	Cl5	0.729950	0.729950	0.000000
O171	O17	0.763700	0.765300	0.052900
O181	O18	0.777900	0.645000	0.994000
O191	O19	0.765300	0.763700	0.947100
O201	O20	0.645000	0.777900	0.006000
Cl61	Cl6	0.270050	0.270050	0.500000
O211	O21	0.236300	0.234700	0.552900
O221	O22	0.222100	0.355000	0.494000
O231	O23	0.234700	0.236300	0.447100
O241	O24	0.355000	0.222100	0.506000
Cl71	Cl7	0.770050	0.229950	0.250000
O251	O25	0.734700	0.263700	0.302900
O261	O26	0.855000	0.277900	0.244000
O271	O27	0.736300	0.265300	0.197100
O281	O28	0.722100	0.145000	0.256000
Cl81	Cl8	0.229950	0.770050	0.750000
O291	O29	0.265300	0.736300	0.802900
O301	O30	0.145000	0.722100	0.744000
O311	O31	0.263700	0.734700	0.697100
O321	O32	0.277900	0.855000	0.756000
