data_OKUKOW_clean_PM
_symmetry_space_group_name_H-M	'P1'
_cell_length_a	40.845000
_cell_length_b	42.367000
_cell_length_c	34.547000
_cell_angle_alpha	90.000000
_cell_angle_beta	115.816000
_cell_angle_gamma	90.000000
_symmetry_Int_Tables_number 1

loop_
_symmetry_equiv_pos_as_xyz
'x,y,z'

loop_
_atom_site_label
_atom_site_type_symbol
_atom_site_fract_x
_atom_site_fract_y
_atom_site_fract_z
Zn11	Zn1	0.003740	0.911640	0.130000
Zn21	Zn2	0.048900	0.865070	0.111570
Zn31	Zn3	0.477400	0.131260	0.578730
Zn41	Zn4	0.519790	0.084040	0.555610
Zn51	Zn5	0.247340	0.821150	0.554120
Zn61	Zn6	0.257010	0.895480	0.563530
Zn71	Zn7	0.319380	0.847410	0.626910
Zn81	Zn8	0.244280	0.855050	0.633930
O11	O1	0.265500	0.855700	0.594200
C11	C1	0.586200	0.008300	0.518500
C21	C2	0.618700	0.015500	0.516200
H11	H1	0.627800	0.036500	0.522400
C31	C3	0.638300	0.993400	0.505200
H21	H2	0.660600	0.999200	0.504600
Br11	Br1	0.650130	0.931620	0.478720
C41	C4	0.625200	0.963000	0.495100
C51	C5	0.593100	0.955500	0.496400
H31	H3	0.583800	0.934700	0.489300
C61	C6	0.574000	0.977300	0.507700
H41	H4	0.551800	0.971100	0.508300
B11	B1	0.562400	0.032600	0.531100
O21	O2	0.589900	0.061800	0.554700
N11	N1	0.573300	0.086700	0.561300
C71	C7	0.596300	0.112000	0.575000
H51	H5	0.620200	0.109100	0.577300
C81	C8	0.587500	0.143800	0.586800
C91	C9	0.556500	0.150400	0.593300
C101	C10	0.552000	0.182000	0.604200
C111	C11	0.578600	0.204800	0.608500
H61	H6	0.575900	0.225700	0.616500
C121	C12	0.608600	0.197500	0.601300
C131	C13	0.613100	0.166800	0.590700
H71	H7	0.633800	0.161400	0.586200
C141	C14	0.521200	0.193200	0.610400
H81	H8	0.521200	0.214800	0.617600
N21	N2	0.494300	0.176800	0.607100
O31	O3	0.469800	0.193900	0.616400
B21	B2	0.433100	0.180500	0.602200
O41	O4	0.534100	0.044400	0.490700
N31	N3	0.510700	0.067700	0.492900
C151	C15	0.485900	0.075900	0.456700
H91	H9	0.487000	0.066400	0.432400
C161	C16	0.456100	0.097600	0.447200
C171	C17	0.450000	0.114200	0.479800
C181	C18	0.419300	0.135000	0.466300
C191	C19	0.395900	0.138200	0.422100
H101	H10	0.375300	0.151700	0.413400
C201	C20	0.402100	0.122000	0.391100
C211	C21	0.432200	0.102100	0.403600
H111	H11	0.436700	0.091400	0.382200
C221	C22	0.411000	0.154100	0.495700
H121	H12	0.389400	0.166400	0.483500
N41	N4	0.429700	0.156200	0.536200
O51	O5	0.414400	0.177200	0.555600
O61	O6	0.551600	0.019000	0.560600
N51	N5	0.528100	0.035700	0.572500
C231	C23	0.509900	0.018300	0.586100
H131	H13	0.514100	0.996200	0.586600
C241	C24	0.483500	0.028600	0.600900
C251	C25	0.476200	0.061300	0.605600
C261	C26	0.448700	0.067800	0.619700
C271	C27	0.428500	0.043100	0.626300
H141	H14	0.410300	0.048000	0.635500
C281	C28	0.434800	0.011800	0.619500
C291	C29	0.462800	0.004900	0.608300
H151	H15	0.468000	0.983400	0.605400
C301	C30	0.438900	0.099300	0.626800
H161	H16	0.422700	0.100900	0.639800
N61	N6	0.449600	0.125000	0.617500
O71	O7	0.433700	0.152200	0.626400
C311	C31	0.411200	0.206500	0.614800
C321	C32	0.413100	0.209400	0.656100
H171	H17	0.428000	0.195000	0.677600
C331	C33	0.394200	0.232100	0.666900
H181	H18	0.395800	0.232600	0.695200
Br21	Br2	0.345000	0.284090	0.650100
C341	C34	0.373400	0.253900	0.637200
C351	C35	0.371400	0.252900	0.596500
H191	H19	0.357900	0.268400	0.575800
C361	C36	0.389500	0.229200	0.586000
H201	H20	0.386900	0.228300	0.557300
O81	O8	0.532200	0.128800	0.587700
C371	C37	0.634100	0.222500	0.601300
C381	C38	0.644400	0.224200	0.567900
H211	H21	0.636400	0.208500	0.546100
C391	C39	0.666400	0.248600	0.566300
H221	H22	0.672400	0.250000	0.542700
C401	C40	0.679700	0.271200	0.598800
C411	C41	0.670300	0.268700	0.632900
H231	H23	0.679900	0.283400	0.655900
C421	C42	0.647400	0.245200	0.633700
H241	H24	0.640500	0.244500	0.656700
C431	C43	0.703000	0.298100	0.596700
O91	O9	0.710400	0.298500	0.564800
O101	O10	0.471900	0.110000	0.521000
O111	O11	0.713800	0.317200	0.626900
C441	C44	0.378300	0.126200	0.344400
C451	C45	0.391700	0.123100	0.313700
H251	H25	0.416500	0.117700	0.322800
C461	C46	0.369700	0.127700	0.270400
H261	H26	0.379700	0.126300	0.250300
C471	C47	0.332700	0.134600	0.256200
C481	C48	0.319100	0.137300	0.286400
H271	H27	0.294000	0.141600	0.277300
C491	C49	0.341700	0.133700	0.330100
H281	H28	0.332100	0.136500	0.350500
C501	C50	0.308300	0.137500	0.208700
O121	O12	0.494900	0.084300	0.598800
O131	O13	0.322700	0.133400	0.183100
O141	O14	0.275300	0.142500	0.194800
C511	C51	0.409600	0.986500	0.619600
C521	C52	0.372800	0.993300	0.604800
H291	H29	0.364500	0.014400	0.598000
C531	C53	0.348400	0.969300	0.600100
H301	H30	0.323300	0.974200	0.589200
C541	C54	0.359900	0.938200	0.611000
C551	C55	0.397200	0.931800	0.628200
H311	H31	0.406000	0.911000	0.637000
C561	C56	0.421400	0.956000	0.632300
H321	H32	0.446700	0.951600	0.644100
C571	C57	0.332000	0.912300	0.602400
O151	O15	0.344500	0.885700	0.618200
O161	O16	0.299100	0.919500	0.580900
C581	C58	0.930300	0.985500	0.158500
C591	C59	0.944800	0.010700	0.186900
H331	H33	0.970600	0.012300	0.202000
C601	C60	0.924000	0.033300	0.194100
H341	H34	0.935200	0.049400	0.214800
Br31	Br3	0.857550	0.064250	0.179000
C611	C61	0.886800	0.032300	0.171400
C621	C62	0.871100	0.008700	0.142300
H351	H35	0.845400	0.008000	0.126200
C631	C63	0.892400	0.985700	0.136200
H361	H36	0.880800	0.969400	0.116000
B31	B3	0.954500	0.958600	0.151400
O171	O17	0.971200	0.976800	0.121300
N71	N7	0.997800	0.960700	0.117100
C641	C64	0.019400	0.979000	0.106500
H371	H37	0.013500	0.000800	0.102000
C651	C65	0.052000	0.968200	0.101000
C661	C66	0.058900	0.936100	0.095400
C671	C67	0.089900	0.929700	0.087900
C681	C68	0.112100	0.955000	0.087600
H381	H38	0.132800	0.950300	0.082800
C691	C69	0.105800	0.986400	0.094000
C701	C70	0.075000	0.992100	0.100100
H391	H39	0.069300	0.013300	0.103900
C711	C71	0.100600	0.898300	0.082100
H401	H40	0.120800	0.896900	0.075400
N81	N8	0.086500	0.872300	0.084800
O181	O18	0.105200	0.845600	0.080100
B41	B4	0.096000	0.814600	0.093400
O191	O19	0.985200	0.951700	0.192100
N91	N9	0.009800	0.928900	0.192400
C721	C72	0.034400	0.922400	0.229700
H411	H41	0.033600	0.933600	0.253100
C731	C73	0.063700	0.899500	0.240100
C741	C74	0.068700	0.879800	0.209300
C751	C75	0.099100	0.858500	0.224400
C761	C76	0.121900	0.857000	0.268700
H421	H42	0.141400	0.842300	0.278700
C771	C77	0.117000	0.876100	0.298400
C781	C78	0.088200	0.897200	0.283800
H431	H43	0.084900	0.910400	0.304000
C791	C79	0.108300	0.838100	0.196800
H441	H44	0.128300	0.824300	0.210700
N101	N10	0.092300	0.836900	0.156100
O201	O20	0.107700	0.815700	0.138600
O211	O21	0.931600	0.934100	0.126500
N111	N11	0.947200	0.908800	0.114800
C801	C80	0.925900	0.885500	0.100100
H451	H45	0.902100	0.887800	0.098300
C811	C81	0.934000	0.855600	0.085800
C821	C82	0.967100	0.848900	0.082500
C831	C83	0.971300	0.817700	0.069700
C841	C84	0.944900	0.794500	0.062600
H461	H46	0.948800	0.773700	0.055000
C851	C85	0.913000	0.801000	0.066500
C861	C86	0.908200	0.831300	0.077700
H471	H47	0.886400	0.836100	0.080200
C871	C87	0.003300	0.807000	0.065000
H481	H48	0.002500	0.786700	0.053200
N121	N12	0.032400	0.823000	0.075700
O221	O22	0.058000	0.806600	0.068900
C881	C88	0.120200	0.788300	0.085000
C891	C89	0.151400	0.774900	0.116900
H491	H49	0.160100	0.783300	0.145200
C901	C90	0.110000	0.775200	0.044300
H501	H50	0.089000	0.783500	0.021000
C911	C91	0.170600	0.750100	0.110000
H511	H51	0.191200	0.741300	0.133200
C921	C92	0.128600	0.750900	0.036100
H521	H52	0.120400	0.742900	0.007800
Br41	Br4	0.185480	0.706000	0.057000
C931	C93	0.159100	0.738500	0.069100
O231	O23	0.038300	0.913400	0.097700
C941	C94	0.130900	0.012000	0.095600
C951	C95	0.132200	0.040700	0.115800
H531	H53	0.115700	0.044400	0.128000
C961	C96	0.156700	0.064000	0.118800
H541	H54	0.156900	0.083300	0.132900
C971	C97	0.181100	0.059600	0.101100
C981	C98	0.180400	0.030800	0.081400
H551	H55	0.197200	0.027100	0.069700
C991	C99	0.155800	0.007600	0.078500
H561	H56	0.155800	0.988200	0.064600
C1001	C100	0.207200	0.084800	0.102000
O241	O24	0.209200	0.109600	0.122300
O251	O25	0.045600	0.880500	0.168900
O261	O26	0.226600	0.078300	0.082400
C1011	C101	0.142400	0.874400	0.344800
C1021	C102	0.152300	0.900900	0.371400
H571	H57	0.142900	0.921000	0.359500
C1031	C103	0.175700	0.898600	0.414700
H581	H58	0.182500	0.917000	0.432100
C1041	C104	0.189200	0.869000	0.432800
C1051	C105	0.179700	0.842400	0.406100
H591	H59	0.189200	0.822400	0.417900
C1061	C106	0.156800	0.845100	0.362800
H601	H60	0.150800	0.826800	0.345000
C1071	C107	0.213100	0.865000	0.480400
O271	O27	0.992100	0.870300	0.090800
O281	O28	0.226400	0.889900	0.502700
O291	O29	0.220800	0.837400	0.494600
C1081	C108	0.886300	0.775400	0.061000
C1091	C109	0.898300	0.745100	0.077200
H611	H61	0.923400	0.740200	0.089000
C1101	C110	0.873700	0.722400	0.076200
H621	H62	0.882300	0.702000	0.087200
C1111	C111	0.836800	0.728700	0.059600
C1121	C112	0.824400	0.758400	0.042000
H631	H63	0.799100	0.763100	0.029800
C1131	C113	0.848800	0.781000	0.042300
H641	H64	0.839900	0.800900	0.029500
C1141	C114	0.810100	0.704200	0.060300
O301	O30	0.777500	0.711100	0.045300
O311	O31	0.823000	0.678100	0.076500
Zn91	Zn9	0.503740	0.411640	0.130000
Zn101	Zn10	0.548900	0.365070	0.111570
Zn111	Zn11	0.977400	0.631260	0.578730
Zn121	Zn12	0.019790	0.584040	0.555610
Zn131	Zn13	0.747340	0.321150	0.554120
Zn141	Zn14	0.757010	0.395480	0.563530
Zn151	Zn15	0.819380	0.347410	0.626910
Zn161	Zn16	0.744280	0.355050	0.633930
O321	O32	0.765500	0.355700	0.594200
C1151	C115	0.086200	0.508300	0.518500
C1161	C116	0.118700	0.515500	0.516200
H651	H65	0.127800	0.536500	0.522400
C1171	C117	0.138300	0.493400	0.505200
H661	H66	0.160600	0.499200	0.504600
Br51	Br5	0.150130	0.431620	0.478720
C1181	C118	0.125200	0.463000	0.495100
C1191	C119	0.093100	0.455500	0.496400
H671	H67	0.083800	0.434700	0.489300
C1201	C120	0.074000	0.477300	0.507700
H681	H68	0.051800	0.471100	0.508300
B51	B5	0.062400	0.532600	0.531100
O331	O33	0.089900	0.561800	0.554700
N131	N13	0.073300	0.586700	0.561300
C1211	C121	0.096300	0.612000	0.575000
H691	H69	0.120200	0.609100	0.577300
C1221	C122	0.087500	0.643800	0.586800
C1231	C123	0.056500	0.650400	0.593300
C1241	C124	0.052000	0.682000	0.604200
C1251	C125	0.078600	0.704800	0.608500
H701	H70	0.075900	0.725700	0.616500
C1261	C126	0.108600	0.697500	0.601300
C1271	C127	0.113100	0.666800	0.590700
H711	H71	0.133800	0.661400	0.586200
C1281	C128	0.021200	0.693200	0.610400
H721	H72	0.021200	0.714800	0.617600
N141	N14	0.994300	0.676800	0.607100
O341	O34	0.969800	0.693900	0.616400
B61	B6	0.933100	0.680500	0.602200
O351	O35	0.034100	0.544400	0.490700
N151	N15	0.010700	0.567700	0.492900
C1291	C129	0.985900	0.575900	0.456700
H731	H73	0.987000	0.566400	0.432400
C1301	C130	0.956100	0.597600	0.447200
C1311	C131	0.950000	0.614200	0.479800
C1321	C132	0.919300	0.635000	0.466300
C1331	C133	0.895900	0.638200	0.422100
H741	H74	0.875300	0.651700	0.413400
C1341	C134	0.902100	0.622000	0.391100
C1351	C135	0.932200	0.602100	0.403600
H751	H75	0.936700	0.591400	0.382200
C1361	C136	0.911000	0.654100	0.495700
H761	H76	0.889400	0.666400	0.483500
N161	N16	0.929700	0.656200	0.536200
O361	O36	0.914400	0.677200	0.555600
O371	O37	0.051600	0.519000	0.560600
N171	N17	0.028100	0.535700	0.572500
C1371	C137	0.009900	0.518300	0.586100
H771	H77	0.014100	0.496200	0.586600
C1381	C138	0.983500	0.528600	0.600900
C1391	C139	0.976200	0.561300	0.605600
C1401	C140	0.948700	0.567800	0.619700
C1411	C141	0.928500	0.543100	0.626300
H781	H78	0.910300	0.548000	0.635500
C1421	C142	0.934800	0.511800	0.619500
C1431	C143	0.962800	0.504900	0.608300
H791	H79	0.968000	0.483400	0.605400
C1441	C144	0.938900	0.599300	0.626800
H801	H80	0.922700	0.600900	0.639800
N181	N18	0.949600	0.625000	0.617500
O381	O38	0.933700	0.652200	0.626400
C1451	C145	0.911200	0.706500	0.614800
C1461	C146	0.913100	0.709400	0.656100
H811	H81	0.928000	0.695000	0.677600
C1471	C147	0.894200	0.732100	0.666900
H821	H82	0.895800	0.732600	0.695200
Br61	Br6	0.845000	0.784090	0.650100
C1481	C148	0.873400	0.753900	0.637200
C1491	C149	0.871400	0.752900	0.596500
H831	H83	0.857900	0.768400	0.575800
C1501	C150	0.889500	0.729200	0.586000
H841	H84	0.886900	0.728300	0.557300
O391	O39	0.032200	0.628800	0.587700
C1511	C151	0.134100	0.722500	0.601300
C1521	C152	0.144400	0.724200	0.567900
H851	H85	0.136400	0.708500	0.546100
C1531	C153	0.166400	0.748600	0.566300
H861	H86	0.172400	0.750000	0.542700
C1541	C154	0.179700	0.771200	0.598800
C1551	C155	0.170300	0.768700	0.632900
H871	H87	0.179900	0.783400	0.655900
C1561	C156	0.147400	0.745200	0.633700
H881	H88	0.140500	0.744500	0.656700
C1571	C157	0.203000	0.798100	0.596700
O401	O40	0.210400	0.798500	0.564800
O411	O41	0.971900	0.610000	0.521000
O421	O42	0.213800	0.817200	0.626900
C1581	C158	0.878300	0.626200	0.344400
C1591	C159	0.891700	0.623100	0.313700
H891	H89	0.916500	0.617700	0.322800
C1601	C160	0.869700	0.627700	0.270400
H901	H90	0.879700	0.626300	0.250300
C1611	C161	0.832700	0.634600	0.256200
C1621	C162	0.819100	0.637300	0.286400
H911	H91	0.794000	0.641600	0.277300
C1631	C163	0.841700	0.633700	0.330100
H921	H92	0.832100	0.636500	0.350500
C1641	C164	0.808300	0.637500	0.208700
O431	O43	0.994900	0.584300	0.598800
O441	O44	0.822700	0.633400	0.183100
O451	O45	0.775300	0.642500	0.194800
C1651	C165	0.909600	0.486500	0.619600
C1661	C166	0.872800	0.493300	0.604800
H931	H93	0.864500	0.514400	0.598000
C1671	C167	0.848400	0.469300	0.600100
H941	H94	0.823300	0.474200	0.589200
C1681	C168	0.859900	0.438200	0.611000
C1691	C169	0.897200	0.431800	0.628200
H951	H95	0.906000	0.411000	0.637000
C1701	C170	0.921400	0.456000	0.632300
H961	H96	0.946700	0.451600	0.644100
C1711	C171	0.832000	0.412300	0.602400
O461	O46	0.844500	0.385700	0.618200
O471	O47	0.799100	0.419500	0.580900
C1721	C172	0.430300	0.485500	0.158500
C1731	C173	0.444800	0.510700	0.186900
H971	H97	0.470600	0.512300	0.202000
C1741	C174	0.424000	0.533300	0.194100
H981	H98	0.435200	0.549400	0.214800
Br71	Br7	0.357550	0.564250	0.179000
C1751	C175	0.386800	0.532300	0.171400
C1761	C176	0.371100	0.508700	0.142300
H991	H99	0.345400	0.508000	0.126200
C1771	C177	0.392400	0.485700	0.136200
H1001	H100	0.380800	0.469400	0.116000
B71	B7	0.454500	0.458600	0.151400
O481	O48	0.471200	0.476800	0.121300
N191	N19	0.497800	0.460700	0.117100
C1781	C178	0.519400	0.479000	0.106500
H1011	H101	0.513500	0.500800	0.102000
C1791	C179	0.552000	0.468200	0.101000
C1801	C180	0.558900	0.436100	0.095400
C1811	C181	0.589900	0.429700	0.087900
C1821	C182	0.612100	0.455000	0.087600
H1021	H102	0.632800	0.450300	0.082800
C1831	C183	0.605800	0.486400	0.094000
C1841	C184	0.575000	0.492100	0.100100
H1031	H103	0.569300	0.513300	0.103900
C1851	C185	0.600600	0.398300	0.082100
H1041	H104	0.620800	0.396900	0.075400
N201	N20	0.586500	0.372300	0.084800
O491	O49	0.605200	0.345600	0.080100
B81	B8	0.596000	0.314600	0.093400
O501	O50	0.485200	0.451700	0.192100
N211	N21	0.509800	0.428900	0.192400
C1861	C186	0.534400	0.422400	0.229700
H1051	H105	0.533600	0.433600	0.253100
C1871	C187	0.563700	0.399500	0.240100
C1881	C188	0.568700	0.379800	0.209300
C1891	C189	0.599100	0.358500	0.224400
C1901	C190	0.621900	0.357000	0.268700
H1061	H106	0.641400	0.342300	0.278700
C1911	C191	0.617000	0.376100	0.298400
C1921	C192	0.588200	0.397200	0.283800
H1071	H107	0.584900	0.410400	0.304000
C1931	C193	0.608300	0.338100	0.196800
H1081	H108	0.628300	0.324300	0.210700
N221	N22	0.592300	0.336900	0.156100
O511	O51	0.607700	0.315700	0.138600
O521	O52	0.431600	0.434100	0.126500
N231	N23	0.447200	0.408800	0.114800
C1941	C194	0.425900	0.385500	0.100100
H1091	H109	0.402100	0.387800	0.098300
C1951	C195	0.434000	0.355600	0.085800
C1961	C196	0.467100	0.348900	0.082500
C1971	C197	0.471300	0.317700	0.069700
C1981	C198	0.444900	0.294500	0.062600
H1101	H110	0.448800	0.273700	0.055000
C1991	C199	0.413000	0.301000	0.066500
C2001	C200	0.408200	0.331300	0.077700
H1111	H111	0.386400	0.336100	0.080200
C2011	C201	0.503300	0.307000	0.065000
H1121	H112	0.502500	0.286700	0.053200
N241	N24	0.532400	0.323000	0.075700
O531	O53	0.558000	0.306600	0.068900
C2021	C202	0.620200	0.288300	0.085000
C2031	C203	0.651400	0.274900	0.116900
H1131	H113	0.660100	0.283300	0.145200
C2041	C204	0.610000	0.275200	0.044300
H1141	H114	0.589000	0.283500	0.021000
C2051	C205	0.670600	0.250100	0.110000
H1151	H115	0.691200	0.241300	0.133200
C2061	C206	0.628600	0.250900	0.036100
H1161	H116	0.620400	0.242900	0.007800
Br81	Br8	0.685480	0.206000	0.057000
C2071	C207	0.659100	0.238500	0.069100
O541	O54	0.538300	0.413400	0.097700
C2081	C208	0.630900	0.512000	0.095600
C2091	C209	0.632200	0.540700	0.115800
H1171	H117	0.615700	0.544400	0.128000
C2101	C210	0.656700	0.564000	0.118800
H1181	H118	0.656900	0.583300	0.132900
C2111	C211	0.681100	0.559600	0.101100
C2121	C212	0.680400	0.530800	0.081400
H1191	H119	0.697200	0.527100	0.069700
C2131	C213	0.655800	0.507600	0.078500
H1201	H120	0.655800	0.488200	0.064600
C2141	C214	0.707200	0.584800	0.102000
O551	O55	0.709200	0.609600	0.122300
O561	O56	0.545600	0.380500	0.168900
O571	O57	0.726600	0.578300	0.082400
C2151	C215	0.642400	0.374400	0.344800
C2161	C216	0.652300	0.400900	0.371400
H1211	H121	0.642900	0.421000	0.359500
C2171	C217	0.675700	0.398600	0.414700
H1221	H122	0.682500	0.417000	0.432100
C2181	C218	0.689200	0.369000	0.432800
C2191	C219	0.679700	0.342400	0.406100
H1231	H123	0.689200	0.322400	0.417900
C2201	C220	0.656800	0.345100	0.362800
H1241	H124	0.650800	0.326800	0.345000
C2211	C221	0.713100	0.365000	0.480400
O581	O58	0.492100	0.370300	0.090800
O591	O59	0.726400	0.389900	0.502700
O601	O60	0.720800	0.337400	0.494600
C2221	C222	0.386300	0.275400	0.061000
C2231	C223	0.398300	0.245100	0.077200
H1251	H125	0.423400	0.240200	0.089000
C2241	C224	0.373700	0.222400	0.076200
H1261	H126	0.382300	0.202000	0.087200
C2251	C225	0.336800	0.228700	0.059600
C2261	C226	0.324400	0.258400	0.042000
H1271	H127	0.299100	0.263100	0.029800
C2271	C227	0.348800	0.281000	0.042300
H1281	H128	0.339900	0.300900	0.029500
C2281	C228	0.310100	0.204200	0.060300
O611	O61	0.277500	0.211100	0.045300
O621	O62	0.323000	0.178100	0.076500
Zn171	Zn17	0.003740	0.088360	0.630000
Zn181	Zn18	0.048900	0.134930	0.611570
Zn191	Zn19	0.477400	0.868740	0.078730
Zn201	Zn20	0.519790	0.915960	0.055610
Zn211	Zn21	0.247340	0.178850	0.054120
Zn221	Zn22	0.257010	0.104520	0.063530
Zn231	Zn23	0.319380	0.152590	0.126910
Zn241	Zn24	0.244280	0.144950	0.133930
O631	O63	0.265500	0.144300	0.094200
C2291	C229	0.586200	0.991700	0.018500
C2301	C230	0.618700	0.984500	0.016200
H1291	H129	0.627800	0.963500	0.022400
C2311	C231	0.638300	0.006600	0.005200
H1301	H130	0.660600	0.000800	0.004600
Br91	Br9	0.650130	0.068380	0.978720
C2321	C232	0.625200	0.037000	0.995100
C2331	C233	0.593100	0.044500	0.996400
H1311	H131	0.583800	0.065300	0.989300
C2341	C234	0.574000	0.022700	0.007700
H1321	H132	0.551800	0.028900	0.008300
B91	B9	0.562400	0.967400	0.031100
O641	O64	0.589900	0.938200	0.054700
N251	N25	0.573300	0.913300	0.061300
C2351	C235	0.596300	0.888000	0.075000
H1331	H133	0.620200	0.890900	0.077300
C2361	C236	0.587500	0.856200	0.086800
C2371	C237	0.556500	0.849600	0.093300
C2381	C238	0.552000	0.818000	0.104200
C2391	C239	0.578600	0.795200	0.108500
H1341	H134	0.575900	0.774300	0.116500
C2401	C240	0.608600	0.802500	0.101300
C2411	C241	0.613100	0.833200	0.090700
H1351	H135	0.633800	0.838600	0.086200
C2421	C242	0.521200	0.806800	0.110400
H1361	H136	0.521200	0.785200	0.117600
N261	N26	0.494300	0.823200	0.107100
O651	O65	0.469800	0.806100	0.116400
B101	B10	0.433100	0.819500	0.102200
O661	O66	0.534100	0.955600	0.990700
N271	N27	0.510700	0.932300	0.992900
C2431	C243	0.485900	0.924100	0.956700
H1371	H137	0.487000	0.933600	0.932400
C2441	C244	0.456100	0.902400	0.947200
C2451	C245	0.450000	0.885800	0.979800
C2461	C246	0.419300	0.865000	0.966300
C2471	C247	0.395900	0.861800	0.922100
H1381	H138	0.375300	0.848300	0.913400
C2481	C248	0.402100	0.878000	0.891100
C2491	C249	0.432200	0.897900	0.903600
H1391	H139	0.436700	0.908600	0.882200
C2501	C250	0.411000	0.845900	0.995700
H1401	H140	0.389400	0.833600	0.983500
N281	N28	0.429700	0.843800	0.036200
O671	O67	0.414400	0.822800	0.055600
O681	O68	0.551600	0.981000	0.060600
N291	N29	0.528100	0.964300	0.072500
C2511	C251	0.509900	0.981700	0.086100
H1411	H141	0.514100	0.003800	0.086600
C2521	C252	0.483500	0.971400	0.100900
C2531	C253	0.476200	0.938700	0.105600
C2541	C254	0.448700	0.932200	0.119700
C2551	C255	0.428500	0.956900	0.126300
H1421	H142	0.410300	0.952000	0.135500
C2561	C256	0.434800	0.988200	0.119500
C2571	C257	0.462800	0.995100	0.108300
H1431	H143	0.468000	0.016600	0.105400
C2581	C258	0.438900	0.900700	0.126800
H1441	H144	0.422700	0.899100	0.139800
N301	N30	0.449600	0.875000	0.117500
O691	O69	0.433700	0.847800	0.126400
C2591	C259	0.411200	0.793500	0.114800
C2601	C260	0.413100	0.790600	0.156100
H1451	H145	0.428000	0.805000	0.177600
C2611	C261	0.394200	0.767900	0.166900
H1461	H146	0.395800	0.767400	0.195200
Br101	Br10	0.345000	0.715910	0.150100
C2621	C262	0.373400	0.746100	0.137200
C2631	C263	0.371400	0.747100	0.096500
H1471	H147	0.357900	0.731600	0.075800
C2641	C264	0.389500	0.770800	0.086000
H1481	H148	0.386900	0.771700	0.057300
O701	O70	0.532200	0.871200	0.087700
C2651	C265	0.634100	0.777500	0.101300
C2661	C266	0.644400	0.775800	0.067900
H1491	H149	0.636400	0.791500	0.046100
C2671	C267	0.666400	0.751400	0.066300
H1501	H150	0.672400	0.750000	0.042700
C2681	C268	0.679700	0.728800	0.098800
C2691	C269	0.670300	0.731300	0.132900
H1511	H151	0.679900	0.716600	0.155900
C2701	C270	0.647400	0.754800	0.133700
H1521	H152	0.640500	0.755500	0.156700
C2711	C271	0.703000	0.701900	0.096700
O711	O71	0.710400	0.701500	0.064800
O721	O72	0.471900	0.890000	0.021000
O731	O73	0.713800	0.682800	0.126900
C2721	C272	0.378300	0.873800	0.844400
C2731	C273	0.391700	0.876900	0.813700
H1531	H153	0.416500	0.882300	0.822800
C2741	C274	0.369700	0.872300	0.770400
H1541	H154	0.379700	0.873700	0.750300
C2751	C275	0.332700	0.865400	0.756200
C2761	C276	0.319100	0.862700	0.786400
H1551	H155	0.294000	0.858400	0.777300
C2771	C277	0.341700	0.866300	0.830100
H1561	H156	0.332100	0.863500	0.850500
C2781	C278	0.308300	0.862500	0.708700
O741	O74	0.494900	0.915700	0.098800
O751	O75	0.322700	0.866600	0.683100
O761	O76	0.275300	0.857500	0.694800
C2791	C279	0.409600	0.013500	0.119600
C2801	C280	0.372800	0.006700	0.104800
H1571	H157	0.364500	0.985600	0.098000
C2811	C281	0.348400	0.030700	0.100100
H1581	H158	0.323300	0.025800	0.089200
C2821	C282	0.359900	0.061800	0.111000
C2831	C283	0.397200	0.068200	0.128200
H1591	H159	0.406000	0.089000	0.137000
C2841	C284	0.421400	0.044000	0.132300
H1601	H160	0.446700	0.048400	0.144100
C2851	C285	0.332000	0.087700	0.102400
O771	O77	0.344500	0.114300	0.118200
O781	O78	0.299100	0.080500	0.080900
C2861	C286	0.930300	0.014500	0.658500
C2871	C287	0.944800	0.989300	0.686900
H1611	H161	0.970600	0.987700	0.702000
C2881	C288	0.924000	0.966700	0.694100
H1621	H162	0.935200	0.950600	0.714800
Br111	Br11	0.857550	0.935750	0.679000
C2891	C289	0.886800	0.967700	0.671400
C2901	C290	0.871100	0.991300	0.642300
H1631	H163	0.845400	0.992000	0.626200
C2911	C291	0.892400	0.014300	0.636200
H1641	H164	0.880800	0.030600	0.616000
B111	B11	0.954500	0.041400	0.651400
O791	O79	0.971200	0.023200	0.621300
N311	N31	0.997800	0.039300	0.617100
C2921	C292	0.019400	0.021000	0.606500
H1651	H165	0.013500	0.999200	0.602000
C2931	C293	0.052000	0.031800	0.601000
C2941	C294	0.058900	0.063900	0.595400
C2951	C295	0.089900	0.070300	0.587900
C2961	C296	0.112100	0.045000	0.587600
H1661	H166	0.132800	0.049700	0.582800
C2971	C297	0.105800	0.013600	0.594000
C2981	C298	0.075000	0.007900	0.600100
H1671	H167	0.069300	0.986700	0.603900
C2991	C299	0.100600	0.101700	0.582100
H1681	H168	0.120800	0.103100	0.575400
N321	N32	0.086500	0.127700	0.584800
O801	O80	0.105200	0.154400	0.580100
B121	B12	0.096000	0.185400	0.593400
O811	O81	0.985200	0.048300	0.692100
N331	N33	0.009800	0.071100	0.692400
C3001	C300	0.034400	0.077600	0.729700
H1691	H169	0.033600	0.066400	0.753100
C3011	C301	0.063700	0.100500	0.740100
C3021	C302	0.068700	0.120200	0.709300
C3031	C303	0.099100	0.141500	0.724400
C3041	C304	0.121900	0.143000	0.768700
H1701	H170	0.141400	0.157700	0.778700
C3051	C305	0.117000	0.123900	0.798400
C3061	C306	0.088200	0.102800	0.783800
H1711	H171	0.084900	0.089600	0.804000
C3071	C307	0.108300	0.161900	0.696800
H1721	H172	0.128300	0.175700	0.710700
N341	N34	0.092300	0.163100	0.656100
O821	O82	0.107700	0.184300	0.638600
O831	O83	0.931600	0.065900	0.626500
N351	N35	0.947200	0.091200	0.614800
C3081	C308	0.925900	0.114500	0.600100
H1731	H173	0.902100	0.112200	0.598300
C3091	C309	0.934000	0.144400	0.585800
C3101	C310	0.967100	0.151100	0.582500
C3111	C311	0.971300	0.182300	0.569700
C3121	C312	0.944900	0.205500	0.562600
H1741	H174	0.948800	0.226300	0.555000
C3131	C313	0.913000	0.199000	0.566500
C3141	C314	0.908200	0.168700	0.577700
H1751	H175	0.886400	0.163900	0.580200
C3151	C315	0.003300	0.193000	0.565000
H1761	H176	0.002500	0.213300	0.553200
N361	N36	0.032400	0.177000	0.575700
O841	O84	0.058000	0.193400	0.568900
C3161	C316	0.120200	0.211700	0.585000
C3171	C317	0.151400	0.225100	0.616900
H1771	H177	0.160100	0.216700	0.645200
C3181	C318	0.110000	0.224800	0.544300
H1781	H178	0.089000	0.216500	0.521000
C3191	C319	0.170600	0.249900	0.610000
H1791	H179	0.191200	0.258700	0.633200
C3201	C320	0.128600	0.249100	0.536100
H1801	H180	0.120400	0.257100	0.507800
Br121	Br12	0.185480	0.294000	0.557000
C3211	C321	0.159100	0.261500	0.569100
O851	O85	0.038300	0.086600	0.597700
C3221	C322	0.130900	0.988000	0.595600
C3231	C323	0.132200	0.959300	0.615800
H1811	H181	0.115700	0.955600	0.628000
C3241	C324	0.156700	0.936000	0.618800
H1821	H182	0.156900	0.916700	0.632900
C3251	C325	0.181100	0.940400	0.601100
C3261	C326	0.180400	0.969200	0.581400
H1831	H183	0.197200	0.972900	0.569700
C3271	C327	0.155800	0.992400	0.578500
H1841	H184	0.155800	0.011800	0.564600
C3281	C328	0.207200	0.915200	0.602000
O861	O86	0.209200	0.890400	0.622300
O871	O87	0.045600	0.119500	0.668900
O881	O88	0.226600	0.921700	0.582400
C3291	C329	0.142400	0.125600	0.844800
C3301	C330	0.152300	0.099100	0.871400
H1851	H185	0.142900	0.079000	0.859500
C3311	C331	0.175700	0.101400	0.914700
H1861	H186	0.182500	0.083000	0.932100
C3321	C332	0.189200	0.131000	0.932800
C3331	C333	0.179700	0.157600	0.906100
H1871	H187	0.189200	0.177600	0.917900
C3341	C334	0.156800	0.154900	0.862800
H1881	H188	0.150800	0.173200	0.845000
C3351	C335	0.213100	0.135000	0.980400
O891	O89	0.992100	0.129700	0.590800
O901	O90	0.226400	0.110100	0.002700
O911	O91	0.220800	0.162600	0.994600
C3361	C336	0.886300	0.224600	0.561000
C3371	C337	0.898300	0.254900	0.577200
H1891	H189	0.923400	0.259800	0.589000
C3381	C338	0.873700	0.277600	0.576200
H1901	H190	0.882300	0.298000	0.587200
C3391	C339	0.836800	0.271300	0.559600
C3401	C340	0.824400	0.241600	0.542000
H1911	H191	0.799100	0.236900	0.529800
C3411	C341	0.848800	0.219000	0.542300
H1921	H192	0.839900	0.199100	0.529500
C3421	C342	0.810100	0.295800	0.560300
O921	O92	0.777500	0.288900	0.545300
O931	O93	0.823000	0.321900	0.576500
Zn251	Zn25	0.503740	0.588360	0.630000
Zn261	Zn26	0.548900	0.634930	0.611570
Zn271	Zn27	0.977400	0.368740	0.078730
Zn281	Zn28	0.019790	0.415960	0.055610
Zn291	Zn29	0.747340	0.678850	0.054120
Zn301	Zn30	0.757010	0.604520	0.063530
Zn311	Zn31	0.819380	0.652590	0.126910
Zn321	Zn32	0.744280	0.644950	0.133930
O941	O94	0.765500	0.644300	0.094200
C3431	C343	0.086200	0.491700	0.018500
C3441	C344	0.118700	0.484500	0.016200
H1931	H193	0.127800	0.463500	0.022400
C3451	C345	0.138300	0.506600	0.005200
H1941	H194	0.160600	0.500800	0.004600
Br131	Br13	0.150130	0.568380	0.978720
C3461	C346	0.125200	0.537000	0.995100
C3471	C347	0.093100	0.544500	0.996400
H1951	H195	0.083800	0.565300	0.989300
C3481	C348	0.074000	0.522700	0.007700
H1961	H196	0.051800	0.528900	0.008300
B131	B13	0.062400	0.467400	0.031100
O951	O95	0.089900	0.438200	0.054700
N371	N37	0.073300	0.413300	0.061300
C3491	C349	0.096300	0.388000	0.075000
H1971	H197	0.120200	0.390900	0.077300
C3501	C350	0.087500	0.356200	0.086800
C3511	C351	0.056500	0.349600	0.093300
C3521	C352	0.052000	0.318000	0.104200
C3531	C353	0.078600	0.295200	0.108500
H1981	H198	0.075900	0.274300	0.116500
C3541	C354	0.108600	0.302500	0.101300
C3551	C355	0.113100	0.333200	0.090700
H1991	H199	0.133800	0.338600	0.086200
C3561	C356	0.021200	0.306800	0.110400
H2001	H200	0.021200	0.285200	0.117600
N381	N38	0.994300	0.323200	0.107100
O961	O96	0.969800	0.306100	0.116400
B141	B14	0.933100	0.319500	0.102200
O971	O97	0.034100	0.455600	0.990700
N391	N39	0.010700	0.432300	0.992900
C3571	C357	0.985900	0.424100	0.956700
H2011	H201	0.987000	0.433600	0.932400
C3581	C358	0.956100	0.402400	0.947200
C3591	C359	0.950000	0.385800	0.979800
C3601	C360	0.919300	0.365000	0.966300
C3611	C361	0.895900	0.361800	0.922100
H2021	H202	0.875300	0.348300	0.913400
C3621	C362	0.902100	0.378000	0.891100
C3631	C363	0.932200	0.397900	0.903600
H2031	H203	0.936700	0.408600	0.882200
C3641	C364	0.911000	0.345900	0.995700
H2041	H204	0.889400	0.333600	0.983500
N401	N40	0.929700	0.343800	0.036200
O981	O98	0.914400	0.322800	0.055600
O991	O99	0.051600	0.481000	0.060600
N411	N41	0.028100	0.464300	0.072500
C3651	C365	0.009900	0.481700	0.086100
H2051	H205	0.014100	0.503800	0.086600
C3661	C366	0.983500	0.471400	0.100900
C3671	C367	0.976200	0.438700	0.105600
C3681	C368	0.948700	0.432200	0.119700
C3691	C369	0.928500	0.456900	0.126300
H2061	H206	0.910300	0.452000	0.135500
C3701	C370	0.934800	0.488200	0.119500
C3711	C371	0.962800	0.495100	0.108300
H2071	H207	0.968000	0.516600	0.105400
C3721	C372	0.938900	0.400700	0.126800
H2081	H208	0.922700	0.399100	0.139800
N421	N42	0.949600	0.375000	0.117500
O1001	O100	0.933700	0.347800	0.126400
C3731	C373	0.911200	0.293500	0.114800
C3741	C374	0.913100	0.290600	0.156100
H2091	H209	0.928000	0.305000	0.177600
C3751	C375	0.894200	0.267900	0.166900
H2101	H210	0.895800	0.267400	0.195200
Br141	Br14	0.845000	0.215910	0.150100
C3761	C376	0.873400	0.246100	0.137200
C3771	C377	0.871400	0.247100	0.096500
H2111	H211	0.857900	0.231600	0.075800
C3781	C378	0.889500	0.270800	0.086000
H2121	H212	0.886900	0.271700	0.057300
O1011	O101	0.032200	0.371200	0.087700
C3791	C379	0.134100	0.277500	0.101300
C3801	C380	0.144400	0.275800	0.067900
H2131	H213	0.136400	0.291500	0.046100
C3811	C381	0.166400	0.251400	0.066300
H2141	H214	0.172400	0.250000	0.042700
C3821	C382	0.179700	0.228800	0.098800
C3831	C383	0.170300	0.231300	0.132900
H2151	H215	0.179900	0.216600	0.155900
C3841	C384	0.147400	0.254800	0.133700
H2161	H216	0.140500	0.255500	0.156700
C3851	C385	0.203000	0.201900	0.096700
O1021	O102	0.210400	0.201500	0.064800
O1031	O103	0.971900	0.390000	0.021000
O1041	O104	0.213800	0.182800	0.126900
C3861	C386	0.878300	0.373800	0.844400
C3871	C387	0.891700	0.376900	0.813700
H2171	H217	0.916500	0.382300	0.822800
C3881	C388	0.869700	0.372300	0.770400
H2181	H218	0.879700	0.373700	0.750300
C3891	C389	0.832700	0.365400	0.756200
C3901	C390	0.819100	0.362700	0.786400
H2191	H219	0.794000	0.358400	0.777300
C3911	C391	0.841700	0.366300	0.830100
H2201	H220	0.832100	0.363500	0.850500
C3921	C392	0.808300	0.362500	0.708700
O1051	O105	0.994900	0.415700	0.098800
O1061	O106	0.822700	0.366600	0.683100
O1071	O107	0.775300	0.357500	0.694800
C3931	C393	0.909600	0.513500	0.119600
C3941	C394	0.872800	0.506700	0.104800
H2211	H221	0.864500	0.485600	0.098000
C3951	C395	0.848400	0.530700	0.100100
H2221	H222	0.823300	0.525800	0.089200
C3961	C396	0.859900	0.561800	0.111000
C3971	C397	0.897200	0.568200	0.128200
H2231	H223	0.906000	0.589000	0.137000
C3981	C398	0.921400	0.544000	0.132300
H2241	H224	0.946700	0.548400	0.144100
C3991	C399	0.832000	0.587700	0.102400
O1081	O108	0.844500	0.614300	0.118200
O1091	O109	0.799100	0.580500	0.080900
C4001	C400	0.430300	0.514500	0.658500
C4011	C401	0.444800	0.489300	0.686900
H2251	H225	0.470600	0.487700	0.702000
C4021	C402	0.424000	0.466700	0.694100
H2261	H226	0.435200	0.450600	0.714800
Br151	Br15	0.357550	0.435750	0.679000
C4031	C403	0.386800	0.467700	0.671400
C4041	C404	0.371100	0.491300	0.642300
H2271	H227	0.345400	0.492000	0.626200
C4051	C405	0.392400	0.514300	0.636200
H2281	H228	0.380800	0.530600	0.616000
B151	B15	0.454500	0.541400	0.651400
O1101	O110	0.471200	0.523200	0.621300
N431	N43	0.497800	0.539300	0.617100
C4061	C406	0.519400	0.521000	0.606500
H2291	H229	0.513500	0.499200	0.602000
C4071	C407	0.552000	0.531800	0.601000
C4081	C408	0.558900	0.563900	0.595400
C4091	C409	0.589900	0.570300	0.587900
C4101	C410	0.612100	0.545000	0.587600
H2301	H230	0.632800	0.549700	0.582800
C4111	C411	0.605800	0.513600	0.594000
C4121	C412	0.575000	0.507900	0.600100
H2311	H231	0.569300	0.486700	0.603900
C4131	C413	0.600600	0.601700	0.582100
H2321	H232	0.620800	0.603100	0.575400
N441	N44	0.586500	0.627700	0.584800
O1111	O111	0.605200	0.654400	0.580100
B161	B16	0.596000	0.685400	0.593400
O1121	O112	0.485200	0.548300	0.692100
N451	N45	0.509800	0.571100	0.692400
C4141	C414	0.534400	0.577600	0.729700
H2331	H233	0.533600	0.566400	0.753100
C4151	C415	0.563700	0.600500	0.740100
C4161	C416	0.568700	0.620200	0.709300
C4171	C417	0.599100	0.641500	0.724400
C4181	C418	0.621900	0.643000	0.768700
H2341	H234	0.641400	0.657700	0.778700
C4191	C419	0.617000	0.623900	0.798400
C4201	C420	0.588200	0.602800	0.783800
H2351	H235	0.584900	0.589600	0.804000
C4211	C421	0.608300	0.661900	0.696800
H2361	H236	0.628300	0.675700	0.710700
N461	N46	0.592300	0.663100	0.656100
O1131	O113	0.607700	0.684300	0.638600
O1141	O114	0.431600	0.565900	0.626500
N471	N47	0.447200	0.591200	0.614800
C4221	C422	0.425900	0.614500	0.600100
H2371	H237	0.402100	0.612200	0.598300
C4231	C423	0.434000	0.644400	0.585800
C4241	C424	0.467100	0.651100	0.582500
C4251	C425	0.471300	0.682300	0.569700
C4261	C426	0.444900	0.705500	0.562600
H2381	H238	0.448800	0.726300	0.555000
C4271	C427	0.413000	0.699000	0.566500
C4281	C428	0.408200	0.668700	0.577700
H2391	H239	0.386400	0.663900	0.580200
C4291	C429	0.503300	0.693000	0.565000
H2401	H240	0.502500	0.713300	0.553200
N481	N48	0.532400	0.677000	0.575700
O1151	O115	0.558000	0.693400	0.568900
C4301	C430	0.620200	0.711700	0.585000
C4311	C431	0.651400	0.725100	0.616900
H2411	H241	0.660100	0.716700	0.645200
C4321	C432	0.610000	0.724800	0.544300
H2421	H242	0.589000	0.716500	0.521000
C4331	C433	0.670600	0.749900	0.610000
H2431	H243	0.691200	0.758700	0.633200
C4341	C434	0.628600	0.749100	0.536100
H2441	H244	0.620400	0.757100	0.507800
Br161	Br16	0.685480	0.794000	0.557000
C4351	C435	0.659100	0.761500	0.569100
O1161	O116	0.538300	0.586600	0.597700
C4361	C436	0.630900	0.488000	0.595600
C4371	C437	0.632200	0.459300	0.615800
H2451	H245	0.615700	0.455600	0.628000
C4381	C438	0.656700	0.436000	0.618800
H2461	H246	0.656900	0.416700	0.632900
C4391	C439	0.681100	0.440400	0.601100
C4401	C440	0.680400	0.469200	0.581400
H2471	H247	0.697200	0.472900	0.569700
C4411	C441	0.655800	0.492400	0.578500
H2481	H248	0.655800	0.511800	0.564600
C4421	C442	0.707200	0.415200	0.602000
O1171	O117	0.709200	0.390400	0.622300
O1181	O118	0.545600	0.619500	0.668900
O1191	O119	0.726600	0.421700	0.582400
C4431	C443	0.642400	0.625600	0.844800
C4441	C444	0.652300	0.599100	0.871400
H2491	H249	0.642900	0.579000	0.859500
C4451	C445	0.675700	0.601400	0.914700
H2501	H250	0.682500	0.583000	0.932100
C4461	C446	0.689200	0.631000	0.932800
C4471	C447	0.679700	0.657600	0.906100
H2511	H251	0.689200	0.677600	0.917900
C4481	C448	0.656800	0.654900	0.862800
H2521	H252	0.650800	0.673200	0.845000
C4491	C449	0.713100	0.635000	0.980400
O1201	O120	0.492100	0.629700	0.590800
O1211	O121	0.726400	0.610100	0.002700
O1221	O122	0.720800	0.662600	0.994600
C4501	C450	0.386300	0.724600	0.561000
C4511	C451	0.398300	0.754900	0.577200
H2531	H253	0.423400	0.759800	0.589000
C4521	C452	0.373700	0.777600	0.576200
H2541	H254	0.382300	0.798000	0.587200
C4531	C453	0.336800	0.771300	0.559600
C4541	C454	0.324400	0.741600	0.542000
H2551	H255	0.299100	0.736900	0.529800
C4551	C455	0.348800	0.719000	0.542300
H2561	H256	0.339900	0.699100	0.529500
C4561	C456	0.310100	0.795800	0.560300
O1231	O123	0.277500	0.788900	0.545300
O1241	O124	0.323000	0.821900	0.576500
Zn331	Zn33	0.996260	0.911640	0.370000
Zn341	Zn34	0.951100	0.865070	0.388430
Zn351	Zn35	0.522600	0.131260	0.921270
Zn361	Zn36	0.480210	0.084040	0.944390
Zn371	Zn37	0.752660	0.821150	0.945880
Zn381	Zn38	0.742990	0.895480	0.936470
Zn391	Zn39	0.680620	0.847410	0.873090
Zn401	Zn40	0.755720	0.855050	0.866070
O1251	O125	0.734500	0.855700	0.905800
C4571	C457	0.413800	0.008300	0.981500
C4581	C458	0.381300	0.015500	0.983800
H2571	H257	0.372200	0.036500	0.977600
C4591	C459	0.361700	0.993400	0.994800
H2581	H258	0.339400	0.999200	0.995400
Br171	Br17	0.349870	0.931620	0.021280
C4601	C460	0.374800	0.963000	0.004900
C4611	C461	0.406900	0.955500	0.003600
H2591	H259	0.416200	0.934700	0.010700
C4621	C462	0.426000	0.977300	0.992300
H2601	H260	0.448200	0.971100	0.991700
B171	B17	0.437600	0.032600	0.968900
O1261	O126	0.410100	0.061800	0.945300
N491	N49	0.426700	0.086700	0.938700
C4631	C463	0.403700	0.112000	0.925000
H2611	H261	0.379800	0.109100	0.922700
C4641	C464	0.412500	0.143800	0.913200
C4651	C465	0.443500	0.150400	0.906700
C4661	C466	0.448000	0.182000	0.895800
C4671	C467	0.421400	0.204800	0.891500
H2621	H262	0.424100	0.225700	0.883500
C4681	C468	0.391400	0.197500	0.898700
C4691	C469	0.386900	0.166800	0.909300
H2631	H263	0.366200	0.161400	0.913800
C4701	C470	0.478800	0.193200	0.889600
H2641	H264	0.478800	0.214800	0.882400
N501	N50	0.505700	0.176800	0.892900
O1271	O127	0.530200	0.193900	0.883600
B181	B18	0.566900	0.180500	0.897800
O1281	O128	0.465900	0.044400	0.009300
N511	N51	0.489300	0.067700	0.007100
C4711	C471	0.514100	0.075900	0.043300
H2651	H265	0.513000	0.066400	0.067600
C4721	C472	0.543900	0.097600	0.052800
C4731	C473	0.550000	0.114200	0.020200
C4741	C474	0.580700	0.135000	0.033700
C4751	C475	0.604100	0.138200	0.077900
H2661	H266	0.624700	0.151700	0.086600
C4761	C476	0.597900	0.122000	0.108900
C4771	C477	0.567800	0.102100	0.096400
H2671	H267	0.563300	0.091400	0.117800
C4781	C478	0.589000	0.154100	0.004300
H2681	H268	0.610600	0.166400	0.016500
N521	N52	0.570300	0.156200	0.963800
O1291	O129	0.585600	0.177200	0.944400
O1301	O130	0.448400	0.019000	0.939400
N531	N53	0.471900	0.035700	0.927500
C4791	C479	0.490100	0.018300	0.913900
H2691	H269	0.485900	0.996200	0.913400
C4801	C480	0.516500	0.028600	0.899100
C4811	C481	0.523800	0.061300	0.894400
C4821	C482	0.551300	0.067800	0.880300
C4831	C483	0.571500	0.043100	0.873700
H2701	H270	0.589700	0.048000	0.864500
C4841	C484	0.565200	0.011800	0.880500
C4851	C485	0.537200	0.004900	0.891700
H2711	H271	0.532000	0.983400	0.894600
C4861	C486	0.561100	0.099300	0.873200
H2721	H272	0.577300	0.100900	0.860200
N541	N54	0.550400	0.125000	0.882500
O1311	O131	0.566300	0.152200	0.873600
C4871	C487	0.588800	0.206500	0.885200
C4881	C488	0.586900	0.209400	0.843900
H2731	H273	0.572000	0.195000	0.822400
C4891	C489	0.605800	0.232100	0.833100
H2741	H274	0.604200	0.232600	0.804800
Br181	Br18	0.655000	0.284090	0.849900
C4901	C490	0.626600	0.253900	0.862800
C4911	C491	0.628600	0.252900	0.903500
H2751	H275	0.642100	0.268400	0.924200
C4921	C492	0.610500	0.229200	0.914000
H2761	H276	0.613100	0.228300	0.942700
O1321	O132	0.467800	0.128800	0.912300
C4931	C493	0.365900	0.222500	0.898700
C4941	C494	0.355600	0.224200	0.932100
H2771	H277	0.363600	0.208500	0.953900
C4951	C495	0.333600	0.248600	0.933700
H2781	H278	0.327600	0.250000	0.957300
C4961	C496	0.320300	0.271200	0.901200
C4971	C497	0.329700	0.268700	0.867100
H2791	H279	0.320100	0.283400	0.844100
C4981	C498	0.352600	0.245200	0.866300
H2801	H280	0.359500	0.244500	0.843300
C4991	C499	0.297000	0.298100	0.903300
O1331	O133	0.289600	0.298500	0.935200
O1341	O134	0.528100	0.110000	0.979000
O1351	O135	0.286200	0.317200	0.873100
C5001	C500	0.621700	0.126200	0.155600
C5011	C501	0.608300	0.123100	0.186300
H2811	H281	0.583500	0.117700	0.177200
C5021	C502	0.630300	0.127700	0.229600
H2821	H282	0.620300	0.126300	0.249700
C5031	C503	0.667300	0.134600	0.243800
C5041	C504	0.680900	0.137300	0.213600
H2831	H283	0.706000	0.141600	0.222700
C5051	C505	0.658300	0.133700	0.169900
H2841	H284	0.667900	0.136500	0.149500
C5061	C506	0.691700	0.137500	0.291300
O1361	O136	0.505100	0.084300	0.901200
O1371	O137	0.677300	0.133400	0.316900
O1381	O138	0.724700	0.142500	0.305200
C5071	C507	0.590400	0.986500	0.880400
C5081	C508	0.627200	0.993300	0.895200
H2851	H285	0.635500	0.014400	0.902000
C5091	C509	0.651600	0.969300	0.899900
H2861	H286	0.676700	0.974200	0.910800
C5101	C510	0.640100	0.938200	0.889000
C5111	C511	0.602800	0.931800	0.871800
H2871	H287	0.594000	0.911000	0.863000
C5121	C512	0.578600	0.956000	0.867700
H2881	H288	0.553300	0.951600	0.855900
C5131	C513	0.668000	0.912300	0.897600
O1391	O139	0.655500	0.885700	0.881800
O1401	O140	0.700900	0.919500	0.919100
C5141	C514	0.069700	0.985500	0.341500
C5151	C515	0.055200	0.010700	0.313100
H2891	H289	0.029400	0.012300	0.298000
C5161	C516	0.076000	0.033300	0.305900
H2901	H290	0.064800	0.049400	0.285200
Br191	Br19	0.142450	0.064250	0.321000
C5171	C517	0.113200	0.032300	0.328600
C5181	C518	0.128900	0.008700	0.357700
H2911	H291	0.154600	0.008000	0.373800
C5191	C519	0.107600	0.985700	0.363800
H2921	H292	0.119200	0.969400	0.384000
B191	B19	0.045500	0.958600	0.348600
O1411	O141	0.028800	0.976800	0.378700
N551	N55	0.002200	0.960700	0.382900
C5201	C520	0.980600	0.979000	0.393500
H2931	H293	0.986500	0.000800	0.398000
C5211	C521	0.948000	0.968200	0.399000
C5221	C522	0.941100	0.936100	0.404600
C5231	C523	0.910100	0.929700	0.412100
C5241	C524	0.887900	0.955000	0.412400
H2941	H294	0.867200	0.950300	0.417200
C5251	C525	0.894200	0.986400	0.406000
C5261	C526	0.925000	0.992100	0.399900
H2951	H295	0.930700	0.013300	0.396100
C5271	C527	0.899400	0.898300	0.417900
H2961	H296	0.879200	0.896900	0.424600
N561	N56	0.913500	0.872300	0.415200
O1421	O142	0.894800	0.845600	0.419900
B201	B20	0.904000	0.814600	0.406600
O1431	O143	0.014800	0.951700	0.307900
N571	N57	0.990200	0.928900	0.307600
C5281	C528	0.965600	0.922400	0.270300
H2971	H297	0.966400	0.933600	0.246900
C5291	C529	0.936300	0.899500	0.259900
C5301	C530	0.931300	0.879800	0.290700
C5311	C531	0.900900	0.858500	0.275600
C5321	C532	0.878100	0.857000	0.231300
H2981	H298	0.858600	0.842300	0.221300
C5331	C533	0.883000	0.876100	0.201600
C5341	C534	0.911800	0.897200	0.216200
H2991	H299	0.915100	0.910400	0.196000
C5351	C535	0.891700	0.838100	0.303200
H3001	H300	0.871700	0.824300	0.289300
N581	N58	0.907700	0.836900	0.343900
O1441	O144	0.892300	0.815700	0.361400
O1451	O145	0.068400	0.934100	0.373500
N591	N59	0.052800	0.908800	0.385200
C5361	C536	0.074100	0.885500	0.399900
H3011	H301	0.097900	0.887800	0.401700
C5371	C537	0.066000	0.855600	0.414200
C5381	C538	0.032900	0.848900	0.417500
C5391	C539	0.028700	0.817700	0.430300
C5401	C540	0.055100	0.794500	0.437400
H3021	H302	0.051200	0.773700	0.445000
C5411	C541	0.087000	0.801000	0.433500
C5421	C542	0.091800	0.831300	0.422300
H3031	H303	0.113600	0.836100	0.419800
C5431	C543	0.996700	0.807000	0.435000
H3041	H304	0.997500	0.786700	0.446800
N601	N60	0.967600	0.823000	0.424300
O1461	O146	0.942000	0.806600	0.431100
C5441	C544	0.879800	0.788300	0.415000
C5451	C545	0.848600	0.774900	0.383100
H3051	H305	0.839900	0.783300	0.354800
C5461	C546	0.890000	0.775200	0.455700
H3061	H306	0.911000	0.783500	0.479000
C5471	C547	0.829400	0.750100	0.390000
H3071	H307	0.808800	0.741300	0.366800
C5481	C548	0.871400	0.750900	0.463900
H3081	H308	0.879600	0.742900	0.492200
Br201	Br20	0.814520	0.706000	0.443000
C5491	C549	0.840900	0.738500	0.430900
O1471	O147	0.961700	0.913400	0.402300
C5501	C550	0.869100	0.012000	0.404400
C5511	C551	0.867800	0.040700	0.384200
H3091	H309	0.884300	0.044400	0.372000
C5521	C552	0.843300	0.064000	0.381200
H3101	H310	0.843100	0.083300	0.367100
C5531	C553	0.818900	0.059600	0.398900
C5541	C554	0.819600	0.030800	0.418600
H3111	H311	0.802800	0.027100	0.430300
C5551	C555	0.844200	0.007600	0.421500
H3121	H312	0.844200	0.988200	0.435400
C5561	C556	0.792800	0.084800	0.398000
O1481	O148	0.790800	0.109600	0.377700
O1491	O149	0.954400	0.880500	0.331100
O1501	O150	0.773400	0.078300	0.417600
C5571	C557	0.857600	0.874400	0.155200
C5581	C558	0.847700	0.900900	0.128600
H3131	H313	0.857100	0.921000	0.140500
C5591	C559	0.824300	0.898600	0.085300
H3141	H314	0.817500	0.917000	0.067900
C5601	C560	0.810800	0.869000	0.067200
C5611	C561	0.820300	0.842400	0.093900
H3151	H315	0.810800	0.822400	0.082100
C5621	C562	0.843200	0.845100	0.137200
H3161	H316	0.849200	0.826800	0.155000
C5631	C563	0.786900	0.865000	0.019600
O1511	O151	0.007900	0.870300	0.409200
O1521	O152	0.773600	0.889900	0.997300
O1531	O153	0.779200	0.837400	0.005400
C5641	C564	0.113700	0.775400	0.439000
C5651	C565	0.101700	0.745100	0.422800
H3171	H317	0.076600	0.740200	0.411000
C5661	C566	0.126300	0.722400	0.423800
H3181	H318	0.117700	0.702000	0.412800
C5671	C567	0.163200	0.728700	0.440400
C5681	C568	0.175600	0.758400	0.458000
H3191	H319	0.200900	0.763100	0.470200
C5691	C569	0.151200	0.781000	0.457700
H3201	H320	0.160100	0.800900	0.470500
C5701	C570	0.189900	0.704200	0.439700
O1541	O154	0.222500	0.711100	0.454700
O1551	O155	0.177000	0.678100	0.423500
Zn411	Zn41	0.496260	0.411640	0.370000
Zn421	Zn42	0.451100	0.365070	0.388430
Zn431	Zn43	0.022600	0.631260	0.921270
Zn441	Zn44	0.980210	0.584040	0.944390
Zn451	Zn45	0.252660	0.321150	0.945880
Zn461	Zn46	0.242990	0.395480	0.936470
Zn471	Zn47	0.180620	0.347410	0.873090
Zn481	Zn48	0.255720	0.355050	0.866070
O1561	O156	0.234500	0.355700	0.905800
C5711	C571	0.913800	0.508300	0.981500
C5721	C572	0.881300	0.515500	0.983800
H3211	H321	0.872200	0.536500	0.977600
C5731	C573	0.861700	0.493400	0.994800
H3221	H322	0.839400	0.499200	0.995400
Br211	Br21	0.849870	0.431620	0.021280
C5741	C574	0.874800	0.463000	0.004900
C5751	C575	0.906900	0.455500	0.003600
H3231	H323	0.916200	0.434700	0.010700
C5761	C576	0.926000	0.477300	0.992300
H3241	H324	0.948200	0.471100	0.991700
B211	B21	0.937600	0.532600	0.968900
O1571	O157	0.910100	0.561800	0.945300
N611	N61	0.926700	0.586700	0.938700
C5771	C577	0.903700	0.612000	0.925000
H3251	H325	0.879800	0.609100	0.922700
C5781	C578	0.912500	0.643800	0.913200
C5791	C579	0.943500	0.650400	0.906700
C5801	C580	0.948000	0.682000	0.895800
C5811	C581	0.921400	0.704800	0.891500
H3261	H326	0.924100	0.725700	0.883500
C5821	C582	0.891400	0.697500	0.898700
C5831	C583	0.886900	0.666800	0.909300
H3271	H327	0.866200	0.661400	0.913800
C5841	C584	0.978800	0.693200	0.889600
H3281	H328	0.978800	0.714800	0.882400
N621	N62	0.005700	0.676800	0.892900
O1581	O158	0.030200	0.693900	0.883600
B221	B22	0.066900	0.680500	0.897800
O1591	O159	0.965900	0.544400	0.009300
N631	N63	0.989300	0.567700	0.007100
C5851	C585	0.014100	0.575900	0.043300
H3291	H329	0.013000	0.566400	0.067600
C5861	C586	0.043900	0.597600	0.052800
C5871	C587	0.050000	0.614200	0.020200
C5881	C588	0.080700	0.635000	0.033700
C5891	C589	0.104100	0.638200	0.077900
H3301	H330	0.124700	0.651700	0.086600
C5901	C590	0.097900	0.622000	0.108900
C5911	C591	0.067800	0.602100	0.096400
H3311	H331	0.063300	0.591400	0.117800
C5921	C592	0.089000	0.654100	0.004300
H3321	H332	0.110600	0.666400	0.016500
N641	N64	0.070300	0.656200	0.963800
O1601	O160	0.085600	0.677200	0.944400
O1611	O161	0.948400	0.519000	0.939400
N651	N65	0.971900	0.535700	0.927500
C5931	C593	0.990100	0.518300	0.913900
H3331	H333	0.985900	0.496200	0.913400
C5941	C594	0.016500	0.528600	0.899100
C5951	C595	0.023800	0.561300	0.894400
C5961	C596	0.051300	0.567800	0.880300
C5971	C597	0.071500	0.543100	0.873700
H3341	H334	0.089700	0.548000	0.864500
C5981	C598	0.065200	0.511800	0.880500
C5991	C599	0.037200	0.504900	0.891700
H3351	H335	0.032000	0.483400	0.894600
C6001	C600	0.061100	0.599300	0.873200
H3361	H336	0.077300	0.600900	0.860200
N661	N66	0.050400	0.625000	0.882500
O1621	O162	0.066300	0.652200	0.873600
C6011	C601	0.088800	0.706500	0.885200
C6021	C602	0.086900	0.709400	0.843900
H3371	H337	0.072000	0.695000	0.822400
C6031	C603	0.105800	0.732100	0.833100
H3381	H338	0.104200	0.732600	0.804800
Br221	Br22	0.155000	0.784090	0.849900
C6041	C604	0.126600	0.753900	0.862800
C6051	C605	0.128600	0.752900	0.903500
H3391	H339	0.142100	0.768400	0.924200
C6061	C606	0.110500	0.729200	0.914000
H3401	H340	0.113100	0.728300	0.942700
O1631	O163	0.967800	0.628800	0.912300
C6071	C607	0.865900	0.722500	0.898700
C6081	C608	0.855600	0.724200	0.932100
H3411	H341	0.863600	0.708500	0.953900
C6091	C609	0.833600	0.748600	0.933700
H3421	H342	0.827600	0.750000	0.957300
C6101	C610	0.820300	0.771200	0.901200
C6111	C611	0.829700	0.768700	0.867100
H3431	H343	0.820100	0.783400	0.844100
C6121	C612	0.852600	0.745200	0.866300
H3441	H344	0.859500	0.744500	0.843300
C6131	C613	0.797000	0.798100	0.903300
O1641	O164	0.789600	0.798500	0.935200
O1651	O165	0.028100	0.610000	0.979000
O1661	O166	0.786200	0.817200	0.873100
C6141	C614	0.121700	0.626200	0.155600
C6151	C615	0.108300	0.623100	0.186300
H3451	H345	0.083500	0.617700	0.177200
C6161	C616	0.130300	0.627700	0.229600
H3461	H346	0.120300	0.626300	0.249700
C6171	C617	0.167300	0.634600	0.243800
C6181	C618	0.180900	0.637300	0.213600
H3471	H347	0.206000	0.641600	0.222700
C6191	C619	0.158300	0.633700	0.169900
H3481	H348	0.167900	0.636500	0.149500
C6201	C620	0.191700	0.637500	0.291300
O1671	O167	0.005100	0.584300	0.901200
O1681	O168	0.177300	0.633400	0.316900
O1691	O169	0.224700	0.642500	0.305200
C6211	C621	0.090400	0.486500	0.880400
C6221	C622	0.127200	0.493300	0.895200
H3491	H349	0.135500	0.514400	0.902000
C6231	C623	0.151600	0.469300	0.899900
H3501	H350	0.176700	0.474200	0.910800
C6241	C624	0.140100	0.438200	0.889000
C6251	C625	0.102800	0.431800	0.871800
H3511	H351	0.094000	0.411000	0.863000
C6261	C626	0.078600	0.456000	0.867700
H3521	H352	0.053300	0.451600	0.855900
C6271	C627	0.168000	0.412300	0.897600
O1701	O170	0.155500	0.385700	0.881800
O1711	O171	0.200900	0.419500	0.919100
C6281	C628	0.569700	0.485500	0.341500
C6291	C629	0.555200	0.510700	0.313100
H3531	H353	0.529400	0.512300	0.298000
C6301	C630	0.576000	0.533300	0.305900
H3541	H354	0.564800	0.549400	0.285200
Br231	Br23	0.642450	0.564250	0.321000
C6311	C631	0.613200	0.532300	0.328600
C6321	C632	0.628900	0.508700	0.357700
H3551	H355	0.654600	0.508000	0.373800
C6331	C633	0.607600	0.485700	0.363800
H3561	H356	0.619200	0.469400	0.384000
B231	B23	0.545500	0.458600	0.348600
O1721	O172	0.528800	0.476800	0.378700
N671	N67	0.502200	0.460700	0.382900
C6341	C634	0.480600	0.479000	0.393500
H3571	H357	0.486500	0.500800	0.398000
C6351	C635	0.448000	0.468200	0.399000
C6361	C636	0.441100	0.436100	0.404600
C6371	C637	0.410100	0.429700	0.412100
C6381	C638	0.387900	0.455000	0.412400
H3581	H358	0.367200	0.450300	0.417200
C6391	C639	0.394200	0.486400	0.406000
C6401	C640	0.425000	0.492100	0.399900
H3591	H359	0.430700	0.513300	0.396100
C6411	C641	0.399400	0.398300	0.417900
H3601	H360	0.379200	0.396900	0.424600
N681	N68	0.413500	0.372300	0.415200
O1731	O173	0.394800	0.345600	0.419900
B241	B24	0.404000	0.314600	0.406600
O1741	O174	0.514800	0.451700	0.307900
N691	N69	0.490200	0.428900	0.307600
C6421	C642	0.465600	0.422400	0.270300
H3611	H361	0.466400	0.433600	0.246900
C6431	C643	0.436300	0.399500	0.259900
C6441	C644	0.431300	0.379800	0.290700
C6451	C645	0.400900	0.358500	0.275600
C6461	C646	0.378100	0.357000	0.231300
H3621	H362	0.358600	0.342300	0.221300
C6471	C647	0.383000	0.376100	0.201600
C6481	C648	0.411800	0.397200	0.216200
H3631	H363	0.415100	0.410400	0.196000
C6491	C649	0.391700	0.338100	0.303200
H3641	H364	0.371700	0.324300	0.289300
N701	N70	0.407700	0.336900	0.343900
O1751	O175	0.392300	0.315700	0.361400
O1761	O176	0.568400	0.434100	0.373500
N711	N71	0.552800	0.408800	0.385200
C6501	C650	0.574100	0.385500	0.399900
H3651	H365	0.597900	0.387800	0.401700
C6511	C651	0.566000	0.355600	0.414200
C6521	C652	0.532900	0.348900	0.417500
C6531	C653	0.528700	0.317700	0.430300
C6541	C654	0.555100	0.294500	0.437400
H3661	H366	0.551200	0.273700	0.445000
C6551	C655	0.587000	0.301000	0.433500
C6561	C656	0.591800	0.331300	0.422300
H3671	H367	0.613600	0.336100	0.419800
C6571	C657	0.496700	0.307000	0.435000
H3681	H368	0.497500	0.286700	0.446800
N721	N72	0.467600	0.323000	0.424300
O1771	O177	0.442000	0.306600	0.431100
C6581	C658	0.379800	0.288300	0.415000
C6591	C659	0.348600	0.274900	0.383100
H3691	H369	0.339900	0.283300	0.354800
C6601	C660	0.390000	0.275200	0.455700
H3701	H370	0.411000	0.283500	0.479000
C6611	C661	0.329400	0.250100	0.390000
H3711	H371	0.308800	0.241300	0.366800
C6621	C662	0.371400	0.250900	0.463900
H3721	H372	0.379600	0.242900	0.492200
Br241	Br24	0.314520	0.206000	0.443000
C6631	C663	0.340900	0.238500	0.430900
O1781	O178	0.461700	0.413400	0.402300
C6641	C664	0.369100	0.512000	0.404400
C6651	C665	0.367800	0.540700	0.384200
H3731	H373	0.384300	0.544400	0.372000
C6661	C666	0.343300	0.564000	0.381200
H3741	H374	0.343100	0.583300	0.367100
C6671	C667	0.318900	0.559600	0.398900
C6681	C668	0.319600	0.530800	0.418600
H3751	H375	0.302800	0.527100	0.430300
C6691	C669	0.344200	0.507600	0.421500
H3761	H376	0.344200	0.488200	0.435400
C6701	C670	0.292800	0.584800	0.398000
O1791	O179	0.290800	0.609600	0.377700
O1801	O180	0.454400	0.380500	0.331100
O1811	O181	0.273400	0.578300	0.417600
C6711	C671	0.357600	0.374400	0.155200
C6721	C672	0.347700	0.400900	0.128600
H3771	H377	0.357100	0.421000	0.140500
C6731	C673	0.324300	0.398600	0.085300
H3781	H378	0.317500	0.417000	0.067900
C6741	C674	0.310800	0.369000	0.067200
C6751	C675	0.320300	0.342400	0.093900
H3791	H379	0.310800	0.322400	0.082100
C6761	C676	0.343200	0.345100	0.137200
H3801	H380	0.349200	0.326800	0.155000
C6771	C677	0.286900	0.365000	0.019600
O1821	O182	0.507900	0.370300	0.409200
O1831	O183	0.273600	0.389900	0.997300
O1841	O184	0.279200	0.337400	0.005400
C6781	C678	0.613700	0.275400	0.439000
C6791	C679	0.601700	0.245100	0.422800
H3811	H381	0.576600	0.240200	0.411000
C6801	C680	0.626300	0.222400	0.423800
H3821	H382	0.617700	0.202000	0.412800
C6811	C681	0.663200	0.228700	0.440400
C6821	C682	0.675600	0.258400	0.458000
H3831	H383	0.700900	0.263100	0.470200
C6831	C683	0.651200	0.281000	0.457700
H3841	H384	0.660100	0.300900	0.470500
C6841	C684	0.689900	0.204200	0.439700
O1851	O185	0.722500	0.211100	0.454700
O1861	O186	0.677000	0.178100	0.423500
Zn491	Zn49	0.996260	0.088360	0.870000
Zn501	Zn50	0.951100	0.134930	0.888430
Zn511	Zn51	0.522600	0.868740	0.421270
Zn521	Zn52	0.480210	0.915960	0.444390
Zn531	Zn53	0.752660	0.178850	0.445880
Zn541	Zn54	0.742990	0.104520	0.436470
Zn551	Zn55	0.680620	0.152590	0.373090
Zn561	Zn56	0.755720	0.144950	0.366070
O1871	O187	0.734500	0.144300	0.405800
C6851	C685	0.413800	0.991700	0.481500
C6861	C686	0.381300	0.984500	0.483800
H3851	H385	0.372200	0.963500	0.477600
C6871	C687	0.361700	0.006600	0.494800
H3861	H386	0.339400	0.000800	0.495400
Br251	Br25	0.349870	0.068380	0.521280
C6881	C688	0.374800	0.037000	0.504900
C6891	C689	0.406900	0.044500	0.503600
H3871	H387	0.416200	0.065300	0.510700
C6901	C690	0.426000	0.022700	0.492300
H3881	H388	0.448200	0.028900	0.491700
B251	B25	0.437600	0.967400	0.468900
O1881	O188	0.410100	0.938200	0.445300
N731	N73	0.426700	0.913300	0.438700
C6911	C691	0.403700	0.888000	0.425000
H3891	H389	0.379800	0.890900	0.422700
C6921	C692	0.412500	0.856200	0.413200
C6931	C693	0.443500	0.849600	0.406700
C6941	C694	0.448000	0.818000	0.395800
C6951	C695	0.421400	0.795200	0.391500
H3901	H390	0.424100	0.774300	0.383500
C6961	C696	0.391400	0.802500	0.398700
C6971	C697	0.386900	0.833200	0.409300
H3911	H391	0.366200	0.838600	0.413800
C6981	C698	0.478800	0.806800	0.389600
H3921	H392	0.478800	0.785200	0.382400
N741	N74	0.505700	0.823200	0.392900
O1891	O189	0.530200	0.806100	0.383600
B261	B26	0.566900	0.819500	0.397800
O1901	O190	0.465900	0.955600	0.509300
N751	N75	0.489300	0.932300	0.507100
C6991	C699	0.514100	0.924100	0.543300
H3931	H393	0.513000	0.933600	0.567600
C7001	C700	0.543900	0.902400	0.552800
C7011	C701	0.550000	0.885800	0.520200
C7021	C702	0.580700	0.865000	0.533700
C7031	C703	0.604100	0.861800	0.577900
H3941	H394	0.624700	0.848300	0.586600
C7041	C704	0.597900	0.878000	0.608900
C7051	C705	0.567800	0.897900	0.596400
H3951	H395	0.563300	0.908600	0.617800
C7061	C706	0.589000	0.845900	0.504300
H3961	H396	0.610600	0.833600	0.516500
N761	N76	0.570300	0.843800	0.463800
O1911	O191	0.585600	0.822800	0.444400
O1921	O192	0.448400	0.981000	0.439400
N771	N77	0.471900	0.964300	0.427500
C7071	C707	0.490100	0.981700	0.413900
H3971	H397	0.485900	0.003800	0.413400
C7081	C708	0.516500	0.971400	0.399100
C7091	C709	0.523800	0.938700	0.394400
C7101	C710	0.551300	0.932200	0.380300
C7111	C711	0.571500	0.956900	0.373700
H3981	H398	0.589700	0.952000	0.364500
C7121	C712	0.565200	0.988200	0.380500
C7131	C713	0.537200	0.995100	0.391700
H3991	H399	0.532000	0.016600	0.394600
C7141	C714	0.561100	0.900700	0.373200
H4001	H400	0.577300	0.899100	0.360200
N781	N78	0.550400	0.875000	0.382500
O1931	O193	0.566300	0.847800	0.373600
C7151	C715	0.588800	0.793500	0.385200
C7161	C716	0.586900	0.790600	0.343900
H4011	H401	0.572000	0.805000	0.322400
C7171	C717	0.605800	0.767900	0.333100
H4021	H402	0.604200	0.767400	0.304800
Br261	Br26	0.655000	0.715910	0.349900
C7181	C718	0.626600	0.746100	0.362800
C7191	C719	0.628600	0.747100	0.403500
H4031	H403	0.642100	0.731600	0.424200
C7201	C720	0.610500	0.770800	0.414000
H4041	H404	0.613100	0.771700	0.442700
O1941	O194	0.467800	0.871200	0.412300
C7211	C721	0.365900	0.777500	0.398700
C7221	C722	0.355600	0.775800	0.432100
H4051	H405	0.363600	0.791500	0.453900
C7231	C723	0.333600	0.751400	0.433700
H4061	H406	0.327600	0.750000	0.457300
C7241	C724	0.320300	0.728800	0.401200
C7251	C725	0.329700	0.731300	0.367100
H4071	H407	0.320100	0.716600	0.344100
C7261	C726	0.352600	0.754800	0.366300
H4081	H408	0.359500	0.755500	0.343300
C7271	C727	0.297000	0.701900	0.403300
O1951	O195	0.289600	0.701500	0.435200
O1961	O196	0.528100	0.890000	0.479000
O1971	O197	0.286200	0.682800	0.373100
C7281	C728	0.621700	0.873800	0.655600
C7291	C729	0.608300	0.876900	0.686300
H4091	H409	0.583500	0.882300	0.677200
C7301	C730	0.630300	0.872300	0.729600
H4101	H410	0.620300	0.873700	0.749700
C7311	C731	0.667300	0.865400	0.743800
C7321	C732	0.680900	0.862700	0.713600
H4111	H411	0.706000	0.858400	0.722700
C7331	C733	0.658300	0.866300	0.669900
H4121	H412	0.667900	0.863500	0.649500
C7341	C734	0.691700	0.862500	0.791300
O1981	O198	0.505100	0.915700	0.401200
O1991	O199	0.677300	0.866600	0.816900
O2001	O200	0.724700	0.857500	0.805200
C7351	C735	0.590400	0.013500	0.380400
C7361	C736	0.627200	0.006700	0.395200
H4131	H413	0.635500	0.985600	0.402000
C7371	C737	0.651600	0.030700	0.399900
H4141	H414	0.676700	0.025800	0.410800
C7381	C738	0.640100	0.061800	0.389000
C7391	C739	0.602800	0.068200	0.371800
H4151	H415	0.594000	0.089000	0.363000
C7401	C740	0.578600	0.044000	0.367700
H4161	H416	0.553300	0.048400	0.355900
C7411	C741	0.668000	0.087700	0.397600
O2011	O201	0.655500	0.114300	0.381800
O2021	O202	0.700900	0.080500	0.419100
C7421	C742	0.069700	0.014500	0.841500
C7431	C743	0.055200	0.989300	0.813100
H4171	H417	0.029400	0.987700	0.798000
C7441	C744	0.076000	0.966700	0.805900
H4181	H418	0.064800	0.950600	0.785200
Br271	Br27	0.142450	0.935750	0.821000
C7451	C745	0.113200	0.967700	0.828600
C7461	C746	0.128900	0.991300	0.857700
H4191	H419	0.154600	0.992000	0.873800
C7471	C747	0.107600	0.014300	0.863800
H4201	H420	0.119200	0.030600	0.884000
B271	B27	0.045500	0.041400	0.848600
O2031	O203	0.028800	0.023200	0.878700
N791	N79	0.002200	0.039300	0.882900
C7481	C748	0.980600	0.021000	0.893500
H4211	H421	0.986500	0.999200	0.898000
C7491	C749	0.948000	0.031800	0.899000
C7501	C750	0.941100	0.063900	0.904600
C7511	C751	0.910100	0.070300	0.912100
C7521	C752	0.887900	0.045000	0.912400
H4221	H422	0.867200	0.049700	0.917200
C7531	C753	0.894200	0.013600	0.906000
C7541	C754	0.925000	0.007900	0.899900
H4231	H423	0.930700	0.986700	0.896100
C7551	C755	0.899400	0.101700	0.917900
H4241	H424	0.879200	0.103100	0.924600
N801	N80	0.913500	0.127700	0.915200
O2041	O204	0.894800	0.154400	0.919900
B281	B28	0.904000	0.185400	0.906600
O2051	O205	0.014800	0.048300	0.807900
N811	N81	0.990200	0.071100	0.807600
C7561	C756	0.965600	0.077600	0.770300
H4251	H425	0.966400	0.066400	0.746900
C7571	C757	0.936300	0.100500	0.759900
C7581	C758	0.931300	0.120200	0.790700
C7591	C759	0.900900	0.141500	0.775600
C7601	C760	0.878100	0.143000	0.731300
H4261	H426	0.858600	0.157700	0.721300
C7611	C761	0.883000	0.123900	0.701600
C7621	C762	0.911800	0.102800	0.716200
H4271	H427	0.915100	0.089600	0.696000
C7631	C763	0.891700	0.161900	0.803200
H4281	H428	0.871700	0.175700	0.789300
N821	N82	0.907700	0.163100	0.843900
O2061	O206	0.892300	0.184300	0.861400
O2071	O207	0.068400	0.065900	0.873500
N831	N83	0.052800	0.091200	0.885200
C7641	C764	0.074100	0.114500	0.899900
H4291	H429	0.097900	0.112200	0.901700
C7651	C765	0.066000	0.144400	0.914200
C7661	C766	0.032900	0.151100	0.917500
C7671	C767	0.028700	0.182300	0.930300
C7681	C768	0.055100	0.205500	0.937400
H4301	H430	0.051200	0.226300	0.945000
C7691	C769	0.087000	0.199000	0.933500
C7701	C770	0.091800	0.168700	0.922300
H4311	H431	0.113600	0.163900	0.919800
C7711	C771	0.996700	0.193000	0.935000
H4321	H432	0.997500	0.213300	0.946800
N841	N84	0.967600	0.177000	0.924300
O2081	O208	0.942000	0.193400	0.931100
C7721	C772	0.879800	0.211700	0.915000
C7731	C773	0.848600	0.225100	0.883100
H4331	H433	0.839900	0.216700	0.854800
C7741	C774	0.890000	0.224800	0.955700
H4341	H434	0.911000	0.216500	0.979000
C7751	C775	0.829400	0.249900	0.890000
H4351	H435	0.808800	0.258700	0.866800
C7761	C776	0.871400	0.249100	0.963900
H4361	H436	0.879600	0.257100	0.992200
Br281	Br28	0.814520	0.294000	0.943000
C7771	C777	0.840900	0.261500	0.930900
O2091	O209	0.961700	0.086600	0.902300
C7781	C778	0.869100	0.988000	0.904400
C7791	C779	0.867800	0.959300	0.884200
H4371	H437	0.884300	0.955600	0.872000
C7801	C780	0.843300	0.936000	0.881200
H4381	H438	0.843100	0.916700	0.867100
C7811	C781	0.818900	0.940400	0.898900
C7821	C782	0.819600	0.969200	0.918600
H4391	H439	0.802800	0.972900	0.930300
C7831	C783	0.844200	0.992400	0.921500
H4401	H440	0.844200	0.011800	0.935400
C7841	C784	0.792800	0.915200	0.898000
O2101	O210	0.790800	0.890400	0.877700
O2111	O211	0.954400	0.119500	0.831100
O2121	O212	0.773400	0.921700	0.917600
C7851	C785	0.857600	0.125600	0.655200
C7861	C786	0.847700	0.099100	0.628600
H4411	H441	0.857100	0.079000	0.640500
C7871	C787	0.824300	0.101400	0.585300
H4421	H442	0.817500	0.083000	0.567900
C7881	C788	0.810800	0.131000	0.567200
C7891	C789	0.820300	0.157600	0.593900
H4431	H443	0.810800	0.177600	0.582100
C7901	C790	0.843200	0.154900	0.637200
H4441	H444	0.849200	0.173200	0.655000
C7911	C791	0.786900	0.135000	0.519600
O2131	O213	0.007900	0.129700	0.909200
O2141	O214	0.773600	0.110100	0.497300
O2151	O215	0.779200	0.162600	0.505400
C7921	C792	0.113700	0.224600	0.939000
C7931	C793	0.101700	0.254900	0.922800
H4451	H445	0.076600	0.259800	0.911000
C7941	C794	0.126300	0.277600	0.923800
H4461	H446	0.117700	0.298000	0.912800
C7951	C795	0.163200	0.271300	0.940400
C7961	C796	0.175600	0.241600	0.958000
H4471	H447	0.200900	0.236900	0.970200
C7971	C797	0.151200	0.219000	0.957700
H4481	H448	0.160100	0.199100	0.970500
C7981	C798	0.189900	0.295800	0.939700
O2161	O216	0.222500	0.288900	0.954700
O2171	O217	0.177000	0.321900	0.923500
Zn571	Zn57	0.496260	0.588360	0.870000
Zn581	Zn58	0.451100	0.634930	0.888430
Zn591	Zn59	0.022600	0.368740	0.421270
Zn601	Zn60	0.980210	0.415960	0.444390
Zn611	Zn61	0.252660	0.678850	0.445880
Zn621	Zn62	0.242990	0.604520	0.436470
Zn631	Zn63	0.180620	0.652590	0.373090
Zn641	Zn64	0.255720	0.644950	0.366070
O2181	O218	0.234500	0.644300	0.405800
C7991	C799	0.913800	0.491700	0.481500
C8001	C800	0.881300	0.484500	0.483800
H4491	H449	0.872200	0.463500	0.477600
C8011	C801	0.861700	0.506600	0.494800
H4501	H450	0.839400	0.500800	0.495400
Br291	Br29	0.849870	0.568380	0.521280
C8021	C802	0.874800	0.537000	0.504900
C8031	C803	0.906900	0.544500	0.503600
H4511	H451	0.916200	0.565300	0.510700
C8041	C804	0.926000	0.522700	0.492300
H4521	H452	0.948200	0.528900	0.491700
B291	B29	0.937600	0.467400	0.468900
O2191	O219	0.910100	0.438200	0.445300
N851	N85	0.926700	0.413300	0.438700
C8051	C805	0.903700	0.388000	0.425000
H4531	H453	0.879800	0.390900	0.422700
C8061	C806	0.912500	0.356200	0.413200
C8071	C807	0.943500	0.349600	0.406700
C8081	C808	0.948000	0.318000	0.395800
C8091	C809	0.921400	0.295200	0.391500
H4541	H454	0.924100	0.274300	0.383500
C8101	C810	0.891400	0.302500	0.398700
C8111	C811	0.886900	0.333200	0.409300
H4551	H455	0.866200	0.338600	0.413800
C8121	C812	0.978800	0.306800	0.389600
H4561	H456	0.978800	0.285200	0.382400
N861	N86	0.005700	0.323200	0.392900
O2201	O220	0.030200	0.306100	0.383600
B301	B30	0.066900	0.319500	0.397800
O2211	O221	0.965900	0.455600	0.509300
N871	N87	0.989300	0.432300	0.507100
C8131	C813	0.014100	0.424100	0.543300
H4571	H457	0.013000	0.433600	0.567600
C8141	C814	0.043900	0.402400	0.552800
C8151	C815	0.050000	0.385800	0.520200
C8161	C816	0.080700	0.365000	0.533700
C8171	C817	0.104100	0.361800	0.577900
H4581	H458	0.124700	0.348300	0.586600
C8181	C818	0.097900	0.378000	0.608900
C8191	C819	0.067800	0.397900	0.596400
H4591	H459	0.063300	0.408600	0.617800
C8201	C820	0.089000	0.345900	0.504300
H4601	H460	0.110600	0.333600	0.516500
N881	N88	0.070300	0.343800	0.463800
O2221	O222	0.085600	0.322800	0.444400
O2231	O223	0.948400	0.481000	0.439400
N891	N89	0.971900	0.464300	0.427500
C8211	C821	0.990100	0.481700	0.413900
H4611	H461	0.985900	0.503800	0.413400
C8221	C822	0.016500	0.471400	0.399100
C8231	C823	0.023800	0.438700	0.394400
C8241	C824	0.051300	0.432200	0.380300
C8251	C825	0.071500	0.456900	0.373700
H4621	H462	0.089700	0.452000	0.364500
C8261	C826	0.065200	0.488200	0.380500
C8271	C827	0.037200	0.495100	0.391700
H4631	H463	0.032000	0.516600	0.394600
C8281	C828	0.061100	0.400700	0.373200
H4641	H464	0.077300	0.399100	0.360200
N901	N90	0.050400	0.375000	0.382500
O2241	O224	0.066300	0.347800	0.373600
C8291	C829	0.088800	0.293500	0.385200
C8301	C830	0.086900	0.290600	0.343900
H4651	H465	0.072000	0.305000	0.322400
C8311	C831	0.105800	0.267900	0.333100
H4661	H466	0.104200	0.267400	0.304800
Br301	Br30	0.155000	0.215910	0.349900
C8321	C832	0.126600	0.246100	0.362800
C8331	C833	0.128600	0.247100	0.403500
H4671	H467	0.142100	0.231600	0.424200
C8341	C834	0.110500	0.270800	0.414000
H4681	H468	0.113100	0.271700	0.442700
O2251	O225	0.967800	0.371200	0.412300
C8351	C835	0.865900	0.277500	0.398700
C8361	C836	0.855600	0.275800	0.432100
H4691	H469	0.863600	0.291500	0.453900
C8371	C837	0.833600	0.251400	0.433700
H4701	H470	0.827600	0.250000	0.457300
C8381	C838	0.820300	0.228800	0.401200
C8391	C839	0.829700	0.231300	0.367100
H4711	H471	0.820100	0.216600	0.344100
C8401	C840	0.852600	0.254800	0.366300
H4721	H472	0.859500	0.255500	0.343300
C8411	C841	0.797000	0.201900	0.403300
O2261	O226	0.789600	0.201500	0.435200
O2271	O227	0.028100	0.390000	0.479000
O2281	O228	0.786200	0.182800	0.373100
C8421	C842	0.121700	0.373800	0.655600
C8431	C843	0.108300	0.376900	0.686300
H4731	H473	0.083500	0.382300	0.677200
C8441	C844	0.130300	0.372300	0.729600
H4741	H474	0.120300	0.373700	0.749700
C8451	C845	0.167300	0.365400	0.743800
C8461	C846	0.180900	0.362700	0.713600
H4751	H475	0.206000	0.358400	0.722700
C8471	C847	0.158300	0.366300	0.669900
H4761	H476	0.167900	0.363500	0.649500
C8481	C848	0.191700	0.362500	0.791300
O2291	O229	0.005100	0.415700	0.401200
O2301	O230	0.177300	0.366600	0.816900
O2311	O231	0.224700	0.357500	0.805200
C8491	C849	0.090400	0.513500	0.380400
C8501	C850	0.127200	0.506700	0.395200
H4771	H477	0.135500	0.485600	0.402000
C8511	C851	0.151600	0.530700	0.399900
H4781	H478	0.176700	0.525800	0.410800
C8521	C852	0.140100	0.561800	0.389000
C8531	C853	0.102800	0.568200	0.371800
H4791	H479	0.094000	0.589000	0.363000
C8541	C854	0.078600	0.544000	0.367700
H4801	H480	0.053300	0.548400	0.355900
C8551	C855	0.168000	0.587700	0.397600
O2321	O232	0.155500	0.614300	0.381800
O2331	O233	0.200900	0.580500	0.419100
C8561	C856	0.569700	0.514500	0.841500
C8571	C857	0.555200	0.489300	0.813100
H4811	H481	0.529400	0.487700	0.798000
C8581	C858	0.576000	0.466700	0.805900
H4821	H482	0.564800	0.450600	0.785200
Br311	Br31	0.642450	0.435750	0.821000
C8591	C859	0.613200	0.467700	0.828600
C8601	C860	0.628900	0.491300	0.857700
H4831	H483	0.654600	0.492000	0.873800
C8611	C861	0.607600	0.514300	0.863800
H4841	H484	0.619200	0.530600	0.884000
B311	B31	0.545500	0.541400	0.848600
O2341	O234	0.528800	0.523200	0.878700
N911	N91	0.502200	0.539300	0.882900
C8621	C862	0.480600	0.521000	0.893500
H4851	H485	0.486500	0.499200	0.898000
C8631	C863	0.448000	0.531800	0.899000
C8641	C864	0.441100	0.563900	0.904600
C8651	C865	0.410100	0.570300	0.912100
C8661	C866	0.387900	0.545000	0.912400
H4861	H486	0.367200	0.549700	0.917200
C8671	C867	0.394200	0.513600	0.906000
C8681	C868	0.425000	0.507900	0.899900
H4871	H487	0.430700	0.486700	0.896100
C8691	C869	0.399400	0.601700	0.917900
H4881	H488	0.379200	0.603100	0.924600
N921	N92	0.413500	0.627700	0.915200
O2351	O235	0.394800	0.654400	0.919900
B321	B32	0.404000	0.685400	0.906600
O2361	O236	0.514800	0.548300	0.807900
N931	N93	0.490200	0.571100	0.807600
C8701	C870	0.465600	0.577600	0.770300
H4891	H489	0.466400	0.566400	0.746900
C8711	C871	0.436300	0.600500	0.759900
C8721	C872	0.431300	0.620200	0.790700
C8731	C873	0.400900	0.641500	0.775600
C8741	C874	0.378100	0.643000	0.731300
H4901	H490	0.358600	0.657700	0.721300
C8751	C875	0.383000	0.623900	0.701600
C8761	C876	0.411800	0.602800	0.716200
H4911	H491	0.415100	0.589600	0.696000
C8771	C877	0.391700	0.661900	0.803200
H4921	H492	0.371700	0.675700	0.789300
N941	N94	0.407700	0.663100	0.843900
O2371	O237	0.392300	0.684300	0.861400
O2381	O238	0.568400	0.565900	0.873500
N951	N95	0.552800	0.591200	0.885200
C8781	C878	0.574100	0.614500	0.899900
H4931	H493	0.597900	0.612200	0.901700
C8791	C879	0.566000	0.644400	0.914200
C8801	C880	0.532900	0.651100	0.917500
C8811	C881	0.528700	0.682300	0.930300
C8821	C882	0.555100	0.705500	0.937400
H4941	H494	0.551200	0.726300	0.945000
C8831	C883	0.587000	0.699000	0.933500
C8841	C884	0.591800	0.668700	0.922300
H4951	H495	0.613600	0.663900	0.919800
C8851	C885	0.496700	0.693000	0.935000
H4961	H496	0.497500	0.713300	0.946800
N961	N96	0.467600	0.677000	0.924300
O2391	O239	0.442000	0.693400	0.931100
C8861	C886	0.379800	0.711700	0.915000
C8871	C887	0.348600	0.725100	0.883100
H4971	H497	0.339900	0.716700	0.854800
C8881	C888	0.390000	0.724800	0.955700
H4981	H498	0.411000	0.716500	0.979000
C8891	C889	0.329400	0.749900	0.890000
H4991	H499	0.308800	0.758700	0.866800
C8901	C890	0.371400	0.749100	0.963900
H5001	H500	0.379600	0.757100	0.992200
Br321	Br32	0.314520	0.794000	0.943000
C8911	C891	0.340900	0.761500	0.930900
O2401	O240	0.461700	0.586600	0.902300
C8921	C892	0.369100	0.488000	0.904400
C8931	C893	0.367800	0.459300	0.884200
H5011	H501	0.384300	0.455600	0.872000
C8941	C894	0.343300	0.436000	0.881200
H5021	H502	0.343100	0.416700	0.867100
C8951	C895	0.318900	0.440400	0.898900
C8961	C896	0.319600	0.469200	0.918600
H5031	H503	0.302800	0.472900	0.930300
C8971	C897	0.344200	0.492400	0.921500
H5041	H504	0.344200	0.511800	0.935400
C8981	C898	0.292800	0.415200	0.898000
O2411	O241	0.290800	0.390400	0.877700
O2421	O242	0.454400	0.619500	0.831100
O2431	O243	0.273400	0.421700	0.917600
C8991	C899	0.357600	0.625600	0.655200
C9001	C900	0.347700	0.599100	0.628600
H5051	H505	0.357100	0.579000	0.640500
C9011	C901	0.324300	0.601400	0.585300
H5061	H506	0.317500	0.583000	0.567900
C9021	C902	0.310800	0.631000	0.567200
C9031	C903	0.320300	0.657600	0.593900
H5071	H507	0.310800	0.677600	0.582100
C9041	C904	0.343200	0.654900	0.637200
H5081	H508	0.349200	0.673200	0.655000
C9051	C905	0.286900	0.635000	0.519600
O2441	O244	0.507900	0.629700	0.909200
O2451	O245	0.273600	0.610100	0.497300
O2461	O246	0.279200	0.662600	0.505400
C9061	C906	0.613700	0.724600	0.939000
C9071	C907	0.601700	0.754900	0.922800
H5091	H509	0.576600	0.759800	0.911000
C9081	C908	0.626300	0.777600	0.923800
H5101	H510	0.617700	0.798000	0.912800
C9091	C909	0.663200	0.771300	0.940400
C9101	C910	0.675600	0.741600	0.958000
H5111	H511	0.700900	0.736900	0.970200
C9111	C911	0.651200	0.719000	0.957700
H5121	H512	0.660100	0.699100	0.970500
C9121	C912	0.689900	0.795800	0.939700
O2471	O247	0.722500	0.788900	0.954700
O2481	O248	0.677000	0.821900	0.923500
