data_OKUSUK_clean_PM
_symmetry_space_group_name_H-M	'P1'
_cell_length_a	46.371000
_cell_length_b	46.371000
_cell_length_c	46.371000
_cell_angle_alpha	90.000000
_cell_angle_beta	90.000000
_cell_angle_gamma	90.000000
_symmetry_Int_Tables_number 1

loop_
_symmetry_equiv_pos_as_xyz
'x,y,z'

loop_
_atom_site_label
_atom_site_type_symbol
_atom_site_fract_x
_atom_site_fract_y
_atom_site_fract_z
O11	O1	0.196780	0.499420	0.460460
O21	O2	0.149210	0.499520	0.460230
O31	O3	0.038960	0.500480	0.349970
O41	O4	0.038730	0.500580	0.302410
N11	N1	0.172580	0.505140	0.326580
C11	C1	0.220760	0.530240	0.265990
C21	C2	0.199160	0.529960	0.286970
C31	C3	0.201550	0.502170	0.400690
C41	C4	0.202540	0.503470	0.370470
C51	C5	0.176510	0.503400	0.355450
C61	C6	0.150440	0.502230	0.369750
C71	C7	0.148730	0.500870	0.399720
C81	C8	0.174800	0.500920	0.415600
C91	C9	0.173080	0.499310	0.446750
C101	C10	0.052440	0.500700	0.326110
C111	C11	0.083500	0.502760	0.324390
C121	C12	0.099380	0.502040	0.350450
C131	C13	0.129380	0.503090	0.348740
C141	C14	0.143660	0.504980	0.322700
C151	C15	0.128620	0.505750	0.296690
C161	C16	0.098390	0.504680	0.297670
C171	C17	0.194960	0.505460	0.304120
C181	C18	0.212400	0.481950	0.300060
C191	C19	0.233750	0.482030	0.278810
C201	C20	0.238170	0.505820	0.261650
H11	H1	0.223660	0.549370	0.252900
H21	H2	0.185790	0.548860	0.290040
H31	H3	0.221730	0.502300	0.412450
H41	H4	0.223000	0.504690	0.359330
H51	H5	0.127940	0.500090	0.410330
H61	H6	0.088800	0.500450	0.371200
H71	H7	0.139770	0.506920	0.276230
H81	H8	0.086630	0.505180	0.277510
H91	H9	0.209270	0.462920	0.313220
H101	H10	0.247050	0.463040	0.275970
O51	O5	0.196780	0.999420	0.960460
O61	O6	0.149210	0.999520	0.960230
O71	O7	0.038960	0.000480	0.849970
O81	O8	0.038730	0.000580	0.802410
N21	N2	0.172580	0.005140	0.826580
C211	C21	0.220760	0.030240	0.765990
C221	C22	0.199160	0.029960	0.786970
C231	C23	0.201550	0.002170	0.900690
C241	C24	0.202540	0.003470	0.870470
C251	C25	0.176510	0.003400	0.855450
C261	C26	0.150440	0.002230	0.869750
C271	C27	0.148730	0.000870	0.899720
C281	C28	0.174800	0.000920	0.915600
C291	C29	0.173080	0.999310	0.946750
C301	C30	0.052440	0.000700	0.826110
C311	C31	0.083500	0.002760	0.824390
C321	C32	0.099380	0.002040	0.850450
C331	C33	0.129380	0.003090	0.848740
C341	C34	0.143660	0.004980	0.822700
C351	C35	0.128620	0.005750	0.796690
C361	C36	0.098390	0.004680	0.797670
C371	C37	0.194960	0.005460	0.804120
C381	C38	0.212400	0.981950	0.800060
C391	C39	0.233750	0.982030	0.778810
C401	C40	0.238170	0.005820	0.761650
H111	H11	0.223660	0.049370	0.752900
H121	H12	0.185790	0.048860	0.790040
H131	H13	0.221730	0.002300	0.912450
H141	H14	0.223000	0.004690	0.859330
H151	H15	0.127940	0.000090	0.910330
H161	H16	0.088800	0.000450	0.871200
H171	H17	0.139770	0.006920	0.776230
H181	H18	0.086630	0.005180	0.777510
H191	H19	0.209270	0.962920	0.813220
H201	H20	0.247050	0.963040	0.775970
O91	O9	0.696780	0.499420	0.960460
O101	O10	0.649210	0.499520	0.960230
O111	O11	0.538960	0.500480	0.849970
O121	O12	0.538730	0.500580	0.802410
N31	N3	0.672580	0.505140	0.826580
C411	C41	0.720760	0.530240	0.765990
C421	C42	0.699160	0.529960	0.786970
C431	C43	0.701550	0.502170	0.900690
C441	C44	0.702540	0.503470	0.870470
C451	C45	0.676510	0.503400	0.855450
C461	C46	0.650440	0.502230	0.869750
C471	C47	0.648730	0.500870	0.899720
C481	C48	0.674800	0.500920	0.915600
C491	C49	0.673080	0.499310	0.946750
C501	C50	0.552440	0.500700	0.826110
C511	C51	0.583500	0.502760	0.824390
C521	C52	0.599380	0.502040	0.850450
C531	C53	0.629380	0.503090	0.848740
C541	C54	0.643660	0.504980	0.822700
C551	C55	0.628620	0.505750	0.796690
C561	C56	0.598390	0.504680	0.797670
C571	C57	0.694960	0.505460	0.804120
C581	C58	0.712400	0.481950	0.800060
C591	C59	0.733750	0.482030	0.778810
C601	C60	0.738170	0.505820	0.761650
H211	H21	0.723660	0.549370	0.752900
H221	H22	0.685790	0.548860	0.790040
H231	H23	0.721730	0.502300	0.912450
H241	H24	0.723000	0.504690	0.859330
H251	H25	0.627940	0.500090	0.910330
H261	H26	0.588800	0.500450	0.871200
H271	H27	0.639770	0.506920	0.776230
H281	H28	0.586630	0.505180	0.777510
H291	H29	0.709270	0.462920	0.813220
H301	H30	0.747050	0.463040	0.775970
O131	O13	0.696780	0.999420	0.460460
O141	O14	0.649210	0.999520	0.460230
O151	O15	0.538960	0.000480	0.349970
O161	O16	0.538730	0.000580	0.302410
N41	N4	0.672580	0.005140	0.326580
C611	C61	0.720760	0.030240	0.265990
C621	C62	0.699160	0.029960	0.286970
C631	C63	0.701550	0.002170	0.400690
C641	C64	0.702540	0.003470	0.370470
C651	C65	0.676510	0.003400	0.355450
C661	C66	0.650440	0.002230	0.369750
C671	C67	0.648730	0.000870	0.399720
C681	C68	0.674800	0.000920	0.415600
C691	C69	0.673080	0.999310	0.446750
C701	C70	0.552440	0.000700	0.326110
C711	C71	0.583500	0.002760	0.324390
C721	C72	0.599380	0.002040	0.350450
C731	C73	0.629380	0.003090	0.348740
C741	C74	0.643660	0.004980	0.322700
C751	C75	0.628620	0.005750	0.296690
C761	C76	0.598390	0.004680	0.297670
C771	C77	0.694960	0.005460	0.304120
C781	C78	0.712400	0.981950	0.300060
C791	C79	0.733750	0.982030	0.278810
C801	C80	0.738170	0.005820	0.261650
H311	H31	0.723660	0.049370	0.252900
H321	H32	0.685790	0.048860	0.290040
H331	H33	0.721730	0.002300	0.412450
H341	H34	0.723000	0.004690	0.359330
H351	H35	0.627940	0.000090	0.410330
H361	H36	0.588800	0.000450	0.371200
H371	H37	0.639770	0.006920	0.276230
H381	H38	0.586630	0.005180	0.277510
H391	H39	0.709270	0.962920	0.313220
H401	H40	0.747050	0.963040	0.275970
O171	O17	0.803220	0.500580	0.460460
O181	O18	0.850790	0.500480	0.460230
O191	O19	0.961040	0.499520	0.349970
O201	O20	0.961270	0.499420	0.302410
N51	N5	0.827420	0.494860	0.326580
C811	C81	0.779240	0.469760	0.265990
C821	C82	0.800840	0.470040	0.286970
C831	C83	0.798450	0.497830	0.400690
C841	C84	0.797460	0.496530	0.370470
C851	C85	0.823490	0.496600	0.355450
C861	C86	0.849560	0.497770	0.369750
C871	C87	0.851270	0.499130	0.399720
C881	C88	0.825200	0.499080	0.415600
C891	C89	0.826920	0.500690	0.446750
C901	C90	0.947560	0.499300	0.326110
C911	C91	0.916500	0.497240	0.324390
C921	C92	0.900620	0.497960	0.350450
C931	C93	0.870620	0.496910	0.348740
C941	C94	0.856340	0.495020	0.322700
C951	C95	0.871380	0.494250	0.296690
C961	C96	0.901610	0.495320	0.297670
C971	C97	0.805040	0.494540	0.304120
C981	C98	0.787600	0.518050	0.300060
C991	C99	0.766250	0.517970	0.278810
C1001	C100	0.761830	0.494180	0.261650
H411	H41	0.776340	0.450630	0.252900
H421	H42	0.814210	0.451140	0.290040
H431	H43	0.778270	0.497700	0.412450
H441	H44	0.777000	0.495310	0.359330
H451	H45	0.872060	0.499910	0.410330
H461	H46	0.911200	0.499550	0.371200
H471	H47	0.860230	0.493080	0.276230
H481	H48	0.913370	0.494820	0.277510
H491	H49	0.790730	0.537080	0.313220
H501	H50	0.752950	0.536960	0.275970
O211	O21	0.803220	0.000580	0.960460
O221	O22	0.850790	0.000480	0.960230
O231	O23	0.961040	0.999520	0.849970
O241	O24	0.961270	0.999420	0.802410
N61	N6	0.827420	0.994860	0.826580
C1011	C101	0.779240	0.969760	0.765990
C1021	C102	0.800840	0.970040	0.786970
C1031	C103	0.798450	0.997830	0.900690
C1041	C104	0.797460	0.996530	0.870470
C1051	C105	0.823490	0.996600	0.855450
C1061	C106	0.849560	0.997770	0.869750
C1071	C107	0.851270	0.999130	0.899720
C1081	C108	0.825200	0.999080	0.915600
C1091	C109	0.826920	0.000690	0.946750
C1101	C110	0.947560	0.999300	0.826110
C1111	C111	0.916500	0.997240	0.824390
C1121	C112	0.900620	0.997960	0.850450
C1131	C113	0.870620	0.996910	0.848740
C1141	C114	0.856340	0.995020	0.822700
C1151	C115	0.871380	0.994250	0.796690
C1161	C116	0.901610	0.995320	0.797670
C1171	C117	0.805040	0.994540	0.804120
C1181	C118	0.787600	0.018050	0.800060
C1191	C119	0.766250	0.017970	0.778810
C1201	C120	0.761830	0.994180	0.761650
H511	H51	0.776340	0.950630	0.752900
H521	H52	0.814210	0.951140	0.790040
H531	H53	0.778270	0.997700	0.912450
H541	H54	0.777000	0.995310	0.859330
H551	H55	0.872060	0.999910	0.910330
H561	H56	0.911200	0.999550	0.871200
H571	H57	0.860230	0.993080	0.776230
H581	H58	0.913370	0.994820	0.777510
H591	H59	0.790730	0.037080	0.813220
H601	H60	0.752950	0.036960	0.775970
O251	O25	0.303220	0.500580	0.960460
O261	O26	0.350790	0.500480	0.960230
O271	O27	0.461040	0.499520	0.849970
O281	O28	0.461270	0.499420	0.802410
N71	N7	0.327420	0.494860	0.826580
C1211	C121	0.279240	0.469760	0.765990
C1221	C122	0.300840	0.470040	0.786970
C1231	C123	0.298450	0.497830	0.900690
C1241	C124	0.297460	0.496530	0.870470
C1251	C125	0.323490	0.496600	0.855450
C1261	C126	0.349560	0.497770	0.869750
C1271	C127	0.351270	0.499130	0.899720
C1281	C128	0.325200	0.499080	0.915600
C1291	C129	0.326920	0.500690	0.946750
C1301	C130	0.447560	0.499300	0.826110
C1311	C131	0.416500	0.497240	0.824390
C1321	C132	0.400620	0.497960	0.850450
C1331	C133	0.370620	0.496910	0.848740
C1341	C134	0.356340	0.495020	0.822700
C1351	C135	0.371380	0.494250	0.796690
C1361	C136	0.401610	0.495320	0.797670
C1371	C137	0.305040	0.494540	0.804120
C1381	C138	0.287600	0.518050	0.800060
C1391	C139	0.266250	0.517970	0.778810
C1401	C140	0.261830	0.494180	0.761650
H611	H61	0.276340	0.450630	0.752900
H621	H62	0.314210	0.451140	0.790040
H631	H63	0.278270	0.497700	0.912450
H641	H64	0.277000	0.495310	0.859330
H651	H65	0.372060	0.499910	0.910330
H661	H66	0.411200	0.499550	0.871200
H671	H67	0.360230	0.493080	0.776230
H681	H68	0.413370	0.494820	0.777510
H691	H69	0.290730	0.537080	0.813220
H701	H70	0.252950	0.536960	0.775970
O291	O29	0.303220	0.000580	0.460460
O301	O30	0.350790	0.000480	0.460230
O311	O31	0.461040	0.999520	0.349970
O321	O32	0.461270	0.999420	0.302410
N81	N8	0.327420	0.994860	0.326580
C1411	C141	0.279240	0.969760	0.265990
C1421	C142	0.300840	0.970040	0.286970
C1431	C143	0.298450	0.997830	0.400690
C1441	C144	0.297460	0.996530	0.370470
C1451	C145	0.323490	0.996600	0.355450
C1461	C146	0.349560	0.997770	0.369750
C1471	C147	0.351270	0.999130	0.399720
C1481	C148	0.325200	0.999080	0.415600
C1491	C149	0.326920	0.000690	0.446750
C1501	C150	0.447560	0.999300	0.326110
C1511	C151	0.416500	0.997240	0.324390
C1521	C152	0.400620	0.997960	0.350450
C1531	C153	0.370620	0.996910	0.348740
C1541	C154	0.356340	0.995020	0.322700
C1551	C155	0.371380	0.994250	0.296690
C1561	C156	0.401610	0.995320	0.297670
C1571	C157	0.305040	0.994540	0.304120
C1581	C158	0.287600	0.018050	0.300060
C1591	C159	0.266250	0.017970	0.278810
C1601	C160	0.261830	0.994180	0.261650
H711	H71	0.276340	0.950630	0.252900
H721	H72	0.314210	0.951140	0.290040
H731	H73	0.278270	0.997700	0.412450
H741	H74	0.277000	0.995310	0.359330
H751	H75	0.372060	0.999910	0.410330
H761	H76	0.411200	0.999550	0.371200
H771	H77	0.360230	0.993080	0.276230
H781	H78	0.413370	0.994820	0.277510
H791	H79	0.290730	0.037080	0.313220
H801	H80	0.252950	0.036960	0.275970
O331	O33	0.803220	0.499420	0.539540
O341	O34	0.850790	0.499520	0.539770
O351	O35	0.961040	0.500480	0.650030
O361	O36	0.961270	0.500580	0.697590
N91	N9	0.827420	0.505140	0.673420
C1611	C161	0.779240	0.530240	0.734010
C1621	C162	0.800840	0.529960	0.713030
C1631	C163	0.798450	0.502170	0.599310
C1641	C164	0.797460	0.503470	0.629530
C1651	C165	0.823490	0.503400	0.644550
C1661	C166	0.849560	0.502230	0.630250
C1671	C167	0.851270	0.500870	0.600280
C1681	C168	0.825200	0.500920	0.584400
C1691	C169	0.826920	0.499310	0.553250
C1701	C170	0.947560	0.500700	0.673890
C1711	C171	0.916500	0.502760	0.675610
C1721	C172	0.900620	0.502040	0.649550
C1731	C173	0.870620	0.503090	0.651260
C1741	C174	0.856340	0.504980	0.677300
C1751	C175	0.871380	0.505750	0.703310
C1761	C176	0.901610	0.504680	0.702330
C1771	C177	0.805040	0.505460	0.695880
C1781	C178	0.787600	0.481950	0.699940
C1791	C179	0.766250	0.482030	0.721190
C1801	C180	0.761830	0.505820	0.738350
H811	H81	0.776340	0.549370	0.747100
H821	H82	0.814210	0.548860	0.709960
H831	H83	0.778270	0.502300	0.587550
H841	H84	0.777000	0.504690	0.640670
H851	H85	0.872060	0.500090	0.589670
H861	H86	0.911200	0.500450	0.628800
H871	H87	0.860230	0.506920	0.723770
H881	H88	0.913370	0.505180	0.722490
H891	H89	0.790730	0.462920	0.686780
H901	H90	0.752950	0.463040	0.724030
O371	O37	0.803220	0.999420	0.039540
O381	O38	0.850790	0.999520	0.039770
O391	O39	0.961040	0.000480	0.150030
O401	O40	0.961270	0.000580	0.197590
N101	N10	0.827420	0.005140	0.173420
C1811	C181	0.779240	0.030240	0.234010
C1821	C182	0.800840	0.029960	0.213030
C1831	C183	0.798450	0.002170	0.099310
C1841	C184	0.797460	0.003470	0.129530
C1851	C185	0.823490	0.003400	0.144550
C1861	C186	0.849560	0.002230	0.130250
C1871	C187	0.851270	0.000870	0.100280
C1881	C188	0.825200	0.000920	0.084400
C1891	C189	0.826920	0.999310	0.053250
C1901	C190	0.947560	0.000700	0.173890
C1911	C191	0.916500	0.002760	0.175610
C1921	C192	0.900620	0.002040	0.149550
C1931	C193	0.870620	0.003090	0.151260
C1941	C194	0.856340	0.004980	0.177300
C1951	C195	0.871380	0.005750	0.203310
C1961	C196	0.901610	0.004680	0.202330
C1971	C197	0.805040	0.005460	0.195880
C1981	C198	0.787600	0.981950	0.199940
C1991	C199	0.766250	0.982030	0.221190
C2001	C200	0.761830	0.005820	0.238350
H911	H91	0.776340	0.049370	0.247100
H921	H92	0.814210	0.048860	0.209960
H931	H93	0.778270	0.002300	0.087550
H941	H94	0.777000	0.004690	0.140670
H951	H95	0.872060	0.000090	0.089670
H961	H96	0.911200	0.000450	0.128800
H971	H97	0.860230	0.006920	0.223770
H981	H98	0.913370	0.005180	0.222490
H991	H99	0.790730	0.962920	0.186780
H1001	H100	0.752950	0.963040	0.224030
O411	O41	0.303220	0.499420	0.039540
O421	O42	0.350790	0.499520	0.039770
O431	O43	0.461040	0.500480	0.150030
O441	O44	0.461270	0.500580	0.197590
N111	N11	0.327420	0.505140	0.173420
C2011	C201	0.279240	0.530240	0.234010
C2021	C202	0.300840	0.529960	0.213030
C2031	C203	0.298450	0.502170	0.099310
C2041	C204	0.297460	0.503470	0.129530
C2051	C205	0.323490	0.503400	0.144550
C2061	C206	0.349560	0.502230	0.130250
C2071	C207	0.351270	0.500870	0.100280
C2081	C208	0.325200	0.500920	0.084400
C2091	C209	0.326920	0.499310	0.053250
C2101	C210	0.447560	0.500700	0.173890
C2111	C211	0.416500	0.502760	0.175610
C2121	C212	0.400620	0.502040	0.149550
C2131	C213	0.370620	0.503090	0.151260
C2141	C214	0.356340	0.504980	0.177300
C2151	C215	0.371380	0.505750	0.203310
C2161	C216	0.401610	0.504680	0.202330
C2171	C217	0.305040	0.505460	0.195880
C2181	C218	0.287600	0.481950	0.199940
C2191	C219	0.266250	0.482030	0.221190
C2201	C220	0.261830	0.505820	0.238350
H1011	H101	0.276340	0.549370	0.247100
H1021	H102	0.314210	0.548860	0.209960
H1031	H103	0.278270	0.502300	0.087550
H1041	H104	0.277000	0.504690	0.140670
H1051	H105	0.372060	0.500090	0.089670
H1061	H106	0.411200	0.500450	0.128800
H1071	H107	0.360230	0.506920	0.223770
H1081	H108	0.413370	0.505180	0.222490
H1091	H109	0.290730	0.462920	0.186780
H1101	H110	0.252950	0.463040	0.224030
O451	O45	0.303220	0.999420	0.539540
O461	O46	0.350790	0.999520	0.539770
O471	O47	0.461040	0.000480	0.650030
O481	O48	0.461270	0.000580	0.697590
N121	N12	0.327420	0.005140	0.673420
C2211	C221	0.279240	0.030240	0.734010
C2221	C222	0.300840	0.029960	0.713030
C2231	C223	0.298450	0.002170	0.599310
C2241	C224	0.297460	0.003470	0.629530
C2251	C225	0.323490	0.003400	0.644550
C2261	C226	0.349560	0.002230	0.630250
C2271	C227	0.351270	0.000870	0.600280
C2281	C228	0.325200	0.000920	0.584400
C2291	C229	0.326920	0.999310	0.553250
C2301	C230	0.447560	0.000700	0.673890
C2311	C231	0.416500	0.002760	0.675610
C2321	C232	0.400620	0.002040	0.649550
C2331	C233	0.370620	0.003090	0.651260
C2341	C234	0.356340	0.004980	0.677300
C2351	C235	0.371380	0.005750	0.703310
C2361	C236	0.401610	0.004680	0.702330
C2371	C237	0.305040	0.005460	0.695880
C2381	C238	0.287600	0.981950	0.699940
C2391	C239	0.266250	0.982030	0.721190
C2401	C240	0.261830	0.005820	0.738350
H1111	H111	0.276340	0.049370	0.747100
H1121	H112	0.314210	0.048860	0.709960
H1131	H113	0.278270	0.002300	0.587550
H1141	H114	0.277000	0.004690	0.640670
H1151	H115	0.372060	0.000090	0.589670
H1161	H116	0.411200	0.000450	0.628800
H1171	H117	0.360230	0.006920	0.723770
H1181	H118	0.413370	0.005180	0.722490
H1191	H119	0.290730	0.962920	0.686780
H1201	H120	0.252950	0.963040	0.724030
O491	O49	0.196780	0.500580	0.539540
O501	O50	0.149210	0.500480	0.539770
O511	O51	0.038960	0.499520	0.650030
O521	O52	0.038730	0.499420	0.697590
N131	N13	0.172580	0.494860	0.673420
C2411	C241	0.220760	0.469760	0.734010
C2421	C242	0.199160	0.470040	0.713030
C2431	C243	0.201550	0.497830	0.599310
C2441	C244	0.202540	0.496530	0.629530
C2451	C245	0.176510	0.496600	0.644550
C2461	C246	0.150440	0.497770	0.630250
C2471	C247	0.148730	0.499130	0.600280
C2481	C248	0.174800	0.499080	0.584400
C2491	C249	0.173080	0.500690	0.553250
C2501	C250	0.052440	0.499300	0.673890
C2511	C251	0.083500	0.497240	0.675610
C2521	C252	0.099380	0.497960	0.649550
C2531	C253	0.129380	0.496910	0.651260
C2541	C254	0.143660	0.495020	0.677300
C2551	C255	0.128620	0.494250	0.703310
C2561	C256	0.098390	0.495320	0.702330
C2571	C257	0.194960	0.494540	0.695880
C2581	C258	0.212400	0.518050	0.699940
C2591	C259	0.233750	0.517970	0.721190
C2601	C260	0.238170	0.494180	0.738350
H1211	H121	0.223660	0.450630	0.747100
H1221	H122	0.185790	0.451140	0.709960
H1231	H123	0.221730	0.497700	0.587550
H1241	H124	0.223000	0.495310	0.640670
H1251	H125	0.127940	0.499910	0.589670
H1261	H126	0.088800	0.499550	0.628800
H1271	H127	0.139770	0.493080	0.723770
H1281	H128	0.086630	0.494820	0.722490
H1291	H129	0.209270	0.537080	0.686780
H1301	H130	0.247050	0.536960	0.724030
O531	O53	0.196780	0.000580	0.039540
O541	O54	0.149210	0.000480	0.039770
O551	O55	0.038960	0.999520	0.150030
O561	O56	0.038730	0.999420	0.197590
N141	N14	0.172580	0.994860	0.173420
C2611	C261	0.220760	0.969760	0.234010
C2621	C262	0.199160	0.970040	0.213030
C2631	C263	0.201550	0.997830	0.099310
C2641	C264	0.202540	0.996530	0.129530
C2651	C265	0.176510	0.996600	0.144550
C2661	C266	0.150440	0.997770	0.130250
C2671	C267	0.148730	0.999130	0.100280
C2681	C268	0.174800	0.999080	0.084400
C2691	C269	0.173080	0.000690	0.053250
C2701	C270	0.052440	0.999300	0.173890
C2711	C271	0.083500	0.997240	0.175610
C2721	C272	0.099380	0.997960	0.149550
C2731	C273	0.129380	0.996910	0.151260
C2741	C274	0.143660	0.995020	0.177300
C2751	C275	0.128620	0.994250	0.203310
C2761	C276	0.098390	0.995320	0.202330
C2771	C277	0.194960	0.994540	0.195880
C2781	C278	0.212400	0.018050	0.199940
C2791	C279	0.233750	0.017970	0.221190
C2801	C280	0.238170	0.994180	0.238350
H1311	H131	0.223660	0.950630	0.247100
H1321	H132	0.185790	0.951140	0.209960
H1331	H133	0.221730	0.997700	0.087550
H1341	H134	0.223000	0.995310	0.140670
H1351	H135	0.127940	0.999910	0.089670
H1361	H136	0.088800	0.999550	0.128800
H1371	H137	0.139770	0.993080	0.223770
H1381	H138	0.086630	0.994820	0.222490
H1391	H139	0.209270	0.037080	0.186780
H1401	H140	0.247050	0.036960	0.224030
O571	O57	0.696780	0.500580	0.039540
O581	O58	0.649210	0.500480	0.039770
O591	O59	0.538960	0.499520	0.150030
O601	O60	0.538730	0.499420	0.197590
N151	N15	0.672580	0.494860	0.173420
C2811	C281	0.720760	0.469760	0.234010
C2821	C282	0.699160	0.470040	0.213030
C2831	C283	0.701550	0.497830	0.099310
C2841	C284	0.702540	0.496530	0.129530
C2851	C285	0.676510	0.496600	0.144550
C2861	C286	0.650440	0.497770	0.130250
C2871	C287	0.648730	0.499130	0.100280
C2881	C288	0.674800	0.499080	0.084400
C2891	C289	0.673080	0.500690	0.053250
C2901	C290	0.552440	0.499300	0.173890
C2911	C291	0.583500	0.497240	0.175610
C2921	C292	0.599380	0.497960	0.149550
C2931	C293	0.629380	0.496910	0.151260
C2941	C294	0.643660	0.495020	0.177300
C2951	C295	0.628620	0.494250	0.203310
C2961	C296	0.598390	0.495320	0.202330
C2971	C297	0.694960	0.494540	0.195880
C2981	C298	0.712400	0.518050	0.199940
C2991	C299	0.733750	0.517970	0.221190
C3001	C300	0.738170	0.494180	0.238350
H1411	H141	0.723660	0.450630	0.247100
H1421	H142	0.685790	0.451140	0.209960
H1431	H143	0.721730	0.497700	0.087550
H1441	H144	0.723000	0.495310	0.140670
H1451	H145	0.627940	0.499910	0.089670
H1461	H146	0.588800	0.499550	0.128800
H1471	H147	0.639770	0.493080	0.223770
H1481	H148	0.586630	0.494820	0.222490
H1491	H149	0.709270	0.537080	0.186780
H1501	H150	0.747050	0.536960	0.224030
O611	O61	0.696780	0.000580	0.539540
O621	O62	0.649210	0.000480	0.539770
O631	O63	0.538960	0.999520	0.650030
O641	O64	0.538730	0.999420	0.697590
N161	N16	0.672580	0.994860	0.673420
C3011	C301	0.720760	0.969760	0.734010
C3021	C302	0.699160	0.970040	0.713030
C3031	C303	0.701550	0.997830	0.599310
C3041	C304	0.702540	0.996530	0.629530
C3051	C305	0.676510	0.996600	0.644550
C3061	C306	0.650440	0.997770	0.630250
C3071	C307	0.648730	0.999130	0.600280
C3081	C308	0.674800	0.999080	0.584400
C3091	C309	0.673080	0.000690	0.553250
C3101	C310	0.552440	0.999300	0.673890
C3111	C311	0.583500	0.997240	0.675610
C3121	C312	0.599380	0.997960	0.649550
C3131	C313	0.629380	0.996910	0.651260
C3141	C314	0.643660	0.995020	0.677300
C3151	C315	0.628620	0.994250	0.703310
C3161	C316	0.598390	0.995320	0.702330
C3171	C317	0.694960	0.994540	0.695880
C3181	C318	0.712400	0.018050	0.699940
C3191	C319	0.733750	0.017970	0.721190
C3201	C320	0.738170	0.994180	0.738350
H1511	H151	0.723660	0.950630	0.747100
H1521	H152	0.685790	0.951140	0.709960
H1531	H153	0.721730	0.997700	0.587550
H1541	H154	0.723000	0.995310	0.640670
H1551	H155	0.627940	0.999910	0.589670
H1561	H156	0.588800	0.999550	0.628800
H1571	H157	0.639770	0.993080	0.723770
H1581	H158	0.586630	0.994820	0.722490
H1591	H159	0.709270	0.037080	0.686780
H1601	H160	0.747050	0.036960	0.724030
O651	O65	0.460460	0.196780	0.499420
O661	O66	0.460230	0.149210	0.499520
O671	O67	0.349970	0.038960	0.500480
O681	O68	0.302410	0.038730	0.500580
N171	N17	0.326580	0.172580	0.505140
C3211	C321	0.265990	0.220760	0.530240
C3221	C322	0.286970	0.199160	0.529960
C3231	C323	0.400690	0.201550	0.502170
C3241	C324	0.370470	0.202540	0.503470
C3251	C325	0.355450	0.176510	0.503400
C3261	C326	0.369750	0.150440	0.502230
C3271	C327	0.399720	0.148730	0.500870
C3281	C328	0.415600	0.174800	0.500920
C3291	C329	0.446750	0.173080	0.499310
C3301	C330	0.326110	0.052440	0.500700
C3311	C331	0.324390	0.083500	0.502760
C3321	C332	0.350450	0.099380	0.502040
C3331	C333	0.348740	0.129380	0.503090
C3341	C334	0.322700	0.143660	0.504980
C3351	C335	0.296690	0.128620	0.505750
C3361	C336	0.297670	0.098390	0.504680
C3371	C337	0.304120	0.194960	0.505460
C3381	C338	0.300060	0.212400	0.481950
C3391	C339	0.278810	0.233750	0.482030
C3401	C340	0.261650	0.238170	0.505820
H1611	H161	0.252900	0.223660	0.549370
H1621	H162	0.290040	0.185790	0.548860
H1631	H163	0.412450	0.221730	0.502300
H1641	H164	0.359330	0.223000	0.504690
H1651	H165	0.410330	0.127940	0.500090
H1661	H166	0.371200	0.088800	0.500450
H1671	H167	0.276230	0.139770	0.506920
H1681	H168	0.277510	0.086630	0.505180
H1691	H169	0.313220	0.209270	0.462920
H1701	H170	0.275970	0.247050	0.463040
O691	O69	0.460460	0.696780	0.999420
O701	O70	0.460230	0.649210	0.999520
O711	O71	0.349970	0.538960	0.000480
O721	O72	0.302410	0.538730	0.000580
N181	N18	0.326580	0.672580	0.005140
C3411	C341	0.265990	0.720760	0.030240
C3421	C342	0.286970	0.699160	0.029960
C3431	C343	0.400690	0.701550	0.002170
C3441	C344	0.370470	0.702540	0.003470
C3451	C345	0.355450	0.676510	0.003400
C3461	C346	0.369750	0.650440	0.002230
C3471	C347	0.399720	0.648730	0.000870
C3481	C348	0.415600	0.674800	0.000920
C3491	C349	0.446750	0.673080	0.999310
C3501	C350	0.326110	0.552440	0.000700
C3511	C351	0.324390	0.583500	0.002760
C3521	C352	0.350450	0.599380	0.002040
C3531	C353	0.348740	0.629380	0.003090
C3541	C354	0.322700	0.643660	0.004980
C3551	C355	0.296690	0.628620	0.005750
C3561	C356	0.297670	0.598390	0.004680
C3571	C357	0.304120	0.694960	0.005460
C3581	C358	0.300060	0.712400	0.981950
C3591	C359	0.278810	0.733750	0.982030
C3601	C360	0.261650	0.738170	0.005820
H1711	H171	0.252900	0.723660	0.049370
H1721	H172	0.290040	0.685790	0.048860
H1731	H173	0.412450	0.721730	0.002300
H1741	H174	0.359330	0.723000	0.004690
H1751	H175	0.410330	0.627940	0.000090
H1761	H176	0.371200	0.588800	0.000450
H1771	H177	0.276230	0.639770	0.006920
H1781	H178	0.277510	0.586630	0.005180
H1791	H179	0.313220	0.709270	0.962920
H1801	H180	0.275970	0.747050	0.963040
O731	O73	0.960460	0.196780	0.999420
O741	O74	0.960230	0.149210	0.999520
O751	O75	0.849970	0.038960	0.000480
O761	O76	0.802410	0.038730	0.000580
N191	N19	0.826580	0.172580	0.005140
C3611	C361	0.765990	0.220760	0.030240
C3621	C362	0.786970	0.199160	0.029960
C3631	C363	0.900690	0.201550	0.002170
C3641	C364	0.870470	0.202540	0.003470
C3651	C365	0.855450	0.176510	0.003400
C3661	C366	0.869750	0.150440	0.002230
C3671	C367	0.899720	0.148730	0.000870
C3681	C368	0.915600	0.174800	0.000920
C3691	C369	0.946750	0.173080	0.999310
C3701	C370	0.826110	0.052440	0.000700
C3711	C371	0.824390	0.083500	0.002760
C3721	C372	0.850450	0.099380	0.002040
C3731	C373	0.848740	0.129380	0.003090
C3741	C374	0.822700	0.143660	0.004980
C3751	C375	0.796690	0.128620	0.005750
C3761	C376	0.797670	0.098390	0.004680
C3771	C377	0.804120	0.194960	0.005460
C3781	C378	0.800060	0.212400	0.981950
C3791	C379	0.778810	0.233750	0.982030
C3801	C380	0.761650	0.238170	0.005820
H1811	H181	0.752900	0.223660	0.049370
H1821	H182	0.790040	0.185790	0.048860
H1831	H183	0.912450	0.221730	0.002300
H1841	H184	0.859330	0.223000	0.004690
H1851	H185	0.910330	0.127940	0.000090
H1861	H186	0.871200	0.088800	0.000450
H1871	H187	0.776230	0.139770	0.006920
H1881	H188	0.777510	0.086630	0.005180
H1891	H189	0.813220	0.209270	0.962920
H1901	H190	0.775970	0.247050	0.963040
O771	O77	0.960460	0.696780	0.499420
O781	O78	0.960230	0.649210	0.499520
O791	O79	0.849970	0.538960	0.500480
O801	O80	0.802410	0.538730	0.500580
N201	N20	0.826580	0.672580	0.505140
C3811	C381	0.765990	0.720760	0.530240
C3821	C382	0.786970	0.699160	0.529960
C3831	C383	0.900690	0.701550	0.502170
C3841	C384	0.870470	0.702540	0.503470
C3851	C385	0.855450	0.676510	0.503400
C3861	C386	0.869750	0.650440	0.502230
C3871	C387	0.899720	0.648730	0.500870
C3881	C388	0.915600	0.674800	0.500920
C3891	C389	0.946750	0.673080	0.499310
C3901	C390	0.826110	0.552440	0.500700
C3911	C391	0.824390	0.583500	0.502760
C3921	C392	0.850450	0.599380	0.502040
C3931	C393	0.848740	0.629380	0.503090
C3941	C394	0.822700	0.643660	0.504980
C3951	C395	0.796690	0.628620	0.505750
C3961	C396	0.797670	0.598390	0.504680
C3971	C397	0.804120	0.694960	0.505460
C3981	C398	0.800060	0.712400	0.481950
C3991	C399	0.778810	0.733750	0.482030
C4001	C400	0.761650	0.738170	0.505820
H1911	H191	0.752900	0.723660	0.549370
H1921	H192	0.790040	0.685790	0.548860
H1931	H193	0.912450	0.721730	0.502300
H1941	H194	0.859330	0.723000	0.504690
H1951	H195	0.910330	0.627940	0.500090
H1961	H196	0.871200	0.588800	0.500450
H1971	H197	0.776230	0.639770	0.506920
H1981	H198	0.777510	0.586630	0.505180
H1991	H199	0.813220	0.709270	0.462920
H2001	H200	0.775970	0.747050	0.463040
O811	O81	0.460460	0.803220	0.500580
O821	O82	0.460230	0.850790	0.500480
O831	O83	0.349970	0.961040	0.499520
O841	O84	0.302410	0.961270	0.499420
N211	N21	0.326580	0.827420	0.494860
C4011	C401	0.265990	0.779240	0.469760
C4021	C402	0.286970	0.800840	0.470040
C4031	C403	0.400690	0.798450	0.497830
C4041	C404	0.370470	0.797460	0.496530
C4051	C405	0.355450	0.823490	0.496600
C4061	C406	0.369750	0.849560	0.497770
C4071	C407	0.399720	0.851270	0.499130
C4081	C408	0.415600	0.825200	0.499080
C4091	C409	0.446750	0.826920	0.500690
C4101	C410	0.326110	0.947560	0.499300
C4111	C411	0.324390	0.916500	0.497240
C4121	C412	0.350450	0.900620	0.497960
C4131	C413	0.348740	0.870620	0.496910
C4141	C414	0.322700	0.856340	0.495020
C4151	C415	0.296690	0.871380	0.494250
C4161	C416	0.297670	0.901610	0.495320
C4171	C417	0.304120	0.805040	0.494540
C4181	C418	0.300060	0.787600	0.518050
C4191	C419	0.278810	0.766250	0.517970
C4201	C420	0.261650	0.761830	0.494180
H2011	H201	0.252900	0.776340	0.450630
H2021	H202	0.290040	0.814210	0.451140
H2031	H203	0.412450	0.778270	0.497700
H2041	H204	0.359330	0.777000	0.495310
H2051	H205	0.410330	0.872060	0.499910
H2061	H206	0.371200	0.911200	0.499550
H2071	H207	0.276230	0.860230	0.493080
H2081	H208	0.277510	0.913370	0.494820
H2091	H209	0.313220	0.790730	0.537080
H2101	H210	0.275970	0.752950	0.536960
O851	O85	0.460460	0.303220	0.000580
O861	O86	0.460230	0.350790	0.000480
O871	O87	0.349970	0.461040	0.999520
O881	O88	0.302410	0.461270	0.999420
N221	N22	0.326580	0.327420	0.994860
C4211	C421	0.265990	0.279240	0.969760
C4221	C422	0.286970	0.300840	0.970040
C4231	C423	0.400690	0.298450	0.997830
C4241	C424	0.370470	0.297460	0.996530
C4251	C425	0.355450	0.323490	0.996600
C4261	C426	0.369750	0.349560	0.997770
C4271	C427	0.399720	0.351270	0.999130
C4281	C428	0.415600	0.325200	0.999080
C4291	C429	0.446750	0.326920	0.000690
C4301	C430	0.326110	0.447560	0.999300
C4311	C431	0.324390	0.416500	0.997240
C4321	C432	0.350450	0.400620	0.997960
C4331	C433	0.348740	0.370620	0.996910
C4341	C434	0.322700	0.356340	0.995020
C4351	C435	0.296690	0.371380	0.994250
C4361	C436	0.297670	0.401610	0.995320
C4371	C437	0.304120	0.305040	0.994540
C4381	C438	0.300060	0.287600	0.018050
C4391	C439	0.278810	0.266250	0.017970
C4401	C440	0.261650	0.261830	0.994180
H2111	H211	0.252900	0.276340	0.950630
H2121	H212	0.290040	0.314210	0.951140
H2131	H213	0.412450	0.278270	0.997700
H2141	H214	0.359330	0.277000	0.995310
H2151	H215	0.410330	0.372060	0.999910
H2161	H216	0.371200	0.411200	0.999550
H2171	H217	0.276230	0.360230	0.993080
H2181	H218	0.277510	0.413370	0.994820
H2191	H219	0.313220	0.290730	0.037080
H2201	H220	0.275970	0.252950	0.036960
O891	O89	0.960460	0.803220	0.000580
O901	O90	0.960230	0.850790	0.000480
O911	O91	0.849970	0.961040	0.999520
O921	O92	0.802410	0.961270	0.999420
N231	N23	0.826580	0.827420	0.994860
C4411	C441	0.765990	0.779240	0.969760
C4421	C442	0.786970	0.800840	0.970040
C4431	C443	0.900690	0.798450	0.997830
C4441	C444	0.870470	0.797460	0.996530
C4451	C445	0.855450	0.823490	0.996600
C4461	C446	0.869750	0.849560	0.997770
C4471	C447	0.899720	0.851270	0.999130
C4481	C448	0.915600	0.825200	0.999080
C4491	C449	0.946750	0.826920	0.000690
C4501	C450	0.826110	0.947560	0.999300
C4511	C451	0.824390	0.916500	0.997240
C4521	C452	0.850450	0.900620	0.997960
C4531	C453	0.848740	0.870620	0.996910
C4541	C454	0.822700	0.856340	0.995020
C4551	C455	0.796690	0.871380	0.994250
C4561	C456	0.797670	0.901610	0.995320
C4571	C457	0.804120	0.805040	0.994540
C4581	C458	0.800060	0.787600	0.018050
C4591	C459	0.778810	0.766250	0.017970
C4601	C460	0.761650	0.761830	0.994180
H2211	H221	0.752900	0.776340	0.950630
H2221	H222	0.790040	0.814210	0.951140
H2231	H223	0.912450	0.778270	0.997700
H2241	H224	0.859330	0.777000	0.995310
H2251	H225	0.910330	0.872060	0.999910
H2261	H226	0.871200	0.911200	0.999550
H2271	H227	0.776230	0.860230	0.993080
H2281	H228	0.777510	0.913370	0.994820
H2291	H229	0.813220	0.790730	0.037080
H2301	H230	0.775970	0.752950	0.036960
O931	O93	0.960460	0.303220	0.500580
O941	O94	0.960230	0.350790	0.500480
O951	O95	0.849970	0.461040	0.499520
O961	O96	0.802410	0.461270	0.499420
N241	N24	0.826580	0.327420	0.494860
C4611	C461	0.765990	0.279240	0.469760
C4621	C462	0.786970	0.300840	0.470040
C4631	C463	0.900690	0.298450	0.497830
C4641	C464	0.870470	0.297460	0.496530
C4651	C465	0.855450	0.323490	0.496600
C4661	C466	0.869750	0.349560	0.497770
C4671	C467	0.899720	0.351270	0.499130
C4681	C468	0.915600	0.325200	0.499080
C4691	C469	0.946750	0.326920	0.500690
C4701	C470	0.826110	0.447560	0.499300
C4711	C471	0.824390	0.416500	0.497240
C4721	C472	0.850450	0.400620	0.497960
C4731	C473	0.848740	0.370620	0.496910
C4741	C474	0.822700	0.356340	0.495020
C4751	C475	0.796690	0.371380	0.494250
C4761	C476	0.797670	0.401610	0.495320
C4771	C477	0.804120	0.305040	0.494540
C4781	C478	0.800060	0.287600	0.518050
C4791	C479	0.778810	0.266250	0.517970
C4801	C480	0.761650	0.261830	0.494180
H2311	H231	0.752900	0.276340	0.450630
H2321	H232	0.790040	0.314210	0.451140
H2331	H233	0.912450	0.278270	0.497700
H2341	H234	0.859330	0.277000	0.495310
H2351	H235	0.910330	0.372060	0.499910
H2361	H236	0.871200	0.411200	0.499550
H2371	H237	0.776230	0.360230	0.493080
H2381	H238	0.777510	0.413370	0.494820
H2391	H239	0.813220	0.290730	0.537080
H2401	H240	0.775970	0.252950	0.536960
O971	O97	0.539540	0.803220	0.499420
O981	O98	0.539770	0.850790	0.499520
O991	O99	0.650030	0.961040	0.500480
O1001	O100	0.697590	0.961270	0.500580
N251	N25	0.673420	0.827420	0.505140
C4811	C481	0.734010	0.779240	0.530240
C4821	C482	0.713030	0.800840	0.529960
C4831	C483	0.599310	0.798450	0.502170
C4841	C484	0.629530	0.797460	0.503470
C4851	C485	0.644550	0.823490	0.503400
C4861	C486	0.630250	0.849560	0.502230
C4871	C487	0.600280	0.851270	0.500870
C4881	C488	0.584400	0.825200	0.500920
C4891	C489	0.553250	0.826920	0.499310
C4901	C490	0.673890	0.947560	0.500700
C4911	C491	0.675610	0.916500	0.502760
C4921	C492	0.649550	0.900620	0.502040
C4931	C493	0.651260	0.870620	0.503090
C4941	C494	0.677300	0.856340	0.504980
C4951	C495	0.703310	0.871380	0.505750
C4961	C496	0.702330	0.901610	0.504680
C4971	C497	0.695880	0.805040	0.505460
C4981	C498	0.699940	0.787600	0.481950
C4991	C499	0.721190	0.766250	0.482030
C5001	C500	0.738350	0.761830	0.505820
H2411	H241	0.747100	0.776340	0.549370
H2421	H242	0.709960	0.814210	0.548860
H2431	H243	0.587550	0.778270	0.502300
H2441	H244	0.640670	0.777000	0.504690
H2451	H245	0.589670	0.872060	0.500090
H2461	H246	0.628800	0.911200	0.500450
H2471	H247	0.723770	0.860230	0.506920
H2481	H248	0.722490	0.913370	0.505180
H2491	H249	0.686780	0.790730	0.462920
H2501	H250	0.724030	0.752950	0.463040
O1011	O101	0.539540	0.303220	0.999420
O1021	O102	0.539770	0.350790	0.999520
O1031	O103	0.650030	0.461040	0.000480
O1041	O104	0.697590	0.461270	0.000580
N261	N26	0.673420	0.327420	0.005140
C5011	C501	0.734010	0.279240	0.030240
C5021	C502	0.713030	0.300840	0.029960
C5031	C503	0.599310	0.298450	0.002170
C5041	C504	0.629530	0.297460	0.003470
C5051	C505	0.644550	0.323490	0.003400
C5061	C506	0.630250	0.349560	0.002230
C5071	C507	0.600280	0.351270	0.000870
C5081	C508	0.584400	0.325200	0.000920
C5091	C509	0.553250	0.326920	0.999310
C5101	C510	0.673890	0.447560	0.000700
C5111	C511	0.675610	0.416500	0.002760
C5121	C512	0.649550	0.400620	0.002040
C5131	C513	0.651260	0.370620	0.003090
C5141	C514	0.677300	0.356340	0.004980
C5151	C515	0.703310	0.371380	0.005750
C5161	C516	0.702330	0.401610	0.004680
C5171	C517	0.695880	0.305040	0.005460
C5181	C518	0.699940	0.287600	0.981950
C5191	C519	0.721190	0.266250	0.982030
C5201	C520	0.738350	0.261830	0.005820
H2511	H251	0.747100	0.276340	0.049370
H2521	H252	0.709960	0.314210	0.048860
H2531	H253	0.587550	0.278270	0.002300
H2541	H254	0.640670	0.277000	0.004690
H2551	H255	0.589670	0.372060	0.000090
H2561	H256	0.628800	0.411200	0.000450
H2571	H257	0.723770	0.360230	0.006920
H2581	H258	0.722490	0.413370	0.005180
H2591	H259	0.686780	0.290730	0.962920
H2601	H260	0.724030	0.252950	0.963040
O1051	O105	0.039540	0.803220	0.999420
O1061	O106	0.039770	0.850790	0.999520
O1071	O107	0.150030	0.961040	0.000480
O1081	O108	0.197590	0.961270	0.000580
N271	N27	0.173420	0.827420	0.005140
C5211	C521	0.234010	0.779240	0.030240
C5221	C522	0.213030	0.800840	0.029960
C5231	C523	0.099310	0.798450	0.002170
C5241	C524	0.129530	0.797460	0.003470
C5251	C525	0.144550	0.823490	0.003400
C5261	C526	0.130250	0.849560	0.002230
C5271	C527	0.100280	0.851270	0.000870
C5281	C528	0.084400	0.825200	0.000920
C5291	C529	0.053250	0.826920	0.999310
C5301	C530	0.173890	0.947560	0.000700
C5311	C531	0.175610	0.916500	0.002760
C5321	C532	0.149550	0.900620	0.002040
C5331	C533	0.151260	0.870620	0.003090
C5341	C534	0.177300	0.856340	0.004980
C5351	C535	0.203310	0.871380	0.005750
C5361	C536	0.202330	0.901610	0.004680
C5371	C537	0.195880	0.805040	0.005460
C5381	C538	0.199940	0.787600	0.981950
C5391	C539	0.221190	0.766250	0.982030
C5401	C540	0.238350	0.761830	0.005820
H2611	H261	0.247100	0.776340	0.049370
H2621	H262	0.209960	0.814210	0.048860
H2631	H263	0.087550	0.778270	0.002300
H2641	H264	0.140670	0.777000	0.004690
H2651	H265	0.089670	0.872060	0.000090
H2661	H266	0.128800	0.911200	0.000450
H2671	H267	0.223770	0.860230	0.006920
H2681	H268	0.222490	0.913370	0.005180
H2691	H269	0.186780	0.790730	0.962920
H2701	H270	0.224030	0.752950	0.963040
O1091	O109	0.039540	0.303220	0.499420
O1101	O110	0.039770	0.350790	0.499520
O1111	O111	0.150030	0.461040	0.500480
O1121	O112	0.197590	0.461270	0.500580
N281	N28	0.173420	0.327420	0.505140
C5411	C541	0.234010	0.279240	0.530240
C5421	C542	0.213030	0.300840	0.529960
C5431	C543	0.099310	0.298450	0.502170
C5441	C544	0.129530	0.297460	0.503470
C5451	C545	0.144550	0.323490	0.503400
C5461	C546	0.130250	0.349560	0.502230
C5471	C547	0.100280	0.351270	0.500870
C5481	C548	0.084400	0.325200	0.500920
C5491	C549	0.053250	0.326920	0.499310
C5501	C550	0.173890	0.447560	0.500700
C5511	C551	0.175610	0.416500	0.502760
C5521	C552	0.149550	0.400620	0.502040
C5531	C553	0.151260	0.370620	0.503090
C5541	C554	0.177300	0.356340	0.504980
C5551	C555	0.203310	0.371380	0.505750
C5561	C556	0.202330	0.401610	0.504680
C5571	C557	0.195880	0.305040	0.505460
C5581	C558	0.199940	0.287600	0.481950
C5591	C559	0.221190	0.266250	0.482030
C5601	C560	0.238350	0.261830	0.505820
H2711	H271	0.247100	0.276340	0.549370
H2721	H272	0.209960	0.314210	0.548860
H2731	H273	0.087550	0.278270	0.502300
H2741	H274	0.140670	0.277000	0.504690
H2751	H275	0.089670	0.372060	0.500090
H2761	H276	0.128800	0.411200	0.500450
H2771	H277	0.223770	0.360230	0.506920
H2781	H278	0.222490	0.413370	0.505180
H2791	H279	0.186780	0.290730	0.462920
H2801	H280	0.224030	0.252950	0.463040
O1131	O113	0.539540	0.196780	0.500580
O1141	O114	0.539770	0.149210	0.500480
O1151	O115	0.650030	0.038960	0.499520
O1161	O116	0.697590	0.038730	0.499420
N291	N29	0.673420	0.172580	0.494860
C5611	C561	0.734010	0.220760	0.469760
C5621	C562	0.713030	0.199160	0.470040
C5631	C563	0.599310	0.201550	0.497830
C5641	C564	0.629530	0.202540	0.496530
C5651	C565	0.644550	0.176510	0.496600
C5661	C566	0.630250	0.150440	0.497770
C5671	C567	0.600280	0.148730	0.499130
C5681	C568	0.584400	0.174800	0.499080
C5691	C569	0.553250	0.173080	0.500690
C5701	C570	0.673890	0.052440	0.499300
C5711	C571	0.675610	0.083500	0.497240
C5721	C572	0.649550	0.099380	0.497960
C5731	C573	0.651260	0.129380	0.496910
C5741	C574	0.677300	0.143660	0.495020
C5751	C575	0.703310	0.128620	0.494250
C5761	C576	0.702330	0.098390	0.495320
C5771	C577	0.695880	0.194960	0.494540
C5781	C578	0.699940	0.212400	0.518050
C5791	C579	0.721190	0.233750	0.517970
C5801	C580	0.738350	0.238170	0.494180
H2811	H281	0.747100	0.223660	0.450630
H2821	H282	0.709960	0.185790	0.451140
H2831	H283	0.587550	0.221730	0.497700
H2841	H284	0.640670	0.223000	0.495310
H2851	H285	0.589670	0.127940	0.499910
H2861	H286	0.628800	0.088800	0.499550
H2871	H287	0.723770	0.139770	0.493080
H2881	H288	0.722490	0.086630	0.494820
H2891	H289	0.686780	0.209270	0.537080
H2901	H290	0.724030	0.247050	0.536960
O1171	O117	0.539540	0.696780	0.000580
O1181	O118	0.539770	0.649210	0.000480
O1191	O119	0.650030	0.538960	0.999520
O1201	O120	0.697590	0.538730	0.999420
N301	N30	0.673420	0.672580	0.994860
C5811	C581	0.734010	0.720760	0.969760
C5821	C582	0.713030	0.699160	0.970040
C5831	C583	0.599310	0.701550	0.997830
C5841	C584	0.629530	0.702540	0.996530
C5851	C585	0.644550	0.676510	0.996600
C5861	C586	0.630250	0.650440	0.997770
C5871	C587	0.600280	0.648730	0.999130
C5881	C588	0.584400	0.674800	0.999080
C5891	C589	0.553250	0.673080	0.000690
C5901	C590	0.673890	0.552440	0.999300
C5911	C591	0.675610	0.583500	0.997240
C5921	C592	0.649550	0.599380	0.997960
C5931	C593	0.651260	0.629380	0.996910
C5941	C594	0.677300	0.643660	0.995020
C5951	C595	0.703310	0.628620	0.994250
C5961	C596	0.702330	0.598390	0.995320
C5971	C597	0.695880	0.694960	0.994540
C5981	C598	0.699940	0.712400	0.018050
C5991	C599	0.721190	0.733750	0.017970
C6001	C600	0.738350	0.738170	0.994180
H2911	H291	0.747100	0.723660	0.950630
H2921	H292	0.709960	0.685790	0.951140
H2931	H293	0.587550	0.721730	0.997700
H2941	H294	0.640670	0.723000	0.995310
H2951	H295	0.589670	0.627940	0.999910
H2961	H296	0.628800	0.588800	0.999550
H2971	H297	0.723770	0.639770	0.993080
H2981	H298	0.722490	0.586630	0.994820
H2991	H299	0.686780	0.709270	0.037080
H3001	H300	0.724030	0.747050	0.036960
O1211	O121	0.039540	0.196780	0.000580
O1221	O122	0.039770	0.149210	0.000480
O1231	O123	0.150030	0.038960	0.999520
O1241	O124	0.197590	0.038730	0.999420
N311	N31	0.173420	0.172580	0.994860
C6011	C601	0.234010	0.220760	0.969760
C6021	C602	0.213030	0.199160	0.970040
C6031	C603	0.099310	0.201550	0.997830
C6041	C604	0.129530	0.202540	0.996530
C6051	C605	0.144550	0.176510	0.996600
C6061	C606	0.130250	0.150440	0.997770
C6071	C607	0.100280	0.148730	0.999130
C6081	C608	0.084400	0.174800	0.999080
C6091	C609	0.053250	0.173080	0.000690
C6101	C610	0.173890	0.052440	0.999300
C6111	C611	0.175610	0.083500	0.997240
C6121	C612	0.149550	0.099380	0.997960
C6131	C613	0.151260	0.129380	0.996910
C6141	C614	0.177300	0.143660	0.995020
C6151	C615	0.203310	0.128620	0.994250
C6161	C616	0.202330	0.098390	0.995320
C6171	C617	0.195880	0.194960	0.994540
C6181	C618	0.199940	0.212400	0.018050
C6191	C619	0.221190	0.233750	0.017970
C6201	C620	0.238350	0.238170	0.994180
H3011	H301	0.247100	0.223660	0.950630
H3021	H302	0.209960	0.185790	0.951140
H3031	H303	0.087550	0.221730	0.997700
H3041	H304	0.140670	0.223000	0.995310
H3051	H305	0.089670	0.127940	0.999910
H3061	H306	0.128800	0.088800	0.999550
H3071	H307	0.223770	0.139770	0.993080
H3081	H308	0.222490	0.086630	0.994820
H3091	H309	0.186780	0.209270	0.037080
H3101	H310	0.224030	0.247050	0.036960
O1251	O125	0.039540	0.696780	0.500580
O1261	O126	0.039770	0.649210	0.500480
O1271	O127	0.150030	0.538960	0.499520
O1281	O128	0.197590	0.538730	0.499420
N321	N32	0.173420	0.672580	0.494860
C6211	C621	0.234010	0.720760	0.469760
C6221	C622	0.213030	0.699160	0.470040
C6231	C623	0.099310	0.701550	0.497830
C6241	C624	0.129530	0.702540	0.496530
C6251	C625	0.144550	0.676510	0.496600
C6261	C626	0.130250	0.650440	0.497770
C6271	C627	0.100280	0.648730	0.499130
C6281	C628	0.084400	0.674800	0.499080
C6291	C629	0.053250	0.673080	0.500690
C6301	C630	0.173890	0.552440	0.499300
C6311	C631	0.175610	0.583500	0.497240
C6321	C632	0.149550	0.599380	0.497960
C6331	C633	0.151260	0.629380	0.496910
C6341	C634	0.177300	0.643660	0.495020
C6351	C635	0.203310	0.628620	0.494250
C6361	C636	0.202330	0.598390	0.495320
C6371	C637	0.195880	0.694960	0.494540
C6381	C638	0.199940	0.712400	0.518050
C6391	C639	0.221190	0.733750	0.517970
C6401	C640	0.238350	0.738170	0.494180
H3111	H311	0.247100	0.723660	0.450630
H3121	H312	0.209960	0.685790	0.451140
H3131	H313	0.087550	0.721730	0.497700
H3141	H314	0.140670	0.723000	0.495310
H3151	H315	0.089670	0.627940	0.499910
H3161	H316	0.128800	0.588800	0.499550
H3171	H317	0.223770	0.639770	0.493080
H3181	H318	0.222490	0.586630	0.494820
H3191	H319	0.186780	0.709270	0.537080
H3201	H320	0.224030	0.747050	0.536960
O1291	O129	0.499420	0.460460	0.196780
O1301	O130	0.499520	0.460230	0.149210
O1311	O131	0.500480	0.349970	0.038960
O1321	O132	0.500580	0.302410	0.038730
N331	N33	0.505140	0.326580	0.172580
C6411	C641	0.530240	0.265990	0.220760
C6421	C642	0.529960	0.286970	0.199160
C6431	C643	0.502170	0.400690	0.201550
C6441	C644	0.503470	0.370470	0.202540
C6451	C645	0.503400	0.355450	0.176510
C6461	C646	0.502230	0.369750	0.150440
C6471	C647	0.500870	0.399720	0.148730
C6481	C648	0.500920	0.415600	0.174800
C6491	C649	0.499310	0.446750	0.173080
C6501	C650	0.500700	0.326110	0.052440
C6511	C651	0.502760	0.324390	0.083500
C6521	C652	0.502040	0.350450	0.099380
C6531	C653	0.503090	0.348740	0.129380
C6541	C654	0.504980	0.322700	0.143660
C6551	C655	0.505750	0.296690	0.128620
C6561	C656	0.504680	0.297670	0.098390
C6571	C657	0.505460	0.304120	0.194960
C6581	C658	0.481950	0.300060	0.212400
C6591	C659	0.482030	0.278810	0.233750
C6601	C660	0.505820	0.261650	0.238170
H3211	H321	0.549370	0.252900	0.223660
H3221	H322	0.548860	0.290040	0.185790
H3231	H323	0.502300	0.412450	0.221730
H3241	H324	0.504690	0.359330	0.223000
H3251	H325	0.500090	0.410330	0.127940
H3261	H326	0.500450	0.371200	0.088800
H3271	H327	0.506920	0.276230	0.139770
H3281	H328	0.505180	0.277510	0.086630
H3291	H329	0.462920	0.313220	0.209270
H3301	H330	0.463040	0.275970	0.247050
O1331	O133	0.499420	0.960460	0.696780
O1341	O134	0.499520	0.960230	0.649210
O1351	O135	0.500480	0.849970	0.538960
O1361	O136	0.500580	0.802410	0.538730
N341	N34	0.505140	0.826580	0.672580
C6611	C661	0.530240	0.765990	0.720760
C6621	C662	0.529960	0.786970	0.699160
C6631	C663	0.502170	0.900690	0.701550
C6641	C664	0.503470	0.870470	0.702540
C6651	C665	0.503400	0.855450	0.676510
C6661	C666	0.502230	0.869750	0.650440
C6671	C667	0.500870	0.899720	0.648730
C6681	C668	0.500920	0.915600	0.674800
C6691	C669	0.499310	0.946750	0.673080
C6701	C670	0.500700	0.826110	0.552440
C6711	C671	0.502760	0.824390	0.583500
C6721	C672	0.502040	0.850450	0.599380
C6731	C673	0.503090	0.848740	0.629380
C6741	C674	0.504980	0.822700	0.643660
C6751	C675	0.505750	0.796690	0.628620
C6761	C676	0.504680	0.797670	0.598390
C6771	C677	0.505460	0.804120	0.694960
C6781	C678	0.481950	0.800060	0.712400
C6791	C679	0.482030	0.778810	0.733750
C6801	C680	0.505820	0.761650	0.738170
H3311	H331	0.549370	0.752900	0.723660
H3321	H332	0.548860	0.790040	0.685790
H3331	H333	0.502300	0.912450	0.721730
H3341	H334	0.504690	0.859330	0.723000
H3351	H335	0.500090	0.910330	0.627940
H3361	H336	0.500450	0.871200	0.588800
H3371	H337	0.506920	0.776230	0.639770
H3381	H338	0.505180	0.777510	0.586630
H3391	H339	0.462920	0.813220	0.709270
H3401	H340	0.463040	0.775970	0.747050
O1371	O137	0.999420	0.460460	0.696780
O1381	O138	0.999520	0.460230	0.649210
O1391	O139	0.000480	0.349970	0.538960
O1401	O140	0.000580	0.302410	0.538730
N351	N35	0.005140	0.326580	0.672580
C6811	C681	0.030240	0.265990	0.720760
C6821	C682	0.029960	0.286970	0.699160
C6831	C683	0.002170	0.400690	0.701550
C6841	C684	0.003470	0.370470	0.702540
C6851	C685	0.003400	0.355450	0.676510
C6861	C686	0.002230	0.369750	0.650440
C6871	C687	0.000870	0.399720	0.648730
C6881	C688	0.000920	0.415600	0.674800
C6891	C689	0.999310	0.446750	0.673080
C6901	C690	0.000700	0.326110	0.552440
C6911	C691	0.002760	0.324390	0.583500
C6921	C692	0.002040	0.350450	0.599380
C6931	C693	0.003090	0.348740	0.629380
C6941	C694	0.004980	0.322700	0.643660
C6951	C695	0.005750	0.296690	0.628620
C6961	C696	0.004680	0.297670	0.598390
C6971	C697	0.005460	0.304120	0.694960
C6981	C698	0.981950	0.300060	0.712400
C6991	C699	0.982030	0.278810	0.733750
C7001	C700	0.005820	0.261650	0.738170
H3411	H341	0.049370	0.252900	0.723660
H3421	H342	0.048860	0.290040	0.685790
H3431	H343	0.002300	0.412450	0.721730
H3441	H344	0.004690	0.359330	0.723000
H3451	H345	0.000090	0.410330	0.627940
H3461	H346	0.000450	0.371200	0.588800
H3471	H347	0.006920	0.276230	0.639770
H3481	H348	0.005180	0.277510	0.586630
H3491	H349	0.962920	0.313220	0.709270
H3501	H350	0.963040	0.275970	0.747050
O1411	O141	0.999420	0.960460	0.196780
O1421	O142	0.999520	0.960230	0.149210
O1431	O143	0.000480	0.849970	0.038960
O1441	O144	0.000580	0.802410	0.038730
N361	N36	0.005140	0.826580	0.172580
C7011	C701	0.030240	0.765990	0.220760
C7021	C702	0.029960	0.786970	0.199160
C7031	C703	0.002170	0.900690	0.201550
C7041	C704	0.003470	0.870470	0.202540
C7051	C705	0.003400	0.855450	0.176510
C7061	C706	0.002230	0.869750	0.150440
C7071	C707	0.000870	0.899720	0.148730
C7081	C708	0.000920	0.915600	0.174800
C7091	C709	0.999310	0.946750	0.173080
C7101	C710	0.000700	0.826110	0.052440
C7111	C711	0.002760	0.824390	0.083500
C7121	C712	0.002040	0.850450	0.099380
C7131	C713	0.003090	0.848740	0.129380
C7141	C714	0.004980	0.822700	0.143660
C7151	C715	0.005750	0.796690	0.128620
C7161	C716	0.004680	0.797670	0.098390
C7171	C717	0.005460	0.804120	0.194960
C7181	C718	0.981950	0.800060	0.212400
C7191	C719	0.982030	0.778810	0.233750
C7201	C720	0.005820	0.761650	0.238170
H3511	H351	0.049370	0.752900	0.223660
H3521	H352	0.048860	0.790040	0.185790
H3531	H353	0.002300	0.912450	0.221730
H3541	H354	0.004690	0.859330	0.223000
H3551	H355	0.000090	0.910330	0.127940
H3561	H356	0.000450	0.871200	0.088800
H3571	H357	0.006920	0.776230	0.139770
H3581	H358	0.005180	0.777510	0.086630
H3591	H359	0.962920	0.813220	0.209270
H3601	H360	0.963040	0.775970	0.247050
O1451	O145	0.500580	0.460460	0.803220
O1461	O146	0.500480	0.460230	0.850790
O1471	O147	0.499520	0.349970	0.961040
O1481	O148	0.499420	0.302410	0.961270
N371	N37	0.494860	0.326580	0.827420
C7211	C721	0.469760	0.265990	0.779240
C7221	C722	0.470040	0.286970	0.800840
C7231	C723	0.497830	0.400690	0.798450
C7241	C724	0.496530	0.370470	0.797460
C7251	C725	0.496600	0.355450	0.823490
C7261	C726	0.497770	0.369750	0.849560
C7271	C727	0.499130	0.399720	0.851270
C7281	C728	0.499080	0.415600	0.825200
C7291	C729	0.500690	0.446750	0.826920
C7301	C730	0.499300	0.326110	0.947560
C7311	C731	0.497240	0.324390	0.916500
C7321	C732	0.497960	0.350450	0.900620
C7331	C733	0.496910	0.348740	0.870620
C7341	C734	0.495020	0.322700	0.856340
C7351	C735	0.494250	0.296690	0.871380
C7361	C736	0.495320	0.297670	0.901610
C7371	C737	0.494540	0.304120	0.805040
C7381	C738	0.518050	0.300060	0.787600
C7391	C739	0.517970	0.278810	0.766250
C7401	C740	0.494180	0.261650	0.761830
H3611	H361	0.450630	0.252900	0.776340
H3621	H362	0.451140	0.290040	0.814210
H3631	H363	0.497700	0.412450	0.778270
H3641	H364	0.495310	0.359330	0.777000
H3651	H365	0.499910	0.410330	0.872060
H3661	H366	0.499550	0.371200	0.911200
H3671	H367	0.493080	0.276230	0.860230
H3681	H368	0.494820	0.277510	0.913370
H3691	H369	0.537080	0.313220	0.790730
H3701	H370	0.536960	0.275970	0.752950
O1491	O149	0.500580	0.960460	0.303220
O1501	O150	0.500480	0.960230	0.350790
O1511	O151	0.499520	0.849970	0.461040
O1521	O152	0.499420	0.802410	0.461270
N381	N38	0.494860	0.826580	0.327420
C7411	C741	0.469760	0.765990	0.279240
C7421	C742	0.470040	0.786970	0.300840
C7431	C743	0.497830	0.900690	0.298450
C7441	C744	0.496530	0.870470	0.297460
C7451	C745	0.496600	0.855450	0.323490
C7461	C746	0.497770	0.869750	0.349560
C7471	C747	0.499130	0.899720	0.351270
C7481	C748	0.499080	0.915600	0.325200
C7491	C749	0.500690	0.946750	0.326920
C7501	C750	0.499300	0.826110	0.447560
C7511	C751	0.497240	0.824390	0.416500
C7521	C752	0.497960	0.850450	0.400620
C7531	C753	0.496910	0.848740	0.370620
C7541	C754	0.495020	0.822700	0.356340
C7551	C755	0.494250	0.796690	0.371380
C7561	C756	0.495320	0.797670	0.401610
C7571	C757	0.494540	0.804120	0.305040
C7581	C758	0.518050	0.800060	0.287600
C7591	C759	0.517970	0.778810	0.266250
C7601	C760	0.494180	0.761650	0.261830
H3711	H371	0.450630	0.752900	0.276340
H3721	H372	0.451140	0.790040	0.314210
H3731	H373	0.497700	0.912450	0.278270
H3741	H374	0.495310	0.859330	0.277000
H3751	H375	0.499910	0.910330	0.372060
H3761	H376	0.499550	0.871200	0.411200
H3771	H377	0.493080	0.776230	0.360230
H3781	H378	0.494820	0.777510	0.413370
H3791	H379	0.537080	0.813220	0.290730
H3801	H380	0.536960	0.775970	0.252950
O1531	O153	0.000580	0.460460	0.303220
O1541	O154	0.000480	0.460230	0.350790
O1551	O155	0.999520	0.349970	0.461040
O1561	O156	0.999420	0.302410	0.461270
N391	N39	0.994860	0.326580	0.327420
C7611	C761	0.969760	0.265990	0.279240
C7621	C762	0.970040	0.286970	0.300840
C7631	C763	0.997830	0.400690	0.298450
C7641	C764	0.996530	0.370470	0.297460
C7651	C765	0.996600	0.355450	0.323490
C7661	C766	0.997770	0.369750	0.349560
C7671	C767	0.999130	0.399720	0.351270
C7681	C768	0.999080	0.415600	0.325200
C7691	C769	0.000690	0.446750	0.326920
C7701	C770	0.999300	0.326110	0.447560
C7711	C771	0.997240	0.324390	0.416500
C7721	C772	0.997960	0.350450	0.400620
C7731	C773	0.996910	0.348740	0.370620
C7741	C774	0.995020	0.322700	0.356340
C7751	C775	0.994250	0.296690	0.371380
C7761	C776	0.995320	0.297670	0.401610
C7771	C777	0.994540	0.304120	0.305040
C7781	C778	0.018050	0.300060	0.287600
C7791	C779	0.017970	0.278810	0.266250
C7801	C780	0.994180	0.261650	0.261830
H3811	H381	0.950630	0.252900	0.276340
H3821	H382	0.951140	0.290040	0.314210
H3831	H383	0.997700	0.412450	0.278270
H3841	H384	0.995310	0.359330	0.277000
H3851	H385	0.999910	0.410330	0.372060
H3861	H386	0.999550	0.371200	0.411200
H3871	H387	0.993080	0.276230	0.360230
H3881	H388	0.994820	0.277510	0.413370
H3891	H389	0.037080	0.313220	0.290730
H3901	H390	0.036960	0.275970	0.252950
O1571	O157	0.000580	0.960460	0.803220
O1581	O158	0.000480	0.960230	0.850790
O1591	O159	0.999520	0.849970	0.961040
O1601	O160	0.999420	0.802410	0.961270
N401	N40	0.994860	0.826580	0.827420
C7811	C781	0.969760	0.765990	0.779240
C7821	C782	0.970040	0.786970	0.800840
C7831	C783	0.997830	0.900690	0.798450
C7841	C784	0.996530	0.870470	0.797460
C7851	C785	0.996600	0.855450	0.823490
C7861	C786	0.997770	0.869750	0.849560
C7871	C787	0.999130	0.899720	0.851270
C7881	C788	0.999080	0.915600	0.825200
C7891	C789	0.000690	0.946750	0.826920
C7901	C790	0.999300	0.826110	0.947560
C7911	C791	0.997240	0.824390	0.916500
C7921	C792	0.997960	0.850450	0.900620
C7931	C793	0.996910	0.848740	0.870620
C7941	C794	0.995020	0.822700	0.856340
C7951	C795	0.994250	0.796690	0.871380
C7961	C796	0.995320	0.797670	0.901610
C7971	C797	0.994540	0.804120	0.805040
C7981	C798	0.018050	0.800060	0.787600
C7991	C799	0.017970	0.778810	0.766250
C8001	C800	0.994180	0.761650	0.761830
H3911	H391	0.950630	0.752900	0.776340
H3921	H392	0.951140	0.790040	0.814210
H3931	H393	0.997700	0.912450	0.778270
H3941	H394	0.995310	0.859330	0.777000
H3951	H395	0.999910	0.910330	0.872060
H3961	H396	0.999550	0.871200	0.911200
H3971	H397	0.993080	0.776230	0.860230
H3981	H398	0.994820	0.777510	0.913370
H3991	H399	0.037080	0.813220	0.790730
H4001	H400	0.036960	0.775970	0.752950
O1611	O161	0.499420	0.539540	0.803220
O1621	O162	0.499520	0.539770	0.850790
O1631	O163	0.500480	0.650030	0.961040
O1641	O164	0.500580	0.697590	0.961270
N411	N41	0.505140	0.673420	0.827420
C8011	C801	0.530240	0.734010	0.779240
C8021	C802	0.529960	0.713030	0.800840
C8031	C803	0.502170	0.599310	0.798450
C8041	C804	0.503470	0.629530	0.797460
C8051	C805	0.503400	0.644550	0.823490
C8061	C806	0.502230	0.630250	0.849560
C8071	C807	0.500870	0.600280	0.851270
C8081	C808	0.500920	0.584400	0.825200
C8091	C809	0.499310	0.553250	0.826920
C8101	C810	0.500700	0.673890	0.947560
C8111	C811	0.502760	0.675610	0.916500
C8121	C812	0.502040	0.649550	0.900620
C8131	C813	0.503090	0.651260	0.870620
C8141	C814	0.504980	0.677300	0.856340
C8151	C815	0.505750	0.703310	0.871380
C8161	C816	0.504680	0.702330	0.901610
C8171	C817	0.505460	0.695880	0.805040
C8181	C818	0.481950	0.699940	0.787600
C8191	C819	0.482030	0.721190	0.766250
C8201	C820	0.505820	0.738350	0.761830
H4011	H401	0.549370	0.747100	0.776340
H4021	H402	0.548860	0.709960	0.814210
H4031	H403	0.502300	0.587550	0.778270
H4041	H404	0.504690	0.640670	0.777000
H4051	H405	0.500090	0.589670	0.872060
H4061	H406	0.500450	0.628800	0.911200
H4071	H407	0.506920	0.723770	0.860230
H4081	H408	0.505180	0.722490	0.913370
H4091	H409	0.462920	0.686780	0.790730
H4101	H410	0.463040	0.724030	0.752950
O1651	O165	0.499420	0.039540	0.303220
O1661	O166	0.499520	0.039770	0.350790
O1671	O167	0.500480	0.150030	0.461040
O1681	O168	0.500580	0.197590	0.461270
N421	N42	0.505140	0.173420	0.327420
C8211	C821	0.530240	0.234010	0.279240
C8221	C822	0.529960	0.213030	0.300840
C8231	C823	0.502170	0.099310	0.298450
C8241	C824	0.503470	0.129530	0.297460
C8251	C825	0.503400	0.144550	0.323490
C8261	C826	0.502230	0.130250	0.349560
C8271	C827	0.500870	0.100280	0.351270
C8281	C828	0.500920	0.084400	0.325200
C8291	C829	0.499310	0.053250	0.326920
C8301	C830	0.500700	0.173890	0.447560
C8311	C831	0.502760	0.175610	0.416500
C8321	C832	0.502040	0.149550	0.400620
C8331	C833	0.503090	0.151260	0.370620
C8341	C834	0.504980	0.177300	0.356340
C8351	C835	0.505750	0.203310	0.371380
C8361	C836	0.504680	0.202330	0.401610
C8371	C837	0.505460	0.195880	0.305040
C8381	C838	0.481950	0.199940	0.287600
C8391	C839	0.482030	0.221190	0.266250
C8401	C840	0.505820	0.238350	0.261830
H4111	H411	0.549370	0.247100	0.276340
H4121	H412	0.548860	0.209960	0.314210
H4131	H413	0.502300	0.087550	0.278270
H4141	H414	0.504690	0.140670	0.277000
H4151	H415	0.500090	0.089670	0.372060
H4161	H416	0.500450	0.128800	0.411200
H4171	H417	0.506920	0.223770	0.360230
H4181	H418	0.505180	0.222490	0.413370
H4191	H419	0.462920	0.186780	0.290730
H4201	H420	0.463040	0.224030	0.252950
O1691	O169	0.999420	0.539540	0.303220
O1701	O170	0.999520	0.539770	0.350790
O1711	O171	0.000480	0.650030	0.461040
O1721	O172	0.000580	0.697590	0.461270
N431	N43	0.005140	0.673420	0.327420
C8411	C841	0.030240	0.734010	0.279240
C8421	C842	0.029960	0.713030	0.300840
C8431	C843	0.002170	0.599310	0.298450
C8441	C844	0.003470	0.629530	0.297460
C8451	C845	0.003400	0.644550	0.323490
C8461	C846	0.002230	0.630250	0.349560
C8471	C847	0.000870	0.600280	0.351270
C8481	C848	0.000920	0.584400	0.325200
C8491	C849	0.999310	0.553250	0.326920
C8501	C850	0.000700	0.673890	0.447560
C8511	C851	0.002760	0.675610	0.416500
C8521	C852	0.002040	0.649550	0.400620
C8531	C853	0.003090	0.651260	0.370620
C8541	C854	0.004980	0.677300	0.356340
C8551	C855	0.005750	0.703310	0.371380
C8561	C856	0.004680	0.702330	0.401610
C8571	C857	0.005460	0.695880	0.305040
C8581	C858	0.981950	0.699940	0.287600
C8591	C859	0.982030	0.721190	0.266250
C8601	C860	0.005820	0.738350	0.261830
H4211	H421	0.049370	0.747100	0.276340
H4221	H422	0.048860	0.709960	0.314210
H4231	H423	0.002300	0.587550	0.278270
H4241	H424	0.004690	0.640670	0.277000
H4251	H425	0.000090	0.589670	0.372060
H4261	H426	0.000450	0.628800	0.411200
H4271	H427	0.006920	0.723770	0.360230
H4281	H428	0.005180	0.722490	0.413370
H4291	H429	0.962920	0.686780	0.290730
H4301	H430	0.963040	0.724030	0.252950
O1731	O173	0.999420	0.039540	0.803220
O1741	O174	0.999520	0.039770	0.850790
O1751	O175	0.000480	0.150030	0.961040
O1761	O176	0.000580	0.197590	0.961270
N441	N44	0.005140	0.173420	0.827420
C8611	C861	0.030240	0.234010	0.779240
C8621	C862	0.029960	0.213030	0.800840
C8631	C863	0.002170	0.099310	0.798450
C8641	C864	0.003470	0.129530	0.797460
C8651	C865	0.003400	0.144550	0.823490
C8661	C866	0.002230	0.130250	0.849560
C8671	C867	0.000870	0.100280	0.851270
C8681	C868	0.000920	0.084400	0.825200
C8691	C869	0.999310	0.053250	0.826920
C8701	C870	0.000700	0.173890	0.947560
C8711	C871	0.002760	0.175610	0.916500
C8721	C872	0.002040	0.149550	0.900620
C8731	C873	0.003090	0.151260	0.870620
C8741	C874	0.004980	0.177300	0.856340
C8751	C875	0.005750	0.203310	0.871380
C8761	C876	0.004680	0.202330	0.901610
C8771	C877	0.005460	0.195880	0.805040
C8781	C878	0.981950	0.199940	0.787600
C8791	C879	0.982030	0.221190	0.766250
C8801	C880	0.005820	0.238350	0.761830
H4311	H431	0.049370	0.247100	0.776340
H4321	H432	0.048860	0.209960	0.814210
H4331	H433	0.002300	0.087550	0.778270
H4341	H434	0.004690	0.140670	0.777000
H4351	H435	0.000090	0.089670	0.872060
H4361	H436	0.000450	0.128800	0.911200
H4371	H437	0.006920	0.223770	0.860230
H4381	H438	0.005180	0.222490	0.913370
H4391	H439	0.962920	0.186780	0.790730
H4401	H440	0.963040	0.224030	0.752950
O1771	O177	0.500580	0.539540	0.196780
O1781	O178	0.500480	0.539770	0.149210
O1791	O179	0.499520	0.650030	0.038960
O1801	O180	0.499420	0.697590	0.038730
N451	N45	0.494860	0.673420	0.172580
C8811	C881	0.469760	0.734010	0.220760
C8821	C882	0.470040	0.713030	0.199160
C8831	C883	0.497830	0.599310	0.201550
C8841	C884	0.496530	0.629530	0.202540
C8851	C885	0.496600	0.644550	0.176510
C8861	C886	0.497770	0.630250	0.150440
C8871	C887	0.499130	0.600280	0.148730
C8881	C888	0.499080	0.584400	0.174800
C8891	C889	0.500690	0.553250	0.173080
C8901	C890	0.499300	0.673890	0.052440
C8911	C891	0.497240	0.675610	0.083500
C8921	C892	0.497960	0.649550	0.099380
C8931	C893	0.496910	0.651260	0.129380
C8941	C894	0.495020	0.677300	0.143660
C8951	C895	0.494250	0.703310	0.128620
C8961	C896	0.495320	0.702330	0.098390
C8971	C897	0.494540	0.695880	0.194960
C8981	C898	0.518050	0.699940	0.212400
C8991	C899	0.517970	0.721190	0.233750
C9001	C900	0.494180	0.738350	0.238170
H4411	H441	0.450630	0.747100	0.223660
H4421	H442	0.451140	0.709960	0.185790
H4431	H443	0.497700	0.587550	0.221730
H4441	H444	0.495310	0.640670	0.223000
H4451	H445	0.499910	0.589670	0.127940
H4461	H446	0.499550	0.628800	0.088800
H4471	H447	0.493080	0.723770	0.139770
H4481	H448	0.494820	0.722490	0.086630
H4491	H449	0.537080	0.686780	0.209270
H4501	H450	0.536960	0.724030	0.247050
O1811	O181	0.500580	0.039540	0.696780
O1821	O182	0.500480	0.039770	0.649210
O1831	O183	0.499520	0.150030	0.538960
O1841	O184	0.499420	0.197590	0.538730
N461	N46	0.494860	0.173420	0.672580
C9011	C901	0.469760	0.234010	0.720760
C9021	C902	0.470040	0.213030	0.699160
C9031	C903	0.497830	0.099310	0.701550
C9041	C904	0.496530	0.129530	0.702540
C9051	C905	0.496600	0.144550	0.676510
C9061	C906	0.497770	0.130250	0.650440
C9071	C907	0.499130	0.100280	0.648730
C9081	C908	0.499080	0.084400	0.674800
C9091	C909	0.500690	0.053250	0.673080
C9101	C910	0.499300	0.173890	0.552440
C9111	C911	0.497240	0.175610	0.583500
C9121	C912	0.497960	0.149550	0.599380
C9131	C913	0.496910	0.151260	0.629380
C9141	C914	0.495020	0.177300	0.643660
C9151	C915	0.494250	0.203310	0.628620
C9161	C916	0.495320	0.202330	0.598390
C9171	C917	0.494540	0.195880	0.694960
C9181	C918	0.518050	0.199940	0.712400
C9191	C919	0.517970	0.221190	0.733750
C9201	C920	0.494180	0.238350	0.738170
H4511	H451	0.450630	0.247100	0.723660
H4521	H452	0.451140	0.209960	0.685790
H4531	H453	0.497700	0.087550	0.721730
H4541	H454	0.495310	0.140670	0.723000
H4551	H455	0.499910	0.089670	0.627940
H4561	H456	0.499550	0.128800	0.588800
H4571	H457	0.493080	0.223770	0.639770
H4581	H458	0.494820	0.222490	0.586630
H4591	H459	0.537080	0.186780	0.709270
H4601	H460	0.536960	0.224030	0.747050
O1851	O185	0.000580	0.539540	0.696780
O1861	O186	0.000480	0.539770	0.649210
O1871	O187	0.999520	0.650030	0.538960
O1881	O188	0.999420	0.697590	0.538730
N471	N47	0.994860	0.673420	0.672580
C9211	C921	0.969760	0.734010	0.720760
C9221	C922	0.970040	0.713030	0.699160
C9231	C923	0.997830	0.599310	0.701550
C9241	C924	0.996530	0.629530	0.702540
C9251	C925	0.996600	0.644550	0.676510
C9261	C926	0.997770	0.630250	0.650440
C9271	C927	0.999130	0.600280	0.648730
C9281	C928	0.999080	0.584400	0.674800
C9291	C929	0.000690	0.553250	0.673080
C9301	C930	0.999300	0.673890	0.552440
C9311	C931	0.997240	0.675610	0.583500
C9321	C932	0.997960	0.649550	0.599380
C9331	C933	0.996910	0.651260	0.629380
C9341	C934	0.995020	0.677300	0.643660
C9351	C935	0.994250	0.703310	0.628620
C9361	C936	0.995320	0.702330	0.598390
C9371	C937	0.994540	0.695880	0.694960
C9381	C938	0.018050	0.699940	0.712400
C9391	C939	0.017970	0.721190	0.733750
C9401	C940	0.994180	0.738350	0.738170
H4611	H461	0.950630	0.747100	0.723660
H4621	H462	0.951140	0.709960	0.685790
H4631	H463	0.997700	0.587550	0.721730
H4641	H464	0.995310	0.640670	0.723000
H4651	H465	0.999910	0.589670	0.627940
H4661	H466	0.999550	0.628800	0.588800
H4671	H467	0.993080	0.723770	0.639770
H4681	H468	0.994820	0.722490	0.586630
H4691	H469	0.037080	0.686780	0.709270
H4701	H470	0.036960	0.724030	0.747050
O1891	O189	0.000580	0.039540	0.196780
O1901	O190	0.000480	0.039770	0.149210
O1911	O191	0.999520	0.150030	0.038960
O1921	O192	0.999420	0.197590	0.038730
N481	N48	0.994860	0.173420	0.172580
C9411	C941	0.969760	0.234010	0.220760
C9421	C942	0.970040	0.213030	0.199160
C9431	C943	0.997830	0.099310	0.201550
C9441	C944	0.996530	0.129530	0.202540
C9451	C945	0.996600	0.144550	0.176510
C9461	C946	0.997770	0.130250	0.150440
C9471	C947	0.999130	0.100280	0.148730
C9481	C948	0.999080	0.084400	0.174800
C9491	C949	0.000690	0.053250	0.173080
C9501	C950	0.999300	0.173890	0.052440
C9511	C951	0.997240	0.175610	0.083500
C9521	C952	0.997960	0.149550	0.099380
C9531	C953	0.996910	0.151260	0.129380
C9541	C954	0.995020	0.177300	0.143660
C9551	C955	0.994250	0.203310	0.128620
C9561	C956	0.995320	0.202330	0.098390
C9571	C957	0.994540	0.195880	0.194960
C9581	C958	0.018050	0.199940	0.212400
C9591	C959	0.017970	0.221190	0.233750
C9601	C960	0.994180	0.238350	0.238170
H4711	H471	0.950630	0.247100	0.223660
H4721	H472	0.951140	0.209960	0.185790
H4731	H473	0.997700	0.087550	0.221730
H4741	H474	0.995310	0.140670	0.223000
H4751	H475	0.999910	0.089670	0.127940
H4761	H476	0.999550	0.128800	0.088800
H4771	H477	0.993080	0.223770	0.139770
H4781	H478	0.994820	0.222490	0.086630
H4791	H479	0.037080	0.186780	0.209270
H4801	H480	0.036960	0.224030	0.247050
Cu11	Cu1	0.199970	0.500000	0.500000
Cu21	Cu2	0.146250	0.500000	0.500000
Cu31	Cu3	0.199970	0.000000	0.000000
Cu41	Cu4	0.146250	0.000000	0.000000
Cu51	Cu5	0.699970	0.500000	0.000000
Cu61	Cu6	0.646250	0.500000	0.000000
Cu71	Cu7	0.699970	0.000000	0.500000
Cu81	Cu8	0.646250	0.000000	0.500000
Cu91	Cu9	0.800030	0.500000	0.500000
Cu101	Cu10	0.853750	0.500000	0.500000
Cu111	Cu11	0.800030	0.000000	0.000000
Cu121	Cu12	0.853750	0.000000	0.000000
Cu131	Cu13	0.300030	0.500000	0.000000
Cu141	Cu14	0.353750	0.500000	0.000000
Cu151	Cu15	0.300030	0.000000	0.500000
Cu161	Cu16	0.353750	0.000000	0.500000
Cu171	Cu17	0.500000	0.199970	0.500000
Cu181	Cu18	0.500000	0.146250	0.500000
Cu191	Cu19	0.500000	0.699970	0.000000
Cu201	Cu20	0.500000	0.646250	0.000000
Cu211	Cu21	0.000000	0.199970	0.000000
Cu221	Cu22	0.000000	0.146250	0.000000
Cu231	Cu23	0.000000	0.699970	0.500000
Cu241	Cu24	0.000000	0.646250	0.500000
Cu251	Cu25	0.500000	0.800030	0.500000
Cu261	Cu26	0.500000	0.853750	0.500000
Cu271	Cu27	0.500000	0.300030	0.000000
Cu281	Cu28	0.500000	0.353750	0.000000
Cu291	Cu29	0.000000	0.800030	0.000000
Cu301	Cu30	0.000000	0.853750	0.000000
Cu311	Cu31	0.000000	0.300030	0.500000
Cu321	Cu32	0.000000	0.353750	0.500000
Cu331	Cu33	0.500000	0.500000	0.199970
Cu341	Cu34	0.500000	0.500000	0.146250
Cu351	Cu35	0.500000	0.000000	0.699970
Cu361	Cu36	0.500000	0.000000	0.646250
Cu371	Cu37	0.000000	0.500000	0.699970
Cu381	Cu38	0.000000	0.500000	0.646250
Cu391	Cu39	0.000000	0.000000	0.199970
Cu401	Cu40	0.000000	0.000000	0.146250
Cu411	Cu41	0.500000	0.500000	0.800030
Cu421	Cu42	0.500000	0.500000	0.853750
Cu431	Cu43	0.500000	0.000000	0.300030
Cu441	Cu44	0.500000	0.000000	0.353750
Cu451	Cu45	0.000000	0.500000	0.300030
Cu461	Cu46	0.000000	0.500000	0.353750
Cu471	Cu47	0.000000	0.000000	0.800030
Cu481	Cu48	0.000000	0.000000	0.853750
