data_OKUTEV_clean_PM
_symmetry_space_group_name_H-M	'P1'
_cell_length_a	45.541900
_cell_length_b	45.541900
_cell_length_c	45.541900
_cell_angle_alpha	90.000000
_cell_angle_beta	90.000000
_cell_angle_gamma	90.000000
_symmetry_Int_Tables_number 1

loop_
_symmetry_equiv_pos_as_xyz
'x,y,z'

loop_
_atom_site_label
_atom_site_type_symbol
_atom_site_fract_x
_atom_site_fract_y
_atom_site_fract_z
O11	O1	0.795850	0.015840	0.022950
O21	O2	0.694700	0.981690	0.444390
O31	O3	0.844130	0.013920	0.029060
O41	O4	0.646370	0.984580	0.449600
O51	O5	0.944720	0.009700	0.148930
O61	O6	0.524640	0.011110	0.347080
O71	O7	0.943100	0.014460	0.197370
O81	O8	0.521970	0.017980	0.298920
N11	N1	0.810640	0.033020	0.160200
N21	N2	0.658740	0.003970	0.313120
C11	C1	0.695710	0.002080	0.240500
C21	C2	0.675200	0.997110	0.262760
H11	H1	0.656290	0.983410	0.258370
C31	C3	0.786420	0.023940	0.083480
H21	H2	0.767030	0.025230	0.069820
C41	C4	0.692380	0.984250	0.384280
H31	H3	0.713450	0.979680	0.394240
C51	C5	0.783560	0.029990	0.113530
H41	H4	0.762500	0.035920	0.122730
C61	C6	0.691480	0.990210	0.354090
H51	H5	0.711420	0.989760	0.341260
C71	C7	0.808580	0.028230	0.130990
C81	C8	0.664390	0.996790	0.341440
C91	C9	0.835480	0.020750	0.119250
C101	C10	0.639000	0.996320	0.357890
C111	C11	0.838970	0.014280	0.089550
H61	H6	0.860280	0.008170	0.081020
C121	C12	0.639150	0.990580	0.387930
H71	H7	0.618920	0.991130	0.400360
C131	C13	0.813970	0.015980	0.071210
C141	C14	0.666440	0.984790	0.401540
C151	C15	0.817820	0.014120	0.039640
C161	C16	0.669440	0.983660	0.433210
C171	C17	0.930060	0.011460	0.173100
C181	C18	0.537060	0.014740	0.321860
C191	C19	0.898500	0.013820	0.171720
C201	C20	0.568780	0.014590	0.319380
C211	C21	0.884730	0.013240	0.143880
H81	H8	0.896550	0.006840	0.124290
C221	C22	0.586470	0.006500	0.343540
H91	H9	0.577170	0.002760	0.365080
C231	C23	0.855080	0.020650	0.142340
C241	C24	0.616510	0.003270	0.338930
C251	C25	0.839170	0.028300	0.166930
C261	C26	0.629270	0.007820	0.311840
C271	C27	0.852120	0.029070	0.194610
H101	H10	0.839600	0.034690	0.213980
C281	C28	0.612460	0.016450	0.287760
H111	H11	0.622300	0.020800	0.266620
C291	C29	0.881980	0.021970	0.196860
H121	H12	0.892050	0.022380	0.218380
C301	C30	0.582050	0.019580	0.291630
H131	H13	0.568920	0.026120	0.272950
C311	C31	0.787000	0.031220	0.180150
C321	C32	0.679360	0.009270	0.290680
C331	C33	0.782610	0.052670	0.201640
H141	H14	0.796540	0.071900	0.202300
C341	C34	0.704020	0.026850	0.295950
H151	H15	0.707380	0.036660	0.317320
C351	C35	0.760660	0.049100	0.222720
H161	H16	0.757730	0.066070	0.239060
C361	C36	0.724720	0.031520	0.273910
H171	H17	0.744060	0.044270	0.279110
C371	C37	0.743080	0.023670	0.222930
C381	C38	0.720940	0.019070	0.245910
C391	C39	0.768870	0.006450	0.179430
C401	C40	0.747190	0.002590	0.200730
H181	H18	0.732660	0.982240	0.200230
H191	H19	0.771850	0.989400	0.161380
H201	H20	0.692070	0.992350	0.217740
Cu11	Cu1	0.851300	0.014980	0.989640
Cu21	Cu2	0.797150	0.016990	0.982410
O91	O9	0.704150	0.984160	0.522950
O101	O10	0.805300	0.018310	0.944390
O111	O11	0.655870	0.986080	0.529060
O121	O12	0.853630	0.015420	0.949600
O131	O13	0.555280	0.990300	0.648930
O141	O14	0.975360	0.988890	0.847080
O151	O15	0.556900	0.985540	0.697370
O161	O16	0.978030	0.982020	0.798920
N31	N3	0.689360	0.966980	0.660200
N41	N4	0.841260	0.996030	0.813120
C411	C41	0.804290	0.997920	0.740500
C421	C42	0.824800	0.002890	0.762760
H211	H21	0.843710	0.016590	0.758370
C431	C43	0.713580	0.976060	0.583480
H221	H22	0.732970	0.974770	0.569820
C441	C44	0.807620	0.015750	0.884280
H231	H23	0.786550	0.020320	0.894240
C451	C45	0.716440	0.970010	0.613530
H241	H24	0.737500	0.964080	0.622730
C461	C46	0.808520	0.009790	0.854090
H251	H25	0.788580	0.010240	0.841260
C471	C47	0.691420	0.971770	0.630990
C481	C48	0.835610	0.003210	0.841440
C491	C49	0.664520	0.979250	0.619250
C501	C50	0.861000	0.003680	0.857890
C511	C51	0.661030	0.985720	0.589550
H261	H26	0.639720	0.991830	0.581020
C521	C52	0.860850	0.009420	0.887930
H271	H27	0.881080	0.008870	0.900360
C531	C53	0.686030	0.984020	0.571210
C541	C54	0.833560	0.015210	0.901540
C551	C55	0.682180	0.985880	0.539640
C561	C56	0.830560	0.016340	0.933210
C571	C57	0.569940	0.988540	0.673100
C581	C58	0.962940	0.985260	0.821860
C591	C59	0.601500	0.986180	0.671720
C601	C60	0.931220	0.985410	0.819380
C611	C61	0.615270	0.986760	0.643880
H281	H28	0.603450	0.993160	0.624290
C621	C62	0.913530	0.993500	0.843540
H291	H29	0.922830	0.997240	0.865080
C631	C63	0.644920	0.979350	0.642340
C641	C64	0.883490	0.996730	0.838930
C651	C65	0.660830	0.971700	0.666930
C661	C66	0.870730	0.992180	0.811840
C671	C67	0.647880	0.970930	0.694610
H301	H30	0.660400	0.965310	0.713980
C681	C68	0.887540	0.983550	0.787760
H311	H31	0.877700	0.979200	0.766620
C691	C69	0.618020	0.978030	0.696860
H321	H32	0.607950	0.977620	0.718380
C701	C70	0.917950	0.980420	0.791630
H331	H33	0.931080	0.973880	0.772950
C711	C71	0.713000	0.968780	0.680150
C721	C72	0.820640	0.990730	0.790680
C731	C73	0.717390	0.947330	0.701640
H341	H34	0.703460	0.928100	0.702300
C741	C74	0.795980	0.973150	0.795950
H351	H35	0.792620	0.963340	0.817320
C751	C75	0.739340	0.950900	0.722720
H361	H36	0.742270	0.933930	0.739060
C761	C76	0.775280	0.968480	0.773910
H371	H37	0.755940	0.955730	0.779110
C771	C77	0.756920	0.976330	0.722930
C781	C78	0.779060	0.980930	0.745910
C791	C79	0.731130	0.993550	0.679430
C801	C80	0.752810	0.997410	0.700730
H381	H38	0.767340	0.017760	0.700230
H391	H39	0.728150	0.010600	0.661380
H401	H40	0.807930	0.007650	0.717740
Cu31	Cu3	0.648700	0.985020	0.489640
Cu41	Cu4	0.702850	0.983010	0.482410
O171	O17	0.204150	0.515840	0.477050
O181	O18	0.305300	0.481690	0.055610
O191	O19	0.155870	0.513920	0.470940
O201	O20	0.353630	0.484580	0.050400
O211	O21	0.055280	0.509700	0.351070
O221	O22	0.475360	0.511110	0.152920
O231	O23	0.056900	0.514460	0.302630
O241	O24	0.478030	0.517980	0.201080
N51	N5	0.189360	0.533020	0.339800
N61	N6	0.341260	0.503970	0.186880
C811	C81	0.304290	0.502080	0.259500
C821	C82	0.324800	0.497110	0.237240
H411	H41	0.343710	0.483410	0.241630
C831	C83	0.213580	0.523940	0.416520
H421	H42	0.232970	0.525230	0.430180
C841	C84	0.307620	0.484250	0.115720
H431	H43	0.286550	0.479680	0.105760
C851	C85	0.216440	0.529990	0.386470
H441	H44	0.237500	0.535920	0.377270
C861	C86	0.308520	0.490210	0.145910
H451	H45	0.288580	0.489760	0.158740
C871	C87	0.191420	0.528230	0.369010
C881	C88	0.335610	0.496790	0.158560
C891	C89	0.164520	0.520750	0.380750
C901	C90	0.361000	0.496320	0.142110
C911	C91	0.161030	0.514280	0.410450
H461	H46	0.139720	0.508170	0.418980
C921	C92	0.360850	0.490580	0.112070
H471	H47	0.381080	0.491130	0.099640
C931	C93	0.186030	0.515980	0.428790
C941	C94	0.333560	0.484790	0.098460
C951	C95	0.182180	0.514120	0.460360
C961	C96	0.330560	0.483660	0.066790
C971	C97	0.069940	0.511460	0.326900
C981	C98	0.462940	0.514740	0.178140
C991	C99	0.101500	0.513820	0.328280
C1001	C100	0.431220	0.514590	0.180620
C1011	C101	0.115270	0.513240	0.356120
H481	H48	0.103450	0.506840	0.375710
C1021	C102	0.413530	0.506500	0.156460
H491	H49	0.422830	0.502760	0.134920
C1031	C103	0.144920	0.520650	0.357660
C1041	C104	0.383490	0.503270	0.161070
C1051	C105	0.160830	0.528300	0.333070
C1061	C106	0.370730	0.507820	0.188160
C1071	C107	0.147880	0.529070	0.305390
H501	H50	0.160400	0.534690	0.286020
C1081	C108	0.387540	0.516450	0.212240
H511	H51	0.377700	0.520800	0.233380
C1091	C109	0.118020	0.521970	0.303140
H521	H52	0.107950	0.522380	0.281620
C1101	C110	0.417950	0.519580	0.208370
H531	H53	0.431080	0.526120	0.227050
C1111	C111	0.213000	0.531220	0.319850
C1121	C112	0.320640	0.509270	0.209320
C1131	C113	0.217390	0.552670	0.298360
H541	H54	0.203460	0.571900	0.297700
C1141	C114	0.295980	0.526850	0.204050
H551	H55	0.292620	0.536660	0.182680
C1151	C115	0.239340	0.549100	0.277280
H561	H56	0.242270	0.566070	0.260940
C1161	C116	0.275280	0.531520	0.226090
H571	H57	0.255940	0.544270	0.220890
C1171	C117	0.256920	0.523670	0.277070
C1181	C118	0.279060	0.519070	0.254090
C1191	C119	0.231130	0.506450	0.320570
C1201	C120	0.252810	0.502590	0.299270
H581	H58	0.267340	0.482240	0.299770
H591	H59	0.228150	0.489400	0.338620
H601	H60	0.307930	0.492350	0.282260
Cu51	Cu5	0.148700	0.514980	0.510360
Cu61	Cu6	0.202850	0.516990	0.517590
O251	O25	0.295850	0.484160	0.977050
O261	O26	0.194700	0.518310	0.555610
O271	O27	0.344130	0.486080	0.970940
O281	O28	0.146370	0.515420	0.550400
O291	O29	0.444720	0.490300	0.851070
O301	O30	0.024640	0.488890	0.652920
O311	O31	0.443100	0.485540	0.802630
O321	O32	0.021970	0.482020	0.701080
N71	N7	0.310640	0.466980	0.839800
N81	N8	0.158740	0.496030	0.686880
C1211	C121	0.195710	0.497920	0.759500
C1221	C122	0.175200	0.502890	0.737240
H611	H61	0.156290	0.516590	0.741630
C1231	C123	0.286420	0.476060	0.916520
H621	H62	0.267030	0.474770	0.930180
C1241	C124	0.192380	0.515750	0.615720
H631	H63	0.213450	0.520320	0.605760
C1251	C125	0.283560	0.470010	0.886470
H641	H64	0.262500	0.464080	0.877270
C1261	C126	0.191480	0.509790	0.645910
H651	H65	0.211420	0.510240	0.658740
C1271	C127	0.308580	0.471770	0.869010
C1281	C128	0.164390	0.503210	0.658560
C1291	C129	0.335480	0.479250	0.880750
C1301	C130	0.139000	0.503680	0.642110
C1311	C131	0.338970	0.485720	0.910450
H661	H66	0.360280	0.491830	0.918980
C1321	C132	0.139150	0.509420	0.612070
H671	H67	0.118920	0.508870	0.599640
C1331	C133	0.313970	0.484020	0.928790
C1341	C134	0.166440	0.515210	0.598460
C1351	C135	0.317820	0.485880	0.960360
C1361	C136	0.169440	0.516340	0.566790
C1371	C137	0.430060	0.488540	0.826900
C1381	C138	0.037060	0.485260	0.678140
C1391	C139	0.398500	0.486180	0.828280
C1401	C140	0.068780	0.485410	0.680620
C1411	C141	0.384730	0.486760	0.856120
H681	H68	0.396550	0.493160	0.875710
C1421	C142	0.086470	0.493500	0.656460
H691	H69	0.077170	0.497240	0.634920
C1431	C143	0.355080	0.479350	0.857660
C1441	C144	0.116510	0.496730	0.661070
C1451	C145	0.339170	0.471700	0.833070
C1461	C146	0.129270	0.492180	0.688160
C1471	C147	0.352120	0.470930	0.805390
H701	H70	0.339600	0.465310	0.786020
C1481	C148	0.112460	0.483550	0.712240
H711	H71	0.122300	0.479200	0.733380
C1491	C149	0.381980	0.478030	0.803140
H721	H72	0.392050	0.477620	0.781620
C1501	C150	0.082050	0.480420	0.708370
H731	H73	0.068920	0.473880	0.727050
C1511	C151	0.287000	0.468780	0.819850
C1521	C152	0.179360	0.490730	0.709320
C1531	C153	0.282610	0.447330	0.798360
H741	H74	0.296540	0.428100	0.797700
C1541	C154	0.204020	0.473150	0.704050
H751	H75	0.207380	0.463340	0.682680
C1551	C155	0.260660	0.450900	0.777280
H761	H76	0.257730	0.433930	0.760940
C1561	C156	0.224720	0.468480	0.726090
H771	H77	0.244060	0.455730	0.720890
C1571	C157	0.243080	0.476330	0.777070
C1581	C158	0.220940	0.480930	0.754090
C1591	C159	0.268870	0.493550	0.820570
C1601	C160	0.247190	0.497410	0.799270
H781	H78	0.232660	0.517760	0.799770
H791	H79	0.271850	0.510600	0.838620
H801	H80	0.192070	0.507650	0.782260
Cu71	Cu7	0.351300	0.485020	0.010360
Cu81	Cu8	0.297150	0.483010	0.017590
O331	O33	0.022950	0.795850	0.015840
O341	O34	0.444390	0.694700	0.981690
O351	O35	0.029060	0.844130	0.013920
O361	O36	0.449600	0.646370	0.984580
O371	O37	0.148930	0.944720	0.009700
O381	O38	0.347080	0.524640	0.011110
O391	O39	0.197370	0.943100	0.014460
O401	O40	0.298920	0.521970	0.017980
N91	N9	0.160200	0.810640	0.033020
N101	N10	0.313120	0.658740	0.003970
C1611	C161	0.240500	0.695710	0.002080
C1621	C162	0.262760	0.675200	0.997110
H811	H81	0.258370	0.656290	0.983410
C1631	C163	0.083480	0.786420	0.023940
H821	H82	0.069820	0.767030	0.025230
C1641	C164	0.384280	0.692380	0.984250
H831	H83	0.394240	0.713450	0.979680
C1651	C165	0.113530	0.783560	0.029990
H841	H84	0.122730	0.762500	0.035920
C1661	C166	0.354090	0.691480	0.990210
H851	H85	0.341260	0.711420	0.989760
C1671	C167	0.130990	0.808580	0.028230
C1681	C168	0.341440	0.664390	0.996790
C1691	C169	0.119250	0.835480	0.020750
C1701	C170	0.357890	0.639000	0.996320
C1711	C171	0.089550	0.838970	0.014280
H861	H86	0.081020	0.860280	0.008170
C1721	C172	0.387930	0.639150	0.990580
H871	H87	0.400360	0.618920	0.991130
C1731	C173	0.071210	0.813970	0.015980
C1741	C174	0.401540	0.666440	0.984790
C1751	C175	0.039640	0.817820	0.014120
C1761	C176	0.433210	0.669440	0.983660
C1771	C177	0.173100	0.930060	0.011460
C1781	C178	0.321860	0.537060	0.014740
C1791	C179	0.171720	0.898500	0.013820
C1801	C180	0.319380	0.568780	0.014590
C1811	C181	0.143880	0.884730	0.013240
H881	H88	0.124290	0.896550	0.006840
C1821	C182	0.343540	0.586470	0.006500
H891	H89	0.365080	0.577170	0.002760
C1831	C183	0.142340	0.855080	0.020650
C1841	C184	0.338930	0.616510	0.003270
C1851	C185	0.166930	0.839170	0.028300
C1861	C186	0.311840	0.629270	0.007820
C1871	C187	0.194610	0.852120	0.029070
H901	H90	0.213980	0.839600	0.034690
C1881	C188	0.287760	0.612460	0.016450
H911	H91	0.266620	0.622300	0.020800
C1891	C189	0.196860	0.881980	0.021970
H921	H92	0.218380	0.892050	0.022380
C1901	C190	0.291630	0.582050	0.019580
H931	H93	0.272950	0.568920	0.026120
C1911	C191	0.180150	0.787000	0.031220
C1921	C192	0.290680	0.679360	0.009270
C1931	C193	0.201640	0.782610	0.052670
H941	H94	0.202300	0.796540	0.071900
C1941	C194	0.295950	0.704020	0.026850
H951	H95	0.317320	0.707380	0.036660
C1951	C195	0.222720	0.760660	0.049100
H961	H96	0.239060	0.757730	0.066070
C1961	C196	0.273910	0.724720	0.031520
H971	H97	0.279110	0.744060	0.044270
C1971	C197	0.222930	0.743080	0.023670
C1981	C198	0.245910	0.720940	0.019070
C1991	C199	0.179430	0.768870	0.006450
C2001	C200	0.200730	0.747190	0.002590
H981	H98	0.200230	0.732660	0.982240
H991	H99	0.161380	0.771850	0.989400
H1001	H100	0.217740	0.692070	0.992350
Cu91	Cu9	0.989640	0.851300	0.014980
Cu101	Cu10	0.982410	0.797150	0.016990
O411	O41	0.522950	0.704150	0.984160
O421	O42	0.944390	0.805300	0.018310
O431	O43	0.529060	0.655870	0.986080
O441	O44	0.949600	0.853630	0.015420
O451	O45	0.648930	0.555280	0.990300
O461	O46	0.847080	0.975360	0.988890
O471	O47	0.697370	0.556900	0.985540
O481	O48	0.798920	0.978030	0.982020
N111	N11	0.660200	0.689360	0.966980
N121	N12	0.813120	0.841260	0.996030
C2011	C201	0.740500	0.804290	0.997920
C2021	C202	0.762760	0.824800	0.002890
H1011	H101	0.758370	0.843710	0.016590
C2031	C203	0.583480	0.713580	0.976060
H1021	H102	0.569820	0.732970	0.974770
C2041	C204	0.884280	0.807620	0.015750
H1031	H103	0.894240	0.786550	0.020320
C2051	C205	0.613530	0.716440	0.970010
H1041	H104	0.622730	0.737500	0.964080
C2061	C206	0.854090	0.808520	0.009790
H1051	H105	0.841260	0.788580	0.010240
C2071	C207	0.630990	0.691420	0.971770
C2081	C208	0.841440	0.835610	0.003210
C2091	C209	0.619250	0.664520	0.979250
C2101	C210	0.857890	0.861000	0.003680
C2111	C211	0.589550	0.661030	0.985720
H1061	H106	0.581020	0.639720	0.991830
C2121	C212	0.887930	0.860850	0.009420
H1071	H107	0.900360	0.881080	0.008870
C2131	C213	0.571210	0.686030	0.984020
C2141	C214	0.901540	0.833560	0.015210
C2151	C215	0.539640	0.682180	0.985880
C2161	C216	0.933210	0.830560	0.016340
C2171	C217	0.673100	0.569940	0.988540
C2181	C218	0.821860	0.962940	0.985260
C2191	C219	0.671720	0.601500	0.986180
C2201	C220	0.819380	0.931220	0.985410
C2211	C221	0.643880	0.615270	0.986760
H1081	H108	0.624290	0.603450	0.993160
C2221	C222	0.843540	0.913530	0.993500
H1091	H109	0.865080	0.922830	0.997240
C2231	C223	0.642340	0.644920	0.979350
C2241	C224	0.838930	0.883490	0.996730
C2251	C225	0.666930	0.660830	0.971700
C2261	C226	0.811840	0.870730	0.992180
C2271	C227	0.694610	0.647880	0.970930
H1101	H110	0.713980	0.660400	0.965310
C2281	C228	0.787760	0.887540	0.983550
H1111	H111	0.766620	0.877700	0.979200
C2291	C229	0.696860	0.618020	0.978030
H1121	H112	0.718380	0.607950	0.977620
C2301	C230	0.791630	0.917950	0.980420
H1131	H113	0.772950	0.931080	0.973880
C2311	C231	0.680150	0.713000	0.968780
C2321	C232	0.790680	0.820640	0.990730
C2331	C233	0.701640	0.717390	0.947330
H1141	H114	0.702300	0.703460	0.928100
C2341	C234	0.795950	0.795980	0.973150
H1151	H115	0.817320	0.792620	0.963340
C2351	C235	0.722720	0.739340	0.950900
H1161	H116	0.739060	0.742270	0.933930
C2361	C236	0.773910	0.775280	0.968480
H1171	H117	0.779110	0.755940	0.955730
C2371	C237	0.722930	0.756920	0.976330
C2381	C238	0.745910	0.779060	0.980930
C2391	C239	0.679430	0.731130	0.993550
C2401	C240	0.700730	0.752810	0.997410
H1181	H118	0.700230	0.767340	0.017760
H1191	H119	0.661380	0.728150	0.010600
H1201	H120	0.717740	0.807930	0.007650
Cu111	Cu11	0.489640	0.648700	0.985020
Cu121	Cu12	0.482410	0.702850	0.983010
O491	O49	0.477050	0.204150	0.515840
O501	O50	0.055610	0.305300	0.481690
O511	O51	0.470940	0.155870	0.513920
O521	O52	0.050400	0.353630	0.484580
O531	O53	0.351070	0.055280	0.509700
O541	O54	0.152920	0.475360	0.511110
O551	O55	0.302630	0.056900	0.514460
O561	O56	0.201080	0.478030	0.517980
N131	N13	0.339800	0.189360	0.533020
N141	N14	0.186880	0.341260	0.503970
C2411	C241	0.259500	0.304290	0.502080
C2421	C242	0.237240	0.324800	0.497110
H1211	H121	0.241630	0.343710	0.483410
C2431	C243	0.416520	0.213580	0.523940
H1221	H122	0.430180	0.232970	0.525230
C2441	C244	0.115720	0.307620	0.484250
H1231	H123	0.105760	0.286550	0.479680
C2451	C245	0.386470	0.216440	0.529990
H1241	H124	0.377270	0.237500	0.535920
C2461	C246	0.145910	0.308520	0.490210
H1251	H125	0.158740	0.288580	0.489760
C2471	C247	0.369010	0.191420	0.528230
C2481	C248	0.158560	0.335610	0.496790
C2491	C249	0.380750	0.164520	0.520750
C2501	C250	0.142110	0.361000	0.496320
C2511	C251	0.410450	0.161030	0.514280
H1261	H126	0.418980	0.139720	0.508170
C2521	C252	0.112070	0.360850	0.490580
H1271	H127	0.099640	0.381080	0.491130
C2531	C253	0.428790	0.186030	0.515980
C2541	C254	0.098460	0.333560	0.484790
C2551	C255	0.460360	0.182180	0.514120
C2561	C256	0.066790	0.330560	0.483660
C2571	C257	0.326900	0.069940	0.511460
C2581	C258	0.178140	0.462940	0.514740
C2591	C259	0.328280	0.101500	0.513820
C2601	C260	0.180620	0.431220	0.514590
C2611	C261	0.356120	0.115270	0.513240
H1281	H128	0.375710	0.103450	0.506840
C2621	C262	0.156460	0.413530	0.506500
H1291	H129	0.134920	0.422830	0.502760
C2631	C263	0.357660	0.144920	0.520650
C2641	C264	0.161070	0.383490	0.503270
C2651	C265	0.333070	0.160830	0.528300
C2661	C266	0.188160	0.370730	0.507820
C2671	C267	0.305390	0.147880	0.529070
H1301	H130	0.286020	0.160400	0.534690
C2681	C268	0.212240	0.387540	0.516450
H1311	H131	0.233380	0.377700	0.520800
C2691	C269	0.303140	0.118020	0.521970
H1321	H132	0.281620	0.107950	0.522380
C2701	C270	0.208370	0.417950	0.519580
H1331	H133	0.227050	0.431080	0.526120
C2711	C271	0.319850	0.213000	0.531220
C2721	C272	0.209320	0.320640	0.509270
C2731	C273	0.298360	0.217390	0.552670
H1341	H134	0.297700	0.203460	0.571900
C2741	C274	0.204050	0.295980	0.526850
H1351	H135	0.182680	0.292620	0.536660
C2751	C275	0.277280	0.239340	0.549100
H1361	H136	0.260940	0.242270	0.566070
C2761	C276	0.226090	0.275280	0.531520
H1371	H137	0.220890	0.255940	0.544270
C2771	C277	0.277070	0.256920	0.523670
C2781	C278	0.254090	0.279060	0.519070
C2791	C279	0.320570	0.231130	0.506450
C2801	C280	0.299270	0.252810	0.502590
H1381	H138	0.299770	0.267340	0.482240
H1391	H139	0.338620	0.228150	0.489400
H1401	H140	0.282260	0.307930	0.492350
Cu131	Cu13	0.510360	0.148700	0.514980
Cu141	Cu14	0.517590	0.202850	0.516990
O571	O57	0.977050	0.295850	0.484160
O581	O58	0.555610	0.194700	0.518310
O591	O59	0.970940	0.344130	0.486080
O601	O60	0.550400	0.146370	0.515420
O611	O61	0.851070	0.444720	0.490300
O621	O62	0.652920	0.024640	0.488890
O631	O63	0.802630	0.443100	0.485540
O641	O64	0.701080	0.021970	0.482020
N151	N15	0.839800	0.310640	0.466980
N161	N16	0.686880	0.158740	0.496030
C2811	C281	0.759500	0.195710	0.497920
C2821	C282	0.737240	0.175200	0.502890
H1411	H141	0.741630	0.156290	0.516590
C2831	C283	0.916520	0.286420	0.476060
H1421	H142	0.930180	0.267030	0.474770
C2841	C284	0.615720	0.192380	0.515750
H1431	H143	0.605760	0.213450	0.520320
C2851	C285	0.886470	0.283560	0.470010
H1441	H144	0.877270	0.262500	0.464080
C2861	C286	0.645910	0.191480	0.509790
H1451	H145	0.658740	0.211420	0.510240
C2871	C287	0.869010	0.308580	0.471770
C2881	C288	0.658560	0.164390	0.503210
C2891	C289	0.880750	0.335480	0.479250
C2901	C290	0.642110	0.139000	0.503680
C2911	C291	0.910450	0.338970	0.485720
H1461	H146	0.918980	0.360280	0.491830
C2921	C292	0.612070	0.139150	0.509420
H1471	H147	0.599640	0.118920	0.508870
C2931	C293	0.928790	0.313970	0.484020
C2941	C294	0.598460	0.166440	0.515210
C2951	C295	0.960360	0.317820	0.485880
C2961	C296	0.566790	0.169440	0.516340
C2971	C297	0.826900	0.430060	0.488540
C2981	C298	0.678140	0.037060	0.485260
C2991	C299	0.828280	0.398500	0.486180
C3001	C300	0.680620	0.068780	0.485410
C3011	C301	0.856120	0.384730	0.486760
H1481	H148	0.875710	0.396550	0.493160
C3021	C302	0.656460	0.086470	0.493500
H1491	H149	0.634920	0.077170	0.497240
C3031	C303	0.857660	0.355080	0.479350
C3041	C304	0.661070	0.116510	0.496730
C3051	C305	0.833070	0.339170	0.471700
C3061	C306	0.688160	0.129270	0.492180
C3071	C307	0.805390	0.352120	0.470930
H1501	H150	0.786020	0.339600	0.465310
C3081	C308	0.712240	0.112460	0.483550
H1511	H151	0.733380	0.122300	0.479200
C3091	C309	0.803140	0.381980	0.478030
H1521	H152	0.781620	0.392050	0.477620
C3101	C310	0.708370	0.082050	0.480420
H1531	H153	0.727050	0.068920	0.473880
C3111	C311	0.819850	0.287000	0.468780
C3121	C312	0.709320	0.179360	0.490730
C3131	C313	0.798360	0.282610	0.447330
H1541	H154	0.797700	0.296540	0.428100
C3141	C314	0.704050	0.204020	0.473150
H1551	H155	0.682680	0.207380	0.463340
C3151	C315	0.777280	0.260660	0.450900
H1561	H156	0.760940	0.257730	0.433930
C3161	C316	0.726090	0.224720	0.468480
H1571	H157	0.720890	0.244060	0.455730
C3171	C317	0.777070	0.243080	0.476330
C3181	C318	0.754090	0.220940	0.480930
C3191	C319	0.820570	0.268870	0.493550
C3201	C320	0.799270	0.247190	0.497410
H1581	H158	0.799770	0.232660	0.517760
H1591	H159	0.838620	0.271850	0.510600
H1601	H160	0.782260	0.192070	0.507650
Cu151	Cu15	0.010360	0.351300	0.485020
Cu161	Cu16	0.017590	0.297150	0.483010
O651	O65	0.015840	0.022950	0.795850
O661	O66	0.981690	0.444390	0.694700
O671	O67	0.013920	0.029060	0.844130
O681	O68	0.984580	0.449600	0.646370
O691	O69	0.009700	0.148930	0.944720
O701	O70	0.011110	0.347080	0.524640
O711	O71	0.014460	0.197370	0.943100
O721	O72	0.017980	0.298920	0.521970
N171	N17	0.033020	0.160200	0.810640
N181	N18	0.003970	0.313120	0.658740
C3211	C321	0.002080	0.240500	0.695710
C3221	C322	0.997110	0.262760	0.675200
H1611	H161	0.983410	0.258370	0.656290
C3231	C323	0.023940	0.083480	0.786420
H1621	H162	0.025230	0.069820	0.767030
C3241	C324	0.984250	0.384280	0.692380
H1631	H163	0.979680	0.394240	0.713450
C3251	C325	0.029990	0.113530	0.783560
H1641	H164	0.035920	0.122730	0.762500
C3261	C326	0.990210	0.354090	0.691480
H1651	H165	0.989760	0.341260	0.711420
C3271	C327	0.028230	0.130990	0.808580
C3281	C328	0.996790	0.341440	0.664390
C3291	C329	0.020750	0.119250	0.835480
C3301	C330	0.996320	0.357890	0.639000
C3311	C331	0.014280	0.089550	0.838970
H1661	H166	0.008170	0.081020	0.860280
C3321	C332	0.990580	0.387930	0.639150
H1671	H167	0.991130	0.400360	0.618920
C3331	C333	0.015980	0.071210	0.813970
C3341	C334	0.984790	0.401540	0.666440
C3351	C335	0.014120	0.039640	0.817820
C3361	C336	0.983660	0.433210	0.669440
C3371	C337	0.011460	0.173100	0.930060
C3381	C338	0.014740	0.321860	0.537060
C3391	C339	0.013820	0.171720	0.898500
C3401	C340	0.014590	0.319380	0.568780
C3411	C341	0.013240	0.143880	0.884730
H1681	H168	0.006840	0.124290	0.896550
C3421	C342	0.006500	0.343540	0.586470
H1691	H169	0.002760	0.365080	0.577170
C3431	C343	0.020650	0.142340	0.855080
C3441	C344	0.003270	0.338930	0.616510
C3451	C345	0.028300	0.166930	0.839170
C3461	C346	0.007820	0.311840	0.629270
C3471	C347	0.029070	0.194610	0.852120
H1701	H170	0.034690	0.213980	0.839600
C3481	C348	0.016450	0.287760	0.612460
H1711	H171	0.020800	0.266620	0.622300
C3491	C349	0.021970	0.196860	0.881980
H1721	H172	0.022380	0.218380	0.892050
C3501	C350	0.019580	0.291630	0.582050
H1731	H173	0.026120	0.272950	0.568920
C3511	C351	0.031220	0.180150	0.787000
C3521	C352	0.009270	0.290680	0.679360
C3531	C353	0.052670	0.201640	0.782610
H1741	H174	0.071900	0.202300	0.796540
C3541	C354	0.026850	0.295950	0.704020
H1751	H175	0.036660	0.317320	0.707380
C3551	C355	0.049100	0.222720	0.760660
H1761	H176	0.066070	0.239060	0.757730
C3561	C356	0.031520	0.273910	0.724720
H1771	H177	0.044270	0.279110	0.744060
C3571	C357	0.023670	0.222930	0.743080
C3581	C358	0.019070	0.245910	0.720940
C3591	C359	0.006450	0.179430	0.768870
C3601	C360	0.002590	0.200730	0.747190
H1781	H178	0.982240	0.200230	0.732660
H1791	H179	0.989400	0.161380	0.771850
H1801	H180	0.992350	0.217740	0.692070
Cu171	Cu17	0.014980	0.989640	0.851300
Cu181	Cu18	0.016990	0.982410	0.797150
O731	O73	0.984160	0.522950	0.704150
O741	O74	0.018310	0.944390	0.805300
O751	O75	0.986080	0.529060	0.655870
O761	O76	0.015420	0.949600	0.853630
O771	O77	0.990300	0.648930	0.555280
O781	O78	0.988890	0.847080	0.975360
O791	O79	0.985540	0.697370	0.556900
O801	O80	0.982020	0.798920	0.978030
N191	N19	0.966980	0.660200	0.689360
N201	N20	0.996030	0.813120	0.841260
C3611	C361	0.997920	0.740500	0.804290
C3621	C362	0.002890	0.762760	0.824800
H1811	H181	0.016590	0.758370	0.843710
C3631	C363	0.976060	0.583480	0.713580
H1821	H182	0.974770	0.569820	0.732970
C3641	C364	0.015750	0.884280	0.807620
H1831	H183	0.020320	0.894240	0.786550
C3651	C365	0.970010	0.613530	0.716440
H1841	H184	0.964080	0.622730	0.737500
C3661	C366	0.009790	0.854090	0.808520
H1851	H185	0.010240	0.841260	0.788580
C3671	C367	0.971770	0.630990	0.691420
C3681	C368	0.003210	0.841440	0.835610
C3691	C369	0.979250	0.619250	0.664520
C3701	C370	0.003680	0.857890	0.861000
C3711	C371	0.985720	0.589550	0.661030
H1861	H186	0.991830	0.581020	0.639720
C3721	C372	0.009420	0.887930	0.860850
H1871	H187	0.008870	0.900360	0.881080
C3731	C373	0.984020	0.571210	0.686030
C3741	C374	0.015210	0.901540	0.833560
C3751	C375	0.985880	0.539640	0.682180
C3761	C376	0.016340	0.933210	0.830560
C3771	C377	0.988540	0.673100	0.569940
C3781	C378	0.985260	0.821860	0.962940
C3791	C379	0.986180	0.671720	0.601500
C3801	C380	0.985410	0.819380	0.931220
C3811	C381	0.986760	0.643880	0.615270
H1881	H188	0.993160	0.624290	0.603450
C3821	C382	0.993500	0.843540	0.913530
H1891	H189	0.997240	0.865080	0.922830
C3831	C383	0.979350	0.642340	0.644920
C3841	C384	0.996730	0.838930	0.883490
C3851	C385	0.971700	0.666930	0.660830
C3861	C386	0.992180	0.811840	0.870730
C3871	C387	0.970930	0.694610	0.647880
H1901	H190	0.965310	0.713980	0.660400
C3881	C388	0.983550	0.787760	0.887540
H1911	H191	0.979200	0.766620	0.877700
C3891	C389	0.978030	0.696860	0.618020
H1921	H192	0.977620	0.718380	0.607950
C3901	C390	0.980420	0.791630	0.917950
H1931	H193	0.973880	0.772950	0.931080
C3911	C391	0.968780	0.680150	0.713000
C3921	C392	0.990730	0.790680	0.820640
C3931	C393	0.947330	0.701640	0.717390
H1941	H194	0.928100	0.702300	0.703460
C3941	C394	0.973150	0.795950	0.795980
H1951	H195	0.963340	0.817320	0.792620
C3951	C395	0.950900	0.722720	0.739340
H1961	H196	0.933930	0.739060	0.742270
C3961	C396	0.968480	0.773910	0.775280
H1971	H197	0.955730	0.779110	0.755940
C3971	C397	0.976330	0.722930	0.756920
C3981	C398	0.980930	0.745910	0.779060
C3991	C399	0.993550	0.679430	0.731130
C4001	C400	0.997410	0.700730	0.752810
H1981	H198	0.017760	0.700230	0.767340
H1991	H199	0.010600	0.661380	0.728150
H2001	H200	0.007650	0.717740	0.807930
Cu191	Cu19	0.985020	0.489640	0.648700
Cu201	Cu20	0.983010	0.482410	0.702850
O811	O81	0.515840	0.477050	0.204150
O821	O82	0.481690	0.055610	0.305300
O831	O83	0.513920	0.470940	0.155870
O841	O84	0.484580	0.050400	0.353630
O851	O85	0.509700	0.351070	0.055280
O861	O86	0.511110	0.152920	0.475360
O871	O87	0.514460	0.302630	0.056900
O881	O88	0.517980	0.201080	0.478030
N211	N21	0.533020	0.339800	0.189360
N221	N22	0.503970	0.186880	0.341260
C4011	C401	0.502080	0.259500	0.304290
C4021	C402	0.497110	0.237240	0.324800
H2011	H201	0.483410	0.241630	0.343710
C4031	C403	0.523940	0.416520	0.213580
H2021	H202	0.525230	0.430180	0.232970
C4041	C404	0.484250	0.115720	0.307620
H2031	H203	0.479680	0.105760	0.286550
C4051	C405	0.529990	0.386470	0.216440
H2041	H204	0.535920	0.377270	0.237500
C4061	C406	0.490210	0.145910	0.308520
H2051	H205	0.489760	0.158740	0.288580
C4071	C407	0.528230	0.369010	0.191420
C4081	C408	0.496790	0.158560	0.335610
C4091	C409	0.520750	0.380750	0.164520
C4101	C410	0.496320	0.142110	0.361000
C4111	C411	0.514280	0.410450	0.161030
H2061	H206	0.508170	0.418980	0.139720
C4121	C412	0.490580	0.112070	0.360850
H2071	H207	0.491130	0.099640	0.381080
C4131	C413	0.515980	0.428790	0.186030
C4141	C414	0.484790	0.098460	0.333560
C4151	C415	0.514120	0.460360	0.182180
C4161	C416	0.483660	0.066790	0.330560
C4171	C417	0.511460	0.326900	0.069940
C4181	C418	0.514740	0.178140	0.462940
C4191	C419	0.513820	0.328280	0.101500
C4201	C420	0.514590	0.180620	0.431220
C4211	C421	0.513240	0.356120	0.115270
H2081	H208	0.506840	0.375710	0.103450
C4221	C422	0.506500	0.156460	0.413530
H2091	H209	0.502760	0.134920	0.422830
C4231	C423	0.520650	0.357660	0.144920
C4241	C424	0.503270	0.161070	0.383490
C4251	C425	0.528300	0.333070	0.160830
C4261	C426	0.507820	0.188160	0.370730
C4271	C427	0.529070	0.305390	0.147880
H2101	H210	0.534690	0.286020	0.160400
C4281	C428	0.516450	0.212240	0.387540
H2111	H211	0.520800	0.233380	0.377700
C4291	C429	0.521970	0.303140	0.118020
H2121	H212	0.522380	0.281620	0.107950
C4301	C430	0.519580	0.208370	0.417950
H2131	H213	0.526120	0.227050	0.431080
C4311	C431	0.531220	0.319850	0.213000
C4321	C432	0.509270	0.209320	0.320640
C4331	C433	0.552670	0.298360	0.217390
H2141	H214	0.571900	0.297700	0.203460
C4341	C434	0.526850	0.204050	0.295980
H2151	H215	0.536660	0.182680	0.292620
C4351	C435	0.549100	0.277280	0.239340
H2161	H216	0.566070	0.260940	0.242270
C4361	C436	0.531520	0.226090	0.275280
H2171	H217	0.544270	0.220890	0.255940
C4371	C437	0.523670	0.277070	0.256920
C4381	C438	0.519070	0.254090	0.279060
C4391	C439	0.506450	0.320570	0.231130
C4401	C440	0.502590	0.299270	0.252810
H2181	H218	0.482240	0.299770	0.267340
H2191	H219	0.489400	0.338620	0.228150
H2201	H220	0.492350	0.282260	0.307930
Cu211	Cu21	0.514980	0.510360	0.148700
Cu221	Cu22	0.516990	0.517590	0.202850
O891	O89	0.484160	0.977050	0.295850
O901	O90	0.518310	0.555610	0.194700
O911	O91	0.486080	0.970940	0.344130
O921	O92	0.515420	0.550400	0.146370
O931	O93	0.490300	0.851070	0.444720
O941	O94	0.488890	0.652920	0.024640
O951	O95	0.485540	0.802630	0.443100
O961	O96	0.482020	0.701080	0.021970
N231	N23	0.466980	0.839800	0.310640
N241	N24	0.496030	0.686880	0.158740
C4411	C441	0.497920	0.759500	0.195710
C4421	C442	0.502890	0.737240	0.175200
H2211	H221	0.516590	0.741630	0.156290
C4431	C443	0.476060	0.916520	0.286420
H2221	H222	0.474770	0.930180	0.267030
C4441	C444	0.515750	0.615720	0.192380
H2231	H223	0.520320	0.605760	0.213450
C4451	C445	0.470010	0.886470	0.283560
H2241	H224	0.464080	0.877270	0.262500
C4461	C446	0.509790	0.645910	0.191480
H2251	H225	0.510240	0.658740	0.211420
C4471	C447	0.471770	0.869010	0.308580
C4481	C448	0.503210	0.658560	0.164390
C4491	C449	0.479250	0.880750	0.335480
C4501	C450	0.503680	0.642110	0.139000
C4511	C451	0.485720	0.910450	0.338970
H2261	H226	0.491830	0.918980	0.360280
C4521	C452	0.509420	0.612070	0.139150
H2271	H227	0.508870	0.599640	0.118920
C4531	C453	0.484020	0.928790	0.313970
C4541	C454	0.515210	0.598460	0.166440
C4551	C455	0.485880	0.960360	0.317820
C4561	C456	0.516340	0.566790	0.169440
C4571	C457	0.488540	0.826900	0.430060
C4581	C458	0.485260	0.678140	0.037060
C4591	C459	0.486180	0.828280	0.398500
C4601	C460	0.485410	0.680620	0.068780
C4611	C461	0.486760	0.856120	0.384730
H2281	H228	0.493160	0.875710	0.396550
C4621	C462	0.493500	0.656460	0.086470
H2291	H229	0.497240	0.634920	0.077170
C4631	C463	0.479350	0.857660	0.355080
C4641	C464	0.496730	0.661070	0.116510
C4651	C465	0.471700	0.833070	0.339170
C4661	C466	0.492180	0.688160	0.129270
C4671	C467	0.470930	0.805390	0.352120
H2301	H230	0.465310	0.786020	0.339600
C4681	C468	0.483550	0.712240	0.112460
H2311	H231	0.479200	0.733380	0.122300
C4691	C469	0.478030	0.803140	0.381980
H2321	H232	0.477620	0.781620	0.392050
C4701	C470	0.480420	0.708370	0.082050
H2331	H233	0.473880	0.727050	0.068920
C4711	C471	0.468780	0.819850	0.287000
C4721	C472	0.490730	0.709320	0.179360
C4731	C473	0.447330	0.798360	0.282610
H2341	H234	0.428100	0.797700	0.296540
C4741	C474	0.473150	0.704050	0.204020
H2351	H235	0.463340	0.682680	0.207380
C4751	C475	0.450900	0.777280	0.260660
H2361	H236	0.433930	0.760940	0.257730
C4761	C476	0.468480	0.726090	0.224720
H2371	H237	0.455730	0.720890	0.244060
C4771	C477	0.476330	0.777070	0.243080
C4781	C478	0.480930	0.754090	0.220940
C4791	C479	0.493550	0.820570	0.268870
C4801	C480	0.497410	0.799270	0.247190
H2381	H238	0.517760	0.799770	0.232660
H2391	H239	0.510600	0.838620	0.271850
H2401	H240	0.507650	0.782260	0.192070
Cu231	Cu23	0.485020	0.010360	0.351300
Cu241	Cu24	0.483010	0.017590	0.297150
O971	O97	0.204150	0.984160	0.977050
O981	O98	0.305300	0.018310	0.555610
O991	O99	0.155870	0.986080	0.970940
O1001	O100	0.353630	0.015420	0.550400
O1011	O101	0.055280	0.990300	0.851070
O1021	O102	0.475360	0.988890	0.652920
O1031	O103	0.056900	0.985540	0.802630
O1041	O104	0.478030	0.982020	0.701080
N251	N25	0.189360	0.966980	0.839800
N261	N26	0.341260	0.996030	0.686880
C4811	C481	0.304290	0.997920	0.759500
C4821	C482	0.324800	0.002890	0.737240
H2411	H241	0.343710	0.016590	0.741630
C4831	C483	0.213580	0.976060	0.916520
H2421	H242	0.232970	0.974770	0.930180
C4841	C484	0.307620	0.015750	0.615720
H2431	H243	0.286550	0.020320	0.605760
C4851	C485	0.216440	0.970010	0.886470
H2441	H244	0.237500	0.964080	0.877270
C4861	C486	0.308520	0.009790	0.645910
H2451	H245	0.288580	0.010240	0.658740
C4871	C487	0.191420	0.971770	0.869010
C4881	C488	0.335610	0.003210	0.658560
C4891	C489	0.164520	0.979250	0.880750
C4901	C490	0.361000	0.003680	0.642110
C4911	C491	0.161030	0.985720	0.910450
H2461	H246	0.139720	0.991830	0.918980
C4921	C492	0.360850	0.009420	0.612070
H2471	H247	0.381080	0.008870	0.599640
C4931	C493	0.186030	0.984020	0.928790
C4941	C494	0.333560	0.015210	0.598460
C4951	C495	0.182180	0.985880	0.960360
C4961	C496	0.330560	0.016340	0.566790
C4971	C497	0.069940	0.988540	0.826900
C4981	C498	0.462940	0.985260	0.678140
C4991	C499	0.101500	0.986180	0.828280
C5001	C500	0.431220	0.985410	0.680620
C5011	C501	0.115270	0.986760	0.856120
H2481	H248	0.103450	0.993160	0.875710
C5021	C502	0.413530	0.993500	0.656460
H2491	H249	0.422830	0.997240	0.634920
C5031	C503	0.144920	0.979350	0.857660
C5041	C504	0.383490	0.996730	0.661070
C5051	C505	0.160830	0.971700	0.833070
C5061	C506	0.370730	0.992180	0.688160
C5071	C507	0.147880	0.970930	0.805390
H2501	H250	0.160400	0.965310	0.786020
C5081	C508	0.387540	0.983550	0.712240
H2511	H251	0.377700	0.979200	0.733380
C5091	C509	0.118020	0.978030	0.803140
H2521	H252	0.107950	0.977620	0.781620
C5101	C510	0.417950	0.980420	0.708370
H2531	H253	0.431080	0.973880	0.727050
C5111	C511	0.213000	0.968780	0.819850
C5121	C512	0.320640	0.990730	0.709320
C5131	C513	0.217390	0.947330	0.798360
H2541	H254	0.203460	0.928100	0.797700
C5141	C514	0.295980	0.973150	0.704050
H2551	H255	0.292620	0.963340	0.682680
C5151	C515	0.239340	0.950900	0.777280
H2561	H256	0.242270	0.933930	0.760940
C5161	C516	0.275280	0.968480	0.726090
H2571	H257	0.255940	0.955730	0.720890
C5171	C517	0.256920	0.976330	0.777070
C5181	C518	0.279060	0.980930	0.754090
C5191	C519	0.231130	0.993550	0.820570
C5201	C520	0.252810	0.997410	0.799270
H2581	H258	0.267340	0.017760	0.799770
H2591	H259	0.228150	0.010600	0.838620
H2601	H260	0.307930	0.007650	0.782260
Cu251	Cu25	0.148700	0.985020	0.010360
Cu261	Cu26	0.202850	0.983010	0.017590
O1051	O105	0.295850	0.015840	0.477050
O1061	O106	0.194700	0.981690	0.055610
O1071	O107	0.344130	0.013920	0.470940
O1081	O108	0.146370	0.984580	0.050400
O1091	O109	0.444720	0.009700	0.351070
O1101	O110	0.024640	0.011110	0.152920
O1111	O111	0.443100	0.014460	0.302630
O1121	O112	0.021970	0.017980	0.201080
N271	N27	0.310640	0.033020	0.339800
N281	N28	0.158740	0.003970	0.186880
C5211	C521	0.195710	0.002080	0.259500
C5221	C522	0.175200	0.997110	0.237240
H2611	H261	0.156290	0.983410	0.241630
C5231	C523	0.286420	0.023940	0.416520
H2621	H262	0.267030	0.025230	0.430180
C5241	C524	0.192380	0.984250	0.115720
H2631	H263	0.213450	0.979680	0.105760
C5251	C525	0.283560	0.029990	0.386470
H2641	H264	0.262500	0.035920	0.377270
C5261	C526	0.191480	0.990210	0.145910
H2651	H265	0.211420	0.989760	0.158740
C5271	C527	0.308580	0.028230	0.369010
C5281	C528	0.164390	0.996790	0.158560
C5291	C529	0.335480	0.020750	0.380750
C5301	C530	0.139000	0.996320	0.142110
C5311	C531	0.338970	0.014280	0.410450
H2661	H266	0.360280	0.008170	0.418980
C5321	C532	0.139150	0.990580	0.112070
H2671	H267	0.118920	0.991130	0.099640
C5331	C533	0.313970	0.015980	0.428790
C5341	C534	0.166440	0.984790	0.098460
C5351	C535	0.317820	0.014120	0.460360
C5361	C536	0.169440	0.983660	0.066790
C5371	C537	0.430060	0.011460	0.326900
C5381	C538	0.037060	0.014740	0.178140
C5391	C539	0.398500	0.013820	0.328280
C5401	C540	0.068780	0.014590	0.180620
C5411	C541	0.384730	0.013240	0.356120
H2681	H268	0.396550	0.006840	0.375710
C5421	C542	0.086470	0.006500	0.156460
H2691	H269	0.077170	0.002760	0.134920
C5431	C543	0.355080	0.020650	0.357660
C5441	C544	0.116510	0.003270	0.161070
C5451	C545	0.339170	0.028300	0.333070
C5461	C546	0.129270	0.007820	0.188160
C5471	C547	0.352120	0.029070	0.305390
H2701	H270	0.339600	0.034690	0.286020
C5481	C548	0.112460	0.016450	0.212240
H2711	H271	0.122300	0.020800	0.233380
C5491	C549	0.381980	0.021970	0.303140
H2721	H272	0.392050	0.022380	0.281620
C5501	C550	0.082050	0.019580	0.208370
H2731	H273	0.068920	0.026120	0.227050
C5511	C551	0.287000	0.031220	0.319850
C5521	C552	0.179360	0.009270	0.209320
C5531	C553	0.282610	0.052670	0.298360
H2741	H274	0.296540	0.071900	0.297700
C5541	C554	0.204020	0.026850	0.204050
H2751	H275	0.207380	0.036660	0.182680
C5551	C555	0.260660	0.049100	0.277280
H2761	H276	0.257730	0.066070	0.260940
C5561	C556	0.224720	0.031520	0.226090
H2771	H277	0.244060	0.044270	0.220890
C5571	C557	0.243080	0.023670	0.277070
C5581	C558	0.220940	0.019070	0.254090
C5591	C559	0.268870	0.006450	0.320570
C5601	C560	0.247190	0.002590	0.299270
H2781	H278	0.232660	0.982240	0.299770
H2791	H279	0.271850	0.989400	0.338620
H2801	H280	0.192070	0.992350	0.282260
Cu271	Cu27	0.351300	0.014980	0.510360
Cu281	Cu28	0.297150	0.016990	0.517590
O1131	O113	0.795850	0.484160	0.522950
O1141	O114	0.694700	0.518310	0.944390
O1151	O115	0.844130	0.486080	0.529060
O1161	O116	0.646370	0.515420	0.949600
O1171	O117	0.944720	0.490300	0.648930
O1181	O118	0.524640	0.488890	0.847080
O1191	O119	0.943100	0.485540	0.697370
O1201	O120	0.521970	0.482020	0.798920
N291	N29	0.810640	0.466980	0.660200
N301	N30	0.658740	0.496030	0.813120
C5611	C561	0.695710	0.497920	0.740500
C5621	C562	0.675200	0.502890	0.762760
H2811	H281	0.656290	0.516590	0.758370
C5631	C563	0.786420	0.476060	0.583480
H2821	H282	0.767030	0.474770	0.569820
C5641	C564	0.692380	0.515750	0.884280
H2831	H283	0.713450	0.520320	0.894240
C5651	C565	0.783560	0.470010	0.613530
H2841	H284	0.762500	0.464080	0.622730
C5661	C566	0.691480	0.509790	0.854090
H2851	H285	0.711420	0.510240	0.841260
C5671	C567	0.808580	0.471770	0.630990
C5681	C568	0.664390	0.503210	0.841440
C5691	C569	0.835480	0.479250	0.619250
C5701	C570	0.639000	0.503680	0.857890
C5711	C571	0.838970	0.485720	0.589550
H2861	H286	0.860280	0.491830	0.581020
C5721	C572	0.639150	0.509420	0.887930
H2871	H287	0.618920	0.508870	0.900360
C5731	C573	0.813970	0.484020	0.571210
C5741	C574	0.666440	0.515210	0.901540
C5751	C575	0.817820	0.485880	0.539640
C5761	C576	0.669440	0.516340	0.933210
C5771	C577	0.930060	0.488540	0.673100
C5781	C578	0.537060	0.485260	0.821860
C5791	C579	0.898500	0.486180	0.671720
C5801	C580	0.568780	0.485410	0.819380
C5811	C581	0.884730	0.486760	0.643880
H2881	H288	0.896550	0.493160	0.624290
C5821	C582	0.586470	0.493500	0.843540
H2891	H289	0.577170	0.497240	0.865080
C5831	C583	0.855080	0.479350	0.642340
C5841	C584	0.616510	0.496730	0.838930
C5851	C585	0.839170	0.471700	0.666930
C5861	C586	0.629270	0.492180	0.811840
C5871	C587	0.852120	0.470930	0.694610
H2901	H290	0.839600	0.465310	0.713980
C5881	C588	0.612460	0.483550	0.787760
H2911	H291	0.622300	0.479200	0.766620
C5891	C589	0.881980	0.478030	0.696860
H2921	H292	0.892050	0.477620	0.718380
C5901	C590	0.582050	0.480420	0.791630
H2931	H293	0.568920	0.473880	0.772950
C5911	C591	0.787000	0.468780	0.680150
C5921	C592	0.679360	0.490730	0.790680
C5931	C593	0.782610	0.447330	0.701640
H2941	H294	0.796540	0.428100	0.702300
C5941	C594	0.704020	0.473150	0.795950
H2951	H295	0.707380	0.463340	0.817320
C5951	C595	0.760660	0.450900	0.722720
H2961	H296	0.757730	0.433930	0.739060
C5961	C596	0.724720	0.468480	0.773910
H2971	H297	0.744060	0.455730	0.779110
C5971	C597	0.743080	0.476330	0.722930
C5981	C598	0.720940	0.480930	0.745910
C5991	C599	0.768870	0.493550	0.679430
C6001	C600	0.747190	0.497410	0.700730
H2981	H298	0.732660	0.517760	0.700230
H2991	H299	0.771850	0.510600	0.661380
H3001	H300	0.692070	0.507650	0.717740
Cu291	Cu29	0.851300	0.485020	0.489640
Cu301	Cu30	0.797150	0.483010	0.482410
O1211	O121	0.704150	0.515840	0.022950
O1221	O122	0.805300	0.481690	0.444390
O1231	O123	0.655870	0.513920	0.029060
O1241	O124	0.853630	0.484580	0.449600
O1251	O125	0.555280	0.509700	0.148930
O1261	O126	0.975360	0.511110	0.347080
O1271	O127	0.556900	0.514460	0.197370
O1281	O128	0.978030	0.517980	0.298920
N311	N31	0.689360	0.533020	0.160200
N321	N32	0.841260	0.503970	0.313120
C6011	C601	0.804290	0.502080	0.240500
C6021	C602	0.824800	0.497110	0.262760
H3011	H301	0.843710	0.483410	0.258370
C6031	C603	0.713580	0.523940	0.083480
H3021	H302	0.732970	0.525230	0.069820
C6041	C604	0.807620	0.484250	0.384280
H3031	H303	0.786550	0.479680	0.394240
C6051	C605	0.716440	0.529990	0.113530
H3041	H304	0.737500	0.535920	0.122730
C6061	C606	0.808520	0.490210	0.354090
H3051	H305	0.788580	0.489760	0.341260
C6071	C607	0.691420	0.528230	0.130990
C6081	C608	0.835610	0.496790	0.341440
C6091	C609	0.664520	0.520750	0.119250
C6101	C610	0.861000	0.496320	0.357890
C6111	C611	0.661030	0.514280	0.089550
H3061	H306	0.639720	0.508170	0.081020
C6121	C612	0.860850	0.490580	0.387930
H3071	H307	0.881080	0.491130	0.400360
C6131	C613	0.686030	0.515980	0.071210
C6141	C614	0.833560	0.484790	0.401540
C6151	C615	0.682180	0.514120	0.039640
C6161	C616	0.830560	0.483660	0.433210
C6171	C617	0.569940	0.511460	0.173100
C6181	C618	0.962940	0.514740	0.321860
C6191	C619	0.601500	0.513820	0.171720
C6201	C620	0.931220	0.514590	0.319380
C6211	C621	0.615270	0.513240	0.143880
H3081	H308	0.603450	0.506840	0.124290
C6221	C622	0.913530	0.506500	0.343540
H3091	H309	0.922830	0.502760	0.365080
C6231	C623	0.644920	0.520650	0.142340
C6241	C624	0.883490	0.503270	0.338930
C6251	C625	0.660830	0.528300	0.166930
C6261	C626	0.870730	0.507820	0.311840
C6271	C627	0.647880	0.529070	0.194610
H3101	H310	0.660400	0.534690	0.213980
C6281	C628	0.887540	0.516450	0.287760
H3111	H311	0.877700	0.520800	0.266620
C6291	C629	0.618020	0.521970	0.196860
H3121	H312	0.607950	0.522380	0.218380
C6301	C630	0.917950	0.519580	0.291630
H3131	H313	0.931080	0.526120	0.272950
C6311	C631	0.713000	0.531220	0.180150
C6321	C632	0.820640	0.509270	0.290680
C6331	C633	0.717390	0.552670	0.201640
H3141	H314	0.703460	0.571900	0.202300
C6341	C634	0.795980	0.526850	0.295950
H3151	H315	0.792620	0.536660	0.317320
C6351	C635	0.739340	0.549100	0.222720
H3161	H316	0.742270	0.566070	0.239060
C6361	C636	0.775280	0.531520	0.273910
H3171	H317	0.755940	0.544270	0.279110
C6371	C637	0.756920	0.523670	0.222930
C6381	C638	0.779060	0.519070	0.245910
C6391	C639	0.731130	0.506450	0.179430
C6401	C640	0.752810	0.502590	0.200730
H3181	H318	0.767340	0.482240	0.200230
H3191	H319	0.728150	0.489400	0.161380
H3201	H320	0.807930	0.492350	0.217740
Cu311	Cu31	0.648700	0.514980	0.989640
Cu321	Cu32	0.702850	0.516990	0.982410
O1291	O129	0.977050	0.204150	0.984160
O1301	O130	0.555610	0.305300	0.018310
O1311	O131	0.970940	0.155870	0.986080
O1321	O132	0.550400	0.353630	0.015420
O1331	O133	0.851070	0.055280	0.990300
O1341	O134	0.652920	0.475360	0.988890
O1351	O135	0.802630	0.056900	0.985540
O1361	O136	0.701080	0.478030	0.982020
N331	N33	0.839800	0.189360	0.966980
N341	N34	0.686880	0.341260	0.996030
C6411	C641	0.759500	0.304290	0.997920
C6421	C642	0.737240	0.324800	0.002890
H3211	H321	0.741630	0.343710	0.016590
C6431	C643	0.916520	0.213580	0.976060
H3221	H322	0.930180	0.232970	0.974770
C6441	C644	0.615720	0.307620	0.015750
H3231	H323	0.605760	0.286550	0.020320
C6451	C645	0.886470	0.216440	0.970010
H3241	H324	0.877270	0.237500	0.964080
C6461	C646	0.645910	0.308520	0.009790
H3251	H325	0.658740	0.288580	0.010240
C6471	C647	0.869010	0.191420	0.971770
C6481	C648	0.658560	0.335610	0.003210
C6491	C649	0.880750	0.164520	0.979250
C6501	C650	0.642110	0.361000	0.003680
C6511	C651	0.910450	0.161030	0.985720
H3261	H326	0.918980	0.139720	0.991830
C6521	C652	0.612070	0.360850	0.009420
H3271	H327	0.599640	0.381080	0.008870
C6531	C653	0.928790	0.186030	0.984020
C6541	C654	0.598460	0.333560	0.015210
C6551	C655	0.960360	0.182180	0.985880
C6561	C656	0.566790	0.330560	0.016340
C6571	C657	0.826900	0.069940	0.988540
C6581	C658	0.678140	0.462940	0.985260
C6591	C659	0.828280	0.101500	0.986180
C6601	C660	0.680620	0.431220	0.985410
C6611	C661	0.856120	0.115270	0.986760
H3281	H328	0.875710	0.103450	0.993160
C6621	C662	0.656460	0.413530	0.993500
H3291	H329	0.634920	0.422830	0.997240
C6631	C663	0.857660	0.144920	0.979350
C6641	C664	0.661070	0.383490	0.996730
C6651	C665	0.833070	0.160830	0.971700
C6661	C666	0.688160	0.370730	0.992180
C6671	C667	0.805390	0.147880	0.970930
H3301	H330	0.786020	0.160400	0.965310
C6681	C668	0.712240	0.387540	0.983550
H3311	H331	0.733380	0.377700	0.979200
C6691	C669	0.803140	0.118020	0.978030
H3321	H332	0.781620	0.107950	0.977620
C6701	C670	0.708370	0.417950	0.980420
H3331	H333	0.727050	0.431080	0.973880
C6711	C671	0.819850	0.213000	0.968780
C6721	C672	0.709320	0.320640	0.990730
C6731	C673	0.798360	0.217390	0.947330
H3341	H334	0.797700	0.203460	0.928100
C6741	C674	0.704050	0.295980	0.973150
H3351	H335	0.682680	0.292620	0.963340
C6751	C675	0.777280	0.239340	0.950900
H3361	H336	0.760940	0.242270	0.933930
C6761	C676	0.726090	0.275280	0.968480
H3371	H337	0.720890	0.255940	0.955730
C6771	C677	0.777070	0.256920	0.976330
C6781	C678	0.754090	0.279060	0.980930
C6791	C679	0.820570	0.231130	0.993550
C6801	C680	0.799270	0.252810	0.997410
H3381	H338	0.799770	0.267340	0.017760
H3391	H339	0.838620	0.228150	0.010600
H3401	H340	0.782260	0.307930	0.007650
Cu331	Cu33	0.010360	0.148700	0.985020
Cu341	Cu34	0.017590	0.202850	0.983010
O1371	O137	0.477050	0.295850	0.015840
O1381	O138	0.055610	0.194700	0.981690
O1391	O139	0.470940	0.344130	0.013920
O1401	O140	0.050400	0.146370	0.984580
O1411	O141	0.351070	0.444720	0.009700
O1421	O142	0.152920	0.024640	0.011110
O1431	O143	0.302630	0.443100	0.014460
O1441	O144	0.201080	0.021970	0.017980
N351	N35	0.339800	0.310640	0.033020
N361	N36	0.186880	0.158740	0.003970
C6811	C681	0.259500	0.195710	0.002080
C6821	C682	0.237240	0.175200	0.997110
H3411	H341	0.241630	0.156290	0.983410
C6831	C683	0.416520	0.286420	0.023940
H3421	H342	0.430180	0.267030	0.025230
C6841	C684	0.115720	0.192380	0.984250
H3431	H343	0.105760	0.213450	0.979680
C6851	C685	0.386470	0.283560	0.029990
H3441	H344	0.377270	0.262500	0.035920
C6861	C686	0.145910	0.191480	0.990210
H3451	H345	0.158740	0.211420	0.989760
C6871	C687	0.369010	0.308580	0.028230
C6881	C688	0.158560	0.164390	0.996790
C6891	C689	0.380750	0.335480	0.020750
C6901	C690	0.142110	0.139000	0.996320
C6911	C691	0.410450	0.338970	0.014280
H3461	H346	0.418980	0.360280	0.008170
C6921	C692	0.112070	0.139150	0.990580
H3471	H347	0.099640	0.118920	0.991130
C6931	C693	0.428790	0.313970	0.015980
C6941	C694	0.098460	0.166440	0.984790
C6951	C695	0.460360	0.317820	0.014120
C6961	C696	0.066790	0.169440	0.983660
C6971	C697	0.326900	0.430060	0.011460
C6981	C698	0.178140	0.037060	0.014740
C6991	C699	0.328280	0.398500	0.013820
C7001	C700	0.180620	0.068780	0.014590
C7011	C701	0.356120	0.384730	0.013240
H3481	H348	0.375710	0.396550	0.006840
C7021	C702	0.156460	0.086470	0.006500
H3491	H349	0.134920	0.077170	0.002760
C7031	C703	0.357660	0.355080	0.020650
C7041	C704	0.161070	0.116510	0.003270
C7051	C705	0.333070	0.339170	0.028300
C7061	C706	0.188160	0.129270	0.007820
C7071	C707	0.305390	0.352120	0.029070
H3501	H350	0.286020	0.339600	0.034690
C7081	C708	0.212240	0.112460	0.016450
H3511	H351	0.233380	0.122300	0.020800
C7091	C709	0.303140	0.381980	0.021970
H3521	H352	0.281620	0.392050	0.022380
C7101	C710	0.208370	0.082050	0.019580
H3531	H353	0.227050	0.068920	0.026120
C7111	C711	0.319850	0.287000	0.031220
C7121	C712	0.209320	0.179360	0.009270
C7131	C713	0.298360	0.282610	0.052670
H3541	H354	0.297700	0.296540	0.071900
C7141	C714	0.204050	0.204020	0.026850
H3551	H355	0.182680	0.207380	0.036660
C7151	C715	0.277280	0.260660	0.049100
H3561	H356	0.260940	0.257730	0.066070
C7161	C716	0.226090	0.224720	0.031520
H3571	H357	0.220890	0.244060	0.044270
C7171	C717	0.277070	0.243080	0.023670
C7181	C718	0.254090	0.220940	0.019070
C7191	C719	0.320570	0.268870	0.006450
C7201	C720	0.299270	0.247190	0.002590
H3581	H358	0.299770	0.232660	0.982240
H3591	H359	0.338620	0.271850	0.989400
H3601	H360	0.282260	0.192070	0.992350
Cu351	Cu35	0.510360	0.351300	0.014980
Cu361	Cu36	0.517590	0.297150	0.016990
O1451	O145	0.522950	0.795850	0.484160
O1461	O146	0.944390	0.694700	0.518310
O1471	O147	0.529060	0.844130	0.486080
O1481	O148	0.949600	0.646370	0.515420
O1491	O149	0.648930	0.944720	0.490300
O1501	O150	0.847080	0.524640	0.488890
O1511	O151	0.697370	0.943100	0.485540
O1521	O152	0.798920	0.521970	0.482020
N371	N37	0.660200	0.810640	0.466980
N381	N38	0.813120	0.658740	0.496030
C7211	C721	0.740500	0.695710	0.497920
C7221	C722	0.762760	0.675200	0.502890
H3611	H361	0.758370	0.656290	0.516590
C7231	C723	0.583480	0.786420	0.476060
H3621	H362	0.569820	0.767030	0.474770
C7241	C724	0.884280	0.692380	0.515750
H3631	H363	0.894240	0.713450	0.520320
C7251	C725	0.613530	0.783560	0.470010
H3641	H364	0.622730	0.762500	0.464080
C7261	C726	0.854090	0.691480	0.509790
H3651	H365	0.841260	0.711420	0.510240
C7271	C727	0.630990	0.808580	0.471770
C7281	C728	0.841440	0.664390	0.503210
C7291	C729	0.619250	0.835480	0.479250
C7301	C730	0.857890	0.639000	0.503680
C7311	C731	0.589550	0.838970	0.485720
H3661	H366	0.581020	0.860280	0.491830
C7321	C732	0.887930	0.639150	0.509420
H3671	H367	0.900360	0.618920	0.508870
C7331	C733	0.571210	0.813970	0.484020
C7341	C734	0.901540	0.666440	0.515210
C7351	C735	0.539640	0.817820	0.485880
C7361	C736	0.933210	0.669440	0.516340
C7371	C737	0.673100	0.930060	0.488540
C7381	C738	0.821860	0.537060	0.485260
C7391	C739	0.671720	0.898500	0.486180
C7401	C740	0.819380	0.568780	0.485410
C7411	C741	0.643880	0.884730	0.486760
H3681	H368	0.624290	0.896550	0.493160
C7421	C742	0.843540	0.586470	0.493500
H3691	H369	0.865080	0.577170	0.497240
C7431	C743	0.642340	0.855080	0.479350
C7441	C744	0.838930	0.616510	0.496730
C7451	C745	0.666930	0.839170	0.471700
C7461	C746	0.811840	0.629270	0.492180
C7471	C747	0.694610	0.852120	0.470930
H3701	H370	0.713980	0.839600	0.465310
C7481	C748	0.787760	0.612460	0.483550
H3711	H371	0.766620	0.622300	0.479200
C7491	C749	0.696860	0.881980	0.478030
H3721	H372	0.718380	0.892050	0.477620
C7501	C750	0.791630	0.582050	0.480420
H3731	H373	0.772950	0.568920	0.473880
C7511	C751	0.680150	0.787000	0.468780
C7521	C752	0.790680	0.679360	0.490730
C7531	C753	0.701640	0.782610	0.447330
H3741	H374	0.702300	0.796540	0.428100
C7541	C754	0.795950	0.704020	0.473150
H3751	H375	0.817320	0.707380	0.463340
C7551	C755	0.722720	0.760660	0.450900
H3761	H376	0.739060	0.757730	0.433930
C7561	C756	0.773910	0.724720	0.468480
H3771	H377	0.779110	0.744060	0.455730
C7571	C757	0.722930	0.743080	0.476330
C7581	C758	0.745910	0.720940	0.480930
C7591	C759	0.679430	0.768870	0.493550
C7601	C760	0.700730	0.747190	0.497410
H3781	H378	0.700230	0.732660	0.517760
H3791	H379	0.661380	0.771850	0.510600
H3801	H380	0.717740	0.692070	0.507650
Cu371	Cu37	0.489640	0.851300	0.485020
Cu381	Cu38	0.482410	0.797150	0.483010
O1531	O153	0.022950	0.704150	0.515840
O1541	O154	0.444390	0.805300	0.481690
O1551	O155	0.029060	0.655870	0.513920
O1561	O156	0.449600	0.853630	0.484580
O1571	O157	0.148930	0.555280	0.509700
O1581	O158	0.347080	0.975360	0.511110
O1591	O159	0.197370	0.556900	0.514460
O1601	O160	0.298920	0.978030	0.517980
N391	N39	0.160200	0.689360	0.533020
N401	N40	0.313120	0.841260	0.503970
C7611	C761	0.240500	0.804290	0.502080
C7621	C762	0.262760	0.824800	0.497110
H3811	H381	0.258370	0.843710	0.483410
C7631	C763	0.083480	0.713580	0.523940
H3821	H382	0.069820	0.732970	0.525230
C7641	C764	0.384280	0.807620	0.484250
H3831	H383	0.394240	0.786550	0.479680
C7651	C765	0.113530	0.716440	0.529990
H3841	H384	0.122730	0.737500	0.535920
C7661	C766	0.354090	0.808520	0.490210
H3851	H385	0.341260	0.788580	0.489760
C7671	C767	0.130990	0.691420	0.528230
C7681	C768	0.341440	0.835610	0.496790
C7691	C769	0.119250	0.664520	0.520750
C7701	C770	0.357890	0.861000	0.496320
C7711	C771	0.089550	0.661030	0.514280
H3861	H386	0.081020	0.639720	0.508170
C7721	C772	0.387930	0.860850	0.490580
H3871	H387	0.400360	0.881080	0.491130
C7731	C773	0.071210	0.686030	0.515980
C7741	C774	0.401540	0.833560	0.484790
C7751	C775	0.039640	0.682180	0.514120
C7761	C776	0.433210	0.830560	0.483660
C7771	C777	0.173100	0.569940	0.511460
C7781	C778	0.321860	0.962940	0.514740
C7791	C779	0.171720	0.601500	0.513820
C7801	C780	0.319380	0.931220	0.514590
C7811	C781	0.143880	0.615270	0.513240
H3881	H388	0.124290	0.603450	0.506840
C7821	C782	0.343540	0.913530	0.506500
H3891	H389	0.365080	0.922830	0.502760
C7831	C783	0.142340	0.644920	0.520650
C7841	C784	0.338930	0.883490	0.503270
C7851	C785	0.166930	0.660830	0.528300
C7861	C786	0.311840	0.870730	0.507820
C7871	C787	0.194610	0.647880	0.529070
H3901	H390	0.213980	0.660400	0.534690
C7881	C788	0.287760	0.887540	0.516450
H3911	H391	0.266620	0.877700	0.520800
C7891	C789	0.196860	0.618020	0.521970
H3921	H392	0.218380	0.607950	0.522380
C7901	C790	0.291630	0.917950	0.519580
H3931	H393	0.272950	0.931080	0.526120
C7911	C791	0.180150	0.713000	0.531220
C7921	C792	0.290680	0.820640	0.509270
C7931	C793	0.201640	0.717390	0.552670
H3941	H394	0.202300	0.703460	0.571900
C7941	C794	0.295950	0.795980	0.526850
H3951	H395	0.317320	0.792620	0.536660
C7951	C795	0.222720	0.739340	0.549100
H3961	H396	0.239060	0.742270	0.566070
C7961	C796	0.273910	0.775280	0.531520
H3971	H397	0.279110	0.755940	0.544270
C7971	C797	0.222930	0.756920	0.523670
C7981	C798	0.245910	0.779060	0.519070
C7991	C799	0.179430	0.731130	0.506450
C8001	C800	0.200730	0.752810	0.502590
H3981	H398	0.200230	0.767340	0.482240
H3991	H399	0.161380	0.728150	0.489400
H4001	H400	0.217740	0.807930	0.492350
Cu391	Cu39	0.989640	0.648700	0.514980
Cu401	Cu40	0.982410	0.702850	0.516990
O1611	O161	0.984160	0.977050	0.204150
O1621	O162	0.018310	0.555610	0.305300
O1631	O163	0.986080	0.970940	0.155870
O1641	O164	0.015420	0.550400	0.353630
O1651	O165	0.990300	0.851070	0.055280
O1661	O166	0.988890	0.652920	0.475360
O1671	O167	0.985540	0.802630	0.056900
O1681	O168	0.982020	0.701080	0.478030
N411	N41	0.966980	0.839800	0.189360
N421	N42	0.996030	0.686880	0.341260
C8011	C801	0.997920	0.759500	0.304290
C8021	C802	0.002890	0.737240	0.324800
H4011	H401	0.016590	0.741630	0.343710
C8031	C803	0.976060	0.916520	0.213580
H4021	H402	0.974770	0.930180	0.232970
C8041	C804	0.015750	0.615720	0.307620
H4031	H403	0.020320	0.605760	0.286550
C8051	C805	0.970010	0.886470	0.216440
H4041	H404	0.964080	0.877270	0.237500
C8061	C806	0.009790	0.645910	0.308520
H4051	H405	0.010240	0.658740	0.288580
C8071	C807	0.971770	0.869010	0.191420
C8081	C808	0.003210	0.658560	0.335610
C8091	C809	0.979250	0.880750	0.164520
C8101	C810	0.003680	0.642110	0.361000
C8111	C811	0.985720	0.910450	0.161030
H4061	H406	0.991830	0.918980	0.139720
C8121	C812	0.009420	0.612070	0.360850
H4071	H407	0.008870	0.599640	0.381080
C8131	C813	0.984020	0.928790	0.186030
C8141	C814	0.015210	0.598460	0.333560
C8151	C815	0.985880	0.960360	0.182180
C8161	C816	0.016340	0.566790	0.330560
C8171	C817	0.988540	0.826900	0.069940
C8181	C818	0.985260	0.678140	0.462940
C8191	C819	0.986180	0.828280	0.101500
C8201	C820	0.985410	0.680620	0.431220
C8211	C821	0.986760	0.856120	0.115270
H4081	H408	0.993160	0.875710	0.103450
C8221	C822	0.993500	0.656460	0.413530
H4091	H409	0.997240	0.634920	0.422830
C8231	C823	0.979350	0.857660	0.144920
C8241	C824	0.996730	0.661070	0.383490
C8251	C825	0.971700	0.833070	0.160830
C8261	C826	0.992180	0.688160	0.370730
C8271	C827	0.970930	0.805390	0.147880
H4101	H410	0.965310	0.786020	0.160400
C8281	C828	0.983550	0.712240	0.387540
H4111	H411	0.979200	0.733380	0.377700
C8291	C829	0.978030	0.803140	0.118020
H4121	H412	0.977620	0.781620	0.107950
C8301	C830	0.980420	0.708370	0.417950
H4131	H413	0.973880	0.727050	0.431080
C8311	C831	0.968780	0.819850	0.213000
C8321	C832	0.990730	0.709320	0.320640
C8331	C833	0.947330	0.798360	0.217390
H4141	H414	0.928100	0.797700	0.203460
C8341	C834	0.973150	0.704050	0.295980
H4151	H415	0.963340	0.682680	0.292620
C8351	C835	0.950900	0.777280	0.239340
H4161	H416	0.933930	0.760940	0.242270
C8361	C836	0.968480	0.726090	0.275280
H4171	H417	0.955730	0.720890	0.255940
C8371	C837	0.976330	0.777070	0.256920
C8381	C838	0.980930	0.754090	0.279060
C8391	C839	0.993550	0.820570	0.231130
C8401	C840	0.997410	0.799270	0.252810
H4181	H418	0.017760	0.799770	0.267340
H4191	H419	0.010600	0.838620	0.228150
H4201	H420	0.007650	0.782260	0.307930
Cu411	Cu41	0.985020	0.010360	0.148700
Cu421	Cu42	0.983010	0.017590	0.202850
O1691	O169	0.015840	0.477050	0.295850
O1701	O170	0.981690	0.055610	0.194700
O1711	O171	0.013920	0.470940	0.344130
O1721	O172	0.984580	0.050400	0.146370
O1731	O173	0.009700	0.351070	0.444720
O1741	O174	0.011110	0.152920	0.024640
O1751	O175	0.014460	0.302630	0.443100
O1761	O176	0.017980	0.201080	0.021970
N431	N43	0.033020	0.339800	0.310640
N441	N44	0.003970	0.186880	0.158740
C8411	C841	0.002080	0.259500	0.195710
C8421	C842	0.997110	0.237240	0.175200
H4211	H421	0.983410	0.241630	0.156290
C8431	C843	0.023940	0.416520	0.286420
H4221	H422	0.025230	0.430180	0.267030
C8441	C844	0.984250	0.115720	0.192380
H4231	H423	0.979680	0.105760	0.213450
C8451	C845	0.029990	0.386470	0.283560
H4241	H424	0.035920	0.377270	0.262500
C8461	C846	0.990210	0.145910	0.191480
H4251	H425	0.989760	0.158740	0.211420
C8471	C847	0.028230	0.369010	0.308580
C8481	C848	0.996790	0.158560	0.164390
C8491	C849	0.020750	0.380750	0.335480
C8501	C850	0.996320	0.142110	0.139000
C8511	C851	0.014280	0.410450	0.338970
H4261	H426	0.008170	0.418980	0.360280
C8521	C852	0.990580	0.112070	0.139150
H4271	H427	0.991130	0.099640	0.118920
C8531	C853	0.015980	0.428790	0.313970
C8541	C854	0.984790	0.098460	0.166440
C8551	C855	0.014120	0.460360	0.317820
C8561	C856	0.983660	0.066790	0.169440
C8571	C857	0.011460	0.326900	0.430060
C8581	C858	0.014740	0.178140	0.037060
C8591	C859	0.013820	0.328280	0.398500
C8601	C860	0.014590	0.180620	0.068780
C8611	C861	0.013240	0.356120	0.384730
H4281	H428	0.006840	0.375710	0.396550
C8621	C862	0.006500	0.156460	0.086470
H4291	H429	0.002760	0.134920	0.077170
C8631	C863	0.020650	0.357660	0.355080
C8641	C864	0.003270	0.161070	0.116510
C8651	C865	0.028300	0.333070	0.339170
C8661	C866	0.007820	0.188160	0.129270
C8671	C867	0.029070	0.305390	0.352120
H4301	H430	0.034690	0.286020	0.339600
C8681	C868	0.016450	0.212240	0.112460
H4311	H431	0.020800	0.233380	0.122300
C8691	C869	0.021970	0.303140	0.381980
H4321	H432	0.022380	0.281620	0.392050
C8701	C870	0.019580	0.208370	0.082050
H4331	H433	0.026120	0.227050	0.068920
C8711	C871	0.031220	0.319850	0.287000
C8721	C872	0.009270	0.209320	0.179360
C8731	C873	0.052670	0.298360	0.282610
H4341	H434	0.071900	0.297700	0.296540
C8741	C874	0.026850	0.204050	0.204020
H4351	H435	0.036660	0.182680	0.207380
C8751	C875	0.049100	0.277280	0.260660
H4361	H436	0.066070	0.260940	0.257730
C8761	C876	0.031520	0.226090	0.224720
H4371	H437	0.044270	0.220890	0.244060
C8771	C877	0.023670	0.277070	0.243080
C8781	C878	0.019070	0.254090	0.220940
C8791	C879	0.006450	0.320570	0.268870
C8801	C880	0.002590	0.299270	0.247190
H4381	H438	0.982240	0.299770	0.232660
H4391	H439	0.989400	0.338620	0.271850
H4401	H440	0.992350	0.282260	0.192070
Cu431	Cu43	0.014980	0.510360	0.351300
Cu441	Cu44	0.016990	0.517590	0.297150
O1771	O177	0.484160	0.522950	0.795850
O1781	O178	0.518310	0.944390	0.694700
O1791	O179	0.486080	0.529060	0.844130
O1801	O180	0.515420	0.949600	0.646370
O1811	O181	0.490300	0.648930	0.944720
O1821	O182	0.488890	0.847080	0.524640
O1831	O183	0.485540	0.697370	0.943100
O1841	O184	0.482020	0.798920	0.521970
N451	N45	0.466980	0.660200	0.810640
N461	N46	0.496030	0.813120	0.658740
C8811	C881	0.497920	0.740500	0.695710
C8821	C882	0.502890	0.762760	0.675200
H4411	H441	0.516590	0.758370	0.656290
C8831	C883	0.476060	0.583480	0.786420
H4421	H442	0.474770	0.569820	0.767030
C8841	C884	0.515750	0.884280	0.692380
H4431	H443	0.520320	0.894240	0.713450
C8851	C885	0.470010	0.613530	0.783560
H4441	H444	0.464080	0.622730	0.762500
C8861	C886	0.509790	0.854090	0.691480
H4451	H445	0.510240	0.841260	0.711420
C8871	C887	0.471770	0.630990	0.808580
C8881	C888	0.503210	0.841440	0.664390
C8891	C889	0.479250	0.619250	0.835480
C8901	C890	0.503680	0.857890	0.639000
C8911	C891	0.485720	0.589550	0.838970
H4461	H446	0.491830	0.581020	0.860280
C8921	C892	0.509420	0.887930	0.639150
H4471	H447	0.508870	0.900360	0.618920
C8931	C893	0.484020	0.571210	0.813970
C8941	C894	0.515210	0.901540	0.666440
C8951	C895	0.485880	0.539640	0.817820
C8961	C896	0.516340	0.933210	0.669440
C8971	C897	0.488540	0.673100	0.930060
C8981	C898	0.485260	0.821860	0.537060
C8991	C899	0.486180	0.671720	0.898500
C9001	C900	0.485410	0.819380	0.568780
C9011	C901	0.486760	0.643880	0.884730
H4481	H448	0.493160	0.624290	0.896550
C9021	C902	0.493500	0.843540	0.586470
H4491	H449	0.497240	0.865080	0.577170
C9031	C903	0.479350	0.642340	0.855080
C9041	C904	0.496730	0.838930	0.616510
C9051	C905	0.471700	0.666930	0.839170
C9061	C906	0.492180	0.811840	0.629270
C9071	C907	0.470930	0.694610	0.852120
H4501	H450	0.465310	0.713980	0.839600
C9081	C908	0.483550	0.787760	0.612460
H4511	H451	0.479200	0.766620	0.622300
C9091	C909	0.478030	0.696860	0.881980
H4521	H452	0.477620	0.718380	0.892050
C9101	C910	0.480420	0.791630	0.582050
H4531	H453	0.473880	0.772950	0.568920
C9111	C911	0.468780	0.680150	0.787000
C9121	C912	0.490730	0.790680	0.679360
C9131	C913	0.447330	0.701640	0.782610
H4541	H454	0.428100	0.702300	0.796540
C9141	C914	0.473150	0.795950	0.704020
H4551	H455	0.463340	0.817320	0.707380
C9151	C915	0.450900	0.722720	0.760660
H4561	H456	0.433930	0.739060	0.757730
C9161	C916	0.468480	0.773910	0.724720
H4571	H457	0.455730	0.779110	0.744060
C9171	C917	0.476330	0.722930	0.743080
C9181	C918	0.480930	0.745910	0.720940
C9191	C919	0.493550	0.679430	0.768870
C9201	C920	0.497410	0.700730	0.747190
H4581	H458	0.517760	0.700230	0.732660
H4591	H459	0.510600	0.661380	0.771850
H4601	H460	0.507650	0.717740	0.692070
Cu451	Cu45	0.485020	0.489640	0.851300
Cu461	Cu46	0.483010	0.482410	0.797150
O1851	O185	0.515840	0.022950	0.704150
O1861	O186	0.481690	0.444390	0.805300
O1871	O187	0.513920	0.029060	0.655870
O1881	O188	0.484580	0.449600	0.853630
O1891	O189	0.509700	0.148930	0.555280
O1901	O190	0.511110	0.347080	0.975360
O1911	O191	0.514460	0.197370	0.556900
O1921	O192	0.517980	0.298920	0.978030
N471	N47	0.533020	0.160200	0.689360
N481	N48	0.503970	0.313120	0.841260
C9211	C921	0.502080	0.240500	0.804290
C9221	C922	0.497110	0.262760	0.824800
H4611	H461	0.483410	0.258370	0.843710
C9231	C923	0.523940	0.083480	0.713580
H4621	H462	0.525230	0.069820	0.732970
C9241	C924	0.484250	0.384280	0.807620
H4631	H463	0.479680	0.394240	0.786550
C9251	C925	0.529990	0.113530	0.716440
H4641	H464	0.535920	0.122730	0.737500
C9261	C926	0.490210	0.354090	0.808520
H4651	H465	0.489760	0.341260	0.788580
C9271	C927	0.528230	0.130990	0.691420
C9281	C928	0.496790	0.341440	0.835610
C9291	C929	0.520750	0.119250	0.664520
C9301	C930	0.496320	0.357890	0.861000
C9311	C931	0.514280	0.089550	0.661030
H4661	H466	0.508170	0.081020	0.639720
C9321	C932	0.490580	0.387930	0.860850
H4671	H467	0.491130	0.400360	0.881080
C9331	C933	0.515980	0.071210	0.686030
C9341	C934	0.484790	0.401540	0.833560
C9351	C935	0.514120	0.039640	0.682180
C9361	C936	0.483660	0.433210	0.830560
C9371	C937	0.511460	0.173100	0.569940
C9381	C938	0.514740	0.321860	0.962940
C9391	C939	0.513820	0.171720	0.601500
C9401	C940	0.514590	0.319380	0.931220
C9411	C941	0.513240	0.143880	0.615270
H4681	H468	0.506840	0.124290	0.603450
C9421	C942	0.506500	0.343540	0.913530
H4691	H469	0.502760	0.365080	0.922830
C9431	C943	0.520650	0.142340	0.644920
C9441	C944	0.503270	0.338930	0.883490
C9451	C945	0.528300	0.166930	0.660830
C9461	C946	0.507820	0.311840	0.870730
C9471	C947	0.529070	0.194610	0.647880
H4701	H470	0.534690	0.213980	0.660400
C9481	C948	0.516450	0.287760	0.887540
H4711	H471	0.520800	0.266620	0.877700
C9491	C949	0.521970	0.196860	0.618020
H4721	H472	0.522380	0.218380	0.607950
C9501	C950	0.519580	0.291630	0.917950
H4731	H473	0.526120	0.272950	0.931080
C9511	C951	0.531220	0.180150	0.713000
C9521	C952	0.509270	0.290680	0.820640
C9531	C953	0.552670	0.201640	0.717390
H4741	H474	0.571900	0.202300	0.703460
C9541	C954	0.526850	0.295950	0.795980
H4751	H475	0.536660	0.317320	0.792620
C9551	C955	0.549100	0.222720	0.739340
H4761	H476	0.566070	0.239060	0.742270
C9561	C956	0.531520	0.273910	0.775280
H4771	H477	0.544270	0.279110	0.755940
C9571	C957	0.523670	0.222930	0.756920
C9581	C958	0.519070	0.245910	0.779060
C9591	C959	0.506450	0.179430	0.731130
C9601	C960	0.502590	0.200730	0.752810
H4781	H478	0.482240	0.200230	0.767340
H4791	H479	0.489400	0.161380	0.728150
H4801	H480	0.492350	0.217740	0.807930
Cu471	Cu47	0.514980	0.989640	0.648700
Cu481	Cu48	0.516990	0.982410	0.702850
