data_OKUTAR_clean_PM
_symmetry_space_group_name_H-M	'P1'
_cell_length_a	36.160100
_cell_length_b	36.160100
_cell_length_c	36.160100
_cell_angle_alpha	90.000000
_cell_angle_beta	90.000000
_cell_angle_gamma	90.000000
_symmetry_Int_Tables_number 1

loop_
_symmetry_equiv_pos_as_xyz
'x,y,z'

loop_
_atom_site_label
_atom_site_type_symbol
_atom_site_fract_x
_atom_site_fract_y
_atom_site_fract_z
Cu11	Cu1	0.086240	0.673450	0.328730
Cu21	Cu2	0.061460	0.627780	0.374360
O11	O1	0.110190	0.634010	0.309520
O21	O2	0.092800	0.594290	0.352350
O31	O3	0.944880	0.206130	0.147110
O41	O4	0.969540	0.165100	0.109440
O51	O5	0.180580	0.362180	0.379080
O61	O6	0.143990	0.405120	0.402300
O71	O7	0.159560	0.199140	0.954710
O81	O8	0.115430	0.160860	0.972210
N11	N1	0.176050	0.481270	0.250060
N21	N2	0.088790	0.288960	0.087790
C11	C1	0.110830	0.601530	0.323020
C21	C2	0.968680	0.197650	0.122650
C31	C3	0.166300	0.394330	0.377450
C41	C4	0.133250	0.190880	0.976470
C51	C5	0.131440	0.571930	0.303680
C61	C6	0.141950	0.539360	0.322620
C71	C7	0.158470	0.511020	0.302250
C81	C8	0.163290	0.513490	0.264430
C91	C9	0.153190	0.545270	0.245090
C101	C10	0.137790	0.574800	0.265050
C111	C11	0.174090	0.417980	0.345190
C121	C12	0.165150	0.456100	0.345180
C131	C13	0.168890	0.475640	0.312020
C141	C14	0.179890	0.458560	0.279690
C151	C15	0.189140	0.421060	0.279240
C161	C16	0.186900	0.401100	0.312270
C171	C17	0.123280	0.216520	0.006480
C181	C18	0.089510	0.212280	0.025580
C191	C19	0.080420	0.238500	0.052210
C201	C20	0.103390	0.267730	0.060630
C211	C21	0.137360	0.272090	0.042910
C221	C22	0.147280	0.246110	0.015850
C231	C23	0.996770	0.225070	0.111270
C241	C24	0.021150	0.217230	0.081770
C251	C25	0.050540	0.241270	0.075550
C261	C26	0.056390	0.272340	0.096890
C271	C27	0.032320	0.281350	0.125680
C281	C28	0.002260	0.257610	0.132650
C291	C29	0.105440	0.320660	0.104650
C301	C30	0.116020	0.319500	0.141840
C311	C31	0.131700	0.350470	0.158620
C321	C32	0.137430	0.383250	0.138390
C331	C33	0.128250	0.383610	0.100520
C341	C34	0.112080	0.352640	0.083900
C351	C35	0.169210	0.467660	0.213340
C361	C36	0.132460	0.465090	0.201340
C371	C37	0.122580	0.439730	0.174030
C381	C38	0.149420	0.416670	0.157850
C391	C39	0.186850	0.422450	0.167000
C401	C40	0.196550	0.447380	0.194890
H11	H1	0.136830	0.536070	0.351920
H21	H2	0.156800	0.547190	0.215440
H31	H3	0.129380	0.599350	0.250100
H41	H4	0.154340	0.469550	0.369630
H51	H5	0.197150	0.407050	0.254110
H61	H6	0.193300	0.371860	0.311630
H71	H7	0.070630	0.189920	0.019300
H81	H8	0.155670	0.294810	0.049550
H91	H9	0.173650	0.249050	0.002190
H101	H10	0.018440	0.192280	0.065450
H111	H11	0.037050	0.305290	0.142970
H121	H12	0.984130	0.263910	0.155600
H131	H13	0.110890	0.294950	0.158170
H141	H14	0.137530	0.349170	0.187930
H151	H15	0.132780	0.408070	0.083910
H161	H16	0.110880	0.480060	0.215700
H171	H17	0.093500	0.436010	0.168140
H181	H18	0.208420	0.405930	0.154440
H191	H19	0.224900	0.448490	0.204320
H201	H20	0.104280	0.353410	0.053360
Cu31	Cu3	0.413760	0.326550	0.828730
Cu41	Cu4	0.438540	0.372220	0.874360
O91	O9	0.389810	0.365990	0.809520
O101	O10	0.407200	0.405710	0.852350
O111	O11	0.555120	0.793870	0.647110
O121	O12	0.530460	0.834900	0.609440
O131	O13	0.319420	0.637820	0.879080
O141	O14	0.356010	0.594880	0.902300
O151	O15	0.340440	0.800860	0.454710
O161	O16	0.384570	0.839140	0.472210
N31	N3	0.323950	0.518730	0.750060
N41	N4	0.411210	0.711040	0.587790
C411	C41	0.389170	0.398470	0.823020
C421	C42	0.531320	0.802350	0.622650
C431	C43	0.333700	0.605670	0.877450
C441	C44	0.366750	0.809120	0.476470
C451	C45	0.368560	0.428070	0.803680
C461	C46	0.358050	0.460640	0.822620
C471	C47	0.341530	0.488980	0.802250
C481	C48	0.336710	0.486510	0.764430
C491	C49	0.346810	0.454730	0.745090
C501	C50	0.362210	0.425200	0.765050
C511	C51	0.325910	0.582020	0.845190
C521	C52	0.334850	0.543900	0.845180
C531	C53	0.331110	0.524360	0.812020
C541	C54	0.320110	0.541440	0.779690
C551	C55	0.310860	0.578940	0.779240
C561	C56	0.313100	0.598900	0.812270
C571	C57	0.376720	0.783480	0.506480
C581	C58	0.410490	0.787720	0.525580
C591	C59	0.419580	0.761500	0.552210
C601	C60	0.396610	0.732270	0.560630
C611	C61	0.362640	0.727910	0.542910
C621	C62	0.352720	0.753890	0.515850
C631	C63	0.503230	0.774930	0.611270
C641	C64	0.478850	0.782770	0.581770
C651	C65	0.449460	0.758730	0.575550
C661	C66	0.443610	0.727660	0.596890
C671	C67	0.467680	0.718650	0.625680
C681	C68	0.497740	0.742390	0.632650
C691	C69	0.394560	0.679340	0.604650
C701	C70	0.383980	0.680500	0.641840
C711	C71	0.368300	0.649530	0.658620
C721	C72	0.362570	0.616750	0.638390
C731	C73	0.371750	0.616390	0.600520
C741	C74	0.387920	0.647360	0.583900
C751	C75	0.330790	0.532340	0.713340
C761	C76	0.367540	0.534910	0.701340
C771	C77	0.377420	0.560270	0.674030
C781	C78	0.350580	0.583330	0.657850
C791	C79	0.313150	0.577550	0.667000
C801	C80	0.303450	0.552620	0.694890
H211	H21	0.363170	0.463930	0.851920
H221	H22	0.343200	0.452810	0.715440
H231	H23	0.370620	0.400650	0.750100
H241	H24	0.345660	0.530450	0.869630
H251	H25	0.302850	0.592950	0.754110
H261	H26	0.306700	0.628140	0.811630
H271	H27	0.429370	0.810080	0.519300
H281	H28	0.344330	0.705190	0.549550
H291	H29	0.326350	0.750950	0.502190
H301	H30	0.481560	0.807720	0.565450
H311	H31	0.462950	0.694710	0.642970
H321	H32	0.515870	0.736090	0.655600
H331	H33	0.389110	0.705050	0.658170
H341	H34	0.362470	0.650830	0.687930
H351	H35	0.367220	0.591930	0.583910
H361	H36	0.389120	0.519940	0.715700
H371	H37	0.406500	0.563990	0.668140
H381	H38	0.291580	0.594070	0.654440
H391	H39	0.275100	0.551510	0.704320
H401	H40	0.395720	0.646590	0.553360
Cu51	Cu5	0.913760	0.173450	0.171270
Cu61	Cu6	0.938540	0.127780	0.125640
O171	O17	0.889810	0.134010	0.190480
O181	O18	0.907200	0.094290	0.147650
O191	O19	0.055120	0.706130	0.352890
O201	O20	0.030460	0.665100	0.390560
O211	O21	0.819420	0.862180	0.120920
O221	O22	0.856010	0.905120	0.097700
O231	O23	0.840440	0.699140	0.545290
O241	O24	0.884570	0.660860	0.527790
N51	N5	0.823950	0.981270	0.249940
N61	N6	0.911210	0.788960	0.412210
C811	C81	0.889170	0.101530	0.176980
C821	C82	0.031320	0.697650	0.377350
C831	C83	0.833700	0.894330	0.122550
C841	C84	0.866750	0.690880	0.523530
C851	C85	0.868560	0.071930	0.196320
C861	C86	0.858050	0.039360	0.177380
C871	C87	0.841530	0.011020	0.197750
C881	C88	0.836710	0.013490	0.235570
C891	C89	0.846810	0.045270	0.254910
C901	C90	0.862210	0.074800	0.234950
C911	C91	0.825910	0.917980	0.154810
C921	C92	0.834850	0.956100	0.154820
C931	C93	0.831110	0.975640	0.187980
C941	C94	0.820110	0.958560	0.220310
C951	C95	0.810860	0.921060	0.220760
C961	C96	0.813100	0.901100	0.187730
C971	C97	0.876720	0.716520	0.493520
C981	C98	0.910490	0.712280	0.474420
C991	C99	0.919580	0.738500	0.447790
C1001	C100	0.896610	0.767730	0.439370
C1011	C101	0.862640	0.772090	0.457090
C1021	C102	0.852720	0.746110	0.484150
C1031	C103	0.003230	0.725070	0.388730
C1041	C104	0.978850	0.717230	0.418230
C1051	C105	0.949460	0.741270	0.424450
C1061	C106	0.943610	0.772340	0.403110
C1071	C107	0.967680	0.781350	0.374320
C1081	C108	0.997740	0.757610	0.367350
C1091	C109	0.894560	0.820660	0.395350
C1101	C110	0.883980	0.819500	0.358160
C1111	C111	0.868300	0.850470	0.341380
C1121	C112	0.862570	0.883250	0.361610
C1131	C113	0.871750	0.883610	0.399480
C1141	C114	0.887920	0.852640	0.416100
C1151	C115	0.830790	0.967660	0.286660
C1161	C116	0.867540	0.965090	0.298660
C1171	C117	0.877420	0.939730	0.325970
C1181	C118	0.850580	0.916670	0.342150
C1191	C119	0.813150	0.922450	0.333000
C1201	C120	0.803450	0.947380	0.305110
H411	H41	0.863170	0.036070	0.148080
H421	H42	0.843200	0.047190	0.284560
H431	H43	0.870620	0.099350	0.249900
H441	H44	0.845660	0.969550	0.130370
H451	H45	0.802850	0.907050	0.245890
H461	H46	0.806700	0.871860	0.188370
H471	H47	0.929370	0.689920	0.480700
H481	H48	0.844330	0.794810	0.450450
H491	H49	0.826350	0.749050	0.497810
H501	H50	0.981560	0.692280	0.434550
H511	H51	0.962950	0.805290	0.357030
H521	H52	0.015870	0.763910	0.344400
H531	H53	0.889110	0.794950	0.341830
H541	H54	0.862470	0.849170	0.312070
H551	H55	0.867220	0.908070	0.416090
H561	H56	0.889120	0.980060	0.284300
H571	H57	0.906500	0.936010	0.331860
H581	H58	0.791580	0.905930	0.345560
H591	H59	0.775100	0.948490	0.295680
H601	H60	0.895720	0.853410	0.446640
Cu71	Cu7	0.586240	0.826550	0.671270
Cu81	Cu8	0.561460	0.872220	0.625640
O251	O25	0.610190	0.865990	0.690480
O261	O26	0.592800	0.905710	0.647650
O271	O27	0.444880	0.293870	0.852890
O281	O28	0.469540	0.334900	0.890560
O291	O29	0.680580	0.137820	0.620920
O301	O30	0.643990	0.094880	0.597700
O311	O31	0.659560	0.300860	0.045290
O321	O32	0.615430	0.339140	0.027790
N71	N7	0.676050	0.018730	0.749940
N81	N8	0.588790	0.211040	0.912210
C1211	C121	0.610830	0.898470	0.676980
C1221	C122	0.468680	0.302350	0.877350
C1231	C123	0.666300	0.105670	0.622550
C1241	C124	0.633250	0.309120	0.023530
C1251	C125	0.631440	0.928070	0.696320
C1261	C126	0.641950	0.960640	0.677380
C1271	C127	0.658470	0.988980	0.697750
C1281	C128	0.663290	0.986510	0.735570
C1291	C129	0.653190	0.954730	0.754910
C1301	C130	0.637790	0.925200	0.734950
C1311	C131	0.674090	0.082020	0.654810
C1321	C132	0.665150	0.043900	0.654820
C1331	C133	0.668890	0.024360	0.687980
C1341	C134	0.679890	0.041440	0.720310
C1351	C135	0.689140	0.078940	0.720760
C1361	C136	0.686900	0.098900	0.687730
C1371	C137	0.623280	0.283480	0.993520
C1381	C138	0.589510	0.287720	0.974420
C1391	C139	0.580420	0.261500	0.947790
C1401	C140	0.603390	0.232270	0.939370
C1411	C141	0.637360	0.227910	0.957090
C1421	C142	0.647280	0.253890	0.984150
C1431	C143	0.496770	0.274930	0.888730
C1441	C144	0.521150	0.282770	0.918230
C1451	C145	0.550540	0.258730	0.924450
C1461	C146	0.556390	0.227660	0.903110
C1471	C147	0.532320	0.218650	0.874320
C1481	C148	0.502260	0.242390	0.867350
C1491	C149	0.605440	0.179340	0.895350
C1501	C150	0.616020	0.180500	0.858160
C1511	C151	0.631700	0.149530	0.841380
C1521	C152	0.637430	0.116750	0.861610
C1531	C153	0.628250	0.116390	0.899480
C1541	C154	0.612080	0.147360	0.916100
C1551	C155	0.669210	0.032340	0.786660
C1561	C156	0.632460	0.034910	0.798660
C1571	C157	0.622580	0.060270	0.825970
C1581	C158	0.649420	0.083330	0.842150
C1591	C159	0.686850	0.077550	0.833000
C1601	C160	0.696550	0.052620	0.805110
H611	H61	0.636830	0.963930	0.648080
H621	H62	0.656800	0.952810	0.784560
H631	H63	0.629380	0.900650	0.749900
H641	H64	0.654340	0.030450	0.630370
H651	H65	0.697150	0.092950	0.745890
H661	H66	0.693300	0.128140	0.688370
H671	H67	0.570630	0.310080	0.980700
H681	H68	0.655670	0.205190	0.950450
H691	H69	0.673650	0.250950	0.997810
H701	H70	0.518440	0.307720	0.934550
H711	H71	0.537050	0.194710	0.857030
H721	H72	0.484130	0.236090	0.844400
H731	H73	0.610890	0.205050	0.841830
H741	H74	0.637530	0.150830	0.812070
H751	H75	0.632780	0.091930	0.916090
H761	H76	0.610880	0.019940	0.784300
H771	H77	0.593500	0.063990	0.831860
H781	H78	0.708420	0.094070	0.845560
H791	H79	0.724900	0.051510	0.795680
H801	H80	0.604280	0.146590	0.946640
Cu91	Cu9	0.328730	0.086240	0.673450
Cu101	Cu10	0.374360	0.061460	0.627780
O331	O33	0.309520	0.110190	0.634010
O341	O34	0.352350	0.092800	0.594290
O351	O35	0.147110	0.944880	0.206130
O361	O36	0.109440	0.969540	0.165100
O371	O37	0.379080	0.180580	0.362180
O381	O38	0.402300	0.143990	0.405120
O391	O39	0.954710	0.159560	0.199140
O401	O40	0.972210	0.115430	0.160860
N91	N9	0.250060	0.176050	0.481270
N101	N10	0.087790	0.088790	0.288960
C1611	C161	0.323020	0.110830	0.601530
C1621	C162	0.122650	0.968680	0.197650
C1631	C163	0.377450	0.166300	0.394330
C1641	C164	0.976470	0.133250	0.190880
C1651	C165	0.303680	0.131440	0.571930
C1661	C166	0.322620	0.141950	0.539360
C1671	C167	0.302250	0.158470	0.511020
C1681	C168	0.264430	0.163290	0.513490
C1691	C169	0.245090	0.153190	0.545270
C1701	C170	0.265050	0.137790	0.574800
C1711	C171	0.345190	0.174090	0.417980
C1721	C172	0.345180	0.165150	0.456100
C1731	C173	0.312020	0.168890	0.475640
C1741	C174	0.279690	0.179890	0.458560
C1751	C175	0.279240	0.189140	0.421060
C1761	C176	0.312270	0.186900	0.401100
C1771	C177	0.006480	0.123280	0.216520
C1781	C178	0.025580	0.089510	0.212280
C1791	C179	0.052210	0.080420	0.238500
C1801	C180	0.060630	0.103390	0.267730
C1811	C181	0.042910	0.137360	0.272090
C1821	C182	0.015850	0.147280	0.246110
C1831	C183	0.111270	0.996770	0.225070
C1841	C184	0.081770	0.021150	0.217230
C1851	C185	0.075550	0.050540	0.241270
C1861	C186	0.096890	0.056390	0.272340
C1871	C187	0.125680	0.032320	0.281350
C1881	C188	0.132650	0.002260	0.257610
C1891	C189	0.104650	0.105440	0.320660
C1901	C190	0.141840	0.116020	0.319500
C1911	C191	0.158620	0.131700	0.350470
C1921	C192	0.138390	0.137430	0.383250
C1931	C193	0.100520	0.128250	0.383610
C1941	C194	0.083900	0.112080	0.352640
C1951	C195	0.213340	0.169210	0.467660
C1961	C196	0.201340	0.132460	0.465090
C1971	C197	0.174030	0.122580	0.439730
C1981	C198	0.157850	0.149420	0.416670
C1991	C199	0.167000	0.186850	0.422450
C2001	C200	0.194890	0.196550	0.447380
H811	H81	0.351920	0.136830	0.536070
H821	H82	0.215440	0.156800	0.547190
H831	H83	0.250100	0.129380	0.599350
H841	H84	0.369630	0.154340	0.469550
H851	H85	0.254110	0.197150	0.407050
H861	H86	0.311630	0.193300	0.371860
H871	H87	0.019300	0.070630	0.189920
H881	H88	0.049550	0.155670	0.294810
H891	H89	0.002190	0.173650	0.249050
H901	H90	0.065450	0.018440	0.192280
H911	H91	0.142970	0.037050	0.305290
H921	H92	0.155600	0.984130	0.263910
H931	H93	0.158170	0.110890	0.294950
H941	H94	0.187930	0.137530	0.349170
H951	H95	0.083910	0.132780	0.408070
H961	H96	0.215700	0.110880	0.480060
H971	H97	0.168140	0.093500	0.436010
H981	H98	0.154440	0.208420	0.405930
H991	H99	0.204320	0.224900	0.448490
H1001	H100	0.053360	0.104280	0.353410
Cu111	Cu11	0.828730	0.413760	0.326550
Cu121	Cu12	0.874360	0.438540	0.372220
O411	O41	0.809520	0.389810	0.365990
O421	O42	0.852350	0.407200	0.405710
O431	O43	0.647110	0.555120	0.793870
O441	O44	0.609440	0.530460	0.834900
O451	O45	0.879080	0.319420	0.637820
O461	O46	0.902300	0.356010	0.594880
O471	O47	0.454710	0.340440	0.800860
O481	O48	0.472210	0.384570	0.839140
N111	N11	0.750060	0.323950	0.518730
N121	N12	0.587790	0.411210	0.711040
C2011	C201	0.823020	0.389170	0.398470
C2021	C202	0.622650	0.531320	0.802350
C2031	C203	0.877450	0.333700	0.605670
C2041	C204	0.476470	0.366750	0.809120
C2051	C205	0.803680	0.368560	0.428070
C2061	C206	0.822620	0.358050	0.460640
C2071	C207	0.802250	0.341530	0.488980
C2081	C208	0.764430	0.336710	0.486510
C2091	C209	0.745090	0.346810	0.454730
C2101	C210	0.765050	0.362210	0.425200
C2111	C211	0.845190	0.325910	0.582020
C2121	C212	0.845180	0.334850	0.543900
C2131	C213	0.812020	0.331110	0.524360
C2141	C214	0.779690	0.320110	0.541440
C2151	C215	0.779240	0.310860	0.578940
C2161	C216	0.812270	0.313100	0.598900
C2171	C217	0.506480	0.376720	0.783480
C2181	C218	0.525580	0.410490	0.787720
C2191	C219	0.552210	0.419580	0.761500
C2201	C220	0.560630	0.396610	0.732270
C2211	C221	0.542910	0.362640	0.727910
C2221	C222	0.515850	0.352720	0.753890
C2231	C223	0.611270	0.503230	0.774930
C2241	C224	0.581770	0.478850	0.782770
C2251	C225	0.575550	0.449460	0.758730
C2261	C226	0.596890	0.443610	0.727660
C2271	C227	0.625680	0.467680	0.718650
C2281	C228	0.632650	0.497740	0.742390
C2291	C229	0.604650	0.394560	0.679340
C2301	C230	0.641840	0.383980	0.680500
C2311	C231	0.658620	0.368300	0.649530
C2321	C232	0.638390	0.362570	0.616750
C2331	C233	0.600520	0.371750	0.616390
C2341	C234	0.583900	0.387920	0.647360
C2351	C235	0.713340	0.330790	0.532340
C2361	C236	0.701340	0.367540	0.534910
C2371	C237	0.674030	0.377420	0.560270
C2381	C238	0.657850	0.350580	0.583330
C2391	C239	0.667000	0.313150	0.577550
C2401	C240	0.694890	0.303450	0.552620
H1011	H101	0.851920	0.363170	0.463930
H1021	H102	0.715440	0.343200	0.452810
H1031	H103	0.750100	0.370620	0.400650
H1041	H104	0.869630	0.345660	0.530450
H1051	H105	0.754110	0.302850	0.592950
H1061	H106	0.811630	0.306700	0.628140
H1071	H107	0.519300	0.429370	0.810080
H1081	H108	0.549550	0.344330	0.705190
H1091	H109	0.502190	0.326350	0.750950
H1101	H110	0.565450	0.481560	0.807720
H1111	H111	0.642970	0.462950	0.694710
H1121	H112	0.655600	0.515870	0.736090
H1131	H113	0.658170	0.389110	0.705050
H1141	H114	0.687930	0.362470	0.650830
H1151	H115	0.583910	0.367220	0.591930
H1161	H116	0.715700	0.389120	0.519940
H1171	H117	0.668140	0.406500	0.563990
H1181	H118	0.654440	0.291580	0.594070
H1191	H119	0.704320	0.275100	0.551510
H1201	H120	0.553360	0.395720	0.646590
Cu131	Cu13	0.171270	0.913760	0.173450
Cu141	Cu14	0.125640	0.938540	0.127780
O491	O49	0.190480	0.889810	0.134010
O501	O50	0.147650	0.907200	0.094290
O511	O51	0.352890	0.055120	0.706130
O521	O52	0.390560	0.030460	0.665100
O531	O53	0.120920	0.819420	0.862180
O541	O54	0.097700	0.856010	0.905120
O551	O55	0.545290	0.840440	0.699140
O561	O56	0.527790	0.884570	0.660860
N131	N13	0.249940	0.823950	0.981270
N141	N14	0.412210	0.911210	0.788960
C2411	C241	0.176980	0.889170	0.101530
C2421	C242	0.377350	0.031320	0.697650
C2431	C243	0.122550	0.833700	0.894330
C2441	C244	0.523530	0.866750	0.690880
C2451	C245	0.196320	0.868560	0.071930
C2461	C246	0.177380	0.858050	0.039360
C2471	C247	0.197750	0.841530	0.011020
C2481	C248	0.235570	0.836710	0.013490
C2491	C249	0.254910	0.846810	0.045270
C2501	C250	0.234950	0.862210	0.074800
C2511	C251	0.154810	0.825910	0.917980
C2521	C252	0.154820	0.834850	0.956100
C2531	C253	0.187980	0.831110	0.975640
C2541	C254	0.220310	0.820110	0.958560
C2551	C255	0.220760	0.810860	0.921060
C2561	C256	0.187730	0.813100	0.901100
C2571	C257	0.493520	0.876720	0.716520
C2581	C258	0.474420	0.910490	0.712280
C2591	C259	0.447790	0.919580	0.738500
C2601	C260	0.439370	0.896610	0.767730
C2611	C261	0.457090	0.862640	0.772090
C2621	C262	0.484150	0.852720	0.746110
C2631	C263	0.388730	0.003230	0.725070
C2641	C264	0.418230	0.978850	0.717230
C2651	C265	0.424450	0.949460	0.741270
C2661	C266	0.403110	0.943610	0.772340
C2671	C267	0.374320	0.967680	0.781350
C2681	C268	0.367350	0.997740	0.757610
C2691	C269	0.395350	0.894560	0.820660
C2701	C270	0.358160	0.883980	0.819500
C2711	C271	0.341380	0.868300	0.850470
C2721	C272	0.361610	0.862570	0.883250
C2731	C273	0.399480	0.871750	0.883610
C2741	C274	0.416100	0.887920	0.852640
C2751	C275	0.286660	0.830790	0.967660
C2761	C276	0.298660	0.867540	0.965090
C2771	C277	0.325970	0.877420	0.939730
C2781	C278	0.342150	0.850580	0.916670
C2791	C279	0.333000	0.813150	0.922450
C2801	C280	0.305110	0.803450	0.947380
H1211	H121	0.148080	0.863170	0.036070
H1221	H122	0.284560	0.843200	0.047190
H1231	H123	0.249900	0.870620	0.099350
H1241	H124	0.130370	0.845660	0.969550
H1251	H125	0.245890	0.802850	0.907050
H1261	H126	0.188370	0.806700	0.871860
H1271	H127	0.480700	0.929370	0.689920
H1281	H128	0.450450	0.844330	0.794810
H1291	H129	0.497810	0.826350	0.749050
H1301	H130	0.434550	0.981560	0.692280
H1311	H131	0.357030	0.962950	0.805290
H1321	H132	0.344400	0.015870	0.763910
H1331	H133	0.341830	0.889110	0.794950
H1341	H134	0.312070	0.862470	0.849170
H1351	H135	0.416090	0.867220	0.908070
H1361	H136	0.284300	0.889120	0.980060
H1371	H137	0.331860	0.906500	0.936010
H1381	H138	0.345560	0.791580	0.905930
H1391	H139	0.295680	0.775100	0.948490
H1401	H140	0.446640	0.895720	0.853410
Cu151	Cu15	0.671270	0.586240	0.826550
Cu161	Cu16	0.625640	0.561460	0.872220
O571	O57	0.690480	0.610190	0.865990
O581	O58	0.647650	0.592800	0.905710
O591	O59	0.852890	0.444880	0.293870
O601	O60	0.890560	0.469540	0.334900
O611	O61	0.620920	0.680580	0.137820
O621	O62	0.597700	0.643990	0.094880
O631	O63	0.045290	0.659560	0.300860
O641	O64	0.027790	0.615430	0.339140
N151	N15	0.749940	0.676050	0.018730
N161	N16	0.912210	0.588790	0.211040
C2811	C281	0.676980	0.610830	0.898470
C2821	C282	0.877350	0.468680	0.302350
C2831	C283	0.622550	0.666300	0.105670
C2841	C284	0.023530	0.633250	0.309120
C2851	C285	0.696320	0.631440	0.928070
C2861	C286	0.677380	0.641950	0.960640
C2871	C287	0.697750	0.658470	0.988980
C2881	C288	0.735570	0.663290	0.986510
C2891	C289	0.754910	0.653190	0.954730
C2901	C290	0.734950	0.637790	0.925200
C2911	C291	0.654810	0.674090	0.082020
C2921	C292	0.654820	0.665150	0.043900
C2931	C293	0.687980	0.668890	0.024360
C2941	C294	0.720310	0.679890	0.041440
C2951	C295	0.720760	0.689140	0.078940
C2961	C296	0.687730	0.686900	0.098900
C2971	C297	0.993520	0.623280	0.283480
C2981	C298	0.974420	0.589510	0.287720
C2991	C299	0.947790	0.580420	0.261500
C3001	C300	0.939370	0.603390	0.232270
C3011	C301	0.957090	0.637360	0.227910
C3021	C302	0.984150	0.647280	0.253890
C3031	C303	0.888730	0.496770	0.274930
C3041	C304	0.918230	0.521150	0.282770
C3051	C305	0.924450	0.550540	0.258730
C3061	C306	0.903110	0.556390	0.227660
C3071	C307	0.874320	0.532320	0.218650
C3081	C308	0.867350	0.502260	0.242390
C3091	C309	0.895350	0.605440	0.179340
C3101	C310	0.858160	0.616020	0.180500
C3111	C311	0.841380	0.631700	0.149530
C3121	C312	0.861610	0.637430	0.116750
C3131	C313	0.899480	0.628250	0.116390
C3141	C314	0.916100	0.612080	0.147360
C3151	C315	0.786660	0.669210	0.032340
C3161	C316	0.798660	0.632460	0.034910
C3171	C317	0.825970	0.622580	0.060270
C3181	C318	0.842150	0.649420	0.083330
C3191	C319	0.833000	0.686850	0.077550
C3201	C320	0.805110	0.696550	0.052620
H1411	H141	0.648080	0.636830	0.963930
H1421	H142	0.784560	0.656800	0.952810
H1431	H143	0.749900	0.629380	0.900650
H1441	H144	0.630370	0.654340	0.030450
H1451	H145	0.745890	0.697150	0.092950
H1461	H146	0.688370	0.693300	0.128140
H1471	H147	0.980700	0.570630	0.310080
H1481	H148	0.950450	0.655670	0.205190
H1491	H149	0.997810	0.673650	0.250950
H1501	H150	0.934550	0.518440	0.307720
H1511	H151	0.857030	0.537050	0.194710
H1521	H152	0.844400	0.484130	0.236090
H1531	H153	0.841830	0.610890	0.205050
H1541	H154	0.812070	0.637530	0.150830
H1551	H155	0.916090	0.632780	0.091930
H1561	H156	0.784300	0.610880	0.019940
H1571	H157	0.831860	0.593500	0.063990
H1581	H158	0.845560	0.708420	0.094070
H1591	H159	0.795680	0.724900	0.051510
H1601	H160	0.946640	0.604280	0.146590
Cu171	Cu17	0.673450	0.328730	0.086240
Cu181	Cu18	0.627780	0.374360	0.061460
O651	O65	0.634010	0.309520	0.110190
O661	O66	0.594290	0.352350	0.092800
O671	O67	0.206130	0.147110	0.944880
O681	O68	0.165100	0.109440	0.969540
O691	O69	0.362180	0.379080	0.180580
O701	O70	0.405120	0.402300	0.143990
O711	O71	0.199140	0.954710	0.159560
O721	O72	0.160860	0.972210	0.115430
N171	N17	0.481270	0.250060	0.176050
N181	N18	0.288960	0.087790	0.088790
C3211	C321	0.601530	0.323020	0.110830
C3221	C322	0.197650	0.122650	0.968680
C3231	C323	0.394330	0.377450	0.166300
C3241	C324	0.190880	0.976470	0.133250
C3251	C325	0.571930	0.303680	0.131440
C3261	C326	0.539360	0.322620	0.141950
C3271	C327	0.511020	0.302250	0.158470
C3281	C328	0.513490	0.264430	0.163290
C3291	C329	0.545270	0.245090	0.153190
C3301	C330	0.574800	0.265050	0.137790
C3311	C331	0.417980	0.345190	0.174090
C3321	C332	0.456100	0.345180	0.165150
C3331	C333	0.475640	0.312020	0.168890
C3341	C334	0.458560	0.279690	0.179890
C3351	C335	0.421060	0.279240	0.189140
C3361	C336	0.401100	0.312270	0.186900
C3371	C337	0.216520	0.006480	0.123280
C3381	C338	0.212280	0.025580	0.089510
C3391	C339	0.238500	0.052210	0.080420
C3401	C340	0.267730	0.060630	0.103390
C3411	C341	0.272090	0.042910	0.137360
C3421	C342	0.246110	0.015850	0.147280
C3431	C343	0.225070	0.111270	0.996770
C3441	C344	0.217230	0.081770	0.021150
C3451	C345	0.241270	0.075550	0.050540
C3461	C346	0.272340	0.096890	0.056390
C3471	C347	0.281350	0.125680	0.032320
C3481	C348	0.257610	0.132650	0.002260
C3491	C349	0.320660	0.104650	0.105440
C3501	C350	0.319500	0.141840	0.116020
C3511	C351	0.350470	0.158620	0.131700
C3521	C352	0.383250	0.138390	0.137430
C3531	C353	0.383610	0.100520	0.128250
C3541	C354	0.352640	0.083900	0.112080
C3551	C355	0.467660	0.213340	0.169210
C3561	C356	0.465090	0.201340	0.132460
C3571	C357	0.439730	0.174030	0.122580
C3581	C358	0.416670	0.157850	0.149420
C3591	C359	0.422450	0.167000	0.186850
C3601	C360	0.447380	0.194890	0.196550
H1611	H161	0.536070	0.351920	0.136830
H1621	H162	0.547190	0.215440	0.156800
H1631	H163	0.599350	0.250100	0.129380
H1641	H164	0.469550	0.369630	0.154340
H1651	H165	0.407050	0.254110	0.197150
H1661	H166	0.371860	0.311630	0.193300
H1671	H167	0.189920	0.019300	0.070630
H1681	H168	0.294810	0.049550	0.155670
H1691	H169	0.249050	0.002190	0.173650
H1701	H170	0.192280	0.065450	0.018440
H1711	H171	0.305290	0.142970	0.037050
H1721	H172	0.263910	0.155600	0.984130
H1731	H173	0.294950	0.158170	0.110890
H1741	H174	0.349170	0.187930	0.137530
H1751	H175	0.408070	0.083910	0.132780
H1761	H176	0.480060	0.215700	0.110880
H1771	H177	0.436010	0.168140	0.093500
H1781	H178	0.405930	0.154440	0.208420
H1791	H179	0.448490	0.204320	0.224900
H1801	H180	0.353410	0.053360	0.104280
Cu191	Cu19	0.326550	0.828730	0.413760
Cu201	Cu20	0.372220	0.874360	0.438540
O731	O73	0.365990	0.809520	0.389810
O741	O74	0.405710	0.852350	0.407200
O751	O75	0.793870	0.647110	0.555120
O761	O76	0.834900	0.609440	0.530460
O771	O77	0.637820	0.879080	0.319420
O781	O78	0.594880	0.902300	0.356010
O791	O79	0.800860	0.454710	0.340440
O801	O80	0.839140	0.472210	0.384570
N191	N19	0.518730	0.750060	0.323950
N201	N20	0.711040	0.587790	0.411210
C3611	C361	0.398470	0.823020	0.389170
C3621	C362	0.802350	0.622650	0.531320
C3631	C363	0.605670	0.877450	0.333700
C3641	C364	0.809120	0.476470	0.366750
C3651	C365	0.428070	0.803680	0.368560
C3661	C366	0.460640	0.822620	0.358050
C3671	C367	0.488980	0.802250	0.341530
C3681	C368	0.486510	0.764430	0.336710
C3691	C369	0.454730	0.745090	0.346810
C3701	C370	0.425200	0.765050	0.362210
C3711	C371	0.582020	0.845190	0.325910
C3721	C372	0.543900	0.845180	0.334850
C3731	C373	0.524360	0.812020	0.331110
C3741	C374	0.541440	0.779690	0.320110
C3751	C375	0.578940	0.779240	0.310860
C3761	C376	0.598900	0.812270	0.313100
C3771	C377	0.783480	0.506480	0.376720
C3781	C378	0.787720	0.525580	0.410490
C3791	C379	0.761500	0.552210	0.419580
C3801	C380	0.732270	0.560630	0.396610
C3811	C381	0.727910	0.542910	0.362640
C3821	C382	0.753890	0.515850	0.352720
C3831	C383	0.774930	0.611270	0.503230
C3841	C384	0.782770	0.581770	0.478850
C3851	C385	0.758730	0.575550	0.449460
C3861	C386	0.727660	0.596890	0.443610
C3871	C387	0.718650	0.625680	0.467680
C3881	C388	0.742390	0.632650	0.497740
C3891	C389	0.679340	0.604650	0.394560
C3901	C390	0.680500	0.641840	0.383980
C3911	C391	0.649530	0.658620	0.368300
C3921	C392	0.616750	0.638390	0.362570
C3931	C393	0.616390	0.600520	0.371750
C3941	C394	0.647360	0.583900	0.387920
C3951	C395	0.532340	0.713340	0.330790
C3961	C396	0.534910	0.701340	0.367540
C3971	C397	0.560270	0.674030	0.377420
C3981	C398	0.583330	0.657850	0.350580
C3991	C399	0.577550	0.667000	0.313150
C4001	C400	0.552620	0.694890	0.303450
H1811	H181	0.463930	0.851920	0.363170
H1821	H182	0.452810	0.715440	0.343200
H1831	H183	0.400650	0.750100	0.370620
H1841	H184	0.530450	0.869630	0.345660
H1851	H185	0.592950	0.754110	0.302850
H1861	H186	0.628140	0.811630	0.306700
H1871	H187	0.810080	0.519300	0.429370
H1881	H188	0.705190	0.549550	0.344330
H1891	H189	0.750950	0.502190	0.326350
H1901	H190	0.807720	0.565450	0.481560
H1911	H191	0.694710	0.642970	0.462950
H1921	H192	0.736090	0.655600	0.515870
H1931	H193	0.705050	0.658170	0.389110
H1941	H194	0.650830	0.687930	0.362470
H1951	H195	0.591930	0.583910	0.367220
H1961	H196	0.519940	0.715700	0.389120
H1971	H197	0.563990	0.668140	0.406500
H1981	H198	0.594070	0.654440	0.291580
H1991	H199	0.551510	0.704320	0.275100
H2001	H200	0.646590	0.553360	0.395720
Cu211	Cu21	0.173450	0.171270	0.913760
Cu221	Cu22	0.127780	0.125640	0.938540
O811	O81	0.134010	0.190480	0.889810
O821	O82	0.094290	0.147650	0.907200
O831	O83	0.706130	0.352890	0.055120
O841	O84	0.665100	0.390560	0.030460
O851	O85	0.862180	0.120920	0.819420
O861	O86	0.905120	0.097700	0.856010
O871	O87	0.699140	0.545290	0.840440
O881	O88	0.660860	0.527790	0.884570
N211	N21	0.981270	0.249940	0.823950
N221	N22	0.788960	0.412210	0.911210
C4011	C401	0.101530	0.176980	0.889170
C4021	C402	0.697650	0.377350	0.031320
C4031	C403	0.894330	0.122550	0.833700
C4041	C404	0.690880	0.523530	0.866750
C4051	C405	0.071930	0.196320	0.868560
C4061	C406	0.039360	0.177380	0.858050
C4071	C407	0.011020	0.197750	0.841530
C4081	C408	0.013490	0.235570	0.836710
C4091	C409	0.045270	0.254910	0.846810
C4101	C410	0.074800	0.234950	0.862210
C4111	C411	0.917980	0.154810	0.825910
C4121	C412	0.956100	0.154820	0.834850
C4131	C413	0.975640	0.187980	0.831110
C4141	C414	0.958560	0.220310	0.820110
C4151	C415	0.921060	0.220760	0.810860
C4161	C416	0.901100	0.187730	0.813100
C4171	C417	0.716520	0.493520	0.876720
C4181	C418	0.712280	0.474420	0.910490
C4191	C419	0.738500	0.447790	0.919580
C4201	C420	0.767730	0.439370	0.896610
C4211	C421	0.772090	0.457090	0.862640
C4221	C422	0.746110	0.484150	0.852720
C4231	C423	0.725070	0.388730	0.003230
C4241	C424	0.717230	0.418230	0.978850
C4251	C425	0.741270	0.424450	0.949460
C4261	C426	0.772340	0.403110	0.943610
C4271	C427	0.781350	0.374320	0.967680
C4281	C428	0.757610	0.367350	0.997740
C4291	C429	0.820660	0.395350	0.894560
C4301	C430	0.819500	0.358160	0.883980
C4311	C431	0.850470	0.341380	0.868300
C4321	C432	0.883250	0.361610	0.862570
C4331	C433	0.883610	0.399480	0.871750
C4341	C434	0.852640	0.416100	0.887920
C4351	C435	0.967660	0.286660	0.830790
C4361	C436	0.965090	0.298660	0.867540
C4371	C437	0.939730	0.325970	0.877420
C4381	C438	0.916670	0.342150	0.850580
C4391	C439	0.922450	0.333000	0.813150
C4401	C440	0.947380	0.305110	0.803450
H2011	H201	0.036070	0.148080	0.863170
H2021	H202	0.047190	0.284560	0.843200
H2031	H203	0.099350	0.249900	0.870620
H2041	H204	0.969550	0.130370	0.845660
H2051	H205	0.907050	0.245890	0.802850
H2061	H206	0.871860	0.188370	0.806700
H2071	H207	0.689920	0.480700	0.929370
H2081	H208	0.794810	0.450450	0.844330
H2091	H209	0.749050	0.497810	0.826350
H2101	H210	0.692280	0.434550	0.981560
H2111	H211	0.805290	0.357030	0.962950
H2121	H212	0.763910	0.344400	0.015870
H2131	H213	0.794950	0.341830	0.889110
H2141	H214	0.849170	0.312070	0.862470
H2151	H215	0.908070	0.416090	0.867220
H2161	H216	0.980060	0.284300	0.889120
H2171	H217	0.936010	0.331860	0.906500
H2181	H218	0.905930	0.345560	0.791580
H2191	H219	0.948490	0.295680	0.775100
H2201	H220	0.853410	0.446640	0.895720
Cu231	Cu23	0.826550	0.671270	0.586240
Cu241	Cu24	0.872220	0.625640	0.561460
O891	O89	0.865990	0.690480	0.610190
O901	O90	0.905710	0.647650	0.592800
O911	O91	0.293870	0.852890	0.444880
O921	O92	0.334900	0.890560	0.469540
O931	O93	0.137820	0.620920	0.680580
O941	O94	0.094880	0.597700	0.643990
O951	O95	0.300860	0.045290	0.659560
O961	O96	0.339140	0.027790	0.615430
N231	N23	0.018730	0.749940	0.676050
N241	N24	0.211040	0.912210	0.588790
C4411	C441	0.898470	0.676980	0.610830
C4421	C442	0.302350	0.877350	0.468680
C4431	C443	0.105670	0.622550	0.666300
C4441	C444	0.309120	0.023530	0.633250
C4451	C445	0.928070	0.696320	0.631440
C4461	C446	0.960640	0.677380	0.641950
C4471	C447	0.988980	0.697750	0.658470
C4481	C448	0.986510	0.735570	0.663290
C4491	C449	0.954730	0.754910	0.653190
C4501	C450	0.925200	0.734950	0.637790
C4511	C451	0.082020	0.654810	0.674090
C4521	C452	0.043900	0.654820	0.665150
C4531	C453	0.024360	0.687980	0.668890
C4541	C454	0.041440	0.720310	0.679890
C4551	C455	0.078940	0.720760	0.689140
C4561	C456	0.098900	0.687730	0.686900
C4571	C457	0.283480	0.993520	0.623280
C4581	C458	0.287720	0.974420	0.589510
C4591	C459	0.261500	0.947790	0.580420
C4601	C460	0.232270	0.939370	0.603390
C4611	C461	0.227910	0.957090	0.637360
C4621	C462	0.253890	0.984150	0.647280
C4631	C463	0.274930	0.888730	0.496770
C4641	C464	0.282770	0.918230	0.521150
C4651	C465	0.258730	0.924450	0.550540
C4661	C466	0.227660	0.903110	0.556390
C4671	C467	0.218650	0.874320	0.532320
C4681	C468	0.242390	0.867350	0.502260
C4691	C469	0.179340	0.895350	0.605440
C4701	C470	0.180500	0.858160	0.616020
C4711	C471	0.149530	0.841380	0.631700
C4721	C472	0.116750	0.861610	0.637430
C4731	C473	0.116390	0.899480	0.628250
C4741	C474	0.147360	0.916100	0.612080
C4751	C475	0.032340	0.786660	0.669210
C4761	C476	0.034910	0.798660	0.632460
C4771	C477	0.060270	0.825970	0.622580
C4781	C478	0.083330	0.842150	0.649420
C4791	C479	0.077550	0.833000	0.686850
C4801	C480	0.052620	0.805110	0.696550
H2211	H221	0.963930	0.648080	0.636830
H2221	H222	0.952810	0.784560	0.656800
H2231	H223	0.900650	0.749900	0.629380
H2241	H224	0.030450	0.630370	0.654340
H2251	H225	0.092950	0.745890	0.697150
H2261	H226	0.128140	0.688370	0.693300
H2271	H227	0.310080	0.980700	0.570630
H2281	H228	0.205190	0.950450	0.655670
H2291	H229	0.250950	0.997810	0.673650
H2301	H230	0.307720	0.934550	0.518440
H2311	H231	0.194710	0.857030	0.537050
H2321	H232	0.236090	0.844400	0.484130
H2331	H233	0.205050	0.841830	0.610890
H2341	H234	0.150830	0.812070	0.637530
H2351	H235	0.091930	0.916090	0.632780
H2361	H236	0.019940	0.784300	0.610880
H2371	H237	0.063990	0.831860	0.593500
H2381	H238	0.094070	0.845560	0.708420
H2391	H239	0.051510	0.795680	0.724900
H2401	H240	0.146590	0.946640	0.604280
Cu251	Cu25	0.913760	0.326550	0.671270
Cu261	Cu26	0.938540	0.372220	0.625640
O971	O97	0.889810	0.365990	0.690480
O981	O98	0.907200	0.405710	0.647650
O991	O99	0.055120	0.793870	0.852890
O1001	O100	0.030460	0.834900	0.890560
O1011	O101	0.819420	0.637820	0.620920
O1021	O102	0.856010	0.594880	0.597700
O1031	O103	0.840440	0.800860	0.045290
O1041	O104	0.884570	0.839140	0.027790
N251	N25	0.823950	0.518730	0.749940
N261	N26	0.911210	0.711040	0.912210
C4811	C481	0.889170	0.398470	0.676980
C4821	C482	0.031320	0.802350	0.877350
C4831	C483	0.833700	0.605670	0.622550
C4841	C484	0.866750	0.809120	0.023530
C4851	C485	0.868560	0.428070	0.696320
C4861	C486	0.858050	0.460640	0.677380
C4871	C487	0.841530	0.488980	0.697750
C4881	C488	0.836710	0.486510	0.735570
C4891	C489	0.846810	0.454730	0.754910
C4901	C490	0.862210	0.425200	0.734950
C4911	C491	0.825910	0.582020	0.654810
C4921	C492	0.834850	0.543900	0.654820
C4931	C493	0.831110	0.524360	0.687980
C4941	C494	0.820110	0.541440	0.720310
C4951	C495	0.810860	0.578940	0.720760
C4961	C496	0.813100	0.598900	0.687730
C4971	C497	0.876720	0.783480	0.993520
C4981	C498	0.910490	0.787720	0.974420
C4991	C499	0.919580	0.761500	0.947790
C5001	C500	0.896610	0.732270	0.939370
C5011	C501	0.862640	0.727910	0.957090
C5021	C502	0.852720	0.753890	0.984150
C5031	C503	0.003230	0.774930	0.888730
C5041	C504	0.978850	0.782770	0.918230
C5051	C505	0.949460	0.758730	0.924450
C5061	C506	0.943610	0.727660	0.903110
C5071	C507	0.967680	0.718650	0.874320
C5081	C508	0.997740	0.742390	0.867350
C5091	C509	0.894560	0.679340	0.895350
C5101	C510	0.883980	0.680500	0.858160
C5111	C511	0.868300	0.649530	0.841380
C5121	C512	0.862570	0.616750	0.861610
C5131	C513	0.871750	0.616390	0.899480
C5141	C514	0.887920	0.647360	0.916100
C5151	C515	0.830790	0.532340	0.786660
C5161	C516	0.867540	0.534910	0.798660
C5171	C517	0.877420	0.560270	0.825970
C5181	C518	0.850580	0.583330	0.842150
C5191	C519	0.813150	0.577550	0.833000
C5201	C520	0.803450	0.552620	0.805110
H2411	H241	0.863170	0.463930	0.648080
H2421	H242	0.843200	0.452810	0.784560
H2431	H243	0.870620	0.400650	0.749900
H2441	H244	0.845660	0.530450	0.630370
H2451	H245	0.802850	0.592950	0.745890
H2461	H246	0.806700	0.628140	0.688370
H2471	H247	0.929370	0.810080	0.980700
H2481	H248	0.844330	0.705190	0.950450
H2491	H249	0.826350	0.750950	0.997810
H2501	H250	0.981560	0.807720	0.934550
H2511	H251	0.962950	0.694710	0.857030
H2521	H252	0.015870	0.736090	0.844400
H2531	H253	0.889110	0.705050	0.841830
H2541	H254	0.862470	0.650830	0.812070
H2551	H255	0.867220	0.591930	0.916090
H2561	H256	0.889120	0.519940	0.784300
H2571	H257	0.906500	0.563990	0.831860
H2581	H258	0.791580	0.594070	0.845560
H2591	H259	0.775100	0.551510	0.795680
H2601	H260	0.895720	0.646590	0.946640
Cu271	Cu27	0.586240	0.673450	0.171270
Cu281	Cu28	0.561460	0.627780	0.125640
O1051	O105	0.610190	0.634010	0.190480
O1061	O106	0.592800	0.594290	0.147650
O1071	O107	0.444880	0.206130	0.352890
O1081	O108	0.469540	0.165100	0.390560
O1091	O109	0.680580	0.362180	0.120920
O1101	O110	0.643990	0.405120	0.097700
O1111	O111	0.659560	0.199140	0.545290
O1121	O112	0.615430	0.160860	0.527790
N271	N27	0.676050	0.481270	0.249940
N281	N28	0.588790	0.288960	0.412210
C5211	C521	0.610830	0.601530	0.176980
C5221	C522	0.468680	0.197650	0.377350
C5231	C523	0.666300	0.394330	0.122550
C5241	C524	0.633250	0.190880	0.523530
C5251	C525	0.631440	0.571930	0.196320
C5261	C526	0.641950	0.539360	0.177380
C5271	C527	0.658470	0.511020	0.197750
C5281	C528	0.663290	0.513490	0.235570
C5291	C529	0.653190	0.545270	0.254910
C5301	C530	0.637790	0.574800	0.234950
C5311	C531	0.674090	0.417980	0.154810
C5321	C532	0.665150	0.456100	0.154820
C5331	C533	0.668890	0.475640	0.187980
C5341	C534	0.679890	0.458560	0.220310
C5351	C535	0.689140	0.421060	0.220760
C5361	C536	0.686900	0.401100	0.187730
C5371	C537	0.623280	0.216520	0.493520
C5381	C538	0.589510	0.212280	0.474420
C5391	C539	0.580420	0.238500	0.447790
C5401	C540	0.603390	0.267730	0.439370
C5411	C541	0.637360	0.272090	0.457090
C5421	C542	0.647280	0.246110	0.484150
C5431	C543	0.496770	0.225070	0.388730
C5441	C544	0.521150	0.217230	0.418230
C5451	C545	0.550540	0.241270	0.424450
C5461	C546	0.556390	0.272340	0.403110
C5471	C547	0.532320	0.281350	0.374320
C5481	C548	0.502260	0.257610	0.367350
C5491	C549	0.605440	0.320660	0.395350
C5501	C550	0.616020	0.319500	0.358160
C5511	C551	0.631700	0.350470	0.341380
C5521	C552	0.637430	0.383250	0.361610
C5531	C553	0.628250	0.383610	0.399480
C5541	C554	0.612080	0.352640	0.416100
C5551	C555	0.669210	0.467660	0.286660
C5561	C556	0.632460	0.465090	0.298660
C5571	C557	0.622580	0.439730	0.325970
C5581	C558	0.649420	0.416670	0.342150
C5591	C559	0.686850	0.422450	0.333000
C5601	C560	0.696550	0.447380	0.305110
H2611	H261	0.636830	0.536070	0.148080
H2621	H262	0.656800	0.547190	0.284560
H2631	H263	0.629380	0.599350	0.249900
H2641	H264	0.654340	0.469550	0.130370
H2651	H265	0.697150	0.407050	0.245890
H2661	H266	0.693300	0.371860	0.188370
H2671	H267	0.570630	0.189920	0.480700
H2681	H268	0.655670	0.294810	0.450450
H2691	H269	0.673650	0.249050	0.497810
H2701	H270	0.518440	0.192280	0.434550
H2711	H271	0.537050	0.305290	0.357030
H2721	H272	0.484130	0.263910	0.344400
H2731	H273	0.610890	0.294950	0.341830
H2741	H274	0.637530	0.349170	0.312070
H2751	H275	0.632780	0.408070	0.416090
H2761	H276	0.610880	0.480060	0.284300
H2771	H277	0.593500	0.436010	0.331860
H2781	H278	0.708420	0.405930	0.345560
H2791	H279	0.724900	0.448490	0.295680
H2801	H280	0.604280	0.353410	0.446640
Cu291	Cu29	0.086240	0.826550	0.828730
Cu301	Cu30	0.061460	0.872220	0.874360
O1131	O113	0.110190	0.865990	0.809520
O1141	O114	0.092800	0.905710	0.852350
O1151	O115	0.944880	0.293870	0.647110
O1161	O116	0.969540	0.334900	0.609440
O1171	O117	0.180580	0.137820	0.879080
O1181	O118	0.143990	0.094880	0.902300
O1191	O119	0.159560	0.300860	0.454710
O1201	O120	0.115430	0.339140	0.472210
N291	N29	0.176050	0.018730	0.750060
N301	N30	0.088790	0.211040	0.587790
C5611	C561	0.110830	0.898470	0.823020
C5621	C562	0.968680	0.302350	0.622650
C5631	C563	0.166300	0.105670	0.877450
C5641	C564	0.133250	0.309120	0.476470
C5651	C565	0.131440	0.928070	0.803680
C5661	C566	0.141950	0.960640	0.822620
C5671	C567	0.158470	0.988980	0.802250
C5681	C568	0.163290	0.986510	0.764430
C5691	C569	0.153190	0.954730	0.745090
C5701	C570	0.137790	0.925200	0.765050
C5711	C571	0.174090	0.082020	0.845190
C5721	C572	0.165150	0.043900	0.845180
C5731	C573	0.168890	0.024360	0.812020
C5741	C574	0.179890	0.041440	0.779690
C5751	C575	0.189140	0.078940	0.779240
C5761	C576	0.186900	0.098900	0.812270
C5771	C577	0.123280	0.283480	0.506480
C5781	C578	0.089510	0.287720	0.525580
C5791	C579	0.080420	0.261500	0.552210
C5801	C580	0.103390	0.232270	0.560630
C5811	C581	0.137360	0.227910	0.542910
C5821	C582	0.147280	0.253890	0.515850
C5831	C583	0.996770	0.274930	0.611270
C5841	C584	0.021150	0.282770	0.581770
C5851	C585	0.050540	0.258730	0.575550
C5861	C586	0.056390	0.227660	0.596890
C5871	C587	0.032320	0.218650	0.625680
C5881	C588	0.002260	0.242390	0.632650
C5891	C589	0.105440	0.179340	0.604650
C5901	C590	0.116020	0.180500	0.641840
C5911	C591	0.131700	0.149530	0.658620
C5921	C592	0.137430	0.116750	0.638390
C5931	C593	0.128250	0.116390	0.600520
C5941	C594	0.112080	0.147360	0.583900
C5951	C595	0.169210	0.032340	0.713340
C5961	C596	0.132460	0.034910	0.701340
C5971	C597	0.122580	0.060270	0.674030
C5981	C598	0.149420	0.083330	0.657850
C5991	C599	0.186850	0.077550	0.667000
C6001	C600	0.196550	0.052620	0.694890
H2811	H281	0.136830	0.963930	0.851920
H2821	H282	0.156800	0.952810	0.715440
H2831	H283	0.129380	0.900650	0.750100
H2841	H284	0.154340	0.030450	0.869630
H2851	H285	0.197150	0.092950	0.754110
H2861	H286	0.193300	0.128140	0.811630
H2871	H287	0.070630	0.310080	0.519300
H2881	H288	0.155670	0.205190	0.549550
H2891	H289	0.173650	0.250950	0.502190
H2901	H290	0.018440	0.307720	0.565450
H2911	H291	0.037050	0.194710	0.642970
H2921	H292	0.984130	0.236090	0.655600
H2931	H293	0.110890	0.205050	0.658170
H2941	H294	0.137530	0.150830	0.687930
H2951	H295	0.132780	0.091930	0.583910
H2961	H296	0.110880	0.019940	0.715700
H2971	H297	0.093500	0.063990	0.668140
H2981	H298	0.208420	0.094070	0.654440
H2991	H299	0.224900	0.051510	0.704320
H3001	H300	0.104280	0.146590	0.553360
Cu311	Cu31	0.413760	0.173450	0.328730
Cu321	Cu32	0.438540	0.127780	0.374360
O1211	O121	0.389810	0.134010	0.309520
O1221	O122	0.407200	0.094290	0.352350
O1231	O123	0.555120	0.706130	0.147110
O1241	O124	0.530460	0.665100	0.109440
O1251	O125	0.319420	0.862180	0.379080
O1261	O126	0.356010	0.905120	0.402300
O1271	O127	0.340440	0.699140	0.954710
O1281	O128	0.384570	0.660860	0.972210
N311	N31	0.323950	0.981270	0.250060
N321	N32	0.411210	0.788960	0.087790
C6011	C601	0.389170	0.101530	0.323020
C6021	C602	0.531320	0.697650	0.122650
C6031	C603	0.333700	0.894330	0.377450
C6041	C604	0.366750	0.690880	0.976470
C6051	C605	0.368560	0.071930	0.303680
C6061	C606	0.358050	0.039360	0.322620
C6071	C607	0.341530	0.011020	0.302250
C6081	C608	0.336710	0.013490	0.264430
C6091	C609	0.346810	0.045270	0.245090
C6101	C610	0.362210	0.074800	0.265050
C6111	C611	0.325910	0.917980	0.345190
C6121	C612	0.334850	0.956100	0.345180
C6131	C613	0.331110	0.975640	0.312020
C6141	C614	0.320110	0.958560	0.279690
C6151	C615	0.310860	0.921060	0.279240
C6161	C616	0.313100	0.901100	0.312270
C6171	C617	0.376720	0.716520	0.006480
C6181	C618	0.410490	0.712280	0.025580
C6191	C619	0.419580	0.738500	0.052210
C6201	C620	0.396610	0.767730	0.060630
C6211	C621	0.362640	0.772090	0.042910
C6221	C622	0.352720	0.746110	0.015850
C6231	C623	0.503230	0.725070	0.111270
C6241	C624	0.478850	0.717230	0.081770
C6251	C625	0.449460	0.741270	0.075550
C6261	C626	0.443610	0.772340	0.096890
C6271	C627	0.467680	0.781350	0.125680
C6281	C628	0.497740	0.757610	0.132650
C6291	C629	0.394560	0.820660	0.104650
C6301	C630	0.383980	0.819500	0.141840
C6311	C631	0.368300	0.850470	0.158620
C6321	C632	0.362570	0.883250	0.138390
C6331	C633	0.371750	0.883610	0.100520
C6341	C634	0.387920	0.852640	0.083900
C6351	C635	0.330790	0.967660	0.213340
C6361	C636	0.367540	0.965090	0.201340
C6371	C637	0.377420	0.939730	0.174030
C6381	C638	0.350580	0.916670	0.157850
C6391	C639	0.313150	0.922450	0.167000
C6401	C640	0.303450	0.947380	0.194890
H3011	H301	0.363170	0.036070	0.351920
H3021	H302	0.343200	0.047190	0.215440
H3031	H303	0.370620	0.099350	0.250100
H3041	H304	0.345660	0.969550	0.369630
H3051	H305	0.302850	0.907050	0.254110
H3061	H306	0.306700	0.871860	0.311630
H3071	H307	0.429370	0.689920	0.019300
H3081	H308	0.344330	0.794810	0.049550
H3091	H309	0.326350	0.749050	0.002190
H3101	H310	0.481560	0.692280	0.065450
H3111	H311	0.462950	0.805290	0.142970
H3121	H312	0.515870	0.763910	0.155600
H3131	H313	0.389110	0.794950	0.158170
H3141	H314	0.362470	0.849170	0.187930
H3151	H315	0.367220	0.908070	0.083910
H3161	H316	0.389120	0.980060	0.215700
H3171	H317	0.406500	0.936010	0.168140
H3181	H318	0.291580	0.905930	0.154440
H3191	H319	0.275100	0.948490	0.204320
H3201	H320	0.395720	0.853410	0.053360
Cu331	Cu33	0.671270	0.913760	0.326550
Cu341	Cu34	0.625640	0.938540	0.372220
O1291	O129	0.690480	0.889810	0.365990
O1301	O130	0.647650	0.907200	0.405710
O1311	O131	0.852890	0.055120	0.793870
O1321	O132	0.890560	0.030460	0.834900
O1331	O133	0.620920	0.819420	0.637820
O1341	O134	0.597700	0.856010	0.594880
O1351	O135	0.045290	0.840440	0.800860
O1361	O136	0.027790	0.884570	0.839140
N331	N33	0.749940	0.823950	0.518730
N341	N34	0.912210	0.911210	0.711040
C6411	C641	0.676980	0.889170	0.398470
C6421	C642	0.877350	0.031320	0.802350
C6431	C643	0.622550	0.833700	0.605670
C6441	C644	0.023530	0.866750	0.809120
C6451	C645	0.696320	0.868560	0.428070
C6461	C646	0.677380	0.858050	0.460640
C6471	C647	0.697750	0.841530	0.488980
C6481	C648	0.735570	0.836710	0.486510
C6491	C649	0.754910	0.846810	0.454730
C6501	C650	0.734950	0.862210	0.425200
C6511	C651	0.654810	0.825910	0.582020
C6521	C652	0.654820	0.834850	0.543900
C6531	C653	0.687980	0.831110	0.524360
C6541	C654	0.720310	0.820110	0.541440
C6551	C655	0.720760	0.810860	0.578940
C6561	C656	0.687730	0.813100	0.598900
C6571	C657	0.993520	0.876720	0.783480
C6581	C658	0.974420	0.910490	0.787720
C6591	C659	0.947790	0.919580	0.761500
C6601	C660	0.939370	0.896610	0.732270
C6611	C661	0.957090	0.862640	0.727910
C6621	C662	0.984150	0.852720	0.753890
C6631	C663	0.888730	0.003230	0.774930
C6641	C664	0.918230	0.978850	0.782770
C6651	C665	0.924450	0.949460	0.758730
C6661	C666	0.903110	0.943610	0.727660
C6671	C667	0.874320	0.967680	0.718650
C6681	C668	0.867350	0.997740	0.742390
C6691	C669	0.895350	0.894560	0.679340
C6701	C670	0.858160	0.883980	0.680500
C6711	C671	0.841380	0.868300	0.649530
C6721	C672	0.861610	0.862570	0.616750
C6731	C673	0.899480	0.871750	0.616390
C6741	C674	0.916100	0.887920	0.647360
C6751	C675	0.786660	0.830790	0.532340
C6761	C676	0.798660	0.867540	0.534910
C6771	C677	0.825970	0.877420	0.560270
C6781	C678	0.842150	0.850580	0.583330
C6791	C679	0.833000	0.813150	0.577550
C6801	C680	0.805110	0.803450	0.552620
H3211	H321	0.648080	0.863170	0.463930
H3221	H322	0.784560	0.843200	0.452810
H3231	H323	0.749900	0.870620	0.400650
H3241	H324	0.630370	0.845660	0.530450
H3251	H325	0.745890	0.802850	0.592950
H3261	H326	0.688370	0.806700	0.628140
H3271	H327	0.980700	0.929370	0.810080
H3281	H328	0.950450	0.844330	0.705190
H3291	H329	0.997810	0.826350	0.750950
H3301	H330	0.934550	0.981560	0.807720
H3311	H331	0.857030	0.962950	0.694710
H3321	H332	0.844400	0.015870	0.736090
H3331	H333	0.841830	0.889110	0.705050
H3341	H334	0.812070	0.862470	0.650830
H3351	H335	0.916090	0.867220	0.591930
H3361	H336	0.784300	0.889120	0.519940
H3371	H337	0.831860	0.906500	0.563990
H3381	H338	0.845560	0.791580	0.594070
H3391	H339	0.795680	0.775100	0.551510
H3401	H340	0.946640	0.895720	0.646590
Cu351	Cu35	0.171270	0.586240	0.673450
Cu361	Cu36	0.125640	0.561460	0.627780
O1371	O137	0.190480	0.610190	0.634010
O1381	O138	0.147650	0.592800	0.594290
O1391	O139	0.352890	0.444880	0.206130
O1401	O140	0.390560	0.469540	0.165100
O1411	O141	0.120920	0.680580	0.362180
O1421	O142	0.097700	0.643990	0.405120
O1431	O143	0.545290	0.659560	0.199140
O1441	O144	0.527790	0.615430	0.160860
N351	N35	0.249940	0.676050	0.481270
N361	N36	0.412210	0.588790	0.288960
C6811	C681	0.176980	0.610830	0.601530
C6821	C682	0.377350	0.468680	0.197650
C6831	C683	0.122550	0.666300	0.394330
C6841	C684	0.523530	0.633250	0.190880
C6851	C685	0.196320	0.631440	0.571930
C6861	C686	0.177380	0.641950	0.539360
C6871	C687	0.197750	0.658470	0.511020
C6881	C688	0.235570	0.663290	0.513490
C6891	C689	0.254910	0.653190	0.545270
C6901	C690	0.234950	0.637790	0.574800
C6911	C691	0.154810	0.674090	0.417980
C6921	C692	0.154820	0.665150	0.456100
C6931	C693	0.187980	0.668890	0.475640
C6941	C694	0.220310	0.679890	0.458560
C6951	C695	0.220760	0.689140	0.421060
C6961	C696	0.187730	0.686900	0.401100
C6971	C697	0.493520	0.623280	0.216520
C6981	C698	0.474420	0.589510	0.212280
C6991	C699	0.447790	0.580420	0.238500
C7001	C700	0.439370	0.603390	0.267730
C7011	C701	0.457090	0.637360	0.272090
C7021	C702	0.484150	0.647280	0.246110
C7031	C703	0.388730	0.496770	0.225070
C7041	C704	0.418230	0.521150	0.217230
C7051	C705	0.424450	0.550540	0.241270
C7061	C706	0.403110	0.556390	0.272340
C7071	C707	0.374320	0.532320	0.281350
C7081	C708	0.367350	0.502260	0.257610
C7091	C709	0.395350	0.605440	0.320660
C7101	C710	0.358160	0.616020	0.319500
C7111	C711	0.341380	0.631700	0.350470
C7121	C712	0.361610	0.637430	0.383250
C7131	C713	0.399480	0.628250	0.383610
C7141	C714	0.416100	0.612080	0.352640
C7151	C715	0.286660	0.669210	0.467660
C7161	C716	0.298660	0.632460	0.465090
C7171	C717	0.325970	0.622580	0.439730
C7181	C718	0.342150	0.649420	0.416670
C7191	C719	0.333000	0.686850	0.422450
C7201	C720	0.305110	0.696550	0.447380
H3411	H341	0.148080	0.636830	0.536070
H3421	H342	0.284560	0.656800	0.547190
H3431	H343	0.249900	0.629380	0.599350
H3441	H344	0.130370	0.654340	0.469550
H3451	H345	0.245890	0.697150	0.407050
H3461	H346	0.188370	0.693300	0.371860
H3471	H347	0.480700	0.570630	0.189920
H3481	H348	0.450450	0.655670	0.294810
H3491	H349	0.497810	0.673650	0.249050
H3501	H350	0.434550	0.518440	0.192280
H3511	H351	0.357030	0.537050	0.305290
H3521	H352	0.344400	0.484130	0.263910
H3531	H353	0.341830	0.610890	0.294950
H3541	H354	0.312070	0.637530	0.349170
H3551	H355	0.416090	0.632780	0.408070
H3561	H356	0.284300	0.610880	0.480060
H3571	H357	0.331860	0.593500	0.436010
H3581	H358	0.345560	0.708420	0.405930
H3591	H359	0.295680	0.724900	0.448490
H3601	H360	0.446640	0.604280	0.353410
Cu371	Cu37	0.828730	0.086240	0.826550
Cu381	Cu38	0.874360	0.061460	0.872220
O1451	O145	0.809520	0.110190	0.865990
O1461	O146	0.852350	0.092800	0.905710
O1471	O147	0.647110	0.944880	0.293870
O1481	O148	0.609440	0.969540	0.334900
O1491	O149	0.879080	0.180580	0.137820
O1501	O150	0.902300	0.143990	0.094880
O1511	O151	0.454710	0.159560	0.300860
O1521	O152	0.472210	0.115430	0.339140
N371	N37	0.750060	0.176050	0.018730
N381	N38	0.587790	0.088790	0.211040
C7211	C721	0.823020	0.110830	0.898470
C7221	C722	0.622650	0.968680	0.302350
C7231	C723	0.877450	0.166300	0.105670
C7241	C724	0.476470	0.133250	0.309120
C7251	C725	0.803680	0.131440	0.928070
C7261	C726	0.822620	0.141950	0.960640
C7271	C727	0.802250	0.158470	0.988980
C7281	C728	0.764430	0.163290	0.986510
C7291	C729	0.745090	0.153190	0.954730
C7301	C730	0.765050	0.137790	0.925200
C7311	C731	0.845190	0.174090	0.082020
C7321	C732	0.845180	0.165150	0.043900
C7331	C733	0.812020	0.168890	0.024360
C7341	C734	0.779690	0.179890	0.041440
C7351	C735	0.779240	0.189140	0.078940
C7361	C736	0.812270	0.186900	0.098900
C7371	C737	0.506480	0.123280	0.283480
C7381	C738	0.525580	0.089510	0.287720
C7391	C739	0.552210	0.080420	0.261500
C7401	C740	0.560630	0.103390	0.232270
C7411	C741	0.542910	0.137360	0.227910
C7421	C742	0.515850	0.147280	0.253890
C7431	C743	0.611270	0.996770	0.274930
C7441	C744	0.581770	0.021150	0.282770
C7451	C745	0.575550	0.050540	0.258730
C7461	C746	0.596890	0.056390	0.227660
C7471	C747	0.625680	0.032320	0.218650
C7481	C748	0.632650	0.002260	0.242390
C7491	C749	0.604650	0.105440	0.179340
C7501	C750	0.641840	0.116020	0.180500
C7511	C751	0.658620	0.131700	0.149530
C7521	C752	0.638390	0.137430	0.116750
C7531	C753	0.600520	0.128250	0.116390
C7541	C754	0.583900	0.112080	0.147360
C7551	C755	0.713340	0.169210	0.032340
C7561	C756	0.701340	0.132460	0.034910
C7571	C757	0.674030	0.122580	0.060270
C7581	C758	0.657850	0.149420	0.083330
C7591	C759	0.667000	0.186850	0.077550
C7601	C760	0.694890	0.196550	0.052620
H3611	H361	0.851920	0.136830	0.963930
H3621	H362	0.715440	0.156800	0.952810
H3631	H363	0.750100	0.129380	0.900650
H3641	H364	0.869630	0.154340	0.030450
H3651	H365	0.754110	0.197150	0.092950
H3661	H366	0.811630	0.193300	0.128140
H3671	H367	0.519300	0.070630	0.310080
H3681	H368	0.549550	0.155670	0.205190
H3691	H369	0.502190	0.173650	0.250950
H3701	H370	0.565450	0.018440	0.307720
H3711	H371	0.642970	0.037050	0.194710
H3721	H372	0.655600	0.984130	0.236090
H3731	H373	0.658170	0.110890	0.205050
H3741	H374	0.687930	0.137530	0.150830
H3751	H375	0.583910	0.132780	0.091930
H3761	H376	0.715700	0.110880	0.019940
H3771	H377	0.668140	0.093500	0.063990
H3781	H378	0.654440	0.208420	0.094070
H3791	H379	0.704320	0.224900	0.051510
H3801	H380	0.553360	0.104280	0.146590
Cu391	Cu39	0.328730	0.413760	0.173450
Cu401	Cu40	0.374360	0.438540	0.127780
O1531	O153	0.309520	0.389810	0.134010
O1541	O154	0.352350	0.407200	0.094290
O1551	O155	0.147110	0.555120	0.706130
O1561	O156	0.109440	0.530460	0.665100
O1571	O157	0.379080	0.319420	0.862180
O1581	O158	0.402300	0.356010	0.905120
O1591	O159	0.954710	0.340440	0.699140
O1601	O160	0.972210	0.384570	0.660860
N391	N39	0.250060	0.323950	0.981270
N401	N40	0.087790	0.411210	0.788960
C7611	C761	0.323020	0.389170	0.101530
C7621	C762	0.122650	0.531320	0.697650
C7631	C763	0.377450	0.333700	0.894330
C7641	C764	0.976470	0.366750	0.690880
C7651	C765	0.303680	0.368560	0.071930
C7661	C766	0.322620	0.358050	0.039360
C7671	C767	0.302250	0.341530	0.011020
C7681	C768	0.264430	0.336710	0.013490
C7691	C769	0.245090	0.346810	0.045270
C7701	C770	0.265050	0.362210	0.074800
C7711	C771	0.345190	0.325910	0.917980
C7721	C772	0.345180	0.334850	0.956100
C7731	C773	0.312020	0.331110	0.975640
C7741	C774	0.279690	0.320110	0.958560
C7751	C775	0.279240	0.310860	0.921060
C7761	C776	0.312270	0.313100	0.901100
C7771	C777	0.006480	0.376720	0.716520
C7781	C778	0.025580	0.410490	0.712280
C7791	C779	0.052210	0.419580	0.738500
C7801	C780	0.060630	0.396610	0.767730
C7811	C781	0.042910	0.362640	0.772090
C7821	C782	0.015850	0.352720	0.746110
C7831	C783	0.111270	0.503230	0.725070
C7841	C784	0.081770	0.478850	0.717230
C7851	C785	0.075550	0.449460	0.741270
C7861	C786	0.096890	0.443610	0.772340
C7871	C787	0.125680	0.467680	0.781350
C7881	C788	0.132650	0.497740	0.757610
C7891	C789	0.104650	0.394560	0.820660
C7901	C790	0.141840	0.383980	0.819500
C7911	C791	0.158620	0.368300	0.850470
C7921	C792	0.138390	0.362570	0.883250
C7931	C793	0.100520	0.371750	0.883610
C7941	C794	0.083900	0.387920	0.852640
C7951	C795	0.213340	0.330790	0.967660
C7961	C796	0.201340	0.367540	0.965090
C7971	C797	0.174030	0.377420	0.939730
C7981	C798	0.157850	0.350580	0.916670
C7991	C799	0.167000	0.313150	0.922450
C8001	C800	0.194890	0.303450	0.947380
H3811	H381	0.351920	0.363170	0.036070
H3821	H382	0.215440	0.343200	0.047190
H3831	H383	0.250100	0.370620	0.099350
H3841	H384	0.369630	0.345660	0.969550
H3851	H385	0.254110	0.302850	0.907050
H3861	H386	0.311630	0.306700	0.871860
H3871	H387	0.019300	0.429370	0.689920
H3881	H388	0.049550	0.344330	0.794810
H3891	H389	0.002190	0.326350	0.749050
H3901	H390	0.065450	0.481560	0.692280
H3911	H391	0.142970	0.462950	0.805290
H3921	H392	0.155600	0.515870	0.763910
H3931	H393	0.158170	0.389110	0.794950
H3941	H394	0.187930	0.362470	0.849170
H3951	H395	0.083910	0.367220	0.908070
H3961	H396	0.215700	0.389120	0.980060
H3971	H397	0.168140	0.406500	0.936010
H3981	H398	0.154440	0.291580	0.905930
H3991	H399	0.204320	0.275100	0.948490
H4001	H400	0.053360	0.395720	0.853410
Cu411	Cu41	0.326550	0.671270	0.913760
Cu421	Cu42	0.372220	0.625640	0.938540
O1611	O161	0.365990	0.690480	0.889810
O1621	O162	0.405710	0.647650	0.907200
O1631	O163	0.793870	0.852890	0.055120
O1641	O164	0.834900	0.890560	0.030460
O1651	O165	0.637820	0.620920	0.819420
O1661	O166	0.594880	0.597700	0.856010
O1671	O167	0.800860	0.045290	0.840440
O1681	O168	0.839140	0.027790	0.884570
N411	N41	0.518730	0.749940	0.823950
N421	N42	0.711040	0.912210	0.911210
C8011	C801	0.398470	0.676980	0.889170
C8021	C802	0.802350	0.877350	0.031320
C8031	C803	0.605670	0.622550	0.833700
C8041	C804	0.809120	0.023530	0.866750
C8051	C805	0.428070	0.696320	0.868560
C8061	C806	0.460640	0.677380	0.858050
C8071	C807	0.488980	0.697750	0.841530
C8081	C808	0.486510	0.735570	0.836710
C8091	C809	0.454730	0.754910	0.846810
C8101	C810	0.425200	0.734950	0.862210
C8111	C811	0.582020	0.654810	0.825910
C8121	C812	0.543900	0.654820	0.834850
C8131	C813	0.524360	0.687980	0.831110
C8141	C814	0.541440	0.720310	0.820110
C8151	C815	0.578940	0.720760	0.810860
C8161	C816	0.598900	0.687730	0.813100
C8171	C817	0.783480	0.993520	0.876720
C8181	C818	0.787720	0.974420	0.910490
C8191	C819	0.761500	0.947790	0.919580
C8201	C820	0.732270	0.939370	0.896610
C8211	C821	0.727910	0.957090	0.862640
C8221	C822	0.753890	0.984150	0.852720
C8231	C823	0.774930	0.888730	0.003230
C8241	C824	0.782770	0.918230	0.978850
C8251	C825	0.758730	0.924450	0.949460
C8261	C826	0.727660	0.903110	0.943610
C8271	C827	0.718650	0.874320	0.967680
C8281	C828	0.742390	0.867350	0.997740
C8291	C829	0.679340	0.895350	0.894560
C8301	C830	0.680500	0.858160	0.883980
C8311	C831	0.649530	0.841380	0.868300
C8321	C832	0.616750	0.861610	0.862570
C8331	C833	0.616390	0.899480	0.871750
C8341	C834	0.647360	0.916100	0.887920
C8351	C835	0.532340	0.786660	0.830790
C8361	C836	0.534910	0.798660	0.867540
C8371	C837	0.560270	0.825970	0.877420
C8381	C838	0.583330	0.842150	0.850580
C8391	C839	0.577550	0.833000	0.813150
C8401	C840	0.552620	0.805110	0.803450
H4011	H401	0.463930	0.648080	0.863170
H4021	H402	0.452810	0.784560	0.843200
H4031	H403	0.400650	0.749900	0.870620
H4041	H404	0.530450	0.630370	0.845660
H4051	H405	0.592950	0.745890	0.802850
H4061	H406	0.628140	0.688370	0.806700
H4071	H407	0.810080	0.980700	0.929370
H4081	H408	0.705190	0.950450	0.844330
H4091	H409	0.750950	0.997810	0.826350
H4101	H410	0.807720	0.934550	0.981560
H4111	H411	0.694710	0.857030	0.962950
H4121	H412	0.736090	0.844400	0.015870
H4131	H413	0.705050	0.841830	0.889110
H4141	H414	0.650830	0.812070	0.862470
H4151	H415	0.591930	0.916090	0.867220
H4161	H416	0.519940	0.784300	0.889120
H4171	H417	0.563990	0.831860	0.906500
H4181	H418	0.594070	0.845560	0.791580
H4191	H419	0.551510	0.795680	0.775100
H4201	H420	0.646590	0.946640	0.895720
Cu431	Cu43	0.673450	0.171270	0.586240
Cu441	Cu44	0.627780	0.125640	0.561460
O1691	O169	0.634010	0.190480	0.610190
O1701	O170	0.594290	0.147650	0.592800
O1711	O171	0.206130	0.352890	0.444880
O1721	O172	0.165100	0.390560	0.469540
O1731	O173	0.362180	0.120920	0.680580
O1741	O174	0.405120	0.097700	0.643990
O1751	O175	0.199140	0.545290	0.659560
O1761	O176	0.160860	0.527790	0.615430
N431	N43	0.481270	0.249940	0.676050
N441	N44	0.288960	0.412210	0.588790
C8411	C841	0.601530	0.176980	0.610830
C8421	C842	0.197650	0.377350	0.468680
C8431	C843	0.394330	0.122550	0.666300
C8441	C844	0.190880	0.523530	0.633250
C8451	C845	0.571930	0.196320	0.631440
C8461	C846	0.539360	0.177380	0.641950
C8471	C847	0.511020	0.197750	0.658470
C8481	C848	0.513490	0.235570	0.663290
C8491	C849	0.545270	0.254910	0.653190
C8501	C850	0.574800	0.234950	0.637790
C8511	C851	0.417980	0.154810	0.674090
C8521	C852	0.456100	0.154820	0.665150
C8531	C853	0.475640	0.187980	0.668890
C8541	C854	0.458560	0.220310	0.679890
C8551	C855	0.421060	0.220760	0.689140
C8561	C856	0.401100	0.187730	0.686900
C8571	C857	0.216520	0.493520	0.623280
C8581	C858	0.212280	0.474420	0.589510
C8591	C859	0.238500	0.447790	0.580420
C8601	C860	0.267730	0.439370	0.603390
C8611	C861	0.272090	0.457090	0.637360
C8621	C862	0.246110	0.484150	0.647280
C8631	C863	0.225070	0.388730	0.496770
C8641	C864	0.217230	0.418230	0.521150
C8651	C865	0.241270	0.424450	0.550540
C8661	C866	0.272340	0.403110	0.556390
C8671	C867	0.281350	0.374320	0.532320
C8681	C868	0.257610	0.367350	0.502260
C8691	C869	0.320660	0.395350	0.605440
C8701	C870	0.319500	0.358160	0.616020
C8711	C871	0.350470	0.341380	0.631700
C8721	C872	0.383250	0.361610	0.637430
C8731	C873	0.383610	0.399480	0.628250
C8741	C874	0.352640	0.416100	0.612080
C8751	C875	0.467660	0.286660	0.669210
C8761	C876	0.465090	0.298660	0.632460
C8771	C877	0.439730	0.325970	0.622580
C8781	C878	0.416670	0.342150	0.649420
C8791	C879	0.422450	0.333000	0.686850
C8801	C880	0.447380	0.305110	0.696550
H4211	H421	0.536070	0.148080	0.636830
H4221	H422	0.547190	0.284560	0.656800
H4231	H423	0.599350	0.249900	0.629380
H4241	H424	0.469550	0.130370	0.654340
H4251	H425	0.407050	0.245890	0.697150
H4261	H426	0.371860	0.188370	0.693300
H4271	H427	0.189920	0.480700	0.570630
H4281	H428	0.294810	0.450450	0.655670
H4291	H429	0.249050	0.497810	0.673650
H4301	H430	0.192280	0.434550	0.518440
H4311	H431	0.305290	0.357030	0.537050
H4321	H432	0.263910	0.344400	0.484130
H4331	H433	0.294950	0.341830	0.610890
H4341	H434	0.349170	0.312070	0.637530
H4351	H435	0.408070	0.416090	0.632780
H4361	H436	0.480060	0.284300	0.610880
H4371	H437	0.436010	0.331860	0.593500
H4381	H438	0.405930	0.345560	0.708420
H4391	H439	0.448490	0.295680	0.724900
H4401	H440	0.353410	0.446640	0.604280
Cu451	Cu45	0.826550	0.828730	0.086240
Cu461	Cu46	0.872220	0.874360	0.061460
O1771	O177	0.865990	0.809520	0.110190
O1781	O178	0.905710	0.852350	0.092800
O1791	O179	0.293870	0.647110	0.944880
O1801	O180	0.334900	0.609440	0.969540
O1811	O181	0.137820	0.879080	0.180580
O1821	O182	0.094880	0.902300	0.143990
O1831	O183	0.300860	0.454710	0.159560
O1841	O184	0.339140	0.472210	0.115430
N451	N45	0.018730	0.750060	0.176050
N461	N46	0.211040	0.587790	0.088790
C8811	C881	0.898470	0.823020	0.110830
C8821	C882	0.302350	0.622650	0.968680
C8831	C883	0.105670	0.877450	0.166300
C8841	C884	0.309120	0.476470	0.133250
C8851	C885	0.928070	0.803680	0.131440
C8861	C886	0.960640	0.822620	0.141950
C8871	C887	0.988980	0.802250	0.158470
C8881	C888	0.986510	0.764430	0.163290
C8891	C889	0.954730	0.745090	0.153190
C8901	C890	0.925200	0.765050	0.137790
C8911	C891	0.082020	0.845190	0.174090
C8921	C892	0.043900	0.845180	0.165150
C8931	C893	0.024360	0.812020	0.168890
C8941	C894	0.041440	0.779690	0.179890
C8951	C895	0.078940	0.779240	0.189140
C8961	C896	0.098900	0.812270	0.186900
C8971	C897	0.283480	0.506480	0.123280
C8981	C898	0.287720	0.525580	0.089510
C8991	C899	0.261500	0.552210	0.080420
C9001	C900	0.232270	0.560630	0.103390
C9011	C901	0.227910	0.542910	0.137360
C9021	C902	0.253890	0.515850	0.147280
C9031	C903	0.274930	0.611270	0.996770
C9041	C904	0.282770	0.581770	0.021150
C9051	C905	0.258730	0.575550	0.050540
C9061	C906	0.227660	0.596890	0.056390
C9071	C907	0.218650	0.625680	0.032320
C9081	C908	0.242390	0.632650	0.002260
C9091	C909	0.179340	0.604650	0.105440
C9101	C910	0.180500	0.641840	0.116020
C9111	C911	0.149530	0.658620	0.131700
C9121	C912	0.116750	0.638390	0.137430
C9131	C913	0.116390	0.600520	0.128250
C9141	C914	0.147360	0.583900	0.112080
C9151	C915	0.032340	0.713340	0.169210
C9161	C916	0.034910	0.701340	0.132460
C9171	C917	0.060270	0.674030	0.122580
C9181	C918	0.083330	0.657850	0.149420
C9191	C919	0.077550	0.667000	0.186850
C9201	C920	0.052620	0.694890	0.196550
H4411	H441	0.963930	0.851920	0.136830
H4421	H442	0.952810	0.715440	0.156800
H4431	H443	0.900650	0.750100	0.129380
H4441	H444	0.030450	0.869630	0.154340
H4451	H445	0.092950	0.754110	0.197150
H4461	H446	0.128140	0.811630	0.193300
H4471	H447	0.310080	0.519300	0.070630
H4481	H448	0.205190	0.549550	0.155670
H4491	H449	0.250950	0.502190	0.173650
H4501	H450	0.307720	0.565450	0.018440
H4511	H451	0.194710	0.642970	0.037050
H4521	H452	0.236090	0.655600	0.984130
H4531	H453	0.205050	0.658170	0.110890
H4541	H454	0.150830	0.687930	0.137530
H4551	H455	0.091930	0.583910	0.132780
H4561	H456	0.019940	0.715700	0.110880
H4571	H457	0.063990	0.668140	0.093500
H4581	H458	0.094070	0.654440	0.208420
H4591	H459	0.051510	0.704320	0.224900
H4601	H460	0.146590	0.553360	0.104280
Cu471	Cu47	0.173450	0.328730	0.413760
Cu481	Cu48	0.127780	0.374360	0.438540
O1851	O185	0.134010	0.309520	0.389810
O1861	O186	0.094290	0.352350	0.407200
O1871	O187	0.706130	0.147110	0.555120
O1881	O188	0.665100	0.109440	0.530460
O1891	O189	0.862180	0.379080	0.319420
O1901	O190	0.905120	0.402300	0.356010
O1911	O191	0.699140	0.954710	0.340440
O1921	O192	0.660860	0.972210	0.384570
N471	N47	0.981270	0.250060	0.323950
N481	N48	0.788960	0.087790	0.411210
C9211	C921	0.101530	0.323020	0.389170
C9221	C922	0.697650	0.122650	0.531320
C9231	C923	0.894330	0.377450	0.333700
C9241	C924	0.690880	0.976470	0.366750
C9251	C925	0.071930	0.303680	0.368560
C9261	C926	0.039360	0.322620	0.358050
C9271	C927	0.011020	0.302250	0.341530
C9281	C928	0.013490	0.264430	0.336710
C9291	C929	0.045270	0.245090	0.346810
C9301	C930	0.074800	0.265050	0.362210
C9311	C931	0.917980	0.345190	0.325910
C9321	C932	0.956100	0.345180	0.334850
C9331	C933	0.975640	0.312020	0.331110
C9341	C934	0.958560	0.279690	0.320110
C9351	C935	0.921060	0.279240	0.310860
C9361	C936	0.901100	0.312270	0.313100
C9371	C937	0.716520	0.006480	0.376720
C9381	C938	0.712280	0.025580	0.410490
C9391	C939	0.738500	0.052210	0.419580
C9401	C940	0.767730	0.060630	0.396610
C9411	C941	0.772090	0.042910	0.362640
C9421	C942	0.746110	0.015850	0.352720
C9431	C943	0.725070	0.111270	0.503230
C9441	C944	0.717230	0.081770	0.478850
C9451	C945	0.741270	0.075550	0.449460
C9461	C946	0.772340	0.096890	0.443610
C9471	C947	0.781350	0.125680	0.467680
C9481	C948	0.757610	0.132650	0.497740
C9491	C949	0.820660	0.104650	0.394560
C9501	C950	0.819500	0.141840	0.383980
C9511	C951	0.850470	0.158620	0.368300
C9521	C952	0.883250	0.138390	0.362570
C9531	C953	0.883610	0.100520	0.371750
C9541	C954	0.852640	0.083900	0.387920
C9551	C955	0.967660	0.213340	0.330790
C9561	C956	0.965090	0.201340	0.367540
C9571	C957	0.939730	0.174030	0.377420
C9581	C958	0.916670	0.157850	0.350580
C9591	C959	0.922450	0.167000	0.313150
C9601	C960	0.947380	0.194890	0.303450
H4611	H461	0.036070	0.351920	0.363170
H4621	H462	0.047190	0.215440	0.343200
H4631	H463	0.099350	0.250100	0.370620
H4641	H464	0.969550	0.369630	0.345660
H4651	H465	0.907050	0.254110	0.302850
H4661	H466	0.871860	0.311630	0.306700
H4671	H467	0.689920	0.019300	0.429370
H4681	H468	0.794810	0.049550	0.344330
H4691	H469	0.749050	0.002190	0.326350
H4701	H470	0.692280	0.065450	0.481560
H4711	H471	0.805290	0.142970	0.462950
H4721	H472	0.763910	0.155600	0.515870
H4731	H473	0.794950	0.158170	0.389110
H4741	H474	0.849170	0.187930	0.362470
H4751	H475	0.908070	0.083910	0.367220
H4761	H476	0.980060	0.215700	0.389120
H4771	H477	0.936010	0.168140	0.406500
H4781	H478	0.905930	0.154440	0.291580
H4791	H479	0.948490	0.204320	0.275100
H4801	H480	0.853410	0.053360	0.395720
