data_OLAQOI_clean_PM
_symmetry_space_group_name_H-M	'P1'
_cell_length_a	34.580000
_cell_length_b	34.580000
_cell_length_c	20.760000
_cell_angle_alpha	90.000000
_cell_angle_beta	90.000000
_cell_angle_gamma	120.000000
_symmetry_Int_Tables_number 1

loop_
_symmetry_equiv_pos_as_xyz
'x,y,z'

loop_
_atom_site_label
_atom_site_type_symbol
_atom_site_fract_x
_atom_site_fract_y
_atom_site_fract_z
Cu11	Cu1	0.665780	0.687230	0.235170
Cu21	Cu2	0.709620	0.639860	0.302230
Cu31	Cu3	0.620120	0.552870	0.305100
Cu41	Cu4	0.574480	0.599140	0.231470
Cu51	Cu5	0.560260	0.704660	0.228220
Cu61	Cu6	0.667660	0.600200	0.125530
S11	S1	0.631200	0.727830	0.260420
S21	S2	0.633450	0.534560	0.407090
S31	S3	0.630270	0.634170	0.156380
S41	S4	0.676180	0.582260	0.228330
S51	S5	0.738300	0.712680	0.262830
S61	S6	0.550090	0.526880	0.264580
O11	O1	0.642810	0.420310	0.521300
O21	O2	0.600280	0.382200	0.434800
O31	O3	0.645700	0.648000	0.926600
O41	O4	0.671300	0.721100	0.963800
O51	O5	0.735500	0.513260	0.084100
O61	O6	0.684670	0.455190	0.141000
O71	O7	0.876600	0.828300	0.171900
O81	O8	0.831400	0.812700	0.095800
O91	O9	0.450500	0.373300	0.191500
O101	O10	0.520200	0.390300	0.168400
N11	N1	0.584950	0.766860	0.192000
H11	H1	0.572800	0.764900	0.151900
H21	H2	0.576500	0.782800	0.218100
N21	N2	0.685630	0.494920	0.459000
H31	H3	0.707200	0.489200	0.443400
H41	H4	0.685000	0.491700	0.503100
N31	N3	0.676380	0.632000	0.038700
H51	H5	0.705900	0.644700	0.026900
H61	H6	0.659700	0.611000	0.008000
N41	N4	0.686220	0.555960	0.095000
H71	H7	0.668900	0.541000	0.059900
H81	H8	0.715300	0.571900	0.081100
N51	N5	0.812600	0.804700	0.257800
H91	H9	0.813900	0.831900	0.254200
H101	H10	0.840800	0.810400	0.268500
N61	N6	0.475800	0.439600	0.287300
H111	H11	0.467400	0.416900	0.316700
H121	H12	0.450900	0.433200	0.263300
C11	C1	0.659300	0.789300	0.236000
C21	C2	0.633900	0.791100	0.186400
H131	H13	0.641100	0.778700	0.147700
C31	C3	0.655800	0.811300	0.293700
H141	H14	0.624700	0.803800	0.299800
H151	H15	0.674800	0.843700	0.289000
H161	H16	0.665600	0.801200	0.331200
C41	C4	0.700200	0.796800	0.217300
H171	H17	0.716300	0.794600	0.254700
H181	H18	0.717200	0.826700	0.198400
H191	H19	0.696600	0.774400	0.185200
C51	C5	0.609560	0.475930	0.437900
C61	C6	0.642120	0.460850	0.433100
H201	H20	0.646800	0.458600	0.386000
C71	C7	0.626300	0.418300	0.458200
C81	C8	0.596400	0.474800	0.507200
H211	H21	0.574600	0.484900	0.510400
H221	H22	0.622900	0.494500	0.532700
H231	H23	0.583200	0.444200	0.523600
C91	C9	0.566200	0.447100	0.398800
H241	H24	0.546100	0.459100	0.403800
H251	H25	0.551500	0.416300	0.414600
H261	H26	0.573700	0.447600	0.353100
C101	C10	0.622610	0.653470	0.075300
C111	C11	0.664000	0.666720	0.038130
H271	H27	0.688800	0.694300	0.058000
C121	C12	0.656600	0.677900	0.968380
C131	C13	0.581400	0.610800	0.042600
H281	H28	0.554200	0.602200	0.067300
H291	H29	0.587400	0.585900	0.042000
H301	H30	0.577500	0.618100	0.998300
C141	C14	0.614600	0.694900	0.084400
H311	H31	0.587200	0.685400	0.109100
H321	H32	0.611900	0.705800	0.042100
H331	H33	0.640000	0.718800	0.107600
C151	C15	0.705300	0.548850	0.207100
C161	C16	0.683110	0.523500	0.140500
H341	H34	0.650600	0.503400	0.149400
C171	C17	0.700600	0.494600	0.121300
C181	C18	0.752750	0.584130	0.201700
H351	H35	0.756200	0.604400	0.166300
H361	H36	0.771100	0.570400	0.193200
H371	H37	0.762400	0.601000	0.242100
C191	C19	0.694060	0.515430	0.259900
H381	H38	0.661900	0.494200	0.259600
H391	H39	0.702600	0.530900	0.301500
H401	H40	0.710400	0.499300	0.253200
C201	C20	0.785700	0.736730	0.202300
C211	C21	0.802840	0.785800	0.200900
H411	H41	0.777900	0.789600	0.183900
C221	C22	0.841970	0.810100	0.152400
C231	C23	0.817200	0.725700	0.219200
H421	H42	0.831800	0.741100	0.259300
H431	H43	0.839600	0.734900	0.184900
H441	H44	0.802900	0.693400	0.225500
C241	C24	0.766700	0.713700	0.147100
H451	H45	0.743000	0.719400	0.133300
H461	H46	0.754100	0.681600	0.154900
H471	H47	0.789500	0.723300	0.113300
C251	C25	0.529040	0.479870	0.205700
C261	C26	0.510300	0.438820	0.241900
H481	H48	0.534500	0.439300	0.268700
C271	C27	0.491500	0.395400	0.191100
C281	C28	0.493950	0.486640	0.165500
H491	H49	0.509400	0.515300	0.142800
H501	H50	0.471500	0.486400	0.194600
H511	H51	0.479200	0.462400	0.134000
C291	C29	0.570400	0.488900	0.163700
H521	H52	0.581900	0.517500	0.141200
H531	H53	0.561400	0.464800	0.132100
H541	H54	0.593800	0.489900	0.191500
K11	K1	0.403460	0.754400	0.020000
O111	O11	0.683800	0.418600	0.647400
K21	K2	0.689800	0.625400	0.849500
Cu71	Cu7	0.312770	0.978550	0.901840
Cu81	Cu8	0.360140	0.069760	0.968900
Cu91	Cu9	0.447130	0.067250	0.971770
Cu101	Cu10	0.400860	0.975340	0.898140
Cu111	Cu11	0.295340	0.855600	0.894890
Cu121	Cu12	0.399800	0.067460	0.792200
S71	S7	0.272170	0.903370	0.927090
S81	S8	0.465440	0.098890	0.073760
S91	S9	0.365830	0.996100	0.823050
S101	S10	0.417740	0.093920	0.895000
S111	S11	0.287320	0.025620	0.929500
S121	S12	0.473120	0.023210	0.931250
O121	O12	0.579690	0.222500	0.187970
O131	O13	0.617800	0.218080	0.101470
O141	O14	0.352000	0.997700	0.593270
O151	O15	0.278900	0.950200	0.630470
O161	O16	0.486740	0.222240	0.750770
O171	O17	0.544810	0.229480	0.807670
O181	O18	0.171700	0.048300	0.838570
O191	O19	0.187300	0.018700	0.762470
O201	O20	0.626700	0.077200	0.858170
O211	O21	0.609700	0.129900	0.835070
N71	N7	0.233140	0.818090	0.858670
H551	H55	0.235100	0.807900	0.818570
H561	H56	0.217200	0.793700	0.884770
N81	N8	0.505080	0.190710	0.125670
H571	H57	0.510800	0.218000	0.110070
H581	H58	0.508300	0.193300	0.169770
N91	N9	0.368000	0.044380	0.705370
H591	H59	0.355300	0.061200	0.693570
H601	H60	0.389000	0.048700	0.674670
N101	N10	0.444040	0.130260	0.761670
H611	H61	0.459000	0.127900	0.726570
H621	H62	0.428100	0.143400	0.747770
N111	N11	0.195300	0.007900	0.924470
H631	H63	0.168100	0.982000	0.920870
H641	H64	0.189600	0.030400	0.935170
N121	N12	0.560400	0.036200	0.953970
H651	H65	0.583100	0.050500	0.983370
H661	H66	0.566800	0.017700	0.929970
C301	C30	0.210700	0.870000	0.902670
C311	C31	0.208900	0.842800	0.853070
H671	H67	0.221300	0.862400	0.814370
C321	C32	0.188700	0.844500	0.960370
H681	H68	0.196200	0.820900	0.966470
H691	H69	0.156300	0.831100	0.955670
H701	H70	0.198800	0.864400	0.997870
C331	C33	0.203200	0.903400	0.883970
H711	H71	0.205400	0.921700	0.921370
H721	H72	0.173300	0.890500	0.865070
H731	H73	0.225600	0.922200	0.851870
C341	C34	0.524070	0.133630	0.104570
C351	C35	0.539150	0.181270	0.099770
H741	H74	0.541400	0.188200	0.052670
C361	C36	0.581700	0.208000	0.124870
C371	C37	0.525200	0.121600	0.173870
H751	H75	0.515100	0.089700	0.177070
H761	H76	0.505500	0.128400	0.199370
H771	H77	0.555800	0.139000	0.190270
C381	C38	0.552900	0.119100	0.065470
H781	H78	0.540900	0.087000	0.070470
H791	H79	0.583700	0.135200	0.081270
H801	H80	0.552400	0.126100	0.019770
C391	C39	0.346530	0.969140	0.741970
C401	C40	0.333280	0.997280	0.704800
H811	H81	0.305700	0.994500	0.724670
C411	C41	0.322100	0.978700	0.635050
C421	C42	0.389200	0.970600	0.709270
H821	H82	0.397800	0.952000	0.733970
H831	H83	0.414100	0.001500	0.708670
H841	H84	0.381900	0.959400	0.664970
C431	C43	0.305100	0.919700	0.751070
H851	H85	0.314600	0.901800	0.775770
H861	H86	0.294200	0.906100	0.708770
H871	H87	0.281200	0.921200	0.774270
C441	C44	0.451150	0.156450	0.873770
C451	C45	0.476500	0.159610	0.807170
H881	H88	0.496600	0.147200	0.816070
C461	C46	0.505400	0.206000	0.787970
C471	C47	0.415870	0.168620	0.868370
H891	H89	0.395600	0.151800	0.832970
H901	H90	0.429600	0.200700	0.859870
H911	H91	0.399000	0.161400	0.908770
C481	C48	0.484570	0.178630	0.926570
H921	H92	0.505800	0.167700	0.926270
H931	H93	0.469100	0.171700	0.968170
H941	H94	0.500700	0.211100	0.919870
C491	C49	0.263270	0.048970	0.868970
C501	C50	0.214200	0.017040	0.867570
H951	H95	0.210400	0.988300	0.850570
C511	C51	0.189900	0.031870	0.819070
C521	C52	0.274300	0.091500	0.885870
H961	H96	0.258900	0.090700	0.925970
H971	H97	0.265100	0.104700	0.851570
H981	H98	0.306600	0.109500	0.892170
C531	C53	0.286300	0.053000	0.813770
H991	H99	0.280600	0.023600	0.799970
H1001	H100	0.318400	0.072500	0.821570
H1011	H101	0.276700	0.066200	0.779970
C541	C54	0.520130	0.049170	0.872370
C551	C55	0.561180	0.071480	0.908570
H1021	H102	0.560700	0.095200	0.935370
C561	C56	0.604600	0.096100	0.857770
C571	C57	0.513360	0.007310	0.832170
H1031	H103	0.484700	0.994100	0.809470
H1041	H104	0.513600	0.985100	0.861270
H1051	H105	0.537600	0.016800	0.800670
C581	C58	0.511100	0.081500	0.830370
H1061	H106	0.482500	0.064400	0.807870
H1071	H107	0.535200	0.096600	0.798770
H1081	H108	0.510100	0.103900	0.858170
K31	K3	0.245600	0.649060	0.686670
O221	O22	0.581400	0.265200	0.314070
K41	K4	0.374600	0.064400	0.516170
Cu131	Cu13	0.021450	0.334220	0.568500
Cu141	Cu14	0.930240	0.290380	0.635560
Cu151	Cu15	0.932750	0.379880	0.638430
Cu161	Cu16	0.024660	0.425520	0.564800
Cu171	Cu17	0.144400	0.439740	0.561550
Cu181	Cu18	0.932540	0.332340	0.458860
S131	S13	0.096630	0.368800	0.593750
S141	S14	0.901110	0.366550	0.740420
S151	S15	0.003900	0.369730	0.489710
S161	S16	0.906080	0.323820	0.561660
S171	S17	0.974380	0.261700	0.596160
S181	S18	0.976790	0.449910	0.597910
O231	O23	0.777500	0.357190	0.854630
O241	O24	0.781920	0.399720	0.768130
O251	O25	0.002300	0.354300	0.259930
O261	O26	0.049800	0.328700	0.297130
O271	O27	0.777760	0.264500	0.417430
O281	O28	0.770520	0.315330	0.474330
O291	O29	0.951700	0.123400	0.505230
O301	O30	0.981300	0.168600	0.429130
O311	O31	0.922800	0.549500	0.524830
O321	O32	0.870100	0.479800	0.501730
N131	N13	0.181910	0.415050	0.525330
H1091	H109	0.192100	0.427200	0.485230
H1101	H110	0.206300	0.423500	0.551430
N141	N14	0.809290	0.314370	0.792330
H1111	H111	0.782000	0.292800	0.776730
H1121	H112	0.806700	0.315000	0.836430
N151	N15	0.955620	0.323620	0.372030
H1131	H113	0.938800	0.294100	0.360230
H1141	H114	0.951300	0.340300	0.341330
N161	N16	0.869740	0.313780	0.428330
H1151	H115	0.872100	0.331100	0.393230
H1161	H116	0.856600	0.284700	0.414430
N171	N17	0.992100	0.187400	0.591130
H1171	H117	0.018000	0.186100	0.587530
H1181	H118	0.969600	0.159200	0.601830
N181	N18	0.963800	0.524200	0.620630
H1191	H119	0.949500	0.532600	0.650030
H1201	H120	0.982300	0.549100	0.596630
C591	C59	0.130000	0.340700	0.569330
C601	C60	0.157200	0.366100	0.519730
H1211	H121	0.137600	0.358900	0.481030
C611	C61	0.155500	0.344200	0.627030
H1221	H122	0.179100	0.375300	0.633130
H1231	H123	0.168900	0.325200	0.622330
H1241	H124	0.135600	0.334400	0.664530
C621	C62	0.096600	0.299800	0.550630
H1251	H125	0.078300	0.283700	0.588030
H1261	H126	0.109500	0.282800	0.531730
H1271	H127	0.077800	0.303400	0.518530
C631	C63	0.866370	0.390440	0.771230
C641	C64	0.818730	0.357880	0.766430
H1281	H128	0.811800	0.353200	0.719330
C651	C65	0.792000	0.373700	0.791530
C661	C66	0.878400	0.403600	0.840530
H1291	H129	0.910300	0.425400	0.843730
H1301	H130	0.871600	0.377100	0.866030
H1311	H131	0.861000	0.416800	0.856930
C671	C67	0.880900	0.433800	0.732130
H1321	H132	0.913000	0.453900	0.737130
H1331	H133	0.864800	0.448500	0.747930
H1341	H134	0.873900	0.426300	0.686430
C681	C68	0.030860	0.377390	0.408630
C691	C69	0.002720	0.336000	0.371460
H1351	H135	0.005500	0.311200	0.391330
C701	C70	0.021300	0.343400	0.301710
C711	C71	0.029400	0.418600	0.375930
H1361	H136	0.048000	0.445800	0.400630
H1371	H137	0.998500	0.412600	0.375330
H1381	H138	0.040600	0.422500	0.331630
C721	C72	0.080300	0.385400	0.417730
H1391	H139	0.098200	0.412800	0.442430
H1401	H140	0.093900	0.388100	0.375430
H1411	H141	0.078800	0.360000	0.440930
C731	C73	0.843550	0.294700	0.540430
C741	C74	0.840390	0.316890	0.473830
H1421	H142	0.852800	0.349400	0.482730
C751	C75	0.794000	0.299400	0.454630
C761	C76	0.831380	0.247250	0.535030
H1431	H143	0.848200	0.243800	0.499630
H1441	H144	0.799300	0.228900	0.526530
H1451	H145	0.838600	0.237600	0.575430
C771	C77	0.821370	0.305940	0.593230
H1461	H146	0.832300	0.338100	0.592930
H1471	H147	0.828300	0.297400	0.634830
H1481	H148	0.788900	0.289600	0.586530
C781	C78	0.951030	0.214300	0.535630
C791	C79	0.982960	0.197160	0.534230
H1491	H149	0.011700	0.222100	0.517230
C801	C80	0.968130	0.158030	0.485730
C811	C81	0.908500	0.182800	0.552530
H1501	H150	0.909300	0.168200	0.592630
H1511	H151	0.895300	0.160400	0.518230
H1521	H152	0.890500	0.197100	0.558830
C821	C82	0.947000	0.233300	0.480430
H1531	H153	0.976400	0.257000	0.466630
H1541	H154	0.927500	0.245900	0.488230
H1551	H155	0.933800	0.210500	0.446630
C831	C83	0.950830	0.470960	0.539030
C841	C84	0.928520	0.489700	0.575230
H1561	H156	0.904800	0.465500	0.602030
C851	C85	0.903900	0.508500	0.524430
C861	C86	0.992690	0.506050	0.498830
H1571	H157	0.005900	0.490600	0.476130
H1581	H158	0.014900	0.528500	0.527930
H1591	H159	0.983200	0.520800	0.467330
C871	C87	0.918500	0.429600	0.497030
H1601	H160	0.935600	0.418100	0.474530
H1611	H161	0.903400	0.438600	0.465430
H1621	H162	0.896100	0.406200	0.524830
K51	K5	0.350940	0.596540	0.353330
O331	O33	0.734800	0.316200	0.980730
K61	K6	0.935600	0.310200	0.182830
Cu191	Cu19	0.334220	0.312770	0.735170
Cu201	Cu20	0.290380	0.360140	0.802230
Cu211	Cu21	0.379880	0.447130	0.805100
Cu221	Cu22	0.425520	0.400860	0.731470
Cu231	Cu23	0.439740	0.295340	0.728220
Cu241	Cu24	0.332340	0.399800	0.625530
S191	S19	0.368800	0.272170	0.760420
S201	S20	0.366550	0.465440	0.907090
S211	S21	0.369730	0.365830	0.656380
S221	S22	0.323820	0.417740	0.728330
S231	S23	0.261700	0.287320	0.762830
S241	S24	0.449910	0.473120	0.764580
O341	O34	0.357190	0.579690	0.021300
O351	O35	0.399720	0.617800	0.934800
O361	O36	0.354300	0.352000	0.426600
O371	O37	0.328700	0.278900	0.463800
O381	O38	0.264500	0.486740	0.584100
O391	O39	0.315330	0.544810	0.641000
O401	O40	0.123400	0.171700	0.671900
O411	O41	0.168600	0.187300	0.595800
O421	O42	0.549500	0.626700	0.691500
O431	O43	0.479800	0.609700	0.668400
N191	N19	0.415050	0.233140	0.692000
H1631	H163	0.427200	0.235100	0.651900
H1641	H164	0.423500	0.217200	0.718100
N201	N20	0.314370	0.505080	0.959000
H1651	H165	0.292800	0.510800	0.943400
H1661	H166	0.315000	0.508300	0.003100
N211	N21	0.323620	0.368000	0.538700
H1671	H167	0.294100	0.355300	0.526900
H1681	H168	0.340300	0.389000	0.508000
N221	N22	0.313780	0.444040	0.595000
H1691	H169	0.331100	0.459000	0.559900
H1701	H170	0.284700	0.428100	0.581100
N231	N23	0.187400	0.195300	0.757800
H1711	H171	0.186100	0.168100	0.754200
H1721	H172	0.159200	0.189600	0.768500
N241	N24	0.524200	0.560400	0.787300
H1731	H173	0.532600	0.583100	0.816700
H1741	H174	0.549100	0.566800	0.763300
C881	C88	0.340700	0.210700	0.736000
C891	C89	0.366100	0.208900	0.686400
H1751	H175	0.358900	0.221300	0.647700
C901	C90	0.344200	0.188700	0.793700
H1761	H176	0.375300	0.196200	0.799800
H1771	H177	0.325200	0.156300	0.789000
H1781	H178	0.334400	0.198800	0.831200
C911	C91	0.299800	0.203200	0.717300
H1791	H179	0.283700	0.205400	0.754700
H1801	H180	0.282800	0.173300	0.698400
H1811	H181	0.303400	0.225600	0.685200
C921	C92	0.390440	0.524070	0.937900
C931	C93	0.357880	0.539150	0.933100
H1821	H182	0.353200	0.541400	0.886000
C941	C94	0.373700	0.581700	0.958200
C951	C95	0.403600	0.525200	0.007200
H1831	H183	0.425400	0.515100	0.010400
H1841	H184	0.377100	0.505500	0.032700
H1851	H185	0.416800	0.555800	0.023600
C961	C96	0.433800	0.552900	0.898800
H1861	H186	0.453900	0.540900	0.903800
H1871	H187	0.448500	0.583700	0.914600
H1881	H188	0.426300	0.552400	0.853100
C971	C97	0.377390	0.346530	0.575300
C981	C98	0.336000	0.333280	0.538130
H1891	H189	0.311200	0.305700	0.558000
C991	C99	0.343400	0.322100	0.468380
C1001	C100	0.418600	0.389200	0.542600
H1901	H190	0.445800	0.397800	0.567300
H1911	H191	0.412600	0.414100	0.542000
H1921	H192	0.422500	0.381900	0.498300
C1011	C101	0.385400	0.305100	0.584400
H1931	H193	0.412800	0.314600	0.609100
H1941	H194	0.388100	0.294200	0.542100
H1951	H195	0.360000	0.281200	0.607600
C1021	C102	0.294700	0.451150	0.707100
C1031	C103	0.316890	0.476500	0.640500
H1961	H196	0.349400	0.496600	0.649400
C1041	C104	0.299400	0.505400	0.621300
C1051	C105	0.247250	0.415870	0.701700
H1971	H197	0.243800	0.395600	0.666300
H1981	H198	0.228900	0.429600	0.693200
H1991	H199	0.237600	0.399000	0.742100
C1061	C106	0.305940	0.484570	0.759900
H2001	H200	0.338100	0.505800	0.759600
H2011	H201	0.297400	0.469100	0.801500
H2021	H202	0.289600	0.500700	0.753200
C1071	C107	0.214300	0.263270	0.702300
C1081	C108	0.197160	0.214200	0.700900
H2031	H203	0.222100	0.210400	0.683900
C1091	C109	0.158030	0.189900	0.652400
C1101	C110	0.182800	0.274300	0.719200
H2041	H204	0.168200	0.258900	0.759300
H2051	H205	0.160400	0.265100	0.684900
H2061	H206	0.197100	0.306600	0.725500
C1111	C111	0.233300	0.286300	0.647100
H2071	H207	0.257000	0.280600	0.633300
H2081	H208	0.245900	0.318400	0.654900
H2091	H209	0.210500	0.276700	0.613300
C1121	C112	0.470960	0.520130	0.705700
C1131	C113	0.489700	0.561180	0.741900
H2101	H210	0.465500	0.560700	0.768700
C1141	C114	0.508500	0.604600	0.691100
C1151	C115	0.506050	0.513360	0.665500
H2111	H211	0.490600	0.484700	0.642800
H2121	H212	0.528500	0.513600	0.694600
H2131	H213	0.520800	0.537600	0.634000
C1161	C116	0.429600	0.511100	0.663700
H2141	H214	0.418100	0.482500	0.641200
H2151	H215	0.438600	0.535200	0.632100
H2161	H216	0.406200	0.510100	0.691500
K71	K7	0.596540	0.245600	0.520000
O441	O44	0.316200	0.581400	0.147400
K81	K8	0.310200	0.374600	0.349500
Cu251	Cu25	0.687230	0.021450	0.401840
Cu261	Cu26	0.639860	0.930240	0.468900
Cu271	Cu27	0.552870	0.932750	0.471770
Cu281	Cu28	0.599140	0.024660	0.398140
Cu291	Cu29	0.704660	0.144400	0.394890
Cu301	Cu30	0.600200	0.932540	0.292200
S251	S25	0.727830	0.096630	0.427090
S261	S26	0.534560	0.901110	0.573760
S271	S27	0.634170	0.003900	0.323050
S281	S28	0.582260	0.906080	0.395000
S291	S29	0.712680	0.974380	0.429500
S301	S30	0.526880	0.976790	0.431250
O451	O45	0.420310	0.777500	0.687970
O461	O46	0.382200	0.781920	0.601470
O471	O47	0.648000	0.002300	0.093270
O481	O48	0.721100	0.049800	0.130470
O491	O49	0.513260	0.777760	0.250770
O501	O50	0.455190	0.770520	0.307670
O511	O51	0.828300	0.951700	0.338570
O521	O52	0.812700	0.981300	0.262470
O531	O53	0.373300	0.922800	0.358170
O541	O54	0.390300	0.870100	0.335070
N251	N25	0.766860	0.181910	0.358670
H2171	H217	0.764900	0.192100	0.318570
H2181	H218	0.782800	0.206300	0.384770
N261	N26	0.494920	0.809290	0.625670
H2191	H219	0.489200	0.782000	0.610070
H2201	H220	0.491700	0.806700	0.669770
N271	N27	0.632000	0.955620	0.205370
H2211	H221	0.644700	0.938800	0.193570
H2221	H222	0.611000	0.951300	0.174670
N281	N28	0.555960	0.869740	0.261670
H2231	H223	0.541000	0.872100	0.226570
H2241	H224	0.571900	0.856600	0.247770
N291	N29	0.804700	0.992100	0.424470
H2251	H225	0.831900	0.018000	0.420870
H2261	H226	0.810400	0.969600	0.435170
N301	N30	0.439600	0.963800	0.453970
H2271	H227	0.416900	0.949500	0.483370
H2281	H228	0.433200	0.982300	0.429970
C1171	C117	0.789300	0.130000	0.402670
C1181	C118	0.791100	0.157200	0.353070
H2291	H229	0.778700	0.137600	0.314370
C1191	C119	0.811300	0.155500	0.460370
H2301	H230	0.803800	0.179100	0.466470
H2311	H231	0.843700	0.168900	0.455670
H2321	H232	0.801200	0.135600	0.497870
C1201	C120	0.796800	0.096600	0.383970
H2331	H233	0.794600	0.078300	0.421370
H2341	H234	0.826700	0.109500	0.365070
H2351	H235	0.774400	0.077800	0.351870
C1211	C121	0.475930	0.866370	0.604570
C1221	C122	0.460850	0.818730	0.599770
H2361	H236	0.458600	0.811800	0.552670
C1231	C123	0.418300	0.792000	0.624870
C1241	C124	0.474800	0.878400	0.673870
H2371	H237	0.484900	0.910300	0.677070
H2381	H238	0.494500	0.871600	0.699370
H2391	H239	0.444200	0.861000	0.690270
C1251	C125	0.447100	0.880900	0.565470
H2401	H240	0.459100	0.913000	0.570470
H2411	H241	0.416300	0.864800	0.581270
H2421	H242	0.447600	0.873900	0.519770
C1261	C126	0.653470	0.030860	0.241970
C1271	C127	0.666720	0.002720	0.204800
H2431	H243	0.694300	0.005500	0.224670
C1281	C128	0.677900	0.021300	0.135050
C1291	C129	0.610800	0.029400	0.209270
H2441	H244	0.602200	0.048000	0.233970
H2451	H245	0.585900	0.998500	0.208670
H2461	H246	0.618100	0.040600	0.164970
C1301	C130	0.694900	0.080300	0.251070
H2471	H247	0.685400	0.098200	0.275770
H2481	H248	0.705800	0.093900	0.208770
H2491	H249	0.718800	0.078800	0.274270
C1311	C131	0.548850	0.843550	0.373770
C1321	C132	0.523500	0.840390	0.307170
H2501	H250	0.503400	0.852800	0.316070
C1331	C133	0.494600	0.794000	0.287970
C1341	C134	0.584130	0.831380	0.368370
H2511	H251	0.604400	0.848200	0.332970
H2521	H252	0.570400	0.799300	0.359870
H2531	H253	0.601000	0.838600	0.408770
C1351	C135	0.515430	0.821370	0.426570
H2541	H254	0.494200	0.832300	0.426270
H2551	H255	0.530900	0.828300	0.468170
H2561	H256	0.499300	0.788900	0.419870
C1361	C136	0.736730	0.951030	0.368970
C1371	C137	0.785800	0.982960	0.367570
H2571	H257	0.789600	0.011700	0.350570
C1381	C138	0.810100	0.968130	0.319070
C1391	C139	0.725700	0.908500	0.385870
H2581	H258	0.741100	0.909300	0.425970
H2591	H259	0.734900	0.895300	0.351570
H2601	H260	0.693400	0.890500	0.392170
C1401	C140	0.713700	0.947000	0.313770
H2611	H261	0.719400	0.976400	0.299970
H2621	H262	0.681600	0.927500	0.321570
H2631	H263	0.723300	0.933800	0.279970
C1411	C141	0.479870	0.950830	0.372370
C1421	C142	0.438820	0.928520	0.408570
H2641	H264	0.439300	0.904800	0.435370
C1431	C143	0.395400	0.903900	0.357770
C1441	C144	0.486640	0.992690	0.332170
H2651	H265	0.515300	0.005900	0.309470
H2661	H266	0.486400	0.014900	0.361270
H2671	H267	0.462400	0.983200	0.300670
C1451	C145	0.488900	0.918500	0.330370
H2681	H268	0.517500	0.935600	0.307870
H2691	H269	0.464800	0.903400	0.298770
H2701	H270	0.489900	0.896100	0.358170
K91	K9	0.754400	0.350940	0.186670
O551	O55	0.418600	0.734800	0.814070
K101	K10	0.625400	0.935600	0.016170
Cu311	Cu31	0.978550	0.665780	0.068500
Cu321	Cu32	0.069760	0.709620	0.135560
Cu331	Cu33	0.067250	0.620120	0.138430
Cu341	Cu34	0.975340	0.574480	0.064800
Cu351	Cu35	0.855600	0.560260	0.061550
Cu361	Cu36	0.067460	0.667660	0.958860
S311	S31	0.903370	0.631200	0.093750
S321	S32	0.098890	0.633450	0.240420
S331	S33	0.996100	0.630270	0.989710
S341	S34	0.093920	0.676180	0.061660
S351	S35	0.025620	0.738300	0.096160
S361	S36	0.023210	0.550090	0.097910
O561	O56	0.222500	0.642810	0.354630
O571	O57	0.218080	0.600280	0.268130
O581	O58	0.997700	0.645700	0.759930
O591	O59	0.950200	0.671300	0.797130
O601	O60	0.222240	0.735500	0.917430
O611	O61	0.229480	0.684670	0.974330
O621	O62	0.048300	0.876600	0.005230
O631	O63	0.018700	0.831400	0.929130
O641	O64	0.077200	0.450500	0.024830
O651	O65	0.129900	0.520200	0.001730
N311	N31	0.818090	0.584950	0.025330
H2711	H271	0.807900	0.572800	0.985230
H2721	H272	0.793700	0.576500	0.051430
N321	N32	0.190710	0.685630	0.292330
H2731	H273	0.218000	0.707200	0.276730
H2741	H274	0.193300	0.685000	0.336430
N331	N33	0.044380	0.676380	0.872030
H2751	H275	0.061200	0.705900	0.860230
H2761	H276	0.048700	0.659700	0.841330
N341	N34	0.130260	0.686220	0.928330
H2771	H277	0.127900	0.668900	0.893230
H2781	H278	0.143400	0.715300	0.914430
N351	N35	0.007900	0.812600	0.091130
H2791	H279	0.982000	0.813900	0.087530
H2801	H280	0.030400	0.840800	0.101830
N361	N36	0.036200	0.475800	0.120630
H2811	H281	0.050500	0.467400	0.150030
H2821	H282	0.017700	0.450900	0.096630
C1461	C146	0.870000	0.659300	0.069330
C1471	C147	0.842800	0.633900	0.019730
H2831	H283	0.862400	0.641100	0.981030
C1481	C148	0.844500	0.655800	0.127030
H2841	H284	0.820900	0.624700	0.133130
H2851	H285	0.831100	0.674800	0.122330
H2861	H286	0.864400	0.665600	0.164530
C1491	C149	0.903400	0.700200	0.050630
H2871	H287	0.921700	0.716300	0.088030
H2881	H288	0.890500	0.717200	0.031730
H2891	H289	0.922200	0.696600	0.018530
C1501	C150	0.133630	0.609560	0.271230
C1511	C151	0.181270	0.642120	0.266430
H2901	H290	0.188200	0.646800	0.219330
C1521	C152	0.208000	0.626300	0.291530
C1531	C153	0.121600	0.596400	0.340530
H2911	H291	0.089700	0.574600	0.343730
H2921	H292	0.128400	0.622900	0.366030
H2931	H293	0.139000	0.583200	0.356930
C1541	C154	0.119100	0.566200	0.232130
H2941	H294	0.087000	0.546100	0.237130
H2951	H295	0.135200	0.551500	0.247930
H2961	H296	0.126100	0.573700	0.186430
C1551	C155	0.969140	0.622610	0.908630
C1561	C156	0.997280	0.664000	0.871460
H2971	H297	0.994500	0.688800	0.891330
C1571	C157	0.978700	0.656600	0.801710
C1581	C158	0.970600	0.581400	0.875930
H2981	H298	0.952000	0.554200	0.900630
H2991	H299	0.001500	0.587400	0.875330
H3001	H300	0.959400	0.577500	0.831630
C1591	C159	0.919700	0.614600	0.917730
H3011	H301	0.901800	0.587200	0.942430
H3021	H302	0.906100	0.611900	0.875430
H3031	H303	0.921200	0.640000	0.940930
C1601	C160	0.156450	0.705300	0.040430
C1611	C161	0.159610	0.683110	0.973830
H3041	H304	0.147200	0.650600	0.982730
C1621	C162	0.206000	0.700600	0.954630
C1631	C163	0.168620	0.752750	0.035030
H3051	H305	0.151800	0.756200	0.999630
H3061	H306	0.200700	0.771100	0.026530
H3071	H307	0.161400	0.762400	0.075430
C1641	C164	0.178630	0.694060	0.093230
H3081	H308	0.167700	0.661900	0.092930
H3091	H309	0.171700	0.702600	0.134830
H3101	H310	0.211100	0.710400	0.086530
C1651	C165	0.048970	0.785700	0.035630
C1661	C166	0.017040	0.802840	0.034230
H3111	H311	0.988300	0.777900	0.017230
C1671	C167	0.031870	0.841970	0.985730
C1681	C168	0.091500	0.817200	0.052530
H3121	H312	0.090700	0.831800	0.092630
H3131	H313	0.104700	0.839600	0.018230
H3141	H314	0.109500	0.802900	0.058830
C1691	C169	0.053000	0.766700	0.980430
H3151	H315	0.023600	0.743000	0.966630
H3161	H316	0.072500	0.754100	0.988230
H3171	H317	0.066200	0.789500	0.946630
C1701	C170	0.049170	0.529040	0.039030
C1711	C171	0.071480	0.510300	0.075230
H3181	H318	0.095200	0.534500	0.102030
C1721	C172	0.096100	0.491500	0.024430
C1731	C173	0.007310	0.493950	0.998830
H3191	H319	0.994100	0.509400	0.976130
H3201	H320	0.985100	0.471500	0.027930
H3211	H321	0.016800	0.479200	0.967330
C1741	C174	0.081500	0.570400	0.997030
H3221	H322	0.064400	0.581900	0.974530
H3231	H323	0.096600	0.561400	0.965430
H3241	H324	0.103900	0.593800	0.024830
K111	K11	0.649060	0.403460	0.853330
O661	O66	0.265200	0.683800	0.480730
K121	K12	0.064400	0.689800	0.682830
Cu371	Cu37	0.687230	0.665780	0.431500
Cu381	Cu38	0.639860	0.709620	0.364440
Cu391	Cu39	0.552870	0.620120	0.361570
Cu401	Cu40	0.599140	0.574480	0.435200
Cu411	Cu41	0.704660	0.560260	0.438450
Cu421	Cu42	0.600200	0.667660	0.541140
S371	S37	0.727830	0.631200	0.406250
S381	S38	0.534560	0.633450	0.259580
S391	S39	0.634170	0.630270	0.510290
S401	S40	0.582260	0.676180	0.438340
S411	S41	0.712680	0.738300	0.403840
S421	S42	0.526880	0.550090	0.402090
O671	O67	0.420310	0.642810	0.145370
O681	O68	0.382200	0.600280	0.231870
O691	O69	0.648000	0.645700	0.740070
O701	O70	0.721100	0.671300	0.702870
O711	O71	0.513260	0.735500	0.582570
O721	O72	0.455190	0.684670	0.525670
O731	O73	0.828300	0.876600	0.494770
O741	O74	0.812700	0.831400	0.570870
O751	O75	0.373300	0.450500	0.475170
O761	O76	0.390300	0.520200	0.498270
N371	N37	0.766860	0.584950	0.474670
H3251	H325	0.764900	0.572800	0.514770
H3261	H326	0.782800	0.576500	0.448570
N381	N38	0.494920	0.685630	0.207670
H3271	H327	0.489200	0.707200	0.223270
H3281	H328	0.491700	0.685000	0.163570
N391	N39	0.632000	0.676380	0.627970
H3291	H329	0.644700	0.705900	0.639770
H3301	H330	0.611000	0.659700	0.658670
N401	N40	0.555960	0.686220	0.571670
H3311	H331	0.541000	0.668900	0.606770
H3321	H332	0.571900	0.715300	0.585570
N411	N41	0.804700	0.812600	0.408870
H3331	H333	0.831900	0.813900	0.412470
H3341	H334	0.810400	0.840800	0.398170
N421	N42	0.439600	0.475800	0.379370
H3351	H335	0.416900	0.467400	0.349970
H3361	H336	0.433200	0.450900	0.403370
C1751	C175	0.789300	0.659300	0.430670
C1761	C176	0.791100	0.633900	0.480270
H3371	H337	0.778700	0.641100	0.518970
C1771	C177	0.811300	0.655800	0.372970
H3381	H338	0.803800	0.624700	0.366870
H3391	H339	0.843700	0.674800	0.377670
H3401	H340	0.801200	0.665600	0.335470
C1781	C178	0.796800	0.700200	0.449370
H3411	H341	0.794600	0.716300	0.411970
H3421	H342	0.826700	0.717200	0.468270
H3431	H343	0.774400	0.696600	0.481470
C1791	C179	0.475930	0.609560	0.228770
C1801	C180	0.460850	0.642120	0.233570
H3441	H344	0.458600	0.646800	0.280670
C1811	C181	0.418300	0.626300	0.208470
C1821	C182	0.474800	0.596400	0.159470
H3451	H345	0.484900	0.574600	0.156270
H3461	H346	0.494500	0.622900	0.133970
H3471	H347	0.444200	0.583200	0.143070
C1831	C183	0.447100	0.566200	0.267870
H3481	H348	0.459100	0.546100	0.262870
H3491	H349	0.416300	0.551500	0.252070
H3501	H350	0.447600	0.573700	0.313570
C1841	C184	0.653470	0.622610	0.591370
C1851	C185	0.666720	0.664000	0.628540
H3511	H351	0.694300	0.688800	0.608670
C1861	C186	0.677900	0.656600	0.698290
C1871	C187	0.610800	0.581400	0.624070
H3521	H352	0.602200	0.554200	0.599370
H3531	H353	0.585900	0.587400	0.624670
H3541	H354	0.618100	0.577500	0.668370
C1881	C188	0.694900	0.614600	0.582270
H3551	H355	0.685400	0.587200	0.557570
H3561	H356	0.705800	0.611900	0.624570
H3571	H357	0.718800	0.640000	0.559070
C1891	C189	0.548850	0.705300	0.459570
C1901	C190	0.523500	0.683110	0.526170
H3581	H358	0.503400	0.650600	0.517270
C1911	C191	0.494600	0.700600	0.545370
C1921	C192	0.584130	0.752750	0.464970
H3591	H359	0.604400	0.756200	0.500370
H3601	H360	0.570400	0.771100	0.473470
H3611	H361	0.601000	0.762400	0.424570
C1931	C193	0.515430	0.694060	0.406770
H3621	H362	0.494200	0.661900	0.407070
H3631	H363	0.530900	0.702600	0.365170
H3641	H364	0.499300	0.710400	0.413470
C1941	C194	0.736730	0.785700	0.464370
C1951	C195	0.785800	0.802840	0.465770
H3651	H365	0.789600	0.777900	0.482770
C1961	C196	0.810100	0.841970	0.514270
C1971	C197	0.725700	0.817200	0.447470
H3661	H366	0.741100	0.831800	0.407370
H3671	H367	0.734900	0.839600	0.481770
H3681	H368	0.693400	0.802900	0.441170
C1981	C198	0.713700	0.766700	0.519570
H3691	H369	0.719400	0.743000	0.533370
H3701	H370	0.681600	0.754100	0.511770
H3711	H371	0.723300	0.789500	0.553370
C1991	C199	0.479870	0.529040	0.460970
C2001	C200	0.438820	0.510300	0.424770
H3721	H372	0.439300	0.534500	0.397970
C2011	C201	0.395400	0.491500	0.475570
C2021	C202	0.486640	0.493950	0.501170
H3731	H373	0.515300	0.509400	0.523870
H3741	H374	0.486400	0.471500	0.472070
H3751	H375	0.462400	0.479200	0.532670
C2031	C203	0.488900	0.570400	0.502970
H3761	H376	0.517500	0.581900	0.525470
H3771	H377	0.464800	0.561400	0.534570
H3781	H378	0.489900	0.593800	0.475170
K131	K13	0.754400	0.403460	0.646670
O771	O77	0.418600	0.683800	0.019270
K141	K14	0.625400	0.689800	0.817170
Cu431	Cu43	0.978550	0.312770	0.764830
Cu441	Cu44	0.069760	0.360140	0.697770
Cu451	Cu45	0.067250	0.447130	0.694900
Cu461	Cu46	0.975340	0.400860	0.768530
Cu471	Cu47	0.855600	0.295340	0.771780
Cu481	Cu48	0.067460	0.399800	0.874470
S431	S43	0.903370	0.272170	0.739580
S441	S44	0.098890	0.465440	0.592910
S451	S45	0.996100	0.365830	0.843620
S461	S46	0.093920	0.417740	0.771670
S471	S47	0.025620	0.287320	0.737170
S481	S48	0.023210	0.473120	0.735420
O781	O78	0.222500	0.579690	0.478700
O791	O79	0.218080	0.617800	0.565200
O801	O80	0.997700	0.352000	0.073400
O811	O81	0.950200	0.278900	0.036200
O821	O82	0.222240	0.486740	0.915900
O831	O83	0.229480	0.544810	0.859000
O841	O84	0.048300	0.171700	0.828100
O851	O85	0.018700	0.187300	0.904200
O861	O86	0.077200	0.626700	0.808500
O871	O87	0.129900	0.609700	0.831600
N431	N43	0.818090	0.233140	0.808000
H3791	H379	0.807900	0.235100	0.848100
H3801	H380	0.793700	0.217200	0.781900
N441	N44	0.190710	0.505080	0.541000
H3811	H381	0.218000	0.510800	0.556600
H3821	H382	0.193300	0.508300	0.496900
N451	N45	0.044380	0.368000	0.961300
H3831	H383	0.061200	0.355300	0.973100
H3841	H384	0.048700	0.389000	0.992000
N461	N46	0.130260	0.444040	0.905000
H3851	H385	0.127900	0.459000	0.940100
H3861	H386	0.143400	0.428100	0.918900
N471	N47	0.007900	0.195300	0.742200
H3871	H387	0.982000	0.168100	0.745800
H3881	H388	0.030400	0.189600	0.731500
N481	N48	0.036200	0.560400	0.712700
H3891	H389	0.050500	0.583100	0.683300
H3901	H390	0.017700	0.566800	0.736700
C2041	C204	0.870000	0.210700	0.764000
C2051	C205	0.842800	0.208900	0.813600
H3911	H391	0.862400	0.221300	0.852300
C2061	C206	0.844500	0.188700	0.706300
H3921	H392	0.820900	0.196200	0.700200
H3931	H393	0.831100	0.156300	0.711000
H3941	H394	0.864400	0.198800	0.668800
C2071	C207	0.903400	0.203200	0.782700
H3951	H395	0.921700	0.205400	0.745300
H3961	H396	0.890500	0.173300	0.801600
H3971	H397	0.922200	0.225600	0.814800
C2081	C208	0.133630	0.524070	0.562100
C2091	C209	0.181270	0.539150	0.566900
H3981	H398	0.188200	0.541400	0.614000
C2101	C210	0.208000	0.581700	0.541800
C2111	C211	0.121600	0.525200	0.492800
H3991	H399	0.089700	0.515100	0.489600
H4001	H400	0.128400	0.505500	0.467300
H4011	H401	0.139000	0.555800	0.476400
C2121	C212	0.119100	0.552900	0.601200
H4021	H402	0.087000	0.540900	0.596200
H4031	H403	0.135200	0.583700	0.585400
H4041	H404	0.126100	0.552400	0.646900
C2131	C213	0.969140	0.346530	0.924700
C2141	C214	0.997280	0.333280	0.961870
H4051	H405	0.994500	0.305700	0.942000
C2151	C215	0.978700	0.322100	0.031620
C2161	C216	0.970600	0.389200	0.957400
H4061	H406	0.952000	0.397800	0.932700
H4071	H407	0.001500	0.414100	0.958000
H4081	H408	0.959400	0.381900	0.001700
C2171	C217	0.919700	0.305100	0.915600
H4091	H409	0.901800	0.314600	0.890900
H4101	H410	0.906100	0.294200	0.957900
H4111	H411	0.921200	0.281200	0.892400
C2181	C218	0.156450	0.451150	0.792900
C2191	C219	0.159610	0.476500	0.859500
H4121	H412	0.147200	0.496600	0.850600
C2201	C220	0.206000	0.505400	0.878700
C2211	C221	0.168620	0.415870	0.798300
H4131	H413	0.151800	0.395600	0.833700
H4141	H414	0.200700	0.429600	0.806800
H4151	H415	0.161400	0.399000	0.757900
C2221	C222	0.178630	0.484570	0.740100
H4161	H416	0.167700	0.505800	0.740400
H4171	H417	0.171700	0.469100	0.698500
H4181	H418	0.211100	0.500700	0.746800
C2231	C223	0.048970	0.263270	0.797700
C2241	C224	0.017040	0.214200	0.799100
H4191	H419	0.988300	0.210400	0.816100
C2251	C225	0.031870	0.189900	0.847600
C2261	C226	0.091500	0.274300	0.780800
H4201	H420	0.090700	0.258900	0.740700
H4211	H421	0.104700	0.265100	0.815100
H4221	H422	0.109500	0.306600	0.774500
C2271	C227	0.053000	0.286300	0.852900
H4231	H423	0.023600	0.280600	0.866700
H4241	H424	0.072500	0.318400	0.845100
H4251	H425	0.066200	0.276700	0.886700
C2281	C228	0.049170	0.520130	0.794300
C2291	C229	0.071480	0.561180	0.758100
H4261	H426	0.095200	0.560700	0.731300
C2301	C230	0.096100	0.604600	0.808900
C2311	C231	0.007310	0.513360	0.834500
H4271	H427	0.994100	0.484700	0.857200
H4281	H428	0.985100	0.513600	0.805400
H4291	H429	0.016800	0.537600	0.866000
C2321	C232	0.081500	0.511100	0.836300
H4301	H430	0.064400	0.482500	0.858800
H4311	H431	0.096600	0.535200	0.867900
H4321	H432	0.103900	0.510100	0.808500
K151	K15	0.649060	0.245600	0.980000
O881	O88	0.265200	0.581400	0.352600
K161	K16	0.064400	0.374600	0.150500
Cu491	Cu49	0.334220	0.021450	0.098160
Cu501	Cu50	0.290380	0.930240	0.031100
Cu511	Cu51	0.379880	0.932750	0.028230
Cu521	Cu52	0.425520	0.024660	0.101860
Cu531	Cu53	0.439740	0.144400	0.105110
Cu541	Cu54	0.332340	0.932540	0.207800
S491	S49	0.368800	0.096630	0.072910
S501	S50	0.366550	0.901110	0.926240
S511	S51	0.369730	0.003900	0.176950
S521	S52	0.323820	0.906080	0.105000
S531	S53	0.261700	0.974380	0.070500
S541	S54	0.449910	0.976790	0.068750
O891	O89	0.357190	0.777500	0.812030
O901	O90	0.399720	0.781920	0.898530
O911	O91	0.354300	0.002300	0.406730
O921	O92	0.328700	0.049800	0.369530
O931	O93	0.264500	0.777760	0.249230
O941	O94	0.315330	0.770520	0.192330
O951	O95	0.123400	0.951700	0.161430
O961	O96	0.168600	0.981300	0.237530
O971	O97	0.549500	0.922800	0.141830
O981	O98	0.479800	0.870100	0.164930
N491	N49	0.415050	0.181910	0.141330
H4331	H433	0.427200	0.192100	0.181430
H4341	H434	0.423500	0.206300	0.115230
N501	N50	0.314370	0.809290	0.874330
H4351	H435	0.292800	0.782000	0.889930
H4361	H436	0.315000	0.806700	0.830230
N511	N51	0.323620	0.955620	0.294630
H4371	H437	0.294100	0.938800	0.306430
H4381	H438	0.340300	0.951300	0.325330
N521	N52	0.313780	0.869740	0.238330
H4391	H439	0.331100	0.872100	0.273430
H4401	H440	0.284700	0.856600	0.252230
N531	N53	0.187400	0.992100	0.075530
H4411	H441	0.186100	0.018000	0.079130
H4421	H442	0.159200	0.969600	0.064830
N541	N54	0.524200	0.963800	0.046030
H4431	H443	0.532600	0.949500	0.016630
H4441	H444	0.549100	0.982300	0.070030
C2331	C233	0.340700	0.130000	0.097330
C2341	C234	0.366100	0.157200	0.146930
H4451	H445	0.358900	0.137600	0.185630
C2351	C235	0.344200	0.155500	0.039630
H4461	H446	0.375300	0.179100	0.033530
H4471	H447	0.325200	0.168900	0.044330
H4481	H448	0.334400	0.135600	0.002130
C2361	C236	0.299800	0.096600	0.116030
H4491	H449	0.283700	0.078300	0.078630
H4501	H450	0.282800	0.109500	0.134930
H4511	H451	0.303400	0.077800	0.148130
C2371	C237	0.390440	0.866370	0.895430
C2381	C238	0.357880	0.818730	0.900230
H4521	H452	0.353200	0.811800	0.947330
C2391	C239	0.373700	0.792000	0.875130
C2401	C240	0.403600	0.878400	0.826130
H4531	H453	0.425400	0.910300	0.822930
H4541	H454	0.377100	0.871600	0.800630
H4551	H455	0.416800	0.861000	0.809730
C2411	C241	0.433800	0.880900	0.934530
H4561	H456	0.453900	0.913000	0.929530
H4571	H457	0.448500	0.864800	0.918730
H4581	H458	0.426300	0.873900	0.980230
C2421	C242	0.377390	0.030860	0.258030
C2431	C243	0.336000	0.002720	0.295200
H4591	H459	0.311200	0.005500	0.275330
C2441	C244	0.343400	0.021300	0.364950
C2451	C245	0.418600	0.029400	0.290730
H4601	H460	0.445800	0.048000	0.266030
H4611	H461	0.412600	0.998500	0.291330
H4621	H462	0.422500	0.040600	0.335030
C2461	C246	0.385400	0.080300	0.248930
H4631	H463	0.412800	0.098200	0.224230
H4641	H464	0.388100	0.093900	0.291230
H4651	H465	0.360000	0.078800	0.225730
C2471	C247	0.294700	0.843550	0.126230
C2481	C248	0.316890	0.840390	0.192830
H4661	H466	0.349400	0.852800	0.183930
C2491	C249	0.299400	0.794000	0.212030
C2501	C250	0.247250	0.831380	0.131630
H4671	H467	0.243800	0.848200	0.167030
H4681	H468	0.228900	0.799300	0.140130
H4691	H469	0.237600	0.838600	0.091230
C2511	C251	0.305940	0.821370	0.073430
H4701	H470	0.338100	0.832300	0.073730
H4711	H471	0.297400	0.828300	0.031830
H4721	H472	0.289600	0.788900	0.080130
C2521	C252	0.214300	0.951030	0.131030
C2531	C253	0.197160	0.982960	0.132430
H4731	H473	0.222100	0.011700	0.149430
C2541	C254	0.158030	0.968130	0.180930
C2551	C255	0.182800	0.908500	0.114130
H4741	H474	0.168200	0.909300	0.074030
H4751	H475	0.160400	0.895300	0.148430
H4761	H476	0.197100	0.890500	0.107830
C2561	C256	0.233300	0.947000	0.186230
H4771	H477	0.257000	0.976400	0.200030
H4781	H478	0.245900	0.927500	0.178430
H4791	H479	0.210500	0.933800	0.220030
C2571	C257	0.470960	0.950830	0.127630
C2581	C258	0.489700	0.928520	0.091430
H4801	H480	0.465500	0.904800	0.064630
C2591	C259	0.508500	0.903900	0.142230
C2601	C260	0.506050	0.992690	0.167830
H4811	H481	0.490600	0.005900	0.190530
H4821	H482	0.528500	0.014900	0.138730
H4831	H483	0.520800	0.983200	0.199330
C2611	C261	0.429600	0.918500	0.169630
H4841	H484	0.418100	0.935600	0.192130
H4851	H485	0.438600	0.903400	0.201230
H4861	H486	0.406200	0.896100	0.141830
K171	K17	0.596540	0.350940	0.313330
O991	O99	0.316200	0.734800	0.685930
K181	K18	0.310200	0.935600	0.483830
Cu551	Cu55	0.312770	0.334220	0.931500
Cu561	Cu56	0.360140	0.290380	0.864440
Cu571	Cu57	0.447130	0.379880	0.861570
Cu581	Cu58	0.400860	0.425520	0.935200
Cu591	Cu59	0.295340	0.439740	0.938450
Cu601	Cu60	0.399800	0.332340	0.041140
S551	S55	0.272170	0.368800	0.906250
S561	S56	0.465440	0.366550	0.759580
S571	S57	0.365830	0.369730	0.010290
S581	S58	0.417740	0.323820	0.938340
S591	S59	0.287320	0.261700	0.903840
S601	S60	0.473120	0.449910	0.902090
O1001	O100	0.579690	0.357190	0.645370
O1011	O101	0.617800	0.399720	0.731870
O1021	O102	0.352000	0.354300	0.240070
O1031	O103	0.278900	0.328700	0.202870
O1041	O104	0.486740	0.264500	0.082570
O1051	O105	0.544810	0.315330	0.025670
O1061	O106	0.171700	0.123400	0.994770
O1071	O107	0.187300	0.168600	0.070870
O1081	O108	0.626700	0.549500	0.975170
O1091	O109	0.609700	0.479800	0.998270
N551	N55	0.233140	0.415050	0.974670
H4871	H487	0.235100	0.427200	0.014770
H4881	H488	0.217200	0.423500	0.948570
N561	N56	0.505080	0.314370	0.707670
H4891	H489	0.510800	0.292800	0.723270
H4901	H490	0.508300	0.315000	0.663570
N571	N57	0.368000	0.323620	0.127970
H4911	H491	0.355300	0.294100	0.139770
H4921	H492	0.389000	0.340300	0.158670
N581	N58	0.444040	0.313780	0.071670
H4931	H493	0.459000	0.331100	0.106770
H4941	H494	0.428100	0.284700	0.085570
N591	N59	0.195300	0.187400	0.908870
H4951	H495	0.168100	0.186100	0.912470
H4961	H496	0.189600	0.159200	0.898170
N601	N60	0.560400	0.524200	0.879370
H4971	H497	0.583100	0.532600	0.849970
H4981	H498	0.566800	0.549100	0.903370
C2621	C262	0.210700	0.340700	0.930670
C2631	C263	0.208900	0.366100	0.980270
H4991	H499	0.221300	0.358900	0.018970
C2641	C264	0.188700	0.344200	0.872970
H5001	H500	0.196200	0.375300	0.866870
H5011	H501	0.156300	0.325200	0.877670
H5021	H502	0.198800	0.334400	0.835470
C2651	C265	0.203200	0.299800	0.949370
H5031	H503	0.205400	0.283700	0.911970
H5041	H504	0.173300	0.282800	0.968270
H5051	H505	0.225600	0.303400	0.981470
C2661	C266	0.524070	0.390440	0.728770
C2671	C267	0.539150	0.357880	0.733570
H5061	H506	0.541400	0.353200	0.780670
C2681	C268	0.581700	0.373700	0.708470
C2691	C269	0.525200	0.403600	0.659470
H5071	H507	0.515100	0.425400	0.656270
H5081	H508	0.505500	0.377100	0.633970
H5091	H509	0.555800	0.416800	0.643070
C2701	C270	0.552900	0.433800	0.767870
H5101	H510	0.540900	0.453900	0.762870
H5111	H511	0.583700	0.448500	0.752070
H5121	H512	0.552400	0.426300	0.813570
C2711	C271	0.346530	0.377390	0.091370
C2721	C272	0.333280	0.336000	0.128540
H5131	H513	0.305700	0.311200	0.108670
C2731	C273	0.322100	0.343400	0.198290
C2741	C274	0.389200	0.418600	0.124070
H5141	H514	0.397800	0.445800	0.099370
H5151	H515	0.414100	0.412600	0.124670
H5161	H516	0.381900	0.422500	0.168370
C2751	C275	0.305100	0.385400	0.082270
H5171	H517	0.314600	0.412800	0.057570
H5181	H518	0.294200	0.388100	0.124570
H5191	H519	0.281200	0.360000	0.059070
C2761	C276	0.451150	0.294700	0.959570
C2771	C277	0.476500	0.316890	0.026170
H5201	H520	0.496600	0.349400	0.017270
C2781	C278	0.505400	0.299400	0.045370
C2791	C279	0.415870	0.247250	0.964970
H5211	H521	0.395600	0.243800	0.000370
H5221	H522	0.429600	0.228900	0.973470
H5231	H523	0.399000	0.237600	0.924570
C2801	C280	0.484570	0.305940	0.906770
H5241	H524	0.505800	0.338100	0.907070
H5251	H525	0.469100	0.297400	0.865170
H5261	H526	0.500700	0.289600	0.913470
C2811	C281	0.263270	0.214300	0.964370
C2821	C282	0.214200	0.197160	0.965770
H5271	H527	0.210400	0.222100	0.982770
C2831	C283	0.189900	0.158030	0.014270
C2841	C284	0.274300	0.182800	0.947470
H5281	H528	0.258900	0.168200	0.907370
H5291	H529	0.265100	0.160400	0.981770
H5301	H530	0.306600	0.197100	0.941170
C2851	C285	0.286300	0.233300	0.019570
H5311	H531	0.280600	0.257000	0.033370
H5321	H532	0.318400	0.245900	0.011770
H5331	H533	0.276700	0.210500	0.053370
C2861	C286	0.520130	0.470960	0.960970
C2871	C287	0.561180	0.489700	0.924770
H5341	H534	0.560700	0.465500	0.897970
C2881	C288	0.604600	0.508500	0.975570
C2891	C289	0.513360	0.506050	0.001170
H5351	H535	0.484700	0.490600	0.023870
H5361	H536	0.513600	0.528500	0.972070
H5371	H537	0.537600	0.520800	0.032670
C2901	C290	0.511100	0.429600	0.002970
H5381	H538	0.482500	0.418100	0.025470
H5391	H539	0.535200	0.438600	0.034570
H5401	H540	0.510100	0.406200	0.975170
K191	K19	0.245600	0.596540	0.146670
O1101	O110	0.581400	0.316200	0.519270
K201	K20	0.374600	0.310200	0.317170
Cu611	Cu61	0.021450	0.687230	0.264830
Cu621	Cu62	0.930240	0.639860	0.197770
Cu631	Cu63	0.932750	0.552870	0.194900
Cu641	Cu64	0.024660	0.599140	0.268530
Cu651	Cu65	0.144400	0.704660	0.271780
Cu661	Cu66	0.932540	0.600200	0.374470
S611	S61	0.096630	0.727830	0.239580
S621	S62	0.901110	0.534560	0.092910
S631	S63	0.003900	0.634170	0.343620
S641	S64	0.906080	0.582260	0.271670
S651	S65	0.974380	0.712680	0.237170
S661	S66	0.976790	0.526880	0.235420
O1111	O111	0.777500	0.420310	0.978700
O1121	O112	0.781920	0.382200	0.065200
O1131	O113	0.002300	0.648000	0.573400
O1141	O114	0.049800	0.721100	0.536200
O1151	O115	0.777760	0.513260	0.415900
O1161	O116	0.770520	0.455190	0.359000
O1171	O117	0.951700	0.828300	0.328100
O1181	O118	0.981300	0.812700	0.404200
O1191	O119	0.922800	0.373300	0.308500
O1201	O120	0.870100	0.390300	0.331600
N611	N61	0.181910	0.766860	0.308000
H5411	H541	0.192100	0.764900	0.348100
H5421	H542	0.206300	0.782800	0.281900
N621	N62	0.809290	0.494920	0.041000
H5431	H543	0.782000	0.489200	0.056600
H5441	H544	0.806700	0.491700	0.996900
N631	N63	0.955620	0.632000	0.461300
H5451	H545	0.938800	0.644700	0.473100
H5461	H546	0.951300	0.611000	0.492000
N641	N64	0.869740	0.555960	0.405000
H5471	H547	0.872100	0.541000	0.440100
H5481	H548	0.856600	0.571900	0.418900
N651	N65	0.992100	0.804700	0.242200
H5491	H549	0.018000	0.831900	0.245800
H5501	H550	0.969600	0.810400	0.231500
N661	N66	0.963800	0.439600	0.212700
H5511	H551	0.949500	0.416900	0.183300
H5521	H552	0.982300	0.433200	0.236700
C2911	C291	0.130000	0.789300	0.264000
C2921	C292	0.157200	0.791100	0.313600
H5531	H553	0.137600	0.778700	0.352300
C2931	C293	0.155500	0.811300	0.206300
H5541	H554	0.179100	0.803800	0.200200
H5551	H555	0.168900	0.843700	0.211000
H5561	H556	0.135600	0.801200	0.168800
C2941	C294	0.096600	0.796800	0.282700
H5571	H557	0.078300	0.794600	0.245300
H5581	H558	0.109500	0.826700	0.301600
H5591	H559	0.077800	0.774400	0.314800
C2951	C295	0.866370	0.475930	0.062100
C2961	C296	0.818730	0.460850	0.066900
H5601	H560	0.811800	0.458600	0.114000
C2971	C297	0.792000	0.418300	0.041800
C2981	C298	0.878400	0.474800	0.992800
H5611	H561	0.910300	0.484900	0.989600
H5621	H562	0.871600	0.494500	0.967300
H5631	H563	0.861000	0.444200	0.976400
C2991	C299	0.880900	0.447100	0.101200
H5641	H564	0.913000	0.459100	0.096200
H5651	H565	0.864800	0.416300	0.085400
H5661	H566	0.873900	0.447600	0.146900
C3001	C300	0.030860	0.653470	0.424700
C3011	C301	0.002720	0.666720	0.461870
H5671	H567	0.005500	0.694300	0.442000
C3021	C302	0.021300	0.677900	0.531620
C3031	C303	0.029400	0.610800	0.457400
H5681	H568	0.048000	0.602200	0.432700
H5691	H569	0.998500	0.585900	0.458000
H5701	H570	0.040600	0.618100	0.501700
C3041	C304	0.080300	0.694900	0.415600
H5711	H571	0.098200	0.685400	0.390900
H5721	H572	0.093900	0.705800	0.457900
H5731	H573	0.078800	0.718800	0.392400
C3051	C305	0.843550	0.548850	0.292900
C3061	C306	0.840390	0.523500	0.359500
H5741	H574	0.852800	0.503400	0.350600
C3071	C307	0.794000	0.494600	0.378700
C3081	C308	0.831380	0.584130	0.298300
H5751	H575	0.848200	0.604400	0.333700
H5761	H576	0.799300	0.570400	0.306800
H5771	H577	0.838600	0.601000	0.257900
C3091	C309	0.821370	0.515430	0.240100
H5781	H578	0.832300	0.494200	0.240400
H5791	H579	0.828300	0.530900	0.198500
H5801	H580	0.788900	0.499300	0.246800
C3101	C310	0.951030	0.736730	0.297700
C3111	C311	0.982960	0.785800	0.299100
H5811	H581	0.011700	0.789600	0.316100
C3121	C312	0.968130	0.810100	0.347600
C3131	C313	0.908500	0.725700	0.280800
H5821	H582	0.909300	0.741100	0.240700
H5831	H583	0.895300	0.734900	0.315100
H5841	H584	0.890500	0.693400	0.274500
C3141	C314	0.947000	0.713700	0.352900
H5851	H585	0.976400	0.719400	0.366700
H5861	H586	0.927500	0.681600	0.345100
H5871	H587	0.933800	0.723300	0.386700
C3151	C315	0.950830	0.479870	0.294300
C3161	C316	0.928520	0.438820	0.258100
H5881	H588	0.904800	0.439300	0.231300
C3171	C317	0.903900	0.395400	0.308900
C3181	C318	0.992690	0.486640	0.334500
H5891	H589	0.005900	0.515300	0.357200
H5901	H590	0.014900	0.486400	0.305400
H5911	H591	0.983200	0.462400	0.366000
C3191	C319	0.918500	0.488900	0.336300
H5921	H592	0.935600	0.517500	0.358800
H5931	H593	0.903400	0.464800	0.367900
H5941	H594	0.896100	0.489900	0.308500
K211	K21	0.350940	0.754400	0.480000
O1211	O121	0.734800	0.418600	0.852600
K221	K22	0.935600	0.625400	0.650500
Cu671	Cu67	0.665780	0.978550	0.598160
Cu681	Cu68	0.709620	0.069760	0.531100
Cu691	Cu69	0.620120	0.067250	0.528230
Cu701	Cu70	0.574480	0.975340	0.601860
Cu711	Cu71	0.560260	0.855600	0.605110
Cu721	Cu72	0.667660	0.067460	0.707800
S671	S67	0.631200	0.903370	0.572910
S681	S68	0.633450	0.098890	0.426240
S691	S69	0.630270	0.996100	0.676950
S701	S70	0.676180	0.093920	0.605000
S711	S71	0.738300	0.025620	0.570500
S721	S72	0.550090	0.023210	0.568750
O1221	O122	0.642810	0.222500	0.312030
O1231	O123	0.600280	0.218080	0.398530
O1241	O124	0.645700	0.997700	0.906730
O1251	O125	0.671300	0.950200	0.869530
O1261	O126	0.735500	0.222240	0.749230
O1271	O127	0.684670	0.229480	0.692330
O1281	O128	0.876600	0.048300	0.661430
O1291	O129	0.831400	0.018700	0.737530
O1301	O130	0.450500	0.077200	0.641830
O1311	O131	0.520200	0.129900	0.664930
N671	N67	0.584950	0.818090	0.641330
H5951	H595	0.572800	0.807900	0.681430
H5961	H596	0.576500	0.793700	0.615230
N681	N68	0.685630	0.190710	0.374330
H5971	H597	0.707200	0.218000	0.389930
H5981	H598	0.685000	0.193300	0.330230
N691	N69	0.676380	0.044380	0.794630
H5991	H599	0.705900	0.061200	0.806430
H6001	H600	0.659700	0.048700	0.825330
N701	N70	0.686220	0.130260	0.738330
H6011	H601	0.668900	0.127900	0.773430
H6021	H602	0.715300	0.143400	0.752230
N711	N71	0.812600	0.007900	0.575530
H6031	H603	0.813900	0.982000	0.579130
H6041	H604	0.840800	0.030400	0.564830
N721	N72	0.475800	0.036200	0.546030
H6051	H605	0.467400	0.050500	0.516630
H6061	H606	0.450900	0.017700	0.570030
C3201	C320	0.659300	0.870000	0.597330
C3211	C321	0.633900	0.842800	0.646930
H6071	H607	0.641100	0.862400	0.685630
C3221	C322	0.655800	0.844500	0.539630
H6081	H608	0.624700	0.820900	0.533530
H6091	H609	0.674800	0.831100	0.544330
H6101	H610	0.665600	0.864400	0.502130
C3231	C323	0.700200	0.903400	0.616030
H6111	H611	0.716300	0.921700	0.578630
H6121	H612	0.717200	0.890500	0.634930
H6131	H613	0.696600	0.922200	0.648130
C3241	C324	0.609560	0.133630	0.395430
C3251	C325	0.642120	0.181270	0.400230
H6141	H614	0.646800	0.188200	0.447330
C3261	C326	0.626300	0.208000	0.375130
C3271	C327	0.596400	0.121600	0.326130
H6151	H615	0.574600	0.089700	0.322930
H6161	H616	0.622900	0.128400	0.300630
H6171	H617	0.583200	0.139000	0.309730
C3281	C328	0.566200	0.119100	0.434530
H6181	H618	0.546100	0.087000	0.429530
H6191	H619	0.551500	0.135200	0.418730
H6201	H620	0.573700	0.126100	0.480230
C3291	C329	0.622610	0.969140	0.758030
C3301	C330	0.664000	0.997280	0.795200
H6211	H621	0.688800	0.994500	0.775330
C3311	C331	0.656600	0.978700	0.864950
C3321	C332	0.581400	0.970600	0.790730
H6221	H622	0.554200	0.952000	0.766030
H6231	H623	0.587400	0.001500	0.791330
H6241	H624	0.577500	0.959400	0.835030
C3331	C333	0.614600	0.919700	0.748930
H6251	H625	0.587200	0.901800	0.724230
H6261	H626	0.611900	0.906100	0.791230
H6271	H627	0.640000	0.921200	0.725730
C3341	C334	0.705300	0.156450	0.626230
C3351	C335	0.683110	0.159610	0.692830
H6281	H628	0.650600	0.147200	0.683930
C3361	C336	0.700600	0.206000	0.712030
C3371	C337	0.752750	0.168620	0.631630
H6291	H629	0.756200	0.151800	0.667030
H6301	H630	0.771100	0.200700	0.640130
H6311	H631	0.762400	0.161400	0.591230
C3381	C338	0.694060	0.178630	0.573430
H6321	H632	0.661900	0.167700	0.573730
H6331	H633	0.702600	0.171700	0.531830
H6341	H634	0.710400	0.211100	0.580130
C3391	C339	0.785700	0.048970	0.631030
C3401	C340	0.802840	0.017040	0.632430
H6351	H635	0.777900	0.988300	0.649430
C3411	C341	0.841970	0.031870	0.680930
C3421	C342	0.817200	0.091500	0.614130
H6361	H636	0.831800	0.090700	0.574030
H6371	H637	0.839600	0.104700	0.648430
H6381	H638	0.802900	0.109500	0.607830
C3431	C343	0.766700	0.053000	0.686230
H6391	H639	0.743000	0.023600	0.700030
H6401	H640	0.754100	0.072500	0.678430
H6411	H641	0.789500	0.066200	0.720030
C3441	C344	0.529040	0.049170	0.627630
C3451	C345	0.510300	0.071480	0.591430
H6421	H642	0.534500	0.095200	0.564630
C3461	C346	0.491500	0.096100	0.642230
C3471	C347	0.493950	0.007310	0.667830
H6431	H643	0.509400	0.994100	0.690530
H6441	H644	0.471500	0.985100	0.638730
H6451	H645	0.479200	0.016800	0.699330
C3481	C348	0.570400	0.081500	0.669630
H6461	H646	0.581900	0.064400	0.692130
H6471	H647	0.561400	0.096600	0.701230
H6481	H648	0.593800	0.103900	0.641830
K231	K23	0.403460	0.649060	0.813330
O1321	O132	0.683800	0.265200	0.185930
K241	K24	0.689800	0.064400	0.983830
Cu731	Cu73	0.770270	0.770270	0.333330
Cu741	Cu74	0.492690	0.492690	0.333330
Cl11	Cl1	0.631180	0.631180	0.333330
Cu751	Cu75	0.229730	0.000000	0.000000
Cu761	Cu76	0.507310	0.000000	0.000000
Cl21	Cl2	0.368820	0.000000	0.000000
Cu771	Cu77	0.000000	0.229730	0.666670
Cu781	Cu78	0.000000	0.507310	0.666670
Cl31	Cl3	0.000000	0.368820	0.666670
Cu791	Cu79	0.229730	0.229730	0.833330
Cu801	Cu80	0.507310	0.507310	0.833330
Cl41	Cl4	0.368820	0.368820	0.833330
Cu811	Cu81	0.770270	0.000000	0.500000
Cu821	Cu82	0.492690	0.000000	0.500000
Cl51	Cl5	0.631180	0.000000	0.500000
Cu831	Cu83	0.000000	0.770270	0.166670
Cu841	Cu84	0.000000	0.492690	0.166670
Cl61	Cl6	0.000000	0.631180	0.166670
Co11	Co1	0.632710	0.367290	0.583330
Co21	Co2	0.632710	0.265420	0.250000
Co31	Co3	0.734580	0.367290	0.916670
Co41	Co4	0.367290	0.632710	0.083330
Co51	Co5	0.367290	0.734580	0.750000
Co61	Co6	0.265420	0.632710	0.416670
O1331	O133	0.664300	0.664300	0.833330
O1341	O134	0.335700	0.000000	0.500000
O1351	O135	0.000000	0.335700	0.166670
O1361	O136	0.335700	0.335700	0.333330
O1371	O137	0.664300	0.000000	0.000000
O1381	O138	0.000000	0.664300	0.666670
