data_OLAWUU_clean_PM
_symmetry_space_group_name_H-M	'P1'
_cell_length_a	24.927000
_cell_length_b	24.927000
_cell_length_c	46.045000
_cell_angle_alpha	90.000000
_cell_angle_beta	90.000000
_cell_angle_gamma	90.000000
_symmetry_Int_Tables_number 1

loop_
_symmetry_equiv_pos_as_xyz
'x,y,z'

loop_
_atom_site_label
_atom_site_type_symbol
_atom_site_fract_x
_atom_site_fract_y
_atom_site_fract_z
Ag11	Ag1	0.712080	0.656040	0.227850
Ag21	Ag2	0.845850	0.610150	0.248730
Ag31	Ag3	0.810200	0.500380	0.288490
Ag41	Ag4	0.674790	0.557740	0.273820
Ag51	Ag5	0.729250	0.732150	0.290470
Ag61	Ag6	0.871100	0.713980	0.309860
Ag71	Ag7	0.800610	0.591390	0.344500
Ag81	Ag8	0.650670	0.640090	0.346840
Pd11	Pd1	0.755500	0.497100	0.203830
Pd21	Pd2	0.830750	0.771100	0.226250
Pd31	Pd3	0.954100	0.570410	0.312280
Pd41	Pd4	0.684920	0.476760	0.349350
Pd51	Pd5	0.571060	0.682220	0.271090
Pd61	Pd6	0.765510	0.745810	0.375380
S11	S1	0.695170	0.559100	0.219630
S21	S2	0.822940	0.515060	0.235710
S31	S3	0.805550	0.685320	0.218440
S41	S4	0.817620	0.770510	0.275010
S51	S5	0.917060	0.635880	0.284070
S61	S6	0.875310	0.531890	0.325610
S71	S7	0.715300	0.480880	0.302950
S81	S8	0.709810	0.561620	0.361310
S91	S9	0.605500	0.615290	0.299270
S101	S10	0.651580	0.714630	0.255810
S111	S11	0.699270	0.728830	0.342720
S121	S12	0.826570	0.686580	0.357050
O11	O1	0.608900	0.451400	0.146400
O21	O2	0.589900	0.534400	0.131700
O31	O3	0.882600	0.391300	0.160230
O41	O4	0.934200	0.372900	0.199600
O51	O5	0.871000	0.756500	0.129000
O61	O6	0.794600	0.713700	0.117400
O71	O7	0.855100	0.954900	0.241400
O81	O8	0.900100	0.940600	0.284400
O91	O9	0.110700	0.649700	0.274500
O101	O10	0.076100	0.732500	0.277100
O111	O11	0.022600	0.429800	0.369010
O121	O12	0.961500	0.369900	0.353500
O131	O13	0.634600	0.302800	0.317000
O141	O14	0.710200	0.291400	0.292900
O151	O15	0.667500	0.468700	0.451200
O161	O16	0.624300	0.556200	0.455200
O171	O17	0.414300	0.586800	0.297700
O181	O18	0.435100	0.585500	0.345400
O191	O19	0.509200	0.821800	0.208550
O201	O20	0.575200	0.810100	0.177290
O211	O21	0.646600	0.886100	0.398900
O221	O22	0.571300	0.839300	0.393800
O231	O23	0.905000	0.765300	0.443400
O241	O24	0.968600	0.757600	0.414600
N11	N1	0.699400	0.481700	0.172200
H11	H1	0.717100	0.474800	0.155100
H21	H2	0.681000	0.451100	0.177300
N21	N2	0.805100	0.435100	0.189400
H31	H3	0.785100	0.404100	0.189000
H41	H4	0.814900	0.442600	0.170600
N31	N3	0.832900	0.778000	0.182200
H51	H5	0.815300	0.808900	0.176900
H61	H6	0.868100	0.781300	0.176400
N41	N4	0.860700	0.847200	0.231600
H71	H7	0.892600	0.849700	0.221700
H81	H8	0.837200	0.871200	0.223300
N51	N5	0.026500	0.605400	0.303600
H91	H9	0.044900	0.609600	0.320800
H101	H10	0.046200	0.582700	0.292000
N61	N6	0.989000	0.508300	0.335900
H111	H11	0.020900	0.498600	0.327400
H121	H12	0.996200	0.519900	0.354500
N71	N7	0.668900	0.397000	0.341400
H131	H13	0.679100	0.377100	0.357300
H141	H14	0.632500	0.392700	0.339000
N81	N8	0.654400	0.471800	0.390800
H151	H15	0.619000	0.461500	0.389800
H161	H16	0.672700	0.445700	0.400900
N91	N9	0.497900	0.658100	0.286200
H171	H17	0.479000	0.687900	0.291900
H181	H18	0.479400	0.642400	0.271200
N101	N10	0.538900	0.736500	0.243600
H191	H19	0.509100	0.721600	0.235100
H201	H20	0.527700	0.765700	0.254300
N111	N11	0.711400	0.800400	0.393700
H211	H21	0.711800	0.796100	0.413600
H221	H22	0.723200	0.834600	0.389800
N121	N12	0.824700	0.765800	0.404200
H231	H23	0.825500	0.802500	0.406100
H241	H24	0.816100	0.751600	0.422100
C11	C1	0.637300	0.541400	0.196900
C21	C2	0.661400	0.523400	0.167100
H251	H25	0.679400	0.554500	0.157500
C31	C3	0.614700	0.500100	0.146300
C41	C4	0.605800	0.499300	0.209800
H261	H26	0.628100	0.467300	0.212300
H271	H27	0.575400	0.490900	0.197100
H281	H28	0.592500	0.511200	0.228800
C51	C5	0.602600	0.592900	0.192300
H291	H29	0.624700	0.620900	0.183400
H301	H30	0.589100	0.605500	0.211000
H311	H31	0.572400	0.584500	0.179500
C61	C6	0.878400	0.478800	0.217900
C71	C7	0.854600	0.424400	0.206300
H321	H32	0.845200	0.401300	0.223300
C81	C8	0.893100	0.392600	0.186200
C91	C9	0.900300	0.510700	0.192600
H331	H33	0.872100	0.515800	0.178100
H341	H34	0.930400	0.491200	0.183900
H351	H35	0.912700	0.545700	0.199600
C101	C10	0.921100	0.470500	0.242200
H361	H36	0.905300	0.450100	0.258200
H371	H37	0.933200	0.505500	0.249400
H381	H38	0.951800	0.450700	0.234300
C111	C11	0.824000	0.677600	0.180500
C121	C12	0.808200	0.731600	0.166300
H391	H39	0.768200	0.735500	0.166300
C131	C13	0.830100	0.735700	0.134200
C141	C14	0.884800	0.670100	0.178100
H401	H40	0.903000	0.700900	0.186900
H411	H41	0.894900	0.667600	0.157500
H421	H42	0.895400	0.637200	0.188100
C151	C15	0.795000	0.632300	0.168000
H431	H43	0.756300	0.638600	0.169700
H441	H44	0.804500	0.599400	0.178400
H451	H45	0.804700	0.628600	0.147500
C161	C16	0.821300	0.844100	0.280400
C171	C17	0.869800	0.863100	0.261800
H461	H46	0.904100	0.847500	0.269300
C181	C18	0.874200	0.928400	0.259400
C191	C19	0.772500	0.873400	0.272500
H471	H47	0.742200	0.859700	0.283900
H481	H48	0.765200	0.868600	0.251800
H491	H49	0.777400	0.911700	0.276700
C201	C20	0.830500	0.849500	0.314600
H501	H50	0.863000	0.829900	0.320100
H511	H51	0.799600	0.834600	0.324900
H521	H52	0.834700	0.887500	0.319700
C211	C21	0.977800	0.659300	0.264900
C221	C22	0.021900	0.659800	0.288700
H531	H53	0.008000	0.684600	0.304000
C231	C23	0.074100	0.683300	0.279500
C241	C24	0.992600	0.621300	0.241800
H541	H54	0.999800	0.586000	0.250300
H551	H55	0.024900	0.634200	0.231800
H561	H56	0.963100	0.618400	0.227800
C251	C25	0.967000	0.712900	0.251500
H571	H57	0.957700	0.738700	0.266700
H581	H58	0.937000	0.709800	0.237800
H591	H59	0.999000	0.725300	0.241200
C261	C26	0.899000	0.475900	0.349600
C271	C27	0.952800	0.461200	0.337200
H601	H60	0.947000	0.448400	0.316800
C281	C28	0.981600	0.415500	0.354300
C291	C29	0.902900	0.496400	0.380100
H611	H61	0.930100	0.524700	0.381000
H621	H62	0.913200	0.466900	0.393000
H631	H63	0.868100	0.510900	0.386100
C301	C30	0.857400	0.431400	0.346800
H641	H64	0.855800	0.419300	0.326600
H651	H65	0.822200	0.445100	0.352700
H661	H66	0.867500	0.401300	0.359300
C311	C31	0.691900	0.414400	0.290100
C321	C32	0.696500	0.376400	0.315600
H671	H67	0.735500	0.374800	0.320700
C331	C33	0.679800	0.318500	0.307700
C341	C34	0.633600	0.418500	0.281700
H681	H68	0.629700	0.443600	0.265400
H691	H69	0.612700	0.431400	0.298300
H701	H70	0.620400	0.383000	0.275800
C351	C35	0.725500	0.399100	0.264700
H711	H71	0.763100	0.396100	0.270700
H721	H72	0.722400	0.426600	0.249500
H731	H73	0.713300	0.364500	0.257000
C361	C36	0.710600	0.553900	0.401500
C371	C37	0.658300	0.525300	0.407700
H741	H74	0.628700	0.548900	0.400500
C381	C38	0.648400	0.516000	0.441100
C391	C39	0.760700	0.523000	0.410200
H751	H75	0.760000	0.487400	0.401200
H761	H76	0.761800	0.519200	0.431400
H771	H77	0.792600	0.542500	0.403600
C401	C40	0.711900	0.610600	0.415100
H781	H78	0.680400	0.630900	0.408600
H791	H79	0.744600	0.629200	0.408900
H801	H80	0.711400	0.607600	0.436300
C411	C41	0.541400	0.577600	0.305800
C421	C42	0.499700	0.619500	0.311100
H811	H81	0.511500	0.640200	0.328500
C431	C43	0.446900	0.597000	0.317900
C441	C44	0.529200	0.544600	0.279100
H821	H82	0.557400	0.517600	0.276400
H831	H83	0.527700	0.568100	0.262000
H841	H84	0.494500	0.526600	0.281500
C451	C45	0.552600	0.543000	0.331400
H851	H85	0.580600	0.517000	0.326400
H861	H86	0.519900	0.524000	0.337000
H871	H87	0.564800	0.565400	0.347600
C461	C46	0.630000	0.774300	0.233500
C471	C47	0.575900	0.755800	0.220000
H881	H88	0.583700	0.724400	0.207200
C481	C48	0.550400	0.800300	0.200600
C491	C49	0.620100	0.823500	0.252900
H891	H89	0.591500	0.815400	0.266800
H901	H90	0.609500	0.854000	0.240800
H911	H91	0.653200	0.832300	0.263400
C501	C50	0.673200	0.783700	0.210600
H921	H92	0.677600	0.751300	0.198800
H931	H93	0.707300	0.792300	0.220200
H941	H94	0.662600	0.813700	0.198100
C511	C51	0.655200	0.787600	0.350200
C521	C52	0.654900	0.795400	0.383400
H951	H95	0.638300	0.763200	0.392700
C531	C53	0.623500	0.846300	0.393000
C541	C54	0.675200	0.836700	0.335100
H961	H96	0.650100	0.866300	0.338300
H971	H97	0.678200	0.829500	0.314200
H981	H98	0.710500	0.846400	0.342900
C551	C55	0.601300	0.772700	0.335900
H991	H99	0.574600	0.800300	0.340400
H1001	H100	0.589000	0.738000	0.343500
H1011	H101	0.606100	0.770200	0.314800
C561	C56	0.878100	0.689300	0.387100
C571	C57	0.882000	0.745700	0.395400
H1021	H102	0.893300	0.766400	0.377800
C581	C58	0.922800	0.755900	0.418900
C591	C59	0.862300	0.652100	0.410500
H1031	H103	0.861300	0.615400	0.402900
H1041	H104	0.826600	0.661900	0.417700
H1051	H105	0.888300	0.654200	0.426400
C601	C60	0.930600	0.670000	0.373800
H1061	H106	0.926800	0.632400	0.367900
H1071	H107	0.959400	0.673100	0.388200
H1081	H108	0.939200	0.691900	0.356800
La11	La1	0.922070	0.377860	0.111820
La21	La2	0.894900	0.047800	0.273600
La31	La3	0.842600	0.101700	0.304300
O251	O25	0.916800	0.430200	0.061000
O261	O26	0.840700	0.410300	0.083500
C611	C61	0.870300	0.429900	0.059800
C621	C62	0.833500	0.454000	0.034000
H1091	H109	0.795500	0.449000	0.038800
H1101	H110	0.841700	0.435400	0.015800
H1111	H111	0.841000	0.492400	0.031700
O271	O27	0.846700	0.002800	0.328300
O281	O28	0.794200	0.052900	0.256400
O291	O29	0.848300	0.187700	0.276100
Ag91	Ag9	0.287920	0.343960	0.727850
Ag101	Ag10	0.154150	0.389850	0.748730
Ag111	Ag11	0.189800	0.499620	0.788490
Ag121	Ag12	0.325210	0.442260	0.773820
Ag131	Ag13	0.270750	0.267850	0.790470
Ag141	Ag14	0.128900	0.286020	0.809860
Ag151	Ag15	0.199390	0.408610	0.844500
Ag161	Ag16	0.349330	0.359910	0.846840
Pd71	Pd7	0.244500	0.502900	0.703830
Pd81	Pd8	0.169250	0.228900	0.726250
Pd91	Pd9	0.045900	0.429590	0.812280
Pd101	Pd10	0.315080	0.523240	0.849350
Pd111	Pd11	0.428940	0.317780	0.771090
Pd121	Pd12	0.234490	0.254190	0.875380
S131	S13	0.304830	0.440900	0.719630
S141	S14	0.177060	0.484940	0.735710
S151	S15	0.194450	0.314680	0.718440
S161	S16	0.182380	0.229490	0.775010
S171	S17	0.082940	0.364120	0.784070
S181	S18	0.124690	0.468110	0.825610
S191	S19	0.284700	0.519120	0.802950
S201	S20	0.290190	0.438380	0.861310
S211	S21	0.394500	0.384710	0.799270
S221	S22	0.348420	0.285370	0.755810
S231	S23	0.300730	0.271170	0.842720
S241	S24	0.173430	0.313420	0.857050
O301	O30	0.391100	0.548600	0.646400
O311	O31	0.410100	0.465600	0.631700
O321	O32	0.117400	0.608700	0.660230
O331	O33	0.065800	0.627100	0.699600
O341	O34	0.129000	0.243500	0.629000
O351	O35	0.205400	0.286300	0.617400
O361	O36	0.144900	0.045100	0.741400
O371	O37	0.099900	0.059400	0.784400
O381	O38	0.889300	0.350300	0.774500
O391	O39	0.923900	0.267500	0.777100
O401	O40	0.977400	0.570200	0.869010
O411	O41	0.038500	0.630100	0.853500
O421	O42	0.365400	0.697200	0.817000
O431	O43	0.289800	0.708600	0.792900
O441	O44	0.332500	0.531300	0.951200
O451	O45	0.375700	0.443800	0.955200
O461	O46	0.585700	0.413200	0.797700
O471	O47	0.564900	0.414500	0.845400
O481	O48	0.490800	0.178200	0.708550
O491	O49	0.424800	0.189900	0.677290
O501	O50	0.353400	0.113900	0.898900
O511	O51	0.428700	0.160700	0.893800
O521	O52	0.095000	0.234700	0.943400
O531	O53	0.031400	0.242400	0.914600
N131	N13	0.300600	0.518300	0.672200
H1121	H112	0.282900	0.525200	0.655100
H1131	H113	0.319000	0.548900	0.677300
N141	N14	0.194900	0.564900	0.689400
H1141	H114	0.214900	0.595900	0.689000
H1151	H115	0.185100	0.557400	0.670600
N151	N15	0.167100	0.222000	0.682200
H1161	H116	0.184700	0.191100	0.676900
H1171	H117	0.131900	0.218700	0.676400
N161	N16	0.139300	0.152800	0.731600
H1181	H118	0.107400	0.150300	0.721700
H1191	H119	0.162800	0.128800	0.723300
N171	N17	0.973500	0.394600	0.803600
H1201	H120	0.955100	0.390400	0.820800
H1211	H121	0.953800	0.417300	0.792000
N181	N18	0.011000	0.491700	0.835900
H1221	H122	0.979100	0.501400	0.827400
H1231	H123	0.003800	0.480100	0.854500
N191	N19	0.331100	0.603000	0.841400
H1241	H124	0.320900	0.622900	0.857300
H1251	H125	0.367500	0.607300	0.839000
N201	N20	0.345600	0.528200	0.890800
H1261	H126	0.381000	0.538500	0.889800
H1271	H127	0.327300	0.554300	0.900900
N211	N21	0.502100	0.341900	0.786200
H1281	H128	0.521000	0.312100	0.791900
H1291	H129	0.520600	0.357600	0.771200
N221	N22	0.461100	0.263500	0.743600
H1301	H130	0.490900	0.278400	0.735100
H1311	H131	0.472300	0.234300	0.754300
N231	N23	0.288600	0.199600	0.893700
H1321	H132	0.288200	0.203900	0.913600
H1331	H133	0.276800	0.165400	0.889800
N241	N24	0.175300	0.234200	0.904200
H1341	H134	0.174500	0.197500	0.906100
H1351	H135	0.183900	0.248400	0.922100
C631	C63	0.362700	0.458600	0.696900
C641	C64	0.338600	0.476600	0.667100
H1361	H136	0.320600	0.445500	0.657500
C651	C65	0.385300	0.499900	0.646300
C661	C66	0.394200	0.500700	0.709800
H1371	H137	0.371900	0.532700	0.712300
H1381	H138	0.424600	0.509100	0.697100
H1391	H139	0.407500	0.488800	0.728800
C671	C67	0.397400	0.407100	0.692300
H1401	H140	0.375300	0.379100	0.683400
H1411	H141	0.410900	0.394500	0.711000
H1421	H142	0.427600	0.415500	0.679500
C681	C68	0.121600	0.521200	0.717900
C691	C69	0.145400	0.575600	0.706300
H1431	H143	0.154800	0.598700	0.723300
C701	C70	0.106900	0.607400	0.686200
C711	C71	0.099700	0.489300	0.692600
H1441	H144	0.127900	0.484200	0.678100
H1451	H145	0.069600	0.508800	0.683900
H1461	H146	0.087300	0.454300	0.699600
C721	C72	0.078900	0.529500	0.742200
H1471	H147	0.094700	0.549900	0.758200
H1481	H148	0.066800	0.494500	0.749400
H1491	H149	0.048200	0.549300	0.734300
C731	C73	0.176000	0.322400	0.680500
C741	C74	0.191800	0.268400	0.666300
H1501	H150	0.231800	0.264500	0.666300
C751	C75	0.169900	0.264300	0.634200
C761	C76	0.115200	0.329900	0.678100
H1511	H151	0.097000	0.299100	0.686900
H1521	H152	0.105100	0.332400	0.657500
H1531	H153	0.104600	0.362800	0.688100
C771	C77	0.205000	0.367700	0.668000
H1541	H154	0.243700	0.361400	0.669700
H1551	H155	0.195500	0.400600	0.678400
H1561	H156	0.195300	0.371400	0.647500
C781	C78	0.178700	0.155900	0.780400
C791	C79	0.130200	0.136900	0.761800
H1571	H157	0.095900	0.152500	0.769300
C801	C80	0.125800	0.071600	0.759400
C811	C81	0.227500	0.126600	0.772500
H1581	H158	0.257800	0.140300	0.783900
H1591	H159	0.234800	0.131400	0.751800
H1601	H160	0.222600	0.088300	0.776700
C821	C82	0.169500	0.150500	0.814600
H1611	H161	0.137000	0.170100	0.820100
H1621	H162	0.200400	0.165400	0.824900
H1631	H163	0.165300	0.112500	0.819700
C831	C83	0.022200	0.340700	0.764900
C841	C84	0.978100	0.340200	0.788700
H1641	H164	0.992000	0.315400	0.804000
C851	C85	0.925900	0.316700	0.779500
C861	C86	0.007400	0.378700	0.741800
H1651	H165	0.000200	0.414000	0.750300
H1661	H166	0.975100	0.365800	0.731800
H1671	H167	0.036900	0.381600	0.727800
C871	C87	0.033000	0.287100	0.751500
H1681	H168	0.042300	0.261300	0.766700
H1691	H169	0.063000	0.290200	0.737800
H1701	H170	0.001000	0.274700	0.741200
C881	C88	0.101000	0.524100	0.849600
C891	C89	0.047200	0.538800	0.837200
H1711	H171	0.053000	0.551600	0.816800
C901	C90	0.018400	0.584500	0.854300
C911	C91	0.097100	0.503600	0.880100
H1721	H172	0.069900	0.475300	0.881000
H1731	H173	0.086800	0.533100	0.893000
H1741	H174	0.131900	0.489100	0.886100
C921	C92	0.142600	0.568600	0.846800
H1751	H175	0.144200	0.580700	0.826600
H1761	H176	0.177800	0.554900	0.852700
H1771	H177	0.132500	0.598700	0.859300
C931	C93	0.308100	0.585600	0.790100
C941	C94	0.303500	0.623600	0.815600
H1781	H178	0.264500	0.625200	0.820700
C951	C95	0.320200	0.681500	0.807700
C961	C96	0.366400	0.581500	0.781700
H1791	H179	0.370300	0.556400	0.765400
H1801	H180	0.387300	0.568600	0.798300
H1811	H181	0.379600	0.617000	0.775800
C971	C97	0.274500	0.600900	0.764700
H1821	H182	0.236900	0.603900	0.770700
H1831	H183	0.277600	0.573400	0.749500
H1841	H184	0.286700	0.635500	0.757000
C981	C98	0.289400	0.446100	0.901500
C991	C99	0.341700	0.474700	0.907700
H1851	H185	0.371300	0.451100	0.900500
C1001	C100	0.351600	0.484000	0.941100
C1011	C101	0.239300	0.477000	0.910200
H1861	H186	0.240000	0.512600	0.901200
H1871	H187	0.238200	0.480800	0.931400
H1881	H188	0.207400	0.457500	0.903600
C1021	C102	0.288100	0.389400	0.915100
H1891	H189	0.319600	0.369100	0.908600
H1901	H190	0.255400	0.370800	0.908900
H1911	H191	0.288600	0.392400	0.936300
C1031	C103	0.458600	0.422400	0.805800
C1041	C104	0.500300	0.380500	0.811100
H1921	H192	0.488500	0.359800	0.828500
C1051	C105	0.553100	0.403000	0.817900
C1061	C106	0.470800	0.455400	0.779100
H1931	H193	0.442600	0.482400	0.776400
H1941	H194	0.472300	0.431900	0.762000
H1951	H195	0.505500	0.473400	0.781500
C1071	C107	0.447400	0.457000	0.831400
H1961	H196	0.419400	0.483000	0.826400
H1971	H197	0.480100	0.476000	0.837000
H1981	H198	0.435200	0.434600	0.847600
C1081	C108	0.370000	0.225700	0.733500
C1091	C109	0.424100	0.244200	0.720000
H1991	H199	0.416300	0.275600	0.707200
C1101	C110	0.449600	0.199700	0.700600
C1111	C111	0.379900	0.176500	0.752900
H2001	H200	0.408500	0.184600	0.766800
H2011	H201	0.390500	0.146000	0.740800
H2021	H202	0.346800	0.167700	0.763400
C1121	C112	0.326800	0.216300	0.710600
H2031	H203	0.322400	0.248700	0.698800
H2041	H204	0.292700	0.207700	0.720200
H2051	H205	0.337400	0.186300	0.698100
C1131	C113	0.344800	0.212400	0.850200
C1141	C114	0.345100	0.204600	0.883400
H2061	H206	0.361700	0.236800	0.892700
C1151	C115	0.376500	0.153700	0.893000
C1161	C116	0.324800	0.163300	0.835100
H2071	H207	0.349900	0.133700	0.838300
H2081	H208	0.321800	0.170500	0.814200
H2091	H209	0.289500	0.153600	0.842900
C1171	C117	0.398700	0.227300	0.835900
H2101	H210	0.425400	0.199700	0.840400
H2111	H211	0.411000	0.262000	0.843500
H2121	H212	0.393900	0.229800	0.814800
C1181	C118	0.121900	0.310700	0.887100
C1191	C119	0.118000	0.254300	0.895400
H2131	H213	0.106700	0.233600	0.877800
C1201	C120	0.077200	0.244100	0.918900
C1211	C121	0.137700	0.347900	0.910500
H2141	H214	0.138700	0.384600	0.902900
H2151	H215	0.173400	0.338100	0.917700
H2161	H216	0.111700	0.345800	0.926400
C1221	C122	0.069400	0.330000	0.873800
H2171	H217	0.073200	0.367600	0.867900
H2181	H218	0.040600	0.326900	0.888200
H2191	H219	0.060800	0.308100	0.856800
La41	La4	0.077930	0.622140	0.611820
La51	La5	0.105100	0.952200	0.773600
La61	La6	0.157400	0.898300	0.804300
O541	O54	0.083200	0.569800	0.561000
O551	O55	0.159300	0.589700	0.583500
C1231	C123	0.129700	0.570100	0.559800
C1241	C124	0.166500	0.546000	0.534000
H2201	H220	0.204500	0.551000	0.538800
H2211	H221	0.158300	0.564600	0.515800
H2221	H222	0.159000	0.507600	0.531700
O561	O56	0.153300	0.997200	0.828300
O571	O57	0.205800	0.947100	0.756400
O581	O58	0.151700	0.812300	0.776100
Ag171	Ag17	0.843960	0.212080	0.477850
Ag181	Ag18	0.889850	0.345850	0.498730
Ag191	Ag19	0.999620	0.310200	0.538490
Ag201	Ag20	0.942260	0.174790	0.523820
Ag211	Ag21	0.767850	0.229250	0.540470
Ag221	Ag22	0.786020	0.371100	0.559860
Ag231	Ag23	0.908610	0.300610	0.594500
Ag241	Ag24	0.859910	0.150670	0.596840
Pd131	Pd13	0.002900	0.255500	0.453830
Pd141	Pd14	0.728900	0.330750	0.476250
Pd151	Pd15	0.929590	0.454100	0.562280
Pd161	Pd16	0.023240	0.184920	0.599350
Pd171	Pd17	0.817780	0.071060	0.521090
Pd181	Pd18	0.754190	0.265510	0.625380
S251	S25	0.940900	0.195170	0.469630
S261	S26	0.984940	0.322940	0.485710
S271	S27	0.814680	0.305550	0.468440
S281	S28	0.729490	0.317620	0.525010
S291	S29	0.864120	0.417060	0.534070
S301	S30	0.968110	0.375310	0.575610
S311	S31	0.019120	0.215300	0.552950
S321	S32	0.938380	0.209810	0.611310
S331	S33	0.884710	0.105500	0.549270
S341	S34	0.785370	0.151580	0.505810
S351	S35	0.771170	0.199270	0.592720
S361	S36	0.813420	0.326570	0.607050
O591	O59	0.048600	0.108900	0.396400
O601	O60	0.965600	0.089900	0.381700
O611	O61	0.108700	0.382600	0.410230
O621	O62	0.127100	0.434200	0.449600
O631	O63	0.743500	0.371000	0.379000
O641	O64	0.786300	0.294600	0.367400
O651	O65	0.545100	0.355100	0.491400
O661	O66	0.559400	0.400100	0.534400
O671	O67	0.850300	0.610700	0.524500
O681	O68	0.767500	0.576100	0.527100
O691	O69	0.070200	0.522600	0.619010
O701	O70	0.130100	0.461500	0.603500
O711	O71	0.197200	0.134600	0.567000
O721	O72	0.208600	0.210200	0.542900
O731	O73	0.031300	0.167500	0.701200
O741	O74	0.943800	0.124300	0.705200
O751	O75	0.913200	0.914300	0.547700
O761	O76	0.914500	0.935100	0.595400
O771	O77	0.678200	0.009200	0.458550
O781	O78	0.689900	0.075200	0.427290
O791	O79	0.613900	0.146600	0.648900
O801	O80	0.660700	0.071300	0.643800
O811	O81	0.734700	0.405000	0.693400
O821	O82	0.742400	0.468600	0.664600
N251	N25	0.018300	0.199400	0.422200
H2231	H223	0.025200	0.217100	0.405100
H2241	H224	0.048900	0.181000	0.427300
N261	N26	0.064900	0.305100	0.439400
H2251	H225	0.095900	0.285100	0.439000
H2261	H226	0.057400	0.314900	0.420600
N271	N27	0.722000	0.332900	0.432200
H2271	H227	0.691100	0.315300	0.426900
H2281	H228	0.718700	0.368100	0.426400
N281	N28	0.652800	0.360700	0.481600
H2291	H229	0.650300	0.392600	0.471700
H2301	H230	0.628800	0.337200	0.473300
N291	N29	0.894600	0.526500	0.553600
H2311	H231	0.890400	0.544900	0.570800
H2321	H232	0.917300	0.546200	0.542000
N301	N30	0.991700	0.489000	0.585900
H2331	H233	0.001400	0.520900	0.577400
H2341	H234	0.980100	0.496200	0.604500
N311	N31	0.103000	0.168900	0.591400
H2351	H235	0.122900	0.179100	0.607300
H2361	H236	0.107300	0.132500	0.589000
N321	N32	0.028200	0.154400	0.640800
H2371	H237	0.038500	0.119000	0.639800
H2381	H238	0.054300	0.172700	0.650900
N331	N33	0.841900	0.997900	0.536200
H2391	H239	0.812100	0.979000	0.541900
H2401	H240	0.857600	0.979400	0.521200
N341	N34	0.763500	0.038900	0.493600
H2411	H241	0.778400	0.009100	0.485100
H2421	H242	0.734300	0.027700	0.504300
N351	N35	0.699600	0.211400	0.643700
H2431	H243	0.703900	0.211800	0.663600
H2441	H244	0.665400	0.223200	0.639800
N361	N36	0.734200	0.324700	0.654200
H2451	H245	0.697500	0.325500	0.656100
H2461	H246	0.748400	0.316100	0.672100
C1251	C125	0.958600	0.137300	0.446900
C1261	C126	0.976600	0.161400	0.417100
H2471	H247	0.945500	0.179400	0.407500
C1271	C127	0.999900	0.114700	0.396300
C1281	C128	0.000700	0.105800	0.459800
H2481	H248	0.032700	0.128100	0.462300
H2491	H249	0.009100	0.075400	0.447100
H2501	H250	0.988800	0.092500	0.478800
C1291	C129	0.907100	0.102600	0.442300
H2511	H251	0.879100	0.124700	0.433400
H2521	H252	0.894500	0.089100	0.461000
H2531	H253	0.915500	0.072400	0.429500
C1301	C130	0.021200	0.378400	0.467900
C1311	C131	0.075600	0.354600	0.456300
H2541	H254	0.098700	0.345200	0.473300
C1321	C132	0.107400	0.393100	0.436200
C1331	C133	0.989300	0.400300	0.442600
H2551	H255	0.984200	0.372100	0.428100
H2561	H256	0.008800	0.430400	0.433900
H2571	H257	0.954300	0.412700	0.449600
C1341	C134	0.029500	0.421100	0.492200
H2581	H258	0.049900	0.405300	0.508200
H2591	H259	0.994500	0.433200	0.499400
H2601	H260	0.049300	0.451800	0.484300
C1351	C135	0.822400	0.324000	0.430500
C1361	C136	0.768400	0.308200	0.416300
H2611	H261	0.764500	0.268200	0.416300
C1371	C137	0.764300	0.330100	0.384200
C1381	C138	0.829900	0.384800	0.428100
H2621	H262	0.799100	0.403000	0.436900
H2631	H263	0.832400	0.394900	0.407500
H2641	H264	0.862800	0.395400	0.438100
C1391	C139	0.867700	0.295000	0.418000
H2651	H265	0.861400	0.256300	0.419700
H2661	H266	0.900600	0.304500	0.428400
H2671	H267	0.871400	0.304700	0.397500
C1401	C140	0.655900	0.321300	0.530400
C1411	C141	0.636900	0.369800	0.511800
H2681	H268	0.652500	0.404100	0.519300
C1421	C142	0.571600	0.374200	0.509400
C1431	C143	0.626600	0.272500	0.522500
H2691	H269	0.640300	0.242200	0.533900
H2701	H270	0.631400	0.265200	0.501800
H2711	H271	0.588300	0.277400	0.526700
C1441	C144	0.650500	0.330500	0.564600
H2721	H272	0.670100	0.363000	0.570100
H2731	H273	0.665400	0.299600	0.574900
H2741	H274	0.612500	0.334700	0.569700
C1451	C145	0.840700	0.477800	0.514900
C1461	C146	0.840200	0.521900	0.538700
H2751	H275	0.815400	0.508000	0.554000
C1471	C147	0.816700	0.574100	0.529500
C1481	C148	0.878700	0.492600	0.491800
H2761	H276	0.914000	0.499800	0.500300
H2771	H277	0.865800	0.524900	0.481800
H2781	H278	0.881600	0.463100	0.477800
C1491	C149	0.787100	0.467000	0.501500
H2791	H279	0.761300	0.457700	0.516700
H2801	H280	0.790200	0.437000	0.487800
H2811	H281	0.774700	0.499000	0.491200
C1501	C150	0.024100	0.399000	0.599600
C1511	C151	0.038800	0.452800	0.587200
H2821	H282	0.051600	0.447000	0.566800
C1521	C152	0.084500	0.481600	0.604300
C1531	C153	0.003600	0.402900	0.630100
H2831	H283	0.975300	0.430100	0.631000
H2841	H284	0.033100	0.413200	0.643000
H2851	H285	0.989100	0.368100	0.636100
C1541	C154	0.068600	0.357400	0.596800
H2861	H286	0.080700	0.355800	0.576600
H2871	H287	0.054900	0.322200	0.602700
H2881	H288	0.098700	0.367500	0.609300
C1551	C155	0.085600	0.191900	0.540100
C1561	C156	0.123600	0.196500	0.565600
H2891	H289	0.125200	0.235500	0.570700
C1571	C157	0.181500	0.179800	0.557700
C1581	C158	0.081500	0.133600	0.531700
H2901	H290	0.056400	0.129700	0.515400
H2911	H291	0.068600	0.112700	0.548300
H2921	H292	0.117000	0.120400	0.525800
C1591	C159	0.100900	0.225500	0.514700
H2931	H293	0.103900	0.263100	0.520700
H2941	H294	0.073400	0.222400	0.499500
H2951	H295	0.135500	0.213300	0.507000
C1601	C160	0.946100	0.210600	0.651500
C1611	C161	0.974700	0.158300	0.657700
H2961	H296	0.951100	0.128700	0.650500
C1621	C162	0.984000	0.148400	0.691100
C1631	C163	0.977000	0.260700	0.660200
H2971	H297	0.012600	0.260000	0.651200
H2981	H298	0.980800	0.261800	0.681400
H2991	H299	0.957500	0.292600	0.653600
C1641	C164	0.889400	0.211900	0.665100
H3001	H300	0.869100	0.180400	0.658600
H3011	H301	0.870800	0.244600	0.658900
H3021	H302	0.892400	0.211400	0.686300
C1651	C165	0.922400	0.041400	0.555800
C1661	C166	0.880500	0.999700	0.561100
H3031	H303	0.859800	0.011500	0.578500
C1671	C167	0.903000	0.946900	0.567900
C1681	C168	0.955400	0.029200	0.529100
H3041	H304	0.982400	0.057400	0.526400
H3051	H305	0.931900	0.027700	0.512000
H3061	H306	0.973400	0.994500	0.531500
C1691	C169	0.957000	0.052600	0.581400
H3071	H307	0.983000	0.080600	0.576400
H3081	H308	0.976000	0.019900	0.587000
H3091	H309	0.934600	0.064800	0.597600
C1701	C170	0.725700	0.130000	0.483500
C1711	C171	0.744200	0.075900	0.470000
H3101	H310	0.775600	0.083700	0.457200
C1721	C172	0.699700	0.050400	0.450600
C1731	C173	0.676500	0.120100	0.502900
H3111	H311	0.684600	0.091500	0.516800
H3121	H312	0.646000	0.109500	0.490800
H3131	H313	0.667700	0.153200	0.513400
C1741	C174	0.716300	0.173200	0.460600
H3141	H314	0.748700	0.177600	0.448800
H3151	H315	0.707700	0.207300	0.470200
H3161	H316	0.686300	0.162600	0.448100
C1751	C175	0.712400	0.155200	0.600200
C1761	C176	0.704600	0.154900	0.633400
H3171	H317	0.736800	0.138300	0.642700
C1771	C177	0.653700	0.123500	0.643000
C1781	C178	0.663300	0.175200	0.585100
H3181	H318	0.633700	0.150100	0.588300
H3191	H319	0.670500	0.178200	0.564200
H3201	H320	0.653600	0.210500	0.592900
C1791	C179	0.727300	0.101300	0.585900
H3211	H321	0.699700	0.074600	0.590400
H3221	H322	0.762000	0.089000	0.593500
H3231	H323	0.729800	0.106100	0.564800
C1801	C180	0.810700	0.378100	0.637100
C1811	C181	0.754300	0.382000	0.645400
H3241	H324	0.733600	0.393300	0.627800
C1821	C182	0.744100	0.422800	0.668900
C1831	C183	0.847900	0.362300	0.660500
H3251	H325	0.884600	0.361300	0.652900
H3261	H326	0.838100	0.326600	0.667700
H3271	H327	0.845800	0.388300	0.676400
C1841	C184	0.830000	0.430600	0.623800
H3281	H328	0.867600	0.426800	0.617900
H3291	H329	0.826900	0.459400	0.638200
H3301	H330	0.808100	0.439200	0.606800
La71	La7	0.122140	0.422070	0.361820
La81	La8	0.452200	0.394900	0.523600
La91	La9	0.398300	0.342600	0.554300
O831	O83	0.069800	0.416800	0.311000
O841	O84	0.089700	0.340700	0.333500
C1851	C185	0.070100	0.370300	0.309800
C1861	C186	0.046000	0.333500	0.284000
H3311	H331	0.051000	0.295500	0.288800
H3321	H332	0.064600	0.341700	0.265800
H3331	H333	0.007600	0.341000	0.281700
O851	O85	0.497200	0.346700	0.578300
O861	O86	0.447100	0.294200	0.506400
O871	O87	0.312300	0.348300	0.526100
Ag251	Ag25	0.156040	0.787920	0.977850
Ag261	Ag26	0.110150	0.654150	0.998730
Ag271	Ag27	0.000380	0.689800	0.038490
Ag281	Ag28	0.057740	0.825210	0.023820
Ag291	Ag29	0.232150	0.770750	0.040470
Ag301	Ag30	0.213980	0.628900	0.059860
Ag311	Ag31	0.091390	0.699390	0.094500
Ag321	Ag32	0.140090	0.849330	0.096840
Pd191	Pd19	0.997100	0.744500	0.953830
Pd201	Pd20	0.271100	0.669250	0.976250
Pd211	Pd21	0.070410	0.545900	0.062280
Pd221	Pd22	0.976760	0.815080	0.099350
Pd231	Pd23	0.182220	0.928940	0.021090
Pd241	Pd24	0.245810	0.734490	0.125380
S371	S37	0.059100	0.804830	0.969630
S381	S38	0.015060	0.677060	0.985710
S391	S39	0.185320	0.694450	0.968440
S401	S40	0.270510	0.682380	0.025010
S411	S41	0.135880	0.582940	0.034070
S421	S42	0.031890	0.624690	0.075610
S431	S43	0.980880	0.784700	0.052950
S441	S44	0.061620	0.790190	0.111310
S451	S45	0.115290	0.894500	0.049270
S461	S46	0.214630	0.848420	0.005810
S471	S47	0.228830	0.800730	0.092720
S481	S48	0.186580	0.673430	0.107050
O881	O88	0.951400	0.891100	0.896400
O891	O89	0.034400	0.910100	0.881700
O901	O90	0.891300	0.617400	0.910230
O911	O91	0.872900	0.565800	0.949600
O921	O92	0.256500	0.629000	0.879000
O931	O93	0.213700	0.705400	0.867400
O941	O94	0.454900	0.644900	0.991400
O951	O95	0.440600	0.599900	0.034400
O961	O96	0.149700	0.389300	0.024500
O971	O97	0.232500	0.423900	0.027100
O981	O98	0.929800	0.477400	0.119010
O991	O99	0.869900	0.538500	0.103500
O1001	O100	0.802800	0.865400	0.067000
O1011	O101	0.791400	0.789800	0.042900
O1021	O102	0.968700	0.832500	0.201200
O1031	O103	0.056200	0.875700	0.205200
O1041	O104	0.086800	0.085700	0.047700
O1051	O105	0.085500	0.064900	0.095400
O1061	O106	0.321800	0.990800	0.958550
O1071	O107	0.310100	0.924800	0.927290
O1081	O108	0.386100	0.853400	0.148900
O1091	O109	0.339300	0.928700	0.143800
O1101	O110	0.265300	0.595000	0.193400
O1111	O111	0.257600	0.531400	0.164600
N371	N37	0.981700	0.800600	0.922200
H3341	H334	0.974800	0.782900	0.905100
H3351	H335	0.951100	0.819000	0.927300
N381	N38	0.935100	0.694900	0.939400
H3361	H336	0.904100	0.714900	0.939000
H3371	H337	0.942600	0.685100	0.920600
N391	N39	0.278000	0.667100	0.932200
H3381	H338	0.308900	0.684700	0.926900
H3391	H339	0.281300	0.631900	0.926400
N401	N40	0.347200	0.639300	0.981600
H3401	H340	0.349700	0.607400	0.971700
H3411	H341	0.371200	0.662800	0.973300
N411	N41	0.105400	0.473500	0.053600
H3421	H342	0.109600	0.455100	0.070800
H3431	H343	0.082700	0.453800	0.042000
N421	N42	0.008300	0.511000	0.085900
H3441	H344	0.998600	0.479100	0.077400
H3451	H345	0.019900	0.503800	0.104500
N431	N43	0.897000	0.831100	0.091400
H3461	H346	0.877100	0.820900	0.107300
H3471	H347	0.892700	0.867500	0.089000
N441	N44	0.971800	0.845600	0.140800
H3481	H348	0.961500	0.881000	0.139800
H3491	H349	0.945700	0.827300	0.150900
N451	N45	0.158100	0.002100	0.036200
H3501	H350	0.187900	0.021000	0.041900
H3511	H351	0.142400	0.020600	0.021200
N461	N46	0.236500	0.961100	0.993600
H3521	H352	0.221600	0.990900	0.985100
H3531	H353	0.265700	0.972300	0.004300
N471	N47	0.300400	0.788600	0.143700
H3541	H354	0.296100	0.788200	0.163600
H3551	H355	0.334600	0.776800	0.139800
N481	N48	0.265800	0.675300	0.154200
H3561	H356	0.302500	0.674500	0.156100
H3571	H357	0.251600	0.683900	0.172100
C1871	C187	0.041400	0.862700	0.946900
C1881	C188	0.023400	0.838600	0.917100
H3581	H358	0.054500	0.820600	0.907500
C1891	C189	0.000100	0.885300	0.896300
C1901	C190	0.999300	0.894200	0.959800
H3591	H359	0.967300	0.871900	0.962300
H3601	H360	0.990900	0.924600	0.947100
H3611	H361	0.011200	0.907500	0.978800
C1911	C191	0.092900	0.897400	0.942300
H3621	H362	0.120900	0.875300	0.933400
H3631	H363	0.105500	0.910900	0.961000
H3641	H364	0.084500	0.927600	0.929500
C1921	C192	0.978800	0.621600	0.967900
C1931	C193	0.924400	0.645400	0.956300
H3651	H365	0.901300	0.654800	0.973300
C1941	C194	0.892600	0.606900	0.936200
C1951	C195	0.010700	0.599700	0.942600
H3661	H366	0.015800	0.627900	0.928100
H3671	H367	0.991200	0.569600	0.933900
H3681	H368	0.045700	0.587300	0.949600
C1961	C196	0.970500	0.578900	0.992200
H3691	H369	0.950100	0.594700	0.008200
H3701	H370	0.005500	0.566800	0.999400
H3711	H371	0.950700	0.548200	0.984300
C1971	C197	0.177600	0.676000	0.930500
C1981	C198	0.231600	0.691800	0.916300
H3721	H372	0.235500	0.731800	0.916300
C1991	C199	0.235700	0.669900	0.884200
C2001	C200	0.170100	0.615200	0.928100
H3731	H373	0.200900	0.597000	0.936900
H3741	H374	0.167600	0.605100	0.907500
H3751	H375	0.137200	0.604600	0.938100
C2011	C201	0.132300	0.705000	0.918000
H3761	H376	0.138600	0.743700	0.919700
H3771	H377	0.099400	0.695500	0.928400
H3781	H378	0.128600	0.695300	0.897500
C2021	C202	0.344100	0.678700	0.030400
C2031	C203	0.363100	0.630200	0.011800
H3791	H379	0.347500	0.595900	0.019300
C2041	C204	0.428400	0.625800	0.009400
C2051	C205	0.373400	0.727500	0.022500
H3801	H380	0.359700	0.757800	0.033900
H3811	H381	0.368600	0.734800	0.001800
H3821	H382	0.411700	0.722600	0.026700
C2061	C206	0.349500	0.669500	0.064600
H3831	H383	0.329900	0.637000	0.070100
H3841	H384	0.334600	0.700400	0.074900
H3851	H385	0.387500	0.665300	0.069700
C2071	C207	0.159300	0.522200	0.014900
C2081	C208	0.159800	0.478100	0.038700
H3861	H386	0.184600	0.492000	0.054000
C2091	C209	0.183300	0.425900	0.029500
C2101	C210	0.121300	0.507400	0.991800
H3871	H387	0.086000	0.500200	0.000300
H3881	H388	0.134200	0.475100	0.981800
H3891	H389	0.118400	0.536900	0.977800
C2111	C211	0.212900	0.533000	0.001500
H3901	H390	0.238700	0.542300	0.016700
H3911	H391	0.209800	0.563000	0.987800
H3921	H392	0.225300	0.501000	0.991200
C2121	C212	0.975900	0.601000	0.099600
C2131	C213	0.961200	0.547200	0.087200
H3931	H393	0.948400	0.553000	0.066800
C2141	C214	0.915500	0.518400	0.104300
C2151	C215	0.996400	0.597100	0.130100
H3941	H394	0.024700	0.569900	0.131000
H3951	H395	0.966900	0.586800	0.143000
H3961	H396	0.010900	0.631900	0.136100
C2161	C216	0.931400	0.642600	0.096800
H3971	H397	0.919300	0.644200	0.076600
H3981	H398	0.945100	0.677800	0.102700
H3991	H399	0.901300	0.632500	0.109300
C2171	C217	0.914400	0.808100	0.040100
C2181	C218	0.876400	0.803500	0.065600
H4001	H400	0.874800	0.764500	0.070700
C2191	C219	0.818500	0.820200	0.057700
C2201	C220	0.918500	0.866400	0.031700
H4011	H401	0.943600	0.870300	0.015400
H4021	H402	0.931400	0.887300	0.048300
H4031	H403	0.883000	0.879600	0.025800
C2211	C221	0.899100	0.774500	0.014700
H4041	H404	0.896100	0.736900	0.020700
H4051	H405	0.926600	0.777600	0.999500
H4061	H406	0.864500	0.786700	0.007000
C2221	C222	0.053900	0.789400	0.151500
C2231	C223	0.025300	0.841700	0.157700
H4071	H407	0.048900	0.871300	0.150500
C2241	C224	0.016000	0.851600	0.191100
C2251	C225	0.023000	0.739300	0.160200
H4081	H408	0.987400	0.740000	0.151200
H4091	H409	0.019200	0.738200	0.181400
H4101	H410	0.042500	0.707400	0.153600
C2261	C226	0.110600	0.788100	0.165100
H4111	H411	0.130900	0.819600	0.158600
H4121	H412	0.129200	0.755400	0.158900
H4131	H413	0.107600	0.788600	0.186300
C2271	C227	0.077600	0.958600	0.055800
C2281	C228	0.119500	0.000300	0.061100
H4141	H414	0.140200	0.988500	0.078500
C2291	C229	0.097000	0.053100	0.067900
C2301	C230	0.044600	0.970800	0.029100
H4151	H415	0.017600	0.942600	0.026400
H4161	H416	0.068100	0.972300	0.012000
H4171	H417	0.026600	0.005500	0.031500
C2311	C231	0.043000	0.947400	0.081400
H4181	H418	0.017000	0.919400	0.076400
H4191	H419	0.024000	0.980100	0.087000
H4201	H420	0.065400	0.935200	0.097600
C2321	C232	0.274300	0.870000	0.983500
C2331	C233	0.255800	0.924100	0.970000
H4211	H421	0.224400	0.916300	0.957200
C2341	C234	0.300300	0.949600	0.950600
C2351	C235	0.323500	0.879900	0.002900
H4221	H422	0.315400	0.908500	0.016800
H4231	H423	0.354000	0.890500	0.990800
H4241	H424	0.332300	0.846800	0.013400
C2361	C236	0.283700	0.826800	0.960600
H4251	H425	0.251300	0.822400	0.948800
H4261	H426	0.292300	0.792700	0.970200
H4271	H427	0.313700	0.837400	0.948100
C2371	C237	0.287600	0.844800	0.100200
C2381	C238	0.295400	0.845100	0.133400
H4281	H428	0.263200	0.861700	0.142700
C2391	C239	0.346300	0.876500	0.143000
C2401	C240	0.336700	0.824800	0.085100
H4291	H429	0.366300	0.849900	0.088300
H4301	H430	0.329500	0.821800	0.064200
H4311	H431	0.346400	0.789500	0.092900
C2411	C241	0.272700	0.898700	0.085900
H4321	H432	0.300300	0.925400	0.090400
H4331	H433	0.238000	0.911000	0.093500
H4341	H434	0.270200	0.893900	0.064800
C2421	C242	0.189300	0.621900	0.137100
C2431	C243	0.245700	0.618000	0.145400
H4351	H435	0.266400	0.606700	0.127800
C2441	C244	0.255900	0.577200	0.168900
C2451	C245	0.152100	0.637700	0.160500
H4361	H436	0.115400	0.638700	0.152900
H4371	H437	0.161900	0.673400	0.167700
H4381	H438	0.154200	0.611700	0.176400
C2461	C246	0.170000	0.569400	0.123800
H4391	H439	0.132400	0.573200	0.117900
H4401	H440	0.173100	0.540600	0.138200
H4411	H441	0.191900	0.560800	0.106800
La101	La10	0.877860	0.577930	0.861820
La111	La11	0.547800	0.605100	0.023600
La121	La12	0.601700	0.657400	0.054300
O1121	O112	0.930200	0.583200	0.811000
O1131	O113	0.910300	0.659300	0.833500
C2471	C247	0.929900	0.629700	0.809800
C2481	C248	0.954000	0.666500	0.784000
H4421	H442	0.949000	0.704500	0.788800
H4431	H443	0.935400	0.658300	0.765800
H4441	H444	0.992400	0.659000	0.781700
O1141	O114	0.502800	0.653300	0.078300
O1151	O115	0.552900	0.705800	0.006400
O1161	O116	0.687700	0.651700	0.026100
Ag331	Ag33	0.787920	0.156040	0.022150
Ag341	Ag34	0.654150	0.110150	0.001270
Ag351	Ag35	0.689800	0.000380	0.961510
Ag361	Ag36	0.825210	0.057740	0.976180
Ag371	Ag37	0.770750	0.232150	0.959530
Ag381	Ag38	0.628900	0.213980	0.940140
Ag391	Ag39	0.699390	0.091390	0.905500
Ag401	Ag40	0.849330	0.140090	0.903160
Pd251	Pd25	0.744500	0.997100	0.046170
Pd261	Pd26	0.669250	0.271100	0.023750
Pd271	Pd27	0.545900	0.070410	0.937720
Pd281	Pd28	0.815080	0.976760	0.900650
Pd291	Pd29	0.928940	0.182220	0.978910
Pd301	Pd30	0.734490	0.245810	0.874620
S491	S49	0.804830	0.059100	0.030370
S501	S50	0.677060	0.015060	0.014290
S511	S51	0.694450	0.185320	0.031560
S521	S52	0.682380	0.270510	0.974990
S531	S53	0.582940	0.135880	0.965930
S541	S54	0.624690	0.031890	0.924390
S551	S55	0.784700	0.980880	0.947050
S561	S56	0.790190	0.061620	0.888690
S571	S57	0.894500	0.115290	0.950730
S581	S58	0.848420	0.214630	0.994190
S591	S59	0.800730	0.228830	0.907280
S601	S60	0.673430	0.186580	0.892950
O1171	O117	0.891100	0.951400	0.103600
O1181	O118	0.910100	0.034400	0.118300
O1191	O119	0.617400	0.891300	0.089770
O1201	O120	0.565800	0.872900	0.050400
O1211	O121	0.629000	0.256500	0.121000
O1221	O122	0.705400	0.213700	0.132600
O1231	O123	0.644900	0.454900	0.008600
O1241	O124	0.599900	0.440600	0.965600
O1251	O125	0.389300	0.149700	0.975500
O1261	O126	0.423900	0.232500	0.972900
O1271	O127	0.477400	0.929800	0.880990
O1281	O128	0.538500	0.869900	0.896500
O1291	O129	0.865400	0.802800	0.933000
O1301	O130	0.789800	0.791400	0.957100
O1311	O131	0.832500	0.968700	0.798800
O1321	O132	0.875700	0.056200	0.794800
O1331	O133	0.085700	0.086800	0.952300
O1341	O134	0.064900	0.085500	0.904600
O1351	O135	0.990800	0.321800	0.041450
O1361	O136	0.924800	0.310100	0.072710
O1371	O137	0.853400	0.386100	0.851100
O1381	O138	0.928700	0.339300	0.856200
O1391	O139	0.595000	0.265300	0.806600
O1401	O140	0.531400	0.257600	0.835400
N491	N49	0.800600	0.981700	0.077800
H4451	H445	0.782900	0.974800	0.094900
H4461	H446	0.819000	0.951100	0.072700
N501	N50	0.694900	0.935100	0.060600
H4471	H447	0.714900	0.904100	0.061000
H4481	H448	0.685100	0.942600	0.079400
N511	N51	0.667100	0.278000	0.067800
H4491	H449	0.684700	0.308900	0.073100
H4501	H450	0.631900	0.281300	0.073600
N521	N52	0.639300	0.347200	0.018400
H4511	H451	0.607400	0.349700	0.028300
H4521	H452	0.662800	0.371200	0.026700
N531	N53	0.473500	0.105400	0.946400
H4531	H453	0.455100	0.109600	0.929200
H4541	H454	0.453800	0.082700	0.958000
N541	N54	0.511000	0.008300	0.914100
H4551	H455	0.479100	0.998600	0.922600
H4561	H456	0.503800	0.019900	0.895500
N551	N55	0.831100	0.897000	0.908600
H4571	H457	0.820900	0.877100	0.892700
H4581	H458	0.867500	0.892700	0.911000
N561	N56	0.845600	0.971800	0.859200
H4591	H459	0.881000	0.961500	0.860200
H4601	H460	0.827300	0.945700	0.849100
N571	N57	0.002100	0.158100	0.963800
H4611	H461	0.021000	0.187900	0.958100
H4621	H462	0.020600	0.142400	0.978800
N581	N58	0.961100	0.236500	0.006400
H4631	H463	0.990900	0.221600	0.014900
H4641	H464	0.972300	0.265700	0.995700
N591	N59	0.788600	0.300400	0.856300
H4651	H465	0.788200	0.296100	0.836400
H4661	H466	0.776800	0.334600	0.860200
N601	N60	0.675300	0.265800	0.845800
H4671	H467	0.674500	0.302500	0.843900
H4681	H468	0.683900	0.251600	0.827900
C2491	C249	0.862700	0.041400	0.053100
C2501	C250	0.838600	0.023400	0.082900
H4691	H469	0.820600	0.054500	0.092500
C2511	C251	0.885300	0.000100	0.103700
C2521	C252	0.894200	0.999300	0.040200
H4701	H470	0.871900	0.967300	0.037700
H4711	H471	0.924600	0.990900	0.052900
H4721	H472	0.907500	0.011200	0.021200
C2531	C253	0.897400	0.092900	0.057700
H4731	H473	0.875300	0.120900	0.066600
H4741	H474	0.910900	0.105500	0.039000
H4751	H475	0.927600	0.084500	0.070500
C2541	C254	0.621600	0.978800	0.032100
C2551	C255	0.645400	0.924400	0.043700
H4761	H476	0.654800	0.901300	0.026700
C2561	C256	0.606900	0.892600	0.063800
C2571	C257	0.599700	0.010700	0.057400
H4771	H477	0.627900	0.015800	0.071900
H4781	H478	0.569600	0.991200	0.066100
H4791	H479	0.587300	0.045700	0.050400
C2581	C258	0.578900	0.970500	0.007800
H4801	H480	0.594700	0.950100	0.991800
H4811	H481	0.566800	0.005500	0.000600
H4821	H482	0.548200	0.950700	0.015700
C2591	C259	0.676000	0.177600	0.069500
C2601	C260	0.691800	0.231600	0.083700
H4831	H483	0.731800	0.235500	0.083700
C2611	C261	0.669900	0.235700	0.115800
C2621	C262	0.615200	0.170100	0.071900
H4841	H484	0.597000	0.200900	0.063100
H4851	H485	0.605100	0.167600	0.092500
H4861	H486	0.604600	0.137200	0.061900
C2631	C263	0.705000	0.132300	0.082000
H4871	H487	0.743700	0.138600	0.080300
H4881	H488	0.695500	0.099400	0.071600
H4891	H489	0.695300	0.128600	0.102500
C2641	C264	0.678700	0.344100	0.969600
C2651	C265	0.630200	0.363100	0.988200
H4901	H490	0.595900	0.347500	0.980700
C2661	C266	0.625800	0.428400	0.990600
C2671	C267	0.727500	0.373400	0.977500
H4911	H491	0.757800	0.359700	0.966100
H4921	H492	0.734800	0.368600	0.998200
H4931	H493	0.722600	0.411700	0.973300
C2681	C268	0.669500	0.349500	0.935400
H4941	H494	0.637000	0.329900	0.929900
H4951	H495	0.700400	0.334600	0.925100
H4961	H496	0.665300	0.387500	0.930300
C2691	C269	0.522200	0.159300	0.985100
C2701	C270	0.478100	0.159800	0.961300
H4971	H497	0.492000	0.184600	0.946000
C2711	C271	0.425900	0.183300	0.970500
C2721	C272	0.507400	0.121300	0.008200
H4981	H498	0.500200	0.086000	0.999700
H4991	H499	0.475100	0.134200	0.018200
H5001	H500	0.536900	0.118400	0.022200
C2731	C273	0.533000	0.212900	0.998500
H5011	H501	0.542300	0.238700	0.983300
H5021	H502	0.563000	0.209800	0.012200
H5031	H503	0.501000	0.225300	0.008800
C2741	C274	0.601000	0.975900	0.900400
C2751	C275	0.547200	0.961200	0.912800
H5041	H504	0.553000	0.948400	0.933200
C2761	C276	0.518400	0.915500	0.895700
C2771	C277	0.597100	0.996400	0.869900
H5051	H505	0.569900	0.024700	0.869000
H5061	H506	0.586800	0.966900	0.857000
H5071	H507	0.631900	0.010900	0.863900
C2781	C278	0.642600	0.931400	0.903200
H5081	H508	0.644200	0.919300	0.923400
H5091	H509	0.677800	0.945100	0.897300
H5101	H510	0.632500	0.901300	0.890700
C2791	C279	0.808100	0.914400	0.959900
C2801	C280	0.803500	0.876400	0.934400
H5111	H511	0.764500	0.874800	0.929300
C2811	C281	0.820200	0.818500	0.942300
C2821	C282	0.866400	0.918500	0.968300
H5121	H512	0.870300	0.943600	0.984600
H5131	H513	0.887300	0.931400	0.951700
H5141	H514	0.879600	0.883000	0.974200
C2831	C283	0.774500	0.899100	0.985300
H5151	H515	0.736900	0.896100	0.979300
H5161	H516	0.777600	0.926600	0.000500
H5171	H517	0.786700	0.864500	0.993000
C2841	C284	0.789400	0.053900	0.848500
C2851	C285	0.841700	0.025300	0.842300
H5181	H518	0.871300	0.048900	0.849500
C2861	C286	0.851600	0.016000	0.808900
C2871	C287	0.739300	0.023000	0.839800
H5191	H519	0.740000	0.987400	0.848800
H5201	H520	0.738200	0.019200	0.818600
H5211	H521	0.707400	0.042500	0.846400
C2881	C288	0.788100	0.110600	0.834900
H5221	H522	0.819600	0.130900	0.841400
H5231	H523	0.755400	0.129200	0.841100
H5241	H524	0.788600	0.107600	0.813700
C2891	C289	0.958600	0.077600	0.944200
C2901	C290	0.000300	0.119500	0.938900
H5251	H525	0.988500	0.140200	0.921500
C2911	C291	0.053100	0.097000	0.932100
C2921	C292	0.970800	0.044600	0.970900
H5261	H526	0.942600	0.017600	0.973600
H5271	H527	0.972300	0.068100	0.988000
H5281	H528	0.005500	0.026600	0.968500
C2931	C293	0.947400	0.043000	0.918600
H5291	H529	0.919400	0.017000	0.923600
H5301	H530	0.980100	0.024000	0.913000
H5311	H531	0.935200	0.065400	0.902400
C2941	C294	0.870000	0.274300	0.016500
C2951	C295	0.924100	0.255800	0.030000
H5321	H532	0.916300	0.224400	0.042800
C2961	C296	0.949600	0.300300	0.049400
C2971	C297	0.879900	0.323500	0.997100
H5331	H533	0.908500	0.315400	0.983200
H5341	H534	0.890500	0.354000	0.009200
H5351	H535	0.846800	0.332300	0.986600
C2981	C298	0.826800	0.283700	0.039400
H5361	H536	0.822400	0.251300	0.051200
H5371	H537	0.792700	0.292300	0.029800
H5381	H538	0.837400	0.313700	0.051900
C2991	C299	0.844800	0.287600	0.899800
C3001	C300	0.845100	0.295400	0.866600
H5391	H539	0.861700	0.263200	0.857300
C3011	C301	0.876500	0.346300	0.857000
C3021	C302	0.824800	0.336700	0.914900
H5401	H540	0.849900	0.366300	0.911700
H5411	H541	0.821800	0.329500	0.935800
H5421	H542	0.789500	0.346400	0.907100
C3031	C303	0.898700	0.272700	0.914100
H5431	H543	0.925400	0.300300	0.909600
H5441	H544	0.911000	0.238000	0.906500
H5451	H545	0.893900	0.270200	0.935200
C3041	C304	0.621900	0.189300	0.862900
C3051	C305	0.618000	0.245700	0.854600
H5461	H546	0.606700	0.266400	0.872200
C3061	C306	0.577200	0.255900	0.831100
C3071	C307	0.637700	0.152100	0.839500
H5471	H547	0.638700	0.115400	0.847100
H5481	H548	0.673400	0.161900	0.832300
H5491	H549	0.611700	0.154200	0.823600
C3081	C308	0.569400	0.170000	0.876200
H5501	H550	0.573200	0.132400	0.882100
H5511	H551	0.540600	0.173100	0.861800
H5521	H552	0.560800	0.191900	0.893200
La131	La13	0.577930	0.877860	0.138180
La141	La14	0.605100	0.547800	0.976400
La151	La15	0.657400	0.601700	0.945700
O1411	O141	0.583200	0.930200	0.189000
O1421	O142	0.659300	0.910300	0.166500
C3091	C309	0.629700	0.929900	0.190200
C3101	C310	0.666500	0.954000	0.216000
H5531	H553	0.704500	0.949000	0.211200
H5541	H554	0.658300	0.935400	0.234200
H5551	H555	0.659000	0.992400	0.218300
O1431	O143	0.653300	0.502800	0.921700
O1441	O144	0.705800	0.552900	0.993600
O1451	O145	0.651700	0.687700	0.973900
Ag411	Ag41	0.212080	0.843960	0.522150
Ag421	Ag42	0.345850	0.889850	0.501270
Ag431	Ag43	0.310200	0.999620	0.461510
Ag441	Ag44	0.174790	0.942260	0.476180
Ag451	Ag45	0.229250	0.767850	0.459530
Ag461	Ag46	0.371100	0.786020	0.440140
Ag471	Ag47	0.300610	0.908610	0.405500
Ag481	Ag48	0.150670	0.859910	0.403160
Pd311	Pd31	0.255500	0.002900	0.546170
Pd321	Pd32	0.330750	0.728900	0.523750
Pd331	Pd33	0.454100	0.929590	0.437720
Pd341	Pd34	0.184920	0.023240	0.400650
Pd351	Pd35	0.071060	0.817780	0.478910
Pd361	Pd36	0.265510	0.754190	0.374620
S611	S61	0.195170	0.940900	0.530370
S621	S62	0.322940	0.984940	0.514290
S631	S63	0.305550	0.814680	0.531560
S641	S64	0.317620	0.729490	0.474990
S651	S65	0.417060	0.864120	0.465930
S661	S66	0.375310	0.968110	0.424390
S671	S67	0.215300	0.019120	0.447050
S681	S68	0.209810	0.938380	0.388690
S691	S69	0.105500	0.884710	0.450730
S701	S70	0.151580	0.785370	0.494190
S711	S71	0.199270	0.771170	0.407280
S721	S72	0.326570	0.813420	0.392950
O1461	O146	0.108900	0.048600	0.603600
O1471	O147	0.089900	0.965600	0.618300
O1481	O148	0.382600	0.108700	0.589770
O1491	O149	0.434200	0.127100	0.550400
O1501	O150	0.371000	0.743500	0.621000
O1511	O151	0.294600	0.786300	0.632600
O1521	O152	0.355100	0.545100	0.508600
O1531	O153	0.400100	0.559400	0.465600
O1541	O154	0.610700	0.850300	0.475500
O1551	O155	0.576100	0.767500	0.472900
O1561	O156	0.522600	0.070200	0.380990
O1571	O157	0.461500	0.130100	0.396500
O1581	O158	0.134600	0.197200	0.433000
O1591	O159	0.210200	0.208600	0.457100
O1601	O160	0.167500	0.031300	0.298800
O1611	O161	0.124300	0.943800	0.294800
O1621	O162	0.914300	0.913200	0.452300
O1631	O163	0.935100	0.914500	0.404600
O1641	O164	0.009200	0.678200	0.541450
O1651	O165	0.075200	0.689900	0.572710
O1661	O166	0.146600	0.613900	0.351100
O1671	O167	0.071300	0.660700	0.356200
O1681	O168	0.405000	0.734700	0.306600
O1691	O169	0.468600	0.742400	0.335400
N611	N61	0.199400	0.018300	0.577800
H5561	H556	0.217100	0.025200	0.594900
H5571	H557	0.181000	0.048900	0.572700
N621	N62	0.305100	0.064900	0.560600
H5581	H558	0.285100	0.095900	0.561000
H5591	H559	0.314900	0.057400	0.579400
N631	N63	0.332900	0.722000	0.567800
H5601	H560	0.315300	0.691100	0.573100
H5611	H561	0.368100	0.718700	0.573600
N641	N64	0.360700	0.652800	0.518400
H5621	H562	0.392600	0.650300	0.528300
H5631	H563	0.337200	0.628800	0.526700
N651	N65	0.526500	0.894600	0.446400
H5641	H564	0.544900	0.890400	0.429200
H5651	H565	0.546200	0.917300	0.458000
N661	N66	0.489000	0.991700	0.414100
H5661	H566	0.520900	0.001400	0.422600
H5671	H567	0.496200	0.980100	0.395500
N671	N67	0.168900	0.103000	0.408600
H5681	H568	0.179100	0.122900	0.392700
H5691	H569	0.132500	0.107300	0.411000
N681	N68	0.154400	0.028200	0.359200
H5701	H570	0.119000	0.038500	0.360200
H5711	H571	0.172700	0.054300	0.349100
N691	N69	0.997900	0.841900	0.463800
H5721	H572	0.979000	0.812100	0.458100
H5731	H573	0.979400	0.857600	0.478800
N701	N70	0.038900	0.763500	0.506400
H5741	H574	0.009100	0.778400	0.514900
H5751	H575	0.027700	0.734300	0.495700
N711	N71	0.211400	0.699600	0.356300
H5761	H576	0.211800	0.703900	0.336400
H5771	H577	0.223200	0.665400	0.360200
N721	N72	0.324700	0.734200	0.345800
H5781	H578	0.325500	0.697500	0.343900
H5791	H579	0.316100	0.748400	0.327900
C3111	C311	0.137300	0.958600	0.553100
C3121	C312	0.161400	0.976600	0.582900
H5801	H580	0.179400	0.945500	0.592500
C3131	C313	0.114700	0.999900	0.603700
C3141	C314	0.105800	0.000700	0.540200
H5811	H581	0.128100	0.032700	0.537700
H5821	H582	0.075400	0.009100	0.552900
H5831	H583	0.092500	0.988800	0.521200
C3151	C315	0.102600	0.907100	0.557700
H5841	H584	0.124700	0.879100	0.566600
H5851	H585	0.089100	0.894500	0.539000
H5861	H586	0.072400	0.915500	0.570500
C3161	C316	0.378400	0.021200	0.532100
C3171	C317	0.354600	0.075600	0.543700
H5871	H587	0.345200	0.098700	0.526700
C3181	C318	0.393100	0.107400	0.563800
C3191	C319	0.400300	0.989300	0.557400
H5881	H588	0.372100	0.984200	0.571900
H5891	H589	0.430400	0.008800	0.566100
H5901	H590	0.412700	0.954300	0.550400
C3201	C320	0.421100	0.029500	0.507800
H5911	H591	0.405300	0.049900	0.491800
H5921	H592	0.433200	0.994500	0.500600
H5931	H593	0.451800	0.049300	0.515700
C3211	C321	0.324000	0.822400	0.569500
C3221	C322	0.308200	0.768400	0.583700
H5941	H594	0.268200	0.764500	0.583700
C3231	C323	0.330100	0.764300	0.615800
C3241	C324	0.384800	0.829900	0.571900
H5951	H595	0.403000	0.799100	0.563100
H5961	H596	0.394900	0.832400	0.592500
H5971	H597	0.395400	0.862800	0.561900
C3251	C325	0.295000	0.867700	0.582000
H5981	H598	0.256300	0.861400	0.580300
H5991	H599	0.304500	0.900600	0.571600
H6001	H600	0.304700	0.871400	0.602500
C3261	C326	0.321300	0.655900	0.469600
C3271	C327	0.369800	0.636900	0.488200
H6011	H601	0.404100	0.652500	0.480700
C3281	C328	0.374200	0.571600	0.490600
C3291	C329	0.272500	0.626600	0.477500
H6021	H602	0.242200	0.640300	0.466100
H6031	H603	0.265200	0.631400	0.498200
H6041	H604	0.277400	0.588300	0.473300
C3301	C330	0.330500	0.650500	0.435400
H6051	H605	0.363000	0.670100	0.429900
H6061	H606	0.299600	0.665400	0.425100
H6071	H607	0.334700	0.612500	0.430300
C3311	C331	0.477800	0.840700	0.485100
C3321	C332	0.521900	0.840200	0.461300
H6081	H608	0.508000	0.815400	0.446000
C3331	C333	0.574100	0.816700	0.470500
C3341	C334	0.492600	0.878700	0.508200
H6091	H609	0.499800	0.914000	0.499700
H6101	H610	0.524900	0.865800	0.518200
H6111	H611	0.463100	0.881600	0.522200
C3351	C335	0.467000	0.787100	0.498500
H6121	H612	0.457700	0.761300	0.483300
H6131	H613	0.437000	0.790200	0.512200
H6141	H614	0.499000	0.774700	0.508800
C3361	C336	0.399000	0.024100	0.400400
C3371	C337	0.452800	0.038800	0.412800
H6151	H615	0.447000	0.051600	0.433200
C3381	C338	0.481600	0.084500	0.395700
C3391	C339	0.402900	0.003600	0.369900
H6161	H616	0.430100	0.975300	0.369000
H6171	H617	0.413200	0.033100	0.357000
H6181	H618	0.368100	0.989100	0.363900
C3401	C340	0.357400	0.068600	0.403200
H6191	H619	0.355800	0.080700	0.423400
H6201	H620	0.322200	0.054900	0.397300
H6211	H621	0.367500	0.098700	0.390700
C3411	C341	0.191900	0.085600	0.459900
C3421	C342	0.196500	0.123600	0.434400
H6221	H622	0.235500	0.125200	0.429300
C3431	C343	0.179800	0.181500	0.442300
C3441	C344	0.133600	0.081500	0.468300
H6231	H623	0.129700	0.056400	0.484600
H6241	H624	0.112700	0.068600	0.451700
H6251	H625	0.120400	0.117000	0.474200
C3451	C345	0.225500	0.100900	0.485300
H6261	H626	0.263100	0.103900	0.479300
H6271	H627	0.222400	0.073400	0.500500
H6281	H628	0.213300	0.135500	0.493000
C3461	C346	0.210600	0.946100	0.348500
C3471	C347	0.158300	0.974700	0.342300
H6291	H629	0.128700	0.951100	0.349500
C3481	C348	0.148400	0.984000	0.308900
C3491	C349	0.260700	0.977000	0.339800
H6301	H630	0.260000	0.012600	0.348800
H6311	H631	0.261800	0.980800	0.318600
H6321	H632	0.292600	0.957500	0.346400
C3501	C350	0.211900	0.889400	0.334900
H6331	H633	0.180400	0.869100	0.341400
H6341	H634	0.244600	0.870800	0.341100
H6351	H635	0.211400	0.892400	0.313700
C3511	C351	0.041400	0.922400	0.444200
C3521	C352	0.999700	0.880500	0.438900
H6361	H636	0.011500	0.859800	0.421500
C3531	C353	0.946900	0.903000	0.432100
C3541	C354	0.029200	0.955400	0.470900
H6371	H637	0.057400	0.982400	0.473600
H6381	H638	0.027700	0.931900	0.488000
H6391	H639	0.994500	0.973400	0.468500
C3551	C355	0.052600	0.957000	0.418600
H6401	H640	0.080600	0.983000	0.423600
H6411	H641	0.019900	0.976000	0.413000
H6421	H642	0.064800	0.934600	0.402400
C3561	C356	0.130000	0.725700	0.516500
C3571	C357	0.075900	0.744200	0.530000
H6431	H643	0.083700	0.775600	0.542800
C3581	C358	0.050400	0.699700	0.549400
C3591	C359	0.120100	0.676500	0.497100
H6441	H644	0.091500	0.684600	0.483200
H6451	H645	0.109500	0.646000	0.509200
H6461	H646	0.153200	0.667700	0.486600
C3601	C360	0.173200	0.716300	0.539400
H6471	H647	0.177600	0.748700	0.551200
H6481	H648	0.207300	0.707700	0.529800
H6491	H649	0.162600	0.686300	0.551900
C3611	C361	0.155200	0.712400	0.399800
C3621	C362	0.154900	0.704600	0.366600
H6501	H650	0.138300	0.736800	0.357300
C3631	C363	0.123500	0.653700	0.357000
C3641	C364	0.175200	0.663300	0.414900
H6511	H651	0.150100	0.633700	0.411700
H6521	H652	0.178200	0.670500	0.435800
H6531	H653	0.210500	0.653600	0.407100
C3651	C365	0.101300	0.727300	0.414100
H6541	H654	0.074600	0.699700	0.409600
H6551	H655	0.089000	0.762000	0.406500
H6561	H656	0.106100	0.729800	0.435200
C3661	C366	0.378100	0.810700	0.362900
C3671	C367	0.382000	0.754300	0.354600
H6571	H657	0.393300	0.733600	0.372200
C3681	C368	0.422800	0.744100	0.331100
C3691	C369	0.362300	0.847900	0.339500
H6581	H658	0.361300	0.884600	0.347100
H6591	H659	0.326600	0.838100	0.332300
H6601	H660	0.388300	0.845800	0.323600
C3701	C370	0.430600	0.830000	0.376200
H6611	H661	0.426800	0.867600	0.382100
H6621	H662	0.459400	0.826900	0.361800
H6631	H663	0.439200	0.808100	0.393200
La161	La16	0.422070	0.122140	0.638180
La171	La17	0.394900	0.452200	0.476400
La181	La18	0.342600	0.398300	0.445700
O1701	O170	0.416800	0.069800	0.689000
O1711	O171	0.340700	0.089700	0.666500
C3711	C371	0.370300	0.070100	0.690200
C3721	C372	0.333500	0.046000	0.716000
H6641	H664	0.295500	0.051000	0.711200
H6651	H665	0.341700	0.064600	0.734200
H6661	H666	0.341000	0.007600	0.718300
O1721	O172	0.346700	0.497200	0.421700
O1731	O173	0.294200	0.447100	0.493600
O1741	O174	0.348300	0.312300	0.473900
Ag491	Ag49	0.656040	0.712080	0.772150
Ag501	Ag50	0.610150	0.845850	0.751270
Ag511	Ag51	0.500380	0.810200	0.711510
Ag521	Ag52	0.557740	0.674790	0.726180
Ag531	Ag53	0.732150	0.729250	0.709530
Ag541	Ag54	0.713980	0.871100	0.690140
Ag551	Ag55	0.591390	0.800610	0.655500
Ag561	Ag56	0.640090	0.650670	0.653160
Pd371	Pd37	0.497100	0.755500	0.796170
Pd381	Pd38	0.771100	0.830750	0.773750
Pd391	Pd39	0.570410	0.954100	0.687720
Pd401	Pd40	0.476760	0.684920	0.650650
Pd411	Pd41	0.682220	0.571060	0.728910
Pd421	Pd42	0.745810	0.765510	0.624620
S731	S73	0.559100	0.695170	0.780370
S741	S74	0.515060	0.822940	0.764290
S751	S75	0.685320	0.805550	0.781560
S761	S76	0.770510	0.817620	0.724990
S771	S77	0.635880	0.917060	0.715930
S781	S78	0.531890	0.875310	0.674390
S791	S79	0.480880	0.715300	0.697050
S801	S80	0.561620	0.709810	0.638690
S811	S81	0.615290	0.605500	0.700730
S821	S82	0.714630	0.651580	0.744190
S831	S83	0.728830	0.699270	0.657280
S841	S84	0.686580	0.826570	0.642950
O1751	O175	0.451400	0.608900	0.853600
O1761	O176	0.534400	0.589900	0.868300
O1771	O177	0.391300	0.882600	0.839770
O1781	O178	0.372900	0.934200	0.800400
O1791	O179	0.756500	0.871000	0.871000
O1801	O180	0.713700	0.794600	0.882600
O1811	O181	0.954900	0.855100	0.758600
O1821	O182	0.940600	0.900100	0.715600
O1831	O183	0.649700	0.110700	0.725500
O1841	O184	0.732500	0.076100	0.722900
O1851	O185	0.429800	0.022600	0.630990
O1861	O186	0.369900	0.961500	0.646500
O1871	O187	0.302800	0.634600	0.683000
O1881	O188	0.291400	0.710200	0.707100
O1891	O189	0.468700	0.667500	0.548800
O1901	O190	0.556200	0.624300	0.544800
O1911	O191	0.586800	0.414300	0.702300
O1921	O192	0.585500	0.435100	0.654600
O1931	O193	0.821800	0.509200	0.791450
O1941	O194	0.810100	0.575200	0.822710
O1951	O195	0.886100	0.646600	0.601100
O1961	O196	0.839300	0.571300	0.606200
O1971	O197	0.765300	0.905000	0.556600
O1981	O198	0.757600	0.968600	0.585400
N731	N73	0.481700	0.699400	0.827800
H6671	H667	0.474800	0.717100	0.844900
H6681	H668	0.451100	0.681000	0.822700
N741	N74	0.435100	0.805100	0.810600
H6691	H669	0.404100	0.785100	0.811000
H6701	H670	0.442600	0.814900	0.829400
N751	N75	0.778000	0.832900	0.817800
H6711	H671	0.808900	0.815300	0.823100
H6721	H672	0.781300	0.868100	0.823600
N761	N76	0.847200	0.860700	0.768400
H6731	H673	0.849700	0.892600	0.778300
H6741	H674	0.871200	0.837200	0.776700
N771	N77	0.605400	0.026500	0.696400
H6751	H675	0.609600	0.044900	0.679200
H6761	H676	0.582700	0.046200	0.708000
N781	N78	0.508300	0.989000	0.664100
H6771	H677	0.498600	0.020900	0.672600
H6781	H678	0.519900	0.996200	0.645500
N791	N79	0.397000	0.668900	0.658600
H6791	H679	0.377100	0.679100	0.642700
H6801	H680	0.392700	0.632500	0.661000
N801	N80	0.471800	0.654400	0.609200
H6811	H681	0.461500	0.619000	0.610200
H6821	H682	0.445700	0.672700	0.599100
N811	N81	0.658100	0.497900	0.713800
H6831	H683	0.687900	0.479000	0.708100
H6841	H684	0.642400	0.479400	0.728800
N821	N82	0.736500	0.538900	0.756400
H6851	H685	0.721600	0.509100	0.764900
H6861	H686	0.765700	0.527700	0.745700
N831	N83	0.800400	0.711400	0.606300
H6871	H687	0.796100	0.711800	0.586400
H6881	H688	0.834600	0.723200	0.610200
N841	N84	0.765800	0.824700	0.595800
H6891	H689	0.802500	0.825500	0.593900
H6901	H690	0.751600	0.816100	0.577900
C3731	C373	0.541400	0.637300	0.803100
C3741	C374	0.523400	0.661400	0.832900
H6911	H691	0.554500	0.679400	0.842500
C3751	C375	0.500100	0.614700	0.853700
C3761	C376	0.499300	0.605800	0.790200
H6921	H692	0.467300	0.628100	0.787700
H6931	H693	0.490900	0.575400	0.802900
H6941	H694	0.511200	0.592500	0.771200
C3771	C377	0.592900	0.602600	0.807700
H6951	H695	0.620900	0.624700	0.816600
H6961	H696	0.605500	0.589100	0.789000
H6971	H697	0.584500	0.572400	0.820500
C3781	C378	0.478800	0.878400	0.782100
C3791	C379	0.424400	0.854600	0.793700
H6981	H698	0.401300	0.845200	0.776700
C3801	C380	0.392600	0.893100	0.813800
C3811	C381	0.510700	0.900300	0.807400
H6991	H699	0.515800	0.872100	0.821900
H7001	H700	0.491200	0.930400	0.816100
H7011	H701	0.545700	0.912700	0.800400
C3821	C382	0.470500	0.921100	0.757800
H7021	H702	0.450100	0.905300	0.741800
H7031	H703	0.505500	0.933200	0.750600
H7041	H704	0.450700	0.951800	0.765700
C3831	C383	0.677600	0.824000	0.819500
C3841	C384	0.731600	0.808200	0.833700
H7051	H705	0.735500	0.768200	0.833700
C3851	C385	0.735700	0.830100	0.865800
C3861	C386	0.670100	0.884800	0.821900
H7061	H706	0.700900	0.903000	0.813100
H7071	H707	0.667600	0.894900	0.842500
H7081	H708	0.637200	0.895400	0.811900
C3871	C387	0.632300	0.795000	0.832000
H7091	H709	0.638600	0.756300	0.830300
H7101	H710	0.599400	0.804500	0.821600
H7111	H711	0.628600	0.804700	0.852500
C3881	C388	0.844100	0.821300	0.719600
C3891	C389	0.863100	0.869800	0.738200
H7121	H712	0.847500	0.904100	0.730700
C3901	C390	0.928400	0.874200	0.740600
C3911	C391	0.873400	0.772500	0.727500
H7131	H713	0.859700	0.742200	0.716100
H7141	H714	0.868600	0.765200	0.748200
H7151	H715	0.911700	0.777400	0.723300
C3921	C392	0.849500	0.830500	0.685400
H7161	H716	0.829900	0.863000	0.679900
H7171	H717	0.834600	0.799600	0.675100
H7181	H718	0.887500	0.834700	0.680300
C3931	C393	0.659300	0.977800	0.735100
C3941	C394	0.659800	0.021900	0.711300
H7191	H719	0.684600	0.008000	0.696000
C3951	C395	0.683300	0.074100	0.720500
C3961	C396	0.621300	0.992600	0.758200
H7201	H720	0.586000	0.999800	0.749700
H7211	H721	0.634200	0.024900	0.768200
H7221	H722	0.618400	0.963100	0.772200
C3971	C397	0.712900	0.967000	0.748500
H7231	H723	0.738700	0.957700	0.733300
H7241	H724	0.709800	0.937000	0.762200
H7251	H725	0.725300	0.999000	0.758800
C3981	C398	0.475900	0.899000	0.650400
C3991	C399	0.461200	0.952800	0.662800
H7261	H726	0.448400	0.947000	0.683200
C4001	C400	0.415500	0.981600	0.645700
C4011	C401	0.496400	0.902900	0.619900
H7271	H727	0.524700	0.930100	0.619000
H7281	H728	0.466900	0.913200	0.607000
H7291	H729	0.510900	0.868100	0.613900
C4021	C402	0.431400	0.857400	0.653200
H7301	H730	0.419300	0.855800	0.673400
H7311	H731	0.445100	0.822200	0.647300
H7321	H732	0.401300	0.867500	0.640700
C4031	C403	0.414400	0.691900	0.709900
C4041	C404	0.376400	0.696500	0.684400
H7331	H733	0.374800	0.735500	0.679300
C4051	C405	0.318500	0.679800	0.692300
C4061	C406	0.418500	0.633600	0.718300
H7341	H734	0.443600	0.629700	0.734600
H7351	H735	0.431400	0.612700	0.701700
H7361	H736	0.383000	0.620400	0.724200
C4071	C407	0.399100	0.725500	0.735300
H7371	H737	0.396100	0.763100	0.729300
H7381	H738	0.426600	0.722400	0.750500
H7391	H739	0.364500	0.713300	0.743000
C4081	C408	0.553900	0.710600	0.598500
C4091	C409	0.525300	0.658300	0.592300
H7401	H740	0.548900	0.628700	0.599500
C4101	C410	0.516000	0.648400	0.558900
C4111	C411	0.523000	0.760700	0.589800
H7411	H741	0.487400	0.760000	0.598800
H7421	H742	0.519200	0.761800	0.568600
H7431	H743	0.542500	0.792600	0.596400
C4121	C412	0.610600	0.711900	0.584900
H7441	H744	0.630900	0.680400	0.591400
H7451	H745	0.629200	0.744600	0.591100
H7461	H746	0.607600	0.711400	0.563700
C4131	C413	0.577600	0.541400	0.694200
C4141	C414	0.619500	0.499700	0.688900
H7471	H747	0.640200	0.511500	0.671500
C4151	C415	0.597000	0.446900	0.682100
C4161	C416	0.544600	0.529200	0.720900
H7481	H748	0.517600	0.557400	0.723600
H7491	H749	0.568100	0.527700	0.738000
H7501	H750	0.526600	0.494500	0.718500
C4171	C417	0.543000	0.552600	0.668600
H7511	H751	0.517000	0.580600	0.673600
H7521	H752	0.524000	0.519900	0.663000
H7531	H753	0.565400	0.564800	0.652400
C4181	C418	0.774300	0.630000	0.766500
C4191	C419	0.755800	0.575900	0.780000
H7541	H754	0.724400	0.583700	0.792800
C4201	C420	0.800300	0.550400	0.799400
C4211	C421	0.823500	0.620100	0.747100
H7551	H755	0.815400	0.591500	0.733200
H7561	H756	0.854000	0.609500	0.759200
H7571	H757	0.832300	0.653200	0.736600
C4221	C422	0.783700	0.673200	0.789400
H7581	H758	0.751300	0.677600	0.801200
H7591	H759	0.792300	0.707300	0.779800
H7601	H760	0.813700	0.662600	0.801900
C4231	C423	0.787600	0.655200	0.649800
C4241	C424	0.795400	0.654900	0.616600
H7611	H761	0.763200	0.638300	0.607300
C4251	C425	0.846300	0.623500	0.607000
C4261	C426	0.836700	0.675200	0.664900
H7621	H762	0.866300	0.650100	0.661700
H7631	H763	0.829500	0.678200	0.685800
H7641	H764	0.846400	0.710500	0.657100
C4271	C427	0.772700	0.601300	0.664100
H7651	H765	0.800300	0.574600	0.659600
H7661	H766	0.738000	0.589000	0.656500
H7671	H767	0.770200	0.606100	0.685200
C4281	C428	0.689300	0.878100	0.612900
C4291	C429	0.745700	0.882000	0.604600
H7681	H768	0.766400	0.893300	0.622200
C4301	C430	0.755900	0.922800	0.581100
C4311	C431	0.652100	0.862300	0.589500
H7691	H769	0.615400	0.861300	0.597100
H7701	H770	0.661900	0.826600	0.582300
H7711	H771	0.654200	0.888300	0.573600
C4321	C432	0.670000	0.930600	0.626200
H7721	H772	0.632400	0.926800	0.632100
H7731	H773	0.673100	0.959400	0.611800
H7741	H774	0.691900	0.939200	0.643200
La191	La19	0.377860	0.922070	0.888180
La201	La20	0.047800	0.894900	0.726400
La211	La21	0.101700	0.842600	0.695700
O1991	O199	0.430200	0.916800	0.939000
O2001	O200	0.410300	0.840700	0.916500
C4331	C433	0.429900	0.870300	0.940200
C4341	C434	0.454000	0.833500	0.966000
H7751	H775	0.449000	0.795500	0.961200
H7761	H776	0.435400	0.841700	0.984200
H7771	H777	0.492400	0.841000	0.968300
O2011	O201	0.002800	0.846700	0.671700
O2021	O202	0.052900	0.794200	0.743600
O2031	O203	0.187700	0.848300	0.723900
Ag571	Ag57	0.343960	0.287920	0.272150
Ag581	Ag58	0.389850	0.154150	0.251270
Ag591	Ag59	0.499620	0.189800	0.211510
Ag601	Ag60	0.442260	0.325210	0.226180
Ag611	Ag61	0.267850	0.270750	0.209530
Ag621	Ag62	0.286020	0.128900	0.190140
Ag631	Ag63	0.408610	0.199390	0.155500
Ag641	Ag64	0.359910	0.349330	0.153160
Pd431	Pd43	0.502900	0.244500	0.296170
Pd441	Pd44	0.228900	0.169250	0.273750
Pd451	Pd45	0.429590	0.045900	0.187720
Pd461	Pd46	0.523240	0.315080	0.150650
Pd471	Pd47	0.317780	0.428940	0.228910
Pd481	Pd48	0.254190	0.234490	0.124620
S851	S85	0.440900	0.304830	0.280370
S861	S86	0.484940	0.177060	0.264290
S871	S87	0.314680	0.194450	0.281560
S881	S88	0.229490	0.182380	0.224990
S891	S89	0.364120	0.082940	0.215930
S901	S90	0.468110	0.124690	0.174390
S911	S91	0.519120	0.284700	0.197050
S921	S92	0.438380	0.290190	0.138690
S931	S93	0.384710	0.394500	0.200730
S941	S94	0.285370	0.348420	0.244190
S951	S95	0.271170	0.300730	0.157280
S961	S96	0.313420	0.173430	0.142950
O2041	O204	0.548600	0.391100	0.353600
O2051	O205	0.465600	0.410100	0.368300
O2061	O206	0.608700	0.117400	0.339770
O2071	O207	0.627100	0.065800	0.300400
O2081	O208	0.243500	0.129000	0.371000
O2091	O209	0.286300	0.205400	0.382600
O2101	O210	0.045100	0.144900	0.258600
O2111	O211	0.059400	0.099900	0.215600
O2121	O212	0.350300	0.889300	0.225500
O2131	O213	0.267500	0.923900	0.222900
O2141	O214	0.570200	0.977400	0.130990
O2151	O215	0.630100	0.038500	0.146500
O2161	O216	0.697200	0.365400	0.183000
O2171	O217	0.708600	0.289800	0.207100
O2181	O218	0.531300	0.332500	0.048800
O2191	O219	0.443800	0.375700	0.044800
O2201	O220	0.413200	0.585700	0.202300
O2211	O221	0.414500	0.564900	0.154600
O2221	O222	0.178200	0.490800	0.291450
O2231	O223	0.189900	0.424800	0.322710
O2241	O224	0.113900	0.353400	0.101100
O2251	O225	0.160700	0.428700	0.106200
O2261	O226	0.234700	0.095000	0.056600
O2271	O227	0.242400	0.031400	0.085400
N851	N85	0.518300	0.300600	0.327800
H7781	H778	0.525200	0.282900	0.344900
H7791	H779	0.548900	0.319000	0.322700
N861	N86	0.564900	0.194900	0.310600
H7801	H780	0.595900	0.214900	0.311000
H7811	H781	0.557400	0.185100	0.329400
N871	N87	0.222000	0.167100	0.317800
H7821	H782	0.191100	0.184700	0.323100
H7831	H783	0.218700	0.131900	0.323600
N881	N88	0.152800	0.139300	0.268400
H7841	H784	0.150300	0.107400	0.278300
H7851	H785	0.128800	0.162800	0.276700
N891	N89	0.394600	0.973500	0.196400
H7861	H786	0.390400	0.955100	0.179200
H7871	H787	0.417300	0.953800	0.208000
N901	N90	0.491700	0.011000	0.164100
H7881	H788	0.501400	0.979100	0.172600
H7891	H789	0.480100	0.003800	0.145500
N911	N91	0.603000	0.331100	0.158600
H7901	H790	0.622900	0.320900	0.142700
H7911	H791	0.607300	0.367500	0.161000
N921	N92	0.528200	0.345600	0.109200
H7921	H792	0.538500	0.381000	0.110200
H7931	H793	0.554300	0.327300	0.099100
N931	N93	0.341900	0.502100	0.213800
H7941	H794	0.312100	0.521000	0.208100
H7951	H795	0.357600	0.520600	0.228800
N941	N94	0.263500	0.461100	0.256400
H7961	H796	0.278400	0.490900	0.264900
H7971	H797	0.234300	0.472300	0.245700
N951	N95	0.199600	0.288600	0.106300
H7981	H798	0.203900	0.288200	0.086400
H7991	H799	0.165400	0.276800	0.110200
N961	N96	0.234200	0.175300	0.095800
H8001	H800	0.197500	0.174500	0.093900
H8011	H801	0.248400	0.183900	0.077900
C4351	C435	0.458600	0.362700	0.303100
C4361	C436	0.476600	0.338600	0.332900
H8021	H802	0.445500	0.320600	0.342500
C4371	C437	0.499900	0.385300	0.353700
C4381	C438	0.500700	0.394200	0.290200
H8031	H803	0.532700	0.371900	0.287700
H8041	H804	0.509100	0.424600	0.302900
H8051	H805	0.488800	0.407500	0.271200
C4391	C439	0.407100	0.397400	0.307700
H8061	H806	0.379100	0.375300	0.316600
H8071	H807	0.394500	0.410900	0.289000
H8081	H808	0.415500	0.427600	0.320500
C4401	C440	0.521200	0.121600	0.282100
C4411	C441	0.575600	0.145400	0.293700
H8091	H809	0.598700	0.154800	0.276700
C4421	C442	0.607400	0.106900	0.313800
C4431	C443	0.489300	0.099700	0.307400
H8101	H810	0.484200	0.127900	0.321900
H8111	H811	0.508800	0.069600	0.316100
H8121	H812	0.454300	0.087300	0.300400
C4441	C444	0.529500	0.078900	0.257800
H8131	H813	0.549900	0.094700	0.241800
H8141	H814	0.494500	0.066800	0.250600
H8151	H815	0.549300	0.048200	0.265700
C4451	C445	0.322400	0.176000	0.319500
C4461	C446	0.268400	0.191800	0.333700
H8161	H816	0.264500	0.231800	0.333700
C4471	C447	0.264300	0.169900	0.365800
C4481	C448	0.329900	0.115200	0.321900
H8171	H817	0.299100	0.097000	0.313100
H8181	H818	0.332400	0.105100	0.342500
H8191	H819	0.362800	0.104600	0.311900
C4491	C449	0.367700	0.205000	0.332000
H8201	H820	0.361400	0.243700	0.330300
H8211	H821	0.400600	0.195500	0.321600
H8221	H822	0.371400	0.195300	0.352500
C4501	C450	0.155900	0.178700	0.219600
C4511	C451	0.136900	0.130200	0.238200
H8231	H823	0.152500	0.095900	0.230700
C4521	C452	0.071600	0.125800	0.240600
C4531	C453	0.126600	0.227500	0.227500
H8241	H824	0.140300	0.257800	0.216100
H8251	H825	0.131400	0.234800	0.248200
H8261	H826	0.088300	0.222600	0.223300
C4541	C454	0.150500	0.169500	0.185400
H8271	H827	0.170100	0.137000	0.179900
H8281	H828	0.165400	0.200400	0.175100
H8291	H829	0.112500	0.165300	0.180300
C4551	C455	0.340700	0.022200	0.235100
C4561	C456	0.340200	0.978100	0.211300
H8301	H830	0.315400	0.992000	0.196000
C4571	C457	0.316700	0.925900	0.220500
C4581	C458	0.378700	0.007400	0.258200
H8311	H831	0.414000	0.000200	0.249700
H8321	H832	0.365800	0.975100	0.268200
H8331	H833	0.381600	0.036900	0.272200
C4591	C459	0.287100	0.033000	0.248500
H8341	H834	0.261300	0.042300	0.233300
H8351	H835	0.290200	0.063000	0.262200
H8361	H836	0.274700	0.001000	0.258800
C4601	C460	0.524100	0.101000	0.150400
C4611	C461	0.538800	0.047200	0.162800
H8371	H837	0.551600	0.053000	0.183200
C4621	C462	0.584500	0.018400	0.145700
C4631	C463	0.503600	0.097100	0.119900
H8381	H838	0.475300	0.069900	0.119000
H8391	H839	0.533100	0.086800	0.107000
H8401	H840	0.489100	0.131900	0.113900
C4641	C464	0.568600	0.142600	0.153200
H8411	H841	0.580700	0.144200	0.173400
H8421	H842	0.554900	0.177800	0.147300
H8431	H843	0.598700	0.132500	0.140700
C4651	C465	0.585600	0.308100	0.209900
C4661	C466	0.623600	0.303500	0.184400
H8441	H844	0.625200	0.264500	0.179300
C4671	C467	0.681500	0.320200	0.192300
C4681	C468	0.581500	0.366400	0.218300
H8451	H845	0.556400	0.370300	0.234600
H8461	H846	0.568600	0.387300	0.201700
H8471	H847	0.617000	0.379600	0.224200
C4691	C469	0.600900	0.274500	0.235300
H8481	H848	0.603900	0.236900	0.229300
H8491	H849	0.573400	0.277600	0.250500
H8501	H850	0.635500	0.286700	0.243000
C4701	C470	0.446100	0.289400	0.098500
C4711	C471	0.474700	0.341700	0.092300
H8511	H851	0.451100	0.371300	0.099500
C4721	C472	0.484000	0.351600	0.058900
C4731	C473	0.477000	0.239300	0.089800
H8521	H852	0.512600	0.240000	0.098800
H8531	H853	0.480800	0.238200	0.068600
H8541	H854	0.457500	0.207400	0.096400
C4741	C474	0.389400	0.288100	0.084900
H8551	H855	0.369100	0.319600	0.091400
H8561	H856	0.370800	0.255400	0.091100
H8571	H857	0.392400	0.288600	0.063700
C4751	C475	0.422400	0.458600	0.194200
C4761	C476	0.380500	0.500300	0.188900
H8581	H858	0.359800	0.488500	0.171500
C4771	C477	0.403000	0.553100	0.182100
C4781	C478	0.455400	0.470800	0.220900
H8591	H859	0.482400	0.442600	0.223600
H8601	H860	0.431900	0.472300	0.238000
H8611	H861	0.473400	0.505500	0.218500
C4791	C479	0.457000	0.447400	0.168600
H8621	H862	0.483000	0.419400	0.173600
H8631	H863	0.476000	0.480100	0.163000
H8641	H864	0.434600	0.435200	0.152400
C4801	C480	0.225700	0.370000	0.266500
C4811	C481	0.244200	0.424100	0.280000
H8651	H865	0.275600	0.416300	0.292800
C4821	C482	0.199700	0.449600	0.299400
C4831	C483	0.176500	0.379900	0.247100
H8661	H866	0.184600	0.408500	0.233200
H8671	H867	0.146000	0.390500	0.259200
H8681	H868	0.167700	0.346800	0.236600
C4841	C484	0.216300	0.326800	0.289400
H8691	H869	0.248700	0.322400	0.301200
H8701	H870	0.207700	0.292700	0.279800
H8711	H871	0.186300	0.337400	0.301900
C4851	C485	0.212400	0.344800	0.149800
C4861	C486	0.204600	0.345100	0.116600
H8721	H872	0.236800	0.361700	0.107300
C4871	C487	0.153700	0.376500	0.107000
C4881	C488	0.163300	0.324800	0.164900
H8731	H873	0.133700	0.349900	0.161700
H8741	H874	0.170500	0.321800	0.185800
H8751	H875	0.153600	0.289500	0.157100
C4891	C489	0.227300	0.398700	0.164100
H8761	H876	0.199700	0.425400	0.159600
H8771	H877	0.262000	0.411000	0.156500
H8781	H878	0.229800	0.393900	0.185200
C4901	C490	0.310700	0.121900	0.112900
C4911	C491	0.254300	0.118000	0.104600
H8791	H879	0.233600	0.106700	0.122200
C4921	C492	0.244100	0.077200	0.081100
C4931	C493	0.347900	0.137700	0.089500
H8801	H880	0.384600	0.138700	0.097100
H8811	H881	0.338100	0.173400	0.082300
H8821	H882	0.345800	0.111700	0.073600
C4941	C494	0.330000	0.069400	0.126200
H8831	H883	0.367600	0.073200	0.132100
H8841	H884	0.326900	0.040600	0.111800
H8851	H885	0.308100	0.060800	0.143200
La221	La22	0.622140	0.077930	0.388180
La231	La23	0.952200	0.105100	0.226400
La241	La24	0.898300	0.157400	0.195700
O2281	O228	0.569800	0.083200	0.439000
O2291	O229	0.589700	0.159300	0.416500
C4951	C495	0.570100	0.129700	0.440200
C4961	C496	0.546000	0.166500	0.466000
H8861	H886	0.551000	0.204500	0.461200
H8871	H887	0.564600	0.158300	0.484200
H8881	H888	0.507600	0.159000	0.468300
O2301	O230	0.997200	0.153300	0.171700
O2311	O231	0.947100	0.205800	0.243600
O2321	O232	0.812300	0.151700	0.223900
La251	La25	0.614030	0.614030	0.500000
La261	La26	0.385970	0.385970	0.000000
La271	La27	0.885970	0.114030	0.750000
La281	La28	0.114030	0.885970	0.250000
La291	La29	0.866550	0.133450	0.250000
La301	La30	0.133450	0.866550	0.750000
La311	La31	0.366550	0.366550	0.500000
La321	La32	0.633450	0.633450	0.000000
