data_OLICIX_clean_PM
_symmetry_space_group_name_H-M	'P1'
_cell_length_a	38.068000
_cell_length_b	38.068000
_cell_length_c	38.068000
_cell_angle_alpha	90.000000
_cell_angle_beta	90.000000
_cell_angle_gamma	90.000000
_symmetry_Int_Tables_number 1

loop_
_symmetry_equiv_pos_as_xyz
'x,y,z'

loop_
_atom_site_label
_atom_site_type_symbol
_atom_site_fract_x
_atom_site_fract_y
_atom_site_fract_z
N11	N1	0.687490	0.539210	0.294070
N21	N2	0.714090	0.539550	0.317160
N31	N3	0.666440	0.566520	0.299080
C11	C1	0.679820	0.585130	0.326250
C21	C2	0.709900	0.567810	0.337520
H11	H1	0.724800	0.574800	0.356300
C31	C3	0.676700	0.633500	0.369400
H21	H2	0.697200	0.624500	0.380400
C41	C4	0.663220	0.616880	0.339740
N41	N4	0.687490	0.039210	0.794070
N51	N5	0.714090	0.039550	0.817160
N61	N6	0.666440	0.066520	0.799080
C51	C5	0.679820	0.085130	0.826250
C61	C6	0.709900	0.067810	0.837520
H31	H3	0.724800	0.074800	0.856300
C71	C7	0.676700	0.133500	0.869400
H41	H4	0.697200	0.124500	0.880400
C81	C8	0.663220	0.116880	0.839740
N71	N7	0.187490	0.539210	0.794070
N81	N8	0.214090	0.539550	0.817160
N91	N9	0.166440	0.566520	0.799080
C91	C9	0.179820	0.585130	0.826250
C101	C10	0.209900	0.567810	0.837520
H51	H5	0.224800	0.574800	0.856300
C111	C11	0.176700	0.633500	0.869400
H61	H6	0.197200	0.624500	0.880400
C121	C12	0.163220	0.616880	0.839740
N101	N10	0.187490	0.039210	0.294070
N111	N11	0.214090	0.039550	0.317160
N121	N12	0.166440	0.066520	0.299080
C131	C13	0.179820	0.085130	0.326250
C141	C14	0.209900	0.067810	0.337520
H71	H7	0.224800	0.074800	0.356300
C151	C15	0.176700	0.133500	0.369400
H81	H8	0.197200	0.124500	0.380400
C161	C16	0.163220	0.116880	0.339740
N131	N13	0.312510	0.460790	0.294070
N141	N14	0.285910	0.460450	0.317160
N151	N15	0.333560	0.433480	0.299080
C171	C17	0.320180	0.414870	0.326250
C181	C18	0.290100	0.432190	0.337520
H91	H9	0.275200	0.425200	0.356300
C191	C19	0.323300	0.366500	0.369400
H101	H10	0.302800	0.375500	0.380400
C201	C20	0.336780	0.383120	0.339740
N161	N16	0.312510	0.960790	0.794070
N171	N17	0.285910	0.960450	0.817160
N181	N18	0.333560	0.933480	0.799080
C211	C21	0.320180	0.914870	0.826250
C221	C22	0.290100	0.932190	0.837520
H111	H11	0.275200	0.925200	0.856300
C231	C23	0.323300	0.866500	0.869400
H121	H12	0.302800	0.875500	0.880400
C241	C24	0.336780	0.883120	0.839740
N191	N19	0.812510	0.460790	0.794070
N201	N20	0.785910	0.460450	0.817160
N211	N21	0.833560	0.433480	0.799080
C251	C25	0.820180	0.414870	0.826250
C261	C26	0.790100	0.432190	0.837520
H131	H13	0.775200	0.425200	0.856300
C271	C27	0.823300	0.366500	0.869400
H141	H14	0.802800	0.375500	0.880400
C281	C28	0.836780	0.383120	0.839740
N221	N22	0.812510	0.960790	0.294070
N231	N23	0.785910	0.960450	0.317160
N241	N24	0.833560	0.933480	0.299080
C291	C29	0.820180	0.914870	0.326250
C301	C30	0.790100	0.932190	0.337520
H151	H15	0.775200	0.925200	0.356300
C311	C31	0.823300	0.866500	0.369400
H161	H16	0.802800	0.875500	0.380400
C321	C32	0.836780	0.883120	0.339740
N251	N25	0.312510	0.539210	0.705930
N261	N26	0.285910	0.539550	0.682840
N271	N27	0.333560	0.566520	0.700920
C331	C33	0.320180	0.585130	0.673750
C341	C34	0.290100	0.567810	0.662480
H171	H17	0.275200	0.574800	0.643700
C351	C35	0.323300	0.633500	0.630600
H181	H18	0.302800	0.624500	0.619600
C361	C36	0.336780	0.616880	0.660260
N281	N28	0.312510	0.039210	0.205930
N291	N29	0.285910	0.039550	0.182840
N301	N30	0.333560	0.066520	0.200920
C371	C37	0.320180	0.085130	0.173750
C381	C38	0.290100	0.067810	0.162480
H191	H19	0.275200	0.074800	0.143700
C391	C39	0.323300	0.133500	0.130600
H201	H20	0.302800	0.124500	0.119600
C401	C40	0.336780	0.116880	0.160260
N311	N31	0.812510	0.539210	0.205930
N321	N32	0.785910	0.539550	0.182840
N331	N33	0.833560	0.566520	0.200920
C411	C41	0.820180	0.585130	0.173750
C421	C42	0.790100	0.567810	0.162480
H211	H21	0.775200	0.574800	0.143700
C431	C43	0.823300	0.633500	0.130600
H221	H22	0.802800	0.624500	0.119600
C441	C44	0.836780	0.616880	0.160260
N341	N34	0.812510	0.039210	0.705930
N351	N35	0.785910	0.039550	0.682840
N361	N36	0.833560	0.066520	0.700920
C451	C45	0.820180	0.085130	0.673750
C461	C46	0.790100	0.067810	0.662480
H231	H23	0.775200	0.074800	0.643700
C471	C47	0.823300	0.133500	0.630600
H241	H24	0.802800	0.124500	0.619600
C481	C48	0.836780	0.116880	0.660260
N371	N37	0.687490	0.460790	0.705930
N381	N38	0.714090	0.460450	0.682840
N391	N39	0.666440	0.433480	0.700920
C491	C49	0.679820	0.414870	0.673750
C501	C50	0.709900	0.432190	0.662480
H251	H25	0.724800	0.425200	0.643700
C511	C51	0.676700	0.366500	0.630600
H261	H26	0.697200	0.375500	0.619600
C521	C52	0.663220	0.383120	0.660260
N401	N40	0.687490	0.960790	0.205930
N411	N41	0.714090	0.960450	0.182840
N421	N42	0.666440	0.933480	0.200920
C531	C53	0.679820	0.914870	0.173750
C541	C54	0.709900	0.932190	0.162480
H271	H27	0.724800	0.925200	0.143700
C551	C55	0.676700	0.866500	0.130600
H281	H28	0.697200	0.875500	0.119600
C561	C56	0.663220	0.883120	0.160260
N431	N43	0.187490	0.460790	0.205930
N441	N44	0.214090	0.460450	0.182840
N451	N45	0.166440	0.433480	0.200920
C571	C57	0.179820	0.414870	0.173750
C581	C58	0.209900	0.432190	0.162480
H291	H29	0.224800	0.425200	0.143700
C591	C59	0.176700	0.366500	0.130600
H301	H30	0.197200	0.375500	0.119600
C601	C60	0.163220	0.383120	0.160260
N461	N46	0.187490	0.960790	0.705930
N471	N47	0.214090	0.960450	0.682840
N481	N48	0.166440	0.933480	0.700920
C611	C61	0.179820	0.914870	0.673750
C621	C62	0.209900	0.932190	0.662480
H311	H31	0.224800	0.925200	0.643700
C631	C63	0.176700	0.866500	0.630600
H321	H32	0.197200	0.875500	0.619600
C641	C64	0.163220	0.883120	0.660260
N491	N49	0.294070	0.687490	0.539210
N501	N50	0.317160	0.714090	0.539550
N511	N51	0.299080	0.666440	0.566520
C651	C65	0.326250	0.679820	0.585130
C661	C66	0.337520	0.709900	0.567810
H331	H33	0.356300	0.724800	0.574800
C671	C67	0.369400	0.676700	0.633500
H341	H34	0.380400	0.697200	0.624500
C681	C68	0.339740	0.663220	0.616880
N521	N52	0.294070	0.187490	0.039210
N531	N53	0.317160	0.214090	0.039550
N541	N54	0.299080	0.166440	0.066520
C691	C69	0.326250	0.179820	0.085130
C701	C70	0.337520	0.209900	0.067810
H351	H35	0.356300	0.224800	0.074800
C711	C71	0.369400	0.176700	0.133500
H361	H36	0.380400	0.197200	0.124500
C721	C72	0.339740	0.163220	0.116880
N551	N55	0.794070	0.687490	0.039210
N561	N56	0.817160	0.714090	0.039550
N571	N57	0.799080	0.666440	0.066520
C731	C73	0.826250	0.679820	0.085130
C741	C74	0.837520	0.709900	0.067810
H371	H37	0.856300	0.724800	0.074800
C751	C75	0.869400	0.676700	0.133500
H381	H38	0.880400	0.697200	0.124500
C761	C76	0.839740	0.663220	0.116880
N581	N58	0.794070	0.187490	0.539210
N591	N59	0.817160	0.214090	0.539550
N601	N60	0.799080	0.166440	0.566520
C771	C77	0.826250	0.179820	0.585130
C781	C78	0.837520	0.209900	0.567810
H391	H39	0.856300	0.224800	0.574800
C791	C79	0.869400	0.176700	0.633500
H401	H40	0.880400	0.197200	0.624500
C801	C80	0.839740	0.163220	0.616880
N611	N61	0.294070	0.312510	0.460790
N621	N62	0.317160	0.285910	0.460450
N631	N63	0.299080	0.333560	0.433480
C811	C81	0.326250	0.320180	0.414870
C821	C82	0.337520	0.290100	0.432190
H411	H41	0.356300	0.275200	0.425200
C831	C83	0.369400	0.323300	0.366500
H421	H42	0.380400	0.302800	0.375500
C841	C84	0.339740	0.336780	0.383120
N641	N64	0.294070	0.812510	0.960790
N651	N65	0.317160	0.785910	0.960450
N661	N66	0.299080	0.833560	0.933480
C851	C85	0.326250	0.820180	0.914870
C861	C86	0.337520	0.790100	0.932190
H431	H43	0.356300	0.775200	0.925200
C871	C87	0.369400	0.823300	0.866500
H441	H44	0.380400	0.802800	0.875500
C881	C88	0.339740	0.836780	0.883120
N671	N67	0.794070	0.312510	0.960790
N681	N68	0.817160	0.285910	0.960450
N691	N69	0.799080	0.333560	0.933480
C891	C89	0.826250	0.320180	0.914870
C901	C90	0.837520	0.290100	0.932190
H451	H45	0.856300	0.275200	0.925200
C911	C91	0.869400	0.323300	0.866500
H461	H46	0.880400	0.302800	0.875500
C921	C92	0.839740	0.336780	0.883120
N701	N70	0.794070	0.812510	0.460790
N711	N71	0.817160	0.785910	0.460450
N721	N72	0.799080	0.833560	0.433480
C931	C93	0.826250	0.820180	0.414870
C941	C94	0.837520	0.790100	0.432190
H471	H47	0.856300	0.775200	0.425200
C951	C95	0.869400	0.823300	0.366500
H481	H48	0.880400	0.802800	0.375500
C961	C96	0.839740	0.836780	0.383120
N731	N73	0.705930	0.312510	0.539210
N741	N74	0.682840	0.285910	0.539550
N751	N75	0.700920	0.333560	0.566520
C971	C97	0.673750	0.320180	0.585130
C981	C98	0.662480	0.290100	0.567810
H491	H49	0.643700	0.275200	0.574800
C991	C99	0.630600	0.323300	0.633500
H501	H50	0.619600	0.302800	0.624500
C1001	C100	0.660260	0.336780	0.616880
N761	N76	0.705930	0.812510	0.039210
N771	N77	0.682840	0.785910	0.039550
N781	N78	0.700920	0.833560	0.066520
C1011	C101	0.673750	0.820180	0.085130
C1021	C102	0.662480	0.790100	0.067810
H511	H51	0.643700	0.775200	0.074800
C1031	C103	0.630600	0.823300	0.133500
H521	H52	0.619600	0.802800	0.124500
C1041	C104	0.660260	0.836780	0.116880
N791	N79	0.205930	0.312510	0.039210
N801	N80	0.182840	0.285910	0.039550
N811	N81	0.200920	0.333560	0.066520
C1051	C105	0.173750	0.320180	0.085130
C1061	C106	0.162480	0.290100	0.067810
H531	H53	0.143700	0.275200	0.074800
C1071	C107	0.130600	0.323300	0.133500
H541	H54	0.119600	0.302800	0.124500
C1081	C108	0.160260	0.336780	0.116880
N821	N82	0.205930	0.812510	0.539210
N831	N83	0.182840	0.785910	0.539550
N841	N84	0.200920	0.833560	0.566520
C1091	C109	0.173750	0.820180	0.585130
C1101	C110	0.162480	0.790100	0.567810
H551	H55	0.143700	0.775200	0.574800
C1111	C111	0.130600	0.823300	0.633500
H561	H56	0.119600	0.802800	0.624500
C1121	C112	0.160260	0.836780	0.616880
N851	N85	0.705930	0.687490	0.460790
N861	N86	0.682840	0.714090	0.460450
N871	N87	0.700920	0.666440	0.433480
C1131	C113	0.673750	0.679820	0.414870
C1141	C114	0.662480	0.709900	0.432190
H571	H57	0.643700	0.724800	0.425200
C1151	C115	0.630600	0.676700	0.366500
H581	H58	0.619600	0.697200	0.375500
C1161	C116	0.660260	0.663220	0.383120
N881	N88	0.705930	0.187490	0.960790
N891	N89	0.682840	0.214090	0.960450
N901	N90	0.700920	0.166440	0.933480
C1171	C117	0.673750	0.179820	0.914870
C1181	C118	0.662480	0.209900	0.932190
H591	H59	0.643700	0.224800	0.925200
C1191	C119	0.630600	0.176700	0.866500
H601	H60	0.619600	0.197200	0.875500
C1201	C120	0.660260	0.163220	0.883120
N911	N91	0.205930	0.687490	0.960790
N921	N92	0.182840	0.714090	0.960450
N931	N93	0.200920	0.666440	0.933480
C1211	C121	0.173750	0.679820	0.914870
C1221	C122	0.162480	0.709900	0.932190
H611	H61	0.143700	0.724800	0.925200
C1231	C123	0.130600	0.676700	0.866500
H621	H62	0.119600	0.697200	0.875500
C1241	C124	0.160260	0.663220	0.883120
N941	N94	0.205930	0.187490	0.460790
N951	N95	0.182840	0.214090	0.460450
N961	N96	0.200920	0.166440	0.433480
C1251	C125	0.173750	0.179820	0.414870
C1261	C126	0.162480	0.209900	0.432190
H631	H63	0.143700	0.224800	0.425200
C1271	C127	0.130600	0.176700	0.366500
H641	H64	0.119600	0.197200	0.375500
C1281	C128	0.160260	0.163220	0.383120
N971	N97	0.539210	0.294070	0.687490
N981	N98	0.539550	0.317160	0.714090
N991	N99	0.566520	0.299080	0.666440
C1291	C129	0.585130	0.326250	0.679820
C1301	C130	0.567810	0.337520	0.709900
H651	H65	0.574800	0.356300	0.724800
C1311	C131	0.633500	0.369400	0.676700
H661	H66	0.624500	0.380400	0.697200
C1321	C132	0.616880	0.339740	0.663220
N1001	N100	0.539210	0.794070	0.187490
N1011	N101	0.539550	0.817160	0.214090
N1021	N102	0.566520	0.799080	0.166440
C1331	C133	0.585130	0.826250	0.179820
C1341	C134	0.567810	0.837520	0.209900
H671	H67	0.574800	0.856300	0.224800
C1351	C135	0.633500	0.869400	0.176700
H681	H68	0.624500	0.880400	0.197200
C1361	C136	0.616880	0.839740	0.163220
N1031	N103	0.039210	0.294070	0.187490
N1041	N104	0.039550	0.317160	0.214090
N1051	N105	0.066520	0.299080	0.166440
C1371	C137	0.085130	0.326250	0.179820
C1381	C138	0.067810	0.337520	0.209900
H691	H69	0.074800	0.356300	0.224800
C1391	C139	0.133500	0.369400	0.176700
H701	H70	0.124500	0.380400	0.197200
C1401	C140	0.116880	0.339740	0.163220
N1061	N106	0.039210	0.794070	0.687490
N1071	N107	0.039550	0.817160	0.714090
N1081	N108	0.066520	0.799080	0.666440
C1411	C141	0.085130	0.826250	0.679820
C1421	C142	0.067810	0.837520	0.709900
H711	H71	0.074800	0.856300	0.724800
C1431	C143	0.133500	0.869400	0.676700
H721	H72	0.124500	0.880400	0.697200
C1441	C144	0.116880	0.839740	0.663220
N1091	N109	0.460790	0.294070	0.312510
N1101	N110	0.460450	0.317160	0.285910
N1111	N111	0.433480	0.299080	0.333560
C1451	C145	0.414870	0.326250	0.320180
C1461	C146	0.432190	0.337520	0.290100
H731	H73	0.425200	0.356300	0.275200
C1471	C147	0.366500	0.369400	0.323300
H741	H74	0.375500	0.380400	0.302800
C1481	C148	0.383120	0.339740	0.336780
N1121	N112	0.460790	0.794070	0.812510
N1131	N113	0.460450	0.817160	0.785910
N1141	N114	0.433480	0.799080	0.833560
C1491	C149	0.414870	0.826250	0.820180
C1501	C150	0.432190	0.837520	0.790100
H751	H75	0.425200	0.856300	0.775200
C1511	C151	0.366500	0.869400	0.823300
H761	H76	0.375500	0.880400	0.802800
C1521	C152	0.383120	0.839740	0.836780
N1151	N115	0.960790	0.294070	0.812510
N1161	N116	0.960450	0.317160	0.785910
N1171	N117	0.933480	0.299080	0.833560
C1531	C153	0.914870	0.326250	0.820180
C1541	C154	0.932190	0.337520	0.790100
H771	H77	0.925200	0.356300	0.775200
C1551	C155	0.866500	0.369400	0.823300
H781	H78	0.875500	0.380400	0.802800
C1561	C156	0.883120	0.339740	0.836780
N1181	N118	0.960790	0.794070	0.312510
N1191	N119	0.960450	0.817160	0.285910
N1201	N120	0.933480	0.799080	0.333560
C1571	C157	0.914870	0.826250	0.320180
C1581	C158	0.932190	0.837520	0.290100
H791	H79	0.925200	0.856300	0.275200
C1591	C159	0.866500	0.869400	0.323300
H801	H80	0.875500	0.880400	0.302800
C1601	C160	0.883120	0.839740	0.336780
N1211	N121	0.539210	0.705930	0.312510
N1221	N122	0.539550	0.682840	0.285910
N1231	N123	0.566520	0.700920	0.333560
C1611	C161	0.585130	0.673750	0.320180
C1621	C162	0.567810	0.662480	0.290100
H811	H81	0.574800	0.643700	0.275200
C1631	C163	0.633500	0.630600	0.323300
H821	H82	0.624500	0.619600	0.302800
C1641	C164	0.616880	0.660260	0.336780
N1241	N124	0.539210	0.205930	0.812510
N1251	N125	0.539550	0.182840	0.785910
N1261	N126	0.566520	0.200920	0.833560
C1651	C165	0.585130	0.173750	0.820180
C1661	C166	0.567810	0.162480	0.790100
H831	H83	0.574800	0.143700	0.775200
C1671	C167	0.633500	0.130600	0.823300
H841	H84	0.624500	0.119600	0.802800
C1681	C168	0.616880	0.160260	0.836780
N1271	N127	0.039210	0.705930	0.812510
N1281	N128	0.039550	0.682840	0.785910
N1291	N129	0.066520	0.700920	0.833560
C1691	C169	0.085130	0.673750	0.820180
C1701	C170	0.067810	0.662480	0.790100
H851	H85	0.074800	0.643700	0.775200
C1711	C171	0.133500	0.630600	0.823300
H861	H86	0.124500	0.619600	0.802800
C1721	C172	0.116880	0.660260	0.836780
N1301	N130	0.039210	0.205930	0.312510
N1311	N131	0.039550	0.182840	0.285910
N1321	N132	0.066520	0.200920	0.333560
C1731	C173	0.085130	0.173750	0.320180
C1741	C174	0.067810	0.162480	0.290100
H871	H87	0.074800	0.143700	0.275200
C1751	C175	0.133500	0.130600	0.323300
H881	H88	0.124500	0.119600	0.302800
C1761	C176	0.116880	0.160260	0.336780
N1331	N133	0.460790	0.705930	0.687490
N1341	N134	0.460450	0.682840	0.714090
N1351	N135	0.433480	0.700920	0.666440
C1771	C177	0.414870	0.673750	0.679820
C1781	C178	0.432190	0.662480	0.709900
H891	H89	0.425200	0.643700	0.724800
C1791	C179	0.366500	0.630600	0.676700
H901	H90	0.375500	0.619600	0.697200
C1801	C180	0.383120	0.660260	0.663220
N1361	N136	0.460790	0.205930	0.187490
N1371	N137	0.460450	0.182840	0.214090
N1381	N138	0.433480	0.200920	0.166440
C1811	C181	0.414870	0.173750	0.179820
C1821	C182	0.432190	0.162480	0.209900
H911	H91	0.425200	0.143700	0.224800
C1831	C183	0.366500	0.130600	0.176700
H921	H92	0.375500	0.119600	0.197200
C1841	C184	0.383120	0.160260	0.163220
N1391	N139	0.960790	0.705930	0.187490
N1401	N140	0.960450	0.682840	0.214090
N1411	N141	0.933480	0.700920	0.166440
C1851	C185	0.914870	0.673750	0.179820
C1861	C186	0.932190	0.662480	0.209900
H931	H93	0.925200	0.643700	0.224800
C1871	C187	0.866500	0.630600	0.176700
H941	H94	0.875500	0.619600	0.197200
C1881	C188	0.883120	0.660260	0.163220
N1421	N142	0.960790	0.205930	0.687490
N1431	N143	0.960450	0.182840	0.714090
N1441	N144	0.933480	0.200920	0.666440
C1891	C189	0.914870	0.173750	0.679820
C1901	C190	0.932190	0.162480	0.709900
H951	H95	0.925200	0.143700	0.724800
C1911	C191	0.866500	0.130600	0.676700
H961	H96	0.875500	0.119600	0.697200
C1921	C192	0.883120	0.160260	0.663220
N1451	N145	0.039210	0.187490	0.205930
N1461	N146	0.039550	0.214090	0.182840
N1471	N147	0.066520	0.166440	0.200920
C1931	C193	0.085130	0.179820	0.173750
C1941	C194	0.067810	0.209900	0.162480
H971	H97	0.074800	0.224800	0.143700
C1951	C195	0.133500	0.176700	0.130600
H981	H98	0.124500	0.197200	0.119600
C1961	C196	0.116880	0.163220	0.160260
N1481	N148	0.039210	0.687490	0.705930
N1491	N149	0.039550	0.714090	0.682840
N1501	N150	0.066520	0.666440	0.700920
C1971	C197	0.085130	0.679820	0.673750
C1981	C198	0.067810	0.709900	0.662480
H991	H99	0.074800	0.724800	0.643700
C1991	C199	0.133500	0.676700	0.630600
H1001	H100	0.124500	0.697200	0.619600
C2001	C200	0.116880	0.663220	0.660260
N1511	N151	0.539210	0.187490	0.705930
N1521	N152	0.539550	0.214090	0.682840
N1531	N153	0.566520	0.166440	0.700920
C2011	C201	0.585130	0.179820	0.673750
C2021	C202	0.567810	0.209900	0.662480
H1011	H101	0.574800	0.224800	0.643700
C2031	C203	0.633500	0.176700	0.630600
H1021	H102	0.624500	0.197200	0.619600
C2041	C204	0.616880	0.163220	0.660260
N1541	N154	0.539210	0.687490	0.205930
N1551	N155	0.539550	0.714090	0.182840
N1561	N156	0.566520	0.666440	0.200920
C2051	C205	0.585130	0.679820	0.173750
C2061	C206	0.567810	0.709900	0.162480
H1031	H103	0.574800	0.724800	0.143700
C2071	C207	0.633500	0.676700	0.130600
H1041	H104	0.624500	0.697200	0.119600
C2081	C208	0.616880	0.663220	0.160260
N1571	N157	0.960790	0.812510	0.205930
N1581	N158	0.960450	0.785910	0.182840
N1591	N159	0.933480	0.833560	0.200920
C2091	C209	0.914870	0.820180	0.173750
C2101	C210	0.932190	0.790100	0.162480
H1051	H105	0.925200	0.775200	0.143700
C2111	C211	0.866500	0.823300	0.130600
H1061	H106	0.875500	0.802800	0.119600
C2121	C212	0.883120	0.836780	0.160260
N1601	N160	0.960790	0.312510	0.705930
N1611	N161	0.960450	0.285910	0.682840
N1621	N162	0.933480	0.333560	0.700920
C2131	C213	0.914870	0.320180	0.673750
C2141	C214	0.932190	0.290100	0.662480
H1071	H107	0.925200	0.275200	0.643700
C2151	C215	0.866500	0.323300	0.630600
H1081	H108	0.875500	0.302800	0.619600
C2161	C216	0.883120	0.336780	0.660260
N1631	N163	0.460790	0.812510	0.705930
N1641	N164	0.460450	0.785910	0.682840
N1651	N165	0.433480	0.833560	0.700920
C2171	C217	0.414870	0.820180	0.673750
C2181	C218	0.432190	0.790100	0.662480
H1091	H109	0.425200	0.775200	0.643700
C2191	C219	0.366500	0.823300	0.630600
H1101	H110	0.375500	0.802800	0.619600
C2201	C220	0.383120	0.836780	0.660260
N1661	N166	0.460790	0.312510	0.205930
N1671	N167	0.460450	0.285910	0.182840
N1681	N168	0.433480	0.333560	0.200920
C2211	C221	0.414870	0.320180	0.173750
C2221	C222	0.432190	0.290100	0.162480
H1111	H111	0.425200	0.275200	0.143700
C2231	C223	0.366500	0.323300	0.130600
H1121	H112	0.375500	0.302800	0.119600
C2241	C224	0.383120	0.336780	0.160260
N1691	N169	0.039210	0.812510	0.794070
N1701	N170	0.039550	0.785910	0.817160
N1711	N171	0.066520	0.833560	0.799080
C2251	C225	0.085130	0.820180	0.826250
C2261	C226	0.067810	0.790100	0.837520
H1131	H113	0.074800	0.775200	0.856300
C2271	C227	0.133500	0.823300	0.869400
H1141	H114	0.124500	0.802800	0.880400
C2281	C228	0.116880	0.836780	0.839740
N1721	N172	0.039210	0.312510	0.294070
N1731	N173	0.039550	0.285910	0.317160
N1741	N174	0.066520	0.333560	0.299080
C2291	C229	0.085130	0.320180	0.326250
C2301	C230	0.067810	0.290100	0.337520
H1151	H115	0.074800	0.275200	0.356300
C2311	C231	0.133500	0.323300	0.369400
H1161	H116	0.124500	0.302800	0.380400
C2321	C232	0.116880	0.336780	0.339740
N1751	N175	0.539210	0.812510	0.294070
N1761	N176	0.539550	0.785910	0.317160
N1771	N177	0.566520	0.833560	0.299080
C2331	C233	0.585130	0.820180	0.326250
C2341	C234	0.567810	0.790100	0.337520
H1171	H117	0.574800	0.775200	0.356300
C2351	C235	0.633500	0.823300	0.369400
H1181	H118	0.624500	0.802800	0.380400
C2361	C236	0.616880	0.836780	0.339740
N1781	N178	0.539210	0.312510	0.794070
N1791	N179	0.539550	0.285910	0.817160
N1801	N180	0.566520	0.333560	0.799080
C2371	C237	0.585130	0.320180	0.826250
C2381	C238	0.567810	0.290100	0.837520
H1191	H119	0.574800	0.275200	0.856300
C2391	C239	0.633500	0.323300	0.869400
H1201	H120	0.624500	0.302800	0.880400
C2401	C240	0.616880	0.336780	0.839740
N1811	N181	0.960790	0.187490	0.794070
N1821	N182	0.960450	0.214090	0.817160
N1831	N183	0.933480	0.166440	0.799080
C2411	C241	0.914870	0.179820	0.826250
C2421	C242	0.932190	0.209900	0.837520
H1211	H121	0.925200	0.224800	0.856300
C2431	C243	0.866500	0.176700	0.869400
H1221	H122	0.875500	0.197200	0.880400
C2441	C244	0.883120	0.163220	0.839740
N1841	N184	0.960790	0.687490	0.294070
N1851	N185	0.960450	0.714090	0.317160
N1861	N186	0.933480	0.666440	0.299080
C2451	C245	0.914870	0.679820	0.326250
C2461	C246	0.932190	0.709900	0.337520
H1231	H123	0.925200	0.724800	0.356300
C2471	C247	0.866500	0.676700	0.369400
H1241	H124	0.875500	0.697200	0.380400
C2481	C248	0.883120	0.663220	0.339740
N1871	N187	0.460790	0.187490	0.294070
N1881	N188	0.460450	0.214090	0.317160
N1891	N189	0.433480	0.166440	0.299080
C2491	C249	0.414870	0.179820	0.326250
C2501	C250	0.432190	0.209900	0.337520
H1251	H125	0.425200	0.224800	0.356300
C2511	C251	0.366500	0.176700	0.369400
H1261	H126	0.375500	0.197200	0.380400
C2521	C252	0.383120	0.163220	0.339740
N1901	N190	0.460790	0.687490	0.794070
N1911	N191	0.460450	0.714090	0.817160
N1921	N192	0.433480	0.666440	0.799080
C2531	C253	0.414870	0.679820	0.826250
C2541	C254	0.432190	0.709900	0.837520
H1271	H127	0.425200	0.724800	0.856300
C2551	C255	0.366500	0.676700	0.869400
H1281	H128	0.375500	0.697200	0.880400
C2561	C256	0.383120	0.663220	0.839740
N1931	N193	0.187490	0.794070	0.960790
N1941	N194	0.214090	0.817160	0.960450
N1951	N195	0.166440	0.799080	0.933480
C2571	C257	0.179820	0.826250	0.914870
C2581	C258	0.209900	0.837520	0.932190
H1291	H129	0.224800	0.856300	0.925200
C2591	C259	0.176700	0.869400	0.866500
H1301	H130	0.197200	0.880400	0.875500
C2601	C260	0.163220	0.839740	0.883120
N1961	N196	0.187490	0.294070	0.460790
N1971	N197	0.214090	0.317160	0.460450
N1981	N198	0.166440	0.299080	0.433480
C2611	C261	0.179820	0.326250	0.414870
C2621	C262	0.209900	0.337520	0.432190
H1311	H131	0.224800	0.356300	0.425200
C2631	C263	0.176700	0.369400	0.366500
H1321	H132	0.197200	0.380400	0.375500
C2641	C264	0.163220	0.339740	0.383120
N1991	N199	0.687490	0.794070	0.460790
N2001	N200	0.714090	0.817160	0.460450
N2011	N201	0.666440	0.799080	0.433480
C2651	C265	0.679820	0.826250	0.414870
C2661	C266	0.709900	0.837520	0.432190
H1331	H133	0.724800	0.856300	0.425200
C2671	C267	0.676700	0.869400	0.366500
H1341	H134	0.697200	0.880400	0.375500
C2681	C268	0.663220	0.839740	0.383120
N2021	N202	0.687490	0.294070	0.960790
N2031	N203	0.714090	0.317160	0.960450
N2041	N204	0.666440	0.299080	0.933480
C2691	C269	0.679820	0.326250	0.914870
C2701	C270	0.709900	0.337520	0.932190
H1351	H135	0.724800	0.356300	0.925200
C2711	C271	0.676700	0.369400	0.866500
H1361	H136	0.697200	0.380400	0.875500
C2721	C272	0.663220	0.339740	0.883120
N2051	N205	0.812510	0.794070	0.039210
N2061	N206	0.785910	0.817160	0.039550
N2071	N207	0.833560	0.799080	0.066520
C2731	C273	0.820180	0.826250	0.085130
C2741	C274	0.790100	0.837520	0.067810
H1371	H137	0.775200	0.856300	0.074800
C2751	C275	0.823300	0.869400	0.133500
H1381	H138	0.802800	0.880400	0.124500
C2761	C276	0.836780	0.839740	0.116880
N2081	N208	0.812510	0.294070	0.539210
N2091	N209	0.785910	0.317160	0.539550
N2101	N210	0.833560	0.299080	0.566520
C2771	C277	0.820180	0.326250	0.585130
C2781	C278	0.790100	0.337520	0.567810
H1391	H139	0.775200	0.356300	0.574800
C2791	C279	0.823300	0.369400	0.633500
H1401	H140	0.802800	0.380400	0.624500
C2801	C280	0.836780	0.339740	0.616880
N2111	N211	0.312510	0.794070	0.539210
N2121	N212	0.285910	0.817160	0.539550
N2131	N213	0.333560	0.799080	0.566520
C2811	C281	0.320180	0.826250	0.585130
C2821	C282	0.290100	0.837520	0.567810
H1411	H141	0.275200	0.856300	0.574800
C2831	C283	0.323300	0.869400	0.633500
H1421	H142	0.302800	0.880400	0.624500
C2841	C284	0.336780	0.839740	0.616880
N2141	N214	0.312510	0.294070	0.039210
N2151	N215	0.285910	0.317160	0.039550
N2161	N216	0.333560	0.299080	0.066520
C2851	C285	0.320180	0.326250	0.085130
C2861	C286	0.290100	0.337520	0.067810
H1431	H143	0.275200	0.356300	0.074800
C2871	C287	0.323300	0.369400	0.133500
H1441	H144	0.302800	0.380400	0.124500
C2881	C288	0.336780	0.339740	0.116880
N2171	N217	0.812510	0.205930	0.960790
N2181	N218	0.785910	0.182840	0.960450
N2191	N219	0.833560	0.200920	0.933480
C2891	C289	0.820180	0.173750	0.914870
C2901	C290	0.790100	0.162480	0.932190
H1451	H145	0.775200	0.143700	0.925200
C2911	C291	0.823300	0.130600	0.866500
H1461	H146	0.802800	0.119600	0.875500
C2921	C292	0.836780	0.160260	0.883120
N2201	N220	0.812510	0.705930	0.460790
N2211	N221	0.785910	0.682840	0.460450
N2221	N222	0.833560	0.700920	0.433480
C2931	C293	0.820180	0.673750	0.414870
C2941	C294	0.790100	0.662480	0.432190
H1471	H147	0.775200	0.643700	0.425200
C2951	C295	0.823300	0.630600	0.366500
H1481	H148	0.802800	0.619600	0.375500
C2961	C296	0.836780	0.660260	0.383120
N2231	N223	0.312510	0.205930	0.460790
N2241	N224	0.285910	0.182840	0.460450
N2251	N225	0.333560	0.200920	0.433480
C2971	C297	0.320180	0.173750	0.414870
C2981	C298	0.290100	0.162480	0.432190
H1491	H149	0.275200	0.143700	0.425200
C2991	C299	0.323300	0.130600	0.366500
H1501	H150	0.302800	0.119600	0.375500
C3001	C300	0.336780	0.160260	0.383120
N2261	N226	0.312510	0.705930	0.960790
N2271	N227	0.285910	0.682840	0.960450
N2281	N228	0.333560	0.700920	0.933480
C3011	C301	0.320180	0.673750	0.914870
C3021	C302	0.290100	0.662480	0.932190
H1511	H151	0.275200	0.643700	0.925200
C3031	C303	0.323300	0.630600	0.866500
H1521	H152	0.302800	0.619600	0.875500
C3041	C304	0.336780	0.660260	0.883120
N2291	N229	0.187490	0.205930	0.039210
N2301	N230	0.214090	0.182840	0.039550
N2311	N231	0.166440	0.200920	0.066520
C3051	C305	0.179820	0.173750	0.085130
C3061	C306	0.209900	0.162480	0.067810
H1531	H153	0.224800	0.143700	0.074800
C3071	C307	0.176700	0.130600	0.133500
H1541	H154	0.197200	0.119600	0.124500
C3081	C308	0.163220	0.160260	0.116880
N2321	N232	0.187490	0.705930	0.539210
N2331	N233	0.214090	0.682840	0.539550
N2341	N234	0.166440	0.700920	0.566520
C3091	C309	0.179820	0.673750	0.585130
C3101	C310	0.209900	0.662480	0.567810
H1551	H155	0.224800	0.643700	0.574800
C3111	C311	0.176700	0.630600	0.633500
H1561	H156	0.197200	0.619600	0.624500
C3121	C312	0.163220	0.660260	0.616880
N2351	N235	0.687490	0.205930	0.539210
N2361	N236	0.714090	0.182840	0.539550
N2371	N237	0.666440	0.200920	0.566520
C3131	C313	0.679820	0.173750	0.585130
C3141	C314	0.709900	0.162480	0.567810
H1571	H157	0.724800	0.143700	0.574800
C3151	C315	0.676700	0.130600	0.633500
H1581	H158	0.697200	0.119600	0.624500
C3161	C316	0.663220	0.160260	0.616880
N2381	N238	0.687490	0.705930	0.039210
N2391	N239	0.714090	0.682840	0.039550
N2401	N240	0.666440	0.700920	0.066520
C3171	C317	0.679820	0.673750	0.085130
C3181	C318	0.709900	0.662480	0.067810
H1591	H159	0.724800	0.643700	0.074800
C3191	C319	0.676700	0.630600	0.133500
H1601	H160	0.697200	0.619600	0.124500
C3201	C320	0.663220	0.660260	0.116880
N2411	N241	0.794070	0.039210	0.812510
N2421	N242	0.817160	0.039550	0.785910
N2431	N243	0.799080	0.066520	0.833560
C3211	C321	0.826250	0.085130	0.820180
C3221	C322	0.837520	0.067810	0.790100
H1611	H161	0.856300	0.074800	0.775200
C3231	C323	0.869400	0.133500	0.823300
H1621	H162	0.880400	0.124500	0.802800
C3241	C324	0.839740	0.116880	0.836780
N2441	N244	0.794070	0.539210	0.312510
N2451	N245	0.817160	0.539550	0.285910
N2461	N246	0.799080	0.566520	0.333560
C3251	C325	0.826250	0.585130	0.320180
C3261	C326	0.837520	0.567810	0.290100
H1631	H163	0.856300	0.574800	0.275200
C3271	C327	0.869400	0.633500	0.323300
H1641	H164	0.880400	0.624500	0.302800
C3281	C328	0.839740	0.616880	0.336780
N2471	N247	0.294070	0.039210	0.312510
N2481	N248	0.317160	0.039550	0.285910
N2491	N249	0.299080	0.066520	0.333560
C3291	C329	0.326250	0.085130	0.320180
C3301	C330	0.337520	0.067810	0.290100
H1651	H165	0.356300	0.074800	0.275200
C3311	C331	0.369400	0.133500	0.323300
H1661	H166	0.380400	0.124500	0.302800
C3321	C332	0.339740	0.116880	0.336780
N2501	N250	0.294070	0.539210	0.812510
N2511	N251	0.317160	0.539550	0.785910
N2521	N252	0.299080	0.566520	0.833560
C3331	C333	0.326250	0.585130	0.820180
C3341	C334	0.337520	0.567810	0.790100
H1671	H167	0.356300	0.574800	0.775200
C3351	C335	0.369400	0.633500	0.823300
H1681	H168	0.380400	0.624500	0.802800
C3361	C336	0.339740	0.616880	0.836780
N2531	N253	0.794070	0.960790	0.187490
N2541	N254	0.817160	0.960450	0.214090
N2551	N255	0.799080	0.933480	0.166440
C3371	C337	0.826250	0.914870	0.179820
C3381	C338	0.837520	0.932190	0.209900
H1691	H169	0.856300	0.925200	0.224800
C3391	C339	0.869400	0.866500	0.176700
H1701	H170	0.880400	0.875500	0.197200
C3401	C340	0.839740	0.883120	0.163220
N2561	N256	0.794070	0.460790	0.687490
N2571	N257	0.817160	0.460450	0.714090
N2581	N258	0.799080	0.433480	0.666440
C3411	C341	0.826250	0.414870	0.679820
C3421	C342	0.837520	0.432190	0.709900
H1711	H171	0.856300	0.425200	0.724800
C3431	C343	0.869400	0.366500	0.676700
H1721	H172	0.880400	0.375500	0.697200
C3441	C344	0.839740	0.383120	0.663220
N2591	N259	0.294070	0.960790	0.687490
N2601	N260	0.317160	0.960450	0.714090
N2611	N261	0.299080	0.933480	0.666440
C3451	C345	0.326250	0.914870	0.679820
C3461	C346	0.337520	0.932190	0.709900
H1731	H173	0.356300	0.925200	0.724800
C3471	C347	0.369400	0.866500	0.676700
H1741	H174	0.380400	0.875500	0.697200
C3481	C348	0.339740	0.883120	0.663220
N2621	N262	0.294070	0.460790	0.187490
N2631	N263	0.317160	0.460450	0.214090
N2641	N264	0.299080	0.433480	0.166440
C3491	C349	0.326250	0.414870	0.179820
C3501	C350	0.337520	0.432190	0.209900
H1751	H175	0.356300	0.425200	0.224800
C3511	C351	0.369400	0.366500	0.176700
H1761	H176	0.380400	0.375500	0.197200
C3521	C352	0.339740	0.383120	0.163220
N2651	N265	0.205930	0.039210	0.187490
N2661	N266	0.182840	0.039550	0.214090
N2671	N267	0.200920	0.066520	0.166440
C3531	C353	0.173750	0.085130	0.179820
C3541	C354	0.162480	0.067810	0.209900
H1771	H177	0.143700	0.074800	0.224800
C3551	C355	0.130600	0.133500	0.176700
H1781	H178	0.119600	0.124500	0.197200
C3561	C356	0.160260	0.116880	0.163220
N2681	N268	0.205930	0.539210	0.687490
N2691	N269	0.182840	0.539550	0.714090
N2701	N270	0.200920	0.566520	0.666440
C3571	C357	0.173750	0.585130	0.679820
C3581	C358	0.162480	0.567810	0.709900
H1791	H179	0.143700	0.574800	0.724800
C3591	C359	0.130600	0.633500	0.676700
H1801	H180	0.119600	0.624500	0.697200
C3601	C360	0.160260	0.616880	0.663220
N2711	N271	0.705930	0.039210	0.687490
N2721	N272	0.682840	0.039550	0.714090
N2731	N273	0.700920	0.066520	0.666440
C3611	C361	0.673750	0.085130	0.679820
C3621	C362	0.662480	0.067810	0.709900
H1811	H181	0.643700	0.074800	0.724800
C3631	C363	0.630600	0.133500	0.676700
H1821	H182	0.619600	0.124500	0.697200
C3641	C364	0.660260	0.116880	0.663220
N2741	N274	0.705930	0.539210	0.187490
N2751	N275	0.682840	0.539550	0.214090
N2761	N276	0.700920	0.566520	0.166440
C3651	C365	0.673750	0.585130	0.179820
C3661	C366	0.662480	0.567810	0.209900
H1831	H183	0.643700	0.574800	0.224800
C3671	C367	0.630600	0.633500	0.176700
H1841	H184	0.619600	0.624500	0.197200
C3681	C368	0.660260	0.616880	0.163220
N2771	N277	0.205930	0.960790	0.812510
N2781	N278	0.182840	0.960450	0.785910
N2791	N279	0.200920	0.933480	0.833560
C3691	C369	0.173750	0.914870	0.820180
C3701	C370	0.162480	0.932190	0.790100
H1851	H185	0.143700	0.925200	0.775200
C3711	C371	0.130600	0.866500	0.823300
H1861	H186	0.119600	0.875500	0.802800
C3721	C372	0.160260	0.883120	0.836780
N2801	N280	0.205930	0.460790	0.312510
N2811	N281	0.182840	0.460450	0.285910
N2821	N282	0.200920	0.433480	0.333560
C3731	C373	0.173750	0.414870	0.320180
C3741	C374	0.162480	0.432190	0.290100
H1871	H187	0.143700	0.425200	0.275200
C3751	C375	0.130600	0.366500	0.323300
H1881	H188	0.119600	0.375500	0.302800
C3761	C376	0.160260	0.383120	0.336780
N2831	N283	0.705930	0.960790	0.312510
N2841	N284	0.682840	0.960450	0.285910
N2851	N285	0.700920	0.933480	0.333560
C3771	C377	0.673750	0.914870	0.320180
C3781	C378	0.662480	0.932190	0.290100
H1891	H189	0.643700	0.925200	0.275200
C3791	C379	0.630600	0.866500	0.323300
H1901	H190	0.619600	0.875500	0.302800
C3801	C380	0.660260	0.883120	0.336780
N2861	N286	0.705930	0.460790	0.812510
N2871	N287	0.682840	0.460450	0.785910
N2881	N288	0.700920	0.433480	0.833560
C3811	C381	0.673750	0.414870	0.820180
C3821	C382	0.662480	0.432190	0.790100
H1911	H191	0.643700	0.425200	0.775200
C3831	C383	0.630600	0.366500	0.823300
H1921	H192	0.619600	0.375500	0.802800
C3841	C384	0.660260	0.383120	0.836780
N2891	N289	0.312510	0.460790	0.705930
N2901	N290	0.285910	0.460450	0.682840
N2911	N291	0.333560	0.433480	0.700920
C3851	C385	0.320180	0.414870	0.673750
C3861	C386	0.290100	0.432190	0.662480
H1931	H193	0.275200	0.425200	0.643700
C3871	C387	0.323300	0.366500	0.630600
H1941	H194	0.302800	0.375500	0.619600
C3881	C388	0.336780	0.383120	0.660260
N2921	N292	0.312510	0.960790	0.205930
N2931	N293	0.285910	0.960450	0.182840
N2941	N294	0.333560	0.933480	0.200920
C3891	C389	0.320180	0.914870	0.173750
C3901	C390	0.290100	0.932190	0.162480
H1951	H195	0.275200	0.925200	0.143700
C3911	C391	0.323300	0.866500	0.130600
H1961	H196	0.302800	0.875500	0.119600
C3921	C392	0.336780	0.883120	0.160260
N2951	N295	0.812510	0.460790	0.205930
N2961	N296	0.785910	0.460450	0.182840
N2971	N297	0.833560	0.433480	0.200920
C3931	C393	0.820180	0.414870	0.173750
C3941	C394	0.790100	0.432190	0.162480
H1971	H197	0.775200	0.425200	0.143700
C3951	C395	0.823300	0.366500	0.130600
H1981	H198	0.802800	0.375500	0.119600
C3961	C396	0.836780	0.383120	0.160260
N2981	N298	0.812510	0.960790	0.705930
N2991	N299	0.785910	0.960450	0.682840
N3001	N300	0.833560	0.933480	0.700920
C3971	C397	0.820180	0.914870	0.673750
C3981	C398	0.790100	0.932190	0.662480
H1991	H199	0.775200	0.925200	0.643700
C3991	C399	0.823300	0.866500	0.630600
H2001	H200	0.802800	0.875500	0.619600
C4001	C400	0.836780	0.883120	0.660260
N3011	N301	0.687490	0.539210	0.705930
N3021	N302	0.714090	0.539550	0.682840
N3031	N303	0.666440	0.566520	0.700920
C4011	C401	0.679820	0.585130	0.673750
C4021	C402	0.709900	0.567810	0.662480
H2011	H201	0.724800	0.574800	0.643700
C4031	C403	0.676700	0.633500	0.630600
H2021	H202	0.697200	0.624500	0.619600
C4041	C404	0.663220	0.616880	0.660260
N3041	N304	0.687490	0.039210	0.205930
N3051	N305	0.714090	0.039550	0.182840
N3061	N306	0.666440	0.066520	0.200920
C4051	C405	0.679820	0.085130	0.173750
C4061	C406	0.709900	0.067810	0.162480
H2031	H203	0.724800	0.074800	0.143700
C4071	C407	0.676700	0.133500	0.130600
H2041	H204	0.697200	0.124500	0.119600
C4081	C408	0.663220	0.116880	0.160260
N3071	N307	0.187490	0.539210	0.205930
N3081	N308	0.214090	0.539550	0.182840
N3091	N309	0.166440	0.566520	0.200920
C4091	C409	0.179820	0.585130	0.173750
C4101	C410	0.209900	0.567810	0.162480
H2051	H205	0.224800	0.574800	0.143700
C4111	C411	0.176700	0.633500	0.130600
H2061	H206	0.197200	0.624500	0.119600
C4121	C412	0.163220	0.616880	0.160260
N3101	N310	0.187490	0.039210	0.705930
N3111	N311	0.214090	0.039550	0.682840
N3121	N312	0.166440	0.066520	0.700920
C4131	C413	0.179820	0.085130	0.673750
C4141	C414	0.209900	0.067810	0.662480
H2071	H207	0.224800	0.074800	0.643700
C4151	C415	0.176700	0.133500	0.630600
H2081	H208	0.197200	0.124500	0.619600
C4161	C416	0.163220	0.116880	0.660260
N3131	N313	0.687490	0.460790	0.294070
N3141	N314	0.714090	0.460450	0.317160
N3151	N315	0.666440	0.433480	0.299080
C4171	C417	0.679820	0.414870	0.326250
C4181	C418	0.709900	0.432190	0.337520
H2091	H209	0.724800	0.425200	0.356300
C4191	C419	0.676700	0.366500	0.369400
H2101	H210	0.697200	0.375500	0.380400
C4201	C420	0.663220	0.383120	0.339740
N3161	N316	0.687490	0.960790	0.794070
N3171	N317	0.714090	0.960450	0.817160
N3181	N318	0.666440	0.933480	0.799080
C4211	C421	0.679820	0.914870	0.826250
C4221	C422	0.709900	0.932190	0.837520
H2111	H211	0.724800	0.925200	0.856300
C4231	C423	0.676700	0.866500	0.869400
H2121	H212	0.697200	0.875500	0.880400
C4241	C424	0.663220	0.883120	0.839740
N3191	N319	0.187490	0.460790	0.794070
N3201	N320	0.214090	0.460450	0.817160
N3211	N321	0.166440	0.433480	0.799080
C4251	C425	0.179820	0.414870	0.826250
C4261	C426	0.209900	0.432190	0.837520
H2131	H213	0.224800	0.425200	0.856300
C4271	C427	0.176700	0.366500	0.869400
H2141	H214	0.197200	0.375500	0.880400
C4281	C428	0.163220	0.383120	0.839740
N3221	N322	0.187490	0.960790	0.294070
N3231	N323	0.214090	0.960450	0.317160
N3241	N324	0.166440	0.933480	0.299080
C4291	C429	0.179820	0.914870	0.326250
C4301	C430	0.209900	0.932190	0.337520
H2151	H215	0.224800	0.925200	0.356300
C4311	C431	0.176700	0.866500	0.369400
H2161	H216	0.197200	0.875500	0.380400
C4321	C432	0.163220	0.883120	0.339740
N3251	N325	0.312510	0.539210	0.294070
N3261	N326	0.285910	0.539550	0.317160
N3271	N327	0.333560	0.566520	0.299080
C4331	C433	0.320180	0.585130	0.326250
C4341	C434	0.290100	0.567810	0.337520
H2171	H217	0.275200	0.574800	0.356300
C4351	C435	0.323300	0.633500	0.369400
H2181	H218	0.302800	0.624500	0.380400
C4361	C436	0.336780	0.616880	0.339740
N3281	N328	0.312510	0.039210	0.794070
N3291	N329	0.285910	0.039550	0.817160
N3301	N330	0.333560	0.066520	0.799080
C4371	C437	0.320180	0.085130	0.826250
C4381	C438	0.290100	0.067810	0.837520
H2191	H219	0.275200	0.074800	0.856300
C4391	C439	0.323300	0.133500	0.869400
H2201	H220	0.302800	0.124500	0.880400
C4401	C440	0.336780	0.116880	0.839740
N3311	N331	0.812510	0.539210	0.794070
N3321	N332	0.785910	0.539550	0.817160
N3331	N333	0.833560	0.566520	0.799080
C4411	C441	0.820180	0.585130	0.826250
C4421	C442	0.790100	0.567810	0.837520
H2211	H221	0.775200	0.574800	0.856300
C4431	C443	0.823300	0.633500	0.869400
H2221	H222	0.802800	0.624500	0.880400
C4441	C444	0.836780	0.616880	0.839740
N3341	N334	0.812510	0.039210	0.294070
N3351	N335	0.785910	0.039550	0.317160
N3361	N336	0.833560	0.066520	0.299080
C4451	C445	0.820180	0.085130	0.326250
C4461	C446	0.790100	0.067810	0.337520
H2231	H223	0.775200	0.074800	0.356300
C4471	C447	0.823300	0.133500	0.369400
H2241	H224	0.802800	0.124500	0.380400
C4481	C448	0.836780	0.116880	0.339740
N3371	N337	0.705930	0.312510	0.460790
N3381	N338	0.682840	0.285910	0.460450
N3391	N339	0.700920	0.333560	0.433480
C4491	C449	0.673750	0.320180	0.414870
C4501	C450	0.662480	0.290100	0.432190
H2251	H225	0.643700	0.275200	0.425200
C4511	C451	0.630600	0.323300	0.366500
H2261	H226	0.619600	0.302800	0.375500
C4521	C452	0.660260	0.336780	0.383120
N3401	N340	0.705930	0.812510	0.960790
N3411	N341	0.682840	0.785910	0.960450
N3421	N342	0.700920	0.833560	0.933480
C4531	C453	0.673750	0.820180	0.914870
C4541	C454	0.662480	0.790100	0.932190
H2271	H227	0.643700	0.775200	0.925200
C4551	C455	0.630600	0.823300	0.866500
H2281	H228	0.619600	0.802800	0.875500
C4561	C456	0.660260	0.836780	0.883120
N3431	N343	0.205930	0.312510	0.960790
N3441	N344	0.182840	0.285910	0.960450
N3451	N345	0.200920	0.333560	0.933480
C4571	C457	0.173750	0.320180	0.914870
C4581	C458	0.162480	0.290100	0.932190
H2291	H229	0.143700	0.275200	0.925200
C4591	C459	0.130600	0.323300	0.866500
H2301	H230	0.119600	0.302800	0.875500
C4601	C460	0.160260	0.336780	0.883120
N3461	N346	0.205930	0.812510	0.460790
N3471	N347	0.182840	0.785910	0.460450
N3481	N348	0.200920	0.833560	0.433480
C4611	C461	0.173750	0.820180	0.414870
C4621	C462	0.162480	0.790100	0.432190
H2311	H231	0.143700	0.775200	0.425200
C4631	C463	0.130600	0.823300	0.366500
H2321	H232	0.119600	0.802800	0.375500
C4641	C464	0.160260	0.836780	0.383120
N3491	N349	0.705930	0.687490	0.539210
N3501	N350	0.682840	0.714090	0.539550
N3511	N351	0.700920	0.666440	0.566520
C4651	C465	0.673750	0.679820	0.585130
C4661	C466	0.662480	0.709900	0.567810
H2331	H233	0.643700	0.724800	0.574800
C4671	C467	0.630600	0.676700	0.633500
H2341	H234	0.619600	0.697200	0.624500
C4681	C468	0.660260	0.663220	0.616880
N3521	N352	0.705930	0.187490	0.039210
N3531	N353	0.682840	0.214090	0.039550
N3541	N354	0.700920	0.166440	0.066520
C4691	C469	0.673750	0.179820	0.085130
C4701	C470	0.662480	0.209900	0.067810
H2351	H235	0.643700	0.224800	0.074800
C4711	C471	0.630600	0.176700	0.133500
H2361	H236	0.619600	0.197200	0.124500
C4721	C472	0.660260	0.163220	0.116880
N3551	N355	0.205930	0.687490	0.039210
N3561	N356	0.182840	0.714090	0.039550
N3571	N357	0.200920	0.666440	0.066520
C4731	C473	0.173750	0.679820	0.085130
C4741	C474	0.162480	0.709900	0.067810
H2371	H237	0.143700	0.724800	0.074800
C4751	C475	0.130600	0.676700	0.133500
H2381	H238	0.119600	0.697200	0.124500
C4761	C476	0.160260	0.663220	0.116880
N3581	N358	0.205930	0.187490	0.539210
N3591	N359	0.182840	0.214090	0.539550
N3601	N360	0.200920	0.166440	0.566520
C4771	C477	0.173750	0.179820	0.585130
C4781	C478	0.162480	0.209900	0.567810
H2391	H239	0.143700	0.224800	0.574800
C4791	C479	0.130600	0.176700	0.633500
H2401	H240	0.119600	0.197200	0.624500
C4801	C480	0.160260	0.163220	0.616880
N3611	N361	0.294070	0.687490	0.460790
N3621	N362	0.317160	0.714090	0.460450
N3631	N363	0.299080	0.666440	0.433480
C4811	C481	0.326250	0.679820	0.414870
C4821	C482	0.337520	0.709900	0.432190
H2411	H241	0.356300	0.724800	0.425200
C4831	C483	0.369400	0.676700	0.366500
H2421	H242	0.380400	0.697200	0.375500
C4841	C484	0.339740	0.663220	0.383120
N3641	N364	0.294070	0.187490	0.960790
N3651	N365	0.317160	0.214090	0.960450
N3661	N366	0.299080	0.166440	0.933480
C4851	C485	0.326250	0.179820	0.914870
C4861	C486	0.337520	0.209900	0.932190
H2431	H243	0.356300	0.224800	0.925200
C4871	C487	0.369400	0.176700	0.866500
H2441	H244	0.380400	0.197200	0.875500
C4881	C488	0.339740	0.163220	0.883120
N3671	N367	0.794070	0.687490	0.960790
N3681	N368	0.817160	0.714090	0.960450
N3691	N369	0.799080	0.666440	0.933480
C4891	C489	0.826250	0.679820	0.914870
C4901	C490	0.837520	0.709900	0.932190
H2451	H245	0.856300	0.724800	0.925200
C4911	C491	0.869400	0.676700	0.866500
H2461	H246	0.880400	0.697200	0.875500
C4921	C492	0.839740	0.663220	0.883120
N3701	N370	0.794070	0.187490	0.460790
N3711	N371	0.817160	0.214090	0.460450
N3721	N372	0.799080	0.166440	0.433480
C4931	C493	0.826250	0.179820	0.414870
C4941	C494	0.837520	0.209900	0.432190
H2471	H247	0.856300	0.224800	0.425200
C4951	C495	0.869400	0.176700	0.366500
H2481	H248	0.880400	0.197200	0.375500
C4961	C496	0.839740	0.163220	0.383120
N3731	N373	0.294070	0.312510	0.539210
N3741	N374	0.317160	0.285910	0.539550
N3751	N375	0.299080	0.333560	0.566520
C4971	C497	0.326250	0.320180	0.585130
C4981	C498	0.337520	0.290100	0.567810
H2491	H249	0.356300	0.275200	0.574800
C4991	C499	0.369400	0.323300	0.633500
H2501	H250	0.380400	0.302800	0.624500
C5001	C500	0.339740	0.336780	0.616880
N3761	N376	0.294070	0.812510	0.039210
N3771	N377	0.317160	0.785910	0.039550
N3781	N378	0.299080	0.833560	0.066520
C5011	C501	0.326250	0.820180	0.085130
C5021	C502	0.337520	0.790100	0.067810
H2511	H251	0.356300	0.775200	0.074800
C5031	C503	0.369400	0.823300	0.133500
H2521	H252	0.380400	0.802800	0.124500
C5041	C504	0.339740	0.836780	0.116880
N3791	N379	0.794070	0.312510	0.039210
N3801	N380	0.817160	0.285910	0.039550
N3811	N381	0.799080	0.333560	0.066520
C5051	C505	0.826250	0.320180	0.085130
C5061	C506	0.837520	0.290100	0.067810
H2531	H253	0.856300	0.275200	0.074800
C5071	C507	0.869400	0.323300	0.133500
H2541	H254	0.880400	0.302800	0.124500
C5081	C508	0.839740	0.336780	0.116880
N3821	N382	0.794070	0.812510	0.539210
N3831	N383	0.817160	0.785910	0.539550
N3841	N384	0.799080	0.833560	0.566520
C5091	C509	0.826250	0.820180	0.585130
C5101	C510	0.837520	0.790100	0.567810
H2551	H255	0.856300	0.775200	0.574800
C5111	C511	0.869400	0.823300	0.633500
H2561	H256	0.880400	0.802800	0.624500
C5121	C512	0.839740	0.836780	0.616880
N3851	N385	0.460790	0.705930	0.312510
N3861	N386	0.460450	0.682840	0.285910
N3871	N387	0.433480	0.700920	0.333560
C5131	C513	0.414870	0.673750	0.320180
C5141	C514	0.432190	0.662480	0.290100
H2571	H257	0.425200	0.643700	0.275200
C5151	C515	0.366500	0.630600	0.323300
H2581	H258	0.375500	0.619600	0.302800
C5161	C516	0.383120	0.660260	0.336780
N3881	N388	0.460790	0.205930	0.812510
N3891	N389	0.460450	0.182840	0.785910
N3901	N390	0.433480	0.200920	0.833560
C5171	C517	0.414870	0.173750	0.820180
C5181	C518	0.432190	0.162480	0.790100
H2591	H259	0.425200	0.143700	0.775200
C5191	C519	0.366500	0.130600	0.823300
H2601	H260	0.375500	0.119600	0.802800
C5201	C520	0.383120	0.160260	0.836780
N3911	N391	0.960790	0.705930	0.812510
N3921	N392	0.960450	0.682840	0.785910
N3931	N393	0.933480	0.700920	0.833560
C5211	C521	0.914870	0.673750	0.820180
C5221	C522	0.932190	0.662480	0.790100
H2611	H261	0.925200	0.643700	0.775200
C5231	C523	0.866500	0.630600	0.823300
H2621	H262	0.875500	0.619600	0.802800
C5241	C524	0.883120	0.660260	0.836780
N3941	N394	0.960790	0.205930	0.312510
N3951	N395	0.960450	0.182840	0.285910
N3961	N396	0.933480	0.200920	0.333560
C5251	C525	0.914870	0.173750	0.320180
C5261	C526	0.932190	0.162480	0.290100
H2631	H263	0.925200	0.143700	0.275200
C5271	C527	0.866500	0.130600	0.323300
H2641	H264	0.875500	0.119600	0.302800
C5281	C528	0.883120	0.160260	0.336780
N3971	N397	0.539210	0.705930	0.687490
N3981	N398	0.539550	0.682840	0.714090
N3991	N399	0.566520	0.700920	0.666440
C5291	C529	0.585130	0.673750	0.679820
C5301	C530	0.567810	0.662480	0.709900
H2651	H265	0.574800	0.643700	0.724800
C5311	C531	0.633500	0.630600	0.676700
H2661	H266	0.624500	0.619600	0.697200
C5321	C532	0.616880	0.660260	0.663220
N4001	N400	0.539210	0.205930	0.187490
N4011	N401	0.539550	0.182840	0.214090
N4021	N402	0.566520	0.200920	0.166440
C5331	C533	0.585130	0.173750	0.179820
C5341	C534	0.567810	0.162480	0.209900
H2671	H267	0.574800	0.143700	0.224800
C5351	C535	0.633500	0.130600	0.176700
H2681	H268	0.624500	0.119600	0.197200
C5361	C536	0.616880	0.160260	0.163220
N4031	N403	0.039210	0.705930	0.187490
N4041	N404	0.039550	0.682840	0.214090
N4051	N405	0.066520	0.700920	0.166440
C5371	C537	0.085130	0.673750	0.179820
C5381	C538	0.067810	0.662480	0.209900
H2691	H269	0.074800	0.643700	0.224800
C5391	C539	0.133500	0.630600	0.176700
H2701	H270	0.124500	0.619600	0.197200
C5401	C540	0.116880	0.660260	0.163220
N4061	N406	0.039210	0.205930	0.687490
N4071	N407	0.039550	0.182840	0.714090
N4081	N408	0.066520	0.200920	0.666440
C5411	C541	0.085130	0.173750	0.679820
C5421	C542	0.067810	0.162480	0.709900
H2711	H271	0.074800	0.143700	0.724800
C5431	C543	0.133500	0.130600	0.676700
H2721	H272	0.124500	0.119600	0.697200
C5441	C544	0.116880	0.160260	0.663220
N4091	N409	0.460790	0.294070	0.687490
N4101	N410	0.460450	0.317160	0.714090
N4111	N411	0.433480	0.299080	0.666440
C5451	C545	0.414870	0.326250	0.679820
C5461	C546	0.432190	0.337520	0.709900
H2731	H273	0.425200	0.356300	0.724800
C5471	C547	0.366500	0.369400	0.676700
H2741	H274	0.375500	0.380400	0.697200
C5481	C548	0.383120	0.339740	0.663220
N4121	N412	0.460790	0.794070	0.187490
N4131	N413	0.460450	0.817160	0.214090
N4141	N414	0.433480	0.799080	0.166440
C5491	C549	0.414870	0.826250	0.179820
C5501	C550	0.432190	0.837520	0.209900
H2751	H275	0.425200	0.856300	0.224800
C5511	C551	0.366500	0.869400	0.176700
H2761	H276	0.375500	0.880400	0.197200
C5521	C552	0.383120	0.839740	0.163220
N4151	N415	0.960790	0.294070	0.187490
N4161	N416	0.960450	0.317160	0.214090
N4171	N417	0.933480	0.299080	0.166440
C5531	C553	0.914870	0.326250	0.179820
C5541	C554	0.932190	0.337520	0.209900
H2771	H277	0.925200	0.356300	0.224800
C5551	C555	0.866500	0.369400	0.176700
H2781	H278	0.875500	0.380400	0.197200
C5561	C556	0.883120	0.339740	0.163220
N4181	N418	0.960790	0.794070	0.687490
N4191	N419	0.960450	0.817160	0.714090
N4201	N420	0.933480	0.799080	0.666440
C5571	C557	0.914870	0.826250	0.679820
C5581	C558	0.932190	0.837520	0.709900
H2791	H279	0.925200	0.856300	0.724800
C5591	C559	0.866500	0.869400	0.676700
H2801	H280	0.875500	0.880400	0.697200
C5601	C560	0.883120	0.839740	0.663220
N4211	N421	0.539210	0.294070	0.312510
N4221	N422	0.539550	0.317160	0.285910
N4231	N423	0.566520	0.299080	0.333560
C5611	C561	0.585130	0.326250	0.320180
C5621	C562	0.567810	0.337520	0.290100
H2811	H281	0.574800	0.356300	0.275200
C5631	C563	0.633500	0.369400	0.323300
H2821	H282	0.624500	0.380400	0.302800
C5641	C564	0.616880	0.339740	0.336780
N4241	N424	0.539210	0.794070	0.812510
N4251	N425	0.539550	0.817160	0.785910
N4261	N426	0.566520	0.799080	0.833560
C5651	C565	0.585130	0.826250	0.820180
C5661	C566	0.567810	0.837520	0.790100
H2831	H283	0.574800	0.856300	0.775200
C5671	C567	0.633500	0.869400	0.823300
H2841	H284	0.624500	0.880400	0.802800
C5681	C568	0.616880	0.839740	0.836780
N4271	N427	0.039210	0.294070	0.812510
N4281	N428	0.039550	0.317160	0.785910
N4291	N429	0.066520	0.299080	0.833560
C5691	C569	0.085130	0.326250	0.820180
C5701	C570	0.067810	0.337520	0.790100
H2851	H285	0.074800	0.356300	0.775200
C5711	C571	0.133500	0.369400	0.823300
H2861	H286	0.124500	0.380400	0.802800
C5721	C572	0.116880	0.339740	0.836780
N4301	N430	0.039210	0.794070	0.312510
N4311	N431	0.039550	0.817160	0.285910
N4321	N432	0.066520	0.799080	0.333560
C5731	C573	0.085130	0.826250	0.320180
C5741	C574	0.067810	0.837520	0.290100
H2871	H287	0.074800	0.856300	0.275200
C5751	C575	0.133500	0.869400	0.323300
H2881	H288	0.124500	0.880400	0.302800
C5761	C576	0.116880	0.839740	0.336780
N4331	N433	0.960790	0.812510	0.794070
N4341	N434	0.960450	0.785910	0.817160
N4351	N435	0.933480	0.833560	0.799080
C5771	C577	0.914870	0.820180	0.826250
C5781	C578	0.932190	0.790100	0.837520
H2891	H289	0.925200	0.775200	0.856300
C5791	C579	0.866500	0.823300	0.869400
H2901	H290	0.875500	0.802800	0.880400
C5801	C580	0.883120	0.836780	0.839740
N4361	N436	0.960790	0.312510	0.294070
N4371	N437	0.960450	0.285910	0.317160
N4381	N438	0.933480	0.333560	0.299080
C5811	C581	0.914870	0.320180	0.326250
C5821	C582	0.932190	0.290100	0.337520
H2911	H291	0.925200	0.275200	0.356300
C5831	C583	0.866500	0.323300	0.369400
H2921	H292	0.875500	0.302800	0.380400
C5841	C584	0.883120	0.336780	0.339740
N4391	N439	0.460790	0.812510	0.294070
N4401	N440	0.460450	0.785910	0.317160
N4411	N441	0.433480	0.833560	0.299080
C5851	C585	0.414870	0.820180	0.326250
C5861	C586	0.432190	0.790100	0.337520
H2931	H293	0.425200	0.775200	0.356300
C5871	C587	0.366500	0.823300	0.369400
H2941	H294	0.375500	0.802800	0.380400
C5881	C588	0.383120	0.836780	0.339740
N4421	N442	0.460790	0.312510	0.794070
N4431	N443	0.460450	0.285910	0.817160
N4441	N444	0.433480	0.333560	0.799080
C5891	C589	0.414870	0.320180	0.826250
C5901	C590	0.432190	0.290100	0.837520
H2951	H295	0.425200	0.275200	0.856300
C5911	C591	0.366500	0.323300	0.869400
H2961	H296	0.375500	0.302800	0.880400
C5921	C592	0.383120	0.336780	0.839740
N4451	N445	0.039210	0.187490	0.794070
N4461	N446	0.039550	0.214090	0.817160
N4471	N447	0.066520	0.166440	0.799080
C5931	C593	0.085130	0.179820	0.826250
C5941	C594	0.067810	0.209900	0.837520
H2971	H297	0.074800	0.224800	0.856300
C5951	C595	0.133500	0.176700	0.869400
H2981	H298	0.124500	0.197200	0.880400
C5961	C596	0.116880	0.163220	0.839740
N4481	N448	0.039210	0.687490	0.294070
N4491	N449	0.039550	0.714090	0.317160
N4501	N450	0.066520	0.666440	0.299080
C5971	C597	0.085130	0.679820	0.326250
C5981	C598	0.067810	0.709900	0.337520
H2991	H299	0.074800	0.724800	0.356300
C5991	C599	0.133500	0.676700	0.369400
H3001	H300	0.124500	0.697200	0.380400
C6001	C600	0.116880	0.663220	0.339740
N4511	N451	0.539210	0.187490	0.294070
N4521	N452	0.539550	0.214090	0.317160
N4531	N453	0.566520	0.166440	0.299080
C6011	C601	0.585130	0.179820	0.326250
C6021	C602	0.567810	0.209900	0.337520
H3011	H301	0.574800	0.224800	0.356300
C6031	C603	0.633500	0.176700	0.369400
H3021	H302	0.624500	0.197200	0.380400
C6041	C604	0.616880	0.163220	0.339740
N4541	N454	0.539210	0.687490	0.794070
N4551	N455	0.539550	0.714090	0.817160
N4561	N456	0.566520	0.666440	0.799080
C6051	C605	0.585130	0.679820	0.826250
C6061	C606	0.567810	0.709900	0.837520
H3031	H303	0.574800	0.724800	0.856300
C6071	C607	0.633500	0.676700	0.869400
H3041	H304	0.624500	0.697200	0.880400
C6081	C608	0.616880	0.663220	0.839740
N4571	N457	0.960790	0.187490	0.205930
N4581	N458	0.960450	0.214090	0.182840
N4591	N459	0.933480	0.166440	0.200920
C6091	C609	0.914870	0.179820	0.173750
C6101	C610	0.932190	0.209900	0.162480
H3051	H305	0.925200	0.224800	0.143700
C6111	C611	0.866500	0.176700	0.130600
H3061	H306	0.875500	0.197200	0.119600
C6121	C612	0.883120	0.163220	0.160260
N4601	N460	0.960790	0.687490	0.705930
N4611	N461	0.960450	0.714090	0.682840
N4621	N462	0.933480	0.666440	0.700920
C6131	C613	0.914870	0.679820	0.673750
C6141	C614	0.932190	0.709900	0.662480
H3071	H307	0.925200	0.724800	0.643700
C6151	C615	0.866500	0.676700	0.630600
H3081	H308	0.875500	0.697200	0.619600
C6161	C616	0.883120	0.663220	0.660260
N4631	N463	0.460790	0.187490	0.705930
N4641	N464	0.460450	0.214090	0.682840
N4651	N465	0.433480	0.166440	0.700920
C6171	C617	0.414870	0.179820	0.673750
C6181	C618	0.432190	0.209900	0.662480
H3091	H309	0.425200	0.224800	0.643700
C6191	C619	0.366500	0.176700	0.630600
H3101	H310	0.375500	0.197200	0.619600
C6201	C620	0.383120	0.163220	0.660260
N4661	N466	0.460790	0.687490	0.205930
N4671	N467	0.460450	0.714090	0.182840
N4681	N468	0.433480	0.666440	0.200920
C6211	C621	0.414870	0.679820	0.173750
C6221	C622	0.432190	0.709900	0.162480
H3111	H311	0.425200	0.724800	0.143700
C6231	C623	0.366500	0.676700	0.130600
H3121	H312	0.375500	0.697200	0.119600
C6241	C624	0.383120	0.663220	0.160260
N4691	N469	0.039210	0.812510	0.205930
N4701	N470	0.039550	0.785910	0.182840
N4711	N471	0.066520	0.833560	0.200920
C6251	C625	0.085130	0.820180	0.173750
C6261	C626	0.067810	0.790100	0.162480
H3131	H313	0.074800	0.775200	0.143700
C6271	C627	0.133500	0.823300	0.130600
H3141	H314	0.124500	0.802800	0.119600
C6281	C628	0.116880	0.836780	0.160260
N4721	N472	0.039210	0.312510	0.705930
N4731	N473	0.039550	0.285910	0.682840
N4741	N474	0.066520	0.333560	0.700920
C6291	C629	0.085130	0.320180	0.673750
C6301	C630	0.067810	0.290100	0.662480
H3151	H315	0.074800	0.275200	0.643700
C6311	C631	0.133500	0.323300	0.630600
H3161	H316	0.124500	0.302800	0.619600
C6321	C632	0.116880	0.336780	0.660260
N4751	N475	0.539210	0.812510	0.705930
N4761	N476	0.539550	0.785910	0.682840
N4771	N477	0.566520	0.833560	0.700920
C6331	C633	0.585130	0.820180	0.673750
C6341	C634	0.567810	0.790100	0.662480
H3171	H317	0.574800	0.775200	0.643700
C6351	C635	0.633500	0.823300	0.630600
H3181	H318	0.624500	0.802800	0.619600
C6361	C636	0.616880	0.836780	0.660260
N4781	N478	0.539210	0.312510	0.205930
N4791	N479	0.539550	0.285910	0.182840
N4801	N480	0.566520	0.333560	0.200920
C6371	C637	0.585130	0.320180	0.173750
C6381	C638	0.567810	0.290100	0.162480
H3191	H319	0.574800	0.275200	0.143700
C6391	C639	0.633500	0.323300	0.130600
H3201	H320	0.624500	0.302800	0.119600
C6401	C640	0.616880	0.336780	0.160260
N4811	N481	0.812510	0.205930	0.039210
N4821	N482	0.785910	0.182840	0.039550
N4831	N483	0.833560	0.200920	0.066520
C6411	C641	0.820180	0.173750	0.085130
C6421	C642	0.790100	0.162480	0.067810
H3211	H321	0.775200	0.143700	0.074800
C6431	C643	0.823300	0.130600	0.133500
H3221	H322	0.802800	0.119600	0.124500
C6441	C644	0.836780	0.160260	0.116880
N4841	N484	0.812510	0.705930	0.539210
N4851	N485	0.785910	0.682840	0.539550
N4861	N486	0.833560	0.700920	0.566520
C6451	C645	0.820180	0.673750	0.585130
C6461	C646	0.790100	0.662480	0.567810
H3231	H323	0.775200	0.643700	0.574800
C6471	C647	0.823300	0.630600	0.633500
H3241	H324	0.802800	0.619600	0.624500
C6481	C648	0.836780	0.660260	0.616880
N4871	N487	0.312510	0.205930	0.539210
N4881	N488	0.285910	0.182840	0.539550
N4891	N489	0.333560	0.200920	0.566520
C6491	C649	0.320180	0.173750	0.585130
C6501	C650	0.290100	0.162480	0.567810
H3251	H325	0.275200	0.143700	0.574800
C6511	C651	0.323300	0.130600	0.633500
H3261	H326	0.302800	0.119600	0.624500
C6521	C652	0.336780	0.160260	0.616880
N4901	N490	0.312510	0.705930	0.039210
N4911	N491	0.285910	0.682840	0.039550
N4921	N492	0.333560	0.700920	0.066520
C6531	C653	0.320180	0.673750	0.085130
C6541	C654	0.290100	0.662480	0.067810
H3271	H327	0.275200	0.643700	0.074800
C6551	C655	0.323300	0.630600	0.133500
H3281	H328	0.302800	0.619600	0.124500
C6561	C656	0.336780	0.660260	0.116880
N4931	N493	0.187490	0.205930	0.960790
N4941	N494	0.214090	0.182840	0.960450
N4951	N495	0.166440	0.200920	0.933480
C6571	C657	0.179820	0.173750	0.914870
C6581	C658	0.209900	0.162480	0.932190
H3291	H329	0.224800	0.143700	0.925200
C6591	C659	0.176700	0.130600	0.866500
H3301	H330	0.197200	0.119600	0.875500
C6601	C660	0.163220	0.160260	0.883120
N4961	N496	0.187490	0.705930	0.460790
N4971	N497	0.214090	0.682840	0.460450
N4981	N498	0.166440	0.700920	0.433480
C6611	C661	0.179820	0.673750	0.414870
C6621	C662	0.209900	0.662480	0.432190
H3311	H331	0.224800	0.643700	0.425200
C6631	C663	0.176700	0.630600	0.366500
H3321	H332	0.197200	0.619600	0.375500
C6641	C664	0.163220	0.660260	0.383120
N4991	N499	0.687490	0.205930	0.460790
N5001	N500	0.714090	0.182840	0.460450
N5011	N501	0.666440	0.200920	0.433480
C6651	C665	0.679820	0.173750	0.414870
C6661	C666	0.709900	0.162480	0.432190
H3331	H333	0.724800	0.143700	0.425200
C6671	C667	0.676700	0.130600	0.366500
H3341	H334	0.697200	0.119600	0.375500
C6681	C668	0.663220	0.160260	0.383120
N5021	N502	0.687490	0.705930	0.960790
N5031	N503	0.714090	0.682840	0.960450
N5041	N504	0.666440	0.700920	0.933480
C6691	C669	0.679820	0.673750	0.914870
C6701	C670	0.709900	0.662480	0.932190
H3351	H335	0.724800	0.643700	0.925200
C6711	C671	0.676700	0.630600	0.866500
H3361	H336	0.697200	0.619600	0.875500
C6721	C672	0.663220	0.660260	0.883120
N5051	N505	0.187490	0.794070	0.039210
N5061	N506	0.214090	0.817160	0.039550
N5071	N507	0.166440	0.799080	0.066520
C6731	C673	0.179820	0.826250	0.085130
C6741	C674	0.209900	0.837520	0.067810
H3371	H337	0.224800	0.856300	0.074800
C6751	C675	0.176700	0.869400	0.133500
H3381	H338	0.197200	0.880400	0.124500
C6761	C676	0.163220	0.839740	0.116880
N5081	N508	0.187490	0.294070	0.539210
N5091	N509	0.214090	0.317160	0.539550
N5101	N510	0.166440	0.299080	0.566520
C6771	C677	0.179820	0.326250	0.585130
C6781	C678	0.209900	0.337520	0.567810
H3391	H339	0.224800	0.356300	0.574800
C6791	C679	0.176700	0.369400	0.633500
H3401	H340	0.197200	0.380400	0.624500
C6801	C680	0.163220	0.339740	0.616880
N5111	N511	0.687490	0.794070	0.539210
N5121	N512	0.714090	0.817160	0.539550
N5131	N513	0.666440	0.799080	0.566520
C6811	C681	0.679820	0.826250	0.585130
C6821	C682	0.709900	0.837520	0.567810
H3411	H341	0.724800	0.856300	0.574800
C6831	C683	0.676700	0.869400	0.633500
H3421	H342	0.697200	0.880400	0.624500
C6841	C684	0.663220	0.839740	0.616880
N5141	N514	0.687490	0.294070	0.039210
N5151	N515	0.714090	0.317160	0.039550
N5161	N516	0.666440	0.299080	0.066520
C6851	C685	0.679820	0.326250	0.085130
C6861	C686	0.709900	0.337520	0.067810
H3431	H343	0.724800	0.356300	0.074800
C6871	C687	0.676700	0.369400	0.133500
H3441	H344	0.697200	0.380400	0.124500
C6881	C688	0.663220	0.339740	0.116880
N5171	N517	0.812510	0.794070	0.960790
N5181	N518	0.785910	0.817160	0.960450
N5191	N519	0.833560	0.799080	0.933480
C6891	C689	0.820180	0.826250	0.914870
C6901	C690	0.790100	0.837520	0.932190
H3451	H345	0.775200	0.856300	0.925200
C6911	C691	0.823300	0.869400	0.866500
H3461	H346	0.802800	0.880400	0.875500
C6921	C692	0.836780	0.839740	0.883120
N5201	N520	0.812510	0.294070	0.460790
N5211	N521	0.785910	0.317160	0.460450
N5221	N522	0.833560	0.299080	0.433480
C6931	C693	0.820180	0.326250	0.414870
C6941	C694	0.790100	0.337520	0.432190
H3471	H347	0.775200	0.356300	0.425200
C6951	C695	0.823300	0.369400	0.366500
H3481	H348	0.802800	0.380400	0.375500
C6961	C696	0.836780	0.339740	0.383120
N5231	N523	0.312510	0.794070	0.460790
N5241	N524	0.285910	0.817160	0.460450
N5251	N525	0.333560	0.799080	0.433480
C6971	C697	0.320180	0.826250	0.414870
C6981	C698	0.290100	0.837520	0.432190
H3491	H349	0.275200	0.856300	0.425200
C6991	C699	0.323300	0.869400	0.366500
H3501	H350	0.302800	0.880400	0.375500
C7001	C700	0.336780	0.839740	0.383120
N5261	N526	0.312510	0.294070	0.960790
N5271	N527	0.285910	0.317160	0.960450
N5281	N528	0.333560	0.299080	0.933480
C7011	C701	0.320180	0.326250	0.914870
C7021	C702	0.290100	0.337520	0.932190
H3511	H351	0.275200	0.356300	0.925200
C7031	C703	0.323300	0.369400	0.866500
H3521	H352	0.302800	0.380400	0.875500
C7041	C704	0.336780	0.339740	0.883120
N5291	N529	0.205930	0.960790	0.187490
N5301	N530	0.182840	0.960450	0.214090
N5311	N531	0.200920	0.933480	0.166440
C7051	C705	0.173750	0.914870	0.179820
C7061	C706	0.162480	0.932190	0.209900
H3531	H353	0.143700	0.925200	0.224800
C7071	C707	0.130600	0.866500	0.176700
H3541	H354	0.119600	0.875500	0.197200
C7081	C708	0.160260	0.883120	0.163220
N5321	N532	0.205930	0.460790	0.687490
N5331	N533	0.182840	0.460450	0.714090
N5341	N534	0.200920	0.433480	0.666440
C7091	C709	0.173750	0.414870	0.679820
C7101	C710	0.162480	0.432190	0.709900
H3551	H355	0.143700	0.425200	0.724800
C7111	C711	0.130600	0.366500	0.676700
H3561	H356	0.119600	0.375500	0.697200
C7121	C712	0.160260	0.383120	0.663220
N5351	N535	0.705930	0.960790	0.687490
N5361	N536	0.682840	0.960450	0.714090
N5371	N537	0.700920	0.933480	0.666440
C7131	C713	0.673750	0.914870	0.679820
C7141	C714	0.662480	0.932190	0.709900
H3571	H357	0.643700	0.925200	0.724800
C7151	C715	0.630600	0.866500	0.676700
H3581	H358	0.619600	0.875500	0.697200
C7161	C716	0.660260	0.883120	0.663220
N5381	N538	0.705930	0.460790	0.187490
N5391	N539	0.682840	0.460450	0.214090
N5401	N540	0.700920	0.433480	0.166440
C7171	C717	0.673750	0.414870	0.179820
C7181	C718	0.662480	0.432190	0.209900
H3591	H359	0.643700	0.425200	0.224800
C7191	C719	0.630600	0.366500	0.176700
H3601	H360	0.619600	0.375500	0.197200
C7201	C720	0.660260	0.383120	0.163220
N5411	N541	0.205930	0.039210	0.812510
N5421	N542	0.182840	0.039550	0.785910
N5431	N543	0.200920	0.066520	0.833560
C7211	C721	0.173750	0.085130	0.820180
C7221	C722	0.162480	0.067810	0.790100
H3611	H361	0.143700	0.074800	0.775200
C7231	C723	0.130600	0.133500	0.823300
H3621	H362	0.119600	0.124500	0.802800
C7241	C724	0.160260	0.116880	0.836780
N5441	N544	0.205930	0.539210	0.312510
N5451	N545	0.182840	0.539550	0.285910
N5461	N546	0.200920	0.566520	0.333560
C7251	C725	0.173750	0.585130	0.320180
C7261	C726	0.162480	0.567810	0.290100
H3631	H363	0.143700	0.574800	0.275200
C7271	C727	0.130600	0.633500	0.323300
H3641	H364	0.119600	0.624500	0.302800
C7281	C728	0.160260	0.616880	0.336780
N5471	N547	0.705930	0.039210	0.312510
N5481	N548	0.682840	0.039550	0.285910
N5491	N549	0.700920	0.066520	0.333560
C7291	C729	0.673750	0.085130	0.320180
C7301	C730	0.662480	0.067810	0.290100
H3651	H365	0.643700	0.074800	0.275200
C7311	C731	0.630600	0.133500	0.323300
H3661	H366	0.619600	0.124500	0.302800
C7321	C732	0.660260	0.116880	0.336780
N5501	N550	0.705930	0.539210	0.812510
N5511	N551	0.682840	0.539550	0.785910
N5521	N552	0.700920	0.566520	0.833560
C7331	C733	0.673750	0.585130	0.820180
C7341	C734	0.662480	0.567810	0.790100
H3671	H367	0.643700	0.574800	0.775200
C7351	C735	0.630600	0.633500	0.823300
H3681	H368	0.619600	0.624500	0.802800
C7361	C736	0.660260	0.616880	0.836780
N5531	N553	0.794070	0.960790	0.812510
N5541	N554	0.817160	0.960450	0.785910
N5551	N555	0.799080	0.933480	0.833560
C7371	C737	0.826250	0.914870	0.820180
C7381	C738	0.837520	0.932190	0.790100
H3691	H369	0.856300	0.925200	0.775200
C7391	C739	0.869400	0.866500	0.823300
H3701	H370	0.880400	0.875500	0.802800
C7401	C740	0.839740	0.883120	0.836780
N5561	N556	0.794070	0.460790	0.312510
N5571	N557	0.817160	0.460450	0.285910
N5581	N558	0.799080	0.433480	0.333560
C7411	C741	0.826250	0.414870	0.320180
C7421	C742	0.837520	0.432190	0.290100
H3711	H371	0.856300	0.425200	0.275200
C7431	C743	0.869400	0.366500	0.323300
H3721	H372	0.880400	0.375500	0.302800
C7441	C744	0.839740	0.383120	0.336780
N5591	N559	0.294070	0.960790	0.312510
N5601	N560	0.317160	0.960450	0.285910
N5611	N561	0.299080	0.933480	0.333560
C7451	C745	0.326250	0.914870	0.320180
C7461	C746	0.337520	0.932190	0.290100
H3731	H373	0.356300	0.925200	0.275200
C7471	C747	0.369400	0.866500	0.323300
H3741	H374	0.380400	0.875500	0.302800
C7481	C748	0.339740	0.883120	0.336780
N5621	N562	0.294070	0.460790	0.812510
N5631	N563	0.317160	0.460450	0.785910
N5641	N564	0.299080	0.433480	0.833560
C7491	C749	0.326250	0.414870	0.820180
C7501	C750	0.337520	0.432190	0.790100
H3751	H375	0.356300	0.425200	0.775200
C7511	C751	0.369400	0.366500	0.823300
H3761	H376	0.380400	0.375500	0.802800
C7521	C752	0.339740	0.383120	0.836780
N5651	N565	0.794070	0.039210	0.187490
N5661	N566	0.817160	0.039550	0.214090
N5671	N567	0.799080	0.066520	0.166440
C7531	C753	0.826250	0.085130	0.179820
C7541	C754	0.837520	0.067810	0.209900
H3771	H377	0.856300	0.074800	0.224800
C7551	C755	0.869400	0.133500	0.176700
H3781	H378	0.880400	0.124500	0.197200
C7561	C756	0.839740	0.116880	0.163220
N5681	N568	0.794070	0.539210	0.687490
N5691	N569	0.817160	0.539550	0.714090
N5701	N570	0.799080	0.566520	0.666440
C7571	C757	0.826250	0.585130	0.679820
C7581	C758	0.837520	0.567810	0.709900
H3791	H379	0.856300	0.574800	0.724800
C7591	C759	0.869400	0.633500	0.676700
H3801	H380	0.880400	0.624500	0.697200
C7601	C760	0.839740	0.616880	0.663220
N5711	N571	0.294070	0.039210	0.687490
N5721	N572	0.317160	0.039550	0.714090
N5731	N573	0.299080	0.066520	0.666440
C7611	C761	0.326250	0.085130	0.679820
C7621	C762	0.337520	0.067810	0.709900
H3811	H381	0.356300	0.074800	0.724800
C7631	C763	0.369400	0.133500	0.676700
H3821	H382	0.380400	0.124500	0.697200
C7641	C764	0.339740	0.116880	0.663220
N5741	N574	0.294070	0.539210	0.187490
N5751	N575	0.317160	0.539550	0.214090
N5761	N576	0.299080	0.566520	0.166440
C7651	C765	0.326250	0.585130	0.179820
C7661	C766	0.337520	0.567810	0.209900
H3831	H383	0.356300	0.574800	0.224800
C7671	C767	0.369400	0.633500	0.176700
H3841	H384	0.380400	0.624500	0.197200
C7681	C768	0.339740	0.616880	0.163220
Fe11	Fe1	0.681800	0.500000	0.254060
Fe21	Fe2	0.681800	0.000000	0.754060
Fe31	Fe3	0.181800	0.500000	0.754060
Fe41	Fe4	0.181800	0.000000	0.254060
Fe51	Fe5	0.318200	0.500000	0.254060
Fe61	Fe6	0.318200	0.000000	0.754060
Fe71	Fe7	0.818200	0.500000	0.754060
Fe81	Fe8	0.818200	0.000000	0.254060
Fe91	Fe9	0.318200	0.500000	0.745940
Fe101	Fe10	0.318200	0.000000	0.245940
Fe111	Fe11	0.818200	0.500000	0.245940
Fe121	Fe12	0.818200	0.000000	0.745940
Fe131	Fe13	0.681800	0.500000	0.745940
Fe141	Fe14	0.681800	0.000000	0.245940
Fe151	Fe15	0.181800	0.500000	0.245940
Fe161	Fe16	0.181800	0.000000	0.745940
Fe171	Fe17	0.254060	0.681800	0.500000
Fe181	Fe18	0.254060	0.181800	0.000000
Fe191	Fe19	0.754060	0.681800	0.000000
Fe201	Fe20	0.754060	0.181800	0.500000
Fe211	Fe21	0.254060	0.318200	0.500000
Fe221	Fe22	0.254060	0.818200	0.000000
Fe231	Fe23	0.754060	0.318200	0.000000
Fe241	Fe24	0.754060	0.818200	0.500000
Fe251	Fe25	0.745940	0.318200	0.500000
Fe261	Fe26	0.745940	0.818200	0.000000
Fe271	Fe27	0.245940	0.318200	0.000000
Fe281	Fe28	0.245940	0.818200	0.500000
Fe291	Fe29	0.745940	0.681800	0.500000
Fe301	Fe30	0.745940	0.181800	0.000000
Fe311	Fe31	0.245940	0.681800	0.000000
Fe321	Fe32	0.245940	0.181800	0.500000
Fe331	Fe33	0.500000	0.254060	0.681800
Fe341	Fe34	0.500000	0.754060	0.181800
Fe351	Fe35	0.000000	0.254060	0.181800
Fe361	Fe36	0.000000	0.754060	0.681800
Fe371	Fe37	0.500000	0.254060	0.318200
Fe381	Fe38	0.500000	0.754060	0.818200
Fe391	Fe39	0.000000	0.254060	0.818200
Fe401	Fe40	0.000000	0.754060	0.318200
Fe411	Fe41	0.500000	0.745940	0.318200
Fe421	Fe42	0.500000	0.245940	0.818200
Fe431	Fe43	0.000000	0.745940	0.818200
Fe441	Fe44	0.000000	0.245940	0.318200
Fe451	Fe45	0.500000	0.745940	0.681800
Fe461	Fe46	0.500000	0.245940	0.181800
Fe471	Fe47	0.000000	0.745940	0.181800
Fe481	Fe48	0.000000	0.245940	0.681800
Fe491	Fe49	0.000000	0.181800	0.245940
Fe501	Fe50	0.000000	0.681800	0.745940
Fe511	Fe51	0.500000	0.181800	0.745940
Fe521	Fe52	0.500000	0.681800	0.245940
Fe531	Fe53	0.000000	0.818200	0.245940
Fe541	Fe54	0.000000	0.318200	0.745940
Fe551	Fe55	0.500000	0.818200	0.745940
Fe561	Fe56	0.500000	0.318200	0.245940
Fe571	Fe57	0.000000	0.818200	0.754060
Fe581	Fe58	0.000000	0.318200	0.254060
Fe591	Fe59	0.500000	0.818200	0.254060
Fe601	Fe60	0.500000	0.318200	0.754060
Fe611	Fe61	0.000000	0.181800	0.754060
Fe621	Fe62	0.000000	0.681800	0.254060
Fe631	Fe63	0.500000	0.181800	0.254060
Fe641	Fe64	0.500000	0.681800	0.754060
Fe651	Fe65	0.181800	0.754060	0.000000
Fe661	Fe66	0.181800	0.254060	0.500000
Fe671	Fe67	0.681800	0.754060	0.500000
Fe681	Fe68	0.681800	0.254060	0.000000
Fe691	Fe69	0.818200	0.754060	0.000000
Fe701	Fe70	0.818200	0.254060	0.500000
Fe711	Fe71	0.318200	0.754060	0.500000
Fe721	Fe72	0.318200	0.254060	0.000000
Fe731	Fe73	0.818200	0.245940	0.000000
Fe741	Fe74	0.818200	0.745940	0.500000
Fe751	Fe75	0.318200	0.245940	0.500000
Fe761	Fe76	0.318200	0.745940	0.000000
Fe771	Fe77	0.181800	0.245940	0.000000
Fe781	Fe78	0.181800	0.745940	0.500000
Fe791	Fe79	0.681800	0.245940	0.500000
Fe801	Fe80	0.681800	0.745940	0.000000
Fe811	Fe81	0.754060	0.000000	0.818200
Fe821	Fe82	0.754060	0.500000	0.318200
Fe831	Fe83	0.254060	0.000000	0.318200
Fe841	Fe84	0.254060	0.500000	0.818200
Fe851	Fe85	0.754060	0.000000	0.181800
Fe861	Fe86	0.754060	0.500000	0.681800
Fe871	Fe87	0.254060	0.000000	0.681800
Fe881	Fe88	0.254060	0.500000	0.181800
Fe891	Fe89	0.245940	0.000000	0.181800
Fe901	Fe90	0.245940	0.500000	0.681800
Fe911	Fe91	0.745940	0.000000	0.681800
Fe921	Fe92	0.745940	0.500000	0.181800
Fe931	Fe93	0.245940	0.000000	0.818200
Fe941	Fe94	0.245940	0.500000	0.318200
Fe951	Fe95	0.745940	0.000000	0.318200
Fe961	Fe96	0.745940	0.500000	0.818200
Cl11	Cl1	0.750000	0.500000	0.250000
Cl21	Cl2	0.250000	0.500000	0.250000
Cl31	Cl3	0.250000	0.500000	0.750000
Cl41	Cl4	0.750000	0.500000	0.750000
Cl51	Cl5	0.250000	0.750000	0.500000
Cl61	Cl6	0.250000	0.250000	0.500000
Cl71	Cl7	0.750000	0.250000	0.500000
Cl81	Cl8	0.750000	0.750000	0.500000
Cl91	Cl9	0.500000	0.250000	0.750000
Cl101	Cl10	0.500000	0.250000	0.250000
Cl111	Cl11	0.500000	0.750000	0.250000
Cl121	Cl12	0.500000	0.750000	0.750000
Cl131	Cl13	0.000000	0.250000	0.250000
Cl141	Cl14	0.000000	0.750000	0.250000
Cl151	Cl15	0.000000	0.750000	0.750000
Cl161	Cl16	0.000000	0.250000	0.750000
Cl171	Cl17	0.250000	0.750000	0.000000
Cl181	Cl18	0.750000	0.750000	0.000000
Cl191	Cl19	0.750000	0.250000	0.000000
Cl201	Cl20	0.250000	0.250000	0.000000
Cl211	Cl21	0.750000	0.000000	0.750000
Cl221	Cl22	0.750000	0.000000	0.250000
Cl231	Cl23	0.250000	0.000000	0.250000
Cl241	Cl24	0.250000	0.000000	0.750000
