data_OLONAG_clean_PM
_symmetry_space_group_name_H-M	'P1'
_cell_length_a	12.635600
_cell_length_b	12.696300
_cell_length_c	22.175500
_cell_angle_alpha	84.864000
_cell_angle_beta	88.088000
_cell_angle_gamma	72.980000
_symmetry_Int_Tables_number 1

loop_
_symmetry_equiv_pos_as_xyz
'x,y,z'

loop_
_atom_site_label
_atom_site_type_symbol
_atom_site_fract_x
_atom_site_fract_y
_atom_site_fract_z
Ag11	Ag1	0.204490	0.412970	0.346930
Ag21	Ag2	0.293610	0.606710	0.300660
Ag31	Ag3	0.389490	0.407190	0.239070
Ag41	Ag4	0.235220	0.585650	0.159070
Ag51	Ag5	0.161620	0.385800	0.202040
Ag61	Ag6	0.031330	0.575110	0.273090
Sr11	Sr1	0.839040	0.042920	0.457280
Sr21	Sr2	0.869450	0.892200	0.180480
Sr31	Sr3	0.645130	0.946270	0.049920
S11	S1	0.104430	0.680030	0.342660
S21	S2	0.411340	0.342250	0.347040
S31	S3	0.352070	0.686360	0.202900
S41	S4	0.349210	0.296140	0.159200
S51	S5	0.030660	0.650750	0.164370
S61	S6	0.108720	0.299240	0.298700
O11	O1	0.920640	0.843950	0.424490
O21	O2	0.046790	0.880010	0.477680
O31	O3	0.518180	0.213960	0.465910
O41	O4	0.691820	0.220350	0.458280
O51	O5	0.532500	0.827150	0.112550
O61	O6	0.558500	0.827790	0.211120
O71	O7	0.582110	0.162970	0.076480
O81	O8	0.453960	0.117310	0.029750
O91	O9	0.810000	0.773030	0.012850
O101	O10	0.800500	0.782900	0.111800
O111	O11	0.957320	0.119420	0.380170
O121	O12	0.971170	0.111960	0.280230
O131	O13	0.835700	0.994300	0.067160
O141	O14	0.657650	0.976300	0.165070
N11	N1	0.146700	0.513270	0.429240
N21	N2	0.435500	0.537200	0.369410
N31	N3	0.514100	0.494400	0.197520
N41	N4	0.321270	0.477800	0.082440
N51	N5	0.028500	0.456960	0.129010
N61	N6	0.919200	0.466800	0.297150
C11	C1	0.104300	0.623100	0.418300
C21	C2	0.065100	0.691400	0.465440
C31	C3	0.074900	0.642900	0.524260
H11	H1	0.052300	0.686600	0.556500
C41	C4	0.117900	0.530200	0.535070
H21	H2	0.123800	0.496600	0.574300
C51	C5	0.151900	0.468600	0.486610
H31	H3	0.179800	0.392300	0.493800
C61	C6	0.008300	0.813200	0.454730
C71	C7	0.468900	0.427800	0.385340
C81	C8	0.552700	0.382500	0.428640
C91	C9	0.604400	0.452200	0.451610
H41	H4	0.662500	0.423600	0.478700
C101	C10	0.570100	0.563800	0.434360
H51	H5	0.604200	0.611500	0.449500
C111	C11	0.484700	0.602800	0.394450
H61	H6	0.459400	0.678600	0.384100
C121	C12	0.590000	0.262200	0.451930
C131	C13	0.489200	0.605600	0.190690
C141	C14	0.570800	0.657000	0.173220
C151	C15	0.678000	0.591500	0.164790
H71	H7	0.733900	0.624200	0.154900
C161	C16	0.702300	0.478000	0.171000
H81	H8	0.773600	0.433100	0.164300
C171	C17	0.618000	0.433500	0.187390
H91	H9	0.633800	0.357000	0.191700
C181	C18	0.549200	0.780900	0.165040
C191	C19	0.367100	0.367700	0.089590
C201	C20	0.427300	0.308700	0.042890
C211	C21	0.435500	0.366200	0.987490
H101	H10	0.473100	0.328900	0.955300
C221	C22	0.387400	0.479300	0.980520
H111	H11	0.391800	0.519100	0.943700
C231	C23	0.333100	0.531400	0.028830
H121	H12	0.302900	0.607800	0.024300
C241	C24	0.490600	0.187600	0.051010
C251	C25	0.980600	0.566900	0.120110
C261	C26	0.900300	0.611100	0.075050
C271	C27	0.874500	0.538900	0.038690
H131	H13	0.824800	0.566600	0.007100
C281	C28	0.921700	0.426800	0.048950
H141	H14	0.902700	0.377800	0.025700
C291	C29	0.997900	0.389000	0.094670
H151	H15	0.029700	0.313200	0.102100
C301	C30	0.834600	0.731400	0.065460
C311	C31	0.964100	0.356500	0.304690
C321	C32	0.897600	0.286400	0.318370
C331	C33	0.784600	0.331500	0.324470
H161	H16	0.739500	0.286100	0.334200
C341	C34	0.739400	0.444400	0.316060
H171	H17	0.663400	0.476500	0.319400
C351	C35	0.808900	0.508500	0.302670
H181	H18	0.778200	0.584700	0.297100
C361	C36	0.947200	0.163300	0.327100
H191	H19	0.833000	0.054000	0.066800
H201	H20	0.884000	0.967000	0.037000
H211	H21	0.623000	0.947000	0.180100
H221	H22	0.629000	0.039000	0.174200
Ag71	Ag7	0.795510	0.587030	0.653070
Ag81	Ag8	0.706390	0.393290	0.699340
Ag91	Ag9	0.610510	0.592810	0.760930
Ag101	Ag10	0.764780	0.414350	0.840930
Ag111	Ag11	0.838380	0.614200	0.797960
Ag121	Ag12	0.968670	0.424890	0.726910
Sr41	Sr4	0.160960	0.957080	0.542720
Sr51	Sr5	0.130550	0.107800	0.819520
Sr61	Sr6	0.354870	0.053730	0.950080
S71	S7	0.895570	0.319970	0.657340
S81	S8	0.588660	0.657750	0.652960
S91	S9	0.647930	0.313640	0.797100
S101	S10	0.650790	0.703860	0.840800
S111	S11	0.969340	0.349250	0.835630
S121	S12	0.891280	0.700760	0.701300
O151	O15	0.079360	0.156050	0.575510
O161	O16	0.953210	0.119990	0.522320
O171	O17	0.481820	0.786040	0.534090
O181	O18	0.308180	0.779650	0.541720
O191	O19	0.467500	0.172850	0.887450
O201	O20	0.441500	0.172210	0.788880
O211	O21	0.417890	0.837030	0.923520
O221	O22	0.546040	0.882690	0.970250
O231	O23	0.190000	0.226970	0.987150
O241	O24	0.199500	0.217100	0.888200
O251	O25	0.042680	0.880580	0.619830
O261	O26	0.028830	0.888040	0.719770
O271	O27	0.164300	0.005700	0.932840
O281	O28	0.342350	0.023700	0.834930
N71	N7	0.853300	0.486730	0.570760
N81	N8	0.564500	0.462800	0.630590
N91	N9	0.485900	0.505600	0.802480
N101	N10	0.678730	0.522200	0.917560
N111	N11	0.971500	0.543040	0.870990
N121	N12	0.080800	0.533200	0.702850
C371	C37	0.895700	0.376900	0.581700
C381	C38	0.934900	0.308600	0.534560
C391	C39	0.925100	0.357100	0.475740
H231	H23	0.947700	0.313400	0.443500
C401	C40	0.882100	0.469800	0.464930
H241	H24	0.876200	0.503400	0.425700
C411	C41	0.848100	0.531400	0.513390
H251	H25	0.820200	0.607700	0.506200
C421	C42	0.991700	0.186800	0.545270
C431	C43	0.531100	0.572200	0.614660
C441	C44	0.447300	0.617500	0.571360
C451	C45	0.395600	0.547800	0.548390
H261	H26	0.337500	0.576400	0.521300
C461	C46	0.429900	0.436200	0.565640
H271	H27	0.395800	0.388500	0.550500
C471	C47	0.515300	0.397200	0.605550
H281	H28	0.540600	0.321400	0.615900
C481	C48	0.410000	0.737800	0.548070
C491	C49	0.510800	0.394400	0.809310
C501	C50	0.429200	0.343000	0.826780
C511	C51	0.322000	0.408500	0.835210
H291	H29	0.266100	0.375800	0.845100
C521	C52	0.297700	0.522000	0.829000
H301	H30	0.226400	0.566900	0.835700
C531	C53	0.382000	0.566500	0.812610
H311	H31	0.366200	0.643000	0.808300
C541	C54	0.450800	0.219100	0.834960
C551	C55	0.632900	0.632300	0.910410
C561	C56	0.572700	0.691300	0.957110
C571	C57	0.564500	0.633800	0.012510
H321	H32	0.526900	0.671100	0.044700
C581	C58	0.612600	0.520700	0.019480
H331	H33	0.608200	0.480900	0.056300
C591	C59	0.666900	0.468600	0.971170
H341	H34	0.697100	0.392200	0.975700
C601	C60	0.509400	0.812400	0.948990
C611	C61	0.019400	0.433100	0.879890
C621	C62	0.099700	0.388900	0.924950
C631	C63	0.125500	0.461100	0.961310
H351	H35	0.175200	0.433400	0.992900
C641	C64	0.078300	0.573200	0.951050
H361	H36	0.097300	0.622200	0.974300
C651	C65	0.002100	0.611000	0.905330
H371	H37	0.970300	0.686800	0.897900
C661	C66	0.165400	0.268600	0.934540
C671	C67	0.035900	0.643500	0.695310
C681	C68	0.102400	0.713600	0.681630
C691	C69	0.215400	0.668500	0.675530
H381	H38	0.260500	0.713900	0.665800
C701	C70	0.260600	0.555600	0.683940
H391	H39	0.336600	0.523500	0.680600
C711	C71	0.191100	0.491500	0.697330
H401	H40	0.221800	0.415300	0.702900
C721	C72	0.052800	0.836700	0.672900
H411	H41	0.167000	0.946000	0.933200
H421	H42	0.116000	0.033000	0.963000
H431	H43	0.377000	0.053000	0.819900
H441	H44	0.371000	0.961000	0.825800
