data_OLURUI_charged_PM
_symmetry_space_group_name_H-M	'P1'
_cell_length_a	15.038400
_cell_length_b	15.038400
_cell_length_c	15.038400
_cell_angle_alpha	71.978100
_cell_angle_beta	71.978100
_cell_angle_gamma	71.978100
_symmetry_Int_Tables_number 1

loop_
_symmetry_equiv_pos_as_xyz
'x,y,z'

loop_
_atom_site_label
_atom_site_type_symbol
_atom_site_fract_x
_atom_site_fract_y
_atom_site_fract_z
In11	In1	0.250000	0.590090	0.909910
In21	In2	0.909910	0.250000	0.590090
In31	In3	0.590090	0.909910	0.250000
In41	In4	0.750000	0.409910	0.090090
In51	In5	0.090090	0.750000	0.409910
In61	In6	0.409910	0.090090	0.750000
H11	H1	0.608400	0.611700	0.872900
H21	H2	0.490800	0.533100	0.898400
H31	H3	0.872900	0.608400	0.611700
H41	H4	0.898400	0.490800	0.533100
H51	H5	0.611700	0.872900	0.608400
H61	H6	0.533100	0.898400	0.490800
H71	H7	0.888300	0.891600	0.627100
H81	H8	0.966900	0.009200	0.601600
H91	H9	0.891600	0.627100	0.888300
H101	H10	0.009200	0.601600	0.966900
H111	H11	0.627100	0.888300	0.891600
H121	H12	0.601600	0.966900	0.009200
H131	H13	0.391600	0.388300	0.127100
H141	H14	0.509200	0.466900	0.101600
H151	H15	0.127100	0.391600	0.388300
H161	H16	0.101600	0.509200	0.466900
H171	H17	0.388300	0.127100	0.391600
H181	H18	0.466900	0.101600	0.509200
H191	H19	0.111700	0.108400	0.372900
H201	H20	0.033100	0.990800	0.398400
H211	H21	0.108400	0.372900	0.111700
H221	H22	0.990800	0.398400	0.033100
H231	H23	0.372900	0.111700	0.108400
H241	H24	0.398400	0.033100	0.990800
C11	C1	0.366340	0.745780	0.862050
C21	C2	0.439450	0.792010	0.842430
C31	C3	0.546750	0.647750	0.867750
C41	C4	0.475610	0.600010	0.884810
C51	C5	0.424810	0.900210	0.815410
C61	C6	0.263510	0.798250	0.861260
C71	C7	0.862050	0.366340	0.745780
C81	C8	0.842430	0.439450	0.792010
C91	C9	0.867750	0.546750	0.647750
C101	C10	0.884810	0.475610	0.600010
C111	C11	0.815410	0.424810	0.900210
C121	C12	0.861260	0.263510	0.798250
C131	C13	0.745780	0.862050	0.366340
C141	C14	0.792010	0.842430	0.439450
C151	C15	0.647750	0.867750	0.546750
C161	C16	0.600010	0.884810	0.475610
C171	C17	0.900210	0.815410	0.424810
C181	C18	0.798250	0.861260	0.263510
C191	C19	0.754220	0.133660	0.637950
C201	C20	0.707990	0.060550	0.657570
C211	C21	0.852250	0.953250	0.632250
C221	C22	0.899990	0.024390	0.615190
C231	C23	0.599790	0.075190	0.684590
C241	C24	0.701750	0.236490	0.638740
C251	C25	0.133660	0.637950	0.754220
C261	C26	0.060550	0.657570	0.707990
C271	C27	0.953250	0.632250	0.852250
C281	C28	0.024390	0.615190	0.899990
C291	C29	0.075190	0.684590	0.599790
C301	C30	0.236490	0.638740	0.701750
C311	C31	0.637950	0.754220	0.133660
C321	C32	0.657570	0.707990	0.060550
C331	C33	0.632250	0.852250	0.953250
C341	C34	0.615190	0.899990	0.024390
C351	C35	0.684590	0.599790	0.075190
C361	C36	0.638740	0.701750	0.236490
C371	C37	0.633660	0.254220	0.137950
C381	C38	0.560550	0.207990	0.157570
C391	C39	0.453250	0.352250	0.132250
C401	C40	0.524390	0.399990	0.115190
C411	C41	0.575190	0.099790	0.184590
C421	C42	0.736490	0.201750	0.138740
C431	C43	0.137950	0.633660	0.254220
C441	C44	0.157570	0.560550	0.207990
C451	C45	0.132250	0.453250	0.352250
C461	C46	0.115190	0.524390	0.399990
C471	C47	0.184590	0.575190	0.099790
C481	C48	0.138740	0.736490	0.201750
C491	C49	0.254220	0.137950	0.633660
C501	C50	0.207990	0.157570	0.560550
C511	C51	0.352250	0.132250	0.453250
C521	C52	0.399990	0.115190	0.524390
C531	C53	0.099790	0.184590	0.575190
C541	C54	0.201750	0.138740	0.736490
C551	C55	0.245780	0.866340	0.362050
C561	C56	0.292010	0.939450	0.342430
C571	C57	0.147750	0.046750	0.367750
C581	C58	0.100010	0.975610	0.384810
C591	C59	0.400210	0.924810	0.315410
C601	C60	0.298250	0.763510	0.361260
C611	C61	0.866340	0.362050	0.245780
C621	C62	0.939450	0.342430	0.292010
C631	C63	0.046750	0.367750	0.147750
C641	C64	0.975610	0.384810	0.100010
C651	C65	0.924810	0.315410	0.400210
C661	C66	0.763510	0.361260	0.298250
C671	C67	0.362050	0.245780	0.866340
C681	C68	0.342430	0.292010	0.939450
C691	C69	0.367750	0.147750	0.046750
C701	C70	0.384810	0.100010	0.975610
C711	C71	0.315410	0.400210	0.924810
C721	C72	0.361260	0.298250	0.763510
N11	N1	0.385810	0.648880	0.881850
N21	N2	0.530270	0.743750	0.844060
N31	N3	0.881850	0.385810	0.648880
N41	N4	0.844060	0.530270	0.743750
N51	N5	0.648880	0.881850	0.385810
N61	N6	0.743750	0.844060	0.530270
N71	N7	0.851120	0.114190	0.618150
N81	N8	0.756250	0.969730	0.655940
N91	N9	0.114190	0.618150	0.851120
N101	N10	0.969730	0.655940	0.756250
N111	N11	0.618150	0.851120	0.114190
N121	N12	0.655940	0.756250	0.969730
N131	N13	0.614190	0.351120	0.118150
N141	N14	0.469730	0.256250	0.155940
N151	N15	0.118150	0.614190	0.351120
N161	N16	0.155940	0.469730	0.256250
N171	N17	0.351120	0.118150	0.614190
N181	N18	0.256250	0.155940	0.469730
N191	N19	0.148880	0.885810	0.381850
N201	N20	0.243750	0.030270	0.344060
N211	N21	0.885810	0.381850	0.148880
N221	N22	0.030270	0.344060	0.243750
N231	N23	0.381850	0.148880	0.885810
N241	N24	0.344060	0.243750	0.030270
O11	O1	0.203440	0.746450	0.884420
O21	O2	0.272090	0.558290	0.058440
O31	O3	0.120270	0.598570	0.055020
O41	O4	0.244680	0.886280	0.838560
O51	O5	0.884420	0.203440	0.746450
O61	O6	0.058440	0.272090	0.558290
O71	O7	0.055020	0.120270	0.598570
O81	O8	0.838560	0.244680	0.886280
O91	O9	0.746450	0.884420	0.203440
O101	O10	0.558290	0.058440	0.272090
O111	O11	0.598570	0.055020	0.120270
O121	O12	0.886280	0.838560	0.244680
O131	O13	0.753550	0.296560	0.615580
O141	O14	0.941710	0.227910	0.441560
O151	O15	0.901430	0.379730	0.444980
O161	O16	0.613720	0.255320	0.661440
O171	O17	0.296560	0.615580	0.753550
O181	O18	0.227910	0.441560	0.941710
O191	O19	0.379730	0.444980	0.901430
O201	O20	0.255320	0.661440	0.613720
O211	O21	0.615580	0.753550	0.296560
O221	O22	0.441560	0.941710	0.227910
O231	O23	0.444980	0.901430	0.379730
O241	O24	0.661440	0.613720	0.255320
O251	O25	0.796560	0.253550	0.115580
O261	O26	0.727910	0.441710	0.941560
O271	O27	0.879730	0.401430	0.944980
O281	O28	0.755320	0.113720	0.161440
O291	O29	0.115580	0.796560	0.253550
O301	O30	0.941560	0.727910	0.441710
O311	O31	0.944980	0.879730	0.401430
O321	O32	0.161440	0.755320	0.113720
O331	O33	0.253550	0.115580	0.796560
O341	O34	0.441710	0.941560	0.727910
O351	O35	0.401430	0.944980	0.879730
O361	O36	0.113720	0.161440	0.755320
O371	O37	0.246450	0.703440	0.384420
O381	O38	0.058290	0.772090	0.558440
O391	O39	0.098570	0.620270	0.555020
O401	O40	0.386280	0.744680	0.338560
O411	O41	0.703440	0.384420	0.246450
O421	O42	0.772090	0.558440	0.058290
O431	O43	0.620270	0.555020	0.098570
O441	O44	0.744680	0.338560	0.386280
O451	O45	0.384420	0.246450	0.703440
O461	O46	0.558440	0.058290	0.772090
O471	O47	0.555020	0.098570	0.620270
O481	O48	0.338560	0.386280	0.744680
