data_OMEWUZ_clean_PM
_symmetry_space_group_name_H-M	'P1'
_cell_length_a	7.628500
_cell_length_b	11.929600
_cell_length_c	14.342000
_cell_angle_alpha	114.576000
_cell_angle_beta	99.312800
_cell_angle_gamma	90.000000
_symmetry_Int_Tables_number 1

loop_
_symmetry_equiv_pos_as_xyz
'x,y,z'

loop_
_atom_site_label
_atom_site_type_symbol
_atom_site_fract_x
_atom_site_fract_y
_atom_site_fract_z
Ba11	Ba1	0.939300	0.725870	0.885320
Ba21	Ba2	0.560700	0.840550	0.114680
Ba31	Ba3	0.060700	0.274130	0.114680
Ba41	Ba4	0.439300	0.159450	0.885320
H11	H1	0.230000	0.943000	0.050000
H21	H2	0.421400	0.337600	0.625000
H31	H3	0.454200	0.234600	0.452800
H41	H4	0.190200	0.491200	0.387400
H51	H5	0.156800	0.592100	0.559400
H61	H6	0.569700	0.230700	0.314800
H71	H7	0.408300	0.131800	0.278200
H81	H8	0.270000	0.893000	0.950000
H91	H9	0.078600	0.712600	0.375000
H101	H10	0.045800	0.781800	0.547200
H111	H11	0.309800	0.103800	0.612600
H121	H12	0.343200	0.032700	0.440600
H131	H13	0.930300	0.915900	0.685200
H141	H14	0.091700	0.853600	0.721800
H151	H15	0.770000	0.057000	0.950000
H161	H16	0.578600	0.662400	0.375000
H171	H17	0.545800	0.765400	0.547200
H181	H18	0.809800	0.508800	0.612600
H191	H19	0.843200	0.407900	0.440600
H201	H20	0.430300	0.769300	0.685200
H211	H21	0.591700	0.868200	0.721800
H221	H22	0.730000	0.107000	0.050000
H231	H23	0.921400	0.287400	0.625000
H241	H24	0.954200	0.218200	0.452800
H251	H25	0.690200	0.896200	0.387400
H261	H26	0.656800	0.967300	0.559400
H271	H27	0.069700	0.084100	0.314800
H281	H28	0.908300	0.146400	0.278200
C11	C1	0.285000	0.475040	0.610560
C21	C2	0.374000	0.368430	0.577240
C31	C3	0.394200	0.306450	0.474060
C41	C4	0.324000	0.352750	0.402840
C51	C5	0.236200	0.459740	0.434880
C61	C6	0.216700	0.520060	0.538120
C71	C7	0.264500	0.541530	0.723260
C81	C8	0.454900	0.201700	0.269260
C91	C9	0.479600	0.159920	0.156920
C101	C10	0.215000	0.864480	0.389440
C111	C11	0.126000	0.791190	0.422760
C121	C12	0.105800	0.832390	0.525940
C131	C13	0.176000	0.949910	0.597160
C141	C14	0.263800	0.024860	0.565120
C151	C15	0.283300	0.981940	0.461880
C161	C16	0.235500	0.818270	0.276740
C171	C17	0.045100	0.932440	0.730740
C181	C18	0.020400	0.003000	0.843080
C191	C19	0.715000	0.524960	0.389440
C201	C20	0.626000	0.631570	0.422760
C211	C21	0.605800	0.693550	0.525940
C221	C22	0.676000	0.647250	0.597160
C231	C23	0.763800	0.540260	0.565120
C241	C24	0.783300	0.479940	0.461880
C251	C25	0.735500	0.458470	0.276740
C261	C26	0.545100	0.798300	0.730740
C271	C27	0.520400	0.840080	0.843080
C281	C28	0.785000	0.135520	0.610560
C291	C29	0.874000	0.208810	0.577240
C301	C30	0.894200	0.167610	0.474060
C311	C31	0.824000	0.050090	0.402840
C321	C32	0.736200	0.975140	0.434880
C331	C33	0.716700	0.018060	0.538120
C341	C34	0.764500	0.181730	0.723260
C351	C35	0.954900	0.067560	0.269260
C361	C36	0.979600	0.997000	0.156920
O11	O1	0.162200	0.625920	0.748220
O21	O2	0.358700	0.505880	0.786280
O31	O3	0.336800	0.297730	0.298460
O41	O4	0.583470	0.074940	0.130160
O51	O5	0.402030	0.207840	0.100620
O61	O6	0.337800	0.877700	0.251780
O71	O7	0.141300	0.719600	0.213720
O81	O8	0.163200	0.999270	0.701540
O91	O9	0.916530	0.944780	0.869840
O101	O10	0.097970	0.107220	0.899380
O111	O11	0.837800	0.374080	0.251780
O121	O12	0.641300	0.494120	0.213720
O131	O13	0.663200	0.702270	0.701540
O141	O14	0.416530	0.925060	0.869840
O151	O15	0.597970	0.792160	0.899380
O161	O16	0.662200	0.122300	0.748220
O171	O17	0.858700	0.280400	0.786280
O181	O18	0.836800	0.000730	0.298460
O191	O19	0.083470	0.055220	0.130160
O201	O20	0.902030	0.892780	0.100620
O211	O21	0.250000	0.874500	0.000000
O221	O22	0.750000	0.125500	0.000000
