data_OMIPAD_clean_PM
_symmetry_space_group_name_H-M	'P1'
_cell_length_a	8.957500
_cell_length_b	19.685000
_cell_length_c	25.063000
_cell_angle_alpha	90.000000
_cell_angle_beta	96.015000
_cell_angle_gamma	90.000000
_symmetry_Int_Tables_number 1

loop_
_symmetry_equiv_pos_as_xyz
'x,y,z'

loop_
_atom_site_label
_atom_site_type_symbol
_atom_site_fract_x
_atom_site_fract_y
_atom_site_fract_z
C11	C1	0.390000	0.248900	0.982420
H11	H1	0.305700	0.227200	0.993000
C21	C2	0.498300	0.210200	0.962400
H21	H2	0.487300	0.163300	0.960400
C31	C3	0.623800	0.240500	0.945140
C41	C4	0.633200	0.311200	0.949870
H31	H3	0.715300	0.334500	0.939100
C51	C5	0.518900	0.345700	0.970800
H41	H4	0.526000	0.392800	0.973300
C61	C6	0.740600	0.199300	0.923360
C71	C7	0.703400	0.138100	0.897800
H51	H5	0.603500	0.124500	0.892500
C81	C8	0.813100	0.097300	0.880100
H61	H6	0.785900	0.056300	0.863400
C91	C9	0.960500	0.115700	0.886460
C101	C10	0.998800	0.177900	0.909300
H71	H7	0.098200	0.192300	0.912400
C111	C11	0.889100	0.218800	0.927580
H81	H8	0.916300	0.260600	0.943100
C121	C12	0.045800	0.044900	0.816700
C131	C13	0.070100	0.977700	0.805870
H91	H9	0.110200	0.949300	0.833300
C141	C14	0.036200	0.951600	0.754970
H101	H10	0.053700	0.905800	0.749000
C151	C15	0.977000	0.991800	0.712660
C161	C16	0.949900	0.060000	0.724030
H111	H11	0.907300	0.088400	0.696900
C171	C17	0.985600	0.085700	0.774900
H121	H12	0.968700	0.131500	0.781300
C181	C18	0.935900	0.964000	0.659020
C191	C19	0.896000	0.896200	0.650770
H131	H13	0.899900	0.866600	0.679800
C201	C20	0.851200	0.872800	0.600400
H141	H14	0.823100	0.827500	0.596200
C211	C21	0.887200	0.975900	0.563140
H151	H15	0.885800	0.003800	0.533100
C221	C22	0.932900	0.003100	0.613170
H161	H16	0.961900	0.048400	0.615900
C231	C23	0.193900	0.050900	0.905380
C241	C24	0.179800	0.048500	0.959930
H171	H17	0.088100	0.059100	0.972200
C251	C25	0.299800	0.030900	0.996180
H181	H18	0.288700	0.032700	0.032600
C261	C26	0.435600	0.010500	0.980420
C271	C27	0.445600	0.009900	0.925290
H191	H19	0.534100	0.995200	0.912700
C281	C28	0.327500	0.030400	0.888820
H201	H20	0.339200	0.030400	0.852400
C291	C29	0.001700	0.309700	0.047410
C301	C30	0.874300	0.271000	0.068440
C311	C31	0.749900	0.304800	0.084850
H211	H21	0.743900	0.351900	0.082000
C321	C32	0.636500	0.269600	0.105100
H221	H22	0.553200	0.292900	0.114900
C331	C33	0.644400	0.199700	0.111110
C341	C34	0.765100	0.166600	0.092720
H231	H23	0.769700	0.119500	0.094600
C351	C35	0.878200	0.201200	0.071910
H241	H24	0.958200	0.177400	0.060000
C361	C36	0.527300	0.162100	0.136770
C371	C37	0.378100	0.162300	0.116900
H251	H25	0.347200	0.187000	0.086100
C381	C38	0.273300	0.126000	0.142300
H261	H26	0.173100	0.126200	0.128100
C391	C39	0.315000	0.090100	0.187500
H271	H27	0.243900	0.064900	0.203400
C401	C40	0.462300	0.090700	0.210250
C411	C41	0.568000	0.125400	0.183950
H281	H28	0.668200	0.124300	0.198000
C421	C42	0.508500	0.055200	0.261660
C431	C43	0.449200	0.995700	0.274500
H291	H29	0.375300	0.976200	0.250500
C441	C44	0.493600	0.962100	0.322200
H301	H30	0.452500	0.919900	0.328700
C451	C45	0.658200	0.050800	0.347300
H311	H31	0.730700	0.070300	0.371800
C461	C46	0.615800	0.083700	0.299700
H321	H32	0.658900	0.125300	0.292800
C471	C47	0.596000	0.989900	0.359300
C481	C48	0.650700	0.953900	0.409600
N11	N1	0.073600	0.072500	0.868760
N21	N2	0.400300	0.316280	0.987390
N31	N3	0.845800	0.912380	0.556500
O11	O1	0.111100	0.280200	0.034630
O21	O2	0.991100	0.371700	0.043000
O31	O3	0.653000	0.891800	0.409300
O41	O4	0.715400	0.980600	0.446700
Zn11	Zn1	0.226430	0.371690	0.017770
C491	C49	0.610000	0.748900	0.517580
H331	H33	0.694300	0.727200	0.507000
C501	C50	0.501700	0.710200	0.537600
H341	H34	0.512700	0.663300	0.539600
C511	C51	0.376200	0.740500	0.554860
C521	C52	0.366800	0.811200	0.550130
H351	H35	0.284700	0.834500	0.560900
C531	C53	0.481100	0.845700	0.529200
H361	H36	0.474000	0.892800	0.526700
C541	C54	0.259400	0.699300	0.576640
C551	C55	0.296600	0.638100	0.602200
H371	H37	0.396500	0.624500	0.607500
C561	C56	0.186900	0.597300	0.619900
H381	H38	0.214100	0.556300	0.636600
C571	C57	0.039500	0.615700	0.613540
C581	C58	0.001200	0.677900	0.590700
H391	H39	0.901800	0.692300	0.587600
C591	C59	0.110900	0.718800	0.572420
H401	H40	0.083700	0.760600	0.556900
C601	C60	0.954200	0.544900	0.683300
C611	C61	0.929900	0.477700	0.694130
H411	H41	0.889800	0.449300	0.666700
C621	C62	0.963800	0.451600	0.745030
H421	H42	0.946300	0.405800	0.751000
C631	C63	0.023000	0.491800	0.787340
C641	C64	0.050100	0.560000	0.775970
H431	H43	0.092700	0.588400	0.803100
C651	C65	0.014400	0.585700	0.725100
H441	H44	0.031300	0.631500	0.718700
C661	C66	0.064100	0.464000	0.840980
C671	C67	0.104000	0.396200	0.849230
H451	H45	0.100100	0.366600	0.820200
C681	C68	0.148800	0.372800	0.899600
H461	H46	0.176900	0.327500	0.903800
C691	C69	0.112800	0.475900	0.936860
H471	H47	0.114200	0.503800	0.966900
C701	C70	0.067100	0.503100	0.886830
H481	H48	0.038100	0.548400	0.884100
C711	C71	0.806100	0.550900	0.594620
C721	C72	0.820200	0.548500	0.540070
H491	H49	0.911900	0.559100	0.527800
C731	C73	0.700200	0.530900	0.503820
H501	H50	0.711300	0.532700	0.467400
C741	C74	0.564400	0.510500	0.519580
C751	C75	0.554400	0.509900	0.574710
H511	H51	0.465900	0.495200	0.587300
C761	C76	0.672500	0.530400	0.611180
H521	H52	0.660800	0.530400	0.647600
C771	C77	0.998300	0.809700	0.452590
C781	C78	0.125700	0.771000	0.431560
C791	C79	0.250100	0.804800	0.415150
H531	H53	0.256100	0.851900	0.418000
C801	C80	0.363500	0.769600	0.394900
H541	H54	0.446800	0.792900	0.385100
C811	C81	0.355600	0.699700	0.388890
C821	C82	0.234900	0.666600	0.407280
H551	H55	0.230300	0.619500	0.405400
C831	C83	0.121800	0.701200	0.428090
H561	H56	0.041800	0.677400	0.440000
C841	C84	0.472700	0.662100	0.363230
C851	C85	0.621900	0.662300	0.383100
H571	H57	0.652800	0.687000	0.413900
C861	C86	0.726700	0.626000	0.357700
H581	H58	0.826900	0.626200	0.371900
C871	C87	0.685000	0.590100	0.312500
H591	H59	0.756100	0.564900	0.296600
C881	C88	0.537700	0.590700	0.289750
C891	C89	0.432000	0.625400	0.316050
H601	H60	0.331800	0.624300	0.302000
C901	C90	0.491500	0.555200	0.238340
C911	C91	0.550800	0.495700	0.225500
H611	H61	0.624700	0.476200	0.249500
C921	C92	0.506400	0.462100	0.177800
H621	H62	0.547500	0.419900	0.171300
C931	C93	0.341800	0.550800	0.152700
H631	H63	0.269300	0.570300	0.128200
C941	C94	0.384200	0.583700	0.200300
H641	H64	0.341100	0.625300	0.207200
C951	C95	0.404000	0.489900	0.140700
C961	C96	0.349300	0.453900	0.090400
N41	N4	0.926400	0.572500	0.631240
N51	N5	0.599700	0.816280	0.512610
N61	N6	0.154200	0.412380	0.943500
O51	O5	0.888900	0.780200	0.465370
O61	O6	0.008900	0.871700	0.457000
O71	O7	0.347000	0.391800	0.090700
O81	O8	0.284600	0.480600	0.053300
Zn21	Zn2	0.773570	0.871690	0.482230
C971	C97	0.610000	0.751100	0.017580
H651	H65	0.694300	0.772800	0.007000
C981	C98	0.501700	0.789800	0.037600
H661	H66	0.512700	0.836700	0.039600
C991	C99	0.376200	0.759500	0.054860
C1001	C100	0.366800	0.688800	0.050130
H671	H67	0.284700	0.665500	0.060900
C1011	C101	0.481100	0.654300	0.029200
H681	H68	0.474000	0.607200	0.026700
C1021	C102	0.259400	0.800700	0.076640
C1031	C103	0.296600	0.861900	0.102200
H691	H69	0.396500	0.875500	0.107500
C1041	C104	0.186900	0.902700	0.119900
H701	H70	0.214100	0.943700	0.136600
C1051	C105	0.039500	0.884300	0.113540
C1061	C106	0.001200	0.822100	0.090700
H711	H71	0.901800	0.807700	0.087600
C1071	C107	0.110900	0.781200	0.072420
H721	H72	0.083700	0.739400	0.056900
C1081	C108	0.954200	0.955100	0.183300
C1091	C109	0.929900	0.022300	0.194130
H731	H73	0.889800	0.050700	0.166700
C1101	C110	0.963800	0.048400	0.245030
H741	H74	0.946300	0.094200	0.251000
C1111	C111	0.023000	0.008200	0.287340
C1121	C112	0.050100	0.940000	0.275970
H751	H75	0.092700	0.911600	0.303100
C1131	C113	0.014400	0.914300	0.225100
H761	H76	0.031300	0.868500	0.218700
C1141	C114	0.064100	0.036000	0.340980
C1151	C115	0.104000	0.103800	0.349230
H771	H77	0.100100	0.133400	0.320200
C1161	C116	0.148800	0.127200	0.399600
H781	H78	0.176900	0.172500	0.403800
C1171	C117	0.112800	0.024100	0.436860
H791	H79	0.114200	0.996200	0.466900
C1181	C118	0.067100	0.996900	0.386830
H801	H80	0.038100	0.951600	0.384100
C1191	C119	0.806100	0.949100	0.094620
C1201	C120	0.820200	0.951500	0.040070
H811	H81	0.911900	0.940900	0.027800
C1211	C121	0.700200	0.969100	0.003820
H821	H82	0.711300	0.967300	0.967400
C1221	C122	0.564400	0.989500	0.019580
C1231	C123	0.554400	0.990100	0.074710
H831	H83	0.465900	0.004800	0.087300
C1241	C124	0.672500	0.969600	0.111180
H841	H84	0.660800	0.969600	0.147600
C1251	C125	0.998300	0.690300	0.952590
C1261	C126	0.125700	0.729000	0.931560
C1271	C127	0.250100	0.695200	0.915150
H851	H85	0.256100	0.648100	0.918000
C1281	C128	0.363500	0.730400	0.894900
H861	H86	0.446800	0.707100	0.885100
C1291	C129	0.355600	0.800300	0.888890
C1301	C130	0.234900	0.833400	0.907280
H871	H87	0.230300	0.880500	0.905400
C1311	C131	0.121800	0.798800	0.928090
H881	H88	0.041800	0.822600	0.940000
C1321	C132	0.472700	0.837900	0.863230
C1331	C133	0.621900	0.837700	0.883100
H891	H89	0.652800	0.813000	0.913900
C1341	C134	0.726700	0.874000	0.857700
H901	H90	0.826900	0.873800	0.871900
C1351	C135	0.685000	0.909900	0.812500
H911	H91	0.756100	0.935100	0.796600
C1361	C136	0.537700	0.909300	0.789750
C1371	C137	0.432000	0.874600	0.816050
H921	H92	0.331800	0.875700	0.802000
C1381	C138	0.491500	0.944800	0.738340
C1391	C139	0.550800	0.004300	0.725500
H931	H93	0.624700	0.023800	0.749500
C1401	C140	0.506400	0.037900	0.677800
H941	H94	0.547500	0.080100	0.671300
C1411	C141	0.341800	0.949200	0.652700
H951	H95	0.269300	0.929700	0.628200
C1421	C142	0.384200	0.916300	0.700300
H961	H96	0.341100	0.874700	0.707200
C1431	C143	0.404000	0.010100	0.640700
C1441	C144	0.349300	0.046100	0.590400
N71	N7	0.926400	0.927500	0.131240
N81	N8	0.599700	0.683720	0.012610
N91	N9	0.154200	0.087620	0.443500
O91	O9	0.888900	0.719800	0.965370
O101	O10	0.008900	0.628300	0.957000
O111	O11	0.347000	0.108200	0.590700
O121	O12	0.284600	0.019400	0.553300
Zn31	Zn3	0.773570	0.628310	0.982230
C1451	C145	0.390000	0.251100	0.482420
H971	H97	0.305700	0.272800	0.493000
C1461	C146	0.498300	0.289800	0.462400
H981	H98	0.487300	0.336700	0.460400
C1471	C147	0.623800	0.259500	0.445140
C1481	C148	0.633200	0.188800	0.449870
H991	H99	0.715300	0.165500	0.439100
C1491	C149	0.518900	0.154300	0.470800
H1001	H100	0.526000	0.107200	0.473300
C1501	C150	0.740600	0.300700	0.423360
C1511	C151	0.703400	0.361900	0.397800
H1011	H101	0.603500	0.375500	0.392500
C1521	C152	0.813100	0.402700	0.380100
H1021	H102	0.785900	0.443700	0.363400
C1531	C153	0.960500	0.384300	0.386460
C1541	C154	0.998800	0.322100	0.409300
H1031	H103	0.098200	0.307700	0.412400
C1551	C155	0.889100	0.281200	0.427580
H1041	H104	0.916300	0.239400	0.443100
C1561	C156	0.045800	0.455100	0.316700
C1571	C157	0.070100	0.522300	0.305870
H1051	H105	0.110200	0.550700	0.333300
C1581	C158	0.036200	0.548400	0.254970
H1061	H106	0.053700	0.594200	0.249000
C1591	C159	0.977000	0.508200	0.212660
C1601	C160	0.949900	0.440000	0.224030
H1071	H107	0.907300	0.411600	0.196900
C1611	C161	0.985600	0.414300	0.274900
H1081	H108	0.968700	0.368500	0.281300
C1621	C162	0.935900	0.536000	0.159020
C1631	C163	0.896000	0.603800	0.150770
H1091	H109	0.899900	0.633400	0.179800
C1641	C164	0.851200	0.627200	0.100400
H1101	H110	0.823100	0.672500	0.096200
C1651	C165	0.887200	0.524100	0.063140
H1111	H111	0.885800	0.496200	0.033100
C1661	C166	0.932900	0.496900	0.113170
H1121	H112	0.961900	0.451600	0.115900
C1671	C167	0.193900	0.449100	0.405380
C1681	C168	0.179800	0.451500	0.459930
H1131	H113	0.088100	0.440900	0.472200
C1691	C169	0.299800	0.469100	0.496180
H1141	H114	0.288700	0.467300	0.532600
C1701	C170	0.435600	0.489500	0.480420
C1711	C171	0.445600	0.490100	0.425290
H1151	H115	0.534100	0.504800	0.412700
C1721	C172	0.327500	0.469600	0.388820
H1161	H116	0.339200	0.469600	0.352400
C1731	C173	0.001700	0.190300	0.547410
C1741	C174	0.874300	0.229000	0.568440
C1751	C175	0.749900	0.195200	0.584850
H1171	H117	0.743900	0.148100	0.582000
C1761	C176	0.636500	0.230400	0.605100
H1181	H118	0.553200	0.207100	0.614900
C1771	C177	0.644400	0.300300	0.611110
C1781	C178	0.765100	0.333400	0.592720
H1191	H119	0.769700	0.380500	0.594600
C1791	C179	0.878200	0.298800	0.571910
H1201	H120	0.958200	0.322600	0.560000
C1801	C180	0.527300	0.337900	0.636770
C1811	C181	0.378100	0.337700	0.616900
H1211	H121	0.347200	0.313000	0.586100
C1821	C182	0.273300	0.374000	0.642300
H1221	H122	0.173100	0.373800	0.628100
C1831	C183	0.315000	0.409900	0.687500
H1231	H123	0.243900	0.435100	0.703400
C1841	C184	0.462300	0.409300	0.710250
C1851	C185	0.568000	0.374600	0.683950
H1241	H124	0.668200	0.375700	0.698000
C1861	C186	0.508500	0.444800	0.761660
C1871	C187	0.449200	0.504300	0.774500
H1251	H125	0.375300	0.523800	0.750500
C1881	C188	0.493600	0.537900	0.822200
H1261	H126	0.452500	0.580100	0.828700
C1891	C189	0.658200	0.449200	0.847300
H1271	H127	0.730700	0.429700	0.871800
C1901	C190	0.615800	0.416300	0.799700
H1281	H128	0.658900	0.374700	0.792800
C1911	C191	0.596000	0.510100	0.859300
C1921	C192	0.650700	0.546100	0.909600
N101	N10	0.073600	0.427500	0.368760
N111	N11	0.400300	0.183720	0.487390
N121	N12	0.845800	0.587620	0.056500
O131	O13	0.111100	0.219800	0.534630
O141	O14	0.991100	0.128300	0.543000
O151	O15	0.653000	0.608200	0.909300
O161	O16	0.715400	0.519400	0.946700
Zn41	Zn4	0.226430	0.128310	0.517770
