data_OMITUB_clean_PM
_symmetry_space_group_name_H-M	'P1'
_cell_length_a	44.614000
_cell_length_b	44.614000
_cell_length_c	44.614000
_cell_angle_alpha	90.000000
_cell_angle_beta	90.000000
_cell_angle_gamma	90.000000
_symmetry_Int_Tables_number 1

loop_
_symmetry_equiv_pos_as_xyz
'x,y,z'

loop_
_atom_site_label
_atom_site_type_symbol
_atom_site_fract_x
_atom_site_fract_y
_atom_site_fract_z
O11	O1	0.143470	0.186870	0.969120
O21	O2	0.107980	0.151370	0.969150
N11	N1	0.145070	0.292640	0.875180
C11	C1	0.119950	0.174850	0.959130
N21	N2	0.140860	0.270170	0.893850
C21	C2	0.104980	0.189760	0.933170
C31	C3	0.116380	0.216070	0.921330
H11	H1	0.132600	0.225400	0.930600
O31	O3	0.143470	0.686870	0.469120
O41	O4	0.107980	0.651370	0.469150
N31	N3	0.145070	0.792640	0.375180
C41	C4	0.119950	0.674850	0.459130
N41	N4	0.140860	0.770170	0.393850
C51	C5	0.104980	0.689760	0.433170
C61	C6	0.116380	0.716070	0.421330
H21	H2	0.132600	0.725400	0.430600
O51	O5	0.643470	0.186870	0.469120
O61	O6	0.607980	0.151370	0.469150
N51	N5	0.645070	0.292640	0.375180
C71	C7	0.619950	0.174850	0.459130
N61	N6	0.640860	0.270170	0.393850
C81	C8	0.604980	0.189760	0.433170
C91	C9	0.616380	0.216070	0.421330
H31	H3	0.632600	0.225400	0.430600
O71	O7	0.643470	0.686870	0.969120
O81	O8	0.607980	0.651370	0.969150
N71	N7	0.645070	0.792640	0.875180
C101	C10	0.619950	0.674850	0.959130
N81	N8	0.640860	0.770170	0.893850
C111	C11	0.604980	0.689760	0.933170
C121	C12	0.616380	0.716070	0.921330
H41	H4	0.632600	0.725400	0.930600
O91	O9	0.856530	0.813130	0.969120
O101	O10	0.892020	0.848630	0.969150
N91	N9	0.854930	0.707360	0.875180
C131	C13	0.880050	0.825150	0.959130
N101	N10	0.859140	0.729830	0.893850
C141	C14	0.895020	0.810240	0.933170
C151	C15	0.883620	0.783930	0.921330
H51	H5	0.867400	0.774600	0.930600
O111	O11	0.856530	0.313130	0.469120
O121	O12	0.892020	0.348630	0.469150
N111	N11	0.854930	0.207360	0.375180
C161	C16	0.880050	0.325150	0.459130
N121	N12	0.859140	0.229830	0.393850
C171	C17	0.895020	0.310240	0.433170
C181	C18	0.883620	0.283930	0.421330
H61	H6	0.867400	0.274600	0.430600
O131	O13	0.356530	0.813130	0.469120
O141	O14	0.392020	0.848630	0.469150
N131	N13	0.354930	0.707360	0.375180
C191	C19	0.380050	0.825150	0.459130
N141	N14	0.359140	0.729830	0.393850
C201	C20	0.395020	0.810240	0.433170
C211	C21	0.383620	0.783930	0.421330
H71	H7	0.367400	0.774600	0.430600
O151	O15	0.356530	0.313130	0.969120
O161	O16	0.392020	0.348630	0.969150
N151	N15	0.354930	0.207360	0.875180
C221	C22	0.380050	0.325150	0.959130
N161	N16	0.359140	0.229830	0.893850
C231	C23	0.395020	0.310240	0.933170
C241	C24	0.383620	0.283930	0.921330
H81	H8	0.367400	0.274600	0.930600
O171	O17	0.856530	0.186870	0.030880
O181	O18	0.892020	0.151370	0.030850
N171	N17	0.854930	0.292640	0.124820
C251	C25	0.880050	0.174850	0.040870
N181	N18	0.859140	0.270170	0.106150
C261	C26	0.895020	0.189760	0.066830
C271	C27	0.883620	0.216070	0.078670
H91	H9	0.867400	0.225400	0.069400
O191	O19	0.856530	0.686870	0.530880
O201	O20	0.892020	0.651370	0.530850
N191	N19	0.854930	0.792640	0.624820
C281	C28	0.880050	0.674850	0.540870
N201	N20	0.859140	0.770170	0.606150
C291	C29	0.895020	0.689760	0.566830
C301	C30	0.883620	0.716070	0.578670
H101	H10	0.867400	0.725400	0.569400
O211	O21	0.356530	0.186870	0.530880
O221	O22	0.392020	0.151370	0.530850
N211	N21	0.354930	0.292640	0.624820
C311	C31	0.380050	0.174850	0.540870
N221	N22	0.359140	0.270170	0.606150
C321	C32	0.395020	0.189760	0.566830
C331	C33	0.383620	0.216070	0.578670
H111	H11	0.367400	0.225400	0.569400
O231	O23	0.356530	0.686870	0.030880
O241	O24	0.392020	0.651370	0.030850
N231	N23	0.354930	0.792640	0.124820
C341	C34	0.380050	0.674850	0.040870
N241	N24	0.359140	0.770170	0.106150
C351	C35	0.395020	0.689760	0.066830
C361	C36	0.383620	0.716070	0.078670
H121	H12	0.367400	0.725400	0.069400
O251	O25	0.143470	0.813130	0.030880
O261	O26	0.107980	0.848630	0.030850
N251	N25	0.145070	0.707360	0.124820
C371	C37	0.119950	0.825150	0.040870
N261	N26	0.140860	0.729830	0.106150
C381	C38	0.104980	0.810240	0.066830
C391	C39	0.116380	0.783930	0.078670
H131	H13	0.132600	0.774600	0.069400
O271	O27	0.143470	0.313130	0.530880
O281	O28	0.107980	0.348630	0.530850
N271	N27	0.145070	0.207360	0.624820
C401	C40	0.119950	0.325150	0.540870
N281	N28	0.140860	0.229830	0.606150
C411	C41	0.104980	0.310240	0.566830
C421	C42	0.116380	0.283930	0.578670
H141	H14	0.132600	0.274600	0.569400
O291	O29	0.643470	0.813130	0.530880
O301	O30	0.607980	0.848630	0.530850
N291	N29	0.645070	0.707360	0.624820
C431	C43	0.619950	0.825150	0.540870
N301	N30	0.640860	0.729830	0.606150
C441	C44	0.604980	0.810240	0.566830
C451	C45	0.616380	0.783930	0.578670
H151	H15	0.632600	0.774600	0.569400
O311	O31	0.643470	0.313130	0.030880
O321	O32	0.607980	0.348630	0.030850
N311	N31	0.645070	0.207360	0.124820
C461	C46	0.619950	0.325150	0.040870
N321	N32	0.640860	0.229830	0.106150
C471	C47	0.604980	0.310240	0.066830
C481	C48	0.616380	0.283930	0.078670
H161	H16	0.632600	0.274600	0.069400
O331	O33	0.969120	0.143470	0.186870
O341	O34	0.969150	0.107980	0.151370
N331	N33	0.875180	0.145070	0.292640
C491	C49	0.959130	0.119950	0.174850
N341	N34	0.893850	0.140860	0.270170
C501	C50	0.933170	0.104980	0.189760
C511	C51	0.921330	0.116380	0.216070
H171	H17	0.930600	0.132600	0.225400
O351	O35	0.969120	0.643470	0.686870
O361	O36	0.969150	0.607980	0.651370
N351	N35	0.875180	0.645070	0.792640
C521	C52	0.959130	0.619950	0.674850
N361	N36	0.893850	0.640860	0.770170
C531	C53	0.933170	0.604980	0.689760
C541	C54	0.921330	0.616380	0.716070
H181	H18	0.930600	0.632600	0.725400
O371	O37	0.469120	0.143470	0.686870
O381	O38	0.469150	0.107980	0.651370
N371	N37	0.375180	0.145070	0.792640
C551	C55	0.459130	0.119950	0.674850
N381	N38	0.393850	0.140860	0.770170
C561	C56	0.433170	0.104980	0.689760
C571	C57	0.421330	0.116380	0.716070
H191	H19	0.430600	0.132600	0.725400
O391	O39	0.469120	0.643470	0.186870
O401	O40	0.469150	0.607980	0.151370
N391	N39	0.375180	0.645070	0.292640
C581	C58	0.459130	0.619950	0.174850
N401	N40	0.393850	0.640860	0.270170
C591	C59	0.433170	0.604980	0.189760
C601	C60	0.421330	0.616380	0.216070
H201	H20	0.430600	0.632600	0.225400
O411	O41	0.969120	0.856530	0.813130
O421	O42	0.969150	0.892020	0.848630
N411	N41	0.875180	0.854930	0.707360
C611	C61	0.959130	0.880050	0.825150
N421	N42	0.893850	0.859140	0.729830
C621	C62	0.933170	0.895020	0.810240
C631	C63	0.921330	0.883620	0.783930
H211	H21	0.930600	0.867400	0.774600
O431	O43	0.969120	0.356530	0.313130
O441	O44	0.969150	0.392020	0.348630
N431	N43	0.875180	0.354930	0.207360
C641	C64	0.959130	0.380050	0.325150
N441	N44	0.893850	0.359140	0.229830
C651	C65	0.933170	0.395020	0.310240
C661	C66	0.921330	0.383620	0.283930
H221	H22	0.930600	0.367400	0.274600
O451	O45	0.469120	0.856530	0.313130
O461	O46	0.469150	0.892020	0.348630
N451	N45	0.375180	0.854930	0.207360
C671	C67	0.459130	0.880050	0.325150
N461	N46	0.393850	0.859140	0.229830
C681	C68	0.433170	0.895020	0.310240
C691	C69	0.421330	0.883620	0.283930
H231	H23	0.430600	0.867400	0.274600
O471	O47	0.469120	0.356530	0.813130
O481	O48	0.469150	0.392020	0.848630
N471	N47	0.375180	0.354930	0.707360
C701	C70	0.459130	0.380050	0.825150
N481	N48	0.393850	0.359140	0.729830
C711	C71	0.433170	0.395020	0.810240
C721	C72	0.421330	0.383620	0.783930
H241	H24	0.430600	0.367400	0.774600
O491	O49	0.030880	0.856530	0.186870
O501	O50	0.030850	0.892020	0.151370
N491	N49	0.124820	0.854930	0.292640
C731	C73	0.040870	0.880050	0.174850
N501	N50	0.106150	0.859140	0.270170
C741	C74	0.066830	0.895020	0.189760
C751	C75	0.078670	0.883620	0.216070
H251	H25	0.069400	0.867400	0.225400
O511	O51	0.030880	0.356530	0.686870
O521	O52	0.030850	0.392020	0.651370
N511	N51	0.124820	0.354930	0.792640
C761	C76	0.040870	0.380050	0.674850
N521	N52	0.106150	0.359140	0.770170
C771	C77	0.066830	0.395020	0.689760
C781	C78	0.078670	0.383620	0.716070
H261	H26	0.069400	0.367400	0.725400
O531	O53	0.530880	0.856530	0.686870
O541	O54	0.530850	0.892020	0.651370
N531	N53	0.624820	0.854930	0.792640
C791	C79	0.540870	0.880050	0.674850
N541	N54	0.606150	0.859140	0.770170
C801	C80	0.566830	0.895020	0.689760
C811	C81	0.578670	0.883620	0.716070
H271	H27	0.569400	0.867400	0.725400
O551	O55	0.530880	0.356530	0.186870
O561	O56	0.530850	0.392020	0.151370
N551	N55	0.624820	0.354930	0.292640
C821	C82	0.540870	0.380050	0.174850
N561	N56	0.606150	0.359140	0.270170
C831	C83	0.566830	0.395020	0.189760
C841	C84	0.578670	0.383620	0.216070
H281	H28	0.569400	0.367400	0.225400
O571	O57	0.030880	0.143470	0.813130
O581	O58	0.030850	0.107980	0.848630
N571	N57	0.124820	0.145070	0.707360
C851	C85	0.040870	0.119950	0.825150
N581	N58	0.106150	0.140860	0.729830
C861	C86	0.066830	0.104980	0.810240
C871	C87	0.078670	0.116380	0.783930
H291	H29	0.069400	0.132600	0.774600
O591	O59	0.030880	0.643470	0.313130
O601	O60	0.030850	0.607980	0.348630
N591	N59	0.124820	0.645070	0.207360
C881	C88	0.040870	0.619950	0.325150
N601	N60	0.106150	0.640860	0.229830
C891	C89	0.066830	0.604980	0.310240
C901	C90	0.078670	0.616380	0.283930
H301	H30	0.069400	0.632600	0.274600
O611	O61	0.530880	0.143470	0.313130
O621	O62	0.530850	0.107980	0.348630
N611	N61	0.624820	0.145070	0.207360
C911	C91	0.540870	0.119950	0.325150
N621	N62	0.606150	0.140860	0.229830
C921	C92	0.566830	0.104980	0.310240
C931	C93	0.578670	0.116380	0.283930
H311	H31	0.569400	0.132600	0.274600
O631	O63	0.530880	0.643470	0.813130
O641	O64	0.530850	0.607980	0.848630
N631	N63	0.624820	0.645070	0.707360
C941	C94	0.540870	0.619950	0.825150
N641	N64	0.606150	0.640860	0.729830
C951	C95	0.566830	0.604980	0.810240
C961	C96	0.578670	0.616380	0.783930
H321	H32	0.569400	0.632600	0.774600
O651	O65	0.186870	0.969120	0.143470
O661	O66	0.151370	0.969150	0.107980
N651	N65	0.292640	0.875180	0.145070
C971	C97	0.174850	0.959130	0.119950
N661	N66	0.270170	0.893850	0.140860
C981	C98	0.189760	0.933170	0.104980
C991	C99	0.216070	0.921330	0.116380
H331	H33	0.225400	0.930600	0.132600
O671	O67	0.186870	0.469120	0.643470
O681	O68	0.151370	0.469150	0.607980
N671	N67	0.292640	0.375180	0.645070
C1001	C100	0.174850	0.459130	0.619950
N681	N68	0.270170	0.393850	0.640860
C1011	C101	0.189760	0.433170	0.604980
C1021	C102	0.216070	0.421330	0.616380
H341	H34	0.225400	0.430600	0.632600
O691	O69	0.686870	0.969120	0.643470
O701	O70	0.651370	0.969150	0.607980
N691	N69	0.792640	0.875180	0.645070
C1031	C103	0.674850	0.959130	0.619950
N701	N70	0.770170	0.893850	0.640860
C1041	C104	0.689760	0.933170	0.604980
C1051	C105	0.716070	0.921330	0.616380
H351	H35	0.725400	0.930600	0.632600
O711	O71	0.686870	0.469120	0.143470
O721	O72	0.651370	0.469150	0.107980
N711	N71	0.792640	0.375180	0.145070
C1061	C106	0.674850	0.459130	0.119950
N721	N72	0.770170	0.393850	0.140860
C1071	C107	0.689760	0.433170	0.104980
C1081	C108	0.716070	0.421330	0.116380
H361	H36	0.725400	0.430600	0.132600
O731	O73	0.813130	0.969120	0.856530
O741	O74	0.848630	0.969150	0.892020
N731	N73	0.707360	0.875180	0.854930
C1091	C109	0.825150	0.959130	0.880050
N741	N74	0.729830	0.893850	0.859140
C1101	C110	0.810240	0.933170	0.895020
C1111	C111	0.783930	0.921330	0.883620
H371	H37	0.774600	0.930600	0.867400
O751	O75	0.813130	0.469120	0.356530
O761	O76	0.848630	0.469150	0.392020
N751	N75	0.707360	0.375180	0.354930
C1121	C112	0.825150	0.459130	0.380050
N761	N76	0.729830	0.393850	0.359140
C1131	C113	0.810240	0.433170	0.395020
C1141	C114	0.783930	0.421330	0.383620
H381	H38	0.774600	0.430600	0.367400
O771	O77	0.313130	0.969120	0.356530
O781	O78	0.348630	0.969150	0.392020
N771	N77	0.207360	0.875180	0.354930
C1151	C115	0.325150	0.959130	0.380050
N781	N78	0.229830	0.893850	0.359140
C1161	C116	0.310240	0.933170	0.395020
C1171	C117	0.283930	0.921330	0.383620
H391	H39	0.274600	0.930600	0.367400
O791	O79	0.313130	0.469120	0.856530
O801	O80	0.348630	0.469150	0.892020
N791	N79	0.207360	0.375180	0.854930
C1181	C118	0.325150	0.459130	0.880050
N801	N80	0.229830	0.393850	0.859140
C1191	C119	0.310240	0.433170	0.895020
C1201	C120	0.283930	0.421330	0.883620
H401	H40	0.274600	0.430600	0.867400
O811	O81	0.186870	0.030880	0.856530
O821	O82	0.151370	0.030850	0.892020
N811	N81	0.292640	0.124820	0.854930
C1211	C121	0.174850	0.040870	0.880050
N821	N82	0.270170	0.106150	0.859140
C1221	C122	0.189760	0.066830	0.895020
C1231	C123	0.216070	0.078670	0.883620
H411	H41	0.225400	0.069400	0.867400
O831	O83	0.186870	0.530880	0.356530
O841	O84	0.151370	0.530850	0.392020
N831	N83	0.292640	0.624820	0.354930
C1241	C124	0.174850	0.540870	0.380050
N841	N84	0.270170	0.606150	0.359140
C1251	C125	0.189760	0.566830	0.395020
C1261	C126	0.216070	0.578670	0.383620
H421	H42	0.225400	0.569400	0.367400
O851	O85	0.686870	0.030880	0.356530
O861	O86	0.651370	0.030850	0.392020
N851	N85	0.792640	0.124820	0.354930
C1271	C127	0.674850	0.040870	0.380050
N861	N86	0.770170	0.106150	0.359140
C1281	C128	0.689760	0.066830	0.395020
C1291	C129	0.716070	0.078670	0.383620
H431	H43	0.725400	0.069400	0.367400
O871	O87	0.686870	0.530880	0.856530
O881	O88	0.651370	0.530850	0.892020
N871	N87	0.792640	0.624820	0.854930
C1301	C130	0.674850	0.540870	0.880050
N881	N88	0.770170	0.606150	0.859140
C1311	C131	0.689760	0.566830	0.895020
C1321	C132	0.716070	0.578670	0.883620
H441	H44	0.725400	0.569400	0.867400
O891	O89	0.813130	0.030880	0.143470
O901	O90	0.848630	0.030850	0.107980
N891	N89	0.707360	0.124820	0.145070
C1331	C133	0.825150	0.040870	0.119950
N901	N90	0.729830	0.106150	0.140860
C1341	C134	0.810240	0.066830	0.104980
C1351	C135	0.783930	0.078670	0.116380
H451	H45	0.774600	0.069400	0.132600
O911	O91	0.813130	0.530880	0.643470
O921	O92	0.848630	0.530850	0.607980
N911	N91	0.707360	0.624820	0.645070
C1361	C136	0.825150	0.540870	0.619950
N921	N92	0.729830	0.606150	0.640860
C1371	C137	0.810240	0.566830	0.604980
C1381	C138	0.783930	0.578670	0.616380
H461	H46	0.774600	0.569400	0.632600
O931	O93	0.313130	0.030880	0.643470
O941	O94	0.348630	0.030850	0.607980
N931	N93	0.207360	0.124820	0.645070
C1391	C139	0.325150	0.040870	0.619950
N941	N94	0.229830	0.106150	0.640860
C1401	C140	0.310240	0.066830	0.604980
C1411	C141	0.283930	0.078670	0.616380
H471	H47	0.274600	0.069400	0.632600
O951	O95	0.313130	0.530880	0.143470
O961	O96	0.348630	0.530850	0.107980
N951	N95	0.207360	0.624820	0.145070
C1421	C142	0.325150	0.540870	0.119950
N961	N96	0.229830	0.606150	0.140860
C1431	C143	0.310240	0.566830	0.104980
C1441	C144	0.283930	0.578670	0.116380
H481	H48	0.274600	0.569400	0.132600
O971	O97	0.186870	0.143470	0.030880
O981	O98	0.151370	0.107980	0.030850
N971	N97	0.292640	0.145070	0.124820
C1451	C145	0.174850	0.119950	0.040870
N981	N98	0.270170	0.140860	0.106150
C1461	C146	0.189760	0.104980	0.066830
C1471	C147	0.216070	0.116380	0.078670
H491	H49	0.225400	0.132600	0.069400
O991	O99	0.186870	0.643470	0.530880
O1001	O100	0.151370	0.607980	0.530850
N991	N99	0.292640	0.645070	0.624820
C1481	C148	0.174850	0.619950	0.540870
N1001	N100	0.270170	0.640860	0.606150
C1491	C149	0.189760	0.604980	0.566830
C1501	C150	0.216070	0.616380	0.578670
H501	H50	0.225400	0.632600	0.569400
O1011	O101	0.686870	0.143470	0.530880
O1021	O102	0.651370	0.107980	0.530850
N1011	N101	0.792640	0.145070	0.624820
C1511	C151	0.674850	0.119950	0.540870
N1021	N102	0.770170	0.140860	0.606150
C1521	C152	0.689760	0.104980	0.566830
C1531	C153	0.716070	0.116380	0.578670
H511	H51	0.725400	0.132600	0.569400
O1031	O103	0.686870	0.643470	0.030880
O1041	O104	0.651370	0.607980	0.030850
N1031	N103	0.792640	0.645070	0.124820
C1541	C154	0.674850	0.619950	0.040870
N1041	N104	0.770170	0.640860	0.106150
C1551	C155	0.689760	0.604980	0.066830
C1561	C156	0.716070	0.616380	0.078670
H521	H52	0.725400	0.632600	0.069400
O1051	O105	0.813130	0.856530	0.030880
O1061	O106	0.848630	0.892020	0.030850
N1051	N105	0.707360	0.854930	0.124820
C1571	C157	0.825150	0.880050	0.040870
N1061	N106	0.729830	0.859140	0.106150
C1581	C158	0.810240	0.895020	0.066830
C1591	C159	0.783930	0.883620	0.078670
H531	H53	0.774600	0.867400	0.069400
O1071	O107	0.813130	0.356530	0.530880
O1081	O108	0.848630	0.392020	0.530850
N1071	N107	0.707360	0.354930	0.624820
C1601	C160	0.825150	0.380050	0.540870
N1081	N108	0.729830	0.359140	0.606150
C1611	C161	0.810240	0.395020	0.566830
C1621	C162	0.783930	0.383620	0.578670
H541	H54	0.774600	0.367400	0.569400
O1091	O109	0.313130	0.856530	0.530880
O1101	O110	0.348630	0.892020	0.530850
N1091	N109	0.207360	0.854930	0.624820
C1631	C163	0.325150	0.880050	0.540870
N1101	N110	0.229830	0.859140	0.606150
C1641	C164	0.310240	0.895020	0.566830
C1651	C165	0.283930	0.883620	0.578670
H551	H55	0.274600	0.867400	0.569400
O1111	O111	0.313130	0.356530	0.030880
O1121	O112	0.348630	0.392020	0.030850
N1111	N111	0.207360	0.354930	0.124820
C1661	C166	0.325150	0.380050	0.040870
N1121	N112	0.229830	0.359140	0.106150
C1671	C167	0.310240	0.395020	0.066830
C1681	C168	0.283930	0.383620	0.078670
H561	H56	0.274600	0.367400	0.069400
O1131	O113	0.186870	0.856530	0.969120
O1141	O114	0.151370	0.892020	0.969150
N1131	N113	0.292640	0.854930	0.875180
C1691	C169	0.174850	0.880050	0.959130
N1141	N114	0.270170	0.859140	0.893850
C1701	C170	0.189760	0.895020	0.933170
C1711	C171	0.216070	0.883620	0.921330
H571	H57	0.225400	0.867400	0.930600
O1151	O115	0.186870	0.356530	0.469120
O1161	O116	0.151370	0.392020	0.469150
N1151	N115	0.292640	0.354930	0.375180
C1721	C172	0.174850	0.380050	0.459130
N1161	N116	0.270170	0.359140	0.393850
C1731	C173	0.189760	0.395020	0.433170
C1741	C174	0.216070	0.383620	0.421330
H581	H58	0.225400	0.367400	0.430600
O1171	O117	0.686870	0.856530	0.469120
O1181	O118	0.651370	0.892020	0.469150
N1171	N117	0.792640	0.854930	0.375180
C1751	C175	0.674850	0.880050	0.459130
N1181	N118	0.770170	0.859140	0.393850
C1761	C176	0.689760	0.895020	0.433170
C1771	C177	0.716070	0.883620	0.421330
H591	H59	0.725400	0.867400	0.430600
O1191	O119	0.686870	0.356530	0.969120
O1201	O120	0.651370	0.392020	0.969150
N1191	N119	0.792640	0.354930	0.875180
C1781	C178	0.674850	0.380050	0.959130
N1201	N120	0.770170	0.359140	0.893850
C1791	C179	0.689760	0.395020	0.933170
C1801	C180	0.716070	0.383620	0.921330
H601	H60	0.725400	0.367400	0.930600
O1211	O121	0.813130	0.143470	0.969120
O1221	O122	0.848630	0.107980	0.969150
N1211	N121	0.707360	0.145070	0.875180
C1811	C181	0.825150	0.119950	0.959130
N1221	N122	0.729830	0.140860	0.893850
C1821	C182	0.810240	0.104980	0.933170
C1831	C183	0.783930	0.116380	0.921330
H611	H61	0.774600	0.132600	0.930600
O1231	O123	0.813130	0.643470	0.469120
O1241	O124	0.848630	0.607980	0.469150
N1231	N123	0.707360	0.645070	0.375180
C1841	C184	0.825150	0.619950	0.459130
N1241	N124	0.729830	0.640860	0.393850
C1851	C185	0.810240	0.604980	0.433170
C1861	C186	0.783930	0.616380	0.421330
H621	H62	0.774600	0.632600	0.430600
O1251	O125	0.313130	0.143470	0.469120
O1261	O126	0.348630	0.107980	0.469150
N1251	N125	0.207360	0.145070	0.375180
C1871	C187	0.325150	0.119950	0.459130
N1261	N126	0.229830	0.140860	0.393850
C1881	C188	0.310240	0.104980	0.433170
C1891	C189	0.283930	0.116380	0.421330
H631	H63	0.274600	0.132600	0.430600
O1271	O127	0.313130	0.643470	0.969120
O1281	O128	0.348630	0.607980	0.969150
N1271	N127	0.207360	0.645070	0.875180
C1901	C190	0.325150	0.619950	0.959130
N1281	N128	0.229830	0.640860	0.893850
C1911	C191	0.310240	0.604980	0.933170
C1921	C192	0.283930	0.616380	0.921330
H641	H64	0.274600	0.632600	0.930600
O1291	O129	0.143470	0.969120	0.813130
O1301	O130	0.107980	0.969150	0.848630
N1291	N129	0.145070	0.875180	0.707360
C1931	C193	0.119950	0.959130	0.825150
N1301	N130	0.140860	0.893850	0.729830
C1941	C194	0.104980	0.933170	0.810240
C1951	C195	0.116380	0.921330	0.783930
H651	H65	0.132600	0.930600	0.774600
O1311	O131	0.143470	0.469120	0.313130
O1321	O132	0.107980	0.469150	0.348630
N1311	N131	0.145070	0.375180	0.207360
C1961	C196	0.119950	0.459130	0.325150
N1321	N132	0.140860	0.393850	0.229830
C1971	C197	0.104980	0.433170	0.310240
C1981	C198	0.116380	0.421330	0.283930
H661	H66	0.132600	0.430600	0.274600
O1331	O133	0.643470	0.969120	0.313130
O1341	O134	0.607980	0.969150	0.348630
N1331	N133	0.645070	0.875180	0.207360
C1991	C199	0.619950	0.959130	0.325150
N1341	N134	0.640860	0.893850	0.229830
C2001	C200	0.604980	0.933170	0.310240
C2011	C201	0.616380	0.921330	0.283930
H671	H67	0.632600	0.930600	0.274600
O1351	O135	0.643470	0.469120	0.813130
O1361	O136	0.607980	0.469150	0.848630
N1351	N135	0.645070	0.375180	0.707360
C2021	C202	0.619950	0.459130	0.825150
N1361	N136	0.640860	0.393850	0.729830
C2031	C203	0.604980	0.433170	0.810240
C2041	C204	0.616380	0.421330	0.783930
H681	H68	0.632600	0.430600	0.774600
O1371	O137	0.856530	0.969120	0.186870
O1381	O138	0.892020	0.969150	0.151370
N1371	N137	0.854930	0.875180	0.292640
C2051	C205	0.880050	0.959130	0.174850
N1381	N138	0.859140	0.893850	0.270170
C2061	C206	0.895020	0.933170	0.189760
C2071	C207	0.883620	0.921330	0.216070
H691	H69	0.867400	0.930600	0.225400
O1391	O139	0.856530	0.469120	0.686870
O1401	O140	0.892020	0.469150	0.651370
N1391	N139	0.854930	0.375180	0.792640
C2081	C208	0.880050	0.459130	0.674850
N1401	N140	0.859140	0.393850	0.770170
C2091	C209	0.895020	0.433170	0.689760
C2101	C210	0.883620	0.421330	0.716070
H701	H70	0.867400	0.430600	0.725400
O1411	O141	0.356530	0.969120	0.686870
O1421	O142	0.392020	0.969150	0.651370
N1411	N141	0.354930	0.875180	0.792640
C2111	C211	0.380050	0.959130	0.674850
N1421	N142	0.359140	0.893850	0.770170
C2121	C212	0.395020	0.933170	0.689760
C2131	C213	0.383620	0.921330	0.716070
H711	H71	0.367400	0.930600	0.725400
O1431	O143	0.356530	0.469120	0.186870
O1441	O144	0.392020	0.469150	0.151370
N1431	N143	0.354930	0.375180	0.292640
C2141	C214	0.380050	0.459130	0.174850
N1441	N144	0.359140	0.393850	0.270170
C2151	C215	0.395020	0.433170	0.189760
C2161	C216	0.383620	0.421330	0.216070
H721	H72	0.367400	0.430600	0.225400
O1451	O145	0.856530	0.030880	0.813130
O1461	O146	0.892020	0.030850	0.848630
N1451	N145	0.854930	0.124820	0.707360
C2171	C217	0.880050	0.040870	0.825150
N1461	N146	0.859140	0.106150	0.729830
C2181	C218	0.895020	0.066830	0.810240
C2191	C219	0.883620	0.078670	0.783930
H731	H73	0.867400	0.069400	0.774600
O1471	O147	0.856530	0.530880	0.313130
O1481	O148	0.892020	0.530850	0.348630
N1471	N147	0.854930	0.624820	0.207360
C2201	C220	0.880050	0.540870	0.325150
N1481	N148	0.859140	0.606150	0.229830
C2211	C221	0.895020	0.566830	0.310240
C2221	C222	0.883620	0.578670	0.283930
H741	H74	0.867400	0.569400	0.274600
O1491	O149	0.356530	0.030880	0.313130
O1501	O150	0.392020	0.030850	0.348630
N1491	N149	0.354930	0.124820	0.207360
C2231	C223	0.380050	0.040870	0.325150
N1501	N150	0.359140	0.106150	0.229830
C2241	C224	0.395020	0.066830	0.310240
C2251	C225	0.383620	0.078670	0.283930
H751	H75	0.367400	0.069400	0.274600
O1511	O151	0.356530	0.530880	0.813130
O1521	O152	0.392020	0.530850	0.848630
N1511	N151	0.354930	0.624820	0.707360
C2261	C226	0.380050	0.540870	0.825150
N1521	N152	0.359140	0.606150	0.729830
C2271	C227	0.395020	0.566830	0.810240
C2281	C228	0.383620	0.578670	0.783930
H761	H76	0.367400	0.569400	0.774600
O1531	O153	0.143470	0.030880	0.186870
O1541	O154	0.107980	0.030850	0.151370
N1531	N153	0.145070	0.124820	0.292640
C2291	C229	0.119950	0.040870	0.174850
N1541	N154	0.140860	0.106150	0.270170
C2301	C230	0.104980	0.066830	0.189760
C2311	C231	0.116380	0.078670	0.216070
H771	H77	0.132600	0.069400	0.225400
O1551	O155	0.143470	0.530880	0.686870
O1561	O156	0.107980	0.530850	0.651370
N1551	N155	0.145070	0.624820	0.792640
C2321	C232	0.119950	0.540870	0.674850
N1561	N156	0.140860	0.606150	0.770170
C2331	C233	0.104980	0.566830	0.689760
C2341	C234	0.116380	0.578670	0.716070
H781	H78	0.132600	0.569400	0.725400
O1571	O157	0.643470	0.030880	0.686870
O1581	O158	0.607980	0.030850	0.651370
N1571	N157	0.645070	0.124820	0.792640
C2351	C235	0.619950	0.040870	0.674850
N1581	N158	0.640860	0.106150	0.770170
C2361	C236	0.604980	0.066830	0.689760
C2371	C237	0.616380	0.078670	0.716070
H791	H79	0.632600	0.069400	0.725400
O1591	O159	0.643470	0.530880	0.186870
O1601	O160	0.607980	0.530850	0.151370
N1591	N159	0.645070	0.624820	0.292640
C2381	C238	0.619950	0.540870	0.174850
N1601	N160	0.640860	0.606150	0.270170
C2391	C239	0.604980	0.566830	0.189760
C2401	C240	0.616380	0.578670	0.216070
H801	H80	0.632600	0.569400	0.225400
O1611	O161	0.969120	0.186870	0.856530
O1621	O162	0.969150	0.151370	0.892020
N1611	N161	0.875180	0.292640	0.854930
C2411	C241	0.959130	0.174850	0.880050
N1621	N162	0.893850	0.270170	0.859140
C2421	C242	0.933170	0.189760	0.895020
C2431	C243	0.921330	0.216070	0.883620
H811	H81	0.930600	0.225400	0.867400
O1631	O163	0.969120	0.686870	0.356530
O1641	O164	0.969150	0.651370	0.392020
N1631	N163	0.875180	0.792640	0.354930
C2441	C244	0.959130	0.674850	0.380050
N1641	N164	0.893850	0.770170	0.359140
C2451	C245	0.933170	0.689760	0.395020
C2461	C246	0.921330	0.716070	0.383620
H821	H82	0.930600	0.725400	0.367400
O1651	O165	0.469120	0.186870	0.356530
O1661	O166	0.469150	0.151370	0.392020
N1651	N165	0.375180	0.292640	0.354930
C2471	C247	0.459130	0.174850	0.380050
N1661	N166	0.393850	0.270170	0.359140
C2481	C248	0.433170	0.189760	0.395020
C2491	C249	0.421330	0.216070	0.383620
H831	H83	0.430600	0.225400	0.367400
O1671	O167	0.469120	0.686870	0.856530
O1681	O168	0.469150	0.651370	0.892020
N1671	N167	0.375180	0.792640	0.854930
C2501	C250	0.459130	0.674850	0.880050
N1681	N168	0.393850	0.770170	0.859140
C2511	C251	0.433170	0.689760	0.895020
C2521	C252	0.421330	0.716070	0.883620
H841	H84	0.430600	0.725400	0.867400
O1691	O169	0.969120	0.813130	0.143470
O1701	O170	0.969150	0.848630	0.107980
N1691	N169	0.875180	0.707360	0.145070
C2531	C253	0.959130	0.825150	0.119950
N1701	N170	0.893850	0.729830	0.140860
C2541	C254	0.933170	0.810240	0.104980
C2551	C255	0.921330	0.783930	0.116380
H851	H85	0.930600	0.774600	0.132600
O1711	O171	0.969120	0.313130	0.643470
O1721	O172	0.969150	0.348630	0.607980
N1711	N171	0.875180	0.207360	0.645070
C2561	C256	0.959130	0.325150	0.619950
N1721	N172	0.893850	0.229830	0.640860
C2571	C257	0.933170	0.310240	0.604980
C2581	C258	0.921330	0.283930	0.616380
H861	H86	0.930600	0.274600	0.632600
O1731	O173	0.469120	0.813130	0.643470
O1741	O174	0.469150	0.848630	0.607980
N1731	N173	0.375180	0.707360	0.645070
C2591	C259	0.459130	0.825150	0.619950
N1741	N174	0.393850	0.729830	0.640860
C2601	C260	0.433170	0.810240	0.604980
C2611	C261	0.421330	0.783930	0.616380
H871	H87	0.430600	0.774600	0.632600
O1751	O175	0.469120	0.313130	0.143470
O1761	O176	0.469150	0.348630	0.107980
N1751	N175	0.375180	0.207360	0.145070
C2621	C262	0.459130	0.325150	0.119950
N1761	N176	0.393850	0.229830	0.140860
C2631	C263	0.433170	0.310240	0.104980
C2641	C264	0.421330	0.283930	0.116380
H881	H88	0.430600	0.274600	0.132600
O1771	O177	0.030880	0.186870	0.143470
O1781	O178	0.030850	0.151370	0.107980
N1771	N177	0.124820	0.292640	0.145070
C2651	C265	0.040870	0.174850	0.119950
N1781	N178	0.106150	0.270170	0.140860
C2661	C266	0.066830	0.189760	0.104980
C2671	C267	0.078670	0.216070	0.116380
H891	H89	0.069400	0.225400	0.132600
O1791	O179	0.030880	0.686870	0.643470
O1801	O180	0.030850	0.651370	0.607980
N1791	N179	0.124820	0.792640	0.645070
C2681	C268	0.040870	0.674850	0.619950
N1801	N180	0.106150	0.770170	0.640860
C2691	C269	0.066830	0.689760	0.604980
C2701	C270	0.078670	0.716070	0.616380
H901	H90	0.069400	0.725400	0.632600
O1811	O181	0.530880	0.186870	0.643470
O1821	O182	0.530850	0.151370	0.607980
N1811	N181	0.624820	0.292640	0.645070
C2711	C271	0.540870	0.174850	0.619950
N1821	N182	0.606150	0.270170	0.640860
C2721	C272	0.566830	0.189760	0.604980
C2731	C273	0.578670	0.216070	0.616380
H911	H91	0.569400	0.225400	0.632600
O1831	O183	0.530880	0.686870	0.143470
O1841	O184	0.530850	0.651370	0.107980
N1831	N183	0.624820	0.792640	0.145070
C2741	C274	0.540870	0.674850	0.119950
N1841	N184	0.606150	0.770170	0.140860
C2751	C275	0.566830	0.689760	0.104980
C2761	C276	0.578670	0.716070	0.116380
H921	H92	0.569400	0.725400	0.132600
O1851	O185	0.030880	0.813130	0.856530
O1861	O186	0.030850	0.848630	0.892020
N1851	N185	0.124820	0.707360	0.854930
C2771	C277	0.040870	0.825150	0.880050
N1861	N186	0.106150	0.729830	0.859140
C2781	C278	0.066830	0.810240	0.895020
C2791	C279	0.078670	0.783930	0.883620
H931	H93	0.069400	0.774600	0.867400
O1871	O187	0.030880	0.313130	0.356530
O1881	O188	0.030850	0.348630	0.392020
N1871	N187	0.124820	0.207360	0.354930
C2801	C280	0.040870	0.325150	0.380050
N1881	N188	0.106150	0.229830	0.359140
C2811	C281	0.066830	0.310240	0.395020
C2821	C282	0.078670	0.283930	0.383620
H941	H94	0.069400	0.274600	0.367400
O1891	O189	0.530880	0.813130	0.356530
O1901	O190	0.530850	0.848630	0.392020
N1891	N189	0.624820	0.707360	0.354930
C2831	C283	0.540870	0.825150	0.380050
N1901	N190	0.606150	0.729830	0.359140
C2841	C284	0.566830	0.810240	0.395020
C2851	C285	0.578670	0.783930	0.383620
H951	H95	0.569400	0.774600	0.367400
O1911	O191	0.530880	0.313130	0.856530
O1921	O192	0.530850	0.348630	0.892020
N1911	N191	0.624820	0.207360	0.854930
C2861	C286	0.540870	0.325150	0.880050
N1921	N192	0.606150	0.229830	0.859140
C2871	C287	0.566830	0.310240	0.895020
C2881	C288	0.578670	0.283930	0.883620
H961	H96	0.569400	0.274600	0.867400
O1931	O193	0.856530	0.813130	0.030880
O1941	O194	0.892020	0.848630	0.030850
N1931	N193	0.854930	0.707360	0.124820
C2891	C289	0.880050	0.825150	0.040870
N1941	N194	0.859140	0.729830	0.106150
C2901	C290	0.895020	0.810240	0.066830
C2911	C291	0.883620	0.783930	0.078670
H971	H97	0.867400	0.774600	0.069400
O1951	O195	0.856530	0.313130	0.530880
O1961	O196	0.892020	0.348630	0.530850
N1951	N195	0.854930	0.207360	0.624820
C2921	C292	0.880050	0.325150	0.540870
N1961	N196	0.859140	0.229830	0.606150
C2931	C293	0.895020	0.310240	0.566830
C2941	C294	0.883620	0.283930	0.578670
H981	H98	0.867400	0.274600	0.569400
O1971	O197	0.356530	0.813130	0.530880
O1981	O198	0.392020	0.848630	0.530850
N1971	N197	0.354930	0.707360	0.624820
C2951	C295	0.380050	0.825150	0.540870
N1981	N198	0.359140	0.729830	0.606150
C2961	C296	0.395020	0.810240	0.566830
C2971	C297	0.383620	0.783930	0.578670
H991	H99	0.367400	0.774600	0.569400
O1991	O199	0.356530	0.313130	0.030880
O2001	O200	0.392020	0.348630	0.030850
N1991	N199	0.354930	0.207360	0.124820
C2981	C298	0.380050	0.325150	0.040870
N2001	N200	0.359140	0.229830	0.106150
C2991	C299	0.395020	0.310240	0.066830
C3001	C300	0.383620	0.283930	0.078670
H1001	H100	0.367400	0.274600	0.069400
O2011	O201	0.143470	0.186870	0.030880
O2021	O202	0.107980	0.151370	0.030850
N2011	N201	0.145070	0.292640	0.124820
C3011	C301	0.119950	0.174850	0.040870
N2021	N202	0.140860	0.270170	0.106150
C3021	C302	0.104980	0.189760	0.066830
C3031	C303	0.116380	0.216070	0.078670
H1011	H101	0.132600	0.225400	0.069400
O2031	O203	0.143470	0.686870	0.530880
O2041	O204	0.107980	0.651370	0.530850
N2031	N203	0.145070	0.792640	0.624820
C3041	C304	0.119950	0.674850	0.540870
N2041	N204	0.140860	0.770170	0.606150
C3051	C305	0.104980	0.689760	0.566830
C3061	C306	0.116380	0.716070	0.578670
H1021	H102	0.132600	0.725400	0.569400
O2051	O205	0.643470	0.186870	0.530880
O2061	O206	0.607980	0.151370	0.530850
N2051	N205	0.645070	0.292640	0.624820
C3071	C307	0.619950	0.174850	0.540870
N2061	N206	0.640860	0.270170	0.606150
C3081	C308	0.604980	0.189760	0.566830
C3091	C309	0.616380	0.216070	0.578670
H1031	H103	0.632600	0.225400	0.569400
O2071	O207	0.643470	0.686870	0.030880
O2081	O208	0.607980	0.651370	0.030850
N2071	N207	0.645070	0.792640	0.124820
C3101	C310	0.619950	0.674850	0.040870
N2081	N208	0.640860	0.770170	0.106150
C3111	C311	0.604980	0.689760	0.066830
C3121	C312	0.616380	0.716070	0.078670
H1041	H104	0.632600	0.725400	0.069400
O2091	O209	0.143470	0.813130	0.969120
O2101	O210	0.107980	0.848630	0.969150
N2091	N209	0.145070	0.707360	0.875180
C3131	C313	0.119950	0.825150	0.959130
N2101	N210	0.140860	0.729830	0.893850
C3141	C314	0.104980	0.810240	0.933170
C3151	C315	0.116380	0.783930	0.921330
H1051	H105	0.132600	0.774600	0.930600
O2111	O211	0.143470	0.313130	0.469120
O2121	O212	0.107980	0.348630	0.469150
N2111	N211	0.145070	0.207360	0.375180
C3161	C316	0.119950	0.325150	0.459130
N2121	N212	0.140860	0.229830	0.393850
C3171	C317	0.104980	0.310240	0.433170
C3181	C318	0.116380	0.283930	0.421330
H1061	H106	0.132600	0.274600	0.430600
O2131	O213	0.643470	0.813130	0.469120
O2141	O214	0.607980	0.848630	0.469150
N2131	N213	0.645070	0.707360	0.375180
C3191	C319	0.619950	0.825150	0.459130
N2141	N214	0.640860	0.729830	0.393850
C3201	C320	0.604980	0.810240	0.433170
C3211	C321	0.616380	0.783930	0.421330
H1071	H107	0.632600	0.774600	0.430600
O2151	O215	0.643470	0.313130	0.969120
O2161	O216	0.607980	0.348630	0.969150
N2151	N215	0.645070	0.207360	0.875180
C3221	C322	0.619950	0.325150	0.959130
N2161	N216	0.640860	0.229830	0.893850
C3231	C323	0.604980	0.310240	0.933170
C3241	C324	0.616380	0.283930	0.921330
H1081	H108	0.632600	0.274600	0.930600
O2171	O217	0.856530	0.186870	0.969120
O2181	O218	0.892020	0.151370	0.969150
N2171	N217	0.854930	0.292640	0.875180
C3251	C325	0.880050	0.174850	0.959130
N2181	N218	0.859140	0.270170	0.893850
C3261	C326	0.895020	0.189760	0.933170
C3271	C327	0.883620	0.216070	0.921330
H1091	H109	0.867400	0.225400	0.930600
O2191	O219	0.856530	0.686870	0.469120
O2201	O220	0.892020	0.651370	0.469150
N2191	N219	0.854930	0.792640	0.375180
C3281	C328	0.880050	0.674850	0.459130
N2201	N220	0.859140	0.770170	0.393850
C3291	C329	0.895020	0.689760	0.433170
C3301	C330	0.883620	0.716070	0.421330
H1101	H110	0.867400	0.725400	0.430600
O2211	O221	0.356530	0.186870	0.469120
O2221	O222	0.392020	0.151370	0.469150
N2211	N221	0.354930	0.292640	0.375180
C3311	C331	0.380050	0.174850	0.459130
N2221	N222	0.359140	0.270170	0.393850
C3321	C332	0.395020	0.189760	0.433170
C3331	C333	0.383620	0.216070	0.421330
H1111	H111	0.367400	0.225400	0.430600
O2231	O223	0.356530	0.686870	0.969120
O2241	O224	0.392020	0.651370	0.969150
N2231	N223	0.354930	0.792640	0.875180
C3341	C334	0.380050	0.674850	0.959130
N2241	N224	0.359140	0.770170	0.893850
C3351	C335	0.395020	0.689760	0.933170
C3361	C336	0.383620	0.716070	0.921330
H1121	H112	0.367400	0.725400	0.930600
O2251	O225	0.030880	0.856530	0.813130
O2261	O226	0.030850	0.892020	0.848630
N2251	N225	0.124820	0.854930	0.707360
C3371	C337	0.040870	0.880050	0.825150
N2261	N226	0.106150	0.859140	0.729830
C3381	C338	0.066830	0.895020	0.810240
C3391	C339	0.078670	0.883620	0.783930
H1131	H113	0.069400	0.867400	0.774600
O2271	O227	0.030880	0.356530	0.313130
O2281	O228	0.030850	0.392020	0.348630
N2271	N227	0.124820	0.354930	0.207360
C3401	C340	0.040870	0.380050	0.325150
N2281	N228	0.106150	0.359140	0.229830
C3411	C341	0.066830	0.395020	0.310240
C3421	C342	0.078670	0.383620	0.283930
H1141	H114	0.069400	0.367400	0.274600
O2291	O229	0.530880	0.856530	0.313130
O2301	O230	0.530850	0.892020	0.348630
N2291	N229	0.624820	0.854930	0.207360
C3431	C343	0.540870	0.880050	0.325150
N2301	N230	0.606150	0.859140	0.229830
C3441	C344	0.566830	0.895020	0.310240
C3451	C345	0.578670	0.883620	0.283930
H1151	H115	0.569400	0.867400	0.274600
O2311	O231	0.530880	0.356530	0.813130
O2321	O232	0.530850	0.392020	0.848630
N2311	N231	0.624820	0.354930	0.707360
C3461	C346	0.540870	0.380050	0.825150
N2321	N232	0.606150	0.359140	0.729830
C3471	C347	0.566830	0.395020	0.810240
C3481	C348	0.578670	0.383620	0.783930
H1161	H116	0.569400	0.367400	0.774600
O2331	O233	0.030880	0.143470	0.186870
O2341	O234	0.030850	0.107980	0.151370
N2331	N233	0.124820	0.145070	0.292640
C3491	C349	0.040870	0.119950	0.174850
N2341	N234	0.106150	0.140860	0.270170
C3501	C350	0.066830	0.104980	0.189760
C3511	C351	0.078670	0.116380	0.216070
H1171	H117	0.069400	0.132600	0.225400
O2351	O235	0.030880	0.643470	0.686870
O2361	O236	0.030850	0.607980	0.651370
N2351	N235	0.124820	0.645070	0.792640
C3521	C352	0.040870	0.619950	0.674850
N2361	N236	0.106150	0.640860	0.770170
C3531	C353	0.066830	0.604980	0.689760
C3541	C354	0.078670	0.616380	0.716070
H1181	H118	0.069400	0.632600	0.725400
O2371	O237	0.530880	0.143470	0.686870
O2381	O238	0.530850	0.107980	0.651370
N2371	N237	0.624820	0.145070	0.792640
C3551	C355	0.540870	0.119950	0.674850
N2381	N238	0.606150	0.140860	0.770170
C3561	C356	0.566830	0.104980	0.689760
C3571	C357	0.578670	0.116380	0.716070
H1191	H119	0.569400	0.132600	0.725400
O2391	O239	0.530880	0.643470	0.186870
O2401	O240	0.530850	0.607980	0.151370
N2391	N239	0.624820	0.645070	0.292640
C3581	C358	0.540870	0.619950	0.174850
N2401	N240	0.606150	0.640860	0.270170
C3591	C359	0.566830	0.604980	0.189760
C3601	C360	0.578670	0.616380	0.216070
H1201	H120	0.569400	0.632600	0.225400
O2411	O241	0.969120	0.143470	0.813130
O2421	O242	0.969150	0.107980	0.848630
N2411	N241	0.875180	0.145070	0.707360
C3611	C361	0.959130	0.119950	0.825150
N2421	N242	0.893850	0.140860	0.729830
C3621	C362	0.933170	0.104980	0.810240
C3631	C363	0.921330	0.116380	0.783930
H1211	H121	0.930600	0.132600	0.774600
O2431	O243	0.969120	0.643470	0.313130
O2441	O244	0.969150	0.607980	0.348630
N2431	N243	0.875180	0.645070	0.207360
C3641	C364	0.959130	0.619950	0.325150
N2441	N244	0.893850	0.640860	0.229830
C3651	C365	0.933170	0.604980	0.310240
C3661	C366	0.921330	0.616380	0.283930
H1221	H122	0.930600	0.632600	0.274600
O2451	O245	0.469120	0.143470	0.313130
O2461	O246	0.469150	0.107980	0.348630
N2451	N245	0.375180	0.145070	0.207360
C3671	C367	0.459130	0.119950	0.325150
N2461	N246	0.393850	0.140860	0.229830
C3681	C368	0.433170	0.104980	0.310240
C3691	C369	0.421330	0.116380	0.283930
H1231	H123	0.430600	0.132600	0.274600
O2471	O247	0.469120	0.643470	0.813130
O2481	O248	0.469150	0.607980	0.848630
N2471	N247	0.375180	0.645070	0.707360
C3701	C370	0.459130	0.619950	0.825150
N2481	N248	0.393850	0.640860	0.729830
C3711	C371	0.433170	0.604980	0.810240
C3721	C372	0.421330	0.616380	0.783930
H1241	H124	0.430600	0.632600	0.774600
O2491	O249	0.969120	0.856530	0.186870
O2501	O250	0.969150	0.892020	0.151370
N2491	N249	0.875180	0.854930	0.292640
C3731	C373	0.959130	0.880050	0.174850
N2501	N250	0.893850	0.859140	0.270170
C3741	C374	0.933170	0.895020	0.189760
C3751	C375	0.921330	0.883620	0.216070
H1251	H125	0.930600	0.867400	0.225400
O2511	O251	0.969120	0.356530	0.686870
O2521	O252	0.969150	0.392020	0.651370
N2511	N251	0.875180	0.354930	0.792640
C3761	C376	0.959130	0.380050	0.674850
N2521	N252	0.893850	0.359140	0.770170
C3771	C377	0.933170	0.395020	0.689760
C3781	C378	0.921330	0.383620	0.716070
H1261	H126	0.930600	0.367400	0.725400
O2531	O253	0.469120	0.856530	0.686870
O2541	O254	0.469150	0.892020	0.651370
N2531	N253	0.375180	0.854930	0.792640
C3791	C379	0.459130	0.880050	0.674850
N2541	N254	0.393850	0.859140	0.770170
C3801	C380	0.433170	0.895020	0.689760
C3811	C381	0.421330	0.883620	0.716070
H1271	H127	0.430600	0.867400	0.725400
O2551	O255	0.469120	0.356530	0.186870
O2561	O256	0.469150	0.392020	0.151370
N2551	N255	0.375180	0.354930	0.292640
C3821	C382	0.459130	0.380050	0.174850
N2561	N256	0.393850	0.359140	0.270170
C3831	C383	0.433170	0.395020	0.189760
C3841	C384	0.421330	0.383620	0.216070
H1281	H128	0.430600	0.367400	0.225400
O2571	O257	0.813130	0.030880	0.856530
O2581	O258	0.848630	0.030850	0.892020
N2571	N257	0.707360	0.124820	0.854930
C3851	C385	0.825150	0.040870	0.880050
N2581	N258	0.729830	0.106150	0.859140
C3861	C386	0.810240	0.066830	0.895020
C3871	C387	0.783930	0.078670	0.883620
H1291	H129	0.774600	0.069400	0.867400
O2591	O259	0.813130	0.530880	0.356530
O2601	O260	0.848630	0.530850	0.392020
N2591	N259	0.707360	0.624820	0.354930
C3881	C388	0.825150	0.540870	0.380050
N2601	N260	0.729830	0.606150	0.359140
C3891	C389	0.810240	0.566830	0.395020
C3901	C390	0.783930	0.578670	0.383620
H1301	H130	0.774600	0.569400	0.367400
O2611	O261	0.313130	0.030880	0.356530
O2621	O262	0.348630	0.030850	0.392020
N2611	N261	0.207360	0.124820	0.354930
C3911	C391	0.325150	0.040870	0.380050
N2621	N262	0.229830	0.106150	0.359140
C3921	C392	0.310240	0.066830	0.395020
C3931	C393	0.283930	0.078670	0.383620
H1311	H131	0.274600	0.069400	0.367400
O2631	O263	0.313130	0.530880	0.856530
O2641	O264	0.348630	0.530850	0.892020
N2631	N263	0.207360	0.624820	0.854930
C3941	C394	0.325150	0.540870	0.880050
N2641	N264	0.229830	0.606150	0.859140
C3951	C395	0.310240	0.566830	0.895020
C3961	C396	0.283930	0.578670	0.883620
H1321	H132	0.274600	0.569400	0.867400
O2651	O265	0.186870	0.030880	0.143470
O2661	O266	0.151370	0.030850	0.107980
N2651	N265	0.292640	0.124820	0.145070
C3971	C397	0.174850	0.040870	0.119950
N2661	N266	0.270170	0.106150	0.140860
C3981	C398	0.189760	0.066830	0.104980
C3991	C399	0.216070	0.078670	0.116380
H1331	H133	0.225400	0.069400	0.132600
O2671	O267	0.186870	0.530880	0.643470
O2681	O268	0.151370	0.530850	0.607980
N2671	N267	0.292640	0.624820	0.645070
C4001	C400	0.174850	0.540870	0.619950
N2681	N268	0.270170	0.606150	0.640860
C4011	C401	0.189760	0.566830	0.604980
C4021	C402	0.216070	0.578670	0.616380
H1341	H134	0.225400	0.569400	0.632600
O2691	O269	0.686870	0.030880	0.643470
O2701	O270	0.651370	0.030850	0.607980
N2691	N269	0.792640	0.124820	0.645070
C4031	C403	0.674850	0.040870	0.619950
N2701	N270	0.770170	0.106150	0.640860
C4041	C404	0.689760	0.066830	0.604980
C4051	C405	0.716070	0.078670	0.616380
H1351	H135	0.725400	0.069400	0.632600
O2711	O271	0.686870	0.530880	0.143470
O2721	O272	0.651370	0.530850	0.107980
N2711	N271	0.792640	0.624820	0.145070
C4061	C406	0.674850	0.540870	0.119950
N2721	N272	0.770170	0.606150	0.140860
C4071	C407	0.689760	0.566830	0.104980
C4081	C408	0.716070	0.578670	0.116380
H1361	H136	0.725400	0.569400	0.132600
O2731	O273	0.813130	0.969120	0.143470
O2741	O274	0.848630	0.969150	0.107980
N2731	N273	0.707360	0.875180	0.145070
C4091	C409	0.825150	0.959130	0.119950
N2741	N274	0.729830	0.893850	0.140860
C4101	C410	0.810240	0.933170	0.104980
C4111	C411	0.783930	0.921330	0.116380
H1371	H137	0.774600	0.930600	0.132600
O2751	O275	0.813130	0.469120	0.643470
O2761	O276	0.848630	0.469150	0.607980
N2751	N275	0.707360	0.375180	0.645070
C4121	C412	0.825150	0.459130	0.619950
N2761	N276	0.729830	0.393850	0.640860
C4131	C413	0.810240	0.433170	0.604980
C4141	C414	0.783930	0.421330	0.616380
H1381	H138	0.774600	0.430600	0.632600
O2771	O277	0.313130	0.969120	0.643470
O2781	O278	0.348630	0.969150	0.607980
N2771	N277	0.207360	0.875180	0.645070
C4151	C415	0.325150	0.959130	0.619950
N2781	N278	0.229830	0.893850	0.640860
C4161	C416	0.310240	0.933170	0.604980
C4171	C417	0.283930	0.921330	0.616380
H1391	H139	0.274600	0.930600	0.632600
O2791	O279	0.313130	0.469120	0.143470
O2801	O280	0.348630	0.469150	0.107980
N2791	N279	0.207360	0.375180	0.145070
C4181	C418	0.325150	0.459130	0.119950
N2801	N280	0.229830	0.393850	0.140860
C4191	C419	0.310240	0.433170	0.104980
C4201	C420	0.283930	0.421330	0.116380
H1401	H140	0.274600	0.430600	0.132600
O2811	O281	0.186870	0.969120	0.856530
O2821	O282	0.151370	0.969150	0.892020
N2811	N281	0.292640	0.875180	0.854930
C4211	C421	0.174850	0.959130	0.880050
N2821	N282	0.270170	0.893850	0.859140
C4221	C422	0.189760	0.933170	0.895020
C4231	C423	0.216070	0.921330	0.883620
H1411	H141	0.225400	0.930600	0.867400
O2831	O283	0.186870	0.469120	0.356530
O2841	O284	0.151370	0.469150	0.392020
N2831	N283	0.292640	0.375180	0.354930
C4241	C424	0.174850	0.459130	0.380050
N2841	N284	0.270170	0.393850	0.359140
C4251	C425	0.189760	0.433170	0.395020
C4261	C426	0.216070	0.421330	0.383620
H1421	H142	0.225400	0.430600	0.367400
O2851	O285	0.686870	0.969120	0.356530
O2861	O286	0.651370	0.969150	0.392020
N2851	N285	0.792640	0.875180	0.354930
C4271	C427	0.674850	0.959130	0.380050
N2861	N286	0.770170	0.893850	0.359140
C4281	C428	0.689760	0.933170	0.395020
C4291	C429	0.716070	0.921330	0.383620
H1431	H143	0.725400	0.930600	0.367400
O2871	O287	0.686870	0.469120	0.856530
O2881	O288	0.651370	0.469150	0.892020
N2871	N287	0.792640	0.375180	0.854930
C4301	C430	0.674850	0.459130	0.880050
N2881	N288	0.770170	0.393850	0.859140
C4311	C431	0.689760	0.433170	0.895020
C4321	C432	0.716070	0.421330	0.883620
H1441	H144	0.725400	0.430600	0.867400
O2891	O289	0.813130	0.856530	0.969120
O2901	O290	0.848630	0.892020	0.969150
N2891	N289	0.707360	0.854930	0.875180
C4331	C433	0.825150	0.880050	0.959130
N2901	N290	0.729830	0.859140	0.893850
C4341	C434	0.810240	0.895020	0.933170
C4351	C435	0.783930	0.883620	0.921330
H1451	H145	0.774600	0.867400	0.930600
O2911	O291	0.813130	0.356530	0.469120
O2921	O292	0.848630	0.392020	0.469150
N2911	N291	0.707360	0.354930	0.375180
C4361	C436	0.825150	0.380050	0.459130
N2921	N292	0.729830	0.359140	0.393850
C4371	C437	0.810240	0.395020	0.433170
C4381	C438	0.783930	0.383620	0.421330
H1461	H146	0.774600	0.367400	0.430600
O2931	O293	0.313130	0.856530	0.469120
O2941	O294	0.348630	0.892020	0.469150
N2931	N293	0.207360	0.854930	0.375180
C4391	C439	0.325150	0.880050	0.459130
N2941	N294	0.229830	0.859140	0.393850
C4401	C440	0.310240	0.895020	0.433170
C4411	C441	0.283930	0.883620	0.421330
H1471	H147	0.274600	0.867400	0.430600
O2951	O295	0.313130	0.356530	0.969120
O2961	O296	0.348630	0.392020	0.969150
N2951	N295	0.207360	0.354930	0.875180
C4421	C442	0.325150	0.380050	0.959130
N2961	N296	0.229830	0.359140	0.893850
C4431	C443	0.310240	0.395020	0.933170
C4441	C444	0.283930	0.383620	0.921330
H1481	H148	0.274600	0.367400	0.930600
O2971	O297	0.186870	0.143470	0.969120
O2981	O298	0.151370	0.107980	0.969150
N2971	N297	0.292640	0.145070	0.875180
C4451	C445	0.174850	0.119950	0.959130
N2981	N298	0.270170	0.140860	0.893850
C4461	C446	0.189760	0.104980	0.933170
C4471	C447	0.216070	0.116380	0.921330
H1491	H149	0.225400	0.132600	0.930600
O2991	O299	0.186870	0.643470	0.469120
O3001	O300	0.151370	0.607980	0.469150
N2991	N299	0.292640	0.645070	0.375180
C4481	C448	0.174850	0.619950	0.459130
N3001	N300	0.270170	0.640860	0.393850
C4491	C449	0.189760	0.604980	0.433170
C4501	C450	0.216070	0.616380	0.421330
H1501	H150	0.225400	0.632600	0.430600
O3011	O301	0.686870	0.143470	0.469120
O3021	O302	0.651370	0.107980	0.469150
N3011	N301	0.792640	0.145070	0.375180
C4511	C451	0.674850	0.119950	0.459130
N3021	N302	0.770170	0.140860	0.393850
C4521	C452	0.689760	0.104980	0.433170
C4531	C453	0.716070	0.116380	0.421330
H1511	H151	0.725400	0.132600	0.430600
O3031	O303	0.686870	0.643470	0.969120
O3041	O304	0.651370	0.607980	0.969150
N3031	N303	0.792640	0.645070	0.875180
C4541	C454	0.674850	0.619950	0.959130
N3041	N304	0.770170	0.640860	0.893850
C4551	C455	0.689760	0.604980	0.933170
C4561	C456	0.716070	0.616380	0.921330
H1521	H152	0.725400	0.632600	0.930600
O3051	O305	0.813130	0.143470	0.030880
O3061	O306	0.848630	0.107980	0.030850
N3051	N305	0.707360	0.145070	0.124820
C4571	C457	0.825150	0.119950	0.040870
N3061	N306	0.729830	0.140860	0.106150
C4581	C458	0.810240	0.104980	0.066830
C4591	C459	0.783930	0.116380	0.078670
H1531	H153	0.774600	0.132600	0.069400
O3071	O307	0.813130	0.643470	0.530880
O3081	O308	0.848630	0.607980	0.530850
N3071	N307	0.707360	0.645070	0.624820
C4601	C460	0.825150	0.619950	0.540870
N3081	N308	0.729830	0.640860	0.606150
C4611	C461	0.810240	0.604980	0.566830
C4621	C462	0.783930	0.616380	0.578670
H1541	H154	0.774600	0.632600	0.569400
O3091	O309	0.313130	0.143470	0.530880
O3101	O310	0.348630	0.107980	0.530850
N3091	N309	0.207360	0.145070	0.624820
C4631	C463	0.325150	0.119950	0.540870
N3101	N310	0.229830	0.140860	0.606150
C4641	C464	0.310240	0.104980	0.566830
C4651	C465	0.283930	0.116380	0.578670
H1551	H155	0.274600	0.132600	0.569400
O3111	O311	0.313130	0.643470	0.030880
O3121	O312	0.348630	0.607980	0.030850
N3111	N311	0.207360	0.645070	0.124820
C4661	C466	0.325150	0.619950	0.040870
N3121	N312	0.229830	0.640860	0.106150
C4671	C467	0.310240	0.604980	0.066830
C4681	C468	0.283930	0.616380	0.078670
H1561	H156	0.274600	0.632600	0.069400
O3131	O313	0.186870	0.856530	0.030880
O3141	O314	0.151370	0.892020	0.030850
N3131	N313	0.292640	0.854930	0.124820
C4691	C469	0.174850	0.880050	0.040870
N3141	N314	0.270170	0.859140	0.106150
C4701	C470	0.189760	0.895020	0.066830
C4711	C471	0.216070	0.883620	0.078670
H1571	H157	0.225400	0.867400	0.069400
O3151	O315	0.186870	0.356530	0.530880
O3161	O316	0.151370	0.392020	0.530850
N3151	N315	0.292640	0.354930	0.624820
C4721	C472	0.174850	0.380050	0.540870
N3161	N316	0.270170	0.359140	0.606150
C4731	C473	0.189760	0.395020	0.566830
C4741	C474	0.216070	0.383620	0.578670
H1581	H158	0.225400	0.367400	0.569400
O3171	O317	0.686870	0.856530	0.530880
O3181	O318	0.651370	0.892020	0.530850
N3171	N317	0.792640	0.854930	0.624820
C4751	C475	0.674850	0.880050	0.540870
N3181	N318	0.770170	0.859140	0.606150
C4761	C476	0.689760	0.895020	0.566830
C4771	C477	0.716070	0.883620	0.578670
H1591	H159	0.725400	0.867400	0.569400
O3191	O319	0.686870	0.356530	0.030880
O3201	O320	0.651370	0.392020	0.030850
N3191	N319	0.792640	0.354930	0.124820
C4781	C478	0.674850	0.380050	0.040870
N3201	N320	0.770170	0.359140	0.106150
C4791	C479	0.689760	0.395020	0.066830
C4801	C480	0.716070	0.383620	0.078670
H1601	H160	0.725400	0.367400	0.069400
O3211	O321	0.856530	0.030880	0.186870
O3221	O322	0.892020	0.030850	0.151370
N3211	N321	0.854930	0.124820	0.292640
C4811	C481	0.880050	0.040870	0.174850
N3221	N322	0.859140	0.106150	0.270170
C4821	C482	0.895020	0.066830	0.189760
C4831	C483	0.883620	0.078670	0.216070
H1611	H161	0.867400	0.069400	0.225400
O3231	O323	0.856530	0.530880	0.686870
O3241	O324	0.892020	0.530850	0.651370
N3231	N323	0.854930	0.624820	0.792640
C4841	C484	0.880050	0.540870	0.674850
N3241	N324	0.859140	0.606150	0.770170
C4851	C485	0.895020	0.566830	0.689760
C4861	C486	0.883620	0.578670	0.716070
H1621	H162	0.867400	0.569400	0.725400
O3251	O325	0.356530	0.030880	0.686870
O3261	O326	0.392020	0.030850	0.651370
N3251	N325	0.354930	0.124820	0.792640
C4871	C487	0.380050	0.040870	0.674850
N3261	N326	0.359140	0.106150	0.770170
C4881	C488	0.395020	0.066830	0.689760
C4891	C489	0.383620	0.078670	0.716070
H1631	H163	0.367400	0.069400	0.725400
O3271	O327	0.356530	0.530880	0.186870
O3281	O328	0.392020	0.530850	0.151370
N3271	N327	0.354930	0.624820	0.292640
C4901	C490	0.380050	0.540870	0.174850
N3281	N328	0.359140	0.606150	0.270170
C4911	C491	0.395020	0.566830	0.189760
C4921	C492	0.383620	0.578670	0.216070
H1641	H164	0.367400	0.569400	0.225400
O3291	O329	0.143470	0.030880	0.813130
O3301	O330	0.107980	0.030850	0.848630
N3291	N329	0.145070	0.124820	0.707360
C4931	C493	0.119950	0.040870	0.825150
N3301	N330	0.140860	0.106150	0.729830
C4941	C494	0.104980	0.066830	0.810240
C4951	C495	0.116380	0.078670	0.783930
H1651	H165	0.132600	0.069400	0.774600
O3311	O331	0.143470	0.530880	0.313130
O3321	O332	0.107980	0.530850	0.348630
N3311	N331	0.145070	0.624820	0.207360
C4961	C496	0.119950	0.540870	0.325150
N3321	N332	0.140860	0.606150	0.229830
C4971	C497	0.104980	0.566830	0.310240
C4981	C498	0.116380	0.578670	0.283930
H1661	H166	0.132600	0.569400	0.274600
O3331	O333	0.643470	0.030880	0.313130
O3341	O334	0.607980	0.030850	0.348630
N3331	N333	0.645070	0.124820	0.207360
C4991	C499	0.619950	0.040870	0.325150
N3341	N334	0.640860	0.106150	0.229830
C5001	C500	0.604980	0.066830	0.310240
C5011	C501	0.616380	0.078670	0.283930
H1671	H167	0.632600	0.069400	0.274600
O3351	O335	0.643470	0.530880	0.813130
O3361	O336	0.607980	0.530850	0.848630
N3351	N335	0.645070	0.624820	0.707360
C5021	C502	0.619950	0.540870	0.825150
N3361	N336	0.640860	0.606150	0.729830
C5031	C503	0.604980	0.566830	0.810240
C5041	C504	0.616380	0.578670	0.783930
H1681	H168	0.632600	0.569400	0.774600
O3371	O337	0.143470	0.969120	0.186870
O3381	O338	0.107980	0.969150	0.151370
N3371	N337	0.145070	0.875180	0.292640
C5051	C505	0.119950	0.959130	0.174850
N3381	N338	0.140860	0.893850	0.270170
C5061	C506	0.104980	0.933170	0.189760
C5071	C507	0.116380	0.921330	0.216070
H1691	H169	0.132600	0.930600	0.225400
O3391	O339	0.143470	0.469120	0.686870
O3401	O340	0.107980	0.469150	0.651370
N3391	N339	0.145070	0.375180	0.792640
C5081	C508	0.119950	0.459130	0.674850
N3401	N340	0.140860	0.393850	0.770170
C5091	C509	0.104980	0.433170	0.689760
C5101	C510	0.116380	0.421330	0.716070
H1701	H170	0.132600	0.430600	0.725400
O3411	O341	0.643470	0.969120	0.686870
O3421	O342	0.607980	0.969150	0.651370
N3411	N341	0.645070	0.875180	0.792640
C5111	C511	0.619950	0.959130	0.674850
N3421	N342	0.640860	0.893850	0.770170
C5121	C512	0.604980	0.933170	0.689760
C5131	C513	0.616380	0.921330	0.716070
H1711	H171	0.632600	0.930600	0.725400
O3431	O343	0.643470	0.469120	0.186870
O3441	O344	0.607980	0.469150	0.151370
N3431	N343	0.645070	0.375180	0.292640
C5141	C514	0.619950	0.459130	0.174850
N3441	N344	0.640860	0.393850	0.270170
C5151	C515	0.604980	0.433170	0.189760
C5161	C516	0.616380	0.421330	0.216070
H1721	H172	0.632600	0.430600	0.225400
O3451	O345	0.856530	0.969120	0.813130
O3461	O346	0.892020	0.969150	0.848630
N3451	N345	0.854930	0.875180	0.707360
C5171	C517	0.880050	0.959130	0.825150
N3461	N346	0.859140	0.893850	0.729830
C5181	C518	0.895020	0.933170	0.810240
C5191	C519	0.883620	0.921330	0.783930
H1731	H173	0.867400	0.930600	0.774600
O3471	O347	0.856530	0.469120	0.313130
O3481	O348	0.892020	0.469150	0.348630
N3471	N347	0.854930	0.375180	0.207360
C5201	C520	0.880050	0.459130	0.325150
N3481	N348	0.859140	0.393850	0.229830
C5211	C521	0.895020	0.433170	0.310240
C5221	C522	0.883620	0.421330	0.283930
H1741	H174	0.867400	0.430600	0.274600
O3491	O349	0.356530	0.969120	0.313130
O3501	O350	0.392020	0.969150	0.348630
N3491	N349	0.354930	0.875180	0.207360
C5231	C523	0.380050	0.959130	0.325150
N3501	N350	0.359140	0.893850	0.229830
C5241	C524	0.395020	0.933170	0.310240
C5251	C525	0.383620	0.921330	0.283930
H1751	H175	0.367400	0.930600	0.274600
O3511	O351	0.356530	0.469120	0.813130
O3521	O352	0.392020	0.469150	0.848630
N3511	N351	0.354930	0.375180	0.707360
C5261	C526	0.380050	0.459130	0.825150
N3521	N352	0.359140	0.393850	0.729830
C5271	C527	0.395020	0.433170	0.810240
C5281	C528	0.383620	0.421330	0.783930
H1761	H176	0.367400	0.430600	0.774600
O3531	O353	0.030880	0.813130	0.143470
O3541	O354	0.030850	0.848630	0.107980
N3531	N353	0.124820	0.707360	0.145070
C5291	C529	0.040870	0.825150	0.119950
N3541	N354	0.106150	0.729830	0.140860
C5301	C530	0.066830	0.810240	0.104980
C5311	C531	0.078670	0.783930	0.116380
H1771	H177	0.069400	0.774600	0.132600
O3551	O355	0.030880	0.313130	0.643470
O3561	O356	0.030850	0.348630	0.607980
N3551	N355	0.124820	0.207360	0.645070
C5321	C532	0.040870	0.325150	0.619950
N3561	N356	0.106150	0.229830	0.640860
C5331	C533	0.066830	0.310240	0.604980
C5341	C534	0.078670	0.283930	0.616380
H1781	H178	0.069400	0.274600	0.632600
O3571	O357	0.530880	0.813130	0.643470
O3581	O358	0.530850	0.848630	0.607980
N3571	N357	0.624820	0.707360	0.645070
C5351	C535	0.540870	0.825150	0.619950
N3581	N358	0.606150	0.729830	0.640860
C5361	C536	0.566830	0.810240	0.604980
C5371	C537	0.578670	0.783930	0.616380
H1791	H179	0.569400	0.774600	0.632600
O3591	O359	0.530880	0.313130	0.143470
O3601	O360	0.530850	0.348630	0.107980
N3591	N359	0.624820	0.207360	0.145070
C5381	C538	0.540870	0.325150	0.119950
N3601	N360	0.606150	0.229830	0.140860
C5391	C539	0.566830	0.310240	0.104980
C5401	C540	0.578670	0.283930	0.116380
H1801	H180	0.569400	0.274600	0.132600
O3611	O361	0.030880	0.186870	0.856530
O3621	O362	0.030850	0.151370	0.892020
N3611	N361	0.124820	0.292640	0.854930
C5411	C541	0.040870	0.174850	0.880050
N3621	N362	0.106150	0.270170	0.859140
C5421	C542	0.066830	0.189760	0.895020
C5431	C543	0.078670	0.216070	0.883620
H1811	H181	0.069400	0.225400	0.867400
O3631	O363	0.030880	0.686870	0.356530
O3641	O364	0.030850	0.651370	0.392020
N3631	N363	0.124820	0.792640	0.354930
C5441	C544	0.040870	0.674850	0.380050
N3641	N364	0.106150	0.770170	0.359140
C5451	C545	0.066830	0.689760	0.395020
C5461	C546	0.078670	0.716070	0.383620
H1821	H182	0.069400	0.725400	0.367400
O3651	O365	0.530880	0.186870	0.356530
O3661	O366	0.530850	0.151370	0.392020
N3651	N365	0.624820	0.292640	0.354930
C5471	C547	0.540870	0.174850	0.380050
N3661	N366	0.606150	0.270170	0.359140
C5481	C548	0.566830	0.189760	0.395020
C5491	C549	0.578670	0.216070	0.383620
H1831	H183	0.569400	0.225400	0.367400
O3671	O367	0.530880	0.686870	0.856530
O3681	O368	0.530850	0.651370	0.892020
N3671	N367	0.624820	0.792640	0.854930
C5501	C550	0.540870	0.674850	0.880050
N3681	N368	0.606150	0.770170	0.859140
C5511	C551	0.566830	0.689760	0.895020
C5521	C552	0.578670	0.716070	0.883620
H1841	H184	0.569400	0.725400	0.867400
O3691	O369	0.969120	0.813130	0.856530
O3701	O370	0.969150	0.848630	0.892020
N3691	N369	0.875180	0.707360	0.854930
C5531	C553	0.959130	0.825150	0.880050
N3701	N370	0.893850	0.729830	0.859140
C5541	C554	0.933170	0.810240	0.895020
C5551	C555	0.921330	0.783930	0.883620
H1851	H185	0.930600	0.774600	0.867400
O3711	O371	0.969120	0.313130	0.356530
O3721	O372	0.969150	0.348630	0.392020
N3711	N371	0.875180	0.207360	0.354930
C5561	C556	0.959130	0.325150	0.380050
N3721	N372	0.893850	0.229830	0.359140
C5571	C557	0.933170	0.310240	0.395020
C5581	C558	0.921330	0.283930	0.383620
H1861	H186	0.930600	0.274600	0.367400
O3731	O373	0.469120	0.813130	0.356530
O3741	O374	0.469150	0.848630	0.392020
N3731	N373	0.375180	0.707360	0.354930
C5591	C559	0.459130	0.825150	0.380050
N3741	N374	0.393850	0.729830	0.359140
C5601	C560	0.433170	0.810240	0.395020
C5611	C561	0.421330	0.783930	0.383620
H1871	H187	0.430600	0.774600	0.367400
O3751	O375	0.469120	0.313130	0.856530
O3761	O376	0.469150	0.348630	0.892020
N3751	N375	0.375180	0.207360	0.854930
C5621	C562	0.459130	0.325150	0.880050
N3761	N376	0.393850	0.229830	0.859140
C5631	C563	0.433170	0.310240	0.895020
C5641	C564	0.421330	0.283930	0.883620
H1881	H188	0.430600	0.274600	0.867400
O3771	O377	0.969120	0.186870	0.143470
O3781	O378	0.969150	0.151370	0.107980
N3771	N377	0.875180	0.292640	0.145070
C5651	C565	0.959130	0.174850	0.119950
N3781	N378	0.893850	0.270170	0.140860
C5661	C566	0.933170	0.189760	0.104980
C5671	C567	0.921330	0.216070	0.116380
H1891	H189	0.930600	0.225400	0.132600
O3791	O379	0.969120	0.686870	0.643470
O3801	O380	0.969150	0.651370	0.607980
N3791	N379	0.875180	0.792640	0.645070
C5681	C568	0.959130	0.674850	0.619950
N3801	N380	0.893850	0.770170	0.640860
C5691	C569	0.933170	0.689760	0.604980
C5701	C570	0.921330	0.716070	0.616380
H1901	H190	0.930600	0.725400	0.632600
O3811	O381	0.469120	0.186870	0.643470
O3821	O382	0.469150	0.151370	0.607980
N3811	N381	0.375180	0.292640	0.645070
C5711	C571	0.459130	0.174850	0.619950
N3821	N382	0.393850	0.270170	0.640860
C5721	C572	0.433170	0.189760	0.604980
C5731	C573	0.421330	0.216070	0.616380
H1911	H191	0.430600	0.225400	0.632600
O3831	O383	0.469120	0.686870	0.143470
O3841	O384	0.469150	0.651370	0.107980
N3831	N383	0.375180	0.792640	0.145070
C5741	C574	0.459130	0.674850	0.119950
N3841	N384	0.393850	0.770170	0.140860
C5751	C575	0.433170	0.689760	0.104980
C5761	C576	0.421330	0.716070	0.116380
H1921	H192	0.430600	0.725400	0.132600
Cu11	Cu1	0.168380	0.168380	0.000000
Cu21	Cu2	0.126470	0.126470	0.000000
Cu31	Cu3	0.168380	0.668380	0.500000
Cu41	Cu4	0.126470	0.626470	0.500000
Cu51	Cu5	0.668380	0.168380	0.500000
Cu61	Cu6	0.626470	0.126470	0.500000
Cu71	Cu7	0.668380	0.668380	0.000000
Cu81	Cu8	0.626470	0.626470	0.000000
Cu91	Cu9	0.831620	0.831620	0.000000
Cu101	Cu10	0.873530	0.873530	0.000000
Cu111	Cu11	0.831620	0.331620	0.500000
Cu121	Cu12	0.873530	0.373530	0.500000
Cu131	Cu13	0.331620	0.831620	0.500000
Cu141	Cu14	0.373530	0.873530	0.500000
Cu151	Cu15	0.331620	0.331620	0.000000
Cu161	Cu16	0.373530	0.373530	0.000000
Cu171	Cu17	0.831620	0.168380	0.000000
Cu181	Cu18	0.873530	0.126470	0.000000
Cu191	Cu19	0.831620	0.668380	0.500000
Cu201	Cu20	0.873530	0.626470	0.500000
Cu211	Cu21	0.331620	0.168380	0.500000
Cu221	Cu22	0.373530	0.126470	0.500000
Cu231	Cu23	0.331620	0.668380	0.000000
Cu241	Cu24	0.373530	0.626470	0.000000
Cu251	Cu25	0.168380	0.831620	0.000000
Cu261	Cu26	0.126470	0.873530	0.000000
Cu271	Cu27	0.168380	0.331620	0.500000
Cu281	Cu28	0.126470	0.373530	0.500000
Cu291	Cu29	0.668380	0.831620	0.500000
Cu301	Cu30	0.626470	0.873530	0.500000
Cu311	Cu31	0.668380	0.331620	0.000000
Cu321	Cu32	0.626470	0.373530	0.000000
Cu331	Cu33	0.000000	0.168380	0.168380
Cu341	Cu34	0.000000	0.126470	0.126470
Cu351	Cu35	0.000000	0.668380	0.668380
Cu361	Cu36	0.000000	0.626470	0.626470
Cu371	Cu37	0.500000	0.168380	0.668380
Cu381	Cu38	0.500000	0.126470	0.626470
Cu391	Cu39	0.500000	0.668380	0.168380
Cu401	Cu40	0.500000	0.626470	0.126470
Cu411	Cu41	0.000000	0.831620	0.831620
Cu421	Cu42	0.000000	0.873530	0.873530
Cu431	Cu43	0.000000	0.331620	0.331620
Cu441	Cu44	0.000000	0.373530	0.373530
Cu451	Cu45	0.500000	0.831620	0.331620
Cu461	Cu46	0.500000	0.873530	0.373530
Cu471	Cu47	0.500000	0.331620	0.831620
Cu481	Cu48	0.500000	0.373530	0.873530
Cu491	Cu49	0.000000	0.831620	0.168380
Cu501	Cu50	0.000000	0.873530	0.126470
Cu511	Cu51	0.000000	0.331620	0.668380
Cu521	Cu52	0.000000	0.373530	0.626470
Cu531	Cu53	0.500000	0.831620	0.668380
Cu541	Cu54	0.500000	0.873530	0.626470
Cu551	Cu55	0.500000	0.331620	0.168380
Cu561	Cu56	0.500000	0.373530	0.126470
Cu571	Cu57	0.000000	0.168380	0.831620
Cu581	Cu58	0.000000	0.126470	0.873530
Cu591	Cu59	0.000000	0.668380	0.331620
Cu601	Cu60	0.000000	0.626470	0.373530
Cu611	Cu61	0.500000	0.168380	0.331620
Cu621	Cu62	0.500000	0.126470	0.373530
Cu631	Cu63	0.500000	0.668380	0.831620
Cu641	Cu64	0.500000	0.626470	0.873530
Cu651	Cu65	0.168380	0.000000	0.168380
Cu661	Cu66	0.126470	0.000000	0.126470
Cu671	Cu67	0.168380	0.500000	0.668380
Cu681	Cu68	0.126470	0.500000	0.626470
Cu691	Cu69	0.668380	0.000000	0.668380
Cu701	Cu70	0.626470	0.000000	0.626470
Cu711	Cu71	0.668380	0.500000	0.168380
Cu721	Cu72	0.626470	0.500000	0.126470
Cu731	Cu73	0.831620	0.000000	0.831620
Cu741	Cu74	0.873530	0.000000	0.873530
Cu751	Cu75	0.831620	0.500000	0.331620
Cu761	Cu76	0.873530	0.500000	0.373530
Cu771	Cu77	0.331620	0.000000	0.331620
Cu781	Cu78	0.373530	0.000000	0.373530
Cu791	Cu79	0.331620	0.500000	0.831620
Cu801	Cu80	0.373530	0.500000	0.873530
Cu811	Cu81	0.168380	0.000000	0.831620
Cu821	Cu82	0.126470	0.000000	0.873530
Cu831	Cu83	0.168380	0.500000	0.331620
Cu841	Cu84	0.126470	0.500000	0.373530
Cu851	Cu85	0.668380	0.000000	0.331620
Cu861	Cu86	0.626470	0.000000	0.373530
Cu871	Cu87	0.668380	0.500000	0.831620
Cu881	Cu88	0.626470	0.500000	0.873530
Cu891	Cu89	0.831620	0.000000	0.168380
Cu901	Cu90	0.873530	0.000000	0.126470
Cu911	Cu91	0.831620	0.500000	0.668380
Cu921	Cu92	0.873530	0.500000	0.626470
Cu931	Cu93	0.331620	0.000000	0.668380
Cu941	Cu94	0.373530	0.000000	0.626470
Cu951	Cu95	0.331620	0.500000	0.168380
Cu961	Cu96	0.373530	0.500000	0.126470
Cu971	Cu97	0.176170	0.323830	0.877140
Cu981	Cu98	0.176170	0.823830	0.377140
Cu991	Cu99	0.823830	0.676170	0.877140
Cu1001	Cu100	0.823830	0.176170	0.377140
Cu1011	Cu101	0.323830	0.176170	0.877140
Cu1021	Cu102	0.823830	0.323830	0.122860
Cu1031	Cu103	0.823830	0.823830	0.622860
Cu1041	Cu104	0.323830	0.323830	0.622860
Cu1051	Cu105	0.176170	0.676170	0.122860
Cu1061	Cu106	0.176170	0.176170	0.622860
Cu1071	Cu107	0.877140	0.176170	0.323830
Cu1081	Cu108	0.377140	0.176170	0.823830
Cu1091	Cu109	0.877140	0.823830	0.676170
Cu1101	Cu110	0.877140	0.323830	0.176170
Cu1111	Cu111	0.377140	0.823830	0.176170
Cu1121	Cu112	0.122860	0.823830	0.323830
Cu1131	Cu113	0.622860	0.823830	0.823830
Cu1141	Cu114	0.622860	0.323830	0.323830
Cu1151	Cu115	0.122860	0.176170	0.676170
Cu1161	Cu116	0.622860	0.176170	0.176170
Cu1171	Cu117	0.323830	0.877140	0.176170
Cu1181	Cu118	0.323830	0.377140	0.676170
Cu1191	Cu119	0.676170	0.877140	0.823830
Cu1201	Cu120	0.676170	0.377140	0.323830
Cu1211	Cu121	0.176170	0.877140	0.323830
Cu1221	Cu122	0.323830	0.122860	0.823830
Cu1231	Cu123	0.323830	0.622860	0.323830
Cu1241	Cu124	0.676170	0.122860	0.176170
Cu1251	Cu125	0.676170	0.622860	0.676170
Cu1261	Cu126	0.176170	0.622860	0.176170
Cu1271	Cu127	0.323830	0.176170	0.122860
Cu1281	Cu128	0.323830	0.676170	0.622860
Cu1291	Cu129	0.676170	0.823830	0.122860
Cu1301	Cu130	0.676170	0.323830	0.622860
Cu1311	Cu131	0.176170	0.323830	0.122860
Cu1321	Cu132	0.323830	0.823830	0.877140
Cu1331	Cu133	0.323830	0.323830	0.377140
Cu1341	Cu134	0.676170	0.176170	0.877140
Cu1351	Cu135	0.676170	0.676170	0.377140
Cu1361	Cu136	0.176170	0.176170	0.377140
Cu1371	Cu137	0.176170	0.877140	0.676170
Cu1381	Cu138	0.176170	0.377140	0.176170
Cu1391	Cu139	0.823830	0.877140	0.323830
Cu1401	Cu140	0.823830	0.377140	0.823830
Cu1411	Cu141	0.323830	0.377140	0.323830
Cu1421	Cu142	0.823830	0.122860	0.676170
Cu1431	Cu143	0.823830	0.622860	0.176170
Cu1441	Cu144	0.323830	0.122860	0.176170
Cu1451	Cu145	0.176170	0.122860	0.323830
Cu1461	Cu146	0.176170	0.622860	0.823830
Cu1471	Cu147	0.877140	0.323830	0.823830
Cu1481	Cu148	0.377140	0.323830	0.323830
Cu1491	Cu149	0.877140	0.676170	0.176170
Cu1501	Cu150	0.377140	0.676170	0.676170
Cu1511	Cu151	0.377140	0.176170	0.176170
Cu1521	Cu152	0.122860	0.323830	0.176170
Cu1531	Cu153	0.622860	0.323830	0.676170
Cu1541	Cu154	0.122860	0.676170	0.823830
Cu1551	Cu155	0.122860	0.176170	0.323830
Cu1561	Cu156	0.622860	0.676170	0.323830
Cu1571	Cu157	0.823830	0.676170	0.122860
Cu1581	Cu158	0.823830	0.176170	0.622860
Cu1591	Cu159	0.176170	0.823830	0.622860
Cu1601	Cu160	0.176170	0.676170	0.877140
Cu1611	Cu161	0.823830	0.323830	0.877140
Cu1621	Cu162	0.823830	0.823830	0.377140
Cu1631	Cu163	0.122860	0.823830	0.676170
Cu1641	Cu164	0.622860	0.823830	0.176170
Cu1651	Cu165	0.622860	0.176170	0.823830
Cu1661	Cu166	0.877140	0.176170	0.676170
Cu1671	Cu167	0.877140	0.823830	0.323830
Cu1681	Cu168	0.377140	0.823830	0.823830
Cu1691	Cu169	0.676170	0.122860	0.823830
Cu1701	Cu170	0.676170	0.622860	0.323830
Cu1711	Cu171	0.323830	0.622860	0.676170
Cu1721	Cu172	0.676170	0.877140	0.176170
Cu1731	Cu173	0.676170	0.377140	0.676170
Cu1741	Cu174	0.323830	0.877140	0.823830
Cu1751	Cu175	0.676170	0.823830	0.877140
Cu1761	Cu176	0.676170	0.323830	0.377140
Cu1771	Cu177	0.323830	0.676170	0.377140
Cu1781	Cu178	0.676170	0.176170	0.122860
Cu1791	Cu179	0.676170	0.676170	0.622860
Cu1801	Cu180	0.323830	0.823830	0.122860
Cu1811	Cu181	0.823830	0.122860	0.323830
Cu1821	Cu182	0.823830	0.622860	0.823830
Cu1831	Cu183	0.176170	0.122860	0.676170
Cu1841	Cu184	0.176170	0.377140	0.823830
Cu1851	Cu185	0.823830	0.877140	0.676170
Cu1861	Cu186	0.823830	0.377140	0.176170
Cu1871	Cu187	0.122860	0.676170	0.176170
Cu1881	Cu188	0.622860	0.676170	0.676170
Cu1891	Cu189	0.122860	0.323830	0.823830
Cu1901	Cu190	0.877140	0.676170	0.823830
Cu1911	Cu191	0.377140	0.676170	0.323830
Cu1921	Cu192	0.377140	0.323830	0.676170
O3851	O385	0.165190	0.334810	0.834810
O3861	O386	0.834810	0.665190	0.834810
O3871	O387	0.834810	0.165190	0.334810
O3881	O388	0.334810	0.165190	0.834810
O3891	O389	0.834810	0.334810	0.165190
O3901	O390	0.334810	0.334810	0.665190
O3911	O391	0.165190	0.665190	0.165190
O3921	O392	0.334810	0.665190	0.334810
O3931	O393	0.834810	0.834810	0.665190
O3941	O394	0.334810	0.834810	0.165190
O3951	O395	0.165190	0.834810	0.334810
O3961	O396	0.165190	0.165190	0.665190
O3971	O397	0.665190	0.834810	0.834810
O3981	O398	0.665190	0.334810	0.334810
O3991	O399	0.665190	0.165190	0.165190
O4001	O400	0.665190	0.665190	0.665190
O4011	O401	0.334810	0.165190	0.165190
O4021	O402	0.334810	0.665190	0.665190
O4031	O403	0.665190	0.834810	0.165190
O4041	O404	0.665190	0.334810	0.665190
O4051	O405	0.165190	0.334810	0.165190
O4061	O406	0.334810	0.834810	0.834810
O4071	O407	0.334810	0.334810	0.334810
O4081	O408	0.665190	0.165190	0.834810
O4091	O409	0.665190	0.665190	0.334810
O4101	O410	0.165190	0.165190	0.334810
O4111	O411	0.165190	0.834810	0.665190
O4121	O412	0.834810	0.834810	0.334810
O4131	O413	0.834810	0.165190	0.665190
O4141	O414	0.834810	0.334810	0.834810
O4151	O415	0.834810	0.665190	0.165190
O4161	O416	0.165190	0.665190	0.834810
C5771	C577	0.103950	0.228400	0.896050
C5781	C578	0.080020	0.176970	0.919980
H1931	H193	0.072000	0.159500	0.928000
C5791	C579	0.116830	0.256800	0.883170
C5801	C580	0.103950	0.728400	0.396050
C5811	C581	0.080020	0.676970	0.419980
H1941	H194	0.072000	0.659500	0.428000
C5821	C582	0.116830	0.756800	0.383170
C5831	C583	0.603950	0.228400	0.396050
C5841	C584	0.580020	0.176970	0.419980
H1951	H195	0.572000	0.159500	0.428000
C5851	C585	0.616830	0.256800	0.383170
C5861	C586	0.603950	0.728400	0.896050
C5871	C587	0.580020	0.676970	0.919980
H1961	H196	0.572000	0.659500	0.928000
C5881	C588	0.616830	0.756800	0.883170
C5891	C589	0.896050	0.771600	0.896050
C5901	C590	0.919980	0.823030	0.919980
H1971	H197	0.928000	0.840500	0.928000
C5911	C591	0.883170	0.743200	0.883170
C5921	C592	0.896050	0.271600	0.396050
C5931	C593	0.919980	0.323030	0.419980
H1981	H198	0.928000	0.340500	0.428000
C5941	C594	0.883170	0.243200	0.383170
C5951	C595	0.396050	0.771600	0.396050
C5961	C596	0.419980	0.823030	0.419980
H1991	H199	0.428000	0.840500	0.428000
C5971	C597	0.383170	0.743200	0.383170
C5981	C598	0.396050	0.271600	0.896050
C5991	C599	0.419980	0.323030	0.919980
H2001	H200	0.428000	0.340500	0.928000
C6001	C600	0.383170	0.243200	0.883170
C6011	C601	0.896050	0.228400	0.103950
C6021	C602	0.919980	0.176970	0.080020
H2011	H201	0.928000	0.159500	0.072000
C6031	C603	0.883170	0.256800	0.116830
C6041	C604	0.896050	0.728400	0.603950
C6051	C605	0.919980	0.676970	0.580020
H2021	H202	0.928000	0.659500	0.572000
C6061	C606	0.883170	0.756800	0.616830
C6071	C607	0.396050	0.228400	0.603950
C6081	C608	0.419980	0.176970	0.580020
H2031	H203	0.428000	0.159500	0.572000
C6091	C609	0.383170	0.256800	0.616830
C6101	C610	0.396050	0.728400	0.103950
C6111	C611	0.419980	0.676970	0.080020
H2041	H204	0.428000	0.659500	0.072000
C6121	C612	0.383170	0.756800	0.116830
C6131	C613	0.103950	0.771600	0.103950
C6141	C614	0.080020	0.823030	0.080020
H2051	H205	0.072000	0.840500	0.072000
C6151	C615	0.116830	0.743200	0.116830
C6161	C616	0.103950	0.271600	0.603950
C6171	C617	0.080020	0.323030	0.580020
H2061	H206	0.072000	0.340500	0.572000
C6181	C618	0.116830	0.243200	0.616830
C6191	C619	0.603950	0.771600	0.603950
C6201	C620	0.580020	0.823030	0.580020
H2071	H207	0.572000	0.840500	0.572000
C6211	C621	0.616830	0.743200	0.616830
C6221	C622	0.603950	0.271600	0.103950
C6231	C623	0.580020	0.323030	0.080020
H2081	H208	0.572000	0.340500	0.072000
C6241	C624	0.616830	0.243200	0.116830
C6251	C625	0.896050	0.103950	0.228400
C6261	C626	0.919980	0.080020	0.176970
H2091	H209	0.928000	0.072000	0.159500
C6271	C627	0.883170	0.116830	0.256800
C6281	C628	0.896050	0.603950	0.728400
C6291	C629	0.919980	0.580020	0.676970
H2101	H210	0.928000	0.572000	0.659500
C6301	C630	0.883170	0.616830	0.756800
C6311	C631	0.396050	0.103950	0.728400
C6321	C632	0.419980	0.080020	0.676970
H2111	H211	0.428000	0.072000	0.659500
C6331	C633	0.383170	0.116830	0.756800
C6341	C634	0.396050	0.603950	0.228400
C6351	C635	0.419980	0.580020	0.176970
H2121	H212	0.428000	0.572000	0.159500
C6361	C636	0.383170	0.616830	0.256800
C6371	C637	0.896050	0.896050	0.771600
C6381	C638	0.919980	0.919980	0.823030
H2131	H213	0.928000	0.928000	0.840500
C6391	C639	0.883170	0.883170	0.743200
C6401	C640	0.896050	0.396050	0.271600
C6411	C641	0.919980	0.419980	0.323030
H2141	H214	0.928000	0.428000	0.340500
C6421	C642	0.883170	0.383170	0.243200
C6431	C643	0.396050	0.896050	0.271600
C6441	C644	0.419980	0.919980	0.323030
H2151	H215	0.428000	0.928000	0.340500
C6451	C645	0.383170	0.883170	0.243200
C6461	C646	0.396050	0.396050	0.771600
C6471	C647	0.419980	0.419980	0.823030
H2161	H216	0.428000	0.428000	0.840500
C6481	C648	0.383170	0.383170	0.743200
C6491	C649	0.103950	0.896050	0.228400
C6501	C650	0.080020	0.919980	0.176970
H2171	H217	0.072000	0.928000	0.159500
C6511	C651	0.116830	0.883170	0.256800
C6521	C652	0.103950	0.396050	0.728400
C6531	C653	0.080020	0.419980	0.676970
H2181	H218	0.072000	0.428000	0.659500
C6541	C654	0.116830	0.383170	0.756800
C6551	C655	0.603950	0.896050	0.728400
C6561	C656	0.580020	0.919980	0.676970
H2191	H219	0.572000	0.928000	0.659500
C6571	C657	0.616830	0.883170	0.756800
C6581	C658	0.603950	0.396050	0.228400
C6591	C659	0.580020	0.419980	0.176970
H2201	H220	0.572000	0.428000	0.159500
C6601	C660	0.616830	0.383170	0.256800
C6611	C661	0.103950	0.103950	0.771600
C6621	C662	0.080020	0.080020	0.823030
H2211	H221	0.072000	0.072000	0.840500
C6631	C663	0.116830	0.116830	0.743200
C6641	C664	0.103950	0.603950	0.271600
C6651	C665	0.080020	0.580020	0.323030
H2221	H222	0.072000	0.572000	0.340500
C6661	C666	0.116830	0.616830	0.243200
C6671	C667	0.603950	0.103950	0.271600
C6681	C668	0.580020	0.080020	0.323030
H2231	H223	0.572000	0.072000	0.340500
C6691	C669	0.616830	0.116830	0.243200
C6701	C670	0.603950	0.603950	0.771600
C6711	C671	0.580020	0.580020	0.823030
H2241	H224	0.572000	0.572000	0.840500
C6721	C672	0.616830	0.616830	0.743200
C6731	C673	0.228400	0.896050	0.103950
C6741	C674	0.176970	0.919980	0.080020
H2251	H225	0.159500	0.928000	0.072000
C6751	C675	0.256800	0.883170	0.116830
C6761	C676	0.228400	0.396050	0.603950
C6771	C677	0.176970	0.419980	0.580020
H2261	H226	0.159500	0.428000	0.572000
C6781	C678	0.256800	0.383170	0.616830
C6791	C679	0.728400	0.896050	0.603950
C6801	C680	0.676970	0.919980	0.580020
H2271	H227	0.659500	0.928000	0.572000
C6811	C681	0.756800	0.883170	0.616830
C6821	C682	0.728400	0.396050	0.103950
C6831	C683	0.676970	0.419980	0.080020
H2281	H228	0.659500	0.428000	0.072000
C6841	C684	0.756800	0.383170	0.116830
C6851	C685	0.771600	0.896050	0.896050
C6861	C686	0.823030	0.919980	0.919980
H2291	H229	0.840500	0.928000	0.928000
C6871	C687	0.743200	0.883170	0.883170
C6881	C688	0.771600	0.396050	0.396050
C6891	C689	0.823030	0.419980	0.419980
H2301	H230	0.840500	0.428000	0.428000
C6901	C690	0.743200	0.383170	0.383170
C6911	C691	0.271600	0.896050	0.396050
C6921	C692	0.323030	0.919980	0.419980
H2311	H231	0.340500	0.928000	0.428000
C6931	C693	0.243200	0.883170	0.383170
C6941	C694	0.271600	0.396050	0.896050
C6951	C695	0.323030	0.419980	0.919980
H2321	H232	0.340500	0.428000	0.928000
C6961	C696	0.243200	0.383170	0.883170
C6971	C697	0.228400	0.103950	0.896050
C6981	C698	0.176970	0.080020	0.919980
H2331	H233	0.159500	0.072000	0.928000
C6991	C699	0.256800	0.116830	0.883170
C7001	C700	0.228400	0.603950	0.396050
C7011	C701	0.176970	0.580020	0.419980
H2341	H234	0.159500	0.572000	0.428000
C7021	C702	0.256800	0.616830	0.383170
C7031	C703	0.728400	0.103950	0.396050
C7041	C704	0.676970	0.080020	0.419980
H2351	H235	0.659500	0.072000	0.428000
C7051	C705	0.756800	0.116830	0.383170
C7061	C706	0.728400	0.603950	0.896050
C7071	C707	0.676970	0.580020	0.919980
H2361	H236	0.659500	0.572000	0.928000
C7081	C708	0.756800	0.616830	0.883170
C7091	C709	0.771600	0.103950	0.103950
C7101	C710	0.823030	0.080020	0.080020
H2371	H237	0.840500	0.072000	0.072000
C7111	C711	0.743200	0.116830	0.116830
C7121	C712	0.771600	0.603950	0.603950
C7131	C713	0.823030	0.580020	0.580020
H2381	H238	0.840500	0.572000	0.572000
C7141	C714	0.743200	0.616830	0.616830
C7151	C715	0.271600	0.103950	0.603950
C7161	C716	0.323030	0.080020	0.580020
H2391	H239	0.340500	0.072000	0.572000
C7171	C717	0.243200	0.116830	0.616830
C7181	C718	0.271600	0.603950	0.103950
C7191	C719	0.323030	0.580020	0.080020
H2401	H240	0.340500	0.572000	0.072000
C7201	C720	0.243200	0.616830	0.116830
C7211	C721	0.228400	0.103950	0.103950
C7221	C722	0.176970	0.080020	0.080020
H2411	H241	0.159500	0.072000	0.072000
C7231	C723	0.256800	0.116830	0.116830
C7241	C724	0.228400	0.603950	0.603950
C7251	C725	0.176970	0.580020	0.580020
H2421	H242	0.159500	0.572000	0.572000
C7261	C726	0.256800	0.616830	0.616830
C7271	C727	0.728400	0.103950	0.603950
C7281	C728	0.676970	0.080020	0.580020
H2431	H243	0.659500	0.072000	0.572000
C7291	C729	0.756800	0.116830	0.616830
C7301	C730	0.728400	0.603950	0.103950
C7311	C731	0.676970	0.580020	0.080020
H2441	H244	0.659500	0.572000	0.072000
C7321	C732	0.756800	0.616830	0.116830
C7331	C733	0.771600	0.896050	0.103950
C7341	C734	0.823030	0.919980	0.080020
H2451	H245	0.840500	0.928000	0.072000
C7351	C735	0.743200	0.883170	0.116830
C7361	C736	0.771600	0.396050	0.603950
C7371	C737	0.823030	0.419980	0.580020
H2461	H246	0.840500	0.428000	0.572000
C7381	C738	0.743200	0.383170	0.616830
C7391	C739	0.271600	0.896050	0.603950
C7401	C740	0.323030	0.919980	0.580020
H2471	H247	0.340500	0.928000	0.572000
C7411	C741	0.243200	0.883170	0.616830
C7421	C742	0.271600	0.396050	0.103950
C7431	C743	0.323030	0.419980	0.080020
H2481	H248	0.340500	0.428000	0.072000
C7441	C744	0.243200	0.383170	0.116830
C7451	C745	0.228400	0.896050	0.896050
C7461	C746	0.176970	0.919980	0.919980
H2491	H249	0.159500	0.928000	0.928000
C7471	C747	0.256800	0.883170	0.883170
C7481	C748	0.228400	0.396050	0.396050
C7491	C749	0.176970	0.419980	0.419980
H2501	H250	0.159500	0.428000	0.428000
C7501	C750	0.256800	0.383170	0.383170
C7511	C751	0.728400	0.896050	0.396050
C7521	C752	0.676970	0.919980	0.419980
H2511	H251	0.659500	0.928000	0.428000
C7531	C753	0.756800	0.883170	0.383170
C7541	C754	0.728400	0.396050	0.896050
C7551	C755	0.676970	0.419980	0.919980
H2521	H252	0.659500	0.428000	0.928000
C7561	C756	0.756800	0.383170	0.883170
C7571	C757	0.771600	0.103950	0.896050
C7581	C758	0.823030	0.080020	0.919980
H2531	H253	0.840500	0.072000	0.928000
C7591	C759	0.743200	0.116830	0.883170
C7601	C760	0.771600	0.603950	0.396050
C7611	C761	0.823030	0.580020	0.419980
H2541	H254	0.840500	0.572000	0.428000
C7621	C762	0.743200	0.616830	0.383170
C7631	C763	0.271600	0.103950	0.396050
C7641	C764	0.323030	0.080020	0.419980
H2551	H255	0.340500	0.072000	0.428000
C7651	C765	0.243200	0.116830	0.383170
C7661	C766	0.271600	0.603950	0.896050
C7671	C767	0.323030	0.580020	0.919980
H2561	H256	0.340500	0.572000	0.928000
C7681	C768	0.243200	0.616830	0.883170
C7691	C769	0.103950	0.896050	0.771600
C7701	C770	0.080020	0.919980	0.823030
H2571	H257	0.072000	0.928000	0.840500
C7711	C771	0.116830	0.883170	0.743200
C7721	C772	0.103950	0.396050	0.271600
C7731	C773	0.080020	0.419980	0.323030
H2581	H258	0.072000	0.428000	0.340500
C7741	C774	0.116830	0.383170	0.243200
C7751	C775	0.603950	0.896050	0.271600
C7761	C776	0.580020	0.919980	0.323030
H2591	H259	0.572000	0.928000	0.340500
C7771	C777	0.616830	0.883170	0.243200
C7781	C778	0.603950	0.396050	0.771600
C7791	C779	0.580020	0.419980	0.823030
H2601	H260	0.572000	0.428000	0.840500
C7801	C780	0.616830	0.383170	0.743200
C7811	C781	0.896050	0.896050	0.228400
C7821	C782	0.919980	0.919980	0.176970
H2611	H261	0.928000	0.928000	0.159500
C7831	C783	0.883170	0.883170	0.256800
C7841	C784	0.896050	0.396050	0.728400
C7851	C785	0.919980	0.419980	0.676970
H2621	H262	0.928000	0.428000	0.659500
C7861	C786	0.883170	0.383170	0.756800
C7871	C787	0.396050	0.896050	0.728400
C7881	C788	0.419980	0.919980	0.676970
H2631	H263	0.428000	0.928000	0.659500
C7891	C789	0.383170	0.883170	0.756800
C7901	C790	0.396050	0.396050	0.228400
C7911	C791	0.419980	0.419980	0.176970
H2641	H264	0.428000	0.428000	0.159500
C7921	C792	0.383170	0.383170	0.256800
C7931	C793	0.896050	0.103950	0.771600
C7941	C794	0.919980	0.080020	0.823030
H2651	H265	0.928000	0.072000	0.840500
C7951	C795	0.883170	0.116830	0.743200
C7961	C796	0.896050	0.603950	0.271600
C7971	C797	0.919980	0.580020	0.323030
H2661	H266	0.928000	0.572000	0.340500
C7981	C798	0.883170	0.616830	0.243200
C7991	C799	0.396050	0.103950	0.271600
C8001	C800	0.419980	0.080020	0.323030
H2671	H267	0.428000	0.072000	0.340500
C8011	C801	0.383170	0.116830	0.243200
C8021	C802	0.396050	0.603950	0.771600
C8031	C803	0.419980	0.580020	0.823030
H2681	H268	0.428000	0.572000	0.840500
C8041	C804	0.383170	0.616830	0.743200
C8051	C805	0.103950	0.103950	0.228400
C8061	C806	0.080020	0.080020	0.176970
H2691	H269	0.072000	0.072000	0.159500
C8071	C807	0.116830	0.116830	0.256800
C8081	C808	0.103950	0.603950	0.728400
C8091	C809	0.080020	0.580020	0.676970
H2701	H270	0.072000	0.572000	0.659500
C8101	C810	0.116830	0.616830	0.756800
C8111	C811	0.603950	0.103950	0.728400
C8121	C812	0.580020	0.080020	0.676970
H2711	H271	0.572000	0.072000	0.659500
C8131	C813	0.616830	0.116830	0.756800
C8141	C814	0.603950	0.603950	0.228400
C8151	C815	0.580020	0.580020	0.176970
H2721	H272	0.572000	0.572000	0.159500
C8161	C816	0.616830	0.616830	0.256800
C8171	C817	0.896050	0.228400	0.896050
C8181	C818	0.919980	0.176970	0.919980
H2731	H273	0.928000	0.159500	0.928000
C8191	C819	0.883170	0.256800	0.883170
C8201	C820	0.896050	0.728400	0.396050
C8211	C821	0.919980	0.676970	0.419980
H2741	H274	0.928000	0.659500	0.428000
C8221	C822	0.883170	0.756800	0.383170
C8231	C823	0.396050	0.228400	0.396050
C8241	C824	0.419980	0.176970	0.419980
H2751	H275	0.428000	0.159500	0.428000
C8251	C825	0.383170	0.256800	0.383170
C8261	C826	0.396050	0.728400	0.896050
C8271	C827	0.419980	0.676970	0.919980
H2761	H276	0.428000	0.659500	0.928000
C8281	C828	0.383170	0.756800	0.883170
C8291	C829	0.896050	0.771600	0.103950
C8301	C830	0.919980	0.823030	0.080020
H2771	H277	0.928000	0.840500	0.072000
C8311	C831	0.883170	0.743200	0.116830
C8321	C832	0.896050	0.271600	0.603950
C8331	C833	0.919980	0.323030	0.580020
H2781	H278	0.928000	0.340500	0.572000
C8341	C834	0.883170	0.243200	0.616830
C8351	C835	0.396050	0.771600	0.603950
C8361	C836	0.419980	0.823030	0.580020
H2791	H279	0.428000	0.840500	0.572000
C8371	C837	0.383170	0.743200	0.616830
C8381	C838	0.396050	0.271600	0.103950
C8391	C839	0.419980	0.323030	0.080020
H2801	H280	0.428000	0.340500	0.072000
C8401	C840	0.383170	0.243200	0.116830
C8411	C841	0.103950	0.228400	0.103950
C8421	C842	0.080020	0.176970	0.080020
H2811	H281	0.072000	0.159500	0.072000
C8431	C843	0.116830	0.256800	0.116830
C8441	C844	0.103950	0.728400	0.603950
C8451	C845	0.080020	0.676970	0.580020
H2821	H282	0.072000	0.659500	0.572000
C8461	C846	0.116830	0.756800	0.616830
C8471	C847	0.603950	0.228400	0.603950
C8481	C848	0.580020	0.176970	0.580020
H2831	H283	0.572000	0.159500	0.572000
C8491	C849	0.616830	0.256800	0.616830
C8501	C850	0.603950	0.728400	0.103950
C8511	C851	0.580020	0.676970	0.080020
H2841	H284	0.572000	0.659500	0.072000
C8521	C852	0.616830	0.756800	0.116830
C8531	C853	0.103950	0.771600	0.896050
C8541	C854	0.080020	0.823030	0.919980
H2851	H285	0.072000	0.840500	0.928000
C8551	C855	0.116830	0.743200	0.883170
C8561	C856	0.103950	0.271600	0.396050
C8571	C857	0.080020	0.323030	0.419980
H2861	H286	0.072000	0.340500	0.428000
C8581	C858	0.116830	0.243200	0.383170
C8591	C859	0.603950	0.771600	0.396050
C8601	C860	0.580020	0.823030	0.419980
H2871	H287	0.572000	0.840500	0.428000
C8611	C861	0.616830	0.743200	0.383170
C8621	C862	0.603950	0.271600	0.896050
C8631	C863	0.580020	0.323030	0.919980
H2881	H288	0.572000	0.340500	0.928000
C8641	C864	0.616830	0.243200	0.883170
