data_OMOVET_clean_PM
_symmetry_space_group_name_H-M	'P1'
_cell_length_a	18.760000
_cell_length_b	18.760000
_cell_length_c	17.999000
_cell_angle_alpha	90.000000
_cell_angle_beta	90.000000
_cell_angle_gamma	90.000000
_symmetry_Int_Tables_number 1

loop_
_symmetry_equiv_pos_as_xyz
'x,y,z'

loop_
_atom_site_label
_atom_site_type_symbol
_atom_site_fract_x
_atom_site_fract_y
_atom_site_fract_z
C11	C1	0.903400	0.800300	0.762800
C21	C2	0.880400	0.774100	0.688000
C31	C3	0.814000	0.764800	0.661200
H11	H1	0.772800	0.776600	0.687200
C41	C4	0.035800	0.775700	0.965400
H21	H2	0.027800	0.732600	0.941200
C51	C5	0.084500	0.787900	0.019500
H31	H3	0.115800	0.754500	0.039300
C61	C6	0.977900	0.970100	0.770300
H41	H4	0.959800	0.947300	0.728500
N11	N1	0.029300	0.886400	0.999000
N21	N2	0.001000	0.838000	0.953000
N31	N3	0.079700	0.855600	0.039200
N41	N4	0.966400	0.951600	0.839800
O11	O1	0.962200	0.790800	0.784600
O21	O2	0.857000	0.833000	0.800500
Zn11	Zn1	0.915930	0.861500	0.888330
C71	C7	0.403400	0.300300	0.262800
C81	C8	0.380400	0.274100	0.188000
C91	C9	0.314000	0.264800	0.161200
H51	H5	0.272800	0.276600	0.187200
C101	C10	0.535800	0.275700	0.465400
H61	H6	0.527800	0.232600	0.441200
C111	C11	0.584500	0.287900	0.519500
H71	H7	0.615800	0.254500	0.539300
C121	C12	0.477900	0.470100	0.270300
H81	H8	0.459800	0.447300	0.228500
N51	N5	0.529300	0.386400	0.499000
N61	N6	0.501000	0.338000	0.453000
N71	N7	0.579700	0.355600	0.539200
N81	N8	0.466400	0.451600	0.339800
O31	O3	0.462200	0.290800	0.284600
O41	O4	0.357000	0.333000	0.300500
Zn21	Zn2	0.415930	0.361500	0.388330
C131	C13	0.096600	0.199700	0.762800
C141	C14	0.119600	0.225900	0.688000
C151	C15	0.186000	0.235200	0.661200
H91	H9	0.227200	0.223400	0.687200
C161	C16	0.964200	0.224300	0.965400
H101	H10	0.972200	0.267400	0.941200
C171	C17	0.915500	0.212100	0.019500
H111	H11	0.884200	0.245500	0.039300
C181	C18	0.022100	0.029900	0.770300
H121	H12	0.040200	0.052700	0.728500
N91	N9	0.970700	0.113600	0.999000
N101	N10	0.999000	0.162000	0.953000
N111	N11	0.920300	0.144400	0.039200
N121	N12	0.033600	0.048400	0.839800
O51	O5	0.037800	0.209200	0.784600
O61	O6	0.143000	0.167000	0.800500
Zn31	Zn3	0.084070	0.138500	0.888330
C191	C19	0.596600	0.699700	0.262800
C201	C20	0.619600	0.725900	0.188000
C211	C21	0.686000	0.735200	0.161200
H131	H13	0.727200	0.723400	0.187200
C221	C22	0.464200	0.724300	0.465400
H141	H14	0.472200	0.767400	0.441200
C231	C23	0.415500	0.712100	0.519500
H151	H15	0.384200	0.745500	0.539300
C241	C24	0.522100	0.529900	0.270300
H161	H16	0.540200	0.552700	0.228500
N131	N13	0.470700	0.613600	0.499000
N141	N14	0.499000	0.662000	0.453000
N151	N15	0.420300	0.644400	0.539200
N161	N16	0.533600	0.548400	0.339800
O71	O7	0.537800	0.709200	0.284600
O81	O8	0.643000	0.667000	0.300500
Zn41	Zn4	0.584070	0.638500	0.388330
C251	C25	0.800300	0.096600	0.237200
C261	C26	0.774100	0.119600	0.312000
C271	C27	0.764800	0.186000	0.338800
H171	H17	0.776600	0.227200	0.312800
C281	C28	0.775700	0.964200	0.034600
H181	H18	0.732600	0.972200	0.058800
C291	C29	0.787900	0.915500	0.980500
H191	H19	0.754500	0.884200	0.960700
C301	C30	0.970100	0.022100	0.229700
H201	H20	0.947300	0.040200	0.271500
N171	N17	0.886400	0.970700	0.001000
N181	N18	0.838000	0.999000	0.047000
N191	N19	0.855600	0.920300	0.960800
N201	N20	0.951600	0.033600	0.160200
O91	O9	0.790800	0.037800	0.215400
O101	O10	0.833000	0.143000	0.199500
Zn51	Zn5	0.861500	0.084070	0.111670
C311	C31	0.300300	0.596600	0.737200
C321	C32	0.274100	0.619600	0.812000
C331	C33	0.264800	0.686000	0.838800
H211	H21	0.276600	0.727200	0.812800
C341	C34	0.275700	0.464200	0.534600
H221	H22	0.232600	0.472200	0.558800
C351	C35	0.287900	0.415500	0.480500
H231	H23	0.254500	0.384200	0.460700
C361	C36	0.470100	0.522100	0.729700
H241	H24	0.447300	0.540200	0.771500
N211	N21	0.386400	0.470700	0.501000
N221	N22	0.338000	0.499000	0.547000
N231	N23	0.355600	0.420300	0.460800
N241	N24	0.451600	0.533600	0.660200
O111	O11	0.290800	0.537800	0.715400
O121	O12	0.333000	0.643000	0.699500
Zn61	Zn6	0.361500	0.584070	0.611670
C371	C37	0.199700	0.903400	0.237200
C381	C38	0.225900	0.880400	0.312000
C391	C39	0.235200	0.814000	0.338800
H251	H25	0.223400	0.772800	0.312800
C401	C40	0.224300	0.035800	0.034600
H261	H26	0.267400	0.027800	0.058800
C411	C41	0.212100	0.084500	0.980500
H271	H27	0.245500	0.115800	0.960700
C421	C42	0.029900	0.977900	0.229700
H281	H28	0.052700	0.959800	0.271500
N251	N25	0.113600	0.029300	0.001000
N261	N26	0.162000	0.001000	0.047000
N271	N27	0.144400	0.079700	0.960800
N281	N28	0.048400	0.966400	0.160200
O131	O13	0.209200	0.962200	0.215400
O141	O14	0.167000	0.857000	0.199500
Zn71	Zn7	0.138500	0.915930	0.111670
C431	C43	0.699700	0.403400	0.737200
C441	C44	0.725900	0.380400	0.812000
C451	C45	0.735200	0.314000	0.838800
H291	H29	0.723400	0.272800	0.812800
C461	C46	0.724300	0.535800	0.534600
H301	H30	0.767400	0.527800	0.558800
C471	C47	0.712100	0.584500	0.480500
H311	H31	0.745500	0.615800	0.460700
C481	C48	0.529900	0.477900	0.729700
H321	H32	0.552700	0.459800	0.771500
N291	N29	0.613600	0.529300	0.501000
N301	N30	0.662000	0.501000	0.547000
N311	N31	0.644400	0.579700	0.460800
N321	N32	0.548400	0.466400	0.660200
O151	O15	0.709200	0.462200	0.715400
O161	O16	0.667000	0.357000	0.699500
Zn81	Zn8	0.638500	0.415930	0.611670
C491	C49	0.596600	0.800300	0.987200
C501	C50	0.619600	0.774100	0.062000
C511	C51	0.686000	0.764800	0.088800
H331	H33	0.727200	0.776600	0.062800
C521	C52	0.464200	0.775700	0.784600
H341	H34	0.472200	0.732600	0.808800
C531	C53	0.415500	0.787900	0.730500
H351	H35	0.384200	0.754500	0.710700
C541	C54	0.522100	0.970100	0.979700
H361	H36	0.540200	0.947300	0.021500
N331	N33	0.470700	0.886400	0.751000
N341	N34	0.499000	0.838000	0.797000
N351	N35	0.420300	0.855600	0.710800
N361	N36	0.533600	0.951600	0.910200
O171	O17	0.537800	0.790800	0.965400
O181	O18	0.643000	0.833000	0.949500
Zn91	Zn9	0.584070	0.861500	0.861670
C551	C55	0.096600	0.300300	0.487200
C561	C56	0.119600	0.274100	0.562000
C571	C57	0.186000	0.264800	0.588800
H371	H37	0.227200	0.276600	0.562800
C581	C58	0.964200	0.275700	0.284600
H381	H38	0.972200	0.232600	0.308800
C591	C59	0.915500	0.287900	0.230500
H391	H39	0.884200	0.254500	0.210700
C601	C60	0.022100	0.470100	0.479700
H401	H40	0.040200	0.447300	0.521500
N371	N37	0.970700	0.386400	0.251000
N381	N38	0.999000	0.338000	0.297000
N391	N39	0.920300	0.355600	0.210800
N401	N40	0.033600	0.451600	0.410200
O191	O19	0.037800	0.290800	0.465400
O201	O20	0.143000	0.333000	0.449500
Zn101	Zn10	0.084070	0.361500	0.361670
C611	C61	0.403400	0.199700	0.987200
C621	C62	0.380400	0.225900	0.062000
C631	C63	0.314000	0.235200	0.088800
H411	H41	0.272800	0.223400	0.062800
C641	C64	0.535800	0.224300	0.784600
H421	H42	0.527800	0.267400	0.808800
C651	C65	0.584500	0.212100	0.730500
H431	H43	0.615800	0.245500	0.710700
C661	C66	0.477900	0.029900	0.979700
H441	H44	0.459800	0.052700	0.021500
N411	N41	0.529300	0.113600	0.751000
N421	N42	0.501000	0.162000	0.797000
N431	N43	0.579700	0.144400	0.710800
N441	N44	0.466400	0.048400	0.910200
O211	O21	0.462200	0.209200	0.965400
O221	O22	0.357000	0.167000	0.949500
Zn111	Zn11	0.415930	0.138500	0.861670
C671	C67	0.903400	0.699700	0.487200
C681	C68	0.880400	0.725900	0.562000
C691	C69	0.814000	0.735200	0.588800
H451	H45	0.772800	0.723400	0.562800
C701	C70	0.035800	0.724300	0.284600
H461	H46	0.027800	0.767400	0.308800
C711	C71	0.084500	0.712100	0.230500
H471	H47	0.115800	0.745500	0.210700
C721	C72	0.977900	0.529900	0.479700
H481	H48	0.959800	0.552700	0.521500
N451	N45	0.029300	0.613600	0.251000
N461	N46	0.001000	0.662000	0.297000
N471	N47	0.079700	0.644400	0.210800
N481	N48	0.966400	0.548400	0.410200
O231	O23	0.962200	0.709200	0.465400
O241	O24	0.857000	0.667000	0.449500
Zn121	Zn12	0.915930	0.638500	0.361670
C731	C73	0.699700	0.096600	0.512800
C741	C74	0.725900	0.119600	0.438000
C751	C75	0.735200	0.186000	0.411200
H491	H49	0.723400	0.227200	0.437200
C761	C76	0.724300	0.964200	0.715400
H501	H50	0.767400	0.972200	0.691200
C771	C77	0.712100	0.915500	0.769500
H511	H51	0.745500	0.884200	0.789300
C781	C78	0.529900	0.022100	0.520300
H521	H52	0.552700	0.040200	0.478500
N491	N49	0.613600	0.970700	0.749000
N501	N50	0.662000	0.999000	0.703000
N511	N51	0.644400	0.920300	0.789200
N521	N52	0.548400	0.033600	0.589800
O251	O25	0.709200	0.037800	0.534600
O261	O26	0.667000	0.143000	0.550500
Zn131	Zn13	0.638500	0.084070	0.638330
C791	C79	0.199700	0.596600	0.012800
C801	C80	0.225900	0.619600	0.938000
C811	C81	0.235200	0.686000	0.911200
H531	H53	0.223400	0.727200	0.937200
C821	C82	0.224300	0.464200	0.215400
H541	H54	0.267400	0.472200	0.191200
C831	C83	0.212100	0.415500	0.269500
H551	H55	0.245500	0.384200	0.289300
C841	C84	0.029900	0.522100	0.020300
H561	H56	0.052700	0.540200	0.978500
N531	N53	0.113600	0.470700	0.249000
N541	N54	0.162000	0.499000	0.203000
N551	N55	0.144400	0.420300	0.289200
N561	N56	0.048400	0.533600	0.089800
O271	O27	0.209200	0.537800	0.034600
O281	O28	0.167000	0.643000	0.050500
Zn141	Zn14	0.138500	0.584070	0.138330
C851	C85	0.300300	0.903400	0.512800
C861	C86	0.274100	0.880400	0.438000
C871	C87	0.264800	0.814000	0.411200
H571	H57	0.276600	0.772800	0.437200
C881	C88	0.275700	0.035800	0.715400
H581	H58	0.232600	0.027800	0.691200
C891	C89	0.287900	0.084500	0.769500
H591	H59	0.254500	0.115800	0.789300
C901	C90	0.470100	0.977900	0.520300
H601	H60	0.447300	0.959800	0.478500
N571	N57	0.386400	0.029300	0.749000
N581	N58	0.338000	0.001000	0.703000
N591	N59	0.355600	0.079700	0.789200
N601	N60	0.451600	0.966400	0.589800
O291	O29	0.290800	0.962200	0.534600
O301	O30	0.333000	0.857000	0.550500
Zn151	Zn15	0.361500	0.915930	0.638330
C911	C91	0.800300	0.403400	0.012800
C921	C92	0.774100	0.380400	0.938000
C931	C93	0.764800	0.314000	0.911200
H611	H61	0.776600	0.272800	0.937200
C941	C94	0.775700	0.535800	0.215400
H621	H62	0.732600	0.527800	0.191200
C951	C95	0.787900	0.584500	0.269500
H631	H63	0.754500	0.615800	0.289300
C961	C96	0.970100	0.477900	0.020300
H641	H64	0.947300	0.459800	0.978500
N611	N61	0.886400	0.529300	0.249000
N621	N62	0.838000	0.501000	0.203000
N631	N63	0.855600	0.579700	0.289200
N641	N64	0.951600	0.466400	0.089800
O311	O31	0.790800	0.462200	0.034600
O321	O32	0.833000	0.357000	0.050500
Zn161	Zn16	0.861500	0.415930	0.138330
N651	N65	0.000000	0.000000	0.881500
N661	N66	0.500000	0.500000	0.381500
N671	N67	0.000000	0.000000	0.118500
N681	N68	0.500000	0.500000	0.618500
N691	N69	0.500000	0.000000	0.868500
N701	N70	0.000000	0.500000	0.368500
N711	N71	0.500000	0.000000	0.631500
N721	N72	0.000000	0.500000	0.131500
S11	S1	0.942740	0.750000	0.625000
S21	S2	0.057260	0.250000	0.625000
S31	S3	0.750000	0.057260	0.375000
S41	S4	0.250000	0.557260	0.875000
S51	S5	0.250000	0.942740	0.375000
S61	S6	0.750000	0.442740	0.875000
S71	S7	0.557260	0.750000	0.125000
S81	S8	0.442740	0.250000	0.125000
Zn171	Zn17	0.000000	0.000000	0.000000
Zn181	Zn18	0.500000	0.500000	0.500000
Zn191	Zn19	0.500000	0.000000	0.750000
Zn201	Zn20	0.000000	0.500000	0.250000
