data_ONEJUN_clean_PM
_symmetry_space_group_name_H-M	'P1'
_cell_length_a	21.455100
_cell_length_b	21.455100
_cell_length_c	34.170800
_cell_angle_alpha	90.000000
_cell_angle_beta	90.000000
_cell_angle_gamma	120.000000
_symmetry_Int_Tables_number 1

loop_
_symmetry_equiv_pos_as_xyz
'x,y,z'

loop_
_atom_site_label
_atom_site_type_symbol
_atom_site_fract_x
_atom_site_fract_y
_atom_site_fract_z
W11	W1	0.293370	0.731130	0.067960
W21	W2	0.157740	0.518200	0.978250
W31	W3	0.291220	0.728780	0.779590
W41	W4	0.157210	0.518710	0.868330
W51	W5	0.178530	0.683620	0.979690
W61	W6	0.179390	0.684470	0.869340
N11	N1	0.277700	0.907800	0.713500
N21	N2	0.201800	0.851200	0.782400
O11	O1	0.146800	0.522700	0.923900
O21	O2	0.120400	0.581300	0.986900
O31	O3	0.121500	0.583400	0.861300
O41	O4	0.226100	0.489500	0.878700
O51	O5	0.254200	0.635700	0.878700
O61	O6	0.165200	0.671900	0.924000
O71	O7	0.254900	0.635300	0.969000
O81	O8	0.214400	0.693200	0.031600
O91	O9	0.250400	0.632600	0.758200
O101	O10	0.227000	0.488800	0.969300
O111	O11	0.215400	0.693800	0.815800
O121	O12	0.342900	0.805400	0.031200
O131	O13	0.251700	0.634900	0.090500
O141	O14	0.117100	0.711500	0.858500
O151	O15	0.193700	0.537300	0.815500
C11	C1	0.308200	0.925600	0.748600
H11	H1	0.357500	0.957400	0.750000
C21	C2	0.208900	0.862900	0.712900
H21	H2	0.184700	0.850000	0.689100
C31	C3	0.271500	0.899800	0.782200
H31	H3	0.295500	0.916500	0.805900
C41	C4	0.171600	0.834300	0.747000
H41	H4	0.122600	0.801200	0.745300
W71	W7	0.960040	0.064460	0.401290
W81	W8	0.824410	0.851530	0.311580
W91	W9	0.957890	0.062110	0.112920
W101	W10	0.823880	0.852040	0.201660
W111	W11	0.845200	0.016950	0.313020
W121	W12	0.846060	0.017800	0.202670
N31	N3	0.944370	0.241130	0.046830
N41	N4	0.868470	0.184530	0.115730
O161	O16	0.813470	0.856030	0.257230
O171	O17	0.787070	0.914630	0.320230
O181	O18	0.788170	0.916730	0.194630
O191	O19	0.892770	0.822830	0.212030
O201	O20	0.920870	0.969030	0.212030
O211	O21	0.831870	0.005230	0.257330
O221	O22	0.921570	0.968630	0.302330
O231	O23	0.881070	0.026530	0.364930
O241	O24	0.917070	0.965930	0.091530
O251	O25	0.893670	0.822130	0.302630
O261	O26	0.882070	0.027130	0.149130
O271	O27	0.009570	0.138730	0.364530
O281	O28	0.918370	0.968230	0.423830
O291	O29	0.783770	0.044830	0.191830
O301	O30	0.860370	0.870630	0.148830
C51	C5	0.974870	0.258930	0.081930
H51	H5	0.024170	0.290730	0.083330
C61	C6	0.875570	0.196230	0.046230
H61	H6	0.851370	0.183330	0.022430
C71	C7	0.938170	0.233130	0.115530
H71	H7	0.962170	0.249830	0.139230
C81	C8	0.838270	0.167630	0.080330
H81	H8	0.789270	0.134530	0.078630
W131	W13	0.626700	0.397800	0.734630
W141	W14	0.491070	0.184870	0.644920
W151	W15	0.624550	0.395450	0.446260
W161	W16	0.490540	0.185380	0.535000
W171	W17	0.511860	0.350290	0.646360
W181	W18	0.512720	0.351140	0.536010
N51	N5	0.611030	0.574470	0.380170
N61	N6	0.535130	0.517870	0.449070
O311	O31	0.480130	0.189370	0.590570
O321	O32	0.453730	0.247970	0.653570
O331	O33	0.454830	0.250070	0.527970
O341	O34	0.559430	0.156170	0.545370
O351	O35	0.587530	0.302370	0.545370
O361	O36	0.498530	0.338570	0.590670
O371	O37	0.588230	0.301970	0.635670
O381	O38	0.547730	0.359870	0.698270
O391	O39	0.583730	0.299270	0.424870
O401	O40	0.560330	0.155470	0.635970
O411	O41	0.548730	0.360470	0.482470
O421	O42	0.676230	0.472070	0.697870
O431	O43	0.585030	0.301570	0.757170
O441	O44	0.450430	0.378170	0.525170
O451	O45	0.527030	0.203970	0.482170
C91	C9	0.641530	0.592270	0.415270
H91	H9	0.690830	0.624070	0.416670
C101	C10	0.542230	0.529570	0.379570
H101	H10	0.518030	0.516670	0.355770
C111	C11	0.604830	0.566470	0.448870
H111	H11	0.628830	0.583170	0.472570
C121	C12	0.504930	0.500970	0.413670
H121	H12	0.455930	0.467870	0.411970
W191	W19	0.268870	0.562240	0.067960
W201	W20	0.481800	0.639540	0.978250
W211	W21	0.271220	0.562440	0.779590
W221	W22	0.481290	0.638500	0.868330
W231	W23	0.316380	0.494910	0.979690
W241	W24	0.315530	0.494920	0.869340
N71	N7	0.092200	0.369900	0.713500
N81	N8	0.148800	0.350600	0.782400
O461	O46	0.477300	0.624100	0.923900
O471	O47	0.418700	0.539100	0.986900
O481	O48	0.416600	0.538100	0.861300
O491	O49	0.510500	0.736600	0.878700
O501	O50	0.364300	0.618500	0.878700
O511	O51	0.328100	0.493300	0.924000
O521	O52	0.364700	0.619600	0.969000
O531	O53	0.306800	0.521200	0.031600
O541	O54	0.367400	0.617800	0.758200
O551	O55	0.511200	0.738200	0.969300
O561	O56	0.306200	0.521600	0.815800
O571	O57	0.194600	0.537500	0.031200
O581	O58	0.365100	0.616800	0.090500
O591	O59	0.288500	0.405600	0.858500
O601	O60	0.462700	0.656400	0.815500
C131	C13	0.074400	0.382600	0.748600
H131	H13	0.042600	0.400100	0.750000
C141	C14	0.137100	0.346000	0.712900
H141	H14	0.150000	0.334700	0.689100
C151	C15	0.100200	0.371700	0.782200
H151	H15	0.083500	0.379000	0.805900
C161	C16	0.165700	0.337300	0.747000
H161	H16	0.198800	0.321400	0.745300
W251	W25	0.935540	0.895570	0.401290
W261	W26	0.148470	0.972870	0.311580
W271	W27	0.937890	0.895770	0.112920
W281	W28	0.147960	0.971830	0.201660
W291	W29	0.983050	0.828240	0.313020
W301	W30	0.982200	0.828250	0.202670
N91	N9	0.758870	0.703230	0.046830
N101	N10	0.815470	0.683930	0.115730
O611	O61	0.143970	0.957430	0.257230
O621	O62	0.085370	0.872430	0.320230
O631	O63	0.083270	0.871430	0.194630
O641	O64	0.177170	0.069930	0.212030
O651	O65	0.030970	0.951830	0.212030
O661	O66	0.994770	0.826630	0.257330
O671	O67	0.031370	0.952930	0.302330
O681	O68	0.973470	0.854530	0.364930
O691	O69	0.034070	0.951130	0.091530
O701	O70	0.177870	0.071530	0.302630
O711	O71	0.972870	0.854930	0.149130
O721	O72	0.861270	0.870830	0.364530
O731	O73	0.031770	0.950130	0.423830
O741	O74	0.955170	0.738930	0.191830
O751	O75	0.129370	0.989730	0.148830
C171	C17	0.741070	0.715930	0.081930
H171	H17	0.709270	0.733430	0.083330
C181	C18	0.803770	0.679330	0.046230
H181	H18	0.816670	0.668030	0.022430
C191	C19	0.766870	0.705030	0.115530
H191	H19	0.750170	0.712330	0.139230
C201	C20	0.832370	0.670630	0.080330
H201	H20	0.865470	0.654730	0.078630
W311	W31	0.602200	0.228910	0.734630
W321	W32	0.815130	0.306210	0.644920
W331	W33	0.604550	0.229110	0.446260
W341	W34	0.814620	0.305170	0.535000
W351	W35	0.649710	0.161580	0.646360
W361	W36	0.648860	0.161590	0.536010
N111	N11	0.425530	0.036570	0.380170
N121	N12	0.482130	0.017270	0.449070
O761	O76	0.810630	0.290770	0.590570
O771	O77	0.752030	0.205770	0.653570
O781	O78	0.749930	0.204770	0.527970
O791	O79	0.843830	0.403270	0.545370
O801	O80	0.697630	0.285170	0.545370
O811	O81	0.661430	0.159970	0.590670
O821	O82	0.698030	0.286270	0.635670
O831	O83	0.640130	0.187870	0.698270
O841	O84	0.700730	0.284470	0.424870
O851	O85	0.844530	0.404870	0.635970
O861	O86	0.639530	0.188270	0.482470
O871	O87	0.527930	0.204170	0.697870
O881	O88	0.698430	0.283470	0.757170
O891	O89	0.621830	0.072270	0.525170
O901	O90	0.796030	0.323070	0.482170
C211	C21	0.407730	0.049270	0.415270
H211	H21	0.375930	0.066770	0.416670
C221	C22	0.470430	0.012670	0.379570
H221	H22	0.483330	0.001370	0.355770
C231	C23	0.433530	0.038370	0.448870
H231	H23	0.416830	0.045670	0.472570
C241	C24	0.499030	0.003970	0.413670
H241	H24	0.532130	0.988070	0.411970
W371	W37	0.437760	0.706630	0.067960
W381	W38	0.360460	0.842260	0.978250
W391	W39	0.437560	0.708780	0.779590
W401	W40	0.361500	0.842790	0.868330
W411	W41	0.505090	0.821470	0.979690
W421	W42	0.505080	0.820610	0.869340
N131	N13	0.630100	0.722300	0.713500
N141	N14	0.649400	0.798200	0.782400
O911	O91	0.375900	0.853200	0.923900
O921	O92	0.460900	0.879600	0.986900
O931	O93	0.461900	0.878500	0.861300
O941	O94	0.263400	0.773900	0.878700
O951	O95	0.381500	0.745800	0.878700
O961	O96	0.506700	0.834800	0.924000
O971	O97	0.380400	0.745100	0.969000
O981	O98	0.478800	0.785600	0.031600
O991	O99	0.382200	0.749600	0.758200
O1001	O100	0.261800	0.773000	0.969300
O1011	O101	0.478400	0.784600	0.815800
O1021	O102	0.462500	0.657100	0.031200
O1031	O103	0.383200	0.748300	0.090500
O1041	O104	0.594400	0.882900	0.858500
O1051	O105	0.343600	0.806300	0.815500
C251	C25	0.617400	0.691800	0.748600
H251	H25	0.599900	0.642500	0.750000
C261	C26	0.654000	0.791100	0.712900
H261	H26	0.665300	0.815300	0.689100
C271	C27	0.628300	0.728500	0.782200
H271	H27	0.621000	0.704500	0.805900
C281	C28	0.662700	0.828400	0.747000
H281	H28	0.678600	0.877400	0.745300
W431	W43	0.104430	0.039960	0.401290
W441	W44	0.027130	0.175590	0.311580
W451	W45	0.104230	0.042110	0.112920
W461	W46	0.028170	0.176120	0.201660
W471	W47	0.171760	0.154800	0.313020
W481	W48	0.171750	0.153940	0.202670
N151	N15	0.296770	0.055630	0.046830
N161	N16	0.316070	0.131530	0.115730
O1061	O106	0.042570	0.186530	0.257230
O1071	O107	0.127570	0.212930	0.320230
O1081	O108	0.128570	0.211830	0.194630
O1091	O109	0.930070	0.107230	0.212030
O1101	O110	0.048170	0.079130	0.212030
O1111	O111	0.173370	0.168130	0.257330
O1121	O112	0.047070	0.078430	0.302330
O1131	O113	0.145470	0.118930	0.364930
O1141	O114	0.048870	0.082930	0.091530
O1151	O115	0.928470	0.106330	0.302630
O1161	O116	0.145070	0.117930	0.149130
O1171	O117	0.129170	0.990430	0.364530
O1181	O118	0.049870	0.081630	0.423830
O1191	O119	0.261070	0.216230	0.191830
O1201	O120	0.010270	0.139630	0.148830
C291	C29	0.284070	0.025130	0.081930
H291	H29	0.266570	0.975830	0.083330
C301	C30	0.320670	0.124430	0.046230
H301	H30	0.331970	0.148630	0.022430
C311	C31	0.294970	0.061830	0.115530
H311	H31	0.287670	0.037830	0.139230
C321	C32	0.329370	0.161730	0.080330
H321	H32	0.345270	0.210730	0.078630
W491	W49	0.771090	0.373300	0.734630
W501	W50	0.693790	0.508930	0.644920
W511	W51	0.770890	0.375450	0.446260
W521	W52	0.694830	0.509460	0.535000
W531	W53	0.838420	0.488140	0.646360
W541	W54	0.838410	0.487280	0.536010
N171	N17	0.963430	0.388970	0.380170
N181	N18	0.982730	0.464870	0.449070
O1211	O121	0.709230	0.519870	0.590570
O1221	O122	0.794230	0.546270	0.653570
O1231	O123	0.795230	0.545170	0.527970
O1241	O124	0.596730	0.440570	0.545370
O1251	O125	0.714830	0.412470	0.545370
O1261	O126	0.840030	0.501470	0.590670
O1271	O127	0.713730	0.411770	0.635670
O1281	O128	0.812130	0.452270	0.698270
O1291	O129	0.715530	0.416270	0.424870
O1301	O130	0.595130	0.439670	0.635970
O1311	O131	0.811730	0.451270	0.482470
O1321	O132	0.795830	0.323770	0.697870
O1331	O133	0.716530	0.414970	0.757170
O1341	O134	0.927730	0.549570	0.525170
O1351	O135	0.676930	0.472970	0.482170
C331	C33	0.950730	0.358470	0.415270
H331	H33	0.933230	0.309170	0.416670
C341	C34	0.987330	0.457770	0.379570
H341	H34	0.998630	0.481970	0.355770
C351	C35	0.961630	0.395170	0.448870
H351	H35	0.954330	0.371170	0.472570
C361	C36	0.996030	0.495070	0.413670
H361	H36	0.011930	0.544070	0.411970
W551	W55	0.731130	0.293370	0.932040
W561	W56	0.518200	0.157740	0.021750
W571	W57	0.728780	0.291220	0.220410
W581	W58	0.518710	0.157210	0.131670
W591	W59	0.683620	0.178530	0.020310
W601	W60	0.684470	0.179390	0.130660
N191	N19	0.907800	0.277700	0.286500
N201	N20	0.851200	0.201800	0.217600
O1361	O136	0.522700	0.146800	0.076100
O1371	O137	0.581300	0.120400	0.013100
O1381	O138	0.583400	0.121500	0.138700
O1391	O139	0.489500	0.226100	0.121300
O1401	O140	0.635700	0.254200	0.121300
O1411	O141	0.671900	0.165200	0.076000
O1421	O142	0.635300	0.254900	0.031000
O1431	O143	0.693200	0.214400	0.968400
O1441	O144	0.632600	0.250400	0.241800
O1451	O145	0.488800	0.227000	0.030700
O1461	O146	0.693800	0.215400	0.184200
O1471	O147	0.805400	0.342900	0.968800
O1481	O148	0.634900	0.251700	0.909500
O1491	O149	0.711500	0.117100	0.141500
O1501	O150	0.537300	0.193700	0.184500
C371	C37	0.925600	0.308200	0.251400
H371	H37	0.957400	0.357500	0.250000
C381	C38	0.862900	0.208900	0.287100
H381	H38	0.850000	0.184700	0.310900
C391	C39	0.899800	0.271500	0.217800
H391	H39	0.916500	0.295500	0.194100
C401	C40	0.834300	0.171600	0.253000
H401	H40	0.801200	0.122600	0.254700
W611	W61	0.397800	0.626700	0.265370
W621	W62	0.184870	0.491070	0.355080
W631	W63	0.395450	0.624550	0.553740
W641	W64	0.185380	0.490540	0.465000
W651	W65	0.350290	0.511860	0.353640
W661	W66	0.351140	0.512720	0.463990
N211	N21	0.574470	0.611030	0.619830
N221	N22	0.517870	0.535130	0.550930
O1511	O151	0.189370	0.480130	0.409430
O1521	O152	0.247970	0.453730	0.346430
O1531	O153	0.250070	0.454830	0.472030
O1541	O154	0.156170	0.559430	0.454630
O1551	O155	0.302370	0.587530	0.454630
O1561	O156	0.338570	0.498530	0.409330
O1571	O157	0.301970	0.588230	0.364330
O1581	O158	0.359870	0.547730	0.301730
O1591	O159	0.299270	0.583730	0.575130
O1601	O160	0.155470	0.560330	0.364030
O1611	O161	0.360470	0.548730	0.517530
O1621	O162	0.472070	0.676230	0.302130
O1631	O163	0.301570	0.585030	0.242830
O1641	O164	0.378170	0.450430	0.474830
O1651	O165	0.203970	0.527030	0.517830
C411	C41	0.592270	0.641530	0.584730
H411	H41	0.624070	0.690830	0.583330
C421	C42	0.529570	0.542230	0.620430
H421	H42	0.516670	0.518030	0.644230
C431	C43	0.566470	0.604830	0.551130
H431	H43	0.583170	0.628830	0.527430
C441	C44	0.500970	0.504930	0.586330
H441	H44	0.467870	0.455930	0.588030
W671	W67	0.064460	0.960040	0.598710
W681	W68	0.851530	0.824410	0.688420
W691	W69	0.062110	0.957890	0.887080
W701	W70	0.852040	0.823880	0.798340
W711	W71	0.016950	0.845200	0.686980
W721	W72	0.017800	0.846060	0.797330
N231	N23	0.241130	0.944370	0.953170
N241	N24	0.184530	0.868470	0.884270
O1661	O166	0.856030	0.813470	0.742770
O1671	O167	0.914630	0.787070	0.679770
O1681	O168	0.916730	0.788170	0.805370
O1691	O169	0.822830	0.892770	0.787970
O1701	O170	0.969030	0.920870	0.787970
O1711	O171	0.005230	0.831870	0.742670
O1721	O172	0.968630	0.921570	0.697670
O1731	O173	0.026530	0.881070	0.635070
O1741	O174	0.965930	0.917070	0.908470
O1751	O175	0.822130	0.893670	0.697370
O1761	O176	0.027130	0.882070	0.850870
O1771	O177	0.138730	0.009570	0.635470
O1781	O178	0.968230	0.918370	0.576170
O1791	O179	0.044830	0.783770	0.808170
O1801	O180	0.870630	0.860370	0.851170
C451	C45	0.258930	0.974870	0.918070
H451	H45	0.290730	0.024170	0.916670
C461	C46	0.196230	0.875570	0.953770
H461	H46	0.183330	0.851370	0.977570
C471	C47	0.233130	0.938170	0.884470
H471	H47	0.249830	0.962170	0.860770
C481	C48	0.167630	0.838270	0.919670
H481	H48	0.134530	0.789270	0.921370
W731	W73	0.562240	0.268870	0.932040
W741	W74	0.639540	0.481800	0.021750
W751	W75	0.562440	0.271220	0.220410
W761	W76	0.638500	0.481290	0.131670
W771	W77	0.494910	0.316380	0.020310
W781	W78	0.494920	0.315530	0.130660
N251	N25	0.369900	0.092200	0.286500
N261	N26	0.350600	0.148800	0.217600
O1811	O181	0.624100	0.477300	0.076100
O1821	O182	0.539100	0.418700	0.013100
O1831	O183	0.538100	0.416600	0.138700
O1841	O184	0.736600	0.510500	0.121300
O1851	O185	0.618500	0.364300	0.121300
O1861	O186	0.493300	0.328100	0.076000
O1871	O187	0.619600	0.364700	0.031000
O1881	O188	0.521200	0.306800	0.968400
O1891	O189	0.617800	0.367400	0.241800
O1901	O190	0.738200	0.511200	0.030700
O1911	O191	0.521600	0.306200	0.184200
O1921	O192	0.537500	0.194600	0.968800
O1931	O193	0.616800	0.365100	0.909500
O1941	O194	0.405600	0.288500	0.141500
O1951	O195	0.656400	0.462700	0.184500
C491	C49	0.382600	0.074400	0.251400
H491	H49	0.400100	0.042600	0.250000
C501	C50	0.346000	0.137100	0.287100
H501	H50	0.334700	0.150000	0.310900
C511	C51	0.371700	0.100200	0.217800
H511	H51	0.379000	0.083500	0.194100
C521	C52	0.337300	0.165700	0.253000
H521	H52	0.321400	0.198800	0.254700
W791	W79	0.228910	0.602200	0.265370
W801	W80	0.306210	0.815130	0.355080
W811	W81	0.229110	0.604550	0.553740
W821	W82	0.305170	0.814620	0.465000
W831	W83	0.161580	0.649710	0.353640
W841	W84	0.161590	0.648860	0.463990
N271	N27	0.036570	0.425530	0.619830
N281	N28	0.017270	0.482130	0.550930
O1961	O196	0.290770	0.810630	0.409430
O1971	O197	0.205770	0.752030	0.346430
O1981	O198	0.204770	0.749930	0.472030
O1991	O199	0.403270	0.843830	0.454630
O2001	O200	0.285170	0.697630	0.454630
O2011	O201	0.159970	0.661430	0.409330
O2021	O202	0.286270	0.698030	0.364330
O2031	O203	0.187870	0.640130	0.301730
O2041	O204	0.284470	0.700730	0.575130
O2051	O205	0.404870	0.844530	0.364030
O2061	O206	0.188270	0.639530	0.517530
O2071	O207	0.204170	0.527930	0.302130
O2081	O208	0.283470	0.698430	0.242830
O2091	O209	0.072270	0.621830	0.474830
O2101	O210	0.323070	0.796030	0.517830
C531	C53	0.049270	0.407730	0.584730
H531	H53	0.066770	0.375930	0.583330
C541	C54	0.012670	0.470430	0.620430
H541	H54	0.001370	0.483330	0.644230
C551	C55	0.038370	0.433530	0.551130
H551	H55	0.045670	0.416830	0.527430
C561	C56	0.003970	0.499030	0.586330
H561	H56	0.988070	0.532130	0.588030
W851	W85	0.895570	0.935540	0.598710
W861	W86	0.972870	0.148470	0.688420
W871	W87	0.895770	0.937890	0.887080
W881	W88	0.971830	0.147960	0.798340
W891	W89	0.828240	0.983050	0.686980
W901	W90	0.828250	0.982200	0.797330
N291	N29	0.703230	0.758870	0.953170
N301	N30	0.683930	0.815470	0.884270
O2111	O211	0.957430	0.143970	0.742770
O2121	O212	0.872430	0.085370	0.679770
O2131	O213	0.871430	0.083270	0.805370
O2141	O214	0.069930	0.177170	0.787970
O2151	O215	0.951830	0.030970	0.787970
O2161	O216	0.826630	0.994770	0.742670
O2171	O217	0.952930	0.031370	0.697670
O2181	O218	0.854530	0.973470	0.635070
O2191	O219	0.951130	0.034070	0.908470
O2201	O220	0.071530	0.177870	0.697370
O2211	O221	0.854930	0.972870	0.850870
O2221	O222	0.870830	0.861270	0.635470
O2231	O223	0.950130	0.031770	0.576170
O2241	O224	0.738930	0.955170	0.808170
O2251	O225	0.989730	0.129370	0.851170
C571	C57	0.715930	0.741070	0.918070
H571	H57	0.733430	0.709270	0.916670
C581	C58	0.679330	0.803770	0.953770
H581	H58	0.668030	0.816670	0.977570
C591	C59	0.705030	0.766870	0.884470
H591	H59	0.712330	0.750170	0.860770
C601	C60	0.670630	0.832370	0.919670
H601	H60	0.654730	0.865470	0.921370
W911	W91	0.706630	0.437760	0.932040
W921	W92	0.842260	0.360460	0.021750
W931	W93	0.708780	0.437560	0.220410
W941	W94	0.842790	0.361500	0.131670
W951	W95	0.821470	0.505090	0.020310
W961	W96	0.820610	0.505080	0.130660
N311	N31	0.722300	0.630100	0.286500
N321	N32	0.798200	0.649400	0.217600
O2261	O226	0.853200	0.375900	0.076100
O2271	O227	0.879600	0.460900	0.013100
O2281	O228	0.878500	0.461900	0.138700
O2291	O229	0.773900	0.263400	0.121300
O2301	O230	0.745800	0.381500	0.121300
O2311	O231	0.834800	0.506700	0.076000
O2321	O232	0.745100	0.380400	0.031000
O2331	O233	0.785600	0.478800	0.968400
O2341	O234	0.749600	0.382200	0.241800
O2351	O235	0.773000	0.261800	0.030700
O2361	O236	0.784600	0.478400	0.184200
O2371	O237	0.657100	0.462500	0.968800
O2381	O238	0.748300	0.383200	0.909500
O2391	O239	0.882900	0.594400	0.141500
O2401	O240	0.806300	0.343600	0.184500
C611	C61	0.691800	0.617400	0.251400
H611	H61	0.642500	0.599900	0.250000
C621	C62	0.791100	0.654000	0.287100
H621	H62	0.815300	0.665300	0.310900
C631	C63	0.728500	0.628300	0.217800
H631	H63	0.704500	0.621000	0.194100
C641	C64	0.828400	0.662700	0.253000
H641	H64	0.877400	0.678600	0.254700
W971	W97	0.373300	0.771090	0.265370
W981	W98	0.508930	0.693790	0.355080
W991	W99	0.375450	0.770890	0.553740
W1001	W100	0.509460	0.694830	0.465000
W1011	W101	0.488140	0.838420	0.353640
W1021	W102	0.487280	0.838410	0.463990
N331	N33	0.388970	0.963430	0.619830
N341	N34	0.464870	0.982730	0.550930
O2411	O241	0.519870	0.709230	0.409430
O2421	O242	0.546270	0.794230	0.346430
O2431	O243	0.545170	0.795230	0.472030
O2441	O244	0.440570	0.596730	0.454630
O2451	O245	0.412470	0.714830	0.454630
O2461	O246	0.501470	0.840030	0.409330
O2471	O247	0.411770	0.713730	0.364330
O2481	O248	0.452270	0.812130	0.301730
O2491	O249	0.416270	0.715530	0.575130
O2501	O250	0.439670	0.595130	0.364030
O2511	O251	0.451270	0.811730	0.517530
O2521	O252	0.323770	0.795830	0.302130
O2531	O253	0.414970	0.716530	0.242830
O2541	O254	0.549570	0.927730	0.474830
O2551	O255	0.472970	0.676930	0.517830
C651	C65	0.358470	0.950730	0.584730
H651	H65	0.309170	0.933230	0.583330
C661	C66	0.457770	0.987330	0.620430
H661	H66	0.481970	0.998630	0.644230
C671	C67	0.395170	0.961630	0.551130
H671	H67	0.371170	0.954330	0.527430
C681	C68	0.495070	0.996030	0.586330
H681	H68	0.544070	0.011930	0.588030
W1031	W103	0.039960	0.104430	0.598710
W1041	W104	0.175590	0.027130	0.688420
W1051	W105	0.042110	0.104230	0.887080
W1061	W106	0.176120	0.028170	0.798340
W1071	W107	0.154800	0.171760	0.686980
W1081	W108	0.153940	0.171750	0.797330
N351	N35	0.055630	0.296770	0.953170
N361	N36	0.131530	0.316070	0.884270
O2561	O256	0.186530	0.042570	0.742770
O2571	O257	0.212930	0.127570	0.679770
O2581	O258	0.211830	0.128570	0.805370
O2591	O259	0.107230	0.930070	0.787970
O2601	O260	0.079130	0.048170	0.787970
O2611	O261	0.168130	0.173370	0.742670
O2621	O262	0.078430	0.047070	0.697670
O2631	O263	0.118930	0.145470	0.635070
O2641	O264	0.082930	0.048870	0.908470
O2651	O265	0.106330	0.928470	0.697370
O2661	O266	0.117930	0.145070	0.850870
O2671	O267	0.990430	0.129170	0.635470
O2681	O268	0.081630	0.049870	0.576170
O2691	O269	0.216230	0.261070	0.808170
O2701	O270	0.139630	0.010270	0.851170
C691	C69	0.025130	0.284070	0.918070
H691	H69	0.975830	0.266570	0.916670
C701	C70	0.124430	0.320670	0.953770
H701	H70	0.148630	0.331970	0.977570
C711	C71	0.061830	0.294970	0.884470
H711	H71	0.037830	0.287670	0.860770
C721	C72	0.161730	0.329370	0.919670
H721	H72	0.210730	0.345270	0.921370
Cu11	Cu1	0.333330	0.941620	0.666670
Cu21	Cu2	0.000000	0.274950	0.000000
Cu31	Cu3	0.058380	0.391720	0.666670
Cu41	Cu4	0.725050	0.725050	0.000000
Cu51	Cu5	0.608280	0.666670	0.666670
Cu61	Cu6	0.274950	0.000000	0.000000
Cu71	Cu7	0.941620	0.333330	0.333330
Cu81	Cu8	0.391720	0.058380	0.333330
Cu91	Cu9	0.666670	0.608280	0.333330
Cu101	Cu10	0.150190	0.816860	0.833330
Cu111	Cu11	0.183140	0.333330	0.833330
Cu121	Cu12	0.666670	0.849810	0.833330
Cu131	Cu13	0.816860	0.150190	0.166670
Cu141	Cu14	0.483530	0.483530	0.500000
Cu151	Cu15	0.333330	0.183140	0.166670
Cu161	Cu16	0.000000	0.516470	0.500000
Cu171	Cu17	0.849810	0.666670	0.166670
Cu181	Cu18	0.516470	0.000000	0.500000
P11	P1	0.333330	0.666670	0.982280
P21	P2	0.333330	0.666670	0.865520
O2711	O271	0.333330	0.666670	0.028200
O2721	O272	0.333330	0.666670	0.819700
P31	P3	0.000000	0.000000	0.315610
P41	P4	0.000000	0.000000	0.198850
O2731	O273	0.000000	0.000000	0.361530
O2741	O274	0.000000	0.000000	0.153030
P51	P5	0.666670	0.333330	0.648950
P61	P6	0.666670	0.333330	0.532190
O2751	O275	0.666670	0.333330	0.694870
O2761	O276	0.666670	0.333330	0.486370
P71	P7	0.666670	0.333330	0.017720
P81	P8	0.666670	0.333330	0.134480
O2771	O277	0.666670	0.333330	0.971800
O2781	O278	0.666670	0.333330	0.180300
P91	P9	0.333330	0.666670	0.351050
P101	P10	0.333330	0.666670	0.467810
O2791	O279	0.333330	0.666670	0.305130
O2801	O280	0.333330	0.666670	0.513630
P111	P11	0.000000	0.000000	0.684390
P121	P12	0.000000	0.000000	0.801150
O2811	O281	0.000000	0.000000	0.638470
O2821	O282	0.000000	0.000000	0.846970
