data_OPEGOG_clean_PM
_symmetry_space_group_name_H-M	'P1'
_cell_length_a	26.797400
_cell_length_b	9.845900
_cell_length_c	18.544100
_cell_angle_alpha	90.000000
_cell_angle_beta	90.000000
_cell_angle_gamma	90.000000
_symmetry_Int_Tables_number 1

loop_
_symmetry_equiv_pos_as_xyz
'x,y,z'

loop_
_atom_site_label
_atom_site_type_symbol
_atom_site_fract_x
_atom_site_fract_y
_atom_site_fract_z
H11	H1	0.437000	0.073000	0.648000
H21	H2	0.422000	0.412000	0.960000
H31	H3	0.355000	0.508000	0.729000
H41	H4	0.688000	0.080000	0.646000
H51	H5	0.408000	0.445000	0.390000
H61	H6	0.584000	0.529000	0.717000
H71	H7	0.313000	0.923000	0.492000
H81	H8	0.272000	0.623000	0.496000
H91	H9	0.492000	0.373000	0.607000
In11	In1	0.400380	0.236820	0.805390
In21	In2	0.401070	0.730780	0.569570
In31	In3	0.650090	0.248730	0.808110
In41	In4	0.348760	0.255150	0.070990
In51	In5	0.355290	0.242320	0.544600
In61	In6	0.394430	0.753110	0.035020
O11	O1	0.571900	0.267300	0.826100
O21	O2	0.272600	0.313000	0.900100
H101	H10	0.299400	0.341400	0.915300
O31	O3	0.416000	0.356400	0.713600
O41	O4	0.388700	0.893900	0.949900
O51	O5	0.338800	0.084400	0.004800
O61	O6	0.393700	0.885200	0.492300
O71	O7	0.323500	0.718300	0.587100
O81	O8	0.360700	0.084800	0.624000
O91	O9	0.231000	0.763300	0.582500
O101	O10	0.402100	0.577200	0.487400
O111	O11	0.348230	0.386800	0.977200
O121	O12	0.405500	0.867500	0.659800
O131	O13	0.348800	0.401800	0.620700
O141	O14	0.643100	0.875900	0.662600
O151	O15	0.433400	0.256400	0.530900
O161	O16	0.601200	0.093200	0.618300
O171	O17	0.479600	0.224300	0.824600
O181	O18	0.276380	0.215000	0.561100
O191	O19	0.229300	0.248200	0.784900
O201	O20	0.321300	0.237400	0.789000
O211	O21	0.339200	0.390200	0.462500
O221	O22	0.525590	0.223600	0.522400
O231	O23	0.337400	0.597800	0.385700
O241	O24	0.479300	0.747300	0.550300
O251	O25	0.399800	0.051700	0.747000
O261	O26	0.656300	0.574600	0.638000
O271	O27	0.637200	0.074300	0.744000
O281	O28	0.416400	0.576700	0.647900
O291	O29	0.392000	0.429100	0.859000
O301	O30	0.572500	0.736000	0.568400
O311	O31	0.398400	0.129600	0.903000
O321	O32	0.335400	0.903900	0.384400
O331	O33	0.183100	0.236200	0.552100
O341	O34	0.352100	0.106800	0.457300
O351	O35	0.648000	0.381500	0.720700
O361	O36	0.390000	0.612300	0.949400
O371	O37	0.589900	0.397000	0.613000
O381	O38	0.262100	0.534000	0.608900
H111	H11	0.284300	0.478600	0.601000
O391	O39	0.490300	0.447500	0.496200
H121	H12	0.469200	0.503700	0.507800
O401	O40	0.242100	0.320900	0.451900
H131	H13	0.267500	0.298500	0.430400
O411	O41	0.521700	0.939200	0.601100
H141	H14	0.545200	0.965800	0.625700
O421	O42	0.524900	0.179300	0.714900
H151	H15	0.547800	0.202400	0.688300
O431	O43	0.279400	0.446100	0.825100
H161	H16	0.306100	0.465000	0.844400
P11	P1	0.363120	0.029440	0.937870
H171	H17	0.328900	0.010500	0.905000
P21	P2	0.403110	0.021400	0.666960
P31	P3	0.391880	0.459100	0.939860
P41	P4	0.523170	0.782000	0.595990
P51	P5	0.383940	0.463290	0.677020
P61	P6	0.524070	0.273800	0.783720
H181	H18	0.510200	0.423500	0.760200
P71	P7	0.643110	0.032500	0.665440
P81	P8	0.370850	0.505870	0.430690
P91	P9	0.619590	0.472300	0.669320
P101	P10	0.275160	0.300000	0.818010
P111	P11	0.231610	0.219100	0.512280
H191	H19	0.229000	0.102700	0.463400
P121	P12	0.347490	0.952800	0.459880
P131	P13	0.272580	0.666100	0.566010
P141	P14	0.483780	0.318200	0.541950
H201	H20	0.563000	0.927000	0.148000
H211	H21	0.578000	0.588000	0.460000
H221	H22	0.645000	0.492000	0.229000
H231	H23	0.312000	0.920000	0.146000
H241	H24	0.592000	0.555000	0.890000
H251	H25	0.416000	0.471000	0.217000
H261	H26	0.687000	0.077000	0.992000
H271	H27	0.728000	0.377000	0.996000
H281	H28	0.508000	0.627000	0.107000
In71	In7	0.599620	0.763180	0.305390
In81	In8	0.598930	0.269220	0.069570
In91	In9	0.349910	0.751270	0.308110
In101	In10	0.651240	0.744850	0.570990
In111	In11	0.644710	0.757680	0.044600
In121	In12	0.605570	0.246890	0.535020
O441	O44	0.428100	0.732700	0.326100
O451	O45	0.727400	0.687000	0.400100
H291	H29	0.700600	0.658600	0.415300
O461	O46	0.584000	0.643600	0.213600
O471	O47	0.611300	0.106100	0.449900
O481	O48	0.661200	0.915600	0.504800
O491	O49	0.606300	0.114800	0.992300
O501	O50	0.676500	0.281700	0.087100
O511	O51	0.639300	0.915200	0.124000
O521	O52	0.769000	0.236700	0.082500
O531	O53	0.597900	0.422800	0.987400
O541	O54	0.651770	0.613200	0.477200
O551	O55	0.594500	0.132500	0.159800
O561	O56	0.651200	0.598200	0.120700
O571	O57	0.356900	0.124100	0.162600
O581	O58	0.566600	0.743600	0.030900
O591	O59	0.398800	0.906800	0.118300
O601	O60	0.520400	0.775700	0.324600
O611	O61	0.723620	0.785000	0.061100
O621	O62	0.770700	0.751800	0.284900
O631	O63	0.678700	0.762600	0.289000
O641	O64	0.660800	0.609800	0.962500
O651	O65	0.474410	0.776400	0.022400
O661	O66	0.662600	0.402200	0.885700
O671	O67	0.520700	0.252700	0.050300
O681	O68	0.600200	0.948300	0.247000
O691	O69	0.343700	0.425400	0.138000
O701	O70	0.362800	0.925700	0.244000
O711	O71	0.583600	0.423300	0.147900
O721	O72	0.608000	0.570900	0.359000
O731	O73	0.427500	0.264000	0.068400
O741	O74	0.601600	0.870400	0.403000
O751	O75	0.664600	0.096100	0.884400
O761	O76	0.816900	0.763800	0.052100
O771	O77	0.647900	0.893200	0.957300
O781	O78	0.352000	0.618500	0.220700
O791	O79	0.610000	0.387700	0.449400
O801	O80	0.410100	0.603000	0.113000
O811	O81	0.737900	0.466000	0.108900
H301	H30	0.715700	0.521400	0.101000
O821	O82	0.509700	0.552500	0.996200
H311	H31	0.530800	0.496300	0.007800
O831	O83	0.757900	0.679100	0.951900
H321	H32	0.732500	0.701500	0.930400
O841	O84	0.478300	0.060800	0.101100
H331	H33	0.454800	0.034200	0.125700
O851	O85	0.475100	0.820700	0.214900
H341	H34	0.452200	0.797600	0.188300
O861	O86	0.720600	0.553900	0.325100
H351	H35	0.693900	0.535000	0.344400
P151	P15	0.636880	0.970560	0.437870
H361	H36	0.671100	0.989500	0.405000
P161	P16	0.596890	0.978600	0.166960
P171	P17	0.608120	0.540900	0.439860
P181	P18	0.476830	0.218000	0.095990
P191	P19	0.616060	0.536710	0.177020
P201	P20	0.475930	0.726200	0.283720
H371	H37	0.489800	0.576500	0.260200
P211	P21	0.356890	0.967500	0.165440
P221	P22	0.629150	0.494130	0.930690
P231	P23	0.380410	0.527700	0.169320
P241	P24	0.724840	0.700000	0.318010
P251	P25	0.768390	0.780900	0.012280
H381	H38	0.771000	0.897300	0.963400
P261	P26	0.652510	0.047200	0.959880
P271	P27	0.727420	0.333900	0.066010
P281	P28	0.516220	0.681800	0.041950
H391	H39	0.937000	0.427000	0.648000
H401	H40	0.922000	0.088000	0.960000
H411	H41	0.855000	0.992000	0.729000
H421	H42	0.188000	0.420000	0.646000
H431	H43	0.908000	0.055000	0.390000
H441	H44	0.084000	0.971000	0.717000
H451	H45	0.813000	0.577000	0.492000
H461	H46	0.772000	0.877000	0.496000
H471	H47	0.992000	0.127000	0.607000
In131	In13	0.900380	0.263180	0.805390
In141	In14	0.901070	0.769220	0.569570
In151	In15	0.150090	0.251270	0.808110
In161	In16	0.848760	0.244850	0.070990
In171	In17	0.855290	0.257680	0.544600
In181	In18	0.894430	0.746890	0.035020
O871	O87	0.071900	0.232700	0.826100
O881	O88	0.772600	0.187000	0.900100
H481	H48	0.799400	0.158600	0.915300
O891	O89	0.916000	0.143600	0.713600
O901	O90	0.888700	0.606100	0.949900
O911	O91	0.838800	0.415600	0.004800
O921	O92	0.893700	0.614800	0.492300
O931	O93	0.823500	0.781700	0.587100
O941	O94	0.860700	0.415200	0.624000
O951	O95	0.731000	0.736700	0.582500
O961	O96	0.902100	0.922800	0.487400
O971	O97	0.848230	0.113200	0.977200
O981	O98	0.905500	0.632500	0.659800
O991	O99	0.848800	0.098200	0.620700
O1001	O100	0.143100	0.624100	0.662600
O1011	O101	0.933400	0.243600	0.530900
O1021	O102	0.101200	0.406800	0.618300
O1031	O103	0.979600	0.275700	0.824600
O1041	O104	0.776380	0.285000	0.561100
O1051	O105	0.729300	0.251800	0.784900
O1061	O106	0.821300	0.262600	0.789000
O1071	O107	0.839200	0.109800	0.462500
O1081	O108	0.025590	0.276400	0.522400
O1091	O109	0.837400	0.902200	0.385700
O1101	O110	0.979300	0.752700	0.550300
O1111	O111	0.899800	0.448300	0.747000
O1121	O112	0.156300	0.925400	0.638000
O1131	O113	0.137200	0.425700	0.744000
O1141	O114	0.916400	0.923300	0.647900
O1151	O115	0.892000	0.070900	0.859000
O1161	O116	0.072500	0.764000	0.568400
O1171	O117	0.898400	0.370400	0.903000
O1181	O118	0.835400	0.596100	0.384400
O1191	O119	0.683100	0.263800	0.552100
O1201	O120	0.852100	0.393200	0.457300
O1211	O121	0.148000	0.118500	0.720700
O1221	O122	0.890000	0.887700	0.949400
O1231	O123	0.089900	0.103000	0.613000
O1241	O124	0.762100	0.966000	0.608900
H491	H49	0.784300	0.021400	0.601000
O1251	O125	0.990300	0.052500	0.496200
H501	H50	0.969200	0.996300	0.507800
O1261	O126	0.742100	0.179100	0.451900
H511	H51	0.767500	0.201500	0.430400
O1271	O127	0.021700	0.560800	0.601100
H521	H52	0.045200	0.534200	0.625700
O1281	O128	0.024900	0.320700	0.714900
H531	H53	0.047800	0.297600	0.688300
O1291	O129	0.779400	0.053900	0.825100
H541	H54	0.806100	0.035000	0.844400
P291	P29	0.863120	0.470560	0.937870
H551	H55	0.828900	0.489500	0.905000
P301	P30	0.903110	0.478600	0.666960
P311	P31	0.891880	0.040900	0.939860
P321	P32	0.023170	0.718000	0.595990
P331	P33	0.883940	0.036710	0.677020
P341	P34	0.024070	0.226200	0.783720
H561	H56	0.010200	0.076500	0.760200
P351	P35	0.143110	0.467500	0.665440
P361	P36	0.870850	0.994130	0.430690
P371	P37	0.119590	0.027700	0.669320
P381	P38	0.775160	0.200000	0.818010
P391	P39	0.731610	0.280900	0.512280
H571	H57	0.729000	0.397300	0.463400
P401	P40	0.847490	0.547200	0.459880
P411	P41	0.772580	0.833900	0.566010
P421	P42	0.983780	0.181800	0.541950
H581	H58	0.063000	0.573000	0.148000
H591	H59	0.078000	0.912000	0.460000
H601	H60	0.145000	0.008000	0.229000
H611	H61	0.812000	0.580000	0.146000
H621	H62	0.092000	0.945000	0.890000
H631	H63	0.916000	0.029000	0.217000
H641	H64	0.187000	0.423000	0.992000
H651	H65	0.228000	0.123000	0.996000
H661	H66	0.008000	0.873000	0.107000
In191	In19	0.099620	0.736820	0.305390
In201	In20	0.098930	0.230780	0.069570
In211	In21	0.849910	0.748730	0.308110
In221	In22	0.151240	0.755150	0.570990
In231	In23	0.144710	0.742320	0.044600
In241	In24	0.105570	0.253110	0.535020
O1301	O130	0.928100	0.767300	0.326100
O1311	O131	0.227400	0.813000	0.400100
H671	H67	0.200600	0.841400	0.415300
O1321	O132	0.084000	0.856400	0.213600
O1331	O133	0.111300	0.393900	0.449900
O1341	O134	0.161200	0.584400	0.504800
O1351	O135	0.106300	0.385200	0.992300
O1361	O136	0.176500	0.218300	0.087100
O1371	O137	0.139300	0.584800	0.124000
O1381	O138	0.269000	0.263300	0.082500
O1391	O139	0.097900	0.077200	0.987400
O1401	O140	0.151770	0.886800	0.477200
O1411	O141	0.094500	0.367500	0.159800
O1421	O142	0.151200	0.901800	0.120700
O1431	O143	0.856900	0.375900	0.162600
O1441	O144	0.066600	0.756400	0.030900
O1451	O145	0.898800	0.593200	0.118300
O1461	O146	0.020400	0.724300	0.324600
O1471	O147	0.223620	0.715000	0.061100
O1481	O148	0.270700	0.748200	0.284900
O1491	O149	0.178700	0.737400	0.289000
O1501	O150	0.160800	0.890200	0.962500
O1511	O151	0.974410	0.723600	0.022400
O1521	O152	0.162600	0.097800	0.885700
O1531	O153	0.020700	0.247300	0.050300
O1541	O154	0.100200	0.551700	0.247000
O1551	O155	0.843700	0.074600	0.138000
O1561	O156	0.862800	0.574300	0.244000
O1571	O157	0.083600	0.076700	0.147900
O1581	O158	0.108000	0.929100	0.359000
O1591	O159	0.927500	0.236000	0.068400
O1601	O160	0.101600	0.629600	0.403000
O1611	O161	0.164600	0.403900	0.884400
O1621	O162	0.316900	0.736200	0.052100
O1631	O163	0.147900	0.606800	0.957300
O1641	O164	0.852000	0.881500	0.220700
O1651	O165	0.110000	0.112300	0.449400
O1661	O166	0.910100	0.897000	0.113000
O1671	O167	0.237900	0.034000	0.108900
H681	H68	0.215700	0.978600	0.101000
O1681	O168	0.009700	0.947500	0.996200
H691	H69	0.030800	0.003700	0.007800
O1691	O169	0.257900	0.820900	0.951900
H701	H70	0.232500	0.798500	0.930400
O1701	O170	0.978300	0.439200	0.101100
H711	H71	0.954800	0.465800	0.125700
O1711	O171	0.975100	0.679300	0.214900
H721	H72	0.952200	0.702400	0.188300
O1721	O172	0.220600	0.946100	0.325100
H731	H73	0.193900	0.965000	0.344400
P431	P43	0.136880	0.529440	0.437870
H741	H74	0.171100	0.510500	0.405000
P441	P44	0.096890	0.521400	0.166960
P451	P45	0.108120	0.959100	0.439860
P461	P46	0.976830	0.282000	0.095990
P471	P47	0.116060	0.963290	0.177020
P481	P48	0.975930	0.773800	0.283720
H751	H75	0.989800	0.923500	0.260200
P491	P49	0.856890	0.532500	0.165440
P501	P50	0.129150	0.005870	0.930690
P511	P51	0.880410	0.972300	0.169320
P521	P52	0.224840	0.800000	0.318010
P531	P53	0.268390	0.719100	0.012280
H761	H76	0.271000	0.602700	0.963400
P541	P54	0.152510	0.452800	0.959880
P551	P55	0.227420	0.166100	0.066010
P561	P56	0.016220	0.818200	0.041950
