data_OPEGIA_clean_PM
_symmetry_space_group_name_H-M	'P1'
_cell_length_a	18.675000
_cell_length_b	10.220000
_cell_length_c	13.419000
_cell_angle_alpha	90.000000
_cell_angle_beta	98.290000
_cell_angle_gamma	90.000000
_symmetry_Int_Tables_number 1

loop_
_symmetry_equiv_pos_as_xyz
'x,y,z'

loop_
_atom_site_label
_atom_site_type_symbol
_atom_site_fract_x
_atom_site_fract_y
_atom_site_fract_z
In11	In1	0.774220	0.503660	0.971350
O11	O1	0.998700	0.982900	0.158100
O21	O2	0.851110	0.658100	0.965400
O31	O3	0.186330	0.868600	0.954400
O41	O4	0.804040	0.842700	0.065400
O51	O5	0.903100	0.079800	0.217400
H11	H1	0.907600	0.116300	0.164300
O61	O6	0.751200	0.281600	0.720900
H21	H2	0.733600	0.251500	0.666200
O71	O7	0.781900	0.487500	0.814700
O81	O8	0.907180	0.878600	0.964800
O91	O9	0.145540	0.642100	0.996900
O101	O10	0.063600	0.828800	0.003100
O111	O11	0.787400	0.478300	0.631300
P11	P1	0.869040	0.783060	0.025940
P21	P2	0.142170	0.787180	0.019410
P31	P3	0.964080	0.973800	0.241920
P41	P4	0.750090	0.431870	0.715760
H31	H3	0.680000	0.437000	0.717000
H41	H4	0.170000	0.806000	0.117000
H51	H5	0.912000	0.751000	0.110000
H61	H6	0.928000	0.859000	0.250000
In21	In2	0.274220	0.003660	0.971350
O121	O12	0.498700	0.482900	0.158100
O131	O13	0.351110	0.158100	0.965400
O141	O14	0.686330	0.368600	0.954400
O151	O15	0.304040	0.342700	0.065400
O161	O16	0.403100	0.579800	0.217400
H71	H7	0.407600	0.616300	0.164300
O171	O17	0.251200	0.781600	0.720900
H81	H8	0.233600	0.751500	0.666200
O181	O18	0.281900	0.987500	0.814700
O191	O19	0.407180	0.378600	0.964800
O201	O20	0.645540	0.142100	0.996900
O211	O21	0.563600	0.328800	0.003100
O221	O22	0.287400	0.978300	0.631300
P51	P5	0.369040	0.283060	0.025940
P61	P6	0.642170	0.287180	0.019410
P71	P7	0.464080	0.473800	0.241920
P81	P8	0.250090	0.931870	0.715760
H91	H9	0.180000	0.937000	0.717000
H101	H10	0.670000	0.306000	0.117000
H111	H11	0.412000	0.251000	0.110000
H121	H12	0.428000	0.359000	0.250000
In31	In3	0.225780	0.503660	0.528650
O231	O23	0.001300	0.982900	0.341900
O241	O24	0.148890	0.658100	0.534600
O251	O25	0.813670	0.868600	0.545600
O261	O26	0.195960	0.842700	0.434600
O271	O27	0.096900	0.079800	0.282600
H131	H13	0.092400	0.116300	0.335700
O281	O28	0.248800	0.281600	0.779100
H141	H14	0.266400	0.251500	0.833800
O291	O29	0.218100	0.487500	0.685300
O301	O30	0.092820	0.878600	0.535200
O311	O31	0.854460	0.642100	0.503100
O321	O32	0.936400	0.828800	0.496900
O331	O33	0.212600	0.478300	0.868700
P91	P9	0.130960	0.783060	0.474060
P101	P10	0.857830	0.787180	0.480590
P111	P11	0.035920	0.973800	0.258080
P121	P12	0.249910	0.431870	0.784240
H151	H15	0.320000	0.437000	0.783000
H161	H16	0.830000	0.806000	0.383000
H171	H17	0.088000	0.751000	0.390000
H181	H18	0.072000	0.859000	0.250000
In41	In4	0.725780	0.003660	0.528650
O341	O34	0.501300	0.482900	0.341900
O351	O35	0.648890	0.158100	0.534600
O361	O36	0.313670	0.368600	0.545600
O371	O37	0.695960	0.342700	0.434600
O381	O38	0.596900	0.579800	0.282600
H191	H19	0.592400	0.616300	0.335700
O391	O39	0.748800	0.781600	0.779100
H201	H20	0.766400	0.751500	0.833800
O401	O40	0.718100	0.987500	0.685300
O411	O41	0.592820	0.378600	0.535200
O421	O42	0.354460	0.142100	0.503100
O431	O43	0.436400	0.328800	0.496900
O441	O44	0.712600	0.978300	0.868700
P131	P13	0.630960	0.283060	0.474060
P141	P14	0.357830	0.287180	0.480590
P151	P15	0.535920	0.473800	0.258080
P161	P16	0.749910	0.931870	0.784240
H211	H21	0.820000	0.937000	0.783000
H221	H22	0.330000	0.306000	0.383000
H231	H23	0.588000	0.251000	0.390000
H241	H24	0.572000	0.359000	0.250000
In51	In5	0.225780	0.496340	0.028650
O451	O45	0.001300	0.017100	0.841900
O461	O46	0.148890	0.341900	0.034600
O471	O47	0.813670	0.131400	0.045600
O481	O48	0.195960	0.157300	0.934600
O491	O49	0.096900	0.920200	0.782600
H251	H25	0.092400	0.883700	0.835700
O501	O50	0.248800	0.718400	0.279100
H261	H26	0.266400	0.748500	0.333800
O511	O51	0.218100	0.512500	0.185300
O521	O52	0.092820	0.121400	0.035200
O531	O53	0.854460	0.357900	0.003100
O541	O54	0.936400	0.171200	0.996900
O551	O55	0.212600	0.521700	0.368700
P171	P17	0.130960	0.216940	0.974060
P181	P18	0.857830	0.212820	0.980590
P191	P19	0.035920	0.026200	0.758080
P201	P20	0.249910	0.568130	0.284240
H271	H27	0.320000	0.563000	0.283000
H281	H28	0.830000	0.194000	0.883000
H291	H29	0.088000	0.249000	0.890000
H301	H30	0.072000	0.141000	0.750000
In61	In6	0.725780	0.996340	0.028650
O561	O56	0.501300	0.517100	0.841900
O571	O57	0.648890	0.841900	0.034600
O581	O58	0.313670	0.631400	0.045600
O591	O59	0.695960	0.657300	0.934600
O601	O60	0.596900	0.420200	0.782600
H311	H31	0.592400	0.383700	0.835700
O611	O61	0.748800	0.218400	0.279100
H321	H32	0.766400	0.248500	0.333800
O621	O62	0.718100	0.012500	0.185300
O631	O63	0.592820	0.621400	0.035200
O641	O64	0.354460	0.857900	0.003100
O651	O65	0.436400	0.671200	0.996900
O661	O66	0.712600	0.021700	0.368700
P211	P21	0.630960	0.716940	0.974060
P221	P22	0.357830	0.712820	0.980590
P231	P23	0.535920	0.526200	0.758080
P241	P24	0.749910	0.068130	0.284240
H331	H33	0.820000	0.063000	0.283000
H341	H34	0.330000	0.694000	0.883000
H351	H35	0.588000	0.749000	0.890000
H361	H36	0.572000	0.641000	0.750000
In71	In7	0.774220	0.496340	0.471350
O671	O67	0.998700	0.017100	0.658100
O681	O68	0.851110	0.341900	0.465400
O691	O69	0.186330	0.131400	0.454400
O701	O70	0.804040	0.157300	0.565400
O711	O71	0.903100	0.920200	0.717400
H371	H37	0.907600	0.883700	0.664300
O721	O72	0.751200	0.718400	0.220900
H381	H38	0.733600	0.748500	0.166200
O731	O73	0.781900	0.512500	0.314700
O741	O74	0.907180	0.121400	0.464800
O751	O75	0.145540	0.357900	0.496900
O761	O76	0.063600	0.171200	0.503100
O771	O77	0.787400	0.521700	0.131300
P251	P25	0.869040	0.216940	0.525940
P261	P26	0.142170	0.212820	0.519410
P271	P27	0.964080	0.026200	0.741920
P281	P28	0.750090	0.568130	0.215760
H391	H39	0.680000	0.563000	0.217000
H401	H40	0.170000	0.194000	0.617000
H411	H41	0.912000	0.249000	0.610000
H421	H42	0.928000	0.141000	0.750000
In81	In8	0.274220	0.996340	0.471350
O781	O78	0.498700	0.517100	0.658100
O791	O79	0.351110	0.841900	0.465400
O801	O80	0.686330	0.631400	0.454400
O811	O81	0.304040	0.657300	0.565400
O821	O82	0.403100	0.420200	0.717400
H431	H43	0.407600	0.383700	0.664300
O831	O83	0.251200	0.218400	0.220900
H441	H44	0.233600	0.248500	0.166200
O841	O84	0.281900	0.012500	0.314700
O851	O85	0.407180	0.621400	0.464800
O861	O86	0.645540	0.857900	0.496900
O871	O87	0.563600	0.671200	0.503100
O881	O88	0.287400	0.021700	0.131300
P291	P29	0.369040	0.716940	0.525940
P301	P30	0.642170	0.712820	0.519410
P311	P31	0.464080	0.526200	0.741920
P321	P32	0.250090	0.068130	0.215760
H451	H45	0.180000	0.063000	0.217000
H461	H46	0.670000	0.694000	0.617000
H471	H47	0.412000	0.749000	0.610000
H481	H48	0.428000	0.641000	0.750000
In91	In9	0.000000	0.000000	0.000000
In101	In10	0.500000	0.500000	0.000000
In111	In11	0.000000	0.000000	0.500000
In121	In12	0.500000	0.500000	0.500000
