data_OPOYUO_clean_PM
_symmetry_space_group_name_H-M	'P1'
_cell_length_a	8.771300
_cell_length_b	15.899400
_cell_length_c	18.164700
_cell_angle_alpha	90.000000
_cell_angle_beta	90.000000
_cell_angle_gamma	90.004100
_symmetry_Int_Tables_number 1

loop_
_symmetry_equiv_pos_as_xyz
'x,y,z'

loop_
_atom_site_label
_atom_site_type_symbol
_atom_site_fract_x
_atom_site_fract_y
_atom_site_fract_z
Zn11	Zn1	0.613240	0.567080	0.480770
Zn21	Zn2	0.386760	0.932920	0.980770
Zn31	Zn3	0.386760	0.432920	0.519230
Zn41	Zn4	0.613240	0.067080	0.019230
H11	H1	0.098300	0.580500	0.666200
H21	H2	0.454900	0.740300	0.644500
H31	H3	0.334000	0.836600	0.721700
H41	H4	0.151600	0.927400	0.808400
H51	H5	0.954200	0.982500	0.879300
H61	H6	0.693800	0.776100	0.840600
H71	H7	0.986900	0.622300	0.846200
H81	H8	0.918200	0.561900	0.784100
H91	H9	0.806300	0.616300	0.834800
H101	H10	0.793400	0.726300	0.661600
H111	H11	0.686500	0.680600	0.720800
H121	H12	0.798100	0.626100	0.669900
H131	H13	0.946100	0.614700	0.513900
H141	H14	0.092000	0.736100	0.526300
H151	H15	0.726300	0.870400	0.460300
H161	H16	0.592700	0.746400	0.448600
H171	H17	0.114900	0.892400	0.520800
H181	H18	0.901700	0.919500	0.166200
H191	H19	0.545100	0.759700	0.144500
H201	H20	0.666000	0.663400	0.221700
H211	H21	0.848400	0.572600	0.308400
H221	H22	0.045800	0.517500	0.379300
H231	H23	0.306200	0.723900	0.340600
H241	H24	0.013100	0.877700	0.346200
H251	H25	0.081800	0.938100	0.284100
H261	H26	0.193700	0.883700	0.334800
H271	H27	0.206600	0.773700	0.161600
H281	H28	0.313500	0.819400	0.220800
H291	H29	0.201900	0.873900	0.169900
H301	H30	0.053900	0.885300	0.013900
H311	H31	0.908000	0.763900	0.026300
H321	H32	0.273700	0.629600	0.960300
H331	H33	0.407300	0.753600	0.948600
H341	H34	0.885100	0.607600	0.020800
H351	H35	0.901700	0.419500	0.333800
H361	H36	0.545100	0.259700	0.355500
H371	H37	0.666000	0.163400	0.278300
H381	H38	0.848400	0.072600	0.191600
H391	H39	0.045800	0.017500	0.120700
H401	H40	0.306200	0.223900	0.159400
H411	H41	0.013100	0.377700	0.153800
H421	H42	0.081800	0.438100	0.215900
H431	H43	0.193700	0.383700	0.165200
H441	H44	0.206600	0.273700	0.338400
H451	H45	0.313500	0.319400	0.279200
H461	H46	0.201900	0.373900	0.330100
H471	H47	0.053900	0.385300	0.486100
H481	H48	0.908000	0.263900	0.473700
H491	H49	0.273700	0.129600	0.539700
H501	H50	0.407300	0.253600	0.551400
H511	H51	0.885100	0.107600	0.479200
H521	H52	0.098300	0.080500	0.833800
H531	H53	0.454900	0.240300	0.855500
H541	H54	0.334000	0.336600	0.778300
H551	H55	0.151600	0.427400	0.691600
H561	H56	0.954200	0.482500	0.620700
H571	H57	0.693800	0.276100	0.659400
H581	H58	0.986900	0.122300	0.653800
H591	H59	0.918200	0.061900	0.715900
H601	H60	0.806300	0.116300	0.665200
H611	H61	0.793400	0.226300	0.838400
H621	H62	0.686500	0.180600	0.779200
H631	H63	0.798100	0.126100	0.830100
H641	H64	0.946100	0.114700	0.986100
H651	H65	0.092000	0.236100	0.973700
H661	H66	0.726300	0.370400	0.039700
H671	H67	0.592700	0.246400	0.051400
H681	H68	0.114900	0.392400	0.979200
C11	C1	0.145000	0.633200	0.676400
C21	C2	0.288300	0.651100	0.648200
C31	C3	0.357400	0.727600	0.664400
C41	C4	0.284900	0.785200	0.709300
C51	C5	0.059300	0.897000	0.814800
C61	C6	0.941500	0.929300	0.856100
C71	C7	0.804600	0.886600	0.865000
C81	C8	0.785900	0.806500	0.833800
C91	C9	0.912300	0.687500	0.754400
C101	C10	0.069500	0.692000	0.719700
C111	C11	0.141400	0.768100	0.736000
C121	C12	0.038500	0.817600	0.782600
C131	C13	0.903400	0.772800	0.793100
C141	C14	0.905300	0.615600	0.809800
C151	C15	0.786200	0.679400	0.696500
C161	C16	0.366900	0.589400	0.599500
C171	C17	0.681600	0.926200	0.909700
C181	C18	0.900900	0.667500	0.502800
C191	C19	0.988800	0.739800	0.510700
C201	C20	0.923600	0.817000	0.495700
C211	C21	0.774200	0.818400	0.471900
C221	C22	0.695400	0.744300	0.465000
C231	C23	0.011400	0.895200	0.505600
C241	C24	0.855000	0.866800	0.176400
C251	C25	0.711700	0.848900	0.148200
C261	C26	0.642600	0.772400	0.164400
C271	C27	0.715100	0.714800	0.209300
C281	C28	0.940700	0.603000	0.314800
C291	C29	0.058500	0.570700	0.356100
C301	C30	0.195400	0.613400	0.365000
C311	C31	0.214100	0.693500	0.333800
C321	C32	0.087700	0.812500	0.254400
C331	C33	0.930500	0.808000	0.219700
C341	C34	0.858600	0.731900	0.236000
C351	C35	0.961500	0.682400	0.282600
C361	C36	0.096600	0.727200	0.293100
C371	C37	0.094700	0.884400	0.309800
C381	C38	0.213800	0.820600	0.196500
C391	C39	0.633100	0.910600	0.099500
C401	C40	0.318400	0.573800	0.409700
C411	C41	0.099100	0.832500	0.002800
C421	C42	0.011200	0.760200	0.010700
C431	C43	0.076400	0.683000	0.995700
C441	C44	0.225800	0.681600	0.971900
C451	C45	0.304600	0.755700	0.965000
C461	C46	0.988600	0.604800	0.005600
C471	C47	0.855000	0.366800	0.323600
C481	C48	0.711700	0.348900	0.351800
C491	C49	0.642600	0.272400	0.335600
C501	C50	0.715100	0.214800	0.290700
C511	C51	0.940700	0.103000	0.185200
C521	C52	0.058500	0.070700	0.143900
C531	C53	0.195400	0.113400	0.135000
C541	C54	0.214100	0.193500	0.166200
C551	C55	0.087700	0.312500	0.245600
C561	C56	0.930500	0.308000	0.280300
C571	C57	0.858600	0.231900	0.264000
C581	C58	0.961500	0.182400	0.217400
C591	C59	0.096600	0.227200	0.206900
C601	C60	0.094700	0.384400	0.190200
C611	C61	0.213800	0.320600	0.303500
C621	C62	0.633100	0.410600	0.400500
C631	C63	0.318400	0.073800	0.090300
C641	C64	0.099100	0.332500	0.497200
C651	C65	0.011200	0.260200	0.489300
C661	C66	0.076400	0.183000	0.504300
C671	C67	0.225800	0.181600	0.528100
C681	C68	0.304600	0.255700	0.535000
C691	C69	0.988600	0.104800	0.494400
C701	C70	0.145000	0.133200	0.823600
C711	C71	0.288300	0.151100	0.851800
C721	C72	0.357400	0.227600	0.835600
C731	C73	0.284900	0.285200	0.790700
C741	C74	0.059300	0.397000	0.685200
C751	C75	0.941500	0.429300	0.643900
C761	C76	0.804600	0.386600	0.635000
C771	C77	0.785900	0.306500	0.666200
C781	C78	0.912300	0.187500	0.745600
C791	C79	0.069500	0.192000	0.780300
C801	C80	0.141400	0.268100	0.764000
C811	C81	0.038500	0.317600	0.717400
C821	C82	0.903400	0.272800	0.706900
C831	C83	0.905300	0.115600	0.690200
C841	C84	0.786200	0.179400	0.803500
C851	C85	0.366900	0.089400	0.900500
C861	C86	0.681600	0.426200	0.590300
C871	C87	0.900900	0.167500	0.997200
C881	C88	0.988800	0.239800	0.989300
C891	C89	0.923600	0.317000	0.004300
C901	C90	0.774200	0.318400	0.028100
C911	C91	0.695400	0.244300	0.035000
C921	C92	0.011400	0.395200	0.994400
N11	N1	0.756500	0.668930	0.480460
N21	N2	0.949800	0.966200	0.494000
N31	N3	0.243500	0.831070	0.980460
N41	N4	0.050200	0.533800	0.994000
N51	N5	0.243500	0.331070	0.519540
N61	N6	0.050200	0.033800	0.506000
N71	N7	0.756500	0.168930	0.019540
N81	N8	0.949800	0.466200	0.006000
O11	O1	0.311900	0.515990	0.595550
O21	O2	0.481100	0.615250	0.564220
O31	O3	0.717000	0.992870	0.943340
O41	O4	0.553300	0.891440	0.911830
O51	O5	0.688100	0.984010	0.095550
O61	O6	0.518900	0.884750	0.064220
O71	O7	0.283000	0.507130	0.443340
O81	O8	0.446700	0.608560	0.411830
O91	O9	0.688100	0.484010	0.404450
O101	O10	0.518900	0.384750	0.435780
O111	O11	0.283000	0.007130	0.056660
O121	O12	0.446700	0.108560	0.088170
O131	O13	0.311900	0.015990	0.904450
O141	O14	0.481100	0.115250	0.935780
O151	O15	0.717000	0.492870	0.556660
O161	O16	0.553300	0.391440	0.588170
