data_OPUDIN_clean_PM
_symmetry_space_group_name_H-M	'P1'
_cell_length_a	5.551200
_cell_length_b	9.785800
_cell_length_c	12.938200
_cell_angle_alpha	86.877000
_cell_angle_beta	87.809000
_cell_angle_gamma	76.451000
_symmetry_Int_Tables_number 1

loop_
_symmetry_equiv_pos_as_xyz
'x,y,z'

loop_
_atom_site_label
_atom_site_type_symbol
_atom_site_fract_x
_atom_site_fract_y
_atom_site_fract_z
Zn11	Zn1	0.083200	0.623550	0.812800
Zn21	Zn2	0.532500	0.020990	0.492770
Zn31	Zn3	0.801230	0.079700	0.919150
P11	P1	0.003210	0.835880	0.606470
P21	P2	0.769240	0.773830	0.013550
O11	O1	0.982400	0.706500	0.674940
O21	O2	0.819600	0.858900	0.519980
O31	O3	0.269100	0.825100	0.566900
O41	O4	0.062800	0.975900	0.776900
H11	H1	0.189000	0.000000	0.751000
O51	O5	0.486000	0.056100	0.650610
O61	O6	0.592500	0.022300	0.812960
O71	O7	0.492300	0.813400	0.996780
O81	O8	0.882300	0.901700	0.013970
O91	O9	0.904400	0.665600	0.941170
O101	O10	0.690600	0.582100	0.159810
H21	H2	0.555000	0.618000	0.160000
O111	O11	0.221000	0.723800	0.166560
O121	O12	0.143900	0.517900	0.212490
C11	C1	0.919700	0.993400	0.685200
H31	H3	0.955000	0.081000	0.644000
C21	C2	0.648500	0.025600	0.718500
C31	C3	0.810300	0.695700	0.146000
H41	H4	0.744000	0.771000	0.191000
C41	C4	0.076600	0.641300	0.176430
Zn41	Zn4	0.916800	0.376450	0.187200
Zn51	Zn5	0.467500	0.979010	0.507230
Zn61	Zn6	0.198770	0.920300	0.080850
P31	P3	0.996790	0.164120	0.393530
P41	P4	0.230760	0.226170	0.986450
O131	O13	0.017600	0.293500	0.325060
O141	O14	0.180400	0.141100	0.480020
O151	O15	0.730900	0.174900	0.433100
O161	O16	0.937200	0.024100	0.223100
H51	H5	0.811000	0.000000	0.249000
O171	O17	0.514000	0.943900	0.349390
O181	O18	0.407500	0.977700	0.187040
O191	O19	0.507700	0.186600	0.003220
O201	O20	0.117700	0.098300	0.986030
O211	O21	0.095600	0.334400	0.058830
O221	O22	0.309400	0.417900	0.840190
H61	H6	0.445000	0.382000	0.840000
O231	O23	0.779000	0.276200	0.833440
O241	O24	0.856100	0.482100	0.787510
C51	C5	0.080300	0.006600	0.314800
H71	H7	0.045000	0.919000	0.356000
C61	C6	0.351500	0.974400	0.281500
C71	C7	0.189700	0.304300	0.854000
H81	H8	0.256000	0.229000	0.809000
C81	C8	0.923400	0.358700	0.823570
