data_OPURIB_clean_PM
_symmetry_space_group_name_H-M	'P1'
_cell_length_a	4.873000
_cell_length_b	13.133000
_cell_length_c	13.299700
_cell_angle_alpha	90.000000
_cell_angle_beta	100.552000
_cell_angle_gamma	90.000000
_symmetry_Int_Tables_number 1

loop_
_symmetry_equiv_pos_as_xyz
'x,y,z'

loop_
_atom_site_label
_atom_site_type_symbol
_atom_site_fract_x
_atom_site_fract_y
_atom_site_fract_z
Ce11	Ce1	0.735760	0.396260	0.211980
Ce21	Ce2	0.264240	0.896260	0.788020
H11	H1	0.706200	0.921500	0.129100
H21	H2	0.247700	0.713400	0.052500
H31	H3	0.315700	0.794800	0.346200
H41	H4	0.914000	0.887200	0.377500
H51	H5	0.775300	0.981200	0.313900
H61	H6	0.189700	0.102000	0.273500
H71	H7	0.847500	0.156400	0.501000
H81	H8	0.284000	0.933300	0.512800
H91	H9	0.557200	0.656600	0.354300
H101	H10	0.293800	0.421500	0.870900
H111	H11	0.752300	0.213400	0.947500
H121	H12	0.684300	0.294800	0.653800
H131	H13	0.086000	0.387200	0.622500
H141	H14	0.224700	0.481200	0.686100
H151	H15	0.810300	0.602000	0.726500
H161	H16	0.152500	0.656400	0.499000
H171	H17	0.716000	0.433300	0.487200
H181	H18	0.442800	0.156600	0.645700
C11	C1	0.878300	0.890000	0.149400
C21	C2	0.985700	0.825200	0.075400
C31	C3	0.196000	0.754500	0.102800
C41	C4	0.331400	0.743300	0.202800
C51	C5	0.244900	0.808500	0.277800
C61	C6	0.027000	0.907000	0.251700
C71	C7	0.946600	0.942400	0.332600
C81	C8	0.184100	0.010700	0.385100
C91	C9	0.285100	0.086200	0.338800
C101	C10	0.517300	0.145100	0.375500
C111	C11	0.684700	0.121900	0.473200
C121	C12	0.566700	0.035500	0.525000
C131	C13	0.342600	0.988500	0.478400
C141	C14	0.534400	0.673400	0.231000
C151	C15	0.737000	0.002000	0.626100
C161	C16	0.599600	0.231400	0.315900
C171	C17	0.836800	0.842900	0.965200
C181	C18	0.121700	0.390000	0.850600
C191	C19	0.014300	0.325200	0.924600
C201	C20	0.804000	0.254500	0.897200
C211	C21	0.668600	0.243300	0.797200
C221	C22	0.755100	0.308500	0.722200
C231	C23	0.973000	0.407000	0.748300
C241	C24	0.053400	0.442400	0.667400
C251	C25	0.815900	0.510700	0.614900
C261	C26	0.714900	0.586200	0.661200
C271	C27	0.482700	0.645100	0.624500
C281	C28	0.315300	0.621900	0.526800
C291	C29	0.433300	0.535500	0.475000
C301	C30	0.657400	0.488500	0.521600
C311	C31	0.465600	0.173400	0.769000
C321	C32	0.263000	0.502000	0.373900
C331	C33	0.400400	0.731400	0.684100
C341	C34	0.163200	0.342900	0.034800
O11	O1	0.818500	0.287000	0.355100
O21	O2	0.610500	0.892800	0.945900
O31	O3	0.674400	0.683100	0.321900
O41	O4	0.586900	0.598900	0.177700
O51	O5	0.475500	0.252800	0.227800
O61	O6	0.627500	0.949000	0.680700
O71	O7	0.975000	0.812100	0.891300
O81	O8	0.015000	0.025500	0.648000
O91	O9	0.181500	0.787000	0.644900
O101	O10	0.389500	0.392800	0.054100
O111	O11	0.325600	0.183100	0.678100
O121	O12	0.413100	0.098900	0.822300
O131	O13	0.524500	0.752800	0.772200
O141	O14	0.372500	0.449000	0.319300
O151	O15	0.025000	0.312100	0.108700
O161	O16	0.985000	0.525500	0.352000
