data_OQERUY_clean_PM
_symmetry_space_group_name_H-M	'P1'
_cell_length_a	7.217200
_cell_length_b	25.613000
_cell_length_c	30.660000
_cell_angle_alpha	90.000000
_cell_angle_beta	96.392000
_cell_angle_gamma	90.000000
_symmetry_Int_Tables_number 1

loop_
_symmetry_equiv_pos_as_xyz
'x,y,z'

loop_
_atom_site_label
_atom_site_type_symbol
_atom_site_fract_x
_atom_site_fract_y
_atom_site_fract_z
O11	O1	0.310800	0.383100	0.272500
O21	O2	0.895000	0.343300	0.194500
O31	O3	0.358000	0.987400	0.201200
O41	O4	0.651000	0.954900	0.195300
N11	N1	0.862000	0.220200	0.059200
N21	N2	0.954400	0.298500	0.999300
C11	C1	0.796000	0.180700	0.081000
C21	C2	0.916000	0.176400	0.123900
H11	H1	0.898900	0.153600	0.146800
C31	C3	0.046000	0.210100	0.123000
H21	H2	0.144100	0.213600	0.145200
C41	C4	0.024000	0.243500	0.082700
C51	C5	0.140000	0.280600	0.070900
C61	C6	0.110000	0.304800	0.031800
C71	C7	0.226000	0.344900	0.020000
H31	H3	0.336600	0.355300	0.036100
C81	C8	0.149000	0.367100	0.979800
H41	H4	0.194200	0.394900	0.964600
C91	C9	0.985000	0.336500	0.968000
C101	C10	0.637000	0.154500	0.070900
C111	C11	0.291000	0.298800	0.103400
C121	C12	0.255000	0.327500	0.140900
H51	H5	0.133800	0.337600	0.144100
C131	C13	0.392000	0.340400	0.171400
H61	H6	0.363300	0.356200	0.197200
C141	C14	0.574000	0.330800	0.165900
C151	C15	0.620000	0.303000	0.129900
H71	H7	0.743000	0.295400	0.126000
C161	C16	0.473000	0.287100	0.100000
H81	H8	0.500300	0.267200	0.076100
C171	C17	0.731000	0.354700	0.198200
C181	C18	0.597000	0.111200	0.099700
C191	C19	0.444000	0.111900	0.123500
H91	H9	0.360800	0.139800	0.120700
C201	C20	0.415000	0.070800	0.151600
H101	H10	0.312300	0.071300	0.167600
C211	C21	0.538000	0.029100	0.155900
C221	C22	0.691000	0.028400	0.132000
H111	H11	0.774100	0.000500	0.134800
C231	C23	0.720000	0.069500	0.103900
H121	H12	0.822600	0.069000	0.088000
C241	C24	0.510000	0.987000	0.189300
O51	O5	0.689200	0.383100	0.227500
O61	O6	0.105000	0.343300	0.305500
O71	O7	0.642000	0.987400	0.298800
O81	O8	0.349000	0.954900	0.304700
N31	N3	0.138000	0.220200	0.440800
N41	N4	0.045600	0.298500	0.500700
C251	C25	0.204000	0.180700	0.419000
C261	C26	0.084000	0.176400	0.376100
H131	H13	0.101100	0.153600	0.353200
C271	C27	0.954000	0.210100	0.377000
H141	H14	0.855900	0.213600	0.354800
C281	C28	0.976000	0.243500	0.417300
C291	C29	0.860000	0.280600	0.429100
C301	C30	0.890000	0.304800	0.468200
C311	C31	0.774000	0.344900	0.480000
H151	H15	0.663400	0.355300	0.463900
C321	C32	0.851000	0.367100	0.520200
H161	H16	0.805800	0.394900	0.535400
C331	C33	0.015000	0.336500	0.532000
C341	C34	0.363000	0.154500	0.429100
C351	C35	0.709000	0.298800	0.396600
C361	C36	0.745000	0.327500	0.359100
H171	H17	0.866200	0.337600	0.355900
C371	C37	0.608000	0.340400	0.328600
H181	H18	0.636700	0.356200	0.302800
C381	C38	0.426000	0.330800	0.334100
C391	C39	0.380000	0.303000	0.370100
H191	H19	0.257000	0.295400	0.374000
C401	C40	0.527000	0.287100	0.400000
H201	H20	0.499700	0.267200	0.423900
C411	C41	0.269000	0.354700	0.301800
C421	C42	0.403000	0.111200	0.400300
C431	C43	0.556000	0.111900	0.376500
H211	H21	0.639200	0.139800	0.379300
C441	C44	0.585000	0.070800	0.348400
H221	H22	0.687700	0.071300	0.332400
C451	C45	0.462000	0.029100	0.344100
C461	C46	0.309000	0.028400	0.368000
H231	H23	0.225900	0.000500	0.365200
C471	C47	0.280000	0.069500	0.396100
H241	H24	0.177400	0.069000	0.412000
C481	C48	0.490000	0.987000	0.310700
O91	O9	0.189200	0.116900	0.727500
O101	O10	0.605000	0.156700	0.805500
O111	O11	0.142000	0.512600	0.798800
O121	O12	0.849000	0.545100	0.804700
N51	N5	0.638000	0.279800	0.940800
N61	N6	0.545600	0.201500	0.000700
C491	C49	0.704000	0.319300	0.919000
C501	C50	0.584000	0.323600	0.876100
H251	H25	0.601100	0.346400	0.853200
C511	C51	0.454000	0.289900	0.877000
H261	H26	0.355900	0.286400	0.854800
C521	C52	0.476000	0.256500	0.917300
C531	C53	0.360000	0.219400	0.929100
C541	C54	0.390000	0.195200	0.968200
C551	C55	0.274000	0.155100	0.980000
H271	H27	0.163400	0.144700	0.963900
C561	C56	0.351000	0.132900	0.020200
H281	H28	0.305800	0.105100	0.035400
C571	C57	0.515000	0.163500	0.032000
C581	C58	0.863000	0.345500	0.929100
C591	C59	0.209000	0.201200	0.896600
C601	C60	0.245000	0.172500	0.859100
H291	H29	0.366200	0.162400	0.855900
C611	C61	0.108000	0.159600	0.828600
H301	H30	0.136700	0.143800	0.802800
C621	C62	0.926000	0.169200	0.834100
C631	C63	0.880000	0.197000	0.870100
H311	H31	0.757000	0.204600	0.874000
C641	C64	0.027000	0.212900	0.900000
H321	H32	0.999700	0.232800	0.923900
C651	C65	0.769000	0.145300	0.801800
C661	C66	0.903000	0.388800	0.900300
C671	C67	0.056000	0.388100	0.876500
H331	H33	0.139200	0.360200	0.879300
C681	C68	0.085000	0.429200	0.848400
H341	H34	0.187700	0.428700	0.832400
C691	C69	0.962000	0.470900	0.844100
C701	C70	0.809000	0.471600	0.868000
H351	H35	0.725900	0.499500	0.865200
C711	C71	0.780000	0.430500	0.896100
H361	H36	0.677400	0.431000	0.912000
C721	C72	0.990000	0.513000	0.810700
O131	O13	0.810800	0.116900	0.772500
O141	O14	0.395000	0.156700	0.694500
O151	O15	0.858000	0.512600	0.701200
O161	O16	0.151000	0.545100	0.695300
N71	N7	0.362000	0.279800	0.559200
N81	N8	0.454400	0.201500	0.499300
C731	C73	0.296000	0.319300	0.581000
C741	C74	0.416000	0.323600	0.623900
H371	H37	0.398900	0.346400	0.646800
C751	C75	0.546000	0.289900	0.623000
H381	H38	0.644100	0.286400	0.645200
C761	C76	0.524000	0.256500	0.582700
C771	C77	0.640000	0.219400	0.570900
C781	C78	0.610000	0.195200	0.531800
C791	C79	0.726000	0.155100	0.520000
H391	H39	0.836600	0.144700	0.536100
C801	C80	0.649000	0.132900	0.479800
H401	H40	0.694200	0.105100	0.464600
C811	C81	0.485000	0.163500	0.468000
C821	C82	0.137000	0.345500	0.570900
C831	C83	0.791000	0.201200	0.603400
C841	C84	0.755000	0.172500	0.640900
H411	H41	0.633800	0.162400	0.644100
C851	C85	0.892000	0.159600	0.671400
H421	H42	0.863300	0.143800	0.697200
C861	C86	0.074000	0.169200	0.665900
C871	C87	0.120000	0.197000	0.629900
H431	H43	0.243000	0.204600	0.626000
C881	C88	0.973000	0.212900	0.600000
H441	H44	0.000300	0.232800	0.576100
C891	C89	0.231000	0.145300	0.698200
C901	C90	0.097000	0.388800	0.599700
C911	C91	0.944000	0.388100	0.623500
H451	H45	0.860800	0.360200	0.620700
C921	C92	0.915000	0.429200	0.651600
H461	H46	0.812300	0.428700	0.667600
C931	C93	0.038000	0.470900	0.655900
C941	C94	0.191000	0.471600	0.632000
H471	H47	0.274100	0.499500	0.634800
C951	C95	0.220000	0.430500	0.603900
H481	H48	0.322600	0.431000	0.588000
C961	C96	0.010000	0.513000	0.689300
Cd11	Cd1	0.000000	0.405050	0.250000
Cd21	Cd2	0.500000	0.094950	0.750000
Pd11	Pd1	0.750000	0.250000	0.000000
Pd21	Pd2	0.250000	0.250000	0.500000
O171	O17	0.810800	0.883100	0.272500
O181	O18	0.395000	0.843300	0.194500
O191	O19	0.858000	0.487400	0.201200
O201	O20	0.151000	0.454900	0.195300
N91	N9	0.362000	0.720200	0.059200
N101	N10	0.454400	0.798500	0.999300
C971	C97	0.296000	0.680700	0.081000
C981	C98	0.416000	0.676400	0.123900
H491	H49	0.398900	0.653600	0.146800
C991	C99	0.546000	0.710100	0.123000
H501	H50	0.644100	0.713600	0.145200
C1001	C100	0.524000	0.743500	0.082700
C1011	C101	0.640000	0.780600	0.070900
C1021	C102	0.610000	0.804800	0.031800
C1031	C103	0.726000	0.844900	0.020000
H511	H51	0.836600	0.855300	0.036100
C1041	C104	0.649000	0.867100	0.979800
H521	H52	0.694200	0.894900	0.964600
C1051	C105	0.485000	0.836500	0.968000
C1061	C106	0.137000	0.654500	0.070900
C1071	C107	0.791000	0.798800	0.103400
C1081	C108	0.755000	0.827500	0.140900
H531	H53	0.633800	0.837600	0.144100
C1091	C109	0.892000	0.840400	0.171400
H541	H54	0.863300	0.856200	0.197200
C1101	C110	0.074000	0.830800	0.165900
C1111	C111	0.120000	0.803000	0.129900
H551	H55	0.243000	0.795400	0.126000
C1121	C112	0.973000	0.787100	0.100000
H561	H56	0.000300	0.767200	0.076100
C1131	C113	0.231000	0.854700	0.198200
C1141	C114	0.097000	0.611200	0.099700
C1151	C115	0.944000	0.611900	0.123500
H571	H57	0.860800	0.639800	0.120700
C1161	C116	0.915000	0.570800	0.151600
H581	H58	0.812300	0.571300	0.167600
C1171	C117	0.038000	0.529100	0.155900
C1181	C118	0.191000	0.528400	0.132000
H591	H59	0.274100	0.500500	0.134800
C1191	C119	0.220000	0.569500	0.103900
H601	H60	0.322600	0.569000	0.088000
C1201	C120	0.010000	0.487000	0.189300
O211	O21	0.189200	0.883100	0.227500
O221	O22	0.605000	0.843300	0.305500
O231	O23	0.142000	0.487400	0.298800
O241	O24	0.849000	0.454900	0.304700
N111	N11	0.638000	0.720200	0.440800
N121	N12	0.545600	0.798500	0.500700
C1211	C121	0.704000	0.680700	0.419000
C1221	C122	0.584000	0.676400	0.376100
H611	H61	0.601100	0.653600	0.353200
C1231	C123	0.454000	0.710100	0.377000
H621	H62	0.355900	0.713600	0.354800
C1241	C124	0.476000	0.743500	0.417300
C1251	C125	0.360000	0.780600	0.429100
C1261	C126	0.390000	0.804800	0.468200
C1271	C127	0.274000	0.844900	0.480000
H631	H63	0.163400	0.855300	0.463900
C1281	C128	0.351000	0.867100	0.520200
H641	H64	0.305800	0.894900	0.535400
C1291	C129	0.515000	0.836500	0.532000
C1301	C130	0.863000	0.654500	0.429100
C1311	C131	0.209000	0.798800	0.396600
C1321	C132	0.245000	0.827500	0.359100
H651	H65	0.366200	0.837600	0.355900
C1331	C133	0.108000	0.840400	0.328600
H661	H66	0.136700	0.856200	0.302800
C1341	C134	0.926000	0.830800	0.334100
C1351	C135	0.880000	0.803000	0.370100
H671	H67	0.757000	0.795400	0.374000
C1361	C136	0.027000	0.787100	0.400000
H681	H68	0.999700	0.767200	0.423900
C1371	C137	0.769000	0.854700	0.301800
C1381	C138	0.903000	0.611200	0.400300
C1391	C139	0.056000	0.611900	0.376500
H691	H69	0.139200	0.639800	0.379300
C1401	C140	0.085000	0.570800	0.348400
H701	H70	0.187700	0.571300	0.332400
C1411	C141	0.962000	0.529100	0.344100
C1421	C142	0.809000	0.528400	0.368000
H711	H71	0.725900	0.500500	0.365200
C1431	C143	0.780000	0.569500	0.396100
H721	H72	0.677400	0.569000	0.412000
C1441	C144	0.990000	0.487000	0.310700
O251	O25	0.689200	0.616900	0.727500
O261	O26	0.105000	0.656700	0.805500
O271	O27	0.642000	0.012600	0.798800
O281	O28	0.349000	0.045100	0.804700
N131	N13	0.138000	0.779800	0.940800
N141	N14	0.045600	0.701500	0.000700
C1451	C145	0.204000	0.819300	0.919000
C1461	C146	0.084000	0.823600	0.876100
H731	H73	0.101100	0.846400	0.853200
C1471	C147	0.954000	0.789900	0.877000
H741	H74	0.855900	0.786400	0.854800
C1481	C148	0.976000	0.756500	0.917300
C1491	C149	0.860000	0.719400	0.929100
C1501	C150	0.890000	0.695200	0.968200
C1511	C151	0.774000	0.655100	0.980000
H751	H75	0.663400	0.644700	0.963900
C1521	C152	0.851000	0.632900	0.020200
H761	H76	0.805800	0.605100	0.035400
C1531	C153	0.015000	0.663500	0.032000
C1541	C154	0.363000	0.845500	0.929100
C1551	C155	0.709000	0.701200	0.896600
C1561	C156	0.745000	0.672500	0.859100
H771	H77	0.866200	0.662400	0.855900
C1571	C157	0.608000	0.659600	0.828600
H781	H78	0.636700	0.643800	0.802800
C1581	C158	0.426000	0.669200	0.834100
C1591	C159	0.380000	0.697000	0.870100
H791	H79	0.257000	0.704600	0.874000
C1601	C160	0.527000	0.712900	0.900000
H801	H80	0.499700	0.732800	0.923900
C1611	C161	0.269000	0.645300	0.801800
C1621	C162	0.403000	0.888800	0.900300
C1631	C163	0.556000	0.888100	0.876500
H811	H81	0.639200	0.860200	0.879300
C1641	C164	0.585000	0.929200	0.848400
H821	H82	0.687700	0.928700	0.832400
C1651	C165	0.462000	0.970900	0.844100
C1661	C166	0.309000	0.971600	0.868000
H831	H83	0.225900	0.999500	0.865200
C1671	C167	0.280000	0.930500	0.896100
H841	H84	0.177400	0.931000	0.912000
C1681	C168	0.490000	0.013000	0.810700
O291	O29	0.310800	0.616900	0.772500
O301	O30	0.895000	0.656700	0.694500
O311	O31	0.358000	0.012600	0.701200
O321	O32	0.651000	0.045100	0.695300
N151	N15	0.862000	0.779800	0.559200
N161	N16	0.954400	0.701500	0.499300
C1691	C169	0.796000	0.819300	0.581000
C1701	C170	0.916000	0.823600	0.623900
H851	H85	0.898900	0.846400	0.646800
C1711	C171	0.046000	0.789900	0.623000
H861	H86	0.144100	0.786400	0.645200
C1721	C172	0.024000	0.756500	0.582700
C1731	C173	0.140000	0.719400	0.570900
C1741	C174	0.110000	0.695200	0.531800
C1751	C175	0.226000	0.655100	0.520000
H871	H87	0.336600	0.644700	0.536100
C1761	C176	0.149000	0.632900	0.479800
H881	H88	0.194200	0.605100	0.464600
C1771	C177	0.985000	0.663500	0.468000
C1781	C178	0.637000	0.845500	0.570900
C1791	C179	0.291000	0.701200	0.603400
C1801	C180	0.255000	0.672500	0.640900
H891	H89	0.133800	0.662400	0.644100
C1811	C181	0.392000	0.659600	0.671400
H901	H90	0.363300	0.643800	0.697200
C1821	C182	0.574000	0.669200	0.665900
C1831	C183	0.620000	0.697000	0.629900
H911	H91	0.743000	0.704600	0.626000
C1841	C184	0.473000	0.712900	0.600000
H921	H92	0.500300	0.732800	0.576100
C1851	C185	0.731000	0.645300	0.698200
C1861	C186	0.597000	0.888800	0.599700
C1871	C187	0.444000	0.888100	0.623500
H931	H93	0.360800	0.860200	0.620700
C1881	C188	0.415000	0.929200	0.651600
H941	H94	0.312300	0.928700	0.667600
C1891	C189	0.538000	0.970900	0.655900
C1901	C190	0.691000	0.971600	0.632000
H951	H95	0.774100	0.999500	0.634800
C1911	C191	0.720000	0.930500	0.603900
H961	H96	0.822600	0.931000	0.588000
C1921	C192	0.510000	0.013000	0.689300
Cd31	Cd3	0.500000	0.905050	0.250000
Cd41	Cd4	0.000000	0.594950	0.750000
Pd31	Pd3	0.250000	0.750000	0.000000
Pd41	Pd4	0.750000	0.750000	0.500000
