data_OQESEJ_clean_PM
_symmetry_space_group_name_H-M	'P1'
_cell_length_a	7.275100
_cell_length_b	13.302300
_cell_length_c	30.774900
_cell_angle_alpha	88.232100
_cell_angle_beta	83.522100
_cell_angle_gamma	74.130200
_symmetry_Int_Tables_number 1

loop_
_symmetry_equiv_pos_as_xyz
'x,y,z'

loop_
_atom_site_label
_atom_site_type_symbol
_atom_site_fract_x
_atom_site_fract_y
_atom_site_fract_z
Cd11	Cd1	0.155730	0.688540	0.250000
Cd21	Cd2	0.844270	0.311460	0.750000
H11	H1	0.897500	0.197600	0.144300
H21	H2	0.203800	0.074600	0.145600
H31	H3	0.651300	0.782400	0.038200
H41	H4	0.622800	0.715000	0.964300
H51	H5	0.317300	0.835600	0.144400
H61	H6	0.531200	0.780000	0.195800
H71	H7	0.900500	0.916200	0.128500
H81	H8	0.694500	0.968800	0.076000
H91	H9	0.388500	0.214000	0.119600
H101	H10	0.210900	0.347600	0.166400
H111	H11	0.601400	0.508200	0.134900
H121	H12	0.778900	0.374800	0.088100
H131	H13	0.904900	0.197600	0.355700
H141	H14	0.721600	0.074600	0.354400
H151	H15	0.566300	0.782400	0.461800
H161	H16	0.662200	0.715000	0.535700
H171	H17	0.847100	0.835600	0.355600
H181	H18	0.688800	0.780000	0.304200
H191	H19	0.183300	0.916200	0.371500
H201	H20	0.336700	0.968800	0.424000
H211	H21	0.397500	0.214000	0.380400
H221	H22	0.441500	0.347600	0.333600
H231	H23	0.890400	0.508200	0.365100
H241	H24	0.846300	0.374800	0.411900
H251	H25	0.102500	0.802400	0.855700
H261	H26	0.796200	0.925400	0.854400
H271	H27	0.348700	0.217600	0.961800
H281	H28	0.377200	0.285000	0.035700
H291	H29	0.682700	0.164400	0.855600
H301	H30	0.468800	0.220000	0.804200
H311	H31	0.099500	0.083800	0.871500
H321	H32	0.305500	0.031200	0.924000
H331	H33	0.611500	0.786000	0.880400
H341	H34	0.789100	0.652400	0.833600
H351	H35	0.398600	0.491800	0.865100
H361	H36	0.221100	0.625200	0.911900
H371	H37	0.095100	0.802400	0.644300
H381	H38	0.278400	0.925400	0.645600
H391	H39	0.433700	0.217600	0.538200
H401	H40	0.337800	0.285000	0.464300
H411	H41	0.152900	0.164400	0.644400
H421	H42	0.311200	0.220000	0.695800
H431	H43	0.816700	0.083800	0.628500
H441	H44	0.663300	0.031200	0.576000
H451	H45	0.602500	0.786000	0.619600
H461	H46	0.558500	0.652400	0.666400
H471	H47	0.109600	0.491800	0.634900
H481	H48	0.153700	0.625200	0.588100
Pd11	Pd1	0.000000	0.000000	0.000000
Pd21	Pd2	0.000000	0.000000	0.500000
C11	C1	0.894400	0.135000	0.081600
C21	C2	0.961200	0.149600	0.122500
C31	C3	0.127000	0.082000	0.122900
C41	C4	0.178900	0.018800	0.083300
C51	C5	0.343300	0.941000	0.071400
C61	C6	0.382700	0.889000	0.033200
C71	C7	0.548600	0.806800	0.021600
C81	C8	0.532200	0.767600	0.980400
C91	C9	0.352800	0.824200	0.968800
C101	C10	0.719700	0.193600	0.068800
C111	C11	0.481900	0.910600	0.105400
C121	C12	0.434700	0.851800	0.141200
C131	C13	0.563400	0.818000	0.171600
C141	C14	0.741700	0.840000	0.166600
C151	C15	0.784500	0.898600	0.131300
C161	C16	0.660100	0.932000	0.100300
C171	C17	0.883800	0.793400	0.198700
C181	C18	0.601400	0.281200	0.099200
C191	C19	0.431100	0.273000	0.122700
C201	C20	0.324500	0.353000	0.150700
C211	C21	0.388400	0.441200	0.155300
C221	C22	0.558300	0.449400	0.131800
C231	C23	0.665400	0.369200	0.103800
C241	C24	0.285600	0.526800	0.189100
C251	C25	0.970600	0.135000	0.418400
C261	C26	0.889200	0.149600	0.377500
C271	C27	0.791000	0.082000	0.377100
C281	C28	0.802300	0.018800	0.416700
C291	C29	0.715700	0.941000	0.428600
C301	C30	0.728300	0.889000	0.466800
C311	C31	0.644600	0.806800	0.478400
C321	C32	0.700200	0.767600	0.519600
C331	C33	0.823000	0.824200	0.531200
C341	C34	0.086700	0.193600	0.431200
C351	C35	0.607500	0.910600	0.394600
C361	C36	0.713500	0.851800	0.358800
C371	C37	0.618600	0.818000	0.328400
C381	C38	0.418300	0.840000	0.333400
C391	C39	0.316900	0.898600	0.368700
C401	C40	0.407900	0.932000	0.399700
C411	C41	0.322800	0.793400	0.301300
C421	C42	0.117400	0.281200	0.400800
C431	C43	0.295900	0.273000	0.377300
C441	C44	0.322500	0.353000	0.349300
C451	C45	0.170400	0.441200	0.344700
C461	C46	0.992300	0.449400	0.368200
C471	C47	0.965400	0.369200	0.396200
C481	C48	0.187600	0.526800	0.310900
C491	C49	0.105600	0.865000	0.918400
C501	C50	0.038800	0.850400	0.877500
C511	C51	0.873000	0.918000	0.877100
C521	C52	0.821100	0.981200	0.916700
C531	C53	0.656700	0.059000	0.928600
C541	C54	0.617300	0.111000	0.966800
C551	C55	0.451400	0.193200	0.978400
C561	C56	0.467800	0.232400	0.019600
C571	C57	0.647200	0.175800	0.031200
C581	C58	0.280300	0.806400	0.931200
C591	C59	0.518100	0.089400	0.894600
C601	C60	0.565300	0.148200	0.858800
C611	C61	0.436600	0.182000	0.828400
C621	C62	0.258300	0.160000	0.833400
C631	C63	0.215500	0.101400	0.868700
C641	C64	0.339900	0.068000	0.899700
C651	C65	0.116200	0.206600	0.801300
C661	C66	0.398600	0.718800	0.900800
C671	C67	0.568900	0.727000	0.877300
C681	C68	0.675500	0.647000	0.849300
C691	C69	0.611600	0.558800	0.844700
C701	C70	0.441700	0.550600	0.868200
C711	C71	0.334600	0.630800	0.896200
C721	C72	0.714400	0.473200	0.810900
C731	C73	0.029400	0.865000	0.581600
C741	C74	0.110800	0.850400	0.622500
C751	C75	0.209000	0.918000	0.622900
C761	C76	0.197700	0.981200	0.583300
C771	C77	0.284300	0.059000	0.571400
C781	C78	0.271700	0.111000	0.533200
C791	C79	0.355400	0.193200	0.521600
C801	C80	0.299800	0.232400	0.480400
C811	C81	0.177000	0.175800	0.468800
C821	C82	0.913300	0.806400	0.568800
C831	C83	0.392500	0.089400	0.605400
C841	C84	0.286500	0.148200	0.641200
C851	C85	0.381400	0.182000	0.671600
C861	C86	0.581700	0.160000	0.666600
C871	C87	0.683100	0.101400	0.631300
C881	C88	0.592100	0.068000	0.600300
C891	C89	0.677200	0.206600	0.698700
C901	C90	0.882600	0.718800	0.599200
C911	C91	0.704100	0.727000	0.622700
C921	C92	0.677500	0.647000	0.650700
C931	C93	0.829600	0.558800	0.655300
C941	C94	0.007700	0.550600	0.631800
C951	C95	0.034600	0.630800	0.603800
C961	C96	0.812400	0.473200	0.689100
N11	N1	0.024800	0.056800	0.058800
N21	N2	0.259100	0.900800	0.999900
N31	N3	0.918400	0.056800	0.441200
N41	N4	0.840100	0.900800	0.500100
N51	N5	0.975200	0.943200	0.941200
N61	N6	0.740900	0.099200	0.000100
N71	N7	0.081600	0.943200	0.558800
N81	N8	0.159900	0.099200	0.499900
O11	O1	0.420300	0.733800	0.272200
O21	O2	0.042000	0.815800	0.194100
O31	O3	0.129900	0.518200	0.202700
O41	O4	0.388000	0.590000	0.193400
O51	O5	0.845900	0.733800	0.227800
O61	O6	0.142200	0.815800	0.305900
O71	O7	0.351900	0.518200	0.297300
O81	O8	0.022000	0.590000	0.306600
O91	O9	0.579700	0.266200	0.727800
O101	O10	0.958000	0.184200	0.805900
O111	O11	0.870100	0.481800	0.797300
O121	O12	0.612000	0.410000	0.806600
O131	O13	0.154100	0.266200	0.772200
O141	O14	0.857800	0.184200	0.694100
O151	O15	0.648100	0.481800	0.702700
O161	O16	0.978000	0.410000	0.693400
