data_OQETEK_clean_PM
_symmetry_space_group_name_H-M	'P1'
_cell_length_a	14.333000
_cell_length_b	14.642000
_cell_length_c	14.642000
_cell_angle_alpha	90.000000
_cell_angle_beta	90.000000
_cell_angle_gamma	90.000000
_symmetry_Int_Tables_number 1

loop_
_symmetry_equiv_pos_as_xyz
'x,y,z'

loop_
_atom_site_label
_atom_site_type_symbol
_atom_site_fract_x
_atom_site_fract_y
_atom_site_fract_z
Yb11	Yb1	0.515060	0.366540	0.586410
Yb21	Yb2	0.015060	0.633460	0.413590
Yb31	Yb3	0.765060	0.413590	0.366540
Yb41	Yb4	0.265060	0.586410	0.633460
H11	H1	0.895700	0.481400	0.555400
H21	H2	0.008100	0.515000	0.803400
H31	H3	0.758400	0.390200	0.774700
H41	H4	0.825300	0.311000	0.905300
H51	H5	0.798800	0.302400	0.059800
H61	H6	0.881400	0.561800	0.092500
H71	H7	0.915800	0.567600	0.935300
H81	H8	0.395700	0.518600	0.444600
H91	H9	0.508100	0.485000	0.196600
H101	H10	0.258400	0.609800	0.225300
H111	H11	0.325300	0.689000	0.094700
H121	H12	0.298800	0.697600	0.940200
H131	H13	0.381400	0.438200	0.907500
H141	H14	0.415800	0.432400	0.064700
H151	H15	0.145700	0.444600	0.481400
H161	H16	0.258100	0.196600	0.515000
H171	H17	0.008400	0.225300	0.390200
H181	H18	0.075300	0.094700	0.311000
H191	H19	0.048800	0.940200	0.302400
H201	H20	0.131400	0.907500	0.561800
H211	H21	0.165800	0.064700	0.567600
H221	H22	0.645700	0.555400	0.518600
H231	H23	0.758100	0.803400	0.485000
H241	H24	0.508400	0.774700	0.609800
H251	H25	0.575300	0.905300	0.689000
H261	H26	0.548800	0.059800	0.697600
H271	H27	0.631400	0.092500	0.438200
H281	H28	0.665800	0.935300	0.432400
C11	C1	0.816200	0.428800	0.655300
C21	C2	0.892600	0.471900	0.618100
C31	C3	0.965000	0.501100	0.673600
C41	C4	0.960300	0.492500	0.766900
C51	C5	0.882700	0.449500	0.807000
C61	C6	0.810500	0.418300	0.749400
C71	C7	0.737500	0.399200	0.599100
C81	C8	0.050400	0.543700	0.630300
C91	C9	0.872800	0.440700	0.906500
C101	C10	0.837700	0.360900	0.942700
C111	C11	0.821400	0.356400	0.034700
C121	C12	0.837800	0.430600	0.091100
C131	C13	0.871600	0.511200	0.055400
C141	C14	0.890800	0.514800	0.960700
C151	C15	0.812100	0.423900	0.189100
C161	C16	0.316200	0.571200	0.344700
C171	C17	0.392600	0.528100	0.381900
C181	C18	0.465000	0.498900	0.326400
C191	C19	0.460300	0.507500	0.233100
C201	C20	0.382700	0.550500	0.193000
C211	C21	0.310500	0.581700	0.250600
C221	C22	0.237500	0.600800	0.400900
C231	C23	0.550400	0.456300	0.369700
C241	C24	0.372800	0.559300	0.093500
C251	C25	0.337700	0.639100	0.057300
C261	C26	0.321400	0.643600	0.965300
C271	C27	0.337800	0.569400	0.908900
C281	C28	0.371600	0.488800	0.944600
C291	C29	0.390800	0.485200	0.039300
C301	C30	0.312100	0.576100	0.810900
C311	C31	0.066200	0.344700	0.428800
C321	C32	0.142600	0.381900	0.471900
C331	C33	0.215000	0.326400	0.501100
C341	C34	0.210300	0.233100	0.492500
C351	C35	0.132700	0.193000	0.449500
C361	C36	0.060500	0.250600	0.418300
C371	C37	0.987500	0.400900	0.399200
C381	C38	0.300400	0.369700	0.543700
C391	C39	0.122800	0.093500	0.440700
C401	C40	0.087700	0.057300	0.360900
C411	C41	0.071400	0.965300	0.356400
C421	C42	0.087800	0.908900	0.430600
C431	C43	0.121600	0.944600	0.511200
C441	C44	0.140800	0.039300	0.514800
C451	C45	0.062100	0.810900	0.423900
C461	C46	0.566200	0.655300	0.571200
C471	C47	0.642600	0.618100	0.528100
C481	C48	0.715000	0.673600	0.498900
C491	C49	0.710300	0.766900	0.507500
C501	C50	0.632700	0.807000	0.550500
C511	C51	0.560500	0.749400	0.581700
C521	C52	0.487500	0.599100	0.600800
C531	C53	0.800400	0.630300	0.456300
C541	C54	0.622800	0.906500	0.559300
C551	C55	0.587700	0.942700	0.639100
C561	C56	0.571400	0.034700	0.643600
C571	C57	0.587800	0.091100	0.569400
C581	C58	0.621600	0.055400	0.488800
C591	C59	0.640800	0.960700	0.485200
C601	C60	0.562100	0.189100	0.576100
O11	O1	0.661600	0.385800	0.637700
O21	O2	0.748600	0.391700	0.514300
O31	O3	0.124000	0.540900	0.672700
O41	O4	0.040100	0.578600	0.551800
O51	O5	0.781700	0.350800	0.220300
O61	O6	0.825900	0.491700	0.239300
O71	O7	0.161600	0.614200	0.362300
O81	O8	0.248600	0.608300	0.485700
O91	O9	0.624000	0.459100	0.327300
O101	O10	0.540100	0.421400	0.448200
O111	O11	0.281700	0.649200	0.779700
O121	O12	0.325900	0.508300	0.760700
O131	O13	0.911600	0.362300	0.385800
O141	O14	0.998600	0.485700	0.391700
O151	O15	0.374000	0.327300	0.540900
O161	O16	0.290100	0.448200	0.578600
O171	O17	0.031700	0.779700	0.350800
O181	O18	0.075900	0.760700	0.491700
O191	O19	0.411600	0.637700	0.614200
O201	O20	0.498600	0.514300	0.608300
O211	O21	0.874000	0.672700	0.459100
O221	O22	0.790100	0.551800	0.421400
O231	O23	0.531700	0.220300	0.649200
O241	O24	0.575900	0.239300	0.508300
