data_OQIZUL_clean_PM
_symmetry_space_group_name_H-M	'P1'
_cell_length_a	26.446000
_cell_length_b	26.446000
_cell_length_c	26.446000
_cell_angle_alpha	90.000000
_cell_angle_beta	90.000000
_cell_angle_gamma	90.000000
_symmetry_Int_Tables_number 1

loop_
_symmetry_equiv_pos_as_xyz
'x,y,z'

loop_
_atom_site_label
_atom_site_type_symbol
_atom_site_fract_x
_atom_site_fract_y
_atom_site_fract_z
O11	O1	0.183330	0.052680	0.256790
O21	O2	0.183330	0.552680	0.756790
O31	O3	0.683330	0.052680	0.756790
O41	O4	0.683330	0.552680	0.256790
O51	O5	0.816670	0.947320	0.256790
O61	O6	0.816670	0.447320	0.756790
O71	O7	0.316670	0.947320	0.756790
O81	O8	0.316670	0.447320	0.256790
O91	O9	0.816670	0.052680	0.743210
O101	O10	0.816670	0.552680	0.243210
O111	O11	0.316670	0.052680	0.243210
O121	O12	0.316670	0.552680	0.743210
O131	O13	0.183330	0.947320	0.743210
O141	O14	0.183330	0.447320	0.243210
O151	O15	0.683330	0.947320	0.243210
O161	O16	0.683330	0.447320	0.743210
O171	O17	0.256790	0.183330	0.052680
O181	O18	0.256790	0.683330	0.552680
O191	O19	0.756790	0.183330	0.552680
O201	O20	0.756790	0.683330	0.052680
O211	O21	0.256790	0.816670	0.947320
O221	O22	0.256790	0.316670	0.447320
O231	O23	0.756790	0.816670	0.447320
O241	O24	0.756790	0.316670	0.947320
O251	O25	0.743210	0.816670	0.052680
O261	O26	0.743210	0.316670	0.552680
O271	O27	0.243210	0.816670	0.552680
O281	O28	0.243210	0.316670	0.052680
O291	O29	0.743210	0.183330	0.947320
O301	O30	0.743210	0.683330	0.447320
O311	O31	0.243210	0.183330	0.447320
O321	O32	0.243210	0.683330	0.947320
O331	O33	0.052680	0.256790	0.183330
O341	O34	0.052680	0.756790	0.683330
O351	O35	0.552680	0.256790	0.683330
O361	O36	0.552680	0.756790	0.183330
O371	O37	0.947320	0.256790	0.816670
O381	O38	0.947320	0.756790	0.316670
O391	O39	0.447320	0.256790	0.316670
O401	O40	0.447320	0.756790	0.816670
O411	O41	0.052680	0.743210	0.816670
O421	O42	0.052680	0.243210	0.316670
O431	O43	0.552680	0.743210	0.316670
O441	O44	0.552680	0.243210	0.816670
O451	O45	0.947320	0.743210	0.183330
O461	O46	0.947320	0.243210	0.683330
O471	O47	0.447320	0.743210	0.683330
O481	O48	0.447320	0.243210	0.183330
O491	O49	0.052680	0.183330	0.743210
O501	O50	0.052680	0.683330	0.243210
O511	O51	0.552680	0.183330	0.243210
O521	O52	0.552680	0.683330	0.743210
O531	O53	0.947320	0.816670	0.743210
O541	O54	0.947320	0.316670	0.243210
O551	O55	0.447320	0.816670	0.243210
O561	O56	0.447320	0.316670	0.743210
O571	O57	0.052680	0.816670	0.256790
O581	O58	0.052680	0.316670	0.756790
O591	O59	0.552680	0.816670	0.756790
O601	O60	0.552680	0.316670	0.256790
O611	O61	0.947320	0.183330	0.256790
O621	O62	0.947320	0.683330	0.756790
O631	O63	0.447320	0.183330	0.756790
O641	O64	0.447320	0.683330	0.256790
O651	O65	0.183330	0.256790	0.947320
O661	O66	0.183330	0.756790	0.447320
O671	O67	0.683330	0.256790	0.447320
O681	O68	0.683330	0.756790	0.947320
O691	O69	0.816670	0.256790	0.052680
O701	O70	0.816670	0.756790	0.552680
O711	O71	0.316670	0.256790	0.552680
O721	O72	0.316670	0.756790	0.052680
O731	O73	0.816670	0.743210	0.947320
O741	O74	0.816670	0.243210	0.447320
O751	O75	0.316670	0.743210	0.447320
O761	O76	0.316670	0.243210	0.947320
O771	O77	0.183330	0.743210	0.052680
O781	O78	0.183330	0.243210	0.552680
O791	O79	0.683330	0.743210	0.552680
O801	O80	0.683330	0.243210	0.052680
O811	O81	0.256790	0.052680	0.816670
O821	O82	0.256790	0.552680	0.316670
O831	O83	0.756790	0.052680	0.316670
O841	O84	0.756790	0.552680	0.816670
O851	O85	0.256790	0.947320	0.183330
O861	O86	0.256790	0.447320	0.683330
O871	O87	0.756790	0.947320	0.683330
O881	O88	0.756790	0.447320	0.183330
O891	O89	0.743210	0.052680	0.183330
O901	O90	0.743210	0.552680	0.683330
O911	O91	0.243210	0.052680	0.683330
O921	O92	0.243210	0.552680	0.183330
O931	O93	0.743210	0.947320	0.816670
O941	O94	0.743210	0.447320	0.316670
O951	O95	0.243210	0.947320	0.316670
O961	O96	0.243210	0.447320	0.816670
O971	O97	0.816670	0.947320	0.743210
O981	O98	0.816670	0.447320	0.243210
O991	O99	0.316670	0.947320	0.243210
O1001	O100	0.316670	0.447320	0.743210
O1011	O101	0.183330	0.052680	0.743210
O1021	O102	0.183330	0.552680	0.243210
O1031	O103	0.683330	0.052680	0.243210
O1041	O104	0.683330	0.552680	0.743210
O1051	O105	0.183330	0.947320	0.256790
O1061	O106	0.183330	0.447320	0.756790
O1071	O107	0.683330	0.947320	0.756790
O1081	O108	0.683330	0.447320	0.256790
O1091	O109	0.816670	0.052680	0.256790
O1101	O110	0.816670	0.552680	0.756790
O1111	O111	0.316670	0.052680	0.756790
O1121	O112	0.316670	0.552680	0.256790
O1131	O113	0.743210	0.816670	0.947320
O1141	O114	0.743210	0.316670	0.447320
O1151	O115	0.243210	0.816670	0.447320
O1161	O116	0.243210	0.316670	0.947320
O1171	O117	0.743210	0.183330	0.052680
O1181	O118	0.743210	0.683330	0.552680
O1191	O119	0.243210	0.183330	0.552680
O1201	O120	0.243210	0.683330	0.052680
O1211	O121	0.256790	0.183330	0.947320
O1221	O122	0.256790	0.683330	0.447320
O1231	O123	0.756790	0.183330	0.447320
O1241	O124	0.756790	0.683330	0.947320
O1251	O125	0.256790	0.816670	0.052680
O1261	O126	0.256790	0.316670	0.552680
O1271	O127	0.756790	0.816670	0.552680
O1281	O128	0.756790	0.316670	0.052680
O1291	O129	0.947320	0.743210	0.816670
O1301	O130	0.947320	0.243210	0.316670
O1311	O131	0.447320	0.743210	0.316670
O1321	O132	0.447320	0.243210	0.816670
O1331	O133	0.052680	0.743210	0.183330
O1341	O134	0.052680	0.243210	0.683330
O1351	O135	0.552680	0.743210	0.683330
O1361	O136	0.552680	0.243210	0.183330
O1371	O137	0.947320	0.256790	0.183330
O1381	O138	0.947320	0.756790	0.683330
O1391	O139	0.447320	0.256790	0.683330
O1401	O140	0.447320	0.756790	0.183330
O1411	O141	0.052680	0.256790	0.816670
O1421	O142	0.052680	0.756790	0.316670
O1431	O143	0.552680	0.256790	0.316670
O1441	O144	0.552680	0.756790	0.816670
O1451	O145	0.947320	0.816670	0.256790
O1461	O146	0.947320	0.316670	0.756790
O1471	O147	0.447320	0.816670	0.756790
O1481	O148	0.447320	0.316670	0.256790
O1491	O149	0.052680	0.183330	0.256790
O1501	O150	0.052680	0.683330	0.756790
O1511	O151	0.552680	0.183330	0.756790
O1521	O152	0.552680	0.683330	0.256790
O1531	O153	0.947320	0.183330	0.743210
O1541	O154	0.947320	0.683330	0.243210
O1551	O155	0.447320	0.183330	0.243210
O1561	O156	0.447320	0.683330	0.743210
O1571	O157	0.052680	0.816670	0.743210
O1581	O158	0.052680	0.316670	0.243210
O1591	O159	0.552680	0.816670	0.243210
O1601	O160	0.552680	0.316670	0.743210
O1611	O161	0.816670	0.743210	0.052680
O1621	O162	0.816670	0.243210	0.552680
O1631	O163	0.316670	0.743210	0.552680
O1641	O164	0.316670	0.243210	0.052680
O1651	O165	0.183330	0.743210	0.947320
O1661	O166	0.183330	0.243210	0.447320
O1671	O167	0.683330	0.743210	0.447320
O1681	O168	0.683330	0.243210	0.947320
O1691	O169	0.183330	0.256790	0.052680
O1701	O170	0.183330	0.756790	0.552680
O1711	O171	0.683330	0.256790	0.552680
O1721	O172	0.683330	0.756790	0.052680
O1731	O173	0.816670	0.256790	0.947320
O1741	O174	0.816670	0.756790	0.447320
O1751	O175	0.316670	0.256790	0.447320
O1761	O176	0.316670	0.756790	0.947320
O1771	O177	0.743210	0.947320	0.183330
O1781	O178	0.743210	0.447320	0.683330
O1791	O179	0.243210	0.947320	0.683330
O1801	O180	0.243210	0.447320	0.183330
O1811	O181	0.743210	0.052680	0.816670
O1821	O182	0.743210	0.552680	0.316670
O1831	O183	0.243210	0.052680	0.316670
O1841	O184	0.243210	0.552680	0.816670
O1851	O185	0.256790	0.947320	0.816670
O1861	O186	0.256790	0.447320	0.316670
O1871	O187	0.756790	0.947320	0.316670
O1881	O188	0.756790	0.447320	0.816670
O1891	O189	0.256790	0.052680	0.183330
O1901	O190	0.256790	0.552680	0.683330
O1911	O191	0.756790	0.052680	0.683330
O1921	O192	0.756790	0.552680	0.183330
Cu11	Cu1	0.214260	0.000000	0.214260
Cu21	Cu2	0.214260	0.500000	0.714260
Cu31	Cu3	0.714260	0.000000	0.714260
Cu41	Cu4	0.714260	0.500000	0.214260
Cu51	Cu5	0.785740	0.000000	0.214260
Cu61	Cu6	0.785740	0.500000	0.714260
Cu71	Cu7	0.285740	0.000000	0.714260
Cu81	Cu8	0.285740	0.500000	0.214260
Cu91	Cu9	0.785740	0.000000	0.785740
Cu101	Cu10	0.785740	0.500000	0.285740
Cu111	Cu11	0.285740	0.000000	0.285740
Cu121	Cu12	0.285740	0.500000	0.785740
Cu131	Cu13	0.214260	0.000000	0.785740
Cu141	Cu14	0.214260	0.500000	0.285740
Cu151	Cu15	0.714260	0.000000	0.285740
Cu161	Cu16	0.714260	0.500000	0.785740
Cu171	Cu17	0.214260	0.214260	0.000000
Cu181	Cu18	0.214260	0.714260	0.500000
Cu191	Cu19	0.714260	0.214260	0.500000
Cu201	Cu20	0.714260	0.714260	0.000000
Cu211	Cu21	0.214260	0.785740	0.000000
Cu221	Cu22	0.214260	0.285740	0.500000
Cu231	Cu23	0.714260	0.785740	0.500000
Cu241	Cu24	0.714260	0.285740	0.000000
Cu251	Cu25	0.785740	0.785740	0.000000
Cu261	Cu26	0.785740	0.285740	0.500000
Cu271	Cu27	0.285740	0.785740	0.500000
Cu281	Cu28	0.285740	0.285740	0.000000
Cu291	Cu29	0.785740	0.214260	0.000000
Cu301	Cu30	0.785740	0.714260	0.500000
Cu311	Cu31	0.285740	0.214260	0.500000
Cu321	Cu32	0.285740	0.714260	0.000000
Cu331	Cu33	0.000000	0.214260	0.214260
Cu341	Cu34	0.000000	0.714260	0.714260
Cu351	Cu35	0.500000	0.214260	0.714260
Cu361	Cu36	0.500000	0.714260	0.214260
Cu371	Cu37	0.000000	0.214260	0.785740
Cu381	Cu38	0.000000	0.714260	0.285740
Cu391	Cu39	0.500000	0.214260	0.285740
Cu401	Cu40	0.500000	0.714260	0.785740
Cu411	Cu41	0.000000	0.785740	0.785740
Cu421	Cu42	0.000000	0.285740	0.285740
Cu431	Cu43	0.500000	0.785740	0.285740
Cu441	Cu44	0.500000	0.285740	0.785740
Cu451	Cu45	0.000000	0.785740	0.214260
Cu461	Cu46	0.000000	0.285740	0.714260
Cu471	Cu47	0.500000	0.785740	0.714260
Cu481	Cu48	0.500000	0.285740	0.214260
C11	C1	0.203380	0.069470	0.296620
C21	C2	0.178220	0.113740	0.321780
C31	C3	0.203380	0.569470	0.796620
C41	C4	0.178220	0.613740	0.821780
C51	C5	0.796620	0.930530	0.296620
C61	C6	0.821780	0.886260	0.321780
C71	C7	0.796620	0.430530	0.796620
C81	C8	0.821780	0.386260	0.821780
C91	C9	0.296620	0.430530	0.296620
C101	C10	0.321780	0.386260	0.321780
C111	C11	0.796620	0.069470	0.703380
C121	C12	0.821780	0.113740	0.678220
C131	C13	0.796620	0.569470	0.203380
C141	C14	0.821780	0.613740	0.178220
C151	C15	0.296620	0.069470	0.203380
C161	C16	0.321780	0.113740	0.178220
C171	C17	0.203380	0.930530	0.703380
C181	C18	0.178220	0.886260	0.678220
C191	C19	0.203380	0.430530	0.203380
C201	C20	0.178220	0.386260	0.178220
C211	C21	0.296620	0.203380	0.069470
C221	C22	0.321780	0.178220	0.113740
C231	C23	0.296620	0.703380	0.569470
C241	C24	0.321780	0.678220	0.613740
C251	C25	0.296620	0.796620	0.930530
C261	C26	0.321780	0.821780	0.886260
C271	C27	0.296620	0.296620	0.430530
C281	C28	0.321780	0.321780	0.386260
C291	C29	0.703380	0.796620	0.069470
C301	C30	0.678220	0.821780	0.113740
C311	C31	0.703380	0.296620	0.569470
C321	C32	0.678220	0.321780	0.613740
C331	C33	0.203380	0.296620	0.069470
C341	C34	0.178220	0.321780	0.113740
C351	C35	0.703380	0.203380	0.930530
C361	C36	0.678220	0.178220	0.886260
C371	C37	0.703380	0.703380	0.430530
C381	C38	0.678220	0.678220	0.386260
C391	C39	0.203380	0.203380	0.430530
C401	C40	0.178220	0.178220	0.386260
C411	C41	0.069470	0.296620	0.203380
C421	C42	0.113740	0.321780	0.178220
C431	C43	0.569470	0.296620	0.703380
C441	C44	0.613740	0.321780	0.678220
C451	C45	0.930530	0.296620	0.796620
C461	C46	0.886260	0.321780	0.821780
C471	C47	0.430530	0.296620	0.296620
C481	C48	0.386260	0.321780	0.321780
C491	C49	0.069470	0.703380	0.796620
C501	C50	0.113740	0.678220	0.821780
C511	C51	0.069470	0.203380	0.296620
C521	C52	0.113740	0.178220	0.321780
C531	C53	0.569470	0.703380	0.296620
C541	C54	0.613740	0.678220	0.321780
C551	C55	0.930530	0.703380	0.203380
C561	C56	0.886260	0.678220	0.178220
C571	C57	0.430530	0.703380	0.703380
C581	C58	0.386260	0.678220	0.678220
C591	C59	0.430530	0.203380	0.203380
C601	C60	0.386260	0.178220	0.178220
C611	C61	0.069470	0.203380	0.703380
C621	C62	0.113740	0.178220	0.678220
C631	C63	0.569470	0.203380	0.203380
C641	C64	0.613740	0.178220	0.178220
C651	C65	0.930530	0.796620	0.703380
C661	C66	0.886260	0.821780	0.678220
C671	C67	0.930530	0.296620	0.203380
C681	C68	0.886260	0.321780	0.178220
C691	C69	0.430530	0.796620	0.203380
C701	C70	0.386260	0.821780	0.178220
C711	C71	0.069470	0.796620	0.296620
C721	C72	0.113740	0.821780	0.321780
C731	C73	0.569470	0.796620	0.796620
C741	C74	0.613740	0.821780	0.821780
C751	C75	0.569470	0.296620	0.296620
C761	C76	0.613740	0.321780	0.321780
C771	C77	0.930530	0.203380	0.296620
C781	C78	0.886260	0.178220	0.321780
C791	C79	0.430530	0.203380	0.796620
C801	C80	0.386260	0.178220	0.821780
C811	C81	0.203380	0.296620	0.930530
C821	C82	0.178220	0.321780	0.886260
C831	C83	0.203380	0.796620	0.430530
C841	C84	0.178220	0.821780	0.386260
C851	C85	0.796620	0.296620	0.069470
C861	C86	0.821780	0.321780	0.113740
C871	C87	0.796620	0.796620	0.569470
C881	C88	0.821780	0.821780	0.613740
C891	C89	0.296620	0.296620	0.569470
C901	C90	0.321780	0.321780	0.613740
C911	C91	0.796620	0.703380	0.930530
C921	C92	0.821780	0.678220	0.886260
C931	C93	0.796620	0.203380	0.430530
C941	C94	0.821780	0.178220	0.386260
C951	C95	0.296620	0.203380	0.930530
C961	C96	0.321780	0.178220	0.886260
C971	C97	0.203380	0.703380	0.069470
C981	C98	0.178220	0.678220	0.113740
C991	C99	0.203380	0.203380	0.569470
C1001	C100	0.178220	0.178220	0.613740
C1011	C101	0.296620	0.069470	0.796620
C1021	C102	0.321780	0.113740	0.821780
C1031	C103	0.296620	0.569470	0.296620
C1041	C104	0.321780	0.613740	0.321780
C1051	C105	0.296620	0.930530	0.203380
C1061	C106	0.321780	0.886260	0.178220
C1071	C107	0.296620	0.430530	0.703380
C1081	C108	0.321780	0.386260	0.678220
C1091	C109	0.703380	0.069470	0.203380
C1101	C110	0.678220	0.113740	0.178220
C1111	C111	0.703380	0.569470	0.703380
C1121	C112	0.678220	0.613740	0.678220
C1131	C113	0.203380	0.569470	0.203380
C1141	C114	0.178220	0.613740	0.178220
C1151	C115	0.703380	0.930530	0.796620
C1161	C116	0.678220	0.886260	0.821780
C1171	C117	0.703380	0.430530	0.296620
C1181	C118	0.678220	0.386260	0.321780
C1191	C119	0.203380	0.930530	0.296620
C1201	C120	0.178220	0.886260	0.321780
C1211	C121	0.796620	0.930530	0.703380
C1221	C122	0.821780	0.886260	0.678220
C1231	C123	0.796620	0.430530	0.203380
C1241	C124	0.821780	0.386260	0.178220
C1251	C125	0.203380	0.069470	0.703380
C1261	C126	0.178220	0.113740	0.678220
C1271	C127	0.203380	0.430530	0.796620
C1281	C128	0.178220	0.386260	0.821780
C1291	C129	0.796620	0.069470	0.296620
C1301	C130	0.821780	0.113740	0.321780
C1311	C131	0.796620	0.569470	0.796620
C1321	C132	0.821780	0.613740	0.821780
C1331	C133	0.703380	0.796620	0.930530
C1341	C134	0.678220	0.821780	0.886260
C1351	C135	0.703380	0.296620	0.430530
C1361	C136	0.678220	0.321780	0.386260
C1371	C137	0.703380	0.203380	0.069470
C1381	C138	0.678220	0.178220	0.113740
C1391	C139	0.703380	0.703380	0.569470
C1401	C140	0.678220	0.678220	0.613740
C1411	C141	0.296620	0.703380	0.430530
C1421	C142	0.321780	0.678220	0.386260
C1431	C143	0.296620	0.796620	0.069470
C1441	C144	0.321780	0.821780	0.113740
C1451	C145	0.930530	0.703380	0.796620
C1461	C146	0.886260	0.678220	0.821780
C1471	C147	0.430530	0.703380	0.296620
C1481	C148	0.386260	0.678220	0.321780
C1491	C149	0.069470	0.703380	0.203380
C1501	C150	0.113740	0.678220	0.178220
C1511	C151	0.569470	0.703380	0.703380
C1521	C152	0.613740	0.678220	0.678220
C1531	C153	0.430530	0.296620	0.703380
C1541	C154	0.386260	0.321780	0.678220
C1551	C155	0.069470	0.296620	0.796620
C1561	C156	0.113740	0.321780	0.821780
C1571	C157	0.930530	0.796620	0.296620
C1581	C158	0.886260	0.821780	0.321780
C1591	C159	0.430530	0.796620	0.796620
C1601	C160	0.386260	0.821780	0.821780
C1611	C161	0.569470	0.203380	0.796620
C1621	C162	0.613740	0.178220	0.821780
C1631	C163	0.930530	0.203380	0.703380
C1641	C164	0.886260	0.178220	0.678220
C1651	C165	0.069470	0.796620	0.703380
C1661	C166	0.113740	0.821780	0.678220
C1671	C167	0.569470	0.796620	0.203380
C1681	C168	0.613740	0.821780	0.178220
C1691	C169	0.796620	0.703380	0.069470
C1701	C170	0.821780	0.678220	0.113740
C1711	C171	0.796620	0.203380	0.569470
C1721	C172	0.821780	0.178220	0.613740
C1731	C173	0.203380	0.703380	0.930530
C1741	C174	0.178220	0.678220	0.886260
C1751	C175	0.203380	0.796620	0.569470
C1761	C176	0.178220	0.821780	0.613740
C1771	C177	0.796620	0.296620	0.930530
C1781	C178	0.821780	0.321780	0.886260
C1791	C179	0.796620	0.796620	0.430530
C1801	C180	0.821780	0.821780	0.386260
C1811	C181	0.703380	0.930530	0.203380
C1821	C182	0.678220	0.886260	0.178220
C1831	C183	0.703380	0.430530	0.703380
C1841	C184	0.678220	0.386260	0.678220
C1851	C185	0.703380	0.069470	0.796620
C1861	C186	0.678220	0.113740	0.821780
C1871	C187	0.703380	0.569470	0.296620
C1881	C188	0.678220	0.613740	0.321780
C1891	C189	0.296620	0.930530	0.796620
C1901	C190	0.321780	0.886260	0.821780
C1911	C191	0.296620	0.569470	0.703380
C1921	C192	0.321780	0.613740	0.678220
C1931	C193	0.199390	0.135170	0.364830
H11	H1	0.227900	0.120600	0.379400
C1941	C194	0.699390	0.135170	0.864830
H21	H2	0.727900	0.120600	0.879400
C1951	C195	0.800610	0.864830	0.364830
H31	H3	0.772100	0.879400	0.379400
C1961	C196	0.300610	0.864830	0.864830
H41	H4	0.272100	0.879400	0.879400
C1971	C197	0.300610	0.364830	0.364830
H51	H5	0.272100	0.379400	0.379400
C1981	C198	0.800610	0.135170	0.635170
H61	H6	0.772100	0.120600	0.620600
C1991	C199	0.300610	0.135170	0.135170
H71	H7	0.272100	0.120600	0.120600
C2001	C200	0.199390	0.864830	0.635170
H81	H8	0.227900	0.879400	0.620600
C2011	C201	0.199390	0.364830	0.135170
H91	H9	0.227900	0.379400	0.120600
C2021	C202	0.699390	0.864830	0.135170
H101	H10	0.727900	0.879400	0.120600
C2031	C203	0.364830	0.199390	0.135170
H111	H11	0.379400	0.227900	0.120600
C2041	C204	0.364830	0.699390	0.635170
H121	H12	0.379400	0.727900	0.620600
C2051	C205	0.364830	0.800610	0.864830
H131	H13	0.379400	0.772100	0.879400
C2061	C206	0.364830	0.300610	0.364830
H141	H14	0.379400	0.272100	0.379400
C2071	C207	0.635170	0.800610	0.135170
H151	H15	0.620600	0.772100	0.120600
C2081	C208	0.635170	0.300610	0.635170
H161	H16	0.620600	0.272100	0.620600
C2091	C209	0.135170	0.300610	0.135170
H171	H17	0.120600	0.272100	0.120600
C2101	C210	0.635170	0.199390	0.864830
H181	H18	0.620600	0.227900	0.879400
C2111	C211	0.635170	0.699390	0.364830
H191	H19	0.620600	0.727900	0.379400
C2121	C212	0.135170	0.199390	0.364830
H201	H20	0.120600	0.227900	0.379400
C2131	C213	0.135170	0.364830	0.199390
H211	H21	0.120600	0.379400	0.227900
C2141	C214	0.135170	0.864830	0.699390
H221	H22	0.120600	0.879400	0.727900
C2151	C215	0.864830	0.364830	0.800610
H231	H23	0.879400	0.379400	0.772100
C2161	C216	0.864830	0.864830	0.300610
H241	H24	0.879400	0.879400	0.272100
C2171	C217	0.364830	0.364830	0.300610
H251	H25	0.379400	0.379400	0.272100
C2181	C218	0.135170	0.635170	0.800610
H261	H26	0.120600	0.620600	0.772100
C2191	C219	0.135170	0.135170	0.300610
H271	H27	0.120600	0.120600	0.272100
C2201	C220	0.864830	0.635170	0.199390
H281	H28	0.879400	0.620600	0.227900
C2211	C221	0.864830	0.135170	0.699390
H291	H29	0.879400	0.120600	0.727900
C2221	C222	0.364830	0.135170	0.199390
H301	H30	0.379400	0.120600	0.227900
C2231	C223	0.135170	0.199390	0.635170
H311	H31	0.120600	0.227900	0.620600
C2241	C224	0.135170	0.699390	0.135170
H321	H32	0.120600	0.727900	0.120600
C2251	C225	0.864830	0.800610	0.635170
H331	H33	0.879400	0.772100	0.620600
C2261	C226	0.864830	0.300610	0.135170
H341	H34	0.879400	0.272100	0.120600
C2271	C227	0.364830	0.800610	0.135170
H351	H35	0.379400	0.772100	0.120600
C2281	C228	0.135170	0.800610	0.364830
H361	H36	0.120600	0.772100	0.379400
C2291	C229	0.135170	0.300610	0.864830
H371	H37	0.120600	0.272100	0.879400
C2301	C230	0.864830	0.199390	0.364830
H381	H38	0.879400	0.227900	0.379400
C2311	C231	0.864830	0.699390	0.864830
H391	H39	0.879400	0.727900	0.879400
C2321	C232	0.364830	0.699390	0.364830
H401	H40	0.379400	0.727900	0.379400
C2331	C233	0.199390	0.364830	0.864830
H411	H41	0.227900	0.379400	0.879400
C2341	C234	0.699390	0.364830	0.364830
H421	H42	0.727900	0.379400	0.379400
C2351	C235	0.800610	0.364830	0.135170
H431	H43	0.772100	0.379400	0.120600
C2361	C236	0.300610	0.364830	0.635170
H441	H44	0.272100	0.379400	0.620600
C2371	C237	0.800610	0.635170	0.864830
H451	H45	0.772100	0.620600	0.879400
C2381	C238	0.800610	0.135170	0.364830
H461	H46	0.772100	0.120600	0.379400
C2391	C239	0.300610	0.635170	0.364830
H471	H47	0.272100	0.620600	0.379400
C2401	C240	0.199390	0.635170	0.135170
H481	H48	0.227900	0.620600	0.120600
C2411	C241	0.699390	0.635170	0.635170
H491	H49	0.727900	0.620600	0.620600
C2421	C242	0.699390	0.135170	0.135170
H501	H50	0.727900	0.120600	0.120600
C2431	C243	0.364830	0.135170	0.800610
H511	H51	0.379400	0.120600	0.772100
C2441	C244	0.364830	0.635170	0.300610
H521	H52	0.379400	0.620600	0.272100
C2451	C245	0.364830	0.864830	0.199390
H531	H53	0.379400	0.879400	0.227900
C2461	C246	0.364830	0.364830	0.699390
H541	H54	0.379400	0.379400	0.727900
C2471	C247	0.635170	0.135170	0.199390
H551	H55	0.620600	0.120600	0.227900
C2481	C248	0.635170	0.635170	0.699390
H561	H56	0.620600	0.620600	0.727900
C2491	C249	0.135170	0.135170	0.699390
H571	H57	0.120600	0.120600	0.727900
C2501	C250	0.635170	0.864830	0.800610
H581	H58	0.620600	0.879400	0.772100
C2511	C251	0.635170	0.364830	0.300610
H591	H59	0.620600	0.379400	0.272100
C2521	C252	0.135170	0.364830	0.800610
H601	H60	0.120600	0.379400	0.772100
C2531	C253	0.800610	0.864830	0.635170
H611	H61	0.772100	0.879400	0.620600
C2541	C254	0.300610	0.864830	0.135170
H621	H62	0.272100	0.879400	0.120600
C2551	C255	0.199390	0.135170	0.635170
H631	H63	0.227900	0.120600	0.620600
C2561	C256	0.199390	0.864830	0.364830
H641	H64	0.227900	0.879400	0.379400
C2571	C257	0.699390	0.864830	0.864830
H651	H65	0.727900	0.879400	0.879400
C2581	C258	0.300610	0.135170	0.864830
H661	H66	0.272100	0.120600	0.879400
C2591	C259	0.635170	0.800610	0.864830
H671	H67	0.620600	0.772100	0.879400
C2601	C260	0.635170	0.300610	0.364830
H681	H68	0.620600	0.272100	0.379400
C2611	C261	0.635170	0.199390	0.135170
H691	H69	0.620600	0.227900	0.120600
C2621	C262	0.635170	0.699390	0.635170
H701	H70	0.620600	0.727900	0.620600
C2631	C263	0.364830	0.199390	0.864830
H711	H71	0.379400	0.227900	0.879400
C2641	C264	0.364830	0.300610	0.635170
H721	H72	0.379400	0.272100	0.620600
C2651	C265	0.864830	0.635170	0.800610
H731	H73	0.879400	0.620600	0.772100
C2661	C266	0.864830	0.135170	0.300610
H741	H74	0.879400	0.120600	0.272100
C2671	C267	0.135170	0.635170	0.199390
H751	H75	0.120600	0.620600	0.227900
C2681	C268	0.864830	0.364830	0.199390
H761	H76	0.879400	0.379400	0.227900
C2691	C269	0.864830	0.864830	0.699390
H771	H77	0.879400	0.879400	0.727900
C2701	C270	0.135170	0.864830	0.300610
H781	H78	0.120600	0.879400	0.272100
C2711	C271	0.864830	0.800610	0.364830
H791	H79	0.879400	0.772100	0.379400
C2721	C272	0.864830	0.300610	0.864830
H801	H80	0.879400	0.272100	0.879400
C2731	C273	0.135170	0.699390	0.864830
H811	H81	0.120600	0.727900	0.879400
C2741	C274	0.864830	0.199390	0.635170
H821	H82	0.879400	0.227900	0.620600
C2751	C275	0.864830	0.699390	0.135170
H831	H83	0.879400	0.727900	0.120600
C2761	C276	0.135170	0.800610	0.635170
H841	H84	0.120600	0.772100	0.620600
C2771	C277	0.800610	0.635170	0.135170
H851	H85	0.772100	0.620600	0.120600
C2781	C278	0.300610	0.635170	0.635170
H861	H86	0.272100	0.620600	0.620600
C2791	C279	0.199390	0.635170	0.864830
H871	H87	0.227900	0.620600	0.879400
C2801	C280	0.699390	0.635170	0.364830
H881	H88	0.727900	0.620600	0.379400
C2811	C281	0.699390	0.364830	0.635170
H891	H89	0.727900	0.379400	0.620600
C2821	C282	0.800610	0.364830	0.864830
H901	H90	0.772100	0.379400	0.879400
C2831	C283	0.635170	0.864830	0.199390
H911	H91	0.620600	0.879400	0.227900
C2841	C284	0.635170	0.364830	0.699390
H921	H92	0.620600	0.379400	0.727900
C2851	C285	0.635170	0.135170	0.800610
H931	H93	0.620600	0.120600	0.772100
C2861	C286	0.635170	0.635170	0.300610
H941	H94	0.620600	0.620600	0.272100
C2871	C287	0.364830	0.864830	0.800610
H951	H95	0.379400	0.879400	0.772100
C2881	C288	0.364830	0.635170	0.699390
H961	H96	0.379400	0.620600	0.727900
