data_OQOBUT_clean_PM
_symmetry_space_group_name_H-M	'P1'
_cell_length_a	21.292800
_cell_length_b	21.292800
_cell_length_c	10.730400
_cell_angle_alpha	90.000000
_cell_angle_beta	90.000000
_cell_angle_gamma	90.000000
_symmetry_Int_Tables_number 1

loop_
_symmetry_equiv_pos_as_xyz
'x,y,z'

loop_
_atom_site_label
_atom_site_type_symbol
_atom_site_fract_x
_atom_site_fract_y
_atom_site_fract_z
Al11	Al1	0.255400	0.313800	0.244300
O11	O1	0.248700	0.259400	0.380500
C11	C1	0.056400	0.332400	0.258600
C21	C2	0.939500	0.374900	0.345300
C31	C3	0.118800	0.314100	0.210300
C41	C4	0.052400	0.375600	0.358500
C51	C5	0.000800	0.310000	0.203000
C61	C6	0.883100	0.312600	0.182600
C71	C7	0.942000	0.331700	0.245200
C81	C8	0.994300	0.396400	0.401500
O21	O2	0.168500	0.331800	0.259000
O31	O3	0.835300	0.329600	0.249900
O41	O4	0.884900	0.266500	0.114900
O51	O5	0.120500	0.277300	0.115700
C91	C9	0.557800	0.268800	0.205100
C101	C10	0.445200	0.273000	0.070700
C111	C11	0.616400	0.275200	0.275600
C121	C12	0.558200	0.277800	0.074500
C131	C13	0.500700	0.260200	0.267700
C141	C14	0.384000	0.265200	0.267800
C151	C15	0.444200	0.263900	0.201300
C161	C16	0.502100	0.279700	0.007800
O61	O6	0.657500	0.310900	0.235000
O71	O7	0.343000	0.299100	0.221300
O81	O8	0.376900	0.236200	0.369500
O91	O9	0.615200	0.238300	0.364300
Al21	Al2	0.745700	0.319800	0.243300
O101	O10	0.745600	0.258400	0.374800
Al31	Al3	0.755400	0.813800	0.744300
O111	O11	0.748700	0.759400	0.880500
C171	C17	0.556400	0.832400	0.758600
C181	C18	0.439500	0.874900	0.845300
C191	C19	0.618800	0.814100	0.710300
C201	C20	0.552400	0.875600	0.858500
C211	C21	0.500800	0.810000	0.703000
C221	C22	0.383100	0.812600	0.682600
C231	C23	0.442000	0.831700	0.745200
C241	C24	0.494300	0.896400	0.901500
O121	O12	0.668500	0.831800	0.759000
O131	O13	0.335300	0.829600	0.749900
O141	O14	0.384900	0.766500	0.614900
O151	O15	0.620500	0.777300	0.615700
C251	C25	0.057800	0.768800	0.705100
C261	C26	0.945200	0.773000	0.570700
C271	C27	0.116400	0.775200	0.775600
C281	C28	0.058200	0.777800	0.574500
C291	C29	0.000700	0.760200	0.767700
C301	C30	0.884000	0.765200	0.767800
C311	C31	0.944200	0.763900	0.701300
C321	C32	0.002100	0.779700	0.507800
O161	O16	0.157500	0.810900	0.735000
O171	O17	0.843000	0.799100	0.721300
O181	O18	0.876900	0.736200	0.869500
O191	O19	0.115200	0.738300	0.864300
Al41	Al4	0.245700	0.819800	0.743300
O201	O20	0.245600	0.758400	0.874800
Al51	Al5	0.244600	0.186200	0.744300
O211	O21	0.251300	0.240600	0.880500
C331	C33	0.443600	0.167600	0.758600
C341	C34	0.560500	0.125100	0.845300
C351	C35	0.381200	0.185900	0.710300
C361	C36	0.447600	0.124400	0.858500
C371	C37	0.499200	0.190000	0.703000
C381	C38	0.616900	0.187400	0.682600
C391	C39	0.558000	0.168300	0.745200
C401	C40	0.505700	0.103600	0.901500
O221	O22	0.331500	0.168200	0.759000
O231	O23	0.664700	0.170400	0.749900
O241	O24	0.615100	0.233500	0.614900
O251	O25	0.379500	0.222700	0.615700
C411	C41	0.942200	0.231200	0.705100
C421	C42	0.054800	0.227000	0.570700
C431	C43	0.883600	0.224800	0.775600
C441	C44	0.941800	0.222200	0.574500
C451	C45	0.999300	0.239800	0.767700
C461	C46	0.116000	0.234800	0.767800
C471	C47	0.055800	0.236100	0.701300
C481	C48	0.997900	0.220300	0.507800
O261	O26	0.842500	0.189100	0.735000
O271	O27	0.157000	0.200900	0.721300
O281	O28	0.123100	0.263800	0.869500
O291	O29	0.884800	0.261700	0.864300
Al61	Al6	0.754300	0.180200	0.743300
O301	O30	0.754400	0.241600	0.874800
Al71	Al7	0.744600	0.686200	0.244300
O311	O31	0.751300	0.740600	0.380500
C491	C49	0.943600	0.667600	0.258600
C501	C50	0.060500	0.625100	0.345300
C511	C51	0.881200	0.685900	0.210300
C521	C52	0.947600	0.624400	0.358500
C531	C53	0.999200	0.690000	0.203000
C541	C54	0.116900	0.687400	0.182600
C551	C55	0.058000	0.668300	0.245200
C561	C56	0.005700	0.603600	0.401500
O321	O32	0.831500	0.668200	0.259000
O331	O33	0.164700	0.670400	0.249900
O341	O34	0.115100	0.733500	0.114900
O351	O35	0.879500	0.722700	0.115700
C571	C57	0.442200	0.731200	0.205100
C581	C58	0.554800	0.727000	0.070700
C591	C59	0.383600	0.724800	0.275600
C601	C60	0.441800	0.722200	0.074500
C611	C61	0.499300	0.739800	0.267700
C621	C62	0.616000	0.734800	0.267800
C631	C63	0.555800	0.736100	0.201300
C641	C64	0.497900	0.720300	0.007800
O361	O36	0.342500	0.689100	0.235000
O371	O37	0.657000	0.700900	0.221300
O381	O38	0.623100	0.763800	0.369500
O391	O39	0.384800	0.761700	0.364300
Al81	Al8	0.254300	0.680200	0.243300
O401	O40	0.254400	0.741600	0.374800
Al91	Al9	0.686200	0.755400	0.494300
O411	O41	0.740600	0.748700	0.630500
C651	C65	0.667600	0.556400	0.508600
C661	C66	0.625100	0.439500	0.595300
C671	C67	0.685900	0.618800	0.460300
C681	C68	0.624400	0.552400	0.608500
C691	C69	0.690000	0.500800	0.453000
C701	C70	0.687400	0.383100	0.432600
C711	C71	0.668300	0.442000	0.495200
C721	C72	0.603600	0.494300	0.651500
O421	O42	0.668200	0.668500	0.509000
O431	O43	0.670400	0.335300	0.499900
O441	O44	0.733500	0.384900	0.364900
O451	O45	0.722700	0.620500	0.365700
C731	C73	0.731200	0.057800	0.455100
C741	C74	0.727000	0.945200	0.320700
C751	C75	0.724800	0.116400	0.525600
C761	C76	0.722200	0.058200	0.324500
C771	C77	0.739800	0.000700	0.517700
C781	C78	0.734800	0.884000	0.517800
C791	C79	0.736100	0.944200	0.451300
C801	C80	0.720300	0.002100	0.257800
O461	O46	0.689100	0.157500	0.485000
O471	O47	0.700900	0.843000	0.471300
O481	O48	0.763800	0.876900	0.619500
O491	O49	0.761700	0.115200	0.614300
Al101	Al10	0.680200	0.245700	0.493300
O501	O50	0.741600	0.245600	0.624800
Al111	Al11	0.186200	0.255400	0.994300
O511	O51	0.240600	0.248700	0.130500
C811	C81	0.167600	0.056400	0.008600
C821	C82	0.125100	0.939500	0.095300
C831	C83	0.185900	0.118800	0.960300
C841	C84	0.124400	0.052400	0.108500
C851	C85	0.190000	0.000800	0.953000
C861	C86	0.187400	0.883100	0.932600
C871	C87	0.168300	0.942000	0.995200
C881	C88	0.103600	0.994300	0.151500
O521	O52	0.168200	0.168500	0.009000
O531	O53	0.170400	0.835300	0.999900
O541	O54	0.233500	0.884900	0.864900
O551	O55	0.222700	0.120500	0.865700
C891	C89	0.231200	0.557800	0.955100
C901	C90	0.227000	0.445200	0.820700
C911	C91	0.224800	0.616400	0.025600
C921	C92	0.222200	0.558200	0.824500
C931	C93	0.239800	0.500700	0.017700
C941	C94	0.234800	0.384000	0.017800
C951	C95	0.236100	0.444200	0.951300
C961	C96	0.220300	0.502100	0.757800
O561	O56	0.189100	0.657500	0.985000
O571	O57	0.200900	0.343000	0.971300
O581	O58	0.263800	0.376900	0.119500
O591	O59	0.261700	0.615200	0.114300
Al121	Al12	0.180200	0.745700	0.993300
O601	O60	0.241600	0.745600	0.124800
Al131	Al13	0.813800	0.744600	0.994300
O611	O61	0.759400	0.751300	0.130500
C971	C97	0.832400	0.943600	0.008600
C981	C98	0.874900	0.060500	0.095300
C991	C99	0.814100	0.881200	0.960300
C1001	C100	0.875600	0.947600	0.108500
C1011	C101	0.810000	0.999200	0.953000
C1021	C102	0.812600	0.116900	0.932600
C1031	C103	0.831700	0.058000	0.995200
C1041	C104	0.896400	0.005700	0.151500
O621	O62	0.831800	0.831500	0.009000
O631	O63	0.829600	0.164700	0.999900
O641	O64	0.766500	0.115100	0.864900
O651	O65	0.777300	0.879500	0.865700
C1051	C105	0.768800	0.442200	0.955100
C1061	C106	0.773000	0.554800	0.820700
C1071	C107	0.775200	0.383600	0.025600
C1081	C108	0.777800	0.441800	0.824500
C1091	C109	0.760200	0.499300	0.017700
C1101	C110	0.765200	0.616000	0.017800
C1111	C111	0.763900	0.555800	0.951300
C1121	C112	0.779700	0.497900	0.757800
O661	O66	0.810900	0.342500	0.985000
O671	O67	0.799100	0.657000	0.971300
O681	O68	0.736200	0.623100	0.119500
O691	O69	0.738300	0.384800	0.114300
Al141	Al14	0.819800	0.254300	0.993300
O701	O70	0.758400	0.254400	0.124800
Al151	Al15	0.313800	0.244600	0.494300
O711	O71	0.259400	0.251300	0.630500
C1131	C113	0.332400	0.443600	0.508600
C1141	C114	0.374900	0.560500	0.595300
C1151	C115	0.314100	0.381200	0.460300
C1161	C116	0.375600	0.447600	0.608500
C1171	C117	0.310000	0.499200	0.453000
C1181	C118	0.312600	0.616900	0.432600
C1191	C119	0.331700	0.558000	0.495200
C1201	C120	0.396400	0.505700	0.651500
O721	O72	0.331800	0.331500	0.509000
O731	O73	0.329600	0.664700	0.499900
O741	O74	0.266500	0.615100	0.364900
O751	O75	0.277300	0.379500	0.365700
C1211	C121	0.268800	0.942200	0.455100
C1221	C122	0.273000	0.054800	0.320700
C1231	C123	0.275200	0.883600	0.525600
C1241	C124	0.277800	0.941800	0.324500
C1251	C125	0.260200	0.999300	0.517700
C1261	C126	0.265200	0.116000	0.517800
C1271	C127	0.263900	0.055800	0.451300
C1281	C128	0.279700	0.997900	0.257800
O761	O76	0.310900	0.842500	0.485000
O771	O77	0.299100	0.157000	0.471300
O781	O78	0.236200	0.123100	0.619500
O791	O79	0.238300	0.884800	0.614300
Al161	Al16	0.319800	0.754300	0.493300
O801	O80	0.258400	0.754400	0.624800
