data_OQUCOU_clean_PM
_symmetry_space_group_name_H-M	'P1'
_cell_length_a	25.643300
_cell_length_b	13.390400
_cell_length_c	15.120900
_cell_angle_alpha	90.000000
_cell_angle_beta	92.753000
_cell_angle_gamma	90.000000
_symmetry_Int_Tables_number 1

loop_
_symmetry_equiv_pos_as_xyz
'x,y,z'

loop_
_atom_site_label
_atom_site_type_symbol
_atom_site_fract_x
_atom_site_fract_y
_atom_site_fract_z
Cd11	Cd1	0.761360	0.049730	0.997700
O11	O1	0.686300	0.001000	0.115700
O21	O2	0.817300	0.018700	0.113100
O31	O3	0.595500	0.410400	0.093000
O41	O4	0.561900	0.986400	0.370300
C11	C1	0.683900	0.093100	0.122100
C21	C2	0.565200	0.077200	0.376400
C31	C3	0.826900	0.004300	0.193900
C41	C4	0.598300	0.239100	0.317800
H11	H1	0.580000	0.271800	0.361000
C51	C5	0.624600	0.087400	0.249800
H21	H2	0.623700	0.018100	0.246300
O51	O5	0.769100	0.380200	0.060300
O61	O6	0.707600	0.148700	0.069300
C61	C6	0.635600	0.455400	0.117200
C71	C7	0.791900	0.428900	0.122400
O71	O7	0.951500	0.376900	0.428600
O81	O8	0.929000	0.520300	0.371200
C81	C8	0.654600	0.246000	0.195600
H31	H3	0.674500	0.282400	0.157100
C91	C9	0.653000	0.141400	0.190900
C101	C10	0.836100	0.223600	0.280700
C111	C11	0.821200	0.374700	0.195600
C121	C12	0.625800	0.294600	0.258800
O91	O9	0.623300	0.396500	0.269500
O101	O10	0.827400	0.128400	0.309600
C131	C13	0.653300	0.458900	0.213900
H41	H4	0.690000	0.439000	0.220100
C141	C14	0.884400	0.373600	0.317800
C151	C15	0.810300	0.273400	0.209800
H51	H5	0.786300	0.239700	0.172600
O111	O11	0.541700	0.127000	0.434300
C161	C16	0.874600	0.276400	0.334500
H61	H6	0.892700	0.243900	0.380700
C171	C17	0.924200	0.427100	0.376700
C181	C18	0.856200	0.425200	0.248800
H71	H7	0.861700	0.493100	0.240100
O121	O12	0.862000	0.947900	0.220900
C191	C19	0.769900	0.991300	0.320800
H81	H8	0.747500	0.946500	0.287000
H91	H9	0.796600	0.953800	0.352700
H101	H10	0.749700	0.027700	0.361800
C201	C20	0.597200	0.136000	0.314200
O131	O13	0.790200	0.523500	0.126000
C211	C21	0.794600	0.062600	0.259800
H111	H11	0.767300	0.101000	0.227300
C221	C22	0.647600	0.564900	0.249800
H121	H12	0.667000	0.610400	0.215000
H131	H13	0.611400	0.583500	0.246700
H141	H14	0.660800	0.567300	0.310300
O141	O14	0.663800	0.499100	0.064300
Cd21	Cd2	0.261360	0.549730	0.997700
O151	O15	0.186300	0.501000	0.115700
O161	O16	0.317300	0.518700	0.113100
O171	O17	0.095500	0.910400	0.093000
O181	O18	0.061900	0.486400	0.370300
C231	C23	0.183900	0.593100	0.122100
C241	C24	0.065200	0.577200	0.376400
C251	C25	0.326900	0.504300	0.193900
C261	C26	0.098300	0.739100	0.317800
H151	H15	0.080000	0.771800	0.361000
C271	C27	0.124600	0.587400	0.249800
H161	H16	0.123700	0.518100	0.246300
O191	O19	0.269100	0.880200	0.060300
O201	O20	0.207600	0.648700	0.069300
C281	C28	0.135600	0.955400	0.117200
C291	C29	0.291900	0.928900	0.122400
O211	O21	0.451500	0.876900	0.428600
O221	O22	0.429000	0.020300	0.371200
C301	C30	0.154600	0.746000	0.195600
H171	H17	0.174500	0.782400	0.157100
C311	C31	0.153000	0.641400	0.190900
C321	C32	0.336100	0.723600	0.280700
C331	C33	0.321200	0.874700	0.195600
C341	C34	0.125800	0.794600	0.258800
O231	O23	0.123300	0.896500	0.269500
O241	O24	0.327400	0.628400	0.309600
C351	C35	0.153300	0.958900	0.213900
H181	H18	0.190000	0.939000	0.220100
C361	C36	0.384400	0.873600	0.317800
C371	C37	0.310300	0.773400	0.209800
H191	H19	0.286300	0.739700	0.172600
O251	O25	0.041700	0.627000	0.434300
C381	C38	0.374600	0.776400	0.334500
H201	H20	0.392700	0.743900	0.380700
C391	C39	0.424200	0.927100	0.376700
C401	C40	0.356200	0.925200	0.248800
H211	H21	0.361700	0.993100	0.240100
O261	O26	0.362000	0.447900	0.220900
C411	C41	0.269900	0.491300	0.320800
H221	H22	0.247500	0.446500	0.287000
H231	H23	0.296600	0.453800	0.352700
H241	H24	0.249700	0.527700	0.361800
C421	C42	0.097200	0.636000	0.314200
O271	O27	0.290200	0.023500	0.126000
C431	C43	0.294600	0.562600	0.259800
H251	H25	0.267300	0.601000	0.227300
C441	C44	0.147600	0.064900	0.249800
H261	H26	0.167000	0.110400	0.215000
H271	H27	0.111400	0.083500	0.246700
H281	H28	0.160800	0.067300	0.310300
O281	O28	0.163800	0.999100	0.064300
Cd31	Cd3	0.238640	0.049730	0.002300
O291	O29	0.313700	0.001000	0.884300
O301	O30	0.182700	0.018700	0.886900
O311	O31	0.404500	0.410400	0.907000
O321	O32	0.438100	0.986400	0.629700
C451	C45	0.316100	0.093100	0.877900
C461	C46	0.434800	0.077200	0.623600
C471	C47	0.173100	0.004300	0.806100
C481	C48	0.401700	0.239100	0.682200
H291	H29	0.420000	0.271800	0.639000
C491	C49	0.375400	0.087400	0.750200
H301	H30	0.376300	0.018100	0.753700
O331	O33	0.230900	0.380200	0.939700
O341	O34	0.292400	0.148700	0.930700
C501	C50	0.364400	0.455400	0.882800
C511	C51	0.208100	0.428900	0.877600
O351	O35	0.048500	0.376900	0.571400
O361	O36	0.071000	0.520300	0.628800
C521	C52	0.345400	0.246000	0.804400
H311	H31	0.325500	0.282400	0.842900
C531	C53	0.347000	0.141400	0.809100
C541	C54	0.163900	0.223600	0.719300
C551	C55	0.178800	0.374700	0.804400
C561	C56	0.374200	0.294600	0.741200
O371	O37	0.376700	0.396500	0.730500
O381	O38	0.172600	0.128400	0.690400
C571	C57	0.346700	0.458900	0.786100
H321	H32	0.310000	0.439000	0.779900
C581	C58	0.115600	0.373600	0.682200
C591	C59	0.189700	0.273400	0.790200
H331	H33	0.213700	0.239700	0.827400
O391	O39	0.458300	0.127000	0.565700
C601	C60	0.125400	0.276400	0.665500
H341	H34	0.107300	0.243900	0.619300
C611	C61	0.075800	0.427100	0.623300
C621	C62	0.143800	0.425200	0.751200
H351	H35	0.138300	0.493100	0.759900
O401	O40	0.138000	0.947900	0.779100
C631	C63	0.230100	0.991300	0.679200
H361	H36	0.252500	0.946500	0.713000
H371	H37	0.203400	0.953800	0.647300
H381	H38	0.250300	0.027700	0.638200
C641	C64	0.402800	0.136000	0.685800
O411	O41	0.209800	0.523500	0.874000
C651	C65	0.205400	0.062600	0.740200
H391	H39	0.232700	0.101000	0.772700
C661	C66	0.352400	0.564900	0.750200
H401	H40	0.333000	0.610400	0.785000
H411	H41	0.388600	0.583500	0.753300
H421	H42	0.339200	0.567300	0.689700
O421	O42	0.336200	0.499100	0.935700
Cd41	Cd4	0.738640	0.549730	0.002300
O431	O43	0.813700	0.501000	0.884300
O441	O44	0.682700	0.518700	0.886900
O451	O45	0.904500	0.910400	0.907000
O461	O46	0.938100	0.486400	0.629700
C671	C67	0.816100	0.593100	0.877900
C681	C68	0.934800	0.577200	0.623600
C691	C69	0.673100	0.504300	0.806100
C701	C70	0.901700	0.739100	0.682200
H431	H43	0.920000	0.771800	0.639000
C711	C71	0.875400	0.587400	0.750200
H441	H44	0.876300	0.518100	0.753700
O471	O47	0.730900	0.880200	0.939700
O481	O48	0.792400	0.648700	0.930700
C721	C72	0.864400	0.955400	0.882800
C731	C73	0.708100	0.928900	0.877600
O491	O49	0.548500	0.876900	0.571400
O501	O50	0.571000	0.020300	0.628800
C741	C74	0.845400	0.746000	0.804400
H451	H45	0.825500	0.782400	0.842900
C751	C75	0.847000	0.641400	0.809100
C761	C76	0.663900	0.723600	0.719300
C771	C77	0.678800	0.874700	0.804400
C781	C78	0.874200	0.794600	0.741200
O511	O51	0.876700	0.896500	0.730500
O521	O52	0.672600	0.628400	0.690400
C791	C79	0.846700	0.958900	0.786100
H461	H46	0.810000	0.939000	0.779900
C801	C80	0.615600	0.873600	0.682200
C811	C81	0.689700	0.773400	0.790200
H471	H47	0.713700	0.739700	0.827400
O531	O53	0.958300	0.627000	0.565700
C821	C82	0.625400	0.776400	0.665500
H481	H48	0.607300	0.743900	0.619300
C831	C83	0.575800	0.927100	0.623300
C841	C84	0.643800	0.925200	0.751200
H491	H49	0.638300	0.993100	0.759900
O541	O54	0.638000	0.447900	0.779100
C851	C85	0.730100	0.491300	0.679200
H501	H50	0.752500	0.446500	0.713000
H511	H51	0.703400	0.453800	0.647300
H521	H52	0.750300	0.527700	0.638200
C861	C86	0.902800	0.636000	0.685800
O551	O55	0.709800	0.023500	0.874000
C871	C87	0.705400	0.562600	0.740200
H531	H53	0.732700	0.601000	0.772700
C881	C88	0.852400	0.064900	0.750200
H541	H54	0.833000	0.110400	0.785000
H551	H55	0.888600	0.083500	0.753300
H561	H56	0.839200	0.067300	0.689700
O561	O56	0.836200	0.999100	0.935700
Cd51	Cd5	0.500000	0.993420	0.500000
Cd61	Cd6	0.000000	0.493420	0.500000
