data_OQUWUU_clean_PM
_symmetry_space_group_name_H-M	'P1'
_cell_length_a	27.249000
_cell_length_b	27.420000
_cell_length_c	25.189000
_cell_angle_alpha	90.000000
_cell_angle_beta	90.000000
_cell_angle_gamma	90.000000
_symmetry_Int_Tables_number 1

loop_
_symmetry_equiv_pos_as_xyz
'x,y,z'

loop_
_atom_site_label
_atom_site_type_symbol
_atom_site_fract_x
_atom_site_fract_y
_atom_site_fract_z
W11	W1	0.191580	0.819960	0.623290
W21	W2	0.036850	0.886590	0.465670
W31	W3	0.207420	0.762210	0.391500
W41	W4	0.146020	0.930210	0.419370
W51	W5	0.256120	0.755900	0.514860
W61	W6	0.089190	0.715180	0.439690
W71	W7	0.137560	0.709270	0.563670
W81	W8	0.032340	0.772420	0.542650
W91	W9	0.260240	0.863090	0.446610
W101	W10	0.086140	0.882820	0.601680
W111	W11	0.196330	0.926450	0.555830
W121	W12	0.094400	0.829860	0.363780
Co11	Co1	0.901500	0.910620	0.470690
Co21	Co2	0.251130	0.716210	0.257600
P11	P1	0.144520	0.820890	0.494350
O11	O1	0.152700	0.848500	0.546500
O21	O2	0.980400	0.913900	0.464000
O31	O3	0.225900	0.732600	0.335300
O41	O4	0.194600	0.806500	0.470900
O51	O5	0.124200	0.893400	0.360800
O61	O6	0.156100	0.722600	0.415400
O71	O7	0.242400	0.896100	0.510400
O81	O8	0.059200	0.902000	0.535100
O91	O9	0.135400	0.932400	0.593900
O101	O10	0.117000	0.853700	0.454800
O111	O11	0.055800	0.821500	0.589200
O121	O12	0.069600	0.724500	0.579300
O131	O13	0.115100	0.680100	0.499700
O141	O14	0.252300	0.816500	0.390900
O151	O15	0.161700	0.943400	0.492900
O161	O16	0.155800	0.761900	0.609500
O171	O17	0.238800	0.795100	0.574800
O181	O18	0.249900	0.733800	0.443500
O191	O19	0.021900	0.824400	0.492800
O201	O20	0.217200	0.883900	0.612400
O211	O21	0.038700	0.859600	0.395800
O221	O22	0.158700	0.803600	0.363600
O231	O23	0.289500	0.812400	0.487000
O241	O24	0.201100	0.717200	0.533200
O251	O25	0.032700	0.729100	0.481500
O261	O26	0.077900	0.938100	0.439100
O271	O27	0.076400	0.770100	0.396900
O281	O28	0.114100	0.774900	0.505300
O291	O29	0.218900	0.806100	0.682300
O301	O30	0.132600	0.849700	0.647200
O311	O31	0.207600	0.899800	0.415800
N11	N1	0.549900	0.996100	0.718400
N21	N2	0.751900	0.924500	0.515300
N31	N3	0.322800	0.733000	0.284600
N41	N4	0.612200	0.960900	0.676500
N51	N5	0.403300	0.737500	0.286100
N61	N6	0.912000	0.057200	0.806200
N71	N7	0.824200	0.915400	0.478300
N81	N8	0.225700	0.064900	0.281900
N91	N9	0.244700	0.788900	0.228600
N101	N10	0.239800	0.868200	0.221700
N111	N11	0.180300	0.702800	0.228000
N121	N12	0.928500	0.926100	0.636500
N131	N13	0.099300	0.699500	0.222500
N141	N14	0.901500	0.085800	0.886900
N151	N15	0.237100	0.144300	0.282800
N161	N16	0.916400	0.905300	0.552200
C11	C1	0.580500	0.996300	0.680900
H11	H1	0.580500	0.021600	0.656400
C21	C2	0.606000	0.931000	0.716000
H21	H2	0.620600	0.901100	0.724100
C31	C3	0.566400	0.959200	0.747000
H31	H3	0.555500	0.951400	0.780500
C41	C4	0.169300	0.701700	0.177900
H41	H4	0.191800	0.702300	0.150100
C51	C5	0.117400	0.699200	0.171900
H51	H5	0.099600	0.697700	0.140400
C61	C6	0.034000	0.710500	0.284700
H61	H6	0.056700	0.722600	0.309000
C71	C7	0.014900	0.703200	0.199600
H71	H7	0.023200	0.700700	0.163900
C81	C8	0.264800	0.804000	0.181900
H81	H8	0.278600	0.783100	0.157000
C91	C9	0.647100	0.951500	0.631900
C101	C10	0.657000	0.905600	0.617500
H91	H9	0.640300	0.879900	0.633500
C111	C11	0.692900	0.895900	0.577500
H101	H10	0.701000	0.864200	0.568100
C121	C12	0.262300	0.853200	0.176000
H111	H11	0.273200	0.872100	0.147700
C131	C13	0.745200	0.897000	0.469000
H121	H12	0.715900	0.885300	0.455100
C141	C14	0.387600	0.759700	0.330300
H131	H13	0.406800	0.774000	0.356600
C151	C15	0.895700	0.123300	0.850900
H141	H14	0.888000	0.155400	0.859300
C161	C16	0.671400	0.991000	0.608800
H151	H15	0.665400	0.022700	0.620200
C171	C17	0.461900	0.732200	0.213700
H161	H16	0.436400	0.731800	0.189200
C181	C18	0.226100	0.954000	0.197700
H171	H17	0.223100	0.945500	0.162100
C191	C19	0.704000	0.981900	0.568900
H181	H18	0.719100	0.007800	0.551600
C201	C20	0.924600	0.876600	0.634400
H191	H19	0.926600	0.855700	0.663400
C211	C21	0.917600	0.862800	0.584200
H201	H20	0.914000	0.830900	0.572300
C221	C22	0.233000	0.979900	0.303200
H211	H21	0.233800	0.988900	0.338800
C231	C23	0.338100	0.757300	0.328800
H221	H22	0.317400	0.770300	0.354500
C241	C24	0.943400	0.037400	0.718500
H231	H23	0.956700	0.068500	0.715600
C251	C25	0.791800	0.891000	0.448400
H241	H24	0.799500	0.872800	0.418400
C261	C26	0.206400	0.081600	0.328600
H251	H25	0.191400	0.063000	0.354900
C271	C27	0.920000	0.023400	0.764300
C281	C28	0.452600	0.733100	0.266600
C291	C29	0.139000	0.703800	0.253600
H261	H26	0.137100	0.707200	0.290300
C301	C30	0.800100	0.935100	0.517700
H271	H27	0.814500	0.954100	0.544000
C311	C31	0.489200	0.732100	0.302700
H281	H28	0.481800	0.731200	0.338700
C321	C32	0.243100	0.104000	0.256100
H291	H29	0.257800	0.102600	0.222800
C331	C33	0.222800	0.002200	0.213600
H301	H30	0.216800	0.026400	0.188600
C341	C34	0.902100	0.975200	0.769900
H311	H31	0.887600	0.965200	0.801400
C351	C35	0.236500	0.931000	0.288900
H321	H32	0.240500	0.907200	0.314800
C361	C36	0.928500	0.958300	0.680800
C371	C37	0.923400	0.941000	0.584500
H331	H33	0.924900	0.973400	0.573800
C381	C38	0.903400	0.105200	0.800700
H341	H34	0.902700	0.122800	0.769200
C391	C39	0.231300	0.829300	0.251500
H351	H35	0.217300	0.830700	0.285200
C401	C40	0.228300	0.014100	0.264900
C411	C41	0.362900	0.721200	0.260400
H361	H36	0.363900	0.703600	0.228900
C421	C42	0.234100	0.918100	0.236700
C431	C43	0.048000	0.700200	0.235700
C441	C44	0.213500	0.130500	0.329000
H371	H37	0.204000	0.151500	0.356100
C451	C45	0.947300	0.004300	0.676100
H381	H38	0.962700	0.013700	0.644800
C461	C46	0.909900	0.046900	0.858900
H391	H39	0.914000	0.015900	0.873200
C471	C47	0.714700	0.934800	0.553900
C481	C48	0.906500	0.943300	0.727700
H401	H40	0.894800	0.911600	0.730800
W131	W13	0.308420	0.680040	0.123290
W141	W14	0.463150	0.613410	0.965670
W151	W15	0.292580	0.737790	0.891500
W161	W16	0.353980	0.569790	0.919370
W171	W17	0.243880	0.744100	0.014860
W181	W18	0.410810	0.784820	0.939690
W191	W19	0.362440	0.790730	0.063670
W201	W20	0.467660	0.727580	0.042650
W211	W21	0.239760	0.636910	0.946610
W221	W22	0.413860	0.617180	0.101680
W231	W23	0.303670	0.573550	0.055830
W241	W24	0.405600	0.670140	0.863780
Co31	Co3	0.598500	0.589380	0.970690
Co41	Co4	0.248870	0.783790	0.757600
P21	P2	0.355480	0.679110	0.994350
O321	O32	0.347300	0.651500	0.046500
O331	O33	0.519600	0.586100	0.964000
O341	O34	0.274100	0.767400	0.835300
O351	O35	0.305400	0.693500	0.970900
O361	O36	0.375800	0.606600	0.860800
O371	O37	0.343900	0.777400	0.915400
O381	O38	0.257600	0.603900	0.010400
O391	O39	0.440800	0.598000	0.035100
O401	O40	0.364600	0.567600	0.093900
O411	O41	0.383000	0.646300	0.954800
O421	O42	0.444200	0.678500	0.089200
O431	O43	0.430400	0.775500	0.079300
O441	O44	0.384900	0.819900	0.999700
O451	O45	0.247700	0.683500	0.890900
O461	O46	0.338300	0.556600	0.992900
O471	O47	0.344200	0.738100	0.109500
O481	O48	0.261200	0.704900	0.074800
O491	O49	0.250100	0.766200	0.943500
O501	O50	0.478100	0.675600	0.992800
O511	O51	0.282800	0.616100	0.112400
O521	O52	0.461300	0.640400	0.895800
O531	O53	0.341300	0.696400	0.863600
O541	O54	0.210500	0.687600	0.987000
O551	O55	0.298900	0.782800	0.033200
O561	O56	0.467300	0.770900	0.981500
O571	O57	0.422100	0.561900	0.939100
O581	O58	0.423600	0.729900	0.896900
O591	O59	0.385900	0.725100	0.005300
O601	O60	0.281100	0.693900	0.182300
O611	O61	0.367400	0.650300	0.147200
O621	O62	0.292400	0.600200	0.915800
N171	N17	0.950100	0.503900	0.218400
N181	N18	0.748100	0.575500	0.015300
N191	N19	0.177200	0.767000	0.784600
N201	N20	0.887800	0.539100	0.176500
N211	N21	0.096700	0.762500	0.786100
N221	N22	0.588000	0.442800	0.306200
N231	N23	0.675800	0.584600	0.978300
N241	N24	0.274300	0.435100	0.781900
N251	N25	0.255300	0.711100	0.728600
N261	N26	0.260200	0.631800	0.721700
N271	N27	0.319700	0.797200	0.728000
N281	N28	0.571500	0.573900	0.136500
N291	N29	0.400700	0.800500	0.722500
N301	N30	0.598500	0.414200	0.386900
N311	N31	0.262900	0.355700	0.782800
N321	N32	0.583600	0.594700	0.052200
C491	C49	0.919500	0.503700	0.180900
H411	H41	0.919500	0.478400	0.156400
C501	C50	0.894000	0.569000	0.216000
H421	H42	0.879400	0.598900	0.224100
C511	C51	0.933600	0.540800	0.247000
H431	H43	0.944500	0.548600	0.280500
C521	C52	0.330700	0.798300	0.677900
H441	H44	0.308200	0.797700	0.650100
C531	C53	0.382600	0.800800	0.671900
H451	H45	0.400400	0.802300	0.640400
C541	C54	0.466000	0.789500	0.784700
H461	H46	0.443300	0.777400	0.809000
C551	C55	0.485100	0.796800	0.699600
H471	H47	0.476800	0.799300	0.663900
C561	C56	0.235200	0.696000	0.681900
H481	H48	0.221400	0.716900	0.657000
C571	C57	0.852900	0.548500	0.131900
C581	C58	0.843000	0.594400	0.117500
H491	H49	0.859700	0.620100	0.133500
C591	C59	0.807100	0.604100	0.077500
H501	H50	0.799000	0.635800	0.068100
C601	C60	0.237700	0.646800	0.676000
H511	H51	0.226800	0.627900	0.647700
C611	C61	0.754800	0.603000	0.969000
H521	H52	0.784100	0.614700	0.955100
C621	C62	0.112400	0.740300	0.830300
H531	H53	0.093200	0.726000	0.856600
C631	C63	0.604300	0.376700	0.350900
H541	H54	0.612000	0.344600	0.359300
C641	C64	0.828600	0.509000	0.108800
H551	H55	0.834600	0.477300	0.120200
C651	C65	0.038100	0.767800	0.713700
H561	H56	0.063600	0.768200	0.689200
C661	C66	0.273900	0.546000	0.697700
H571	H57	0.276900	0.554500	0.662100
C671	C67	0.796000	0.518100	0.068900
H581	H58	0.780900	0.492200	0.051600
C681	C68	0.575400	0.623400	0.134400
H591	H59	0.573400	0.644300	0.163400
C691	C69	0.582400	0.637200	0.084200
H601	H60	0.586000	0.669100	0.072300
C701	C70	0.267000	0.520100	0.803200
H611	H61	0.266200	0.511100	0.838800
C711	C71	0.161900	0.742700	0.828800
H621	H62	0.182600	0.729700	0.854500
C721	C72	0.556600	0.462600	0.218500
H631	H63	0.543300	0.431500	0.215600
C731	C73	0.708200	0.609000	0.948400
H641	H64	0.700500	0.627200	0.918400
C741	C74	0.293600	0.418400	0.828600
H651	H65	0.308600	0.437000	0.854900
C751	C75	0.580000	0.476600	0.264300
C761	C76	0.047400	0.766900	0.766600
C771	C77	0.361000	0.796200	0.753600
H661	H66	0.362900	0.792800	0.790300
C781	C78	0.699900	0.564900	0.017700
H671	H67	0.685500	0.545900	0.044000
C791	C79	0.010800	0.767900	0.802700
H681	H68	0.018200	0.768800	0.838700
C801	C80	0.256900	0.396000	0.756100
H691	H69	0.242200	0.397400	0.722800
C811	C81	0.277200	0.497800	0.713600
H701	H70	0.283200	0.473600	0.688600
C821	C82	0.597900	0.524800	0.269900
H711	H71	0.612400	0.534800	0.301400
C831	C83	0.263500	0.569000	0.788900
H721	H72	0.259500	0.592800	0.814800
C841	C84	0.571500	0.541700	0.180800
C851	C85	0.576600	0.559000	0.084500
H731	H73	0.575100	0.526600	0.073800
C861	C86	0.596600	0.394800	0.300700
H741	H74	0.597300	0.377200	0.269200
C871	C87	0.268700	0.670700	0.751500
H751	H75	0.282700	0.669300	0.785200
C881	C88	0.271700	0.485900	0.764900
C891	C89	0.137100	0.778800	0.760400
H761	H76	0.136100	0.796400	0.728900
C901	C90	0.265900	0.581900	0.736700
C911	C91	0.452000	0.799800	0.735700
C921	C92	0.286500	0.369500	0.829000
H771	H77	0.296000	0.348500	0.856100
C931	C93	0.552700	0.495700	0.176100
H781	H78	0.537300	0.486300	0.144800
C941	C94	0.590100	0.453100	0.358900
H791	H79	0.586000	0.484100	0.373200
C951	C95	0.785300	0.565200	0.053900
C961	C96	0.593500	0.556700	0.227700
H801	H80	0.605200	0.588400	0.230800
W251	W25	0.808420	0.819960	0.876710
W261	W26	0.963150	0.886590	0.034330
W271	W27	0.792580	0.762210	0.108500
W281	W28	0.853980	0.930210	0.080630
W291	W29	0.743880	0.755900	0.985140
W301	W30	0.910810	0.715180	0.060310
W311	W31	0.862440	0.709270	0.936330
W321	W32	0.967660	0.772420	0.957350
W331	W33	0.739760	0.863090	0.053390
W341	W34	0.913860	0.882820	0.898320
W351	W35	0.803670	0.926450	0.944170
W361	W36	0.905600	0.829860	0.136220
Co51	Co5	0.098500	0.910620	0.029310
Co61	Co6	0.748870	0.716210	0.242400
P31	P3	0.855480	0.820890	0.005650
O631	O63	0.847300	0.848500	0.953500
O641	O64	0.019600	0.913900	0.036000
O651	O65	0.774100	0.732600	0.164700
O661	O66	0.805400	0.806500	0.029100
O671	O67	0.875800	0.893400	0.139200
O681	O68	0.843900	0.722600	0.084600
O691	O69	0.757600	0.896100	0.989600
O701	O70	0.940800	0.902000	0.964900
O711	O71	0.864600	0.932400	0.906100
O721	O72	0.883000	0.853700	0.045200
O731	O73	0.944200	0.821500	0.910800
O741	O74	0.930400	0.724500	0.920700
O751	O75	0.884900	0.680100	0.000300
O761	O76	0.747700	0.816500	0.109100
O771	O77	0.838300	0.943400	0.007100
O781	O78	0.844200	0.761900	0.890500
O791	O79	0.761200	0.795100	0.925200
O801	O80	0.750100	0.733800	0.056500
O811	O81	0.978100	0.824400	0.007200
O821	O82	0.782800	0.883900	0.887600
O831	O83	0.961300	0.859600	0.104200
O841	O84	0.841300	0.803600	0.136400
O851	O85	0.710500	0.812400	0.013000
O861	O86	0.798900	0.717200	0.966800
O871	O87	0.967300	0.729100	0.018500
O881	O88	0.922100	0.938100	0.060900
O891	O89	0.923600	0.770100	0.103100
O901	O90	0.885900	0.774900	0.994700
O911	O91	0.781100	0.806100	0.817700
O921	O92	0.867400	0.849700	0.852800
O931	O93	0.792400	0.899800	0.084200
N331	N33	0.450100	0.996100	0.781600
N341	N34	0.248100	0.924500	0.984700
N351	N35	0.677200	0.733000	0.215400
N361	N36	0.387800	0.960900	0.823500
N371	N37	0.596700	0.737500	0.213900
N381	N38	0.088000	0.057200	0.693800
N391	N39	0.175800	0.915400	0.021700
N401	N40	0.774300	0.064900	0.218100
N411	N41	0.755300	0.788900	0.271400
N421	N42	0.760200	0.868200	0.278300
N431	N43	0.819700	0.702800	0.272000
N441	N44	0.071500	0.926100	0.863500
N451	N45	0.900700	0.699500	0.277500
N461	N46	0.098500	0.085800	0.613100
N471	N47	0.762900	0.144300	0.217200
N481	N48	0.083600	0.905300	0.947800
C971	C97	0.419500	0.996300	0.819100
H811	H81	0.419500	0.021600	0.843600
C981	C98	0.394000	0.931000	0.784000
H821	H82	0.379400	0.901100	0.775900
C991	C99	0.433600	0.959200	0.753000
H831	H83	0.444500	0.951400	0.719500
C1001	C100	0.830700	0.701700	0.322100
H841	H84	0.808200	0.702300	0.349900
C1011	C101	0.882600	0.699200	0.328100
H851	H85	0.900400	0.697700	0.359600
C1021	C102	0.966000	0.710500	0.215300
H861	H86	0.943300	0.722600	0.191000
C1031	C103	0.985100	0.703200	0.300400
H871	H87	0.976800	0.700700	0.336100
C1041	C104	0.735200	0.804000	0.318100
H881	H88	0.721400	0.783100	0.343000
C1051	C105	0.352900	0.951500	0.868100
C1061	C106	0.343000	0.905600	0.882500
H891	H89	0.359700	0.879900	0.866500
C1071	C107	0.307100	0.895900	0.922500
H901	H90	0.299000	0.864200	0.931900
C1081	C108	0.737700	0.853200	0.324000
H911	H91	0.726800	0.872100	0.352300
C1091	C109	0.254800	0.897000	0.031000
H921	H92	0.284100	0.885300	0.044900
C1101	C110	0.612400	0.759700	0.169700
H931	H93	0.593200	0.774000	0.143400
C1111	C111	0.104300	0.123300	0.649100
H941	H94	0.112000	0.155400	0.640700
C1121	C112	0.328600	0.991000	0.891200
H951	H95	0.334600	0.022700	0.879800
C1131	C113	0.538100	0.732200	0.286300
H961	H96	0.563600	0.731800	0.310800
C1141	C114	0.773900	0.954000	0.302300
H971	H97	0.776900	0.945500	0.337900
C1151	C115	0.296000	0.981900	0.931100
H981	H98	0.280900	0.007800	0.948400
C1161	C116	0.075400	0.876600	0.865600
H991	H99	0.073400	0.855700	0.836600
C1171	C117	0.082400	0.862800	0.915800
H1001	H100	0.086000	0.830900	0.927700
C1181	C118	0.767000	0.979900	0.196800
H1011	H101	0.766200	0.988900	0.161200
C1191	C119	0.661900	0.757300	0.171200
H1021	H102	0.682600	0.770300	0.145500
C1201	C120	0.056600	0.037400	0.781500
H1031	H103	0.043300	0.068500	0.784400
C1211	C121	0.208200	0.891000	0.051600
H1041	H104	0.200500	0.872800	0.081600
C1221	C122	0.793600	0.081600	0.171400
H1051	H105	0.808600	0.063000	0.145100
C1231	C123	0.080000	0.023400	0.735700
C1241	C124	0.547400	0.733100	0.233400
C1251	C125	0.861000	0.703800	0.246400
H1061	H106	0.862900	0.707200	0.209700
C1261	C126	0.199900	0.935100	0.982300
H1071	H107	0.185500	0.954100	0.956000
C1271	C127	0.510800	0.732100	0.197300
H1081	H108	0.518200	0.731200	0.161300
C1281	C128	0.756900	0.104000	0.243900
H1091	H109	0.742200	0.102600	0.277200
C1291	C129	0.777200	0.002200	0.286400
H1101	H110	0.783200	0.026400	0.311400
C1301	C130	0.097900	0.975200	0.730100
H1111	H111	0.112400	0.965200	0.698600
C1311	C131	0.763500	0.931000	0.211100
H1121	H112	0.759500	0.907200	0.185200
C1321	C132	0.071500	0.958300	0.819200
C1331	C133	0.076600	0.941000	0.915500
H1131	H113	0.075100	0.973400	0.926200
C1341	C134	0.096600	0.105200	0.699300
H1141	H114	0.097300	0.122800	0.730800
C1351	C135	0.768700	0.829300	0.248500
H1151	H115	0.782700	0.830700	0.214800
C1361	C136	0.771700	0.014100	0.235100
C1371	C137	0.637100	0.721200	0.239600
H1161	H116	0.636100	0.703600	0.271100
C1381	C138	0.765900	0.918100	0.263300
C1391	C139	0.952000	0.700200	0.264300
C1401	C140	0.786500	0.130500	0.171000
H1171	H117	0.796000	0.151500	0.143900
C1411	C141	0.052700	0.004300	0.823900
H1181	H118	0.037300	0.013700	0.855200
C1421	C142	0.090100	0.046900	0.641100
H1191	H119	0.086000	0.015900	0.626800
C1431	C143	0.285300	0.934800	0.946100
C1441	C144	0.093500	0.943300	0.772300
H1201	H120	0.105200	0.911600	0.769200
W371	W37	0.691580	0.680040	0.376710
W381	W38	0.536850	0.613410	0.534330
W391	W39	0.707420	0.737790	0.608500
W401	W40	0.646020	0.569790	0.580630
W411	W41	0.756120	0.744100	0.485140
W421	W42	0.589190	0.784820	0.560310
W431	W43	0.637560	0.790730	0.436330
W441	W44	0.532340	0.727580	0.457350
W451	W45	0.760240	0.636910	0.553390
W461	W46	0.586140	0.617180	0.398320
W471	W47	0.696330	0.573550	0.444170
W481	W48	0.594400	0.670140	0.636220
Co71	Co7	0.401500	0.589380	0.529310
Co81	Co8	0.751130	0.783790	0.742400
P41	P4	0.644520	0.679110	0.505650
O941	O94	0.652700	0.651500	0.453500
O951	O95	0.480400	0.586100	0.536000
O961	O96	0.725900	0.767400	0.664700
O971	O97	0.694600	0.693500	0.529100
O981	O98	0.624200	0.606600	0.639200
O991	O99	0.656100	0.777400	0.584600
O1001	O100	0.742400	0.603900	0.489600
O1011	O101	0.559200	0.598000	0.464900
O1021	O102	0.635400	0.567600	0.406100
O1031	O103	0.617000	0.646300	0.545200
O1041	O104	0.555800	0.678500	0.410800
O1051	O105	0.569600	0.775500	0.420700
O1061	O106	0.615100	0.819900	0.500300
O1071	O107	0.752300	0.683500	0.609100
O1081	O108	0.661700	0.556600	0.507100
O1091	O109	0.655800	0.738100	0.390500
O1101	O110	0.738800	0.704900	0.425200
O1111	O111	0.749900	0.766200	0.556500
O1121	O112	0.521900	0.675600	0.507200
O1131	O113	0.717200	0.616100	0.387600
O1141	O114	0.538700	0.640400	0.604200
O1151	O115	0.658700	0.696400	0.636400
O1161	O116	0.789500	0.687600	0.513000
O1171	O117	0.701100	0.782800	0.466800
O1181	O118	0.532700	0.770900	0.518500
O1191	O119	0.577900	0.561900	0.560900
O1201	O120	0.576400	0.729900	0.603100
O1211	O121	0.614100	0.725100	0.494700
O1221	O122	0.718900	0.693900	0.317700
O1231	O123	0.632600	0.650300	0.352800
O1241	O124	0.707600	0.600200	0.584200
N491	N49	0.049900	0.503900	0.281600
N501	N50	0.251900	0.575500	0.484700
N511	N51	0.822800	0.767000	0.715400
N521	N52	0.112200	0.539100	0.323500
N531	N53	0.903300	0.762500	0.713900
N541	N54	0.412000	0.442800	0.193800
N551	N55	0.324200	0.584600	0.521700
N561	N56	0.725700	0.435100	0.718100
N571	N57	0.744700	0.711100	0.771400
N581	N58	0.739800	0.631800	0.778300
N591	N59	0.680300	0.797200	0.772000
N601	N60	0.428500	0.573900	0.363500
N611	N61	0.599300	0.800500	0.777500
N621	N62	0.401500	0.414200	0.113100
N631	N63	0.737100	0.355700	0.717200
N641	N64	0.416400	0.594700	0.447800
C1451	C145	0.080500	0.503700	0.319100
H1211	H121	0.080500	0.478400	0.343600
C1461	C146	0.106000	0.569000	0.284000
H1221	H122	0.120600	0.598900	0.275900
C1471	C147	0.066400	0.540800	0.253000
H1231	H123	0.055500	0.548600	0.219500
C1481	C148	0.669300	0.798300	0.822100
H1241	H124	0.691800	0.797700	0.849900
C1491	C149	0.617400	0.800800	0.828100
H1251	H125	0.599600	0.802300	0.859600
C1501	C150	0.534000	0.789500	0.715300
H1261	H126	0.556700	0.777400	0.691000
C1511	C151	0.514900	0.796800	0.800400
H1271	H127	0.523200	0.799300	0.836100
C1521	C152	0.764800	0.696000	0.818100
H1281	H128	0.778600	0.716900	0.843000
C1531	C153	0.147100	0.548500	0.368100
C1541	C154	0.157000	0.594400	0.382500
H1291	H129	0.140300	0.620100	0.366500
C1551	C155	0.192900	0.604100	0.422500
H1301	H130	0.201000	0.635800	0.431900
C1561	C156	0.762300	0.646800	0.824000
H1311	H131	0.773200	0.627900	0.852300
C1571	C157	0.245200	0.603000	0.531000
H1321	H132	0.215900	0.614700	0.544900
C1581	C158	0.887600	0.740300	0.669700
H1331	H133	0.906800	0.726000	0.643400
C1591	C159	0.395700	0.376700	0.149100
H1341	H134	0.388000	0.344600	0.140700
C1601	C160	0.171400	0.509000	0.391200
H1351	H135	0.165400	0.477300	0.379800
C1611	C161	0.961900	0.767800	0.786300
H1361	H136	0.936400	0.768200	0.810800
C1621	C162	0.726100	0.546000	0.802300
H1371	H137	0.723100	0.554500	0.837900
C1631	C163	0.204000	0.518100	0.431100
H1381	H138	0.219100	0.492200	0.448400
C1641	C164	0.424600	0.623400	0.365600
H1391	H139	0.426600	0.644300	0.336600
C1651	C165	0.417600	0.637200	0.415800
H1401	H140	0.414000	0.669100	0.427700
C1661	C166	0.733000	0.520100	0.696800
H1411	H141	0.733800	0.511100	0.661200
C1671	C167	0.838100	0.742700	0.671200
H1421	H142	0.817400	0.729700	0.645500
C1681	C168	0.443400	0.462600	0.281500
H1431	H143	0.456700	0.431500	0.284400
C1691	C169	0.291800	0.609000	0.551600
H1441	H144	0.299500	0.627200	0.581600
C1701	C170	0.706400	0.418400	0.671400
H1451	H145	0.691400	0.437000	0.645100
C1711	C171	0.420000	0.476600	0.235700
C1721	C172	0.952600	0.766900	0.733400
C1731	C173	0.639000	0.796200	0.746400
H1461	H146	0.637100	0.792800	0.709700
C1741	C174	0.300100	0.564900	0.482300
H1471	H147	0.314500	0.545900	0.456000
C1751	C175	0.989200	0.767900	0.697300
H1481	H148	0.981800	0.768800	0.661300
C1761	C176	0.743100	0.396000	0.743900
H1491	H149	0.757800	0.397400	0.777200
C1771	C177	0.722800	0.497800	0.786400
H1501	H150	0.716800	0.473600	0.811400
C1781	C178	0.402100	0.524800	0.230100
H1511	H151	0.387600	0.534800	0.198600
C1791	C179	0.736500	0.569000	0.711100
H1521	H152	0.740500	0.592800	0.685200
C1801	C180	0.428500	0.541700	0.319200
C1811	C181	0.423400	0.559000	0.415500
H1531	H153	0.424900	0.526600	0.426200
C1821	C182	0.403400	0.394800	0.199300
H1541	H154	0.402700	0.377200	0.230800
C1831	C183	0.731300	0.670700	0.748500
H1551	H155	0.717300	0.669300	0.714800
C1841	C184	0.728300	0.485900	0.735100
C1851	C185	0.862900	0.778800	0.739600
H1561	H156	0.863900	0.796400	0.771100
C1861	C186	0.734100	0.581900	0.763300
C1871	C187	0.548000	0.799800	0.764300
C1881	C188	0.713500	0.369500	0.671000
H1571	H157	0.704000	0.348500	0.643900
C1891	C189	0.447300	0.495700	0.323900
H1581	H158	0.462700	0.486300	0.355200
C1901	C190	0.409900	0.453100	0.141100
H1591	H159	0.414000	0.484100	0.126800
C1911	C191	0.214700	0.565200	0.446100
C1921	C192	0.406500	0.556700	0.272300
H1601	H160	0.394800	0.588400	0.269200
W491	W49	0.808420	0.180040	0.376710
W501	W50	0.963150	0.113410	0.534330
W511	W51	0.792580	0.237790	0.608500
W521	W52	0.853980	0.069790	0.580630
W531	W53	0.743880	0.244100	0.485140
W541	W54	0.910810	0.284820	0.560310
W551	W55	0.862440	0.290730	0.436330
W561	W56	0.967660	0.227580	0.457350
W571	W57	0.739760	0.136910	0.553390
W581	W58	0.913860	0.117180	0.398320
W591	W59	0.803670	0.073550	0.444170
W601	W60	0.905600	0.170140	0.636220
Co91	Co9	0.098500	0.089380	0.529310
Co101	Co10	0.748870	0.283790	0.742400
P51	P5	0.855480	0.179110	0.505650
O1251	O125	0.847300	0.151500	0.453500
O1261	O126	0.019600	0.086100	0.536000
O1271	O127	0.774100	0.267400	0.664700
O1281	O128	0.805400	0.193500	0.529100
O1291	O129	0.875800	0.106600	0.639200
O1301	O130	0.843900	0.277400	0.584600
O1311	O131	0.757600	0.103900	0.489600
O1321	O132	0.940800	0.098000	0.464900
O1331	O133	0.864600	0.067600	0.406100
O1341	O134	0.883000	0.146300	0.545200
O1351	O135	0.944200	0.178500	0.410800
O1361	O136	0.930400	0.275500	0.420700
O1371	O137	0.884900	0.319900	0.500300
O1381	O138	0.747700	0.183500	0.609100
O1391	O139	0.838300	0.056600	0.507100
O1401	O140	0.844200	0.238100	0.390500
O1411	O141	0.761200	0.204900	0.425200
O1421	O142	0.750100	0.266200	0.556500
O1431	O143	0.978100	0.175600	0.507200
O1441	O144	0.782800	0.116100	0.387600
O1451	O145	0.961300	0.140400	0.604200
O1461	O146	0.841300	0.196400	0.636400
O1471	O147	0.710500	0.187600	0.513000
O1481	O148	0.798900	0.282800	0.466800
O1491	O149	0.967300	0.270900	0.518500
O1501	O150	0.922100	0.061900	0.560900
O1511	O151	0.923600	0.229900	0.603100
O1521	O152	0.885900	0.225100	0.494700
O1531	O153	0.781100	0.193900	0.317700
O1541	O154	0.867400	0.150300	0.352800
O1551	O155	0.792400	0.100200	0.584200
N651	N65	0.450100	0.003900	0.281600
N661	N66	0.248100	0.075500	0.484700
N671	N67	0.677200	0.267000	0.715400
N681	N68	0.387800	0.039100	0.323500
N691	N69	0.596700	0.262500	0.713900
N701	N70	0.088000	0.942800	0.193800
N711	N71	0.175800	0.084600	0.521700
N721	N72	0.774300	0.935100	0.718100
N731	N73	0.755300	0.211100	0.771400
N741	N74	0.760200	0.131800	0.778300
N751	N75	0.819700	0.297200	0.772000
N761	N76	0.071500	0.073900	0.363500
N771	N77	0.900700	0.300500	0.777500
N781	N78	0.098500	0.914200	0.113100
N791	N79	0.762900	0.855700	0.717200
N801	N80	0.083600	0.094700	0.447800
C1931	C193	0.419500	0.003700	0.319100
H1611	H161	0.419500	0.978400	0.343600
C1941	C194	0.394000	0.069000	0.284000
H1621	H162	0.379400	0.098900	0.275900
C1951	C195	0.433600	0.040800	0.253000
H1631	H163	0.444500	0.048600	0.219500
C1961	C196	0.830700	0.298300	0.822100
H1641	H164	0.808200	0.297700	0.849900
C1971	C197	0.882600	0.300800	0.828100
H1651	H165	0.900400	0.302300	0.859600
C1981	C198	0.966000	0.289500	0.715300
H1661	H166	0.943300	0.277400	0.691000
C1991	C199	0.985100	0.296800	0.800400
H1671	H167	0.976800	0.299300	0.836100
C2001	C200	0.735200	0.196000	0.818100
H1681	H168	0.721400	0.216900	0.843000
C2011	C201	0.352900	0.048500	0.368100
C2021	C202	0.343000	0.094400	0.382500
H1691	H169	0.359700	0.120100	0.366500
C2031	C203	0.307100	0.104100	0.422500
H1701	H170	0.299000	0.135800	0.431900
C2041	C204	0.737700	0.146800	0.824000
H1711	H171	0.726800	0.127900	0.852300
C2051	C205	0.254800	0.103000	0.531000
H1721	H172	0.284100	0.114700	0.544900
C2061	C206	0.612400	0.240300	0.669700
H1731	H173	0.593200	0.226000	0.643400
C2071	C207	0.104300	0.876700	0.149100
H1741	H174	0.112000	0.844600	0.140700
C2081	C208	0.328600	0.009000	0.391200
H1751	H175	0.334600	0.977300	0.379800
C2091	C209	0.538100	0.267800	0.786300
H1761	H176	0.563600	0.268200	0.810800
C2101	C210	0.773900	0.046000	0.802300
H1771	H177	0.776900	0.054500	0.837900
C2111	C211	0.296000	0.018100	0.431100
H1781	H178	0.280900	0.992200	0.448400
C2121	C212	0.075400	0.123400	0.365600
H1791	H179	0.073400	0.144300	0.336600
C2131	C213	0.082400	0.137200	0.415800
H1801	H180	0.086000	0.169100	0.427700
C2141	C214	0.767000	0.020100	0.696800
H1811	H181	0.766200	0.011100	0.661200
C2151	C215	0.661900	0.242700	0.671200
H1821	H182	0.682600	0.229700	0.645500
C2161	C216	0.056600	0.962600	0.281500
H1831	H183	0.043300	0.931500	0.284400
C2171	C217	0.208200	0.109000	0.551600
H1841	H184	0.200500	0.127200	0.581600
C2181	C218	0.793600	0.918400	0.671400
H1851	H185	0.808600	0.937000	0.645100
C2191	C219	0.080000	0.976600	0.235700
C2201	C220	0.547400	0.266900	0.733400
C2211	C221	0.861000	0.296200	0.746400
H1861	H186	0.862900	0.292800	0.709700
C2221	C222	0.199900	0.064900	0.482300
H1871	H187	0.185500	0.045900	0.456000
C2231	C223	0.510800	0.267900	0.697300
H1881	H188	0.518200	0.268800	0.661300
C2241	C224	0.756900	0.896000	0.743900
H1891	H189	0.742200	0.897400	0.777200
C2251	C225	0.777200	0.997800	0.786400
H1901	H190	0.783200	0.973600	0.811400
C2261	C226	0.097900	0.024800	0.230100
H1911	H191	0.112400	0.034800	0.198600
C2271	C227	0.763500	0.069000	0.711100
H1921	H192	0.759500	0.092800	0.685200
C2281	C228	0.071500	0.041700	0.319200
C2291	C229	0.076600	0.059000	0.415500
H1931	H193	0.075100	0.026600	0.426200
C2301	C230	0.096600	0.894800	0.199300
H1941	H194	0.097300	0.877200	0.230800
C2311	C231	0.768700	0.170700	0.748500
H1951	H195	0.782700	0.169300	0.714800
C2321	C232	0.771700	0.985900	0.735100
C2331	C233	0.637100	0.278800	0.739600
H1961	H196	0.636100	0.296400	0.771100
C2341	C234	0.765900	0.081900	0.763300
C2351	C235	0.952000	0.299800	0.764300
C2361	C236	0.786500	0.869500	0.671000
H1971	H197	0.796000	0.848500	0.643900
C2371	C237	0.052700	0.995700	0.323900
H1981	H198	0.037300	0.986300	0.355200
C2381	C238	0.090100	0.953100	0.141100
H1991	H199	0.086000	0.984100	0.126800
C2391	C239	0.285300	0.065200	0.446100
C2401	C240	0.093500	0.056700	0.272300
H2001	H200	0.105200	0.088400	0.269200
W611	W61	0.691580	0.319960	0.876710
W621	W62	0.536850	0.386590	0.034330
W631	W63	0.707420	0.262210	0.108500
W641	W64	0.646020	0.430210	0.080630
W651	W65	0.756120	0.255900	0.985140
W661	W66	0.589190	0.215180	0.060310
W671	W67	0.637560	0.209270	0.936330
W681	W68	0.532340	0.272420	0.957350
W691	W69	0.760240	0.363090	0.053390
W701	W70	0.586140	0.382820	0.898320
W711	W71	0.696330	0.426450	0.944170
W721	W72	0.594400	0.329860	0.136220
Co111	Co11	0.401500	0.410620	0.029310
Co121	Co12	0.751130	0.216210	0.242400
P61	P6	0.644520	0.320890	0.005650
O1561	O156	0.652700	0.348500	0.953500
O1571	O157	0.480400	0.413900	0.036000
O1581	O158	0.725900	0.232600	0.164700
O1591	O159	0.694600	0.306500	0.029100
O1601	O160	0.624200	0.393400	0.139200
O1611	O161	0.656100	0.222600	0.084600
O1621	O162	0.742400	0.396100	0.989600
O1631	O163	0.559200	0.402000	0.964900
O1641	O164	0.635400	0.432400	0.906100
O1651	O165	0.617000	0.353700	0.045200
O1661	O166	0.555800	0.321500	0.910800
O1671	O167	0.569600	0.224500	0.920700
O1681	O168	0.615100	0.180100	0.000300
O1691	O169	0.752300	0.316500	0.109100
O1701	O170	0.661700	0.443400	0.007100
O1711	O171	0.655800	0.261900	0.890500
O1721	O172	0.738800	0.295100	0.925200
O1731	O173	0.749900	0.233800	0.056500
O1741	O174	0.521900	0.324400	0.007200
O1751	O175	0.717200	0.383900	0.887600
O1761	O176	0.538700	0.359600	0.104200
O1771	O177	0.658700	0.303600	0.136400
O1781	O178	0.789500	0.312400	0.013000
O1791	O179	0.701100	0.217200	0.966800
O1801	O180	0.532700	0.229100	0.018500
O1811	O181	0.577900	0.438100	0.060900
O1821	O182	0.576400	0.270100	0.103100
O1831	O183	0.614100	0.274900	0.994700
O1841	O184	0.718900	0.306100	0.817700
O1851	O185	0.632600	0.349700	0.852800
O1861	O186	0.707600	0.399800	0.084200
N811	N81	0.049900	0.496100	0.781600
N821	N82	0.251900	0.424500	0.984700
N831	N83	0.822800	0.233000	0.215400
N841	N84	0.112200	0.460900	0.823500
N851	N85	0.903300	0.237500	0.213900
N861	N86	0.412000	0.557200	0.693800
N871	N87	0.324200	0.415400	0.021700
N881	N88	0.725700	0.564900	0.218100
N891	N89	0.744700	0.288900	0.271400
N901	N90	0.739800	0.368200	0.278300
N911	N91	0.680300	0.202800	0.272000
N921	N92	0.428500	0.426100	0.863500
N931	N93	0.599300	0.199500	0.277500
N941	N94	0.401500	0.585800	0.613100
N951	N95	0.737100	0.644300	0.217200
N961	N96	0.416400	0.405300	0.947800
C2411	C241	0.080500	0.496300	0.819100
H2011	H201	0.080500	0.521600	0.843600
C2421	C242	0.106000	0.431000	0.784000
H2021	H202	0.120600	0.401100	0.775900
C2431	C243	0.066400	0.459200	0.753000
H2031	H203	0.055500	0.451400	0.719500
C2441	C244	0.669300	0.201700	0.322100
H2041	H204	0.691800	0.202300	0.349900
C2451	C245	0.617400	0.199200	0.328100
H2051	H205	0.599600	0.197700	0.359600
C2461	C246	0.534000	0.210500	0.215300
H2061	H206	0.556700	0.222600	0.191000
C2471	C247	0.514900	0.203200	0.300400
H2071	H207	0.523200	0.200700	0.336100
C2481	C248	0.764800	0.304000	0.318100
H2081	H208	0.778600	0.283100	0.343000
C2491	C249	0.147100	0.451500	0.868100
C2501	C250	0.157000	0.405600	0.882500
H2091	H209	0.140300	0.379900	0.866500
C2511	C251	0.192900	0.395900	0.922500
H2101	H210	0.201000	0.364200	0.931900
C2521	C252	0.762300	0.353200	0.324000
H2111	H211	0.773200	0.372100	0.352300
C2531	C253	0.245200	0.397000	0.031000
H2121	H212	0.215900	0.385300	0.044900
C2541	C254	0.887600	0.259700	0.169700
H2131	H213	0.906800	0.274000	0.143400
C2551	C255	0.395700	0.623300	0.649100
H2141	H214	0.388000	0.655400	0.640700
C2561	C256	0.171400	0.491000	0.891200
H2151	H215	0.165400	0.522700	0.879800
C2571	C257	0.961900	0.232200	0.286300
H2161	H216	0.936400	0.231800	0.310800
C2581	C258	0.726100	0.454000	0.302300
H2171	H217	0.723100	0.445500	0.337900
C2591	C259	0.204000	0.481900	0.931100
H2181	H218	0.219100	0.507800	0.948400
C2601	C260	0.424600	0.376600	0.865600
H2191	H219	0.426600	0.355700	0.836600
C2611	C261	0.417600	0.362800	0.915800
H2201	H220	0.414000	0.330900	0.927700
C2621	C262	0.733000	0.479900	0.196800
H2211	H221	0.733800	0.488900	0.161200
C2631	C263	0.838100	0.257300	0.171200
H2221	H222	0.817400	0.270300	0.145500
C2641	C264	0.443400	0.537400	0.781500
H2231	H223	0.456700	0.568500	0.784400
C2651	C265	0.291800	0.391000	0.051600
H2241	H224	0.299500	0.372800	0.081600
C2661	C266	0.706400	0.581600	0.171400
H2251	H225	0.691400	0.563000	0.145100
C2671	C267	0.420000	0.523400	0.735700
C2681	C268	0.952600	0.233100	0.233400
C2691	C269	0.639000	0.203800	0.246400
H2261	H226	0.637100	0.207200	0.209700
C2701	C270	0.300100	0.435100	0.982300
H2271	H227	0.314500	0.454100	0.956000
C2711	C271	0.989200	0.232100	0.197300
H2281	H228	0.981800	0.231200	0.161300
C2721	C272	0.743100	0.604000	0.243900
H2291	H229	0.757800	0.602600	0.277200
C2731	C273	0.722800	0.502200	0.286400
H2301	H230	0.716800	0.526400	0.311400
C2741	C274	0.402100	0.475200	0.730100
H2311	H231	0.387600	0.465200	0.698600
C2751	C275	0.736500	0.431000	0.211100
H2321	H232	0.740500	0.407200	0.185200
C2761	C276	0.428500	0.458300	0.819200
C2771	C277	0.423400	0.441000	0.915500
H2331	H233	0.424900	0.473400	0.926200
C2781	C278	0.403400	0.605200	0.699300
H2341	H234	0.402700	0.622800	0.730800
C2791	C279	0.731300	0.329300	0.248500
H2351	H235	0.717300	0.330700	0.214800
C2801	C280	0.728300	0.514100	0.235100
C2811	C281	0.862900	0.221200	0.239600
H2361	H236	0.863900	0.203600	0.271100
C2821	C282	0.734100	0.418100	0.263300
C2831	C283	0.548000	0.200200	0.264300
C2841	C284	0.713500	0.630500	0.171000
H2371	H237	0.704000	0.651500	0.143900
C2851	C285	0.447300	0.504300	0.823900
H2381	H238	0.462700	0.513700	0.855200
C2861	C286	0.409900	0.546900	0.641100
H2391	H239	0.414000	0.515900	0.626800
C2871	C287	0.214700	0.434800	0.946100
C2881	C288	0.406500	0.443300	0.772300
H2401	H240	0.394800	0.411600	0.769200
W731	W73	0.191580	0.180040	0.123290
W741	W74	0.036850	0.113410	0.965670
W751	W75	0.207420	0.237790	0.891500
W761	W76	0.146020	0.069790	0.919370
W771	W77	0.256120	0.244100	0.014860
W781	W78	0.089190	0.284820	0.939690
W791	W79	0.137560	0.290730	0.063670
W801	W80	0.032340	0.227580	0.042650
W811	W81	0.260240	0.136910	0.946610
W821	W82	0.086140	0.117180	0.101680
W831	W83	0.196330	0.073550	0.055830
W841	W84	0.094400	0.170140	0.863780
Co131	Co13	0.901500	0.089380	0.970690
Co141	Co14	0.251130	0.283790	0.757600
P71	P7	0.144520	0.179110	0.994350
O1871	O187	0.152700	0.151500	0.046500
O1881	O188	0.980400	0.086100	0.964000
O1891	O189	0.225900	0.267400	0.835300
O1901	O190	0.194600	0.193500	0.970900
O1911	O191	0.124200	0.106600	0.860800
O1921	O192	0.156100	0.277400	0.915400
O1931	O193	0.242400	0.103900	0.010400
O1941	O194	0.059200	0.098000	0.035100
O1951	O195	0.135400	0.067600	0.093900
O1961	O196	0.117000	0.146300	0.954800
O1971	O197	0.055800	0.178500	0.089200
O1981	O198	0.069600	0.275500	0.079300
O1991	O199	0.115100	0.319900	0.999700
O2001	O200	0.252300	0.183500	0.890900
O2011	O201	0.161700	0.056600	0.992900
O2021	O202	0.155800	0.238100	0.109500
O2031	O203	0.238800	0.204900	0.074800
O2041	O204	0.249900	0.266200	0.943500
O2051	O205	0.021900	0.175600	0.992800
O2061	O206	0.217200	0.116100	0.112400
O2071	O207	0.038700	0.140400	0.895800
O2081	O208	0.158700	0.196400	0.863600
O2091	O209	0.289500	0.187600	0.987000
O2101	O210	0.201100	0.282800	0.033200
O2111	O211	0.032700	0.270900	0.981500
O2121	O212	0.077900	0.061900	0.939100
O2131	O213	0.076400	0.229900	0.896900
O2141	O214	0.114100	0.225100	0.005300
O2151	O215	0.218900	0.193900	0.182300
O2161	O216	0.132600	0.150300	0.147200
O2171	O217	0.207600	0.100200	0.915800
N971	N97	0.549900	0.003900	0.218400
N981	N98	0.751900	0.075500	0.015300
N991	N99	0.322800	0.267000	0.784600
N1001	N100	0.612200	0.039100	0.176500
N1011	N101	0.403300	0.262500	0.786100
N1021	N102	0.912000	0.942800	0.306200
N1031	N103	0.824200	0.084600	0.978300
N1041	N104	0.225700	0.935100	0.781900
N1051	N105	0.244700	0.211100	0.728600
N1061	N106	0.239800	0.131800	0.721700
N1071	N107	0.180300	0.297200	0.728000
N1081	N108	0.928500	0.073900	0.136500
N1091	N109	0.099300	0.300500	0.722500
N1101	N110	0.901500	0.914200	0.386900
N1111	N111	0.237100	0.855700	0.782800
N1121	N112	0.916400	0.094700	0.052200
C2891	C289	0.580500	0.003700	0.180900
H2411	H241	0.580500	0.978400	0.156400
C2901	C290	0.606000	0.069000	0.216000
H2421	H242	0.620600	0.098900	0.224100
C2911	C291	0.566400	0.040800	0.247000
H2431	H243	0.555500	0.048600	0.280500
C2921	C292	0.169300	0.298300	0.677900
H2441	H244	0.191800	0.297700	0.650100
C2931	C293	0.117400	0.300800	0.671900
H2451	H245	0.099600	0.302300	0.640400
C2941	C294	0.034000	0.289500	0.784700
H2461	H246	0.056700	0.277400	0.809000
C2951	C295	0.014900	0.296800	0.699600
H2471	H247	0.023200	0.299300	0.663900
C2961	C296	0.264800	0.196000	0.681900
H2481	H248	0.278600	0.216900	0.657000
C2971	C297	0.647100	0.048500	0.131900
C2981	C298	0.657000	0.094400	0.117500
H2491	H249	0.640300	0.120100	0.133500
C2991	C299	0.692900	0.104100	0.077500
H2501	H250	0.701000	0.135800	0.068100
C3001	C300	0.262300	0.146800	0.676000
H2511	H251	0.273200	0.127900	0.647700
C3011	C301	0.745200	0.103000	0.969000
H2521	H252	0.715900	0.114700	0.955100
C3021	C302	0.387600	0.240300	0.830300
H2531	H253	0.406800	0.226000	0.856600
C3031	C303	0.895700	0.876700	0.350900
H2541	H254	0.888000	0.844600	0.359300
C3041	C304	0.671400	0.009000	0.108800
H2551	H255	0.665400	0.977300	0.120200
C3051	C305	0.461900	0.267800	0.713700
H2561	H256	0.436400	0.268200	0.689200
C3061	C306	0.226100	0.046000	0.697700
H2571	H257	0.223100	0.054500	0.662100
C3071	C307	0.704000	0.018100	0.068900
H2581	H258	0.719100	0.992200	0.051600
C3081	C308	0.924600	0.123400	0.134400
H2591	H259	0.926600	0.144300	0.163400
C3091	C309	0.917600	0.137200	0.084200
H2601	H260	0.914000	0.169100	0.072300
C3101	C310	0.233000	0.020100	0.803200
H2611	H261	0.233800	0.011100	0.838800
C3111	C311	0.338100	0.242700	0.828800
H2621	H262	0.317400	0.229700	0.854500
C3121	C312	0.943400	0.962600	0.218500
H2631	H263	0.956700	0.931500	0.215600
C3131	C313	0.791800	0.109000	0.948400
H2641	H264	0.799500	0.127200	0.918400
C3141	C314	0.206400	0.918400	0.828600
H2651	H265	0.191400	0.937000	0.854900
C3151	C315	0.920000	0.976600	0.264300
C3161	C316	0.452600	0.266900	0.766600
C3171	C317	0.139000	0.296200	0.753600
H2661	H266	0.137100	0.292800	0.790300
C3181	C318	0.800100	0.064900	0.017700
H2671	H267	0.814500	0.045900	0.044000
C3191	C319	0.489200	0.267900	0.802700
H2681	H268	0.481800	0.268800	0.838700
C3201	C320	0.243100	0.896000	0.756100
H2691	H269	0.257800	0.897400	0.722800
C3211	C321	0.222800	0.997800	0.713600
H2701	H270	0.216800	0.973600	0.688600
C3221	C322	0.902100	0.024800	0.269900
H2711	H271	0.887600	0.034800	0.301400
C3231	C323	0.236500	0.069000	0.788900
H2721	H272	0.240500	0.092800	0.814800
C3241	C324	0.928500	0.041700	0.180800
C3251	C325	0.923400	0.059000	0.084500
H2731	H273	0.924900	0.026600	0.073800
C3261	C326	0.903400	0.894800	0.300700
H2741	H274	0.902700	0.877200	0.269200
C3271	C327	0.231300	0.170700	0.751500
H2751	H275	0.217300	0.169300	0.785200
C3281	C328	0.228300	0.985900	0.764900
C3291	C329	0.362900	0.278800	0.760400
H2761	H276	0.363900	0.296400	0.728900
C3301	C330	0.234100	0.081900	0.736700
C3311	C331	0.048000	0.299800	0.735700
C3321	C332	0.213500	0.869500	0.829000
H2771	H277	0.204000	0.848500	0.856100
C3331	C333	0.947300	0.995700	0.176100
H2781	H278	0.962700	0.986300	0.144800
C3341	C334	0.909900	0.953100	0.358900
H2791	H279	0.914000	0.984100	0.373200
C3351	C335	0.714700	0.065200	0.053900
C3361	C336	0.906500	0.056700	0.227700
H2801	H280	0.894800	0.088400	0.230800
W851	W85	0.308420	0.319960	0.623290
W861	W86	0.463150	0.386590	0.465670
W871	W87	0.292580	0.262210	0.391500
W881	W88	0.353980	0.430210	0.419370
W891	W89	0.243880	0.255900	0.514860
W901	W90	0.410810	0.215180	0.439690
W911	W91	0.362440	0.209270	0.563670
W921	W92	0.467660	0.272420	0.542650
W931	W93	0.239760	0.363090	0.446610
W941	W94	0.413860	0.382820	0.601680
W951	W95	0.303670	0.426450	0.555830
W961	W96	0.405600	0.329860	0.363780
Co151	Co15	0.598500	0.410620	0.470690
Co161	Co16	0.248870	0.216210	0.257600
P81	P8	0.355480	0.320890	0.494350
O2181	O218	0.347300	0.348500	0.546500
O2191	O219	0.519600	0.413900	0.464000
O2201	O220	0.274100	0.232600	0.335300
O2211	O221	0.305400	0.306500	0.470900
O2221	O222	0.375800	0.393400	0.360800
O2231	O223	0.343900	0.222600	0.415400
O2241	O224	0.257600	0.396100	0.510400
O2251	O225	0.440800	0.402000	0.535100
O2261	O226	0.364600	0.432400	0.593900
O2271	O227	0.383000	0.353700	0.454800
O2281	O228	0.444200	0.321500	0.589200
O2291	O229	0.430400	0.224500	0.579300
O2301	O230	0.384900	0.180100	0.499700
O2311	O231	0.247700	0.316500	0.390900
O2321	O232	0.338300	0.443400	0.492900
O2331	O233	0.344200	0.261900	0.609500
O2341	O234	0.261200	0.295100	0.574800
O2351	O235	0.250100	0.233800	0.443500
O2361	O236	0.478100	0.324400	0.492800
O2371	O237	0.282800	0.383900	0.612400
O2381	O238	0.461300	0.359600	0.395800
O2391	O239	0.341300	0.303600	0.363600
O2401	O240	0.210500	0.312400	0.487000
O2411	O241	0.298900	0.217200	0.533200
O2421	O242	0.467300	0.229100	0.481500
O2431	O243	0.422100	0.438100	0.439100
O2441	O244	0.423600	0.270100	0.396900
O2451	O245	0.385900	0.274900	0.505300
O2461	O246	0.281100	0.306100	0.682300
O2471	O247	0.367400	0.349700	0.647200
O2481	O248	0.292400	0.399800	0.415800
N1131	N113	0.950100	0.496100	0.718400
N1141	N114	0.748100	0.424500	0.515300
N1151	N115	0.177200	0.233000	0.284600
N1161	N116	0.887800	0.460900	0.676500
N1171	N117	0.096700	0.237500	0.286100
N1181	N118	0.588000	0.557200	0.806200
N1191	N119	0.675800	0.415400	0.478300
N1201	N120	0.274300	0.564900	0.281900
N1211	N121	0.255300	0.288900	0.228600
N1221	N122	0.260200	0.368200	0.221700
N1231	N123	0.319700	0.202800	0.228000
N1241	N124	0.571500	0.426100	0.636500
N1251	N125	0.400700	0.199500	0.222500
N1261	N126	0.598500	0.585800	0.886900
N1271	N127	0.262900	0.644300	0.282800
N1281	N128	0.583600	0.405300	0.552200
C3371	C337	0.919500	0.496300	0.680900
H2811	H281	0.919500	0.521600	0.656400
C3381	C338	0.894000	0.431000	0.716000
H2821	H282	0.879400	0.401100	0.724100
C3391	C339	0.933600	0.459200	0.747000
H2831	H283	0.944500	0.451400	0.780500
C3401	C340	0.330700	0.201700	0.177900
H2841	H284	0.308200	0.202300	0.150100
C3411	C341	0.382600	0.199200	0.171900
H2851	H285	0.400400	0.197700	0.140400
C3421	C342	0.466000	0.210500	0.284700
H2861	H286	0.443300	0.222600	0.309000
C3431	C343	0.485100	0.203200	0.199600
H2871	H287	0.476800	0.200700	0.163900
C3441	C344	0.235200	0.304000	0.181900
H2881	H288	0.221400	0.283100	0.157000
C3451	C345	0.852900	0.451500	0.631900
C3461	C346	0.843000	0.405600	0.617500
H2891	H289	0.859700	0.379900	0.633500
C3471	C347	0.807100	0.395900	0.577500
H2901	H290	0.799000	0.364200	0.568100
C3481	C348	0.237700	0.353200	0.176000
H2911	H291	0.226800	0.372100	0.147700
C3491	C349	0.754800	0.397000	0.469000
H2921	H292	0.784100	0.385300	0.455100
C3501	C350	0.112400	0.259700	0.330300
H2931	H293	0.093200	0.274000	0.356600
C3511	C351	0.604300	0.623300	0.850900
H2941	H294	0.612000	0.655400	0.859300
C3521	C352	0.828600	0.491000	0.608800
H2951	H295	0.834600	0.522700	0.620200
C3531	C353	0.038100	0.232200	0.213700
H2961	H296	0.063600	0.231800	0.189200
C3541	C354	0.273900	0.454000	0.197700
H2971	H297	0.276900	0.445500	0.162100
C3551	C355	0.796000	0.481900	0.568900
H2981	H298	0.780900	0.507800	0.551600
C3561	C356	0.575400	0.376600	0.634400
H2991	H299	0.573400	0.355700	0.663400
C3571	C357	0.582400	0.362800	0.584200
H3001	H300	0.586000	0.330900	0.572300
C3581	C358	0.267000	0.479900	0.303200
H3011	H301	0.266200	0.488900	0.338800
C3591	C359	0.161900	0.257300	0.328800
H3021	H302	0.182600	0.270300	0.354500
C3601	C360	0.556600	0.537400	0.718500
H3031	H303	0.543300	0.568500	0.715600
C3611	C361	0.708200	0.391000	0.448400
H3041	H304	0.700500	0.372800	0.418400
C3621	C362	0.293600	0.581600	0.328600
H3051	H305	0.308600	0.563000	0.354900
C3631	C363	0.580000	0.523400	0.764300
C3641	C364	0.047400	0.233100	0.266600
C3651	C365	0.361000	0.203800	0.253600
H3061	H306	0.362900	0.207200	0.290300
C3661	C366	0.699900	0.435100	0.517700
H3071	H307	0.685500	0.454100	0.544000
C3671	C367	0.010800	0.232100	0.302700
H3081	H308	0.018200	0.231200	0.338700
C3681	C368	0.256900	0.604000	0.256100
H3091	H309	0.242200	0.602600	0.222800
C3691	C369	0.277200	0.502200	0.213600
H3101	H310	0.283200	0.526400	0.188600
C3701	C370	0.597900	0.475200	0.769900
H3111	H311	0.612400	0.465200	0.801400
C3711	C371	0.263500	0.431000	0.288900
H3121	H312	0.259500	0.407200	0.314800
C3721	C372	0.571500	0.458300	0.680800
C3731	C373	0.576600	0.441000	0.584500
H3131	H313	0.575100	0.473400	0.573800
C3741	C374	0.596600	0.605200	0.800700
H3141	H314	0.597300	0.622800	0.769200
C3751	C375	0.268700	0.329300	0.251500
H3151	H315	0.282700	0.330700	0.285200
C3761	C376	0.271700	0.514100	0.264900
C3771	C377	0.137100	0.221200	0.260400
H3161	H316	0.136100	0.203600	0.228900
C3781	C378	0.265900	0.418100	0.236700
C3791	C379	0.452000	0.200200	0.235700
C3801	C380	0.286500	0.630500	0.329000
H3171	H317	0.296000	0.651500	0.356100
C3811	C381	0.552700	0.504300	0.676100
H3181	H318	0.537300	0.513700	0.644800
C3821	C382	0.590100	0.546900	0.858900
H3191	H319	0.586000	0.515900	0.873200
C3831	C383	0.785300	0.434800	0.553900
C3841	C384	0.593500	0.443300	0.727700
H3201	H320	0.605200	0.411600	0.730800
Co171	Co17	0.500000	0.047200	0.750000
Co181	Co18	0.000000	0.452800	0.250000
Co191	Co19	0.500000	0.952800	0.250000
Co201	Co20	0.000000	0.547200	0.750000
