data_OQUXIJ_clean_PM
_symmetry_space_group_name_H-M	'P1'
_cell_length_a	26.548000
_cell_length_b	20.076000
_cell_length_c	12.964000
_cell_angle_alpha	90.000000
_cell_angle_beta	90.000000
_cell_angle_gamma	90.000000
_symmetry_Int_Tables_number 1

loop_
_symmetry_equiv_pos_as_xyz
'x,y,z'

loop_
_atom_site_label
_atom_site_type_symbol
_atom_site_fract_x
_atom_site_fract_y
_atom_site_fract_z
Co11	Co1	0.740750	0.106940	0.596600
W11	W1	0.847080	0.167180	0.015670
W21	W2	0.733050	0.077040	0.104930
W31	W3	0.731070	0.169450	0.859360
W41	W4	0.631820	0.157820	0.181440
W51	W5	0.733800	0.158140	0.323710
N11	N1	0.661600	0.081100	0.587600
O11	O1	0.745700	0.074900	0.248300
O21	O2	0.800200	0.107500	0.084200
O31	O3	0.800500	0.315300	0.289000
O41	O4	0.662400	0.141500	0.314500
O51	O5	0.876100	0.182600	0.151100
O61	O6	0.659200	0.182100	0.845900
O71	O7	0.661700	0.075200	0.132900
O81	O8	0.714200	0.178300	0.161000
O91	O9	0.798900	0.172200	0.907400
O101	O10	0.743200	0.127800	0.445400
O111	O11	0.719600	0.108500	0.969300
O121	O12	0.623900	0.184800	0.040900
O131	O13	0.741500	0.992900	0.084500
C11	C1	0.638500	0.035500	0.523100
H11	H1	0.654600	0.012000	0.470700
N21	N2	0.580300	0.072400	0.628600
C21	C2	0.534200	0.083400	0.681900
C31	C3	0.452800	0.044400	0.738300
H21	H2	0.427900	0.011900	0.740300
C41	C4	0.498000	0.033100	0.685400
H31	H3	0.503800	0.992500	0.653000
C51	C5	0.445900	0.104100	0.787100
C61	C6	0.625900	0.099900	0.653000
H41	H4	0.631300	0.128300	0.708600
C71	C7	0.480500	0.152200	0.784000
H51	H5	0.474100	0.192900	0.815200
C81	C8	0.527300	0.141700	0.731000
H61	H6	0.552200	0.174200	0.731800
C91	C9	0.589900	0.030100	0.547000
H71	H7	0.566500	0.002600	0.514500
N31	N3	0.401100	0.118600	0.844500
C101	C10	0.348200	0.156800	0.962200
H81	H8	0.335500	0.178600	0.019900
C111	C11	0.398200	0.157200	0.934400
H91	H9	0.424500	0.178600	0.968100
N41	N4	0.319800	0.120800	0.895700
C121	C12	0.353000	0.098900	0.823600
H101	H10	0.343900	0.073400	0.766700
O141	O14	0.737200	0.114800	0.755800
Co21	Co2	0.759250	0.893060	0.096600
W61	W6	0.652920	0.832820	0.515670
W71	W7	0.766950	0.922960	0.604930
W81	W8	0.768930	0.830550	0.359360
W91	W9	0.868180	0.842180	0.681440
W101	W10	0.766200	0.841860	0.823710
N51	N5	0.838400	0.918900	0.087600
O151	O15	0.754300	0.925100	0.748300
O161	O16	0.699800	0.892500	0.584200
O171	O17	0.699500	0.684700	0.789000
O181	O18	0.837600	0.858500	0.814500
O191	O19	0.623900	0.817400	0.651100
O201	O20	0.840800	0.817900	0.345900
O211	O21	0.838300	0.924800	0.632900
O221	O22	0.785800	0.821700	0.661000
O231	O23	0.701100	0.827800	0.407400
O241	O24	0.756800	0.872200	0.945400
O251	O25	0.780400	0.891500	0.469300
O261	O26	0.876100	0.815200	0.540900
O271	O27	0.758500	0.007100	0.584500
C131	C13	0.861500	0.964500	0.023100
H111	H11	0.845400	0.988000	0.970700
N61	N6	0.919700	0.927600	0.128600
C141	C14	0.965800	0.916600	0.181900
C151	C15	0.047200	0.955600	0.238300
H121	H12	0.072100	0.988100	0.240300
C161	C16	0.002000	0.966900	0.185400
H131	H13	0.996200	0.007500	0.153000
C171	C17	0.054100	0.895900	0.287100
C181	C18	0.874100	0.900100	0.153000
H141	H14	0.868700	0.871700	0.208600
C191	C19	0.019500	0.847800	0.284000
H151	H15	0.025900	0.807100	0.315200
C201	C20	0.972700	0.858300	0.231000
H161	H16	0.947800	0.825800	0.231800
C211	C21	0.910100	0.969900	0.047000
H171	H17	0.933500	0.997400	0.014500
N71	N7	0.098900	0.881400	0.344500
C221	C22	0.151800	0.843200	0.462200
H181	H18	0.164500	0.821400	0.519900
C231	C23	0.101800	0.842800	0.434400
H191	H19	0.075500	0.821400	0.468100
N81	N8	0.180200	0.879200	0.395700
C241	C24	0.147000	0.901100	0.323600
H201	H20	0.156100	0.926600	0.266700
O281	O28	0.762800	0.885200	0.255800
Co31	Co3	0.259250	0.606940	0.403400
W111	W11	0.152920	0.667180	0.984330
W121	W12	0.266950	0.577040	0.895070
W131	W13	0.268930	0.669450	0.140640
W141	W14	0.368180	0.657820	0.818560
W151	W15	0.266200	0.658140	0.676290
N91	N9	0.338400	0.581100	0.412400
O291	O29	0.254300	0.574900	0.751700
O301	O30	0.199800	0.607500	0.915800
O311	O31	0.199500	0.815300	0.711000
O321	O32	0.337600	0.641500	0.685500
O331	O33	0.123900	0.682600	0.848900
O341	O34	0.340800	0.682100	0.154100
O351	O35	0.338300	0.575200	0.867100
O361	O36	0.285800	0.678300	0.839000
O371	O37	0.201100	0.672200	0.092600
O381	O38	0.256800	0.627800	0.554600
O391	O39	0.280400	0.608500	0.030700
O401	O40	0.376100	0.684800	0.959100
O411	O41	0.258500	0.492900	0.915500
C251	C25	0.361500	0.535500	0.476900
H211	H21	0.345400	0.512000	0.529300
N101	N10	0.419700	0.572400	0.371400
C261	C26	0.465800	0.583400	0.318100
C271	C27	0.547200	0.544400	0.261700
H221	H22	0.572100	0.511900	0.259700
C281	C28	0.502000	0.533100	0.314600
H231	H23	0.496200	0.492500	0.347000
C291	C29	0.554100	0.604100	0.212900
C301	C30	0.374100	0.599900	0.347000
H241	H24	0.368700	0.628300	0.291400
C311	C31	0.519500	0.652200	0.216000
H251	H25	0.525900	0.692900	0.184800
C321	C32	0.472700	0.641700	0.269000
H261	H26	0.447800	0.674200	0.268200
C331	C33	0.410100	0.530100	0.453000
H271	H27	0.433500	0.502600	0.485500
N111	N11	0.598900	0.618600	0.155500
C341	C34	0.651800	0.656800	0.037800
H281	H28	0.664500	0.678600	0.980100
C351	C35	0.601800	0.657200	0.065600
H291	H29	0.575500	0.678600	0.031900
N121	N12	0.680200	0.620800	0.104300
C361	C36	0.647000	0.598900	0.176400
H301	H30	0.656100	0.573400	0.233300
O421	O42	0.262800	0.614800	0.244200
Co41	Co4	0.240750	0.393060	0.903400
W161	W16	0.347080	0.332820	0.484330
W171	W17	0.233050	0.422960	0.395070
W181	W18	0.231070	0.330550	0.640640
W191	W19	0.131820	0.342180	0.318560
W201	W20	0.233800	0.341860	0.176290
N131	N13	0.161600	0.418900	0.912400
O431	O43	0.245700	0.425100	0.251700
O441	O44	0.300200	0.392500	0.415800
O451	O45	0.300500	0.184700	0.211000
O461	O46	0.162400	0.358500	0.185500
O471	O47	0.376100	0.317400	0.348900
O481	O48	0.159200	0.317900	0.654100
O491	O49	0.161700	0.424800	0.367100
O501	O50	0.214200	0.321700	0.339000
O511	O51	0.298900	0.327800	0.592600
O521	O52	0.243200	0.372200	0.054600
O531	O53	0.219600	0.391500	0.530700
O541	O54	0.123900	0.315200	0.459100
O551	O55	0.241500	0.507100	0.415500
C371	C37	0.138500	0.464500	0.976900
H311	H31	0.154600	0.488000	0.029300
N141	N14	0.080300	0.427600	0.871400
C381	C38	0.034200	0.416600	0.818100
C391	C39	0.952800	0.455600	0.761700
H321	H32	0.927900	0.488100	0.759700
C401	C40	0.998000	0.466900	0.814600
H331	H33	0.003800	0.507500	0.847000
C411	C41	0.945900	0.395900	0.712900
C421	C42	0.125900	0.400100	0.847000
H341	H34	0.131300	0.371700	0.791400
C431	C43	0.980500	0.347800	0.716000
H351	H35	0.974100	0.307100	0.684800
C441	C44	0.027300	0.358300	0.769000
H361	H36	0.052200	0.325800	0.768200
C451	C45	0.089900	0.469900	0.953000
H371	H37	0.066500	0.497400	0.985500
N151	N15	0.901100	0.381400	0.655500
C461	C46	0.848200	0.343200	0.537800
H381	H38	0.835500	0.321400	0.480100
C471	C47	0.898200	0.342800	0.565600
H391	H39	0.924500	0.321400	0.531900
N161	N16	0.819800	0.379200	0.604300
C481	C48	0.853000	0.401100	0.676400
H401	H40	0.843900	0.426600	0.733300
O561	O56	0.237200	0.385200	0.744200
Co51	Co5	0.259250	0.893060	0.403400
W211	W21	0.152920	0.832820	0.984330
W221	W22	0.266950	0.922960	0.895070
W231	W23	0.268930	0.830550	0.140640
W241	W24	0.368180	0.842180	0.818560
W251	W25	0.266200	0.841860	0.676290
N171	N17	0.338400	0.918900	0.412400
O571	O57	0.254300	0.925100	0.751700
O581	O58	0.199800	0.892500	0.915800
O591	O59	0.199500	0.684700	0.711000
O601	O60	0.337600	0.858500	0.685500
O611	O61	0.123900	0.817400	0.848900
O621	O62	0.340800	0.817900	0.154100
O631	O63	0.338300	0.924800	0.867100
O641	O64	0.285800	0.821700	0.839000
O651	O65	0.201100	0.827800	0.092600
O661	O66	0.256800	0.872200	0.554600
O671	O67	0.280400	0.891500	0.030700
O681	O68	0.376100	0.815200	0.959100
O691	O69	0.258500	0.007100	0.915500
C491	C49	0.361500	0.964500	0.476900
H411	H41	0.345400	0.988000	0.529300
N181	N18	0.419700	0.927600	0.371400
C501	C50	0.465800	0.916600	0.318100
C511	C51	0.547200	0.955600	0.261700
H421	H42	0.572100	0.988100	0.259700
C521	C52	0.502000	0.966900	0.314600
H431	H43	0.496200	0.007500	0.347000
C531	C53	0.554100	0.895900	0.212900
C541	C54	0.374100	0.900100	0.347000
H441	H44	0.368700	0.871700	0.291400
C551	C55	0.519500	0.847800	0.216000
H451	H45	0.525900	0.807100	0.184800
C561	C56	0.472700	0.858300	0.269000
H461	H46	0.447800	0.825800	0.268200
C571	C57	0.410100	0.969900	0.453000
H471	H47	0.433500	0.997400	0.485500
N191	N19	0.598900	0.881400	0.155500
C581	C58	0.651800	0.843200	0.037800
H481	H48	0.664500	0.821400	0.980100
C591	C59	0.601800	0.842800	0.065600
H491	H49	0.575500	0.821400	0.031900
N201	N20	0.680200	0.879200	0.104300
C601	C60	0.647000	0.901100	0.176400
H501	H50	0.656100	0.926600	0.233300
O701	O70	0.262800	0.885200	0.244200
Co61	Co6	0.240750	0.106940	0.903400
W261	W26	0.347080	0.167180	0.484330
W271	W27	0.233050	0.077040	0.395070
W281	W28	0.231070	0.169450	0.640640
W291	W29	0.131820	0.157820	0.318560
W301	W30	0.233800	0.158140	0.176290
N211	N21	0.161600	0.081100	0.912400
O711	O71	0.245700	0.074900	0.251700
O721	O72	0.300200	0.107500	0.415800
O731	O73	0.300500	0.315300	0.211000
O741	O74	0.162400	0.141500	0.185500
O751	O75	0.376100	0.182600	0.348900
O761	O76	0.159200	0.182100	0.654100
O771	O77	0.161700	0.075200	0.367100
O781	O78	0.214200	0.178300	0.339000
O791	O79	0.298900	0.172200	0.592600
O801	O80	0.243200	0.127800	0.054600
O811	O81	0.219600	0.108500	0.530700
O821	O82	0.123900	0.184800	0.459100
O831	O83	0.241500	0.992900	0.415500
C611	C61	0.138500	0.035500	0.976900
H511	H51	0.154600	0.012000	0.029300
N221	N22	0.080300	0.072400	0.871400
C621	C62	0.034200	0.083400	0.818100
C631	C63	0.952800	0.044400	0.761700
H521	H52	0.927900	0.011900	0.759700
C641	C64	0.998000	0.033100	0.814600
H531	H53	0.003800	0.992500	0.847000
C651	C65	0.945900	0.104100	0.712900
C661	C66	0.125900	0.099900	0.847000
H541	H54	0.131300	0.128300	0.791400
C671	C67	0.980500	0.152200	0.716000
H551	H55	0.974100	0.192900	0.684800
C681	C68	0.027300	0.141700	0.769000
H561	H56	0.052200	0.174200	0.768200
C691	C69	0.089900	0.030100	0.953000
H571	H57	0.066500	0.002600	0.985500
N231	N23	0.901100	0.118600	0.655500
C701	C70	0.848200	0.156800	0.537800
H581	H58	0.835500	0.178600	0.480100
C711	C71	0.898200	0.157200	0.565600
H591	H59	0.924500	0.178600	0.531900
N241	N24	0.819800	0.120800	0.604300
C721	C72	0.853000	0.098900	0.676400
H601	H60	0.843900	0.073400	0.733300
O841	O84	0.237200	0.114800	0.744200
Co71	Co7	0.740750	0.393060	0.596600
W311	W31	0.847080	0.332820	0.015670
W321	W32	0.733050	0.422960	0.104930
W331	W33	0.731070	0.330550	0.859360
W341	W34	0.631820	0.342180	0.181440
W351	W35	0.733800	0.341860	0.323710
N251	N25	0.661600	0.418900	0.587600
O851	O85	0.745700	0.425100	0.248300
O861	O86	0.800200	0.392500	0.084200
O871	O87	0.800500	0.184700	0.289000
O881	O88	0.662400	0.358500	0.314500
O891	O89	0.876100	0.317400	0.151100
O901	O90	0.659200	0.317900	0.845900
O911	O91	0.661700	0.424800	0.132900
O921	O92	0.714200	0.321700	0.161000
O931	O93	0.798900	0.327800	0.907400
O941	O94	0.743200	0.372200	0.445400
O951	O95	0.719600	0.391500	0.969300
O961	O96	0.623900	0.315200	0.040900
O971	O97	0.741500	0.507100	0.084500
C731	C73	0.638500	0.464500	0.523100
H611	H61	0.654600	0.488000	0.470700
N261	N26	0.580300	0.427600	0.628600
C741	C74	0.534200	0.416600	0.681900
C751	C75	0.452800	0.455600	0.738300
H621	H62	0.427900	0.488100	0.740300
C761	C76	0.498000	0.466900	0.685400
H631	H63	0.503800	0.507500	0.653000
C771	C77	0.445900	0.395900	0.787100
C781	C78	0.625900	0.400100	0.653000
H641	H64	0.631300	0.371700	0.708600
C791	C79	0.480500	0.347800	0.784000
H651	H65	0.474100	0.307100	0.815200
C801	C80	0.527300	0.358300	0.731000
H661	H66	0.552200	0.325800	0.731800
C811	C81	0.589900	0.469900	0.547000
H671	H67	0.566500	0.497400	0.514500
N271	N27	0.401100	0.381400	0.844500
C821	C82	0.348200	0.343200	0.962200
H681	H68	0.335500	0.321400	0.019900
C831	C83	0.398200	0.342800	0.934400
H691	H69	0.424500	0.321400	0.968100
N281	N28	0.319800	0.379200	0.895700
C841	C84	0.353000	0.401100	0.823600
H701	H70	0.343900	0.426600	0.766700
O981	O98	0.737200	0.385200	0.755800
Co81	Co8	0.759250	0.606940	0.096600
W361	W36	0.652920	0.667180	0.515670
W371	W37	0.766950	0.577040	0.604930
W381	W38	0.768930	0.669450	0.359360
W391	W39	0.868180	0.657820	0.681440
W401	W40	0.766200	0.658140	0.823710
N291	N29	0.838400	0.581100	0.087600
O991	O99	0.754300	0.574900	0.748300
O1001	O100	0.699800	0.607500	0.584200
O1011	O101	0.699500	0.815300	0.789000
O1021	O102	0.837600	0.641500	0.814500
O1031	O103	0.623900	0.682600	0.651100
O1041	O104	0.840800	0.682100	0.345900
O1051	O105	0.838300	0.575200	0.632900
O1061	O106	0.785800	0.678300	0.661000
O1071	O107	0.701100	0.672200	0.407400
O1081	O108	0.756800	0.627800	0.945400
O1091	O109	0.780400	0.608500	0.469300
O1101	O110	0.876100	0.684800	0.540900
O1111	O111	0.758500	0.492900	0.584500
C851	C85	0.861500	0.535500	0.023100
H711	H71	0.845400	0.512000	0.970700
N301	N30	0.919700	0.572400	0.128600
C861	C86	0.965800	0.583400	0.181900
C871	C87	0.047200	0.544400	0.238300
H721	H72	0.072100	0.511900	0.240300
C881	C88	0.002000	0.533100	0.185400
H731	H73	0.996200	0.492500	0.153000
C891	C89	0.054100	0.604100	0.287100
C901	C90	0.874100	0.599900	0.153000
H741	H74	0.868700	0.628300	0.208600
C911	C91	0.019500	0.652200	0.284000
H751	H75	0.025900	0.692900	0.315200
C921	C92	0.972700	0.641700	0.231000
H761	H76	0.947800	0.674200	0.231800
C931	C93	0.910100	0.530100	0.047000
H771	H77	0.933500	0.502600	0.014500
N311	N31	0.098900	0.618600	0.344500
C941	C94	0.151800	0.656800	0.462200
H781	H78	0.164500	0.678600	0.519900
C951	C95	0.101800	0.657200	0.434400
H791	H79	0.075500	0.678600	0.468100
N321	N32	0.180200	0.620800	0.395700
C961	C96	0.147000	0.598900	0.323600
H801	H80	0.156100	0.573400	0.266700
O1121	O112	0.762800	0.614800	0.255800
W411	W41	0.847660	0.250000	0.239560
W421	W42	0.631040	0.250000	0.934490
O1131	O113	0.877300	0.250000	0.973100
O1141	O114	0.721400	0.250000	0.349300
O1151	O115	0.801700	0.250000	0.089100
O1161	O116	0.713800	0.250000	0.964800
O1171	O117	0.743700	0.250000	0.779100
O1181	O118	0.625100	0.250000	0.213900
W431	W43	0.652340	0.750000	0.739560
W441	W44	0.868960	0.750000	0.434490
O1191	O119	0.622700	0.750000	0.473100
O1201	O120	0.778600	0.750000	0.849300
O1211	O121	0.698300	0.750000	0.589100
O1221	O122	0.786200	0.750000	0.464800
O1231	O123	0.756300	0.750000	0.279100
O1241	O124	0.874900	0.750000	0.713900
W451	W45	0.152340	0.750000	0.760440
W461	W46	0.368960	0.750000	0.065510
O1251	O125	0.122700	0.750000	0.026900
O1261	O126	0.278600	0.750000	0.650700
O1271	O127	0.198300	0.750000	0.910900
O1281	O128	0.286200	0.750000	0.035200
O1291	O129	0.256300	0.750000	0.220900
O1301	O130	0.374900	0.750000	0.786100
W471	W47	0.347660	0.250000	0.260440
W481	W48	0.131040	0.250000	0.565510
O1311	O131	0.377300	0.250000	0.526900
O1321	O132	0.221400	0.250000	0.150700
O1331	O133	0.301700	0.250000	0.410900
O1341	O134	0.213800	0.250000	0.535200
O1351	O135	0.243700	0.250000	0.720900
O1361	O136	0.125100	0.250000	0.286100
