data_ORAJEX_clean_PM
_symmetry_space_group_name_H-M	'P1'
_cell_length_a	14.338900
_cell_length_b	21.239800
_cell_length_c	20.851400
_cell_angle_alpha	90.000000
_cell_angle_beta	90.000000
_cell_angle_gamma	90.000000
_symmetry_Int_Tables_number 1

loop_
_symmetry_equiv_pos_as_xyz
'x,y,z'

loop_
_atom_site_label
_atom_site_type_symbol
_atom_site_fract_x
_atom_site_fract_y
_atom_site_fract_z
Re11	Re1	0.903850	0.638460	0.441400
S11	S1	0.869310	0.736850	0.488550
N11	N1	0.853000	0.657400	0.652600
C11	C1	0.904400	0.786900	0.355800
C21	C2	0.904200	0.669000	0.612700
N21	N2	0.852500	0.808500	0.320200
C31	C3	0.888000	0.551200	0.394700
C41	C4	0.791400	0.659400	0.380200
N31	N3	0.731300	0.670300	0.346100
C51	C5	0.792400	0.602800	0.496600
N41	N4	0.881100	0.505900	0.365700
N51	N5	0.732100	0.582100	0.525200
Re21	Re2	0.403850	0.138460	0.441400
S21	S2	0.369310	0.236850	0.488550
N61	N6	0.353000	0.157400	0.652600
C61	C6	0.404400	0.286900	0.355800
C71	C7	0.404200	0.169000	0.612700
N71	N7	0.352500	0.308500	0.320200
C81	C8	0.388000	0.051200	0.394700
C91	C9	0.291400	0.159400	0.380200
N81	N8	0.231300	0.170300	0.346100
C101	C10	0.292400	0.102800	0.496600
N91	N9	0.381100	0.005900	0.365700
N101	N10	0.232100	0.082100	0.525200
Re31	Re3	0.096150	0.361540	0.941400
S31	S3	0.130690	0.263150	0.988550
N111	N11	0.147000	0.342600	0.152600
C111	C11	0.095600	0.213100	0.855800
C121	C12	0.095800	0.331000	0.112700
N121	N12	0.147500	0.191500	0.820200
C131	C13	0.112000	0.448800	0.894700
C141	C14	0.208600	0.340600	0.880200
N131	N13	0.268700	0.329700	0.846100
C151	C15	0.207600	0.397200	0.996600
N141	N14	0.118900	0.494100	0.865700
N151	N15	0.267900	0.417900	0.025200
Re41	Re4	0.596150	0.861540	0.941400
S41	S4	0.630690	0.763150	0.988550
N161	N16	0.647000	0.842600	0.152600
C161	C16	0.595600	0.713100	0.855800
C171	C17	0.595800	0.831000	0.112700
N171	N17	0.647500	0.691500	0.820200
C181	C18	0.612000	0.948800	0.894700
C191	C19	0.708600	0.840600	0.880200
N181	N18	0.768700	0.829700	0.846100
C201	C20	0.707600	0.897200	0.996600
N191	N19	0.618900	0.994100	0.865700
N201	N20	0.767900	0.917900	0.025200
Re51	Re5	0.096150	0.638460	0.058600
S51	S5	0.130690	0.736850	0.011450
N211	N21	0.147000	0.657400	0.847400
C211	C21	0.095600	0.786900	0.144200
C221	C22	0.095800	0.669000	0.887300
N221	N22	0.147500	0.808500	0.179800
C231	C23	0.112000	0.551200	0.105300
C241	C24	0.208600	0.659400	0.119800
N231	N23	0.268700	0.670300	0.153900
C251	C25	0.207600	0.602800	0.003400
N241	N24	0.118900	0.505900	0.134300
N251	N25	0.267900	0.582100	0.974800
Re61	Re6	0.596150	0.138460	0.058600
S61	S6	0.630690	0.236850	0.011450
N261	N26	0.647000	0.157400	0.847400
C261	C26	0.595600	0.286900	0.144200
C271	C27	0.595800	0.169000	0.887300
N271	N27	0.647500	0.308500	0.179800
C281	C28	0.612000	0.051200	0.105300
C291	C29	0.708600	0.159400	0.119800
N281	N28	0.768700	0.170300	0.153900
C301	C30	0.707600	0.102800	0.003400
N291	N29	0.618900	0.005900	0.134300
N301	N30	0.767900	0.082100	0.974800
Re71	Re7	0.903850	0.361540	0.558600
S71	S7	0.869310	0.263150	0.511450
N311	N31	0.853000	0.342600	0.347400
C311	C31	0.904400	0.213100	0.644200
C321	C32	0.904200	0.331000	0.387300
N321	N32	0.852500	0.191500	0.679800
C331	C33	0.888000	0.448800	0.605300
C341	C34	0.791400	0.340600	0.619800
N331	N33	0.731300	0.329700	0.653900
C351	C35	0.792400	0.397200	0.503400
N341	N34	0.881100	0.494100	0.634300
N351	N35	0.732100	0.417900	0.474800
Re81	Re8	0.403850	0.861540	0.558600
S81	S8	0.369310	0.763150	0.511450
N361	N36	0.353000	0.842600	0.347400
C361	C36	0.404400	0.713100	0.644200
C371	C37	0.404200	0.831000	0.387300
N371	N37	0.352500	0.691500	0.679800
C381	C38	0.388000	0.948800	0.605300
C391	C39	0.291400	0.840600	0.619800
N381	N38	0.231300	0.829700	0.653900
C401	C40	0.292400	0.897200	0.503400
N391	N39	0.381100	0.994100	0.634300
N401	N40	0.232100	0.917900	0.474800
Re91	Re9	0.096150	0.361540	0.558600
S91	S9	0.130690	0.263150	0.511450
N411	N41	0.147000	0.342600	0.347400
C411	C41	0.095600	0.213100	0.644200
C421	C42	0.095800	0.331000	0.387300
N421	N42	0.147500	0.191500	0.679800
C431	C43	0.112000	0.448800	0.605300
C441	C44	0.208600	0.340600	0.619800
N431	N43	0.268700	0.329700	0.653900
C451	C45	0.207600	0.397200	0.503400
N441	N44	0.118900	0.494100	0.634300
N451	N45	0.267900	0.417900	0.474800
Re101	Re10	0.596150	0.861540	0.558600
S101	S10	0.630690	0.763150	0.511450
N461	N46	0.647000	0.842600	0.347400
C461	C46	0.595600	0.713100	0.644200
C471	C47	0.595800	0.831000	0.387300
N471	N47	0.647500	0.691500	0.679800
C481	C48	0.612000	0.948800	0.605300
C491	C49	0.708600	0.840600	0.619800
N481	N48	0.768700	0.829700	0.653900
C501	C50	0.707600	0.897200	0.503400
N491	N49	0.618900	0.994100	0.634300
N501	N50	0.767900	0.917900	0.474800
Re111	Re11	0.903850	0.638460	0.058600
S111	S11	0.869310	0.736850	0.011450
N511	N51	0.853000	0.657400	0.847400
C511	C51	0.904400	0.786900	0.144200
C521	C52	0.904200	0.669000	0.887300
N521	N52	0.852500	0.808500	0.179800
C531	C53	0.888000	0.551200	0.105300
C541	C54	0.791400	0.659400	0.119800
N531	N53	0.731300	0.670300	0.153900
C551	C55	0.792400	0.602800	0.003400
N541	N54	0.881100	0.505900	0.134300
N551	N55	0.732100	0.582100	0.974800
Re121	Re12	0.403850	0.138460	0.058600
S121	S12	0.369310	0.236850	0.011450
N561	N56	0.353000	0.157400	0.847400
C561	C56	0.404400	0.286900	0.144200
C571	C57	0.404200	0.169000	0.887300
N571	N57	0.352500	0.308500	0.179800
C581	C58	0.388000	0.051200	0.105300
C591	C59	0.291400	0.159400	0.119800
N581	N58	0.231300	0.170300	0.153900
C601	C60	0.292400	0.102800	0.003400
N591	N59	0.381100	0.005900	0.134300
N601	N60	0.232100	0.082100	0.974800
Re131	Re13	0.903850	0.361540	0.941400
S131	S13	0.869310	0.263150	0.988550
N611	N61	0.853000	0.342600	0.152600
C611	C61	0.904400	0.213100	0.855800
C621	C62	0.904200	0.331000	0.112700
N621	N62	0.852500	0.191500	0.820200
C631	C63	0.888000	0.448800	0.894700
C641	C64	0.791400	0.340600	0.880200
N631	N63	0.731300	0.329700	0.846100
C651	C65	0.792400	0.397200	0.996600
N641	N64	0.881100	0.494100	0.865700
N651	N65	0.732100	0.417900	0.025200
Re141	Re14	0.403850	0.861540	0.941400
S141	S14	0.369310	0.763150	0.988550
N661	N66	0.353000	0.842600	0.152600
C661	C66	0.404400	0.713100	0.855800
C671	C67	0.404200	0.831000	0.112700
N671	N67	0.352500	0.691500	0.820200
C681	C68	0.388000	0.948800	0.894700
C691	C69	0.291400	0.840600	0.880200
N681	N68	0.231300	0.829700	0.846100
C701	C70	0.292400	0.897200	0.996600
N691	N69	0.381100	0.994100	0.865700
N701	N70	0.232100	0.917900	0.025200
Re151	Re15	0.096150	0.638460	0.441400
S151	S15	0.130690	0.736850	0.488550
N711	N71	0.147000	0.657400	0.652600
C711	C71	0.095600	0.786900	0.355800
C721	C72	0.095800	0.669000	0.612700
N721	N72	0.147500	0.808500	0.320200
C731	C73	0.112000	0.551200	0.394700
C741	C74	0.208600	0.659400	0.380200
N731	N73	0.268700	0.670300	0.346100
C751	C75	0.207600	0.602800	0.496600
N741	N74	0.118900	0.505900	0.365700
N751	N75	0.267900	0.582100	0.525200
Re161	Re16	0.596150	0.138460	0.441400
S161	S16	0.630690	0.236850	0.488550
N761	N76	0.647000	0.157400	0.652600
C761	C76	0.595600	0.286900	0.355800
C771	C77	0.595800	0.169000	0.612700
N771	N77	0.647500	0.308500	0.320200
C781	C78	0.612000	0.051200	0.394700
C791	C79	0.708600	0.159400	0.380200
N781	N78	0.768700	0.170300	0.346100
C801	C80	0.707600	0.102800	0.496600
N791	N79	0.618900	0.005900	0.365700
N801	N80	0.767900	0.082100	0.525200
Re171	Re17	0.000000	0.693660	0.540580
Re181	Re18	0.000000	0.748920	0.421270
S171	S17	0.000000	0.583980	0.516020
S181	S18	0.000000	0.661160	0.352610
C811	C81	0.000000	0.777700	0.593800
N811	N81	0.000000	0.822800	0.623900
C821	C82	0.000000	0.842400	0.451200
N821	N82	0.000000	0.894400	0.463900
Re191	Re19	0.500000	0.193660	0.540580
Re201	Re20	0.500000	0.248920	0.421270
S191	S19	0.500000	0.083980	0.516020
S201	S20	0.500000	0.161160	0.352610
C831	C83	0.500000	0.277700	0.593800
N831	N83	0.500000	0.322800	0.623900
C841	C84	0.500000	0.342400	0.451200
N841	N84	0.500000	0.394400	0.463900
Re211	Re21	0.000000	0.306340	0.040580
Re221	Re22	0.000000	0.251090	0.921270
S211	S21	0.000000	0.416020	0.016020
S221	S22	0.000000	0.338840	0.852610
C851	C85	0.000000	0.222300	0.093800
N851	N85	0.000000	0.177200	0.123900
C861	C86	0.000000	0.157600	0.951200
N861	N86	0.000000	0.105600	0.963900
Re231	Re23	0.500000	0.806340	0.040580
Re241	Re24	0.500000	0.751090	0.921270
S231	S23	0.500000	0.916020	0.016020
S241	S24	0.500000	0.838840	0.852610
C871	C87	0.500000	0.722300	0.093800
N871	N87	0.500000	0.677200	0.123900
C881	C88	0.500000	0.657600	0.951200
N881	N88	0.500000	0.605600	0.963900
Re251	Re25	0.000000	0.693660	0.959420
Re261	Re26	0.000000	0.748920	0.078730
S251	S25	0.000000	0.583980	0.983980
S261	S26	0.000000	0.661160	0.147390
C891	C89	0.000000	0.777700	0.906200
N891	N89	0.000000	0.822800	0.876100
C901	C90	0.000000	0.842400	0.048800
N901	N90	0.000000	0.894400	0.036100
Re271	Re27	0.500000	0.193660	0.959420
Re281	Re28	0.500000	0.248920	0.078730
S271	S27	0.500000	0.083980	0.983980
S281	S28	0.500000	0.161160	0.147390
C911	C91	0.500000	0.277700	0.906200
N911	N91	0.500000	0.322800	0.876100
C921	C92	0.500000	0.342400	0.048800
N921	N92	0.500000	0.394400	0.036100
Re291	Re29	0.000000	0.306340	0.459420
Re301	Re30	0.000000	0.251090	0.578730
S291	S29	0.000000	0.416020	0.483980
S301	S30	0.000000	0.338840	0.647390
C931	C93	0.000000	0.222300	0.406200
N931	N93	0.000000	0.177200	0.376100
C941	C94	0.000000	0.157600	0.548800
N941	N94	0.000000	0.105600	0.536100
Re311	Re31	0.500000	0.806340	0.459420
Re321	Re32	0.500000	0.751090	0.578730
S311	S31	0.500000	0.916020	0.483980
S321	S32	0.500000	0.838840	0.647390
C951	C95	0.500000	0.722300	0.406200
N951	N95	0.500000	0.677200	0.376100
C961	C96	0.500000	0.657600	0.548800
N961	N96	0.500000	0.605600	0.536100
Ho11	Ho1	0.762800	0.641560	0.750000
Ho21	Ho2	0.262800	0.141560	0.750000
Ho31	Ho3	0.237200	0.358440	0.250000
Ho41	Ho4	0.737200	0.858440	0.250000
Ho51	Ho5	0.237200	0.641560	0.750000
Ho61	Ho6	0.737200	0.141560	0.750000
Ho71	Ho7	0.762800	0.358440	0.250000
Ho81	Ho8	0.262800	0.858440	0.250000
K11	K1	0.584660	0.500000	0.500000
K21	K2	0.084660	0.000000	0.500000
K31	K3	0.415340	0.500000	0.000000
K41	K4	0.915340	0.000000	0.000000
K51	K5	0.415340	0.500000	0.500000
K61	K6	0.915340	0.000000	0.500000
K71	K7	0.584660	0.500000	0.000000
K81	K8	0.084660	0.000000	0.000000
