data_ORAKIC_clean_PM
_symmetry_space_group_name_H-M	'P1'
_cell_length_a	14.603900
_cell_length_b	21.126200
_cell_length_c	20.602800
_cell_angle_alpha	90.000000
_cell_angle_beta	90.000000
_cell_angle_gamma	90.000000
_symmetry_Int_Tables_number 1

loop_
_symmetry_equiv_pos_as_xyz
'x,y,z'

loop_
_atom_site_label
_atom_site_type_symbol
_atom_site_fract_x
_atom_site_fract_y
_atom_site_fract_z
Re11	Re1	0.405550	0.141490	0.056940
S11	S1	0.370990	0.241120	0.009910
N11	N1	0.350900	0.309700	0.180000
C11	C1	0.405200	0.289700	0.144700
N21	N2	0.146400	0.339900	0.345300
C21	C2	0.405500	0.173500	0.884700
C31	C3	0.298500	0.106300	0.998700
C41	C4	0.389900	0.053100	0.103500
C51	C5	0.294400	0.161000	0.118300
N31	N3	0.381100	0.007500	0.132800
N41	N4	0.232200	0.170200	0.151100
N51	N5	0.241400	0.088000	0.965500
K11	K1	0.108600	0.013400	0.037000
Re21	Re2	0.905550	0.641490	0.056940
S21	S2	0.870990	0.741120	0.009910
N61	N6	0.850900	0.809700	0.180000
C61	C6	0.905200	0.789700	0.144700
N71	N7	0.646400	0.839900	0.345300
C71	C7	0.905500	0.673500	0.884700
C81	C8	0.798500	0.606300	0.998700
C91	C9	0.889900	0.553100	0.103500
C101	C10	0.794400	0.661000	0.118300
N81	N8	0.881100	0.507500	0.132800
N91	N9	0.732200	0.670200	0.151100
N101	N10	0.741400	0.588000	0.965500
K21	K2	0.608600	0.513400	0.037000
Re31	Re3	0.594450	0.858510	0.556940
S31	S3	0.629010	0.758880	0.509910
N111	N11	0.649100	0.690300	0.680000
C111	C11	0.594800	0.710300	0.644700
N121	N12	0.853600	0.660100	0.845300
C121	C12	0.594500	0.826500	0.384700
C131	C13	0.701500	0.893700	0.498700
C141	C14	0.610100	0.946900	0.603500
C151	C15	0.705600	0.839000	0.618300
N131	N13	0.618900	0.992500	0.632800
N141	N14	0.767800	0.829800	0.651100
N151	N15	0.758600	0.912000	0.465500
K31	K3	0.891400	0.986600	0.537000
Re41	Re4	0.094450	0.358510	0.556940
S41	S4	0.129010	0.258880	0.509910
N161	N16	0.149100	0.190300	0.680000
C161	C16	0.094800	0.210300	0.644700
N171	N17	0.353600	0.160100	0.845300
C171	C17	0.094500	0.326500	0.384700
C181	C18	0.201500	0.393700	0.498700
C191	C19	0.110100	0.446900	0.603500
C201	C20	0.205600	0.339000	0.618300
N181	N18	0.118900	0.492500	0.632800
N191	N19	0.267800	0.329800	0.651100
N201	N20	0.258600	0.412000	0.465500
K41	K4	0.391400	0.486600	0.537000
Re51	Re5	0.594450	0.141490	0.443060
S51	S5	0.629010	0.241120	0.490090
N211	N21	0.649100	0.309700	0.320000
C211	C21	0.594800	0.289700	0.355300
N221	N22	0.853600	0.339900	0.154700
C221	C22	0.594500	0.173500	0.615300
C231	C23	0.701500	0.106300	0.501300
C241	C24	0.610100	0.053100	0.396500
C251	C25	0.705600	0.161000	0.381700
N231	N23	0.618900	0.007500	0.367200
N241	N24	0.767800	0.170200	0.348900
N251	N25	0.758600	0.088000	0.534500
K51	K5	0.891400	0.013400	0.463000
Re61	Re6	0.094450	0.641490	0.443060
S61	S6	0.129010	0.741120	0.490090
N261	N26	0.149100	0.809700	0.320000
C261	C26	0.094800	0.789700	0.355300
N271	N27	0.353600	0.839900	0.154700
C271	C27	0.094500	0.673500	0.615300
C281	C28	0.201500	0.606300	0.501300
C291	C29	0.110100	0.553100	0.396500
C301	C30	0.205600	0.661000	0.381700
N281	N28	0.118900	0.507500	0.367200
N291	N29	0.267800	0.670200	0.348900
N301	N30	0.258600	0.588000	0.534500
K61	K6	0.391400	0.513400	0.463000
Re71	Re7	0.405550	0.858510	0.943060
S71	S7	0.370990	0.758880	0.990090
N311	N31	0.350900	0.690300	0.820000
C311	C31	0.405200	0.710300	0.855300
N321	N32	0.146400	0.660100	0.654700
C321	C32	0.405500	0.826500	0.115300
C331	C33	0.298500	0.893700	0.001300
C341	C34	0.389900	0.946900	0.896500
C351	C35	0.294400	0.839000	0.881700
N331	N33	0.381100	0.992500	0.867200
N341	N34	0.232200	0.829800	0.848900
N351	N35	0.241400	0.912000	0.034500
K71	K7	0.108600	0.986600	0.963000
Re81	Re8	0.905550	0.358510	0.943060
S81	S8	0.870990	0.258880	0.990090
N361	N36	0.850900	0.190300	0.820000
C361	C36	0.905200	0.210300	0.855300
N371	N37	0.646400	0.160100	0.654700
C371	C37	0.905500	0.326500	0.115300
C381	C38	0.798500	0.393700	0.001300
C391	C39	0.889900	0.446900	0.896500
C401	C40	0.794400	0.339000	0.881700
N381	N38	0.881100	0.492500	0.867200
N391	N39	0.732200	0.329800	0.848900
N401	N40	0.741400	0.412000	0.034500
K81	K8	0.608600	0.486600	0.963000
Re91	Re9	0.594450	0.858510	0.943060
S91	S9	0.629010	0.758880	0.990090
N411	N41	0.649100	0.690300	0.820000
C411	C41	0.594800	0.710300	0.855300
N421	N42	0.853600	0.660100	0.654700
C421	C42	0.594500	0.826500	0.115300
C431	C43	0.701500	0.893700	0.001300
C441	C44	0.610100	0.946900	0.896500
C451	C45	0.705600	0.839000	0.881700
N431	N43	0.618900	0.992500	0.867200
N441	N44	0.767800	0.829800	0.848900
N451	N45	0.758600	0.912000	0.034500
K91	K9	0.891400	0.986600	0.963000
Re101	Re10	0.094450	0.358510	0.943060
S101	S10	0.129010	0.258880	0.990090
N461	N46	0.149100	0.190300	0.820000
C461	C46	0.094800	0.210300	0.855300
N471	N47	0.353600	0.160100	0.654700
C471	C47	0.094500	0.326500	0.115300
C481	C48	0.201500	0.393700	0.001300
C491	C49	0.110100	0.446900	0.896500
C501	C50	0.205600	0.339000	0.881700
N481	N48	0.118900	0.492500	0.867200
N491	N49	0.267800	0.329800	0.848900
N501	N50	0.258600	0.412000	0.034500
K101	K10	0.391400	0.486600	0.963000
Re111	Re11	0.405550	0.141490	0.443060
S111	S11	0.370990	0.241120	0.490090
N511	N51	0.350900	0.309700	0.320000
C511	C51	0.405200	0.289700	0.355300
N521	N52	0.146400	0.339900	0.154700
C521	C52	0.405500	0.173500	0.615300
C531	C53	0.298500	0.106300	0.501300
C541	C54	0.389900	0.053100	0.396500
C551	C55	0.294400	0.161000	0.381700
N531	N53	0.381100	0.007500	0.367200
N541	N54	0.232200	0.170200	0.348900
N551	N55	0.241400	0.088000	0.534500
K111	K11	0.108600	0.013400	0.463000
Re121	Re12	0.905550	0.641490	0.443060
S121	S12	0.870990	0.741120	0.490090
N561	N56	0.850900	0.809700	0.320000
C561	C56	0.905200	0.789700	0.355300
N571	N57	0.646400	0.839900	0.154700
C571	C57	0.905500	0.673500	0.615300
C581	C58	0.798500	0.606300	0.501300
C591	C59	0.889900	0.553100	0.396500
C601	C60	0.794400	0.661000	0.381700
N581	N58	0.881100	0.507500	0.367200
N591	N59	0.732200	0.670200	0.348900
N601	N60	0.741400	0.588000	0.534500
K121	K12	0.608600	0.513400	0.463000
Re131	Re13	0.405550	0.858510	0.556940
S131	S13	0.370990	0.758880	0.509910
N611	N61	0.350900	0.690300	0.680000
C611	C61	0.405200	0.710300	0.644700
N621	N62	0.146400	0.660100	0.845300
C621	C62	0.405500	0.826500	0.384700
C631	C63	0.298500	0.893700	0.498700
C641	C64	0.389900	0.946900	0.603500
C651	C65	0.294400	0.839000	0.618300
N631	N63	0.381100	0.992500	0.632800
N641	N64	0.232200	0.829800	0.651100
N651	N65	0.241400	0.912000	0.465500
K131	K13	0.108600	0.986600	0.537000
Re141	Re14	0.905550	0.358510	0.556940
S141	S14	0.870990	0.258880	0.509910
N661	N66	0.850900	0.190300	0.680000
C661	C66	0.905200	0.210300	0.644700
N671	N67	0.646400	0.160100	0.845300
C671	C67	0.905500	0.326500	0.384700
C681	C68	0.798500	0.393700	0.498700
C691	C69	0.889900	0.446900	0.603500
C701	C70	0.794400	0.339000	0.618300
N681	N68	0.881100	0.492500	0.632800
N691	N69	0.732200	0.329800	0.651100
N701	N70	0.741400	0.412000	0.465500
K141	K14	0.608600	0.486600	0.537000
Re151	Re15	0.594450	0.141490	0.056940
S151	S15	0.629010	0.241120	0.009910
N711	N71	0.649100	0.309700	0.180000
C711	C71	0.594800	0.289700	0.144700
N721	N72	0.853600	0.339900	0.345300
C721	C72	0.594500	0.173500	0.884700
C731	C73	0.701500	0.106300	0.998700
C741	C74	0.610100	0.053100	0.103500
C751	C75	0.705600	0.161000	0.118300
N731	N73	0.618900	0.007500	0.132800
N741	N74	0.767800	0.170200	0.151100
N751	N75	0.758600	0.088000	0.965500
K151	K15	0.891400	0.013400	0.037000
Re161	Re16	0.094450	0.641490	0.056940
S161	S16	0.129010	0.741120	0.009910
N761	N76	0.149100	0.809700	0.180000
C761	C76	0.094800	0.789700	0.144700
N771	N77	0.353600	0.839900	0.345300
C771	C77	0.094500	0.673500	0.884700
C781	C78	0.201500	0.606300	0.998700
C791	C79	0.110100	0.553100	0.103500
C801	C80	0.205600	0.661000	0.118300
N781	N78	0.118900	0.507500	0.132800
N791	N79	0.267800	0.670200	0.151100
N801	N80	0.258600	0.588000	0.965500
K161	K16	0.391400	0.513400	0.037000
Tm11	Tm1	0.237450	0.357980	0.250000
Tm21	Tm2	0.737450	0.857980	0.250000
Tm31	Tm3	0.762550	0.642020	0.750000
Tm41	Tm4	0.262550	0.142020	0.750000
Tm51	Tm5	0.762550	0.357980	0.250000
Tm61	Tm6	0.262550	0.857980	0.250000
Tm71	Tm7	0.237450	0.642020	0.750000
Tm81	Tm8	0.737450	0.142020	0.750000
Re171	Re17	0.500000	0.197720	0.957120
Re181	Re18	0.500000	0.252420	0.078140
S171	S17	0.500000	0.086050	0.980800
S181	S18	0.500000	0.163560	0.147400
C811	C81	0.500000	0.347100	0.048200
C821	C82	0.500000	0.281700	0.902800
N811	N81	0.500000	0.399900	0.033300
N821	N82	0.500000	0.327100	0.870900
Re191	Re19	0.000000	0.697720	0.957120
Re201	Re20	0.000000	0.752420	0.078140
S191	S19	0.000000	0.586050	0.980800
S201	S20	0.000000	0.663560	0.147400
C831	C83	0.000000	0.847100	0.048200
C841	C84	0.000000	0.781700	0.902800
N831	N83	0.000000	0.899900	0.033300
N841	N84	0.000000	0.827100	0.870900
Re211	Re21	0.500000	0.802280	0.457120
Re221	Re22	0.500000	0.747580	0.578140
S211	S21	0.500000	0.913950	0.480800
S221	S22	0.500000	0.836440	0.647400
C851	C85	0.500000	0.652900	0.548200
C861	C86	0.500000	0.718300	0.402800
N851	N85	0.500000	0.600100	0.533300
N861	N86	0.500000	0.672900	0.370900
Re231	Re23	0.000000	0.302280	0.457120
Re241	Re24	0.000000	0.247580	0.578140
S231	S23	0.000000	0.413950	0.480800
S241	S24	0.000000	0.336440	0.647400
C871	C87	0.000000	0.152900	0.548200
C881	C88	0.000000	0.218300	0.402800
N871	N87	0.000000	0.100100	0.533300
N881	N88	0.000000	0.172900	0.370900
Re251	Re25	0.500000	0.197720	0.542880
Re261	Re26	0.500000	0.252420	0.421860
S251	S25	0.500000	0.086050	0.519200
S261	S26	0.500000	0.163560	0.352600
C891	C89	0.500000	0.347100	0.451800
C901	C90	0.500000	0.281700	0.597200
N891	N89	0.500000	0.399900	0.466700
N901	N90	0.500000	0.327100	0.629100
Re271	Re27	0.000000	0.697720	0.542880
Re281	Re28	0.000000	0.752420	0.421860
S271	S27	0.000000	0.586050	0.519200
S281	S28	0.000000	0.663560	0.352600
C911	C91	0.000000	0.847100	0.451800
C921	C92	0.000000	0.781700	0.597200
N911	N91	0.000000	0.899900	0.466700
N921	N92	0.000000	0.827100	0.629100
Re291	Re29	0.500000	0.802280	0.042880
Re301	Re30	0.500000	0.747580	0.921860
S291	S29	0.500000	0.913950	0.019200
S301	S30	0.500000	0.836440	0.852600
C931	C93	0.500000	0.652900	0.951800
C941	C94	0.500000	0.718300	0.097200
N931	N93	0.500000	0.600100	0.966700
N941	N94	0.500000	0.672900	0.129100
Re311	Re31	0.000000	0.302280	0.042880
Re321	Re32	0.000000	0.247580	0.921860
S311	S31	0.000000	0.413950	0.019200
S321	S32	0.000000	0.336440	0.852600
C951	C95	0.000000	0.152900	0.951800
C961	C96	0.000000	0.218300	0.097200
N951	N95	0.000000	0.100100	0.966700
N961	N96	0.000000	0.172900	0.129100
O11	O1	0.122100	0.000000	0.000000
O21	O2	0.622100	0.500000	0.000000
O31	O3	0.877900	0.000000	0.500000
O41	O4	0.377900	0.500000	0.500000
O51	O5	0.877900	0.000000	0.000000
O61	O6	0.377900	0.500000	0.000000
O71	O7	0.122100	0.000000	0.500000
O81	O8	0.622100	0.500000	0.500000
