data_ORIBAU_clean_PM
_symmetry_space_group_name_H-M	'P1'
_cell_length_a	33.273700
_cell_length_b	9.853100
_cell_length_c	18.218000
_cell_angle_alpha	90.000000
_cell_angle_beta	90.000000
_cell_angle_gamma	90.000000
_symmetry_Int_Tables_number 1

loop_
_symmetry_equiv_pos_as_xyz
'x,y,z'

loop_
_atom_site_label
_atom_site_type_symbol
_atom_site_fract_x
_atom_site_fract_y
_atom_site_fract_z
Zn11	Zn1	0.596500	0.449290	0.495130
C11	C1	0.673880	0.391400	0.492500
C21	C2	0.713290	0.317300	0.496200
C31	C3	0.749000	0.386800	0.496300
H11	H1	0.748600	0.481200	0.496400
C41	C4	0.714670	0.179100	0.496100
H21	H2	0.690900	0.129300	0.495900
C51	C5	0.546700	0.236600	0.461100
C61	C6	0.521360	0.116100	0.480900
C71	C7	0.519560	0.006500	0.433300
H31	H3	0.532700	0.010700	0.388300
C81	C8	0.498390	0.890800	0.452100
H41	H4	0.497400	0.817700	0.419900
C91	C9	0.557040	0.591300	0.378130
C101	C10	0.559550	0.665900	0.306200
C111	C11	0.596040	0.712900	0.279600
H51	H5	0.619500	0.697200	0.305900
C121	C12	0.524610	0.690400	0.266500
H61	H6	0.500000	0.660200	0.284400
C131	C13	0.597510	0.782600	0.214100
H71	H7	0.622100	0.813700	0.196600
C141	C14	0.526280	0.759100	0.200900
H81	H8	0.502800	0.773600	0.174300
C151	C15	0.562750	0.807300	0.173910
C161	C16	0.563990	0.881400	0.102760
O11	O1	0.642770	0.326400	0.502910
O21	O2	0.673470	0.513100	0.478800
O31	O3	0.546500	0.337800	0.507410
O41	O4	0.567360	0.236500	0.405840
O51	O5	0.590300	0.561900	0.407810
O61	O6	0.523080	0.565200	0.402200
O71	O7	0.595420	0.950200	0.089650
O81	O8	0.534850	0.870600	0.060790
Zn21	Zn2	0.903500	0.050710	0.495130
C171	C17	0.826120	0.108600	0.492500
C181	C18	0.786710	0.182700	0.496200
C191	C19	0.751000	0.113200	0.496300
H91	H9	0.751400	0.018800	0.496400
C201	C20	0.785330	0.320900	0.496100
H101	H10	0.809100	0.370700	0.495900
C211	C21	0.953300	0.263400	0.461100
C221	C22	0.978640	0.383900	0.480900
C231	C23	0.980440	0.493500	0.433300
H111	H11	0.967300	0.489300	0.388300
C241	C24	0.001610	0.609200	0.452100
H121	H12	0.002600	0.682300	0.419900
C251	C25	0.942960	0.908700	0.378130
C261	C26	0.940450	0.834100	0.306200
C271	C27	0.903960	0.787100	0.279600
H131	H13	0.880500	0.802800	0.305900
C281	C28	0.975390	0.809600	0.266500
H141	H14	0.000000	0.839800	0.284400
C291	C29	0.902490	0.717400	0.214100
H151	H15	0.877900	0.686300	0.196600
C301	C30	0.973720	0.740900	0.200900
H161	H16	0.997200	0.726400	0.174300
C311	C31	0.937250	0.692700	0.173910
C321	C32	0.936010	0.618600	0.102760
O91	O9	0.857230	0.173600	0.502910
O101	O10	0.826530	0.986900	0.478800
O111	O11	0.953500	0.162200	0.507410
O121	O12	0.932640	0.263500	0.405840
O131	O13	0.909700	0.938100	0.407810
O141	O14	0.976920	0.934800	0.402200
O151	O15	0.904580	0.549800	0.089650
O161	O16	0.965150	0.629400	0.060790
Zn31	Zn3	0.403500	0.949290	0.004870
C331	C33	0.326120	0.891400	0.007500
C341	C34	0.286710	0.817300	0.003800
C351	C35	0.251000	0.886800	0.003700
H171	H17	0.251400	0.981200	0.003600
C361	C36	0.285330	0.679100	0.003900
H181	H18	0.309100	0.629300	0.004100
C371	C37	0.453300	0.736600	0.038900
C381	C38	0.478640	0.616100	0.019100
C391	C39	0.480440	0.506500	0.066700
H191	H19	0.467300	0.510700	0.111700
C401	C40	0.501610	0.390800	0.047900
H201	H20	0.502600	0.317700	0.080100
C411	C41	0.442960	0.091300	0.121870
C421	C42	0.440450	0.165900	0.193800
C431	C43	0.403960	0.212900	0.220400
H211	H21	0.380500	0.197200	0.194100
C441	C44	0.475390	0.190400	0.233500
H221	H22	0.500000	0.160200	0.215600
C451	C45	0.402490	0.282600	0.285900
H231	H23	0.377900	0.313700	0.303400
C461	C46	0.473720	0.259100	0.299100
H241	H24	0.497200	0.273600	0.325700
C471	C47	0.437250	0.307300	0.326090
C481	C48	0.436010	0.381400	0.397240
O171	O17	0.357230	0.826400	0.997090
O181	O18	0.326530	0.013100	0.021200
O191	O19	0.453500	0.837800	0.992590
O201	O20	0.432640	0.736500	0.094160
O211	O21	0.409700	0.061900	0.092190
O221	O22	0.476920	0.065200	0.097800
O231	O23	0.404580	0.450200	0.410350
O241	O24	0.465150	0.370600	0.439210
Zn41	Zn4	0.096500	0.550710	0.004870
C491	C49	0.173880	0.608600	0.007500
C501	C50	0.213290	0.682700	0.003800
C511	C51	0.249000	0.613200	0.003700
H251	H25	0.248600	0.518800	0.003600
C521	C52	0.214670	0.820900	0.003900
H261	H26	0.190900	0.870700	0.004100
C531	C53	0.046700	0.763400	0.038900
C541	C54	0.021360	0.883900	0.019100
C551	C55	0.019560	0.993500	0.066700
H271	H27	0.032700	0.989300	0.111700
C561	C56	0.998390	0.109200	0.047900
H281	H28	0.997400	0.182300	0.080100
C571	C57	0.057040	0.408700	0.121870
C581	C58	0.059550	0.334100	0.193800
C591	C59	0.096040	0.287100	0.220400
H291	H29	0.119500	0.302800	0.194100
C601	C60	0.024610	0.309600	0.233500
H301	H30	0.000000	0.339800	0.215600
C611	C61	0.097510	0.217400	0.285900
H311	H31	0.122100	0.186300	0.303400
C621	C62	0.026280	0.240900	0.299100
H321	H32	0.002800	0.226400	0.325700
C631	C63	0.062750	0.192700	0.326090
C641	C64	0.063990	0.118600	0.397240
O251	O25	0.142770	0.673600	0.997090
O261	O26	0.173470	0.486900	0.021200
O271	O27	0.046500	0.662200	0.992590
O281	O28	0.067360	0.763500	0.094160
O291	O29	0.090300	0.438100	0.092190
O301	O30	0.023080	0.434800	0.097800
O311	O31	0.095420	0.049800	0.410350
O321	O32	0.034850	0.129400	0.439210
Zn51	Zn5	0.403500	0.550710	0.504870
C651	C65	0.326120	0.608600	0.507500
C661	C66	0.286710	0.682700	0.503800
C671	C67	0.251000	0.613200	0.503700
H331	H33	0.251400	0.518800	0.503600
C681	C68	0.285330	0.820900	0.503900
H341	H34	0.309100	0.870700	0.504100
C691	C69	0.453300	0.763400	0.538900
C701	C70	0.478640	0.883900	0.519100
C711	C71	0.480440	0.993500	0.566700
H351	H35	0.467300	0.989300	0.611700
C721	C72	0.501610	0.109200	0.547900
H361	H36	0.502600	0.182300	0.580100
C731	C73	0.442960	0.408700	0.621870
C741	C74	0.440450	0.334100	0.693800
C751	C75	0.403960	0.287100	0.720400
H371	H37	0.380500	0.302800	0.694100
C761	C76	0.475390	0.309600	0.733500
H381	H38	0.500000	0.339800	0.715600
C771	C77	0.402490	0.217400	0.785900
H391	H39	0.377900	0.186300	0.803400
C781	C78	0.473720	0.240900	0.799100
H401	H40	0.497200	0.226400	0.825700
C791	C79	0.437250	0.192700	0.826090
C801	C80	0.436010	0.118600	0.897240
O331	O33	0.357230	0.673600	0.497090
O341	O34	0.326530	0.486900	0.521200
O351	O35	0.453500	0.662200	0.492590
O361	O36	0.432640	0.763500	0.594160
O371	O37	0.409700	0.438100	0.592190
O381	O38	0.476920	0.434800	0.597800
O391	O39	0.404580	0.049800	0.910350
O401	O40	0.465150	0.129400	0.939210
Zn61	Zn6	0.096500	0.949290	0.504870
C811	C81	0.173880	0.891400	0.507500
C821	C82	0.213290	0.817300	0.503800
C831	C83	0.249000	0.886800	0.503700
H411	H41	0.248600	0.981200	0.503600
C841	C84	0.214670	0.679100	0.503900
H421	H42	0.190900	0.629300	0.504100
C851	C85	0.046700	0.736600	0.538900
C861	C86	0.021360	0.616100	0.519100
C871	C87	0.019560	0.506500	0.566700
H431	H43	0.032700	0.510700	0.611700
C881	C88	0.998390	0.390800	0.547900
H441	H44	0.997400	0.317700	0.580100
C891	C89	0.057040	0.091300	0.621870
C901	C90	0.059550	0.165900	0.693800
C911	C91	0.096040	0.212900	0.720400
H451	H45	0.119500	0.197200	0.694100
C921	C92	0.024610	0.190400	0.733500
H461	H46	0.000000	0.160200	0.715600
C931	C93	0.097510	0.282600	0.785900
H471	H47	0.122100	0.313700	0.803400
C941	C94	0.026280	0.259100	0.799100
H481	H48	0.002800	0.273600	0.825700
C951	C95	0.062750	0.307300	0.826090
C961	C96	0.063990	0.381400	0.897240
O411	O41	0.142770	0.826400	0.497090
O421	O42	0.173470	0.013100	0.521200
O431	O43	0.046500	0.837800	0.492590
O441	O44	0.067360	0.736500	0.594160
O451	O45	0.090300	0.061900	0.592190
O461	O46	0.023080	0.065200	0.597800
O471	O47	0.095420	0.450200	0.910350
O481	O48	0.034850	0.370600	0.939210
Zn71	Zn7	0.596500	0.050710	0.995130
C971	C97	0.673880	0.108600	0.992500
C981	C98	0.713290	0.182700	0.996200
C991	C99	0.749000	0.113200	0.996300
H491	H49	0.748600	0.018800	0.996400
C1001	C100	0.714670	0.320900	0.996100
H501	H50	0.690900	0.370700	0.995900
C1011	C101	0.546700	0.263400	0.961100
C1021	C102	0.521360	0.383900	0.980900
C1031	C103	0.519560	0.493500	0.933300
H511	H51	0.532700	0.489300	0.888300
C1041	C104	0.498390	0.609200	0.952100
H521	H52	0.497400	0.682300	0.919900
C1051	C105	0.557040	0.908700	0.878130
C1061	C106	0.559550	0.834100	0.806200
C1071	C107	0.596040	0.787100	0.779600
H531	H53	0.619500	0.802800	0.805900
C1081	C108	0.524610	0.809600	0.766500
H541	H54	0.500000	0.839800	0.784400
C1091	C109	0.597510	0.717400	0.714100
H551	H55	0.622100	0.686300	0.696600
C1101	C110	0.526280	0.740900	0.700900
H561	H56	0.502800	0.726400	0.674300
C1111	C111	0.562750	0.692700	0.673910
C1121	C112	0.563990	0.618600	0.602760
O491	O49	0.642770	0.173600	0.002910
O501	O50	0.673470	0.986900	0.978800
O511	O51	0.546500	0.162200	0.007410
O521	O52	0.567360	0.263500	0.905840
O531	O53	0.590300	0.938100	0.907810
O541	O54	0.523080	0.934800	0.902200
O551	O55	0.595420	0.549800	0.589650
O561	O56	0.534850	0.629400	0.560790
Zn81	Zn8	0.903500	0.449290	0.995130
C1131	C113	0.826120	0.391400	0.992500
C1141	C114	0.786710	0.317300	0.996200
C1151	C115	0.751000	0.386800	0.996300
H571	H57	0.751400	0.481200	0.996400
C1161	C116	0.785330	0.179100	0.996100
H581	H58	0.809100	0.129300	0.995900
C1171	C117	0.953300	0.236600	0.961100
C1181	C118	0.978640	0.116100	0.980900
C1191	C119	0.980440	0.006500	0.933300
H591	H59	0.967300	0.010700	0.888300
C1201	C120	0.001610	0.890800	0.952100
H601	H60	0.002600	0.817700	0.919900
C1211	C121	0.942960	0.591300	0.878130
C1221	C122	0.940450	0.665900	0.806200
C1231	C123	0.903960	0.712900	0.779600
H611	H61	0.880500	0.697200	0.805900
C1241	C124	0.975390	0.690400	0.766500
H621	H62	0.000000	0.660200	0.784400
C1251	C125	0.902490	0.782600	0.714100
H631	H63	0.877900	0.813700	0.696600
C1261	C126	0.973720	0.759100	0.700900
H641	H64	0.997200	0.773600	0.674300
C1271	C127	0.937250	0.807300	0.673910
C1281	C128	0.936010	0.881400	0.602760
O571	O57	0.857230	0.326400	0.002910
O581	O58	0.826530	0.513100	0.978800
O591	O59	0.953500	0.337800	0.007410
O601	O60	0.932640	0.236500	0.905840
O611	O61	0.909700	0.561900	0.907810
O621	O62	0.976920	0.565200	0.902200
O631	O63	0.904580	0.950200	0.589650
O641	O64	0.965150	0.870600	0.560790
Zn91	Zn9	0.500000	0.500000	0.500000
Zn101	Zn10	0.000000	0.000000	0.500000
Zn111	Zn11	0.500000	0.000000	0.000000
Zn121	Zn12	0.000000	0.500000	0.000000
