data_ORIVOC_clean_PM
_symmetry_space_group_name_H-M	'P1'
_cell_length_a	26.179000
_cell_length_b	26.179000
_cell_length_c	6.652000
_cell_angle_alpha	90.000000
_cell_angle_beta	90.000000
_cell_angle_gamma	120.000000
_symmetry_Int_Tables_number 1

loop_
_symmetry_equiv_pos_as_xyz
'x,y,z'

loop_
_atom_site_label
_atom_site_type_symbol
_atom_site_fract_x
_atom_site_fract_y
_atom_site_fract_z
Zn11	Zn1	0.387900	0.350680	0.152110
C11	C1	0.322900	0.203860	0.287790
C21	C2	0.342910	0.220400	0.091640
C31	C3	0.353350	0.183200	0.970520
H11	H1	0.368890	0.196050	0.818170
C41	C4	0.311680	0.243860	0.418050
O11	O1	0.320320	0.292300	0.350400
O21	O2	0.293640	0.228950	0.594900
O31	O3	0.352200	0.272430	0.019000
Zn21	Zn2	0.054570	0.684010	0.485440
C51	C5	0.989570	0.537190	0.621120
C61	C6	0.009580	0.553730	0.424970
C71	C7	0.020020	0.516530	0.303850
H21	H2	0.035560	0.529380	0.151500
C81	C8	0.978350	0.577190	0.751380
O41	O4	0.986990	0.625630	0.683730
O51	O5	0.960310	0.562280	0.928230
O61	O6	0.018870	0.605760	0.352330
Zn31	Zn3	0.721230	0.017350	0.818780
C91	C9	0.656230	0.870530	0.954460
C101	C10	0.676240	0.887070	0.758310
C111	C11	0.686680	0.849870	0.637190
H31	H3	0.702220	0.862720	0.484840
C121	C12	0.645010	0.910530	0.084720
O71	O7	0.653650	0.958970	0.017070
O81	O8	0.626970	0.895620	0.261570
O91	O9	0.685530	0.939100	0.685670
Zn41	Zn4	0.649320	0.037220	0.152110
C131	C13	0.796140	0.119040	0.287790
C141	C14	0.779600	0.122510	0.091640
C151	C15	0.816800	0.170150	0.970520
H41	H4	0.803950	0.172840	0.818170
C161	C16	0.756140	0.067820	0.418050
O101	O10	0.707700	0.028020	0.350400
O111	O11	0.771050	0.064690	0.594900
O121	O12	0.727570	0.079770	0.019000
Zn51	Zn5	0.315990	0.370550	0.485440
C171	C17	0.462810	0.452370	0.621120
C181	C18	0.446270	0.455840	0.424970
C191	C19	0.483470	0.503480	0.303850
H51	H5	0.470620	0.506170	0.151500
C201	C20	0.422810	0.401150	0.751380
O131	O13	0.374370	0.361350	0.683730
O141	O14	0.437720	0.398020	0.928230
O151	O15	0.394240	0.413100	0.352330
Zn61	Zn6	0.982650	0.703890	0.818780
C211	C21	0.129470	0.785710	0.954460
C221	C22	0.112930	0.789180	0.758310
C231	C23	0.150130	0.836820	0.637190
H61	H6	0.137280	0.839510	0.484840
C241	C24	0.089470	0.734490	0.084720
O161	O16	0.041030	0.694690	0.017070
O171	O17	0.104380	0.731360	0.261570
O181	O18	0.060900	0.746440	0.685670
Zn71	Zn7	0.962780	0.612100	0.152110
C251	C25	0.880960	0.677100	0.287790
C261	C26	0.877490	0.657090	0.091640
C271	C27	0.829850	0.646650	0.970520
H71	H7	0.827160	0.631110	0.818170
C281	C28	0.932180	0.688320	0.418050
O191	O19	0.971980	0.679680	0.350400
O201	O20	0.935310	0.706360	0.594900
O211	O21	0.920230	0.647800	0.019000
Zn81	Zn8	0.629450	0.945430	0.485440
C291	C29	0.547630	0.010430	0.621120
C301	C30	0.544160	0.990420	0.424970
C311	C31	0.496520	0.979980	0.303850
H81	H8	0.493830	0.964440	0.151500
C321	C32	0.598850	0.021650	0.751380
O221	O22	0.638650	0.013010	0.683730
O231	O23	0.601980	0.039690	0.928230
O241	O24	0.586900	0.981130	0.352330
Zn91	Zn9	0.296110	0.278770	0.818780
C331	C33	0.214290	0.343770	0.954460
C341	C34	0.210820	0.323760	0.758310
C351	C35	0.163180	0.313320	0.637190
H91	H9	0.160490	0.297780	0.484840
C361	C36	0.265510	0.354990	0.084720
O251	O25	0.305310	0.346350	0.017070
O261	O26	0.268640	0.373030	0.261570
O271	O27	0.253560	0.314470	0.685670
Zn101	Zn10	0.612100	0.649320	0.847890
C371	C37	0.677100	0.796140	0.712210
C381	C38	0.657090	0.779600	0.908360
C391	C39	0.646650	0.816800	0.029480
H101	H10	0.631110	0.803950	0.181830
C401	C40	0.688320	0.756140	0.581950
O281	O28	0.679680	0.707700	0.649600
O291	O29	0.706360	0.771050	0.405100
O301	O30	0.647800	0.727570	0.981000
Zn111	Zn11	0.278770	0.982650	0.181220
C411	C41	0.343770	0.129470	0.045540
C421	C42	0.323760	0.112930	0.241690
C431	C43	0.313320	0.150130	0.362810
H111	H11	0.297780	0.137280	0.515160
C441	C44	0.354990	0.089470	0.915280
O311	O31	0.346350	0.041030	0.982930
O321	O32	0.373030	0.104380	0.738430
O331	O33	0.314470	0.060900	0.314330
Zn121	Zn12	0.945430	0.315990	0.514560
C451	C45	0.010430	0.462810	0.378880
C461	C46	0.990420	0.446270	0.575030
C471	C47	0.979980	0.483470	0.696150
H121	H12	0.964440	0.470620	0.848500
C481	C48	0.021650	0.422810	0.248620
O341	O34	0.013010	0.374370	0.316270
O351	O35	0.039690	0.437720	0.071770
O361	O36	0.981130	0.394240	0.647670
Zn131	Zn13	0.350680	0.962780	0.847890
C491	C49	0.203860	0.880960	0.712210
C501	C50	0.220400	0.877490	0.908360
C511	C51	0.183200	0.829850	0.029480
H131	H13	0.196050	0.827160	0.181830
C521	C52	0.243860	0.932180	0.581950
O371	O37	0.292300	0.971980	0.649600
O381	O38	0.228950	0.935310	0.405100
O391	O39	0.272430	0.920230	0.981000
Zn141	Zn14	0.017350	0.296110	0.181220
C531	C53	0.870530	0.214290	0.045540
C541	C54	0.887070	0.210820	0.241690
C551	C55	0.849870	0.163180	0.362810
H141	H14	0.862720	0.160490	0.515160
C561	C56	0.910530	0.265510	0.915280
O401	O40	0.958970	0.305310	0.982930
O411	O41	0.895620	0.268640	0.738430
O421	O42	0.939100	0.253560	0.314330
Zn151	Zn15	0.684010	0.629450	0.514560
C571	C57	0.537190	0.547630	0.378880
C581	C58	0.553730	0.544160	0.575030
C591	C59	0.516530	0.496520	0.696150
H151	H15	0.529380	0.493830	0.848500
C601	C60	0.577190	0.598850	0.248620
O431	O43	0.625630	0.638650	0.316270
O441	O44	0.562280	0.601980	0.071770
O451	O45	0.605760	0.586900	0.647670
Zn161	Zn16	0.037220	0.387900	0.847890
C611	C61	0.119040	0.322900	0.712210
C621	C62	0.122510	0.342910	0.908360
C631	C63	0.170150	0.353350	0.029480
H161	H16	0.172840	0.368890	0.181830
C641	C64	0.067820	0.311680	0.581950
O461	O46	0.028020	0.320320	0.649600
O471	O47	0.064690	0.293640	0.405100
O481	O48	0.079770	0.352200	0.981000
Zn171	Zn17	0.703890	0.721230	0.181220
C651	C65	0.785710	0.656230	0.045540
C661	C66	0.789180	0.676240	0.241690
C671	C67	0.836820	0.686680	0.362810
H171	H17	0.839510	0.702220	0.515160
C681	C68	0.734490	0.645010	0.915280
O491	O49	0.694690	0.653650	0.982930
O501	O50	0.731360	0.626970	0.738430
O511	O51	0.746440	0.685530	0.314330
Zn181	Zn18	0.370550	0.054570	0.514560
C691	C69	0.452370	0.989570	0.378880
C701	C70	0.455840	0.009580	0.575030
C711	C71	0.503480	0.020020	0.696150
H181	H18	0.506170	0.035560	0.848500
C721	C72	0.401150	0.978350	0.248620
O521	O52	0.361350	0.986990	0.316270
O531	O53	0.398020	0.960310	0.071770
O541	O54	0.413100	0.018870	0.647670
