data_ORUKOD_clean_PM
_symmetry_space_group_name_H-M	'P1'
_cell_length_a	21.081800
_cell_length_b	9.476600
_cell_length_c	33.646700
_cell_angle_alpha	90.000000
_cell_angle_beta	126.573000
_cell_angle_gamma	90.000000
_symmetry_Int_Tables_number 1

loop_
_symmetry_equiv_pos_as_xyz
'x,y,z'

loop_
_atom_site_label
_atom_site_type_symbol
_atom_site_fract_x
_atom_site_fract_y
_atom_site_fract_z
Ba11	Ba1	0.023400	0.318070	0.277880
Ba21	Ba2	0.129850	0.963530	0.369690
P11	P1	0.493560	0.234300	0.346150
P21	P2	0.433700	0.442700	0.275100
P31	P3	0.511670	0.515900	0.373010
O11	O1	0.453000	0.110300	0.355400
O21	O2	0.349300	0.478600	0.226000
O31	O3	0.479500	0.596300	0.399400
O41	O4	0.593400	0.594000	0.398100
O51	O5	0.478900	0.467000	0.251000
O61	O6	0.564200	0.150900	0.353100
O71	O7	0.094400	0.067900	0.278200
O81	O8	0.086000	0.960000	0.216300
O91	O9	0.026600	0.397300	0.200400
O101	O10	0.017500	0.623000	0.178200
O111	O11	0.111500	0.541300	0.299100
O121	O12	0.127200	0.770500	0.310500
O131	O13	0.906100	0.610700	0.619500
O141	O14	0.832200	0.760000	0.626500
O151	O15	0.847000	0.592900	0.379500
O161	O16	0.847500	0.359000	0.370700
O171	O17	0.873200	0.924400	0.558200
O181	O18	0.881200	0.810200	0.504400
N11	N1	0.438700	0.283800	0.289900
N21	N2	0.460000	0.558100	0.316600
N31	N3	0.521800	0.354000	0.386600
C11	C1	0.370300	0.095700	0.329000
C21	C2	0.326200	0.039800	0.283000
H11	H1	0.349300	0.016300	0.267500
C31	C3	0.245200	0.017400	0.258900
H21	H2	0.214800	0.975400	0.227800
C41	C4	0.210400	0.058100	0.281700
C51	C5	0.256700	0.115100	0.328600
H31	H3	0.233900	0.141800	0.344100
C61	C6	0.337600	0.132700	0.352800
H41	H4	0.369200	0.169000	0.384800
C71	C7	0.124600	0.028000	0.256800
C81	C8	0.280700	0.482600	0.224800
C91	C9	0.236900	0.362200	0.212600
H51	H5	0.255400	0.276400	0.209800
C101	C10	0.164700	0.370900	0.204300
H61	H6	0.134900	0.289500	0.196900
C111	C11	0.135500	0.500100	0.207000
C121	C12	0.182700	0.621200	0.220900
H71	H7	0.164600	0.707700	0.223500
C131	C13	0.256500	0.610900	0.230800
H81	H8	0.289200	0.689500	0.241200
C141	C14	0.055200	0.507800	0.195300
C151	C15	0.398600	0.606300	0.377400
C161	C16	0.354300	0.484200	0.367600
H91	H9	0.377000	0.395000	0.374800
C171	C17	0.275600	0.501800	0.346800
H101	H10	0.244600	0.421800	0.338700
C181	C18	0.240300	0.632000	0.337400
C191	C19	0.287500	0.748800	0.348900
H111	H11	0.265600	0.838200	0.343500
C201	C20	0.366000	0.736800	0.368300
H121	H12	0.396300	0.817000	0.375000
C211	C21	0.153800	0.645800	0.314400
C221	C22	0.651300	0.606800	0.449900
C231	C23	0.643500	0.706900	0.476000
H131	H13	0.597900	0.761300	0.460800
C241	C24	0.704800	0.725300	0.525600
H141	H14	0.700600	0.795000	0.543400
C251	C25	0.773000	0.642100	0.549700
C261	C26	0.778600	0.544000	0.521200
H151	H15	0.824300	0.490200	0.536000
C271	C27	0.718500	0.524000	0.471700
H161	H16	0.723000	0.456600	0.453400
C281	C28	0.841600	0.672000	0.601800
C291	C29	0.562300	0.466000	0.283100
C301	C30	0.601700	0.592600	0.303300
H171	H17	0.573900	0.675600	0.297500
C311	C31	0.683900	0.593100	0.332300
H181	H18	0.711300	0.677500	0.345400
C321	C32	0.726000	0.465600	0.342100
C331	C33	0.684300	0.342300	0.322600
H191	H19	0.711600	0.258200	0.329100
C341	C34	0.602200	0.339500	0.293400
H201	H20	0.574800	0.254800	0.281000
C351	C35	0.813800	0.473300	0.366900
C361	C36	0.631100	0.087600	0.394900
C371	C37	0.672200	0.145200	0.441200
H211	H21	0.654400	0.226900	0.446900
C381	C38	0.742400	0.078400	0.480200
H221	H22	0.769800	0.115000	0.512000
C391	C39	0.770300	0.963500	0.472100
C401	C40	0.727900	0.907000	0.425000
H231	H23	0.745900	0.825800	0.419100
C411	C41	0.659300	0.970500	0.386900
H241	H24	0.631700	0.932700	0.355200
C421	C42	0.846100	0.895200	0.514100
Ba31	Ba3	0.002840	0.784760	0.097800
Ba41	Ba4	0.976600	0.818070	0.222120
Ba51	Ba5	0.870150	0.463530	0.130310
P41	P4	0.506440	0.734300	0.153850
P51	P5	0.566300	0.942700	0.224900
P61	P6	0.488330	0.015900	0.126990
O191	O19	0.547000	0.610300	0.144600
O201	O20	0.650700	0.978600	0.274000
O211	O21	0.520500	0.096300	0.100600
O221	O22	0.406600	0.094000	0.101900
O231	O23	0.521100	0.967000	0.249000
O241	O24	0.435800	0.650900	0.146900
O251	O25	0.905600	0.567900	0.221800
O261	O26	0.914000	0.460000	0.283700
O271	O27	0.973400	0.897300	0.299600
O281	O28	0.982500	0.123000	0.321800
O291	O29	0.888500	0.041300	0.200900
O301	O30	0.872800	0.270500	0.189500
O311	O31	0.093900	0.110700	0.880500
O321	O32	0.167800	0.260000	0.873500
O331	O33	0.153000	0.092900	0.120500
O341	O34	0.152500	0.859000	0.129300
O351	O35	0.126800	0.424400	0.941800
O361	O36	0.118800	0.310200	0.995600
N41	N4	0.561300	0.783800	0.210100
N51	N5	0.540000	0.058100	0.183400
N61	N6	0.478200	0.854000	0.113400
C431	C43	0.629700	0.595700	0.171000
C441	C44	0.673800	0.539800	0.217000
H251	H25	0.650700	0.516300	0.232500
C451	C45	0.754800	0.517400	0.241100
H261	H26	0.785200	0.475400	0.272200
C461	C46	0.789600	0.558100	0.218300
C471	C47	0.743300	0.615100	0.171400
H271	H27	0.766100	0.641800	0.155900
C481	C48	0.662400	0.632700	0.147200
H281	H28	0.630800	0.669000	0.115200
C491	C49	0.875400	0.528000	0.243200
C501	C50	0.719300	0.982600	0.275200
C511	C51	0.763100	0.862200	0.287400
H291	H29	0.744600	0.776400	0.290200
C521	C52	0.835300	0.870900	0.295700
H301	H30	0.865100	0.789500	0.303100
C531	C53	0.864500	0.000100	0.293000
C541	C54	0.817300	0.121200	0.279100
H311	H31	0.835400	0.207700	0.276500
C551	C55	0.743500	0.110900	0.269200
H321	H32	0.710800	0.189500	0.258800
C561	C56	0.944800	0.007800	0.304700
C571	C57	0.601400	0.106300	0.122600
C581	C58	0.645700	0.984200	0.132400
H331	H33	0.623000	0.895000	0.125200
C591	C59	0.724400	0.001800	0.153200
H341	H34	0.755400	0.921800	0.161300
C601	C60	0.759700	0.132000	0.162600
C611	C61	0.712500	0.248800	0.151100
H351	H35	0.734400	0.338200	0.156500
C621	C62	0.634000	0.236800	0.131700
H361	H36	0.603700	0.317000	0.125000
C631	C63	0.846200	0.145800	0.185600
C641	C64	0.348700	0.106800	0.050100
C651	C65	0.356500	0.206900	0.024000
H371	H37	0.402100	0.261300	0.039200
C661	C66	0.295200	0.225300	0.974400
H381	H38	0.299400	0.295000	0.956600
C671	C67	0.227000	0.142100	0.950300
C681	C68	0.221400	0.044000	0.978800
H391	H39	0.175700	0.990200	0.964000
C691	C69	0.281500	0.024000	0.028300
H401	H40	0.277000	0.956600	0.046600
C701	C70	0.158400	0.172000	0.898200
C711	C71	0.437700	0.966000	0.216900
C721	C72	0.398300	0.092600	0.196700
H411	H41	0.426100	0.175600	0.202500
C731	C73	0.316100	0.093100	0.167700
H421	H42	0.288700	0.177500	0.154600
C741	C74	0.274000	0.965600	0.157900
C751	C75	0.315700	0.842300	0.177400
H431	H43	0.288400	0.758200	0.170900
C761	C76	0.397800	0.839500	0.206600
H441	H44	0.425200	0.754800	0.219000
C771	C77	0.186200	0.973300	0.133100
C781	C78	0.368900	0.587600	0.105100
C791	C79	0.327800	0.645200	0.058800
H451	H45	0.345600	0.726900	0.053100
C801	C80	0.257600	0.578400	0.019800
H461	H46	0.230200	0.615000	0.988000
C811	C81	0.229700	0.463500	0.027900
C821	C82	0.272100	0.407000	0.075000
H471	H47	0.254100	0.325800	0.080900
C831	C83	0.340700	0.470500	0.113100
H481	H48	0.368300	0.432700	0.144800
C841	C84	0.153900	0.395200	0.985900
Ba61	Ba6	0.997160	0.284760	0.402200
Ba71	Ba7	0.976600	0.681930	0.722120
Ba81	Ba8	0.870150	0.036470	0.630310
P71	P7	0.506440	0.765700	0.653850
P81	P8	0.566300	0.557300	0.724900
P91	P9	0.488330	0.484100	0.626990
O371	O37	0.547000	0.889700	0.644600
O381	O38	0.650700	0.521400	0.774000
O391	O39	0.520500	0.403700	0.600600
O401	O40	0.406600	0.406000	0.601900
O411	O41	0.521100	0.533000	0.749000
O421	O42	0.435800	0.849100	0.646900
O431	O43	0.905600	0.932100	0.721800
O441	O44	0.914000	0.040000	0.783700
O451	O45	0.973400	0.602700	0.799600
O461	O46	0.982500	0.377000	0.821800
O471	O47	0.888500	0.458700	0.700900
O481	O48	0.872800	0.229500	0.689500
O491	O49	0.093900	0.389300	0.380500
O501	O50	0.167800	0.240000	0.373500
O511	O51	0.153000	0.407100	0.620500
O521	O52	0.152500	0.641000	0.629300
O531	O53	0.126800	0.075600	0.441800
O541	O54	0.118800	0.189800	0.495600
N71	N7	0.561300	0.716200	0.710100
N81	N8	0.540000	0.441900	0.683400
N91	N9	0.478200	0.646000	0.613400
C851	C85	0.629700	0.904300	0.671000
C861	C86	0.673800	0.960200	0.717000
H491	H49	0.650700	0.983700	0.732500
C871	C87	0.754800	0.982600	0.741100
H501	H50	0.785200	0.024600	0.772200
C881	C88	0.789600	0.941900	0.718300
C891	C89	0.743300	0.884900	0.671400
H511	H51	0.766100	0.858200	0.655900
C901	C90	0.662400	0.867300	0.647200
H521	H52	0.630800	0.831000	0.615200
C911	C91	0.875400	0.972000	0.743200
C921	C92	0.719300	0.517400	0.775200
C931	C93	0.763100	0.637800	0.787400
H531	H53	0.744600	0.723600	0.790200
C941	C94	0.835300	0.629100	0.795700
H541	H54	0.865100	0.710500	0.803100
C951	C95	0.864500	0.499900	0.793000
C961	C96	0.817300	0.378800	0.779100
H551	H55	0.835400	0.292300	0.776500
C971	C97	0.743500	0.389100	0.769200
H561	H56	0.710800	0.310500	0.758800
C981	C98	0.944800	0.492200	0.804700
C991	C99	0.601400	0.393700	0.622600
C1001	C100	0.645700	0.515800	0.632400
H571	H57	0.623000	0.605000	0.625200
C1011	C101	0.724400	0.498200	0.653200
H581	H58	0.755400	0.578200	0.661300
C1021	C102	0.759700	0.368000	0.662600
C1031	C103	0.712500	0.251200	0.651100
H591	H59	0.734400	0.161800	0.656500
C1041	C104	0.634000	0.263200	0.631700
H601	H60	0.603700	0.183000	0.625000
C1051	C105	0.846200	0.354200	0.685600
C1061	C106	0.348700	0.393200	0.550100
C1071	C107	0.356500	0.293100	0.524000
H611	H61	0.402100	0.238700	0.539200
C1081	C108	0.295200	0.274700	0.474400
H621	H62	0.299400	0.205000	0.456600
C1091	C109	0.227000	0.357900	0.450300
C1101	C110	0.221400	0.456000	0.478800
H631	H63	0.175700	0.509800	0.464000
C1111	C111	0.281500	0.476000	0.528300
H641	H64	0.277000	0.543400	0.546600
C1121	C112	0.158400	0.328000	0.398200
C1131	C113	0.437700	0.534000	0.716900
C1141	C114	0.398300	0.407400	0.696700
H651	H65	0.426100	0.324400	0.702500
C1151	C115	0.316100	0.406900	0.667700
H661	H66	0.288700	0.322500	0.654600
C1161	C116	0.274000	0.534400	0.657900
C1171	C117	0.315700	0.657700	0.677400
H671	H67	0.288400	0.741800	0.670900
C1181	C118	0.397800	0.660500	0.706600
H681	H68	0.425200	0.745200	0.719000
C1191	C119	0.186200	0.526700	0.633100
C1201	C120	0.368900	0.912400	0.605100
C1211	C121	0.327800	0.854800	0.558800
H691	H69	0.345600	0.773100	0.553100
C1221	C122	0.257600	0.921600	0.519800
H701	H70	0.230200	0.885000	0.488000
C1231	C123	0.229700	0.036500	0.527900
C1241	C124	0.272100	0.093000	0.575000
H711	H71	0.254100	0.174200	0.580900
C1251	C125	0.340700	0.029500	0.613100
H721	H72	0.368300	0.067300	0.644800
C1261	C126	0.153900	0.104800	0.485900
Ba91	Ba9	0.997160	0.215240	0.902200
Ba101	Ba10	0.023400	0.181930	0.777880
Ba111	Ba11	0.129850	0.536470	0.869690
P101	P10	0.493560	0.265700	0.846150
P111	P11	0.433700	0.057300	0.775100
P121	P12	0.511670	0.984100	0.873010
O551	O55	0.453000	0.389700	0.855400
O561	O56	0.349300	0.021400	0.726000
O571	O57	0.479500	0.903700	0.899400
O581	O58	0.593400	0.906000	0.898100
O591	O59	0.478900	0.033000	0.751000
O601	O60	0.564200	0.349100	0.853100
O611	O61	0.094400	0.432100	0.778200
O621	O62	0.086000	0.540000	0.716300
O631	O63	0.026600	0.102700	0.700400
O641	O64	0.017500	0.877000	0.678200
O651	O65	0.111500	0.958700	0.799100
O661	O66	0.127200	0.729500	0.810500
O671	O67	0.906100	0.889300	0.119500
O681	O68	0.832200	0.740000	0.126500
O691	O69	0.847000	0.907100	0.879500
O701	O70	0.847500	0.141000	0.870700
O711	O71	0.873200	0.575600	0.058200
O721	O72	0.881200	0.689800	0.004400
N101	N10	0.438700	0.216200	0.789900
N111	N11	0.460000	0.941900	0.816600
N121	N12	0.521800	0.146000	0.886600
C1271	C127	0.370300	0.404300	0.829000
C1281	C128	0.326200	0.460200	0.783000
H731	H73	0.349300	0.483700	0.767500
C1291	C129	0.245200	0.482600	0.758900
H741	H74	0.214800	0.524600	0.727800
C1301	C130	0.210400	0.441900	0.781700
C1311	C131	0.256700	0.384900	0.828600
H751	H75	0.233900	0.358200	0.844100
C1321	C132	0.337600	0.367300	0.852800
H761	H76	0.369200	0.331000	0.884800
C1331	C133	0.124600	0.472000	0.756800
C1341	C134	0.280700	0.017400	0.724800
C1351	C135	0.236900	0.137800	0.712600
H771	H77	0.255400	0.223600	0.709800
C1361	C136	0.164700	0.129100	0.704300
H781	H78	0.134900	0.210500	0.696900
C1371	C137	0.135500	0.999900	0.707000
C1381	C138	0.182700	0.878800	0.720900
H791	H79	0.164600	0.792300	0.723500
C1391	C139	0.256500	0.889100	0.730800
H801	H80	0.289200	0.810500	0.741200
C1401	C140	0.055200	0.992200	0.695300
C1411	C141	0.398600	0.893700	0.877400
C1421	C142	0.354300	0.015800	0.867600
H811	H81	0.377000	0.105000	0.874800
C1431	C143	0.275600	0.998200	0.846800
H821	H82	0.244600	0.078200	0.838700
C1441	C144	0.240300	0.868000	0.837400
C1451	C145	0.287500	0.751200	0.848900
H831	H83	0.265600	0.661800	0.843500
C1461	C146	0.366000	0.763200	0.868300
H841	H84	0.396300	0.683000	0.875000
C1471	C147	0.153800	0.854200	0.814400
C1481	C148	0.651300	0.893200	0.949900
C1491	C149	0.643500	0.793100	0.976000
H851	H85	0.597900	0.738700	0.960800
C1501	C150	0.704800	0.774700	0.025600
H861	H86	0.700600	0.705000	0.043400
C1511	C151	0.773000	0.857900	0.049700
C1521	C152	0.778600	0.956000	0.021200
H871	H87	0.824300	0.009800	0.036000
C1531	C153	0.718500	0.976000	0.971700
H881	H88	0.723000	0.043400	0.953400
C1541	C154	0.841600	0.828000	0.101800
C1551	C155	0.562300	0.034000	0.783100
C1561	C156	0.601700	0.907400	0.803300
H891	H89	0.573900	0.824400	0.797500
C1571	C157	0.683900	0.906900	0.832300
H901	H90	0.711300	0.822500	0.845400
C1581	C158	0.726000	0.034400	0.842100
C1591	C159	0.684300	0.157700	0.822600
H911	H91	0.711600	0.241800	0.829100
C1601	C160	0.602200	0.160500	0.793400
H921	H92	0.574800	0.245200	0.781000
C1611	C161	0.813800	0.026700	0.866900
C1621	C162	0.631100	0.412400	0.894900
C1631	C163	0.672200	0.354800	0.941200
H931	H93	0.654400	0.273100	0.946900
C1641	C164	0.742400	0.421600	0.980200
H941	H94	0.769800	0.385000	0.012000
C1651	C165	0.770300	0.536500	0.972100
C1661	C166	0.727900	0.593000	0.925000
H951	H95	0.745900	0.674200	0.919100
C1671	C167	0.659300	0.529500	0.886900
H961	H96	0.631700	0.567300	0.855200
C1681	C168	0.846100	0.604800	0.014100
Ba121	Ba12	0.002840	0.715240	0.597800
