data_OSAVEK_clean_PM
_symmetry_space_group_name_H-M	'P1'
_cell_length_a	6.729900
_cell_length_b	10.937500
_cell_length_c	18.584000
_cell_angle_alpha	90.000000
_cell_angle_beta	90.000000
_cell_angle_gamma	90.000000
_symmetry_Int_Tables_number 1

loop_
_symmetry_equiv_pos_as_xyz
'x,y,z'

loop_
_atom_site_label
_atom_site_type_symbol
_atom_site_fract_x
_atom_site_fract_y
_atom_site_fract_z
Ca11	Ca1	0.250000	0.590470	0.013480
Ca21	Ca2	0.750000	0.909530	0.513480
Ca31	Ca3	0.750000	0.409530	0.986520
Ca41	Ca4	0.250000	0.090470	0.486520
H11	H1	0.543700	0.743800	0.782200
H21	H2	0.546300	0.815000	0.665900
H31	H3	0.456300	0.756200	0.282200
H41	H4	0.453700	0.685000	0.165900
H51	H5	0.043700	0.256200	0.217800
H61	H6	0.046300	0.185000	0.334100
H71	H7	0.956300	0.243800	0.717800
H81	H8	0.953700	0.315000	0.834100
H91	H9	0.456300	0.256200	0.217800
H101	H10	0.453700	0.185000	0.334100
H111	H11	0.543700	0.243800	0.717800
H121	H12	0.546300	0.315000	0.834100
H131	H13	0.956300	0.743800	0.782200
H141	H14	0.953700	0.815000	0.665900
H151	H15	0.043700	0.756200	0.282200
H161	H16	0.046300	0.685000	0.165900
C11	C1	0.424000	0.758600	0.758700
C21	C2	0.425700	0.802300	0.689200
C31	C3	0.576000	0.741400	0.258700
C41	C4	0.574300	0.697700	0.189200
C51	C5	0.924000	0.241400	0.241300
C61	C6	0.925700	0.197700	0.310800
C71	C7	0.076000	0.258600	0.741300
C81	C8	0.074300	0.302300	0.810800
C91	C9	0.576000	0.241400	0.241300
C101	C10	0.574300	0.197700	0.310800
C111	C11	0.424000	0.258600	0.741300
C121	C12	0.425700	0.302300	0.810800
C131	C13	0.076000	0.758600	0.758700
C141	C14	0.074300	0.802300	0.689200
C151	C15	0.924000	0.741400	0.258700
C161	C16	0.925700	0.697700	0.189200
C171	C17	0.250000	0.693700	0.871400
C181	C18	0.250000	0.736600	0.793700
C191	C19	0.250000	0.827400	0.653600
C201	C20	0.250000	0.883100	0.580700
C211	C21	0.750000	0.806300	0.371400
C221	C22	0.750000	0.763400	0.293700
C231	C23	0.750000	0.672600	0.153600
C241	C24	0.750000	0.616900	0.080700
C251	C25	0.750000	0.306300	0.128600
C261	C26	0.750000	0.263400	0.206300
C271	C27	0.750000	0.172600	0.346400
C281	C28	0.750000	0.116900	0.419300
C291	C29	0.250000	0.193700	0.628600
C301	C30	0.250000	0.236600	0.706300
C311	C31	0.250000	0.327400	0.846400
C321	C32	0.250000	0.383100	0.919300
O11	O1	0.088100	0.678400	0.902930
O21	O2	0.087700	0.909800	0.551090
O31	O3	0.911900	0.821600	0.402930
O41	O4	0.912300	0.590200	0.051090
O51	O5	0.588100	0.321600	0.097070
O61	O6	0.587700	0.090200	0.448910
O71	O7	0.411900	0.178400	0.597070
O81	O8	0.412300	0.409800	0.948910
O91	O9	0.911900	0.321600	0.097070
O101	O10	0.912300	0.090200	0.448910
O111	O11	0.088100	0.178400	0.597070
O121	O12	0.087700	0.409800	0.948910
O131	O13	0.411900	0.678400	0.902930
O141	O14	0.412300	0.909800	0.551090
O151	O15	0.588100	0.821600	0.402930
O161	O16	0.587700	0.590200	0.051090
