data_OSIWUJ_clean_PM
_symmetry_space_group_name_H-M	'P1'
_cell_length_a	11.703400
_cell_length_b	11.980900
_cell_length_c	12.531600
_cell_angle_alpha	107.489000
_cell_angle_beta	106.574000
_cell_angle_gamma	112.341000
_symmetry_Int_Tables_number 1

loop_
_symmetry_equiv_pos_as_xyz
'x,y,z'

loop_
_atom_site_label
_atom_site_type_symbol
_atom_site_fract_x
_atom_site_fract_y
_atom_site_fract_z
Ag11	Ag1	0.593030	0.775390	0.397100
Ag21	Ag2	0.268690	0.711380	0.125560
Ag31	Ag3	0.304070	0.621710	0.397100
Ag41	Ag4	0.356870	0.414180	0.125560
Ag51	Ag5	0.406970	0.224610	0.602900
Ag61	Ag6	0.731310	0.288620	0.874440
Ag71	Ag7	0.695930	0.378290	0.602900
Ag81	Ag8	0.643130	0.585820	0.874440
H11	H1	0.403500	0.653500	0.920600
H21	H2	0.742000	0.651600	0.262400
H31	H3	0.779300	0.645300	0.151000
H41	H4	0.957900	0.829500	0.333600
H51	H5	0.859700	0.884900	0.352600
H61	H6	0.897000	0.878800	0.241200
H71	H7	0.516300	0.301700	0.305800
H81	H8	0.770500	0.677300	0.699600
H91	H9	0.732300	0.771100	0.651600
H101	H10	0.966100	0.858500	0.730800
H111	H11	0.943400	0.721400	0.638600
H121	H12	0.903700	0.811800	0.586200
H131	H13	0.017100	0.267100	0.920600
H141	H14	0.020400	0.610800	0.262400
H151	H15	0.871700	0.505700	0.151000
H161	H16	0.875700	0.504100	0.333600
H171	H17	0.992900	0.467700	0.352600
H181	H18	0.844200	0.362400	0.241200
H191	H19	0.289500	0.004100	0.305800
H201	H20	0.429100	0.022300	0.699600
H211	H21	0.419300	0.880500	0.651600
H221	H22	0.264700	0.872300	0.730800
H231	H23	0.195200	0.917200	0.638600
H241	H24	0.182500	0.774400	0.586200
H251	H25	0.596500	0.346500	0.079400
H261	H26	0.258000	0.348400	0.737600
H271	H27	0.220700	0.354700	0.849000
H281	H28	0.042100	0.170500	0.666400
H291	H29	0.140300	0.115100	0.647400
H301	H30	0.103000	0.121200	0.758800
H311	H31	0.483700	0.698300	0.694200
H321	H32	0.229500	0.322700	0.300400
H331	H33	0.267700	0.228900	0.348400
H341	H34	0.033900	0.141500	0.269200
H351	H35	0.056600	0.278600	0.361400
H361	H36	0.096300	0.188200	0.413800
H371	H37	0.982900	0.732900	0.079400
H381	H38	0.979600	0.389200	0.737600
H391	H39	0.128300	0.494300	0.849000
H401	H40	0.124300	0.495900	0.666400
H411	H41	0.007100	0.532300	0.647400
H421	H42	0.155800	0.637600	0.758800
H431	H43	0.710500	0.995900	0.694200
H441	H44	0.570900	0.977700	0.300400
H451	H45	0.580700	0.119500	0.348400
H461	H46	0.735300	0.127700	0.269200
H471	H47	0.804800	0.082800	0.361400
H481	H48	0.817500	0.225600	0.413800
C11	C1	0.627630	0.691130	0.139860
C21	C2	0.462600	0.669100	0.998000
C31	C3	0.758100	0.696300	0.210800
C41	C4	0.878600	0.834300	0.291400
C51	C5	0.667400	0.589200	0.509000
C61	C6	0.553000	0.394000	0.355000
C71	C7	0.766400	0.708600	0.636400
C81	C8	0.907200	0.781400	0.649000
C91	C9	0.012230	0.448730	0.139860
C101	C10	0.035400	0.328900	0.998000
C111	C11	0.952700	0.514500	0.210800
C121	C12	0.912800	0.457100	0.291400
C131	C13	0.341600	0.919800	0.509000
C141	C14	0.302000	0.961000	0.355000
C151	C15	0.370000	0.927800	0.636400
C161	C16	0.241800	0.867600	0.649000
C171	C17	0.372370	0.308870	0.860140
C181	C18	0.537400	0.330900	0.002000
C191	C19	0.241900	0.303700	0.789200
C201	C20	0.121400	0.165700	0.708600
C211	C21	0.332600	0.410800	0.491000
C221	C22	0.447000	0.606000	0.645000
C231	C23	0.233600	0.291400	0.363600
C241	C24	0.092800	0.218600	0.351000
C251	C25	0.987770	0.551270	0.860140
C261	C26	0.964600	0.671100	0.002000
C271	C27	0.047300	0.485500	0.789200
C281	C28	0.087200	0.542900	0.708600
C291	C29	0.658400	0.080200	0.491000
C301	C30	0.698000	0.039000	0.645000
C311	C31	0.630000	0.072200	0.363600
C321	C32	0.758200	0.132400	0.351000
N11	N1	0.547560	0.710760	0.190320
N21	N2	0.438660	0.696560	0.096320
N31	N3	0.579490	0.665690	0.019380
N41	N4	0.595500	0.597400	0.411600
N51	N5	0.521430	0.470130	0.311860
N61	N6	0.644150	0.462250	0.478300
N71	N7	0.142760	0.479560	0.190320
N81	N8	0.157660	0.399760	0.096320
N91	N9	0.939890	0.353690	0.019380
N101	N10	0.316100	0.814200	0.411600
N111	N11	0.290430	0.841730	0.311860
N121	N12	0.334150	0.016050	0.478300
N131	N13	0.452440	0.289240	0.809680
N141	N14	0.561340	0.303440	0.903680
N151	N15	0.420510	0.334310	0.980620
N161	N16	0.404500	0.402600	0.588400
N171	N17	0.478570	0.529870	0.688140
N181	N18	0.355850	0.537750	0.521700
N191	N19	0.857240	0.520440	0.809680
N201	N20	0.842340	0.600240	0.903680
N211	N21	0.060110	0.646310	0.980620
N221	N22	0.683900	0.185800	0.588400
N231	N23	0.709570	0.158270	0.688140
N241	N24	0.665850	0.983950	0.521700
