data_OSOTUN_clean_PM
_symmetry_space_group_name_H-M	'P1'
_cell_length_a	34.705000
_cell_length_b	34.705000
_cell_length_c	37.902300
_cell_angle_alpha	90.000000
_cell_angle_beta	90.000000
_cell_angle_gamma	120.000000
_symmetry_Int_Tables_number 1

loop_
_symmetry_equiv_pos_as_xyz
'x,y,z'

loop_
_atom_site_label
_atom_site_type_symbol
_atom_site_fract_x
_atom_site_fract_y
_atom_site_fract_z
Zn11	Zn1	0.271860	0.635580	0.528380
O11	O1	0.261000	0.675300	0.497980
O21	O2	0.324900	0.740400	0.499290
O31	O3	0.229800	0.622500	0.567490
C11	C1	0.286500	0.716000	0.490100
C21	C2	0.238200	0.631600	0.600300
O41	O4	0.276100	0.647700	0.614310
C31	C3	0.263600	0.732600	0.465000
C41	C4	0.201800	0.621900	0.624400
C51	C5	0.288600	0.776400	0.453000
C61	C6	0.220800	0.707300	0.453900
C71	C7	0.159300	0.608000	0.612600
C81	C8	0.207200	0.625400	0.658800
H11	H1	0.318100	0.793900	0.460100
C91	C9	0.269200	0.794100	0.429800
C101	C10	0.204200	0.726200	0.431400
H21	H2	0.203400	0.678000	0.461300
H31	H3	0.153800	0.607600	0.588500
C111	C11	0.124600	0.594500	0.636200
C121	C12	0.172000	0.613800	0.682100
H41	H4	0.235600	0.636100	0.668000
H51	H5	0.285800	0.823500	0.422300
C131	C13	0.227100	0.768800	0.418800
H61	H6	0.174900	0.708600	0.424000
H71	H7	0.096000	0.582700	0.627200
C141	C14	0.129300	0.597200	0.670300
H81	H8	0.177600	0.617300	0.706200
C151	C15	0.209800	0.789000	0.392600
C161	C16	0.090800	0.579800	0.693200
C171	C17	0.180500	0.802000	0.405300
C181	C18	0.223100	0.793200	0.358200
C191	C19	0.074200	0.605600	0.705700
C201	C20	0.074100	0.535900	0.704100
N11	N1	0.159500	0.819800	0.384800
C211	C21	0.164200	0.797500	0.442300
N21	N2	0.210500	0.810400	0.332200
C221	C22	0.251800	0.779500	0.345700
C231	C23	0.095200	0.654500	0.696800
N31	N3	0.039600	0.594700	0.727900
N41	N4	0.036500	0.510000	0.726500
C241	C24	0.088400	0.502700	0.694000
C251	C25	0.132200	0.824700	0.406500
C261	C26	0.135100	0.813100	0.443300
H91	H9	0.172400	0.786100	0.461200
C271	C27	0.231500	0.807800	0.301000
H101	H10	0.264500	0.766000	0.358700
C281	C28	0.257800	0.789300	0.310900
C291	C29	0.068600	0.667800	0.709700
H111	H11	0.121700	0.671700	0.684700
C301	C30	0.033900	0.630500	0.732100
C311	C31	0.034000	0.469800	0.729600
C321	C32	0.064300	0.464100	0.709300
H121	H12	0.111800	0.509100	0.678700
C331	C33	0.105900	0.844100	0.397100
H131	H13	0.120400	0.815800	0.462900
H141	H14	0.276400	0.784700	0.296000
H151	H15	0.070800	0.695300	0.705800
H161	H16	0.066900	0.438800	0.707100
H171	H17	0.089300	0.846700	0.415200
Zn21	Zn2	0.938530	0.968910	0.861710
O51	O5	0.927670	0.008630	0.831310
O61	O6	0.991570	0.073730	0.832620
O71	O7	0.896470	0.955830	0.900820
C341	C34	0.953170	0.049330	0.823430
C351	C35	0.904870	0.964930	0.933630
O81	O8	0.942770	0.981030	0.947640
C361	C36	0.930270	0.065930	0.798330
C371	C37	0.868470	0.955230	0.957730
C381	C38	0.955270	0.109730	0.786330
C391	C39	0.887470	0.040630	0.787230
C401	C40	0.825970	0.941330	0.945930
C411	C41	0.873870	0.958730	0.992130
H181	H18	0.984770	0.127230	0.793430
C421	C42	0.935870	0.127430	0.763130
C431	C43	0.870870	0.059530	0.764730
H191	H19	0.870070	0.011330	0.794630
H201	H20	0.820470	0.940930	0.921830
C441	C44	0.791270	0.927830	0.969530
C451	C45	0.838670	0.947130	0.015430
H211	H21	0.902270	0.969430	0.001330
H221	H22	0.952470	0.156830	0.755630
C461	C46	0.893770	0.102130	0.752130
H231	H23	0.841570	0.041930	0.757330
H241	H24	0.762670	0.916030	0.960530
C471	C47	0.795970	0.930530	0.003630
H251	H25	0.844270	0.950630	0.039530
C481	C48	0.876470	0.122330	0.725930
C491	C49	0.757470	0.913130	0.026530
C501	C50	0.847170	0.135330	0.738630
C511	C51	0.889770	0.126530	0.691530
C521	C52	0.740870	0.938930	0.039030
C531	C53	0.740770	0.869230	0.037430
N51	N5	0.826170	0.153130	0.718130
C541	C54	0.830870	0.130830	0.775630
N61	N6	0.877170	0.143730	0.665530
C551	C55	0.918470	0.112830	0.679030
C561	C56	0.761870	0.987830	0.030130
N71	N7	0.706270	0.928030	0.061230
N81	N8	0.703170	0.843330	0.059830
C571	C57	0.755070	0.836030	0.027330
C581	C58	0.798870	0.158030	0.739830
C591	C59	0.801770	0.146430	0.776630
H261	H26	0.839070	0.119430	0.794530
C601	C60	0.898170	0.141130	0.634330
H271	H27	0.931170	0.099330	0.692030
C611	C61	0.924470	0.122630	0.644230
C621	C62	0.735270	0.001130	0.043030
H281	H28	0.788370	0.005030	0.018030
C631	C63	0.700570	0.963830	0.065430
C641	C64	0.700670	0.803130	0.062930
C651	C65	0.730970	0.797430	0.042630
H291	H29	0.778470	0.842430	0.012030
C661	C66	0.772570	0.177430	0.730430
H301	H30	0.787070	0.149130	0.796230
H311	H31	0.943070	0.118030	0.629330
H321	H32	0.737470	0.028630	0.039130
H331	H33	0.733570	0.772130	0.040430
H341	H34	0.755970	0.180030	0.748530
Zn31	Zn3	0.605190	0.302250	0.195050
O91	O9	0.594330	0.341970	0.164650
O101	O10	0.658230	0.407070	0.165960
O111	O11	0.563130	0.289170	0.234160
C671	C67	0.619830	0.382670	0.156770
C681	C68	0.571530	0.298270	0.266970
O121	O12	0.609430	0.314370	0.280980
C691	C69	0.596930	0.399270	0.131670
C701	C70	0.535130	0.288570	0.291070
C711	C71	0.621930	0.443070	0.119670
C721	C72	0.554130	0.373970	0.120570
C731	C73	0.492630	0.274670	0.279270
C741	C74	0.540530	0.292070	0.325470
H351	H35	0.651430	0.460570	0.126770
C751	C75	0.602530	0.460770	0.096470
C761	C76	0.537530	0.392870	0.098070
H361	H36	0.536730	0.344670	0.127970
H371	H37	0.487130	0.274270	0.255170
C771	C77	0.457930	0.261170	0.302870
C781	C78	0.505330	0.280470	0.348770
H381	H38	0.568930	0.302770	0.334670
H391	H39	0.619130	0.490170	0.088970
C791	C79	0.560430	0.435470	0.085470
H401	H40	0.508230	0.375270	0.090670
H411	H41	0.429330	0.249370	0.293870
C801	C80	0.462630	0.263870	0.336970
H421	H42	0.510930	0.283970	0.372870
C811	C81	0.543130	0.455670	0.059270
C821	C82	0.424130	0.246470	0.359870
C831	C83	0.513830	0.468670	0.071970
C841	C84	0.556430	0.459870	0.024870
C851	C85	0.407530	0.272270	0.372370
C861	C86	0.407430	0.202570	0.370770
N91	N9	0.492830	0.486470	0.051470
C871	C87	0.497530	0.464170	0.108970
N101	N10	0.543830	0.477070	0.998870
C881	C88	0.585130	0.446170	0.012370
C891	C89	0.428530	0.321170	0.363470
N111	N11	0.372930	0.261370	0.394570
N121	N12	0.369830	0.176670	0.393170
C901	C90	0.421730	0.169370	0.360670
C911	C91	0.465530	0.491370	0.073170
C921	C92	0.468430	0.479770	0.109970
H431	H43	0.505730	0.452770	0.127870
C931	C93	0.564830	0.474470	0.967670
H441	H44	0.597830	0.432670	0.025370
C941	C94	0.591130	0.455970	0.977570
C951	C95	0.401930	0.334470	0.376370
H451	H45	0.455030	0.338370	0.351370
C961	C96	0.367230	0.297170	0.398770
C971	C97	0.367330	0.136470	0.396270
C981	C98	0.397630	0.130770	0.375970
H461	H46	0.445130	0.175770	0.345370
C991	C99	0.439230	0.510770	0.063770
H471	H47	0.453730	0.482470	0.129570
H481	H48	0.609730	0.451370	0.962670
H491	H49	0.404130	0.361970	0.372470
H501	H50	0.400230	0.105470	0.373770
H511	H51	0.422630	0.513370	0.081870
Zn41	Zn4	0.364420	0.636280	0.528380
O131	O13	0.324700	0.585700	0.497980
O141	O14	0.259600	0.584500	0.499290
O151	O15	0.377500	0.607300	0.567490
C1001	C100	0.284000	0.570500	0.490100
C1011	C101	0.368400	0.606600	0.600300
O161	O16	0.352300	0.628400	0.614310
C1021	C102	0.267400	0.531000	0.465000
C1031	C103	0.378100	0.579900	0.624400
C1041	C104	0.223600	0.512200	0.453000
C1051	C105	0.292700	0.513500	0.453900
C1061	C106	0.392000	0.551300	0.612600
C1071	C107	0.374600	0.581800	0.658800
H521	H52	0.206100	0.524200	0.460100
C1081	C108	0.205900	0.475100	0.429800
C1091	C109	0.273800	0.478000	0.431400
H531	H53	0.322000	0.525400	0.461300
H541	H54	0.392400	0.546200	0.588500
C1101	C110	0.405500	0.530100	0.636200
C1111	C111	0.386200	0.558200	0.682100
H551	H55	0.363900	0.599500	0.668000
H561	H56	0.176500	0.462300	0.422300
C1121	C112	0.231200	0.458300	0.418800
H571	H57	0.291400	0.466300	0.424000
H581	H58	0.417300	0.513300	0.627200
C1131	C113	0.402800	0.532100	0.670300
H591	H59	0.382700	0.560300	0.706200
C1141	C114	0.211000	0.420800	0.392600
C1151	C115	0.420200	0.511000	0.693200
C1161	C116	0.198000	0.378500	0.405300
C1171	C117	0.206800	0.429900	0.358200
C1181	C118	0.394400	0.468600	0.705700
C1191	C119	0.464100	0.538200	0.704100
N131	N13	0.180200	0.339700	0.384800
C1201	C120	0.202500	0.366700	0.442300
N141	N14	0.189600	0.400100	0.332200
C1211	C121	0.220500	0.472300	0.345700
C1221	C122	0.345500	0.440700	0.696800
N151	N15	0.405300	0.444900	0.727900
N161	N16	0.490000	0.526500	0.726500
C1231	C123	0.497300	0.585700	0.694000
C1241	C124	0.175300	0.307500	0.406500
C1251	C125	0.186900	0.322000	0.443300
H601	H60	0.213900	0.386300	0.461200
C1261	C126	0.192200	0.423700	0.301000
H611	H61	0.234000	0.498500	0.358700
C1271	C127	0.210700	0.468500	0.310900
C1281	C128	0.332200	0.400800	0.709700
H621	H62	0.328300	0.450000	0.684700
C1291	C129	0.369500	0.403400	0.732100
C1301	C130	0.530200	0.564200	0.729600
C1311	C131	0.535900	0.600200	0.709300
H631	H63	0.490900	0.602700	0.678700
C1321	C132	0.155900	0.261800	0.397100
H641	H64	0.184200	0.304600	0.462900
H651	H65	0.215300	0.491700	0.296000
H661	H66	0.304700	0.375500	0.705800
H671	H67	0.561200	0.628100	0.707100
H681	H68	0.153300	0.242600	0.415200
Zn51	Zn5	0.031090	0.969610	0.861710
O171	O17	0.991370	0.919030	0.831310
O181	O18	0.926270	0.917830	0.832620
O191	O19	0.044170	0.940630	0.900820
C1331	C133	0.950670	0.903830	0.823430
C1341	C134	0.035070	0.939930	0.933630
O201	O20	0.018970	0.961730	0.947640
C1351	C135	0.934070	0.864330	0.798330
C1361	C136	0.044770	0.913230	0.957730
C1371	C137	0.890270	0.845530	0.786330
C1381	C138	0.959370	0.846830	0.787230
C1391	C139	0.058670	0.884630	0.945930
C1401	C140	0.041270	0.915130	0.992130
H691	H69	0.872770	0.857530	0.793430
C1411	C141	0.872570	0.808430	0.763130
C1421	C142	0.940470	0.811330	0.764730
H701	H70	0.988670	0.858730	0.794630
H711	H71	0.059070	0.879530	0.921830
C1431	C143	0.072170	0.863430	0.969530
C1441	C144	0.052870	0.891530	0.015430
H721	H72	0.030570	0.932830	0.001330
H731	H73	0.843170	0.795630	0.755630
C1451	C145	0.897870	0.791630	0.752130
H741	H74	0.958070	0.799630	0.757330
H751	H75	0.083970	0.846630	0.960530
C1461	C146	0.069470	0.865430	0.003630
H761	H76	0.049370	0.893630	0.039530
C1471	C147	0.877670	0.754130	0.725930
C1481	C148	0.086870	0.844330	0.026530
C1491	C149	0.864670	0.711830	0.738630
C1501	C150	0.873470	0.763230	0.691530
C1511	C151	0.061070	0.801930	0.039030
C1521	C152	0.130770	0.871530	0.037430
N171	N17	0.846870	0.673030	0.718130
C1531	C153	0.869170	0.700030	0.775630
N181	N18	0.856270	0.733430	0.665530
C1541	C154	0.887170	0.805630	0.679030
C1551	C155	0.012170	0.774030	0.030130
N191	N19	0.071970	0.778230	0.061230
N201	N20	0.156670	0.859830	0.059830
C1561	C156	0.163970	0.919030	0.027330
C1571	C157	0.841970	0.640830	0.739830
C1581	C158	0.853570	0.655330	0.776630
H771	H77	0.880570	0.719630	0.794530
C1591	C159	0.858870	0.757030	0.634330
H781	H78	0.900670	0.831830	0.692030
C1601	C160	0.877370	0.801830	0.644230
C1611	C161	0.998870	0.734130	0.043030
H791	H79	0.994970	0.783330	0.018030
C1621	C162	0.036170	0.736730	0.065430
C1631	C163	0.196870	0.897530	0.062930
C1641	C164	0.202570	0.933530	0.042630
H801	H80	0.157570	0.936030	0.012030
C1651	C165	0.822570	0.595130	0.730430
H811	H81	0.850870	0.637930	0.796230
H821	H82	0.881970	0.825030	0.629330
H831	H83	0.971370	0.708830	0.039130
H841	H84	0.227870	0.961430	0.040430
H851	H85	0.819970	0.575930	0.748530
Zn61	Zn6	0.697750	0.302950	0.195050
O211	O21	0.658030	0.252370	0.164650
O221	O22	0.592930	0.251170	0.165960
O231	O23	0.710830	0.273970	0.234160
C1661	C166	0.617330	0.237170	0.156770
C1671	C167	0.701730	0.273270	0.266970
O241	O24	0.685630	0.295070	0.280980
C1681	C168	0.600730	0.197670	0.131670
C1691	C169	0.711430	0.246570	0.291070
C1701	C170	0.556930	0.178870	0.119670
C1711	C171	0.626030	0.180170	0.120570
C1721	C172	0.725330	0.217970	0.279270
C1731	C173	0.707930	0.248470	0.325470
H861	H86	0.539430	0.190870	0.126770
C1741	C174	0.539230	0.141770	0.096470
C1751	C175	0.607130	0.144670	0.098070
H871	H87	0.655330	0.192070	0.127970
H881	H88	0.725730	0.212870	0.255170
C1761	C176	0.738830	0.196770	0.302870
C1771	C177	0.719530	0.224870	0.348770
H891	H89	0.697230	0.266170	0.334670
H901	H90	0.509830	0.128970	0.088970
C1781	C178	0.564530	0.124970	0.085470
H911	H91	0.624730	0.132970	0.090670
H921	H92	0.750630	0.179970	0.293870
C1791	C179	0.736130	0.198770	0.336970
H931	H93	0.716030	0.226970	0.372870
C1801	C180	0.544330	0.087470	0.059270
C1811	C181	0.753530	0.177670	0.359870
C1821	C182	0.531330	0.045170	0.071970
C1831	C183	0.540130	0.096570	0.024870
C1841	C184	0.727730	0.135270	0.372370
C1851	C185	0.797430	0.204870	0.370770
N211	N21	0.513530	0.006370	0.051470
C1861	C186	0.535830	0.033370	0.108970
N221	N22	0.522930	0.066770	0.998870
C1871	C187	0.553830	0.138970	0.012370
C1881	C188	0.678830	0.107370	0.363470
N231	N23	0.738630	0.111570	0.394570
N241	N24	0.823330	0.193170	0.393170
C1891	C189	0.830630	0.252370	0.360670
C1901	C190	0.508630	0.974170	0.073170
C1911	C191	0.520230	0.988670	0.109970
H941	H94	0.547230	0.052970	0.127870
C1921	C192	0.525530	0.090370	0.967670
H951	H95	0.567330	0.165170	0.025370
C1931	C193	0.544030	0.135170	0.977570
C1941	C194	0.665530	0.067470	0.376370
H961	H96	0.661630	0.116670	0.351370
C1951	C195	0.702830	0.070070	0.398770
C1961	C196	0.863530	0.230870	0.396270
C1971	C197	0.869230	0.266870	0.375970
H971	H97	0.824230	0.269370	0.345370
C1981	C198	0.489230	0.928470	0.063770
H981	H98	0.517530	0.971270	0.129570
H991	H99	0.548630	0.158370	0.962670
H1001	H100	0.638030	0.042170	0.372470
H1011	H101	0.894530	0.294770	0.373770
H1021	H102	0.486630	0.909270	0.081870
Zn71	Zn7	0.363720	0.728140	0.528380
O251	O25	0.414300	0.739000	0.497980
O261	O26	0.415500	0.675100	0.499290
O271	O27	0.392700	0.770200	0.567490
C1991	C199	0.429500	0.713500	0.490100
C2001	C200	0.393400	0.761800	0.600300
O281	O28	0.371600	0.723900	0.614310
C2011	C201	0.469000	0.736400	0.465000
C2021	C202	0.420100	0.798200	0.624400
C2031	C203	0.487800	0.711400	0.453000
C2041	C204	0.486500	0.779200	0.453900
C2051	C205	0.448700	0.840700	0.612600
C2061	C206	0.418200	0.792800	0.658800
H1031	H103	0.475800	0.681900	0.460100
C2071	C207	0.524900	0.730800	0.429800
C2081	C208	0.522000	0.795800	0.431400
H1041	H104	0.474600	0.796600	0.461300
H1051	H105	0.453800	0.846200	0.588500
C2091	C209	0.469900	0.875400	0.636200
C2101	C210	0.441800	0.828000	0.682100
H1061	H106	0.400500	0.764400	0.668000
H1071	H107	0.537700	0.714200	0.422300
C2111	C211	0.541700	0.772900	0.418800
H1081	H108	0.533700	0.825100	0.424000
H1091	H109	0.486700	0.904000	0.627200
C2121	C212	0.467900	0.870700	0.670300
H1101	H110	0.439700	0.822400	0.706200
C2131	C213	0.579200	0.790200	0.392600
C2141	C214	0.489000	0.909200	0.693200
C2151	C215	0.621500	0.819500	0.405300
C2161	C216	0.570100	0.776900	0.358200
C2171	C217	0.531400	0.925800	0.705700
C2181	C218	0.461800	0.925900	0.704100
N251	N25	0.660300	0.840500	0.384800
C2191	C219	0.633300	0.835800	0.442300
N261	N26	0.599900	0.789500	0.332200
C2201	C220	0.527700	0.748200	0.345700
C2211	C221	0.559300	0.904800	0.696800
N271	N27	0.555100	0.960400	0.727900
N281	N28	0.473500	0.963500	0.726500
C2221	C222	0.414300	0.911600	0.694000
C2231	C223	0.692500	0.867800	0.406500
C2241	C224	0.678000	0.864900	0.443300
H1111	H111	0.613700	0.827600	0.461200
C2251	C225	0.576300	0.768500	0.301000
H1121	H112	0.501500	0.735500	0.358700
C2261	C226	0.531500	0.742200	0.310900
C2271	C227	0.599200	0.931400	0.709700
H1131	H113	0.550000	0.878300	0.684700
C2281	C228	0.596600	0.966100	0.732100
C2291	C229	0.435800	0.966000	0.729600
C2301	C230	0.399800	0.935700	0.709300
H1141	H114	0.397300	0.888200	0.678700
C2311	C231	0.738200	0.894100	0.397100
H1151	H115	0.695400	0.879600	0.462900
H1161	H116	0.508300	0.723600	0.296000
H1171	H117	0.624500	0.929200	0.705800
H1181	H118	0.371900	0.933100	0.707100
H1191	H119	0.757400	0.910700	0.415200
Zn81	Zn8	0.030390	0.061470	0.861710
O291	O29	0.080970	0.072330	0.831310
O301	O30	0.082170	0.008430	0.832620
O311	O31	0.059370	0.103530	0.900820
C2321	C232	0.096170	0.046830	0.823430
C2331	C233	0.060070	0.095130	0.933630
O321	O32	0.038270	0.057230	0.947640
C2341	C234	0.135670	0.069730	0.798330
C2351	C235	0.086770	0.131530	0.957730
C2361	C236	0.154470	0.044730	0.786330
C2371	C237	0.153170	0.112530	0.787230
C2381	C238	0.115370	0.174030	0.945930
C2391	C239	0.084870	0.126130	0.992130
H1201	H120	0.142470	0.015230	0.793430
C2401	C240	0.191570	0.064130	0.763130
C2411	C241	0.188670	0.129130	0.764730
H1211	H121	0.141270	0.129930	0.794630
H1221	H122	0.120470	0.179530	0.921830
C2421	C242	0.136570	0.208730	0.969530
C2431	C243	0.108470	0.161330	0.015430
H1231	H123	0.067170	0.097730	0.001330
H1241	H124	0.204370	0.047530	0.755630
C2441	C244	0.208370	0.106230	0.752130
H1251	H125	0.200370	0.158430	0.757330
H1261	H126	0.153370	0.237330	0.960530
C2451	C245	0.134570	0.204030	0.003630
H1271	H127	0.106370	0.155730	0.039530
C2461	C246	0.245870	0.123530	0.725930
C2471	C247	0.155670	0.242530	0.026530
C2481	C248	0.288170	0.152830	0.738630
C2491	C249	0.236770	0.110230	0.691530
C2501	C250	0.198070	0.259130	0.039030
C2511	C251	0.128470	0.259230	0.037430
N291	N29	0.326970	0.173830	0.718130
C2521	C252	0.299970	0.169130	0.775630
N301	N30	0.266570	0.122830	0.665530
C2531	C253	0.194370	0.081530	0.679030
C2541	C254	0.225970	0.238130	0.030130
N311	N31	0.221770	0.293730	0.061230
N321	N32	0.140170	0.296830	0.059830
C2551	C255	0.080970	0.244930	0.027330
C2561	C256	0.359170	0.201130	0.739830
C2571	C257	0.344670	0.198230	0.776630
H1281	H128	0.280370	0.160930	0.794530
C2581	C258	0.242970	0.101830	0.634330
H1291	H129	0.168170	0.068830	0.692030
C2591	C259	0.198170	0.075530	0.644230
C2601	C260	0.265870	0.264730	0.043030
H1301	H130	0.216670	0.211630	0.018030
C2611	C261	0.263270	0.299430	0.065430
C2621	C262	0.102470	0.299330	0.062930
C2631	C263	0.066470	0.269030	0.042630
H1311	H131	0.063970	0.221530	0.012030
C2641	C264	0.404870	0.227430	0.730430
H1321	H132	0.362070	0.212930	0.796230
H1331	H133	0.174970	0.056930	0.629330
H1341	H134	0.291170	0.262530	0.039130
H1351	H135	0.038570	0.266430	0.040430
H1361	H136	0.424070	0.244030	0.748530
Zn91	Zn9	0.697050	0.394810	0.195050
O331	O33	0.747630	0.405670	0.164650
O341	O34	0.748830	0.341770	0.165960
O351	O35	0.726030	0.436870	0.234160
C2651	C265	0.762830	0.380170	0.156770
C2661	C266	0.726730	0.428470	0.266970
O361	O36	0.704930	0.390570	0.280980
C2671	C267	0.802330	0.403070	0.131670
C2681	C268	0.753430	0.464870	0.291070
C2691	C269	0.821130	0.378070	0.119670
C2701	C270	0.819830	0.445870	0.120570
C2711	C271	0.782030	0.507370	0.279270
C2721	C272	0.751530	0.459470	0.325470
H1371	H137	0.809130	0.348570	0.126770
C2731	C273	0.858230	0.397470	0.096470
C2741	C274	0.855330	0.462470	0.098070
H1381	H138	0.807930	0.463270	0.127970
H1391	H139	0.787130	0.512870	0.255170
C2751	C275	0.803230	0.542070	0.302870
C2761	C276	0.775130	0.494670	0.348770
H1401	H140	0.733830	0.431070	0.334670
H1411	H141	0.871030	0.380870	0.088970
C2771	C277	0.875030	0.439570	0.085470
H1421	H142	0.867030	0.491770	0.090670
H1431	H143	0.820030	0.570670	0.293870
C2781	C278	0.801230	0.537370	0.336970
H1441	H144	0.773030	0.489070	0.372870
C2791	C279	0.912530	0.456870	0.059270
C2801	C280	0.822330	0.575870	0.359870
C2811	C281	0.954830	0.486170	0.071970
C2821	C282	0.903430	0.443570	0.024870
C2831	C283	0.864730	0.592470	0.372370
C2841	C284	0.795130	0.592570	0.370770
N331	N33	0.993630	0.507170	0.051470
C2851	C285	0.966630	0.502470	0.108970
N341	N34	0.933230	0.456170	0.998870
C2861	C286	0.861030	0.414870	0.012370
C2871	C287	0.892630	0.571470	0.363470
N351	N35	0.888430	0.627070	0.394570
N361	N36	0.806830	0.630170	0.393170
C2881	C288	0.747630	0.578270	0.360670
C2891	C289	0.025830	0.534470	0.073170
C2901	C290	0.011330	0.531570	0.109970
H1451	H145	0.947030	0.494270	0.127870
C2911	C291	0.909630	0.435170	0.967670
H1461	H146	0.834830	0.402170	0.025370
C2921	C292	0.864830	0.408870	0.977570
C2931	C293	0.932530	0.598070	0.376370
H1471	H147	0.883330	0.544970	0.351370
C2941	C294	0.929930	0.632770	0.398770
C2951	C295	0.769130	0.632670	0.396270
C2961	C296	0.733130	0.602370	0.375970
H1481	H148	0.730630	0.554870	0.345370
C2971	C297	0.071530	0.560770	0.063770
H1491	H149	0.028730	0.546270	0.129570
H1501	H150	0.841630	0.390270	0.962670
H1511	H151	0.957830	0.595870	0.372470
H1521	H152	0.705230	0.599770	0.373770
H1531	H153	0.090730	0.577370	0.081870
Zn101	Zn10	0.635580	0.271860	0.971620
O371	O37	0.675300	0.261000	0.002020
O381	O38	0.740400	0.324900	0.000710
O391	O39	0.622500	0.229800	0.932510
C2981	C298	0.716000	0.286500	0.009900
C2991	C299	0.631600	0.238200	0.899700
O401	O40	0.647700	0.276100	0.885690
C3001	C300	0.732600	0.263600	0.035000
C3011	C301	0.621900	0.201800	0.875600
C3021	C302	0.776400	0.288600	0.047000
C3031	C303	0.707300	0.220800	0.046100
C3041	C304	0.608000	0.159300	0.887400
C3051	C305	0.625400	0.207200	0.841200
H1541	H154	0.793900	0.318100	0.039900
C3061	C306	0.794100	0.269200	0.070200
C3071	C307	0.726200	0.204200	0.068600
H1551	H155	0.678000	0.203400	0.038700
H1561	H156	0.607600	0.153800	0.911500
C3081	C308	0.594500	0.124600	0.863800
C3091	C309	0.613800	0.172000	0.817900
H1571	H157	0.636100	0.235600	0.832000
H1581	H158	0.823500	0.285800	0.077700
C3101	C310	0.768800	0.227100	0.081200
H1591	H159	0.708600	0.174900	0.076000
H1601	H160	0.582700	0.096000	0.872800
C3111	C311	0.597200	0.129300	0.829700
H1611	H161	0.617300	0.177600	0.793800
C3121	C312	0.789000	0.209800	0.107400
C3131	C313	0.579800	0.090800	0.806800
C3141	C314	0.802000	0.180500	0.094700
C3151	C315	0.793200	0.223100	0.141800
C3161	C316	0.605600	0.074200	0.794300
C3171	C317	0.535900	0.074100	0.795900
N371	N37	0.819800	0.159500	0.115200
C3181	C318	0.797500	0.164200	0.057700
N381	N38	0.810400	0.210500	0.167800
C3191	C319	0.779500	0.251800	0.154300
C3201	C320	0.654500	0.095200	0.803200
N391	N39	0.594700	0.039600	0.772100
N401	N40	0.510000	0.036500	0.773500
C3211	C321	0.502700	0.088400	0.806000
C3221	C322	0.824700	0.132200	0.093500
C3231	C323	0.813100	0.135100	0.056700
H1621	H162	0.786100	0.172400	0.038800
C3241	C324	0.807800	0.231500	0.199000
H1631	H163	0.766000	0.264500	0.141300
C3251	C325	0.789300	0.257800	0.189100
C3261	C326	0.667800	0.068600	0.790300
H1641	H164	0.671700	0.121700	0.815300
C3271	C327	0.630500	0.033900	0.767900
C3281	C328	0.469800	0.034000	0.770400
C3291	C329	0.464100	0.064300	0.790700
H1651	H165	0.509100	0.111800	0.821300
C3301	C330	0.844100	0.105900	0.102900
H1661	H166	0.815800	0.120400	0.037100
H1671	H167	0.784700	0.276400	0.204000
H1681	H168	0.695300	0.070800	0.794200
H1691	H169	0.438800	0.066900	0.792900
H1701	H170	0.846700	0.089300	0.084800
Zn111	Zn11	0.302250	0.605190	0.304950
O411	O41	0.341970	0.594330	0.335350
O421	O42	0.407070	0.658230	0.334040
O431	O43	0.289170	0.563130	0.265840
C3311	C331	0.382670	0.619830	0.343230
C3321	C332	0.298270	0.571530	0.233030
O441	O44	0.314370	0.609430	0.219020
C3331	C333	0.399270	0.596930	0.368330
C3341	C334	0.288570	0.535130	0.208930
C3351	C335	0.443070	0.621930	0.380330
C3361	C336	0.373970	0.554130	0.379430
C3371	C337	0.274670	0.492630	0.220730
C3381	C338	0.292070	0.540530	0.174530
H1711	H171	0.460570	0.651430	0.373230
C3391	C339	0.460770	0.602530	0.403530
C3401	C340	0.392870	0.537530	0.401930
H1721	H172	0.344670	0.536730	0.372030
H1731	H173	0.274270	0.487130	0.244830
C3411	C341	0.261170	0.457930	0.197130
C3421	C342	0.280470	0.505330	0.151230
H1741	H174	0.302770	0.568930	0.165330
H1751	H175	0.490170	0.619130	0.411030
C3431	C343	0.435470	0.560430	0.414530
H1761	H176	0.375270	0.508230	0.409330
H1771	H177	0.249370	0.429330	0.206130
C3441	C344	0.263870	0.462630	0.163030
H1781	H178	0.283970	0.510930	0.127130
C3451	C345	0.455670	0.543130	0.440730
C3461	C346	0.246470	0.424130	0.140130
C3471	C347	0.468670	0.513830	0.428030
C3481	C348	0.459870	0.556430	0.475130
C3491	C349	0.272270	0.407530	0.127630
C3501	C350	0.202570	0.407430	0.129230
N411	N41	0.486470	0.492830	0.448530
C3511	C351	0.464170	0.497530	0.391030
N421	N42	0.477070	0.543830	0.501130
C3521	C352	0.446170	0.585130	0.487630
C3531	C353	0.321170	0.428530	0.136530
N431	N43	0.261370	0.372930	0.105430
N441	N44	0.176670	0.369830	0.106830
C3541	C354	0.169370	0.421730	0.139330
C3551	C355	0.491370	0.465530	0.426830
C3561	C356	0.479770	0.468430	0.390030
H1791	H179	0.452770	0.505730	0.372130
C3571	C357	0.474470	0.564830	0.532330
H1801	H180	0.432670	0.597830	0.474630
C3581	C358	0.455970	0.591130	0.522430
C3591	C359	0.334470	0.401930	0.123630
H1811	H181	0.338370	0.455030	0.148630
C3601	C360	0.297170	0.367230	0.101230
C3611	C361	0.136470	0.367330	0.103730
C3621	C362	0.130770	0.397630	0.124030
H1821	H182	0.175770	0.445130	0.154630
C3631	C363	0.510770	0.439230	0.436230
H1831	H183	0.482470	0.453730	0.370430
H1841	H184	0.451370	0.609730	0.537330
H1851	H185	0.361970	0.404130	0.127530
H1861	H186	0.105470	0.400230	0.126230
H1871	H187	0.513370	0.422630	0.418130
Zn121	Zn12	0.968910	0.938530	0.638290
O451	O45	0.008630	0.927670	0.668690
O461	O46	0.073730	0.991570	0.667380
O471	O47	0.955830	0.896470	0.599180
C3641	C364	0.049330	0.953170	0.676570
C3651	C365	0.964930	0.904870	0.566370
O481	O48	0.981030	0.942770	0.552360
C3661	C366	0.065930	0.930270	0.701670
C3671	C367	0.955230	0.868470	0.542270
C3681	C368	0.109730	0.955270	0.713670
C3691	C369	0.040630	0.887470	0.712770
C3701	C370	0.941330	0.825970	0.554070
C3711	C371	0.958730	0.873870	0.507870
H1881	H188	0.127230	0.984770	0.706570
C3721	C372	0.127430	0.935870	0.736870
C3731	C373	0.059530	0.870870	0.735270
H1891	H189	0.011330	0.870070	0.705370
H1901	H190	0.940930	0.820470	0.578170
C3741	C374	0.927830	0.791270	0.530470
C3751	C375	0.947130	0.838670	0.484570
H1911	H191	0.969430	0.902270	0.498670
H1921	H192	0.156830	0.952470	0.744370
C3761	C376	0.102130	0.893770	0.747870
H1931	H193	0.041930	0.841570	0.742670
H1941	H194	0.916030	0.762670	0.539470
C3771	C377	0.930530	0.795970	0.496370
H1951	H195	0.950630	0.844270	0.460470
C3781	C378	0.122330	0.876470	0.774070
C3791	C379	0.913130	0.757470	0.473470
C3801	C380	0.135330	0.847170	0.761370
C3811	C381	0.126530	0.889770	0.808470
C3821	C382	0.938930	0.740870	0.460970
C3831	C383	0.869230	0.740770	0.462570
N451	N45	0.153130	0.826170	0.781870
C3841	C384	0.130830	0.830870	0.724370
N461	N46	0.143730	0.877170	0.834470
C3851	C385	0.112830	0.918470	0.820970
C3861	C386	0.987830	0.761870	0.469870
N471	N47	0.928030	0.706270	0.438770
N481	N48	0.843330	0.703170	0.440170
C3871	C387	0.836030	0.755070	0.472670
C3881	C388	0.158030	0.798870	0.760170
C3891	C389	0.146430	0.801770	0.723370
H1961	H196	0.119430	0.839070	0.705470
C3901	C390	0.141130	0.898170	0.865670
H1971	H197	0.099330	0.931170	0.807970
C3911	C391	0.122630	0.924470	0.855770
C3921	C392	0.001130	0.735270	0.456970
H1981	H198	0.005030	0.788370	0.481970
C3931	C393	0.963830	0.700570	0.434570
C3941	C394	0.803130	0.700670	0.437070
C3951	C395	0.797430	0.730970	0.457370
H1991	H199	0.842430	0.778470	0.487970
C3961	C396	0.177430	0.772570	0.769570
H2001	H200	0.149130	0.787070	0.703770
H2011	H201	0.118030	0.943070	0.870670
H2021	H202	0.028630	0.737470	0.460870
H2031	H203	0.772130	0.733570	0.459570
H2041	H204	0.180030	0.755970	0.751470
Zn131	Zn13	0.636280	0.364420	0.971620
O491	O49	0.585700	0.324700	0.002020
O501	O50	0.584500	0.259600	0.000710
O511	O51	0.607300	0.377500	0.932510
C3971	C397	0.570500	0.284000	0.009900
C3981	C398	0.606600	0.368400	0.899700
O521	O52	0.628400	0.352300	0.885690
C3991	C399	0.531000	0.267400	0.035000
C4001	C400	0.579900	0.378100	0.875600
C4011	C401	0.512200	0.223600	0.047000
C4021	C402	0.513500	0.292700	0.046100
C4031	C403	0.551300	0.392000	0.887400
C4041	C404	0.581800	0.374600	0.841200
H2051	H205	0.524200	0.206100	0.039900
C4051	C405	0.475100	0.205900	0.070200
C4061	C406	0.478000	0.273800	0.068600
H2061	H206	0.525400	0.322000	0.038700
H2071	H207	0.546200	0.392400	0.911500
C4071	C407	0.530100	0.405500	0.863800
C4081	C408	0.558200	0.386200	0.817900
H2081	H208	0.599500	0.363900	0.832000
H2091	H209	0.462300	0.176500	0.077700
C4091	C409	0.458300	0.231200	0.081200
H2101	H210	0.466300	0.291400	0.076000
H2111	H211	0.513300	0.417300	0.872800
C4101	C410	0.532100	0.402800	0.829700
H2121	H212	0.560300	0.382700	0.793800
C4111	C411	0.420800	0.211000	0.107400
C4121	C412	0.511000	0.420200	0.806800
C4131	C413	0.378500	0.198000	0.094700
C4141	C414	0.429900	0.206800	0.141800
C4151	C415	0.468600	0.394400	0.794300
C4161	C416	0.538200	0.464100	0.795900
N491	N49	0.339700	0.180200	0.115200
C4171	C417	0.366700	0.202500	0.057700
N501	N50	0.400100	0.189600	0.167800
C4181	C418	0.472300	0.220500	0.154300
C4191	C419	0.440700	0.345500	0.803200
N511	N51	0.444900	0.405300	0.772100
N521	N52	0.526500	0.490000	0.773500
C4201	C420	0.585700	0.497300	0.806000
C4211	C421	0.307500	0.175300	0.093500
C4221	C422	0.322000	0.186900	0.056700
H2131	H213	0.386300	0.213900	0.038800
C4231	C423	0.423700	0.192200	0.199000
H2141	H214	0.498500	0.234000	0.141300
C4241	C424	0.468500	0.210700	0.189100
C4251	C425	0.400800	0.332200	0.790300
H2151	H215	0.450000	0.328300	0.815300
C4261	C426	0.403400	0.369500	0.767900
C4271	C427	0.564200	0.530200	0.770400
C4281	C428	0.600200	0.535900	0.790700
H2161	H216	0.602700	0.490900	0.821300
C4291	C429	0.261800	0.155900	0.102900
H2171	H217	0.304600	0.184200	0.037100
H2181	H218	0.491700	0.215300	0.204000
H2191	H219	0.375500	0.304700	0.794200
H2201	H220	0.628100	0.561200	0.792900
H2211	H221	0.242600	0.153300	0.084800
Zn141	Zn14	0.302950	0.697750	0.304950
O531	O53	0.252370	0.658030	0.335350
O541	O54	0.251170	0.592930	0.334040
O551	O55	0.273970	0.710830	0.265840
C4301	C430	0.237170	0.617330	0.343230
C4311	C431	0.273270	0.701730	0.233030
O561	O56	0.295070	0.685630	0.219020
C4321	C432	0.197670	0.600730	0.368330
C4331	C433	0.246570	0.711430	0.208930
C4341	C434	0.178870	0.556930	0.380330
C4351	C435	0.180170	0.626030	0.379430
C4361	C436	0.217970	0.725330	0.220730
C4371	C437	0.248470	0.707930	0.174530
H2221	H222	0.190870	0.539430	0.373230
C4381	C438	0.141770	0.539230	0.403530
C4391	C439	0.144670	0.607130	0.401930
H2231	H223	0.192070	0.655330	0.372030
H2241	H224	0.212870	0.725730	0.244830
C4401	C440	0.196770	0.738830	0.197130
C4411	C441	0.224870	0.719530	0.151230
H2251	H225	0.266170	0.697230	0.165330
H2261	H226	0.128970	0.509830	0.411030
C4421	C442	0.124970	0.564530	0.414530
H2271	H227	0.132970	0.624730	0.409330
H2281	H228	0.179970	0.750630	0.206130
C4431	C443	0.198770	0.736130	0.163030
H2291	H229	0.226970	0.716030	0.127130
C4441	C444	0.087470	0.544330	0.440730
C4451	C445	0.177670	0.753530	0.140130
C4461	C446	0.045170	0.531330	0.428030
C4471	C447	0.096570	0.540130	0.475130
C4481	C448	0.135270	0.727730	0.127630
C4491	C449	0.204870	0.797430	0.129230
N531	N53	0.006370	0.513530	0.448530
C4501	C450	0.033370	0.535830	0.391030
N541	N54	0.066770	0.522930	0.501130
C4511	C451	0.138970	0.553830	0.487630
C4521	C452	0.107370	0.678830	0.136530
N551	N55	0.111570	0.738630	0.105430
N561	N56	0.193170	0.823330	0.106830
C4531	C453	0.252370	0.830630	0.139330
C4541	C454	0.974170	0.508630	0.426830
C4551	C455	0.988670	0.520230	0.390030
H2301	H230	0.052970	0.547230	0.372130
C4561	C456	0.090370	0.525530	0.532330
H2311	H231	0.165170	0.567330	0.474630
C4571	C457	0.135170	0.544030	0.522430
C4581	C458	0.067470	0.665530	0.123630
H2321	H232	0.116670	0.661630	0.148630
C4591	C459	0.070070	0.702830	0.101230
C4601	C460	0.230870	0.863530	0.103730
C4611	C461	0.266870	0.869230	0.124030
H2331	H233	0.269370	0.824230	0.154630
C4621	C462	0.928470	0.489230	0.436230
H2341	H234	0.971270	0.517530	0.370430
H2351	H235	0.158370	0.548630	0.537330
H2361	H236	0.042170	0.638030	0.127530
H2371	H237	0.294770	0.894530	0.126230
H2381	H238	0.909270	0.486630	0.418130
Zn151	Zn15	0.969610	0.031090	0.638290
O571	O57	0.919030	0.991370	0.668690
O581	O58	0.917830	0.926270	0.667380
O591	O59	0.940630	0.044170	0.599180
C4631	C463	0.903830	0.950670	0.676570
C4641	C464	0.939930	0.035070	0.566370
O601	O60	0.961730	0.018970	0.552360
C4651	C465	0.864330	0.934070	0.701670
C4661	C466	0.913230	0.044770	0.542270
C4671	C467	0.845530	0.890270	0.713670
C4681	C468	0.846830	0.959370	0.712770
C4691	C469	0.884630	0.058670	0.554070
C4701	C470	0.915130	0.041270	0.507870
H2391	H239	0.857530	0.872770	0.706570
C4711	C471	0.808430	0.872570	0.736870
C4721	C472	0.811330	0.940470	0.735270
H2401	H240	0.858730	0.988670	0.705370
H2411	H241	0.879530	0.059070	0.578170
C4731	C473	0.863430	0.072170	0.530470
C4741	C474	0.891530	0.052870	0.484570
H2421	H242	0.932830	0.030570	0.498670
H2431	H243	0.795630	0.843170	0.744370
C4751	C475	0.791630	0.897870	0.747870
H2441	H244	0.799630	0.958070	0.742670
H2451	H245	0.846630	0.083970	0.539470
C4761	C476	0.865430	0.069470	0.496370
H2461	H246	0.893630	0.049370	0.460470
C4771	C477	0.754130	0.877670	0.774070
C4781	C478	0.844330	0.086870	0.473470
C4791	C479	0.711830	0.864670	0.761370
C4801	C480	0.763230	0.873470	0.808470
C4811	C481	0.801930	0.061070	0.460970
C4821	C482	0.871530	0.130770	0.462570
N571	N57	0.673030	0.846870	0.781870
C4831	C483	0.700030	0.869170	0.724370
N581	N58	0.733430	0.856270	0.834470
C4841	C484	0.805630	0.887170	0.820970
C4851	C485	0.774030	0.012170	0.469870
N591	N59	0.778230	0.071970	0.438770
N601	N60	0.859830	0.156670	0.440170
C4861	C486	0.919030	0.163970	0.472670
C4871	C487	0.640830	0.841970	0.760170
C4881	C488	0.655330	0.853570	0.723370
H2471	H247	0.719630	0.880570	0.705470
C4891	C489	0.757030	0.858870	0.865670
H2481	H248	0.831830	0.900670	0.807970
C4901	C490	0.801830	0.877370	0.855770
C4911	C491	0.734130	0.998870	0.456970
H2491	H249	0.783330	0.994970	0.481970
C4921	C492	0.736730	0.036170	0.434570
C4931	C493	0.897530	0.196870	0.437070
C4941	C494	0.933530	0.202570	0.457370
H2501	H250	0.936030	0.157570	0.487970
C4951	C495	0.595130	0.822570	0.769570
H2511	H251	0.637930	0.850870	0.703770
H2521	H252	0.825030	0.881970	0.870670
H2531	H253	0.708830	0.971370	0.460870
H2541	H254	0.961430	0.227870	0.459570
H2551	H255	0.575930	0.819970	0.751470
Zn161	Zn16	0.728140	0.363720	0.971620
O611	O61	0.739000	0.414300	0.002020
O621	O62	0.675100	0.415500	0.000710
O631	O63	0.770200	0.392700	0.932510
C4961	C496	0.713500	0.429500	0.009900
C4971	C497	0.761800	0.393400	0.899700
O641	O64	0.723900	0.371600	0.885690
C4981	C498	0.736400	0.469000	0.035000
C4991	C499	0.798200	0.420100	0.875600
C5001	C500	0.711400	0.487800	0.047000
C5011	C501	0.779200	0.486500	0.046100
C5021	C502	0.840700	0.448700	0.887400
C5031	C503	0.792800	0.418200	0.841200
H2561	H256	0.681900	0.475800	0.039900
C5041	C504	0.730800	0.524900	0.070200
C5051	C505	0.795800	0.522000	0.068600
H2571	H257	0.796600	0.474600	0.038700
H2581	H258	0.846200	0.453800	0.911500
C5061	C506	0.875400	0.469900	0.863800
C5071	C507	0.828000	0.441800	0.817900
H2591	H259	0.764400	0.400500	0.832000
H2601	H260	0.714200	0.537700	0.077700
C5081	C508	0.772900	0.541700	0.081200
H2611	H261	0.825100	0.533700	0.076000
H2621	H262	0.904000	0.486700	0.872800
C5091	C509	0.870700	0.467900	0.829700
H2631	H263	0.822400	0.439700	0.793800
C5101	C510	0.790200	0.579200	0.107400
C5111	C511	0.909200	0.489000	0.806800
C5121	C512	0.819500	0.621500	0.094700
C5131	C513	0.776900	0.570100	0.141800
C5141	C514	0.925800	0.531400	0.794300
C5151	C515	0.925900	0.461800	0.795900
N611	N61	0.840500	0.660300	0.115200
C5161	C516	0.835800	0.633300	0.057700
N621	N62	0.789500	0.599900	0.167800
C5171	C517	0.748200	0.527700	0.154300
C5181	C518	0.904800	0.559300	0.803200
N631	N63	0.960400	0.555100	0.772100
N641	N64	0.963500	0.473500	0.773500
C5191	C519	0.911600	0.414300	0.806000
C5201	C520	0.867800	0.692500	0.093500
C5211	C521	0.864900	0.678000	0.056700
H2641	H264	0.827600	0.613700	0.038800
C5221	C522	0.768500	0.576300	0.199000
H2651	H265	0.735500	0.501500	0.141300
C5231	C523	0.742200	0.531500	0.189100
C5241	C524	0.931400	0.599200	0.790300
H2661	H266	0.878300	0.550000	0.815300
C5251	C525	0.966100	0.596600	0.767900
C5261	C526	0.966000	0.435800	0.770400
C5271	C527	0.935700	0.399800	0.790700
H2671	H267	0.888200	0.397300	0.821300
C5281	C528	0.894100	0.738200	0.102900
H2681	H268	0.879600	0.695400	0.037100
H2691	H269	0.723600	0.508300	0.204000
H2701	H270	0.929200	0.624500	0.794200
H2711	H271	0.933100	0.371900	0.792900
H2721	H272	0.910700	0.757400	0.084800
Zn171	Zn17	0.394810	0.697050	0.304950
O651	O65	0.405670	0.747630	0.335350
O661	O66	0.341770	0.748830	0.334040
O671	O67	0.436870	0.726030	0.265840
C5291	C529	0.380170	0.762830	0.343230
C5301	C530	0.428470	0.726730	0.233030
O681	O68	0.390570	0.704930	0.219020
C5311	C531	0.403070	0.802330	0.368330
C5321	C532	0.464870	0.753430	0.208930
C5331	C533	0.378070	0.821130	0.380330
C5341	C534	0.445870	0.819830	0.379430
C5351	C535	0.507370	0.782030	0.220730
C5361	C536	0.459470	0.751530	0.174530
H2731	H273	0.348570	0.809130	0.373230
C5371	C537	0.397470	0.858230	0.403530
C5381	C538	0.462470	0.855330	0.401930
H2741	H274	0.463270	0.807930	0.372030
H2751	H275	0.512870	0.787130	0.244830
C5391	C539	0.542070	0.803230	0.197130
C5401	C540	0.494670	0.775130	0.151230
H2761	H276	0.431070	0.733830	0.165330
H2771	H277	0.380870	0.871030	0.411030
C5411	C541	0.439570	0.875030	0.414530
H2781	H278	0.491770	0.867030	0.409330
H2791	H279	0.570670	0.820030	0.206130
C5421	C542	0.537370	0.801230	0.163030
H2801	H280	0.489070	0.773030	0.127130
C5431	C543	0.456870	0.912530	0.440730
C5441	C544	0.575870	0.822330	0.140130
C5451	C545	0.486170	0.954830	0.428030
C5461	C546	0.443570	0.903430	0.475130
C5471	C547	0.592470	0.864730	0.127630
C5481	C548	0.592570	0.795130	0.129230
N651	N65	0.507170	0.993630	0.448530
C5491	C549	0.502470	0.966630	0.391030
N661	N66	0.456170	0.933230	0.501130
C5501	C550	0.414870	0.861030	0.487630
C5511	C551	0.571470	0.892630	0.136530
N671	N67	0.627070	0.888430	0.105430
N681	N68	0.630170	0.806830	0.106830
C5521	C552	0.578270	0.747630	0.139330
C5531	C553	0.534470	0.025830	0.426830
C5541	C554	0.531570	0.011330	0.390030
H2811	H281	0.494270	0.947030	0.372130
C5551	C555	0.435170	0.909630	0.532330
H2821	H282	0.402170	0.834830	0.474630
C5561	C556	0.408870	0.864830	0.522430
C5571	C557	0.598070	0.932530	0.123630
H2831	H283	0.544970	0.883330	0.148630
C5581	C558	0.632770	0.929930	0.101230
C5591	C559	0.632670	0.769130	0.103730
C5601	C560	0.602370	0.733130	0.124030
H2841	H284	0.554870	0.730630	0.154630
C5611	C561	0.560770	0.071530	0.436230
H2851	H285	0.546270	0.028730	0.370430
H2861	H286	0.390270	0.841630	0.537330
H2871	H287	0.595870	0.957830	0.127530
H2881	H288	0.599770	0.705230	0.126230
H2891	H289	0.577370	0.090730	0.418130
Zn181	Zn18	0.061470	0.030390	0.638290
O691	O69	0.072330	0.080970	0.668690
O701	O70	0.008430	0.082170	0.667380
O711	O71	0.103530	0.059370	0.599180
C5621	C562	0.046830	0.096170	0.676570
C5631	C563	0.095130	0.060070	0.566370
O721	O72	0.057230	0.038270	0.552360
C5641	C564	0.069730	0.135670	0.701670
C5651	C565	0.131530	0.086770	0.542270
C5661	C566	0.044730	0.154470	0.713670
C5671	C567	0.112530	0.153170	0.712770
C5681	C568	0.174030	0.115370	0.554070
C5691	C569	0.126130	0.084870	0.507870
H2901	H290	0.015230	0.142470	0.706570
C5701	C570	0.064130	0.191570	0.736870
C5711	C571	0.129130	0.188670	0.735270
H2911	H291	0.129930	0.141270	0.705370
H2921	H292	0.179530	0.120470	0.578170
C5721	C572	0.208730	0.136570	0.530470
C5731	C573	0.161330	0.108470	0.484570
H2931	H293	0.097730	0.067170	0.498670
H2941	H294	0.047530	0.204370	0.744370
C5741	C574	0.106230	0.208370	0.747870
H2951	H295	0.158430	0.200370	0.742670
H2961	H296	0.237330	0.153370	0.539470
C5751	C575	0.204030	0.134570	0.496370
H2971	H297	0.155730	0.106370	0.460470
C5761	C576	0.123530	0.245870	0.774070
C5771	C577	0.242530	0.155670	0.473470
C5781	C578	0.152830	0.288170	0.761370
C5791	C579	0.110230	0.236770	0.808470
C5801	C580	0.259130	0.198070	0.460970
C5811	C581	0.259230	0.128470	0.462570
N691	N69	0.173830	0.326970	0.781870
C5821	C582	0.169130	0.299970	0.724370
N701	N70	0.122830	0.266570	0.834470
C5831	C583	0.081530	0.194370	0.820970
C5841	C584	0.238130	0.225970	0.469870
N711	N71	0.293730	0.221770	0.438770
N721	N72	0.296830	0.140170	0.440170
C5851	C585	0.244930	0.080970	0.472670
C5861	C586	0.201130	0.359170	0.760170
C5871	C587	0.198230	0.344670	0.723370
H2981	H298	0.160930	0.280370	0.705470
C5881	C588	0.101830	0.242970	0.865670
H2991	H299	0.068830	0.168170	0.807970
C5891	C589	0.075530	0.198170	0.855770
C5901	C590	0.264730	0.265870	0.456970
H3001	H300	0.211630	0.216670	0.481970
C5911	C591	0.299430	0.263270	0.434570
C5921	C592	0.299330	0.102470	0.437070
C5931	C593	0.269030	0.066470	0.457370
H3011	H301	0.221530	0.063970	0.487970
C5941	C594	0.227430	0.404870	0.769570
H3021	H302	0.212930	0.362070	0.703770
H3031	H303	0.056930	0.174970	0.870670
H3041	H304	0.262530	0.291170	0.460870
H3051	H305	0.266430	0.038570	0.459570
H3061	H306	0.244030	0.424070	0.751470
Zn191	Zn19	0.728140	0.364420	0.471620
O731	O73	0.739000	0.324700	0.502020
O741	O74	0.675100	0.259600	0.500710
O751	O75	0.770200	0.377500	0.432510
C5951	C595	0.713500	0.284000	0.509900
C5961	C596	0.761800	0.368400	0.399700
O761	O76	0.723900	0.352300	0.385690
C5971	C597	0.736400	0.267400	0.535000
C5981	C598	0.798200	0.378100	0.375600
C5991	C599	0.711400	0.223600	0.547000
C6001	C600	0.779200	0.292700	0.546100
C6011	C601	0.840700	0.392000	0.387400
C6021	C602	0.792800	0.374600	0.341200
H3071	H307	0.681900	0.206100	0.539900
C6031	C603	0.730800	0.205900	0.570200
C6041	C604	0.795800	0.273800	0.568600
H3081	H308	0.796600	0.322000	0.538700
H3091	H309	0.846200	0.392400	0.411500
C6051	C605	0.875400	0.405500	0.363800
C6061	C606	0.828000	0.386200	0.317900
H3101	H310	0.764400	0.363900	0.332000
H3111	H311	0.714200	0.176500	0.577700
C6071	C607	0.772900	0.231200	0.581200
H3121	H312	0.825100	0.291400	0.576000
H3131	H313	0.904000	0.417300	0.372800
C6081	C608	0.870700	0.402800	0.329700
H3141	H314	0.822400	0.382700	0.293800
C6091	C609	0.790200	0.211000	0.607400
C6101	C610	0.909200	0.420200	0.306800
C6111	C611	0.819500	0.198000	0.594700
C6121	C612	0.776900	0.206800	0.641800
C6131	C613	0.925800	0.394400	0.294300
C6141	C614	0.925900	0.464100	0.295900
N731	N73	0.840500	0.180200	0.615200
C6151	C615	0.835800	0.202500	0.557700
N741	N74	0.789500	0.189600	0.667800
C6161	C616	0.748200	0.220500	0.654300
C6171	C617	0.904800	0.345500	0.303200
N751	N75	0.960400	0.405300	0.272100
N761	N76	0.963500	0.490000	0.273500
C6181	C618	0.911600	0.497300	0.306000
C6191	C619	0.867800	0.175300	0.593500
C6201	C620	0.864900	0.186900	0.556700
H3151	H315	0.827600	0.213900	0.538800
C6211	C621	0.768500	0.192200	0.699000
H3161	H316	0.735500	0.234000	0.641300
C6221	C622	0.742200	0.210700	0.689100
C6231	C623	0.931400	0.332200	0.290300
H3171	H317	0.878300	0.328300	0.315300
C6241	C624	0.966100	0.369500	0.267900
C6251	C625	0.966000	0.530200	0.270400
C6261	C626	0.935700	0.535900	0.290700
H3181	H318	0.888200	0.490900	0.321300
C6271	C627	0.894100	0.155900	0.602900
H3191	H319	0.879600	0.184200	0.537100
H3201	H320	0.723600	0.215300	0.704000
H3211	H321	0.929200	0.304700	0.294200
H3221	H322	0.933100	0.561200	0.292900
H3231	H323	0.910700	0.153300	0.584800
Zn201	Zn20	0.394810	0.697750	0.804950
O771	O77	0.405670	0.658030	0.835350
O781	O78	0.341770	0.592930	0.834040
O791	O79	0.436870	0.710830	0.765840
C6281	C628	0.380170	0.617330	0.843230
C6291	C629	0.428470	0.701730	0.733030
O801	O80	0.390570	0.685630	0.719020
C6301	C630	0.403070	0.600730	0.868330
C6311	C631	0.464870	0.711430	0.708930
C6321	C632	0.378070	0.556930	0.880330
C6331	C633	0.445870	0.626030	0.879430
C6341	C634	0.507370	0.725330	0.720730
C6351	C635	0.459470	0.707930	0.674530
H3241	H324	0.348570	0.539430	0.873230
C6361	C636	0.397470	0.539230	0.903530
C6371	C637	0.462470	0.607130	0.901930
H3251	H325	0.463270	0.655330	0.872030
H3261	H326	0.512870	0.725730	0.744830
C6381	C638	0.542070	0.738830	0.697130
C6391	C639	0.494670	0.719530	0.651230
H3271	H327	0.431070	0.697230	0.665330
H3281	H328	0.380870	0.509830	0.911030
C6401	C640	0.439570	0.564530	0.914530
H3291	H329	0.491770	0.624730	0.909330
H3301	H330	0.570670	0.750630	0.706130
C6411	C641	0.537370	0.736130	0.663030
H3311	H331	0.489070	0.716030	0.627130
C6421	C642	0.456870	0.544330	0.940730
C6431	C643	0.575870	0.753530	0.640130
C6441	C644	0.486170	0.531330	0.928030
C6451	C645	0.443570	0.540130	0.975130
C6461	C646	0.592470	0.727730	0.627630
C6471	C647	0.592570	0.797430	0.629230
N771	N77	0.507170	0.513530	0.948530
C6481	C648	0.502470	0.535830	0.891030
N781	N78	0.456170	0.522930	0.001130
C6491	C649	0.414870	0.553830	0.987630
C6501	C650	0.571470	0.678830	0.636530
N791	N79	0.627070	0.738630	0.605430
N801	N80	0.630170	0.823330	0.606830
C6511	C651	0.578270	0.830630	0.639330
C6521	C652	0.534470	0.508630	0.926830
C6531	C653	0.531570	0.520230	0.890030
H3321	H332	0.494270	0.547230	0.872130
C6541	C654	0.435170	0.525530	0.032330
H3331	H333	0.402170	0.567330	0.974630
C6551	C655	0.408870	0.544030	0.022430
C6561	C656	0.598070	0.665530	0.623630
H3341	H334	0.544970	0.661630	0.648630
C6571	C657	0.632770	0.702830	0.601230
C6581	C658	0.632670	0.863530	0.603730
C6591	C659	0.602370	0.869230	0.624030
H3351	H335	0.554870	0.824230	0.654630
C6601	C660	0.560770	0.489230	0.936230
H3361	H336	0.546270	0.517530	0.870430
H3371	H337	0.390270	0.548630	0.037330
H3381	H338	0.595870	0.638030	0.627530
H3391	H339	0.599770	0.894530	0.626230
H3401	H340	0.577370	0.486630	0.918130
Zn211	Zn21	0.061470	0.031090	0.138290
O811	O81	0.072330	0.991370	0.168690
O821	O82	0.008430	0.926270	0.167380
O831	O83	0.103530	0.044170	0.099180
C6611	C661	0.046830	0.950670	0.176570
C6621	C662	0.095130	0.035070	0.066370
O841	O84	0.057230	0.018970	0.052360
C6631	C663	0.069730	0.934070	0.201670
C6641	C664	0.131530	0.044770	0.042270
C6651	C665	0.044730	0.890270	0.213670
C6661	C666	0.112530	0.959370	0.212770
C6671	C667	0.174030	0.058670	0.054070
C6681	C668	0.126130	0.041270	0.007870
H3411	H341	0.015230	0.872770	0.206570
C6691	C669	0.064130	0.872570	0.236870
C6701	C670	0.129130	0.940470	0.235270
H3421	H342	0.129930	0.988670	0.205370
H3431	H343	0.179530	0.059070	0.078170
C6711	C671	0.208730	0.072170	0.030470
C6721	C672	0.161330	0.052870	0.984570
H3441	H344	0.097730	0.030570	0.998670
H3451	H345	0.047530	0.843170	0.244370
C6731	C673	0.106230	0.897870	0.247870
H3461	H346	0.158430	0.958070	0.242670
H3471	H347	0.237330	0.083970	0.039470
C6741	C674	0.204030	0.069470	0.996370
H3481	H348	0.155730	0.049370	0.960470
C6751	C675	0.123530	0.877670	0.274070
C6761	C676	0.242530	0.086870	0.973470
C6771	C677	0.152830	0.864670	0.261370
C6781	C678	0.110230	0.873470	0.308470
C6791	C679	0.259130	0.061070	0.960970
C6801	C680	0.259230	0.130770	0.962570
N811	N81	0.173830	0.846870	0.281870
C6811	C681	0.169130	0.869170	0.224370
N821	N82	0.122830	0.856270	0.334470
C6821	C682	0.081530	0.887170	0.320970
C6831	C683	0.238130	0.012170	0.969870
N831	N83	0.293730	0.071970	0.938770
N841	N84	0.296830	0.156670	0.940170
C6841	C684	0.244930	0.163970	0.972670
C6851	C685	0.201130	0.841970	0.260170
C6861	C686	0.198230	0.853570	0.223370
H3491	H349	0.160930	0.880570	0.205470
C6871	C687	0.101830	0.858870	0.365670
H3501	H350	0.068830	0.900670	0.307970
C6881	C688	0.075530	0.877370	0.355770
C6891	C689	0.264730	0.998870	0.956970
H3511	H351	0.211630	0.994970	0.981970
C6901	C690	0.299430	0.036170	0.934570
C6911	C691	0.299330	0.196870	0.937070
C6921	C692	0.269030	0.202570	0.957370
H3521	H352	0.221530	0.157570	0.987970
C6931	C693	0.227430	0.822570	0.269570
H3531	H353	0.212930	0.850870	0.203770
H3541	H354	0.056930	0.881970	0.370670
H3551	H355	0.262530	0.971370	0.960870
H3561	H356	0.266430	0.227870	0.959570
H3571	H357	0.244030	0.819970	0.251470
Zn221	Zn22	0.635580	0.363720	0.471620
O851	O85	0.675300	0.414300	0.502020
O861	O86	0.740400	0.415500	0.500710
O871	O87	0.622500	0.392700	0.432510
C6941	C694	0.716000	0.429500	0.509900
C6951	C695	0.631600	0.393400	0.399700
O881	O88	0.647700	0.371600	0.385690
C6961	C696	0.732600	0.469000	0.535000
C6971	C697	0.621900	0.420100	0.375600
C6981	C698	0.776400	0.487800	0.547000
C6991	C699	0.707300	0.486500	0.546100
C7001	C700	0.608000	0.448700	0.387400
C7011	C701	0.625400	0.418200	0.341200
H3581	H358	0.793900	0.475800	0.539900
C7021	C702	0.794100	0.524900	0.570200
C7031	C703	0.726200	0.522000	0.568600
H3591	H359	0.678000	0.474600	0.538700
H3601	H360	0.607600	0.453800	0.411500
C7041	C704	0.594500	0.469900	0.363800
C7051	C705	0.613800	0.441800	0.317900
H3611	H361	0.636100	0.400500	0.332000
H3621	H362	0.823500	0.537700	0.577700
C7061	C706	0.768800	0.541700	0.581200
H3631	H363	0.708600	0.533700	0.576000
H3641	H364	0.582700	0.486700	0.372800
C7071	C707	0.597200	0.467900	0.329700
H3651	H365	0.617300	0.439700	0.293800
C7081	C708	0.789000	0.579200	0.607400
C7091	C709	0.579800	0.489000	0.306800
C7101	C710	0.802000	0.621500	0.594700
C7111	C711	0.793200	0.570100	0.641800
C7121	C712	0.605600	0.531400	0.294300
C7131	C713	0.535900	0.461800	0.295900
N851	N85	0.819800	0.660300	0.615200
C7141	C714	0.797500	0.633300	0.557700
N861	N86	0.810400	0.599900	0.667800
C7151	C715	0.779500	0.527700	0.654300
C7161	C716	0.654500	0.559300	0.303200
N871	N87	0.594700	0.555100	0.272100
N881	N88	0.510000	0.473500	0.273500
C7171	C717	0.502700	0.414300	0.306000
C7181	C718	0.824700	0.692500	0.593500
C7191	C719	0.813100	0.678000	0.556700
H3661	H366	0.786100	0.613700	0.538800
C7201	C720	0.807800	0.576300	0.699000
H3671	H367	0.766000	0.501500	0.641300
C7211	C721	0.789300	0.531500	0.689100
C7221	C722	0.667800	0.599200	0.290300
H3681	H368	0.671700	0.550000	0.315300
C7231	C723	0.630500	0.596600	0.267900
C7241	C724	0.469800	0.435800	0.270400
C7251	C725	0.464100	0.399800	0.290700
H3691	H369	0.509100	0.397300	0.321300
C7261	C726	0.844100	0.738200	0.602900
H3701	H370	0.815800	0.695400	0.537100
H3711	H371	0.784700	0.508300	0.704000
H3721	H372	0.695300	0.624500	0.294200
H3731	H373	0.438800	0.371900	0.292900
H3741	H374	0.846700	0.757400	0.584800
Zn231	Zn23	0.302250	0.697050	0.804950
O891	O89	0.341970	0.747630	0.835350
O901	O90	0.407070	0.748830	0.834040
O911	O91	0.289170	0.726030	0.765840
C7271	C727	0.382670	0.762830	0.843230
C7281	C728	0.298270	0.726730	0.733030
O921	O92	0.314370	0.704930	0.719020
C7291	C729	0.399270	0.802330	0.868330
C7301	C730	0.288570	0.753430	0.708930
C7311	C731	0.443070	0.821130	0.880330
C7321	C732	0.373970	0.819830	0.879430
C7331	C733	0.274670	0.782030	0.720730
C7341	C734	0.292070	0.751530	0.674530
H3751	H375	0.460570	0.809130	0.873230
C7351	C735	0.460770	0.858230	0.903530
C7361	C736	0.392870	0.855330	0.901930
H3761	H376	0.344670	0.807930	0.872030
H3771	H377	0.274270	0.787130	0.744830
C7371	C737	0.261170	0.803230	0.697130
C7381	C738	0.280470	0.775130	0.651230
H3781	H378	0.302770	0.733830	0.665330
H3791	H379	0.490170	0.871030	0.911030
C7391	C739	0.435470	0.875030	0.914530
H3801	H380	0.375270	0.867030	0.909330
H3811	H381	0.249370	0.820030	0.706130
C7401	C740	0.263870	0.801230	0.663030
H3821	H382	0.283970	0.773030	0.627130
C7411	C741	0.455670	0.912530	0.940730
C7421	C742	0.246470	0.822330	0.640130
C7431	C743	0.468670	0.954830	0.928030
C7441	C744	0.459870	0.903430	0.975130
C7451	C745	0.272270	0.864730	0.627630
C7461	C746	0.202570	0.795130	0.629230
N891	N89	0.486470	0.993630	0.948530
C7471	C747	0.464170	0.966630	0.891030
N901	N90	0.477070	0.933230	0.001130
C7481	C748	0.446170	0.861030	0.987630
C7491	C749	0.321170	0.892630	0.636530
N911	N91	0.261370	0.888430	0.605430
N921	N92	0.176670	0.806830	0.606830
C7501	C750	0.169370	0.747630	0.639330
C7511	C751	0.491370	0.025830	0.926830
C7521	C752	0.479770	0.011330	0.890030
H3831	H383	0.452770	0.947030	0.872130
C7531	C753	0.474470	0.909630	0.032330
H3841	H384	0.432670	0.834830	0.974630
C7541	C754	0.455970	0.864830	0.022430
C7551	C755	0.334470	0.932530	0.623630
H3851	H385	0.338370	0.883330	0.648630
C7561	C756	0.297170	0.929930	0.601230
C7571	C757	0.136470	0.769130	0.603730
C7581	C758	0.130770	0.733130	0.624030
H3861	H386	0.175770	0.730630	0.654630
C7591	C759	0.510770	0.071530	0.936230
H3871	H387	0.482470	0.028730	0.870430
H3881	H388	0.451370	0.841630	0.037330
H3891	H389	0.361970	0.957830	0.627530
H3901	H390	0.105470	0.705230	0.626230
H3911	H391	0.513370	0.090730	0.918130
Zn241	Zn24	0.968910	0.030390	0.138290
O931	O93	0.008630	0.080970	0.168690
O941	O94	0.073730	0.082170	0.167380
O951	O95	0.955830	0.059370	0.099180
C7601	C760	0.049330	0.096170	0.176570
C7611	C761	0.964930	0.060070	0.066370
O961	O96	0.981030	0.038270	0.052360
C7621	C762	0.065930	0.135670	0.201670
C7631	C763	0.955230	0.086770	0.042270
C7641	C764	0.109730	0.154470	0.213670
C7651	C765	0.040630	0.153170	0.212770
C7661	C766	0.941330	0.115370	0.054070
C7671	C767	0.958730	0.084870	0.007870
H3921	H392	0.127230	0.142470	0.206570
C7681	C768	0.127430	0.191570	0.236870
C7691	C769	0.059530	0.188670	0.235270
H3931	H393	0.011330	0.141270	0.205370
H3941	H394	0.940930	0.120470	0.078170
C7701	C770	0.927830	0.136570	0.030470
C7711	C771	0.947130	0.108470	0.984570
H3951	H395	0.969430	0.067170	0.998670
H3961	H396	0.156830	0.204370	0.244370
C7721	C772	0.102130	0.208370	0.247870
H3971	H397	0.041930	0.200370	0.242670
H3981	H398	0.916030	0.153370	0.039470
C7731	C773	0.930530	0.134570	0.996370
H3991	H399	0.950630	0.106370	0.960470
C7741	C774	0.122330	0.245870	0.274070
C7751	C775	0.913130	0.155670	0.973470
C7761	C776	0.135330	0.288170	0.261370
C7771	C777	0.126530	0.236770	0.308470
C7781	C778	0.938930	0.198070	0.960970
C7791	C779	0.869230	0.128470	0.962570
N931	N93	0.153130	0.326970	0.281870
C7801	C780	0.130830	0.299970	0.224370
N941	N94	0.143730	0.266570	0.334470
C7811	C781	0.112830	0.194370	0.320970
C7821	C782	0.987830	0.225970	0.969870
N951	N95	0.928030	0.221770	0.938770
N961	N96	0.843330	0.140170	0.940170
C7831	C783	0.836030	0.080970	0.972670
C7841	C784	0.158030	0.359170	0.260170
C7851	C785	0.146430	0.344670	0.223370
H4001	H400	0.119430	0.280370	0.205470
C7861	C786	0.141130	0.242970	0.365670
H4011	H401	0.099330	0.168170	0.307970
C7871	C787	0.122630	0.198170	0.355770
C7881	C788	0.001130	0.265870	0.956970
H4021	H402	0.005030	0.216670	0.981970
C7891	C789	0.963830	0.263270	0.934570
C7901	C790	0.803130	0.102470	0.937070
C7911	C791	0.797430	0.066470	0.957370
H4031	H403	0.842430	0.063970	0.987970
C7921	C792	0.177430	0.404870	0.269570
H4041	H404	0.149130	0.362070	0.203770
H4051	H405	0.118030	0.174970	0.370670
H4061	H406	0.028630	0.291170	0.960870
H4071	H407	0.772130	0.038570	0.959570
H4081	H408	0.180030	0.424070	0.251470
Zn251	Zn25	0.636280	0.271860	0.471620
O971	O97	0.585700	0.261000	0.502020
O981	O98	0.584500	0.324900	0.500710
O991	O99	0.607300	0.229800	0.432510
C7931	C793	0.570500	0.286500	0.509900
C7941	C794	0.606600	0.238200	0.399700
O1001	O100	0.628400	0.276100	0.385690
C7951	C795	0.531000	0.263600	0.535000
C7961	C796	0.579900	0.201800	0.375600
C7971	C797	0.512200	0.288600	0.547000
C7981	C798	0.513500	0.220800	0.546100
C7991	C799	0.551300	0.159300	0.387400
C8001	C800	0.581800	0.207200	0.341200
H4091	H409	0.524200	0.318100	0.539900
C8011	C801	0.475100	0.269200	0.570200
C8021	C802	0.478000	0.204200	0.568600
H4101	H410	0.525400	0.203400	0.538700
H4111	H411	0.546200	0.153800	0.411500
C8031	C803	0.530100	0.124600	0.363800
C8041	C804	0.558200	0.172000	0.317900
H4121	H412	0.599500	0.235600	0.332000
H4131	H413	0.462300	0.285800	0.577700
C8051	C805	0.458300	0.227100	0.581200
H4141	H414	0.466300	0.174900	0.576000
H4151	H415	0.513300	0.096000	0.372800
C8061	C806	0.532100	0.129300	0.329700
H4161	H416	0.560300	0.177600	0.293800
C8071	C807	0.420800	0.209800	0.607400
C8081	C808	0.511000	0.090800	0.306800
C8091	C809	0.378500	0.180500	0.594700
C8101	C810	0.429900	0.223100	0.641800
C8111	C811	0.468600	0.074200	0.294300
C8121	C812	0.538200	0.074100	0.295900
N971	N97	0.339700	0.159500	0.615200
C8131	C813	0.366700	0.164200	0.557700
N981	N98	0.400100	0.210500	0.667800
C8141	C814	0.472300	0.251800	0.654300
C8151	C815	0.440700	0.095200	0.303200
N991	N99	0.444900	0.039600	0.272100
N1001	N100	0.526500	0.036500	0.273500
C8161	C816	0.585700	0.088400	0.306000
C8171	C817	0.307500	0.132200	0.593500
C8181	C818	0.322000	0.135100	0.556700
H4171	H417	0.386300	0.172400	0.538800
C8191	C819	0.423700	0.231500	0.699000
H4181	H418	0.498500	0.264500	0.641300
C8201	C820	0.468500	0.257800	0.689100
C8211	C821	0.400800	0.068600	0.290300
H4191	H419	0.450000	0.121700	0.315300
C8221	C822	0.403400	0.033900	0.267900
C8231	C823	0.564200	0.034000	0.270400
C8241	C824	0.600200	0.064300	0.290700
H4201	H420	0.602700	0.111800	0.321300
C8251	C825	0.261800	0.105900	0.602900
H4211	H421	0.304600	0.120400	0.537100
H4221	H422	0.491700	0.276400	0.704000
H4231	H423	0.375500	0.070800	0.294200
H4241	H424	0.628100	0.066900	0.292900
H4251	H425	0.242600	0.089300	0.584800
Zn261	Zn26	0.302950	0.605190	0.804950
O1011	O101	0.252370	0.594330	0.835350
O1021	O102	0.251170	0.658230	0.834040
O1031	O103	0.273970	0.563130	0.765840
C8261	C826	0.237170	0.619830	0.843230
C8271	C827	0.273270	0.571530	0.733030
O1041	O104	0.295070	0.609430	0.719020
C8281	C828	0.197670	0.596930	0.868330
C8291	C829	0.246570	0.535130	0.708930
C8301	C830	0.178870	0.621930	0.880330
C8311	C831	0.180170	0.554130	0.879430
C8321	C832	0.217970	0.492630	0.720730
C8331	C833	0.248470	0.540530	0.674530
H4261	H426	0.190870	0.651430	0.873230
C8341	C834	0.141770	0.602530	0.903530
C8351	C835	0.144670	0.537530	0.901930
H4271	H427	0.192070	0.536730	0.872030
H4281	H428	0.212870	0.487130	0.744830
C8361	C836	0.196770	0.457930	0.697130
C8371	C837	0.224870	0.505330	0.651230
H4291	H429	0.266170	0.568930	0.665330
H4301	H430	0.128970	0.619130	0.911030
C8381	C838	0.124970	0.560430	0.914530
H4311	H431	0.132970	0.508230	0.909330
H4321	H432	0.179970	0.429330	0.706130
C8391	C839	0.198770	0.462630	0.663030
H4331	H433	0.226970	0.510930	0.627130
C8401	C840	0.087470	0.543130	0.940730
C8411	C841	0.177670	0.424130	0.640130
C8421	C842	0.045170	0.513830	0.928030
C8431	C843	0.096570	0.556430	0.975130
C8441	C844	0.135270	0.407530	0.627630
C8451	C845	0.204870	0.407430	0.629230
N1011	N101	0.006370	0.492830	0.948530
C8461	C846	0.033370	0.497530	0.891030
N1021	N102	0.066770	0.543830	0.001130
C8471	C847	0.138970	0.585130	0.987630
C8481	C848	0.107370	0.428530	0.636530
N1031	N103	0.111570	0.372930	0.605430
N1041	N104	0.193170	0.369830	0.606830
C8491	C849	0.252370	0.421730	0.639330
C8501	C850	0.974170	0.465530	0.926830
C8511	C851	0.988670	0.468430	0.890030
H4341	H434	0.052970	0.505730	0.872130
C8521	C852	0.090370	0.564830	0.032330
H4351	H435	0.165170	0.597830	0.974630
C8531	C853	0.135170	0.591130	0.022430
C8541	C854	0.067470	0.401930	0.623630
H4361	H436	0.116670	0.455030	0.648630
C8551	C855	0.070070	0.367230	0.601230
C8561	C856	0.230870	0.367330	0.603730
C8571	C857	0.266870	0.397630	0.624030
H4371	H437	0.269370	0.445130	0.654630
C8581	C858	0.928470	0.439230	0.936230
H4381	H438	0.971270	0.453730	0.870430
H4391	H439	0.158370	0.609730	0.037330
H4401	H440	0.042170	0.404130	0.627530
H4411	H441	0.294770	0.400230	0.626230
H4421	H442	0.909270	0.422630	0.918130
Zn271	Zn27	0.969610	0.938530	0.138290
O1051	O105	0.919030	0.927670	0.168690
O1061	O106	0.917830	0.991570	0.167380
O1071	O107	0.940630	0.896470	0.099180
C8591	C859	0.903830	0.953170	0.176570
C8601	C860	0.939930	0.904870	0.066370
O1081	O108	0.961730	0.942770	0.052360
C8611	C861	0.864330	0.930270	0.201670
C8621	C862	0.913230	0.868470	0.042270
C8631	C863	0.845530	0.955270	0.213670
C8641	C864	0.846830	0.887470	0.212770
C8651	C865	0.884630	0.825970	0.054070
C8661	C866	0.915130	0.873870	0.007870
H4431	H443	0.857530	0.984770	0.206570
C8671	C867	0.808430	0.935870	0.236870
C8681	C868	0.811330	0.870870	0.235270
H4441	H444	0.858730	0.870070	0.205370
H4451	H445	0.879530	0.820470	0.078170
C8691	C869	0.863430	0.791270	0.030470
C8701	C870	0.891530	0.838670	0.984570
H4461	H446	0.932830	0.902270	0.998670
H4471	H447	0.795630	0.952470	0.244370
C8711	C871	0.791630	0.893770	0.247870
H4481	H448	0.799630	0.841570	0.242670
H4491	H449	0.846630	0.762670	0.039470
C8721	C872	0.865430	0.795970	0.996370
H4501	H450	0.893630	0.844270	0.960470
C8731	C873	0.754130	0.876470	0.274070
C8741	C874	0.844330	0.757470	0.973470
C8751	C875	0.711830	0.847170	0.261370
C8761	C876	0.763230	0.889770	0.308470
C8771	C877	0.801930	0.740870	0.960970
C8781	C878	0.871530	0.740770	0.962570
N1051	N105	0.673030	0.826170	0.281870
C8791	C879	0.700030	0.830870	0.224370
N1061	N106	0.733430	0.877170	0.334470
C8801	C880	0.805630	0.918470	0.320970
C8811	C881	0.774030	0.761870	0.969870
N1071	N107	0.778230	0.706270	0.938770
N1081	N108	0.859830	0.703170	0.940170
C8821	C882	0.919030	0.755070	0.972670
C8831	C883	0.640830	0.798870	0.260170
C8841	C884	0.655330	0.801770	0.223370
H4511	H451	0.719630	0.839070	0.205470
C8851	C885	0.757030	0.898170	0.365670
H4521	H452	0.831830	0.931170	0.307970
C8861	C886	0.801830	0.924470	0.355770
C8871	C887	0.734130	0.735270	0.956970
H4531	H453	0.783330	0.788370	0.981970
C8881	C888	0.736730	0.700570	0.934570
C8891	C889	0.897530	0.700670	0.937070
C8901	C890	0.933530	0.730970	0.957370
H4541	H454	0.936030	0.778470	0.987970
C8911	C891	0.595130	0.772570	0.269570
H4551	H455	0.637930	0.787070	0.203770
H4561	H456	0.825030	0.943070	0.370670
H4571	H457	0.708830	0.737470	0.960870
H4581	H458	0.961430	0.733570	0.959570
H4591	H459	0.575930	0.755970	0.251470
Zn281	Zn28	0.364420	0.728140	0.028380
O1091	O109	0.324700	0.739000	0.997980
O1101	O110	0.259600	0.675100	0.999290
O1111	O111	0.377500	0.770200	0.067490
C8921	C892	0.284000	0.713500	0.990100
C8931	C893	0.368400	0.761800	0.100300
O1121	O112	0.352300	0.723900	0.114310
C8941	C894	0.267400	0.736400	0.965000
C8951	C895	0.378100	0.798200	0.124400
C8961	C896	0.223600	0.711400	0.953000
C8971	C897	0.292700	0.779200	0.953900
C8981	C898	0.392000	0.840700	0.112600
C8991	C899	0.374600	0.792800	0.158800
H4601	H460	0.206100	0.681900	0.960100
C9001	C900	0.205900	0.730800	0.929800
C9011	C901	0.273800	0.795800	0.931400
H4611	H461	0.322000	0.796600	0.961300
H4621	H462	0.392400	0.846200	0.088500
C9021	C902	0.405500	0.875400	0.136200
C9031	C903	0.386200	0.828000	0.182100
H4631	H463	0.363900	0.764400	0.168000
H4641	H464	0.176500	0.714200	0.922300
C9041	C904	0.231200	0.772900	0.918800
H4651	H465	0.291400	0.825100	0.924000
H4661	H466	0.417300	0.904000	0.127200
C9051	C905	0.402800	0.870700	0.170300
H4671	H467	0.382700	0.822400	0.206200
C9061	C906	0.211000	0.790200	0.892600
C9071	C907	0.420200	0.909200	0.193200
C9081	C908	0.198000	0.819500	0.905300
C9091	C909	0.206800	0.776900	0.858200
C9101	C910	0.394400	0.925800	0.205700
C9111	C911	0.464100	0.925900	0.204100
N1091	N109	0.180200	0.840500	0.884800
C9121	C912	0.202500	0.835800	0.942300
N1101	N110	0.189600	0.789500	0.832200
C9131	C913	0.220500	0.748200	0.845700
C9141	C914	0.345500	0.904800	0.196800
N1111	N111	0.405300	0.960400	0.227900
N1121	N112	0.490000	0.963500	0.226500
C9151	C915	0.497300	0.911600	0.194000
C9161	C916	0.175300	0.867800	0.906500
C9171	C917	0.186900	0.864900	0.943300
H4681	H468	0.213900	0.827600	0.961200
C9181	C918	0.192200	0.768500	0.801000
H4691	H469	0.234000	0.735500	0.858700
C9191	C919	0.210700	0.742200	0.810900
C9201	C920	0.332200	0.931400	0.209700
H4701	H470	0.328300	0.878300	0.184700
C9211	C921	0.369500	0.966100	0.232100
C9221	C922	0.530200	0.966000	0.229600
C9231	C923	0.535900	0.935700	0.209300
H4711	H471	0.490900	0.888200	0.178700
C9241	C924	0.155900	0.894100	0.897100
H4721	H472	0.184200	0.879600	0.962900
H4731	H473	0.215300	0.723600	0.796000
H4741	H474	0.304700	0.929200	0.205800
H4751	H475	0.561200	0.933100	0.207100
H4761	H476	0.153300	0.910700	0.915200
Zn291	Zn29	0.031090	0.061470	0.361710
O1131	O113	0.991370	0.072330	0.331310
O1141	O114	0.926270	0.008430	0.332620
O1151	O115	0.044170	0.103530	0.400820
C9251	C925	0.950670	0.046830	0.323430
C9261	C926	0.035070	0.095130	0.433630
O1161	O116	0.018970	0.057230	0.447640
C9271	C927	0.934070	0.069730	0.298330
C9281	C928	0.044770	0.131530	0.457730
C9291	C929	0.890270	0.044730	0.286330
C9301	C930	0.959370	0.112530	0.287230
C9311	C931	0.058670	0.174030	0.445930
C9321	C932	0.041270	0.126130	0.492130
H4771	H477	0.872770	0.015230	0.293430
C9331	C933	0.872570	0.064130	0.263130
C9341	C934	0.940470	0.129130	0.264730
H4781	H478	0.988670	0.129930	0.294630
H4791	H479	0.059070	0.179530	0.421830
C9351	C935	0.072170	0.208730	0.469530
C9361	C936	0.052870	0.161330	0.515430
H4801	H480	0.030570	0.097730	0.501330
H4811	H481	0.843170	0.047530	0.255630
C9371	C937	0.897870	0.106230	0.252130
H4821	H482	0.958070	0.158430	0.257330
H4831	H483	0.083970	0.237330	0.460530
C9381	C938	0.069470	0.204030	0.503630
H4841	H484	0.049370	0.155730	0.539530
C9391	C939	0.877670	0.123530	0.225930
C9401	C940	0.086870	0.242530	0.526530
C9411	C941	0.864670	0.152830	0.238630
C9421	C942	0.873470	0.110230	0.191530
C9431	C943	0.061070	0.259130	0.539030
C9441	C944	0.130770	0.259230	0.537430
N1131	N113	0.846870	0.173830	0.218130
C9451	C945	0.869170	0.169130	0.275630
N1141	N114	0.856270	0.122830	0.165530
C9461	C946	0.887170	0.081530	0.179030
C9471	C947	0.012170	0.238130	0.530130
N1151	N115	0.071970	0.293730	0.561230
N1161	N116	0.156670	0.296830	0.559830
C9481	C948	0.163970	0.244930	0.527330
C9491	C949	0.841970	0.201130	0.239830
C9501	C950	0.853570	0.198230	0.276630
H4851	H485	0.880570	0.160930	0.294530
C9511	C951	0.858870	0.101830	0.134330
H4861	H486	0.900670	0.068830	0.192030
C9521	C952	0.877370	0.075530	0.144230
C9531	C953	0.998870	0.264730	0.543030
H4871	H487	0.994970	0.211630	0.518030
C9541	C954	0.036170	0.299430	0.565430
C9551	C955	0.196870	0.299330	0.562930
C9561	C956	0.202570	0.269030	0.542630
H4881	H488	0.157570	0.221530	0.512030
C9571	C957	0.822570	0.227430	0.230430
H4891	H489	0.850870	0.212930	0.296230
H4901	H490	0.881970	0.056930	0.129330
H4911	H491	0.971370	0.262530	0.539130
H4921	H492	0.227870	0.266430	0.540430
H4931	H493	0.819970	0.244030	0.248530
Zn301	Zn30	0.697750	0.394810	0.695050
O1171	O117	0.658030	0.405670	0.664650
O1181	O118	0.592930	0.341770	0.665960
O1191	O119	0.710830	0.436870	0.734160
C9581	C958	0.617330	0.380170	0.656770
C9591	C959	0.701730	0.428470	0.766970
O1201	O120	0.685630	0.390570	0.780980
C9601	C960	0.600730	0.403070	0.631670
C9611	C961	0.711430	0.464870	0.791070
C9621	C962	0.556930	0.378070	0.619670
C9631	C963	0.626030	0.445870	0.620570
C9641	C964	0.725330	0.507370	0.779270
C9651	C965	0.707930	0.459470	0.825470
H4941	H494	0.539430	0.348570	0.626770
C9661	C966	0.539230	0.397470	0.596470
C9671	C967	0.607130	0.462470	0.598070
H4951	H495	0.655330	0.463270	0.627970
H4961	H496	0.725730	0.512870	0.755170
C9681	C968	0.738830	0.542070	0.802870
C9691	C969	0.719530	0.494670	0.848770
H4971	H497	0.697230	0.431070	0.834670
H4981	H498	0.509830	0.380870	0.588970
C9701	C970	0.564530	0.439570	0.585470
H4991	H499	0.624730	0.491770	0.590670
H5001	H500	0.750630	0.570670	0.793870
C9711	C971	0.736130	0.537370	0.836970
H5011	H501	0.716030	0.489070	0.872870
C9721	C972	0.544330	0.456870	0.559270
C9731	C973	0.753530	0.575870	0.859870
C9741	C974	0.531330	0.486170	0.571970
C9751	C975	0.540130	0.443570	0.524870
C9761	C976	0.727730	0.592470	0.872370
C9771	C977	0.797430	0.592570	0.870770
N1171	N117	0.513530	0.507170	0.551470
C9781	C978	0.535830	0.502470	0.608970
N1181	N118	0.522930	0.456170	0.498870
C9791	C979	0.553830	0.414870	0.512370
C9801	C980	0.678830	0.571470	0.863470
N1191	N119	0.738630	0.627070	0.894570
N1201	N120	0.823330	0.630170	0.893170
C9811	C981	0.830630	0.578270	0.860670
C9821	C982	0.508630	0.534470	0.573170
C9831	C983	0.520230	0.531570	0.609970
H5021	H502	0.547230	0.494270	0.627870
C9841	C984	0.525530	0.435170	0.467670
H5031	H503	0.567330	0.402170	0.525370
C9851	C985	0.544030	0.408870	0.477570
C9861	C986	0.665530	0.598070	0.876370
H5041	H504	0.661630	0.544970	0.851370
C9871	C987	0.702830	0.632770	0.898770
C9881	C988	0.863530	0.632670	0.896270
C9891	C989	0.869230	0.602370	0.875970
H5051	H505	0.824230	0.554870	0.845370
C9901	C990	0.489230	0.560770	0.563770
H5061	H506	0.517530	0.546270	0.629570
H5071	H507	0.548630	0.390270	0.462670
H5081	H508	0.638030	0.595870	0.872470
H5091	H509	0.894530	0.599770	0.873770
H5101	H510	0.486630	0.577370	0.581870
Zn311	Zn31	0.363720	0.635580	0.028380
O1211	O121	0.414300	0.675300	0.997980
O1221	O122	0.415500	0.740400	0.999290
O1231	O123	0.392700	0.622500	0.067490
C9911	C991	0.429500	0.716000	0.990100
C9921	C992	0.393400	0.631600	0.100300
O1241	O124	0.371600	0.647700	0.114310
C9931	C993	0.469000	0.732600	0.965000
C9941	C994	0.420100	0.621900	0.124400
C9951	C995	0.487800	0.776400	0.953000
C9961	C996	0.486500	0.707300	0.953900
C9971	C997	0.448700	0.608000	0.112600
C9981	C998	0.418200	0.625400	0.158800
H5111	H511	0.475800	0.793900	0.960100
C9991	C999	0.524900	0.794100	0.929800
C10001	C1000	0.522000	0.726200	0.931400
H5121	H512	0.474600	0.678000	0.961300
H5131	H513	0.453800	0.607600	0.088500
C10011	C1001	0.469900	0.594500	0.136200
C10021	C1002	0.441800	0.613800	0.182100
H5141	H514	0.400500	0.636100	0.168000
H5151	H515	0.537700	0.823500	0.922300
C10031	C1003	0.541700	0.768800	0.918800
H5161	H516	0.533700	0.708600	0.924000
H5171	H517	0.486700	0.582700	0.127200
C10041	C1004	0.467900	0.597200	0.170300
H5181	H518	0.439700	0.617300	0.206200
C10051	C1005	0.579200	0.789000	0.892600
C10061	C1006	0.489000	0.579800	0.193200
C10071	C1007	0.621500	0.802000	0.905300
C10081	C1008	0.570100	0.793200	0.858200
C10091	C1009	0.531400	0.605600	0.205700
C10101	C1010	0.461800	0.535900	0.204100
N1211	N121	0.660300	0.819800	0.884800
C10111	C1011	0.633300	0.797500	0.942300
N1221	N122	0.599900	0.810400	0.832200
C10121	C1012	0.527700	0.779500	0.845700
C10131	C1013	0.559300	0.654500	0.196800
N1231	N123	0.555100	0.594700	0.227900
N1241	N124	0.473500	0.510000	0.226500
C10141	C1014	0.414300	0.502700	0.194000
C10151	C1015	0.692500	0.824700	0.906500
C10161	C1016	0.678000	0.813100	0.943300
H5191	H519	0.613700	0.786100	0.961200
C10171	C1017	0.576300	0.807800	0.801000
H5201	H520	0.501500	0.766000	0.858700
C10181	C1018	0.531500	0.789300	0.810900
C10191	C1019	0.599200	0.667800	0.209700
H5211	H521	0.550000	0.671700	0.184700
C10201	C1020	0.596600	0.630500	0.232100
C10211	C1021	0.435800	0.469800	0.229600
C10221	C1022	0.399800	0.464100	0.209300
H5221	H522	0.397300	0.509100	0.178700
C10231	C1023	0.738200	0.844100	0.897100
H5231	H523	0.695400	0.815800	0.962900
H5241	H524	0.508300	0.784700	0.796000
H5251	H525	0.624500	0.695300	0.205800
H5261	H526	0.371900	0.438800	0.207100
H5271	H527	0.757400	0.846700	0.915200
Zn321	Zn32	0.030390	0.968910	0.361710
O1251	O125	0.080970	0.008630	0.331310
O1261	O126	0.082170	0.073730	0.332620
O1271	O127	0.059370	0.955830	0.400820
C10241	C1024	0.096170	0.049330	0.323430
C10251	C1025	0.060070	0.964930	0.433630
O1281	O128	0.038270	0.981030	0.447640
C10261	C1026	0.135670	0.065930	0.298330
C10271	C1027	0.086770	0.955230	0.457730
C10281	C1028	0.154470	0.109730	0.286330
C10291	C1029	0.153170	0.040630	0.287230
C10301	C1030	0.115370	0.941330	0.445930
C10311	C1031	0.084870	0.958730	0.492130
H5281	H528	0.142470	0.127230	0.293430
C10321	C1032	0.191570	0.127430	0.263130
C10331	C1033	0.188670	0.059530	0.264730
H5291	H529	0.141270	0.011330	0.294630
H5301	H530	0.120470	0.940930	0.421830
C10341	C1034	0.136570	0.927830	0.469530
C10351	C1035	0.108470	0.947130	0.515430
H5311	H531	0.067170	0.969430	0.501330
H5321	H532	0.204370	0.156830	0.255630
C10361	C1036	0.208370	0.102130	0.252130
H5331	H533	0.200370	0.041930	0.257330
H5341	H534	0.153370	0.916030	0.460530
C10371	C1037	0.134570	0.930530	0.503630
H5351	H535	0.106370	0.950630	0.539530
C10381	C1038	0.245870	0.122330	0.225930
C10391	C1039	0.155670	0.913130	0.526530
C10401	C1040	0.288170	0.135330	0.238630
C10411	C1041	0.236770	0.126530	0.191530
C10421	C1042	0.198070	0.938930	0.539030
C10431	C1043	0.128470	0.869230	0.537430
N1251	N125	0.326970	0.153130	0.218130
C10441	C1044	0.299970	0.130830	0.275630
N1261	N126	0.266570	0.143730	0.165530
C10451	C1045	0.194370	0.112830	0.179030
C10461	C1046	0.225970	0.987830	0.530130
N1271	N127	0.221770	0.928030	0.561230
N1281	N128	0.140170	0.843330	0.559830
C10471	C1047	0.080970	0.836030	0.527330
C10481	C1048	0.359170	0.158030	0.239830
C10491	C1049	0.344670	0.146430	0.276630
H5361	H536	0.280370	0.119430	0.294530
C10501	C1050	0.242970	0.141130	0.134330
H5371	H537	0.168170	0.099330	0.192030
C10511	C1051	0.198170	0.122630	0.144230
C10521	C1052	0.265870	0.001130	0.543030
H5381	H538	0.216670	0.005030	0.518030
C10531	C1053	0.263270	0.963830	0.565430
C10541	C1054	0.102470	0.803130	0.562930
C10551	C1055	0.066470	0.797430	0.542630
H5391	H539	0.063970	0.842430	0.512030
C10561	C1056	0.404870	0.177430	0.230430
H5401	H540	0.362070	0.149130	0.296230
H5411	H541	0.174970	0.118030	0.129330
H5421	H542	0.291170	0.028630	0.539130
H5431	H543	0.038570	0.772130	0.540430
H5441	H544	0.424070	0.180030	0.248530
Zn331	Zn33	0.697050	0.302250	0.695050
O1291	O129	0.747630	0.341970	0.664650
O1301	O130	0.748830	0.407070	0.665960
O1311	O131	0.726030	0.289170	0.734160
C10571	C1057	0.762830	0.382670	0.656770
C10581	C1058	0.726730	0.298270	0.766970
O1321	O132	0.704930	0.314370	0.780980
C10591	C1059	0.802330	0.399270	0.631670
C10601	C1060	0.753430	0.288570	0.791070
C10611	C1061	0.821130	0.443070	0.619670
C10621	C1062	0.819830	0.373970	0.620570
C10631	C1063	0.782030	0.274670	0.779270
C10641	C1064	0.751530	0.292070	0.825470
H5451	H545	0.809130	0.460570	0.626770
C10651	C1065	0.858230	0.460770	0.596470
C10661	C1066	0.855330	0.392870	0.598070
H5461	H546	0.807930	0.344670	0.627970
H5471	H547	0.787130	0.274270	0.755170
C10671	C1067	0.803230	0.261170	0.802870
C10681	C1068	0.775130	0.280470	0.848770
H5481	H548	0.733830	0.302770	0.834670
H5491	H549	0.871030	0.490170	0.588970
C10691	C1069	0.875030	0.435470	0.585470
H5501	H550	0.867030	0.375270	0.590670
H5511	H551	0.820030	0.249370	0.793870
C10701	C1070	0.801230	0.263870	0.836970
H5521	H552	0.773030	0.283970	0.872870
C10711	C1071	0.912530	0.455670	0.559270
C10721	C1072	0.822330	0.246470	0.859870
C10731	C1073	0.954830	0.468670	0.571970
C10741	C1074	0.903430	0.459870	0.524870
C10751	C1075	0.864730	0.272270	0.872370
C10761	C1076	0.795130	0.202570	0.870770
N1291	N129	0.993630	0.486470	0.551470
C10771	C1077	0.966630	0.464170	0.608970
N1301	N130	0.933230	0.477070	0.498870
C10781	C1078	0.861030	0.446170	0.512370
C10791	C1079	0.892630	0.321170	0.863470
N1311	N131	0.888430	0.261370	0.894570
N1321	N132	0.806830	0.176670	0.893170
C10801	C1080	0.747630	0.169370	0.860670
C10811	C1081	0.025830	0.491370	0.573170
C10821	C1082	0.011330	0.479770	0.609970
H5531	H553	0.947030	0.452770	0.627870
C10831	C1083	0.909630	0.474470	0.467670
H5541	H554	0.834830	0.432670	0.525370
C10841	C1084	0.864830	0.455970	0.477570
C10851	C1085	0.932530	0.334470	0.876370
H5551	H555	0.883330	0.338370	0.851370
C10861	C1086	0.929930	0.297170	0.898770
C10871	C1087	0.769130	0.136470	0.896270
C10881	C1088	0.733130	0.130770	0.875970
H5561	H556	0.730630	0.175770	0.845370
C10891	C1089	0.071530	0.510770	0.563770
H5571	H557	0.028730	0.482470	0.629570
H5581	H558	0.841630	0.451370	0.462670
H5591	H559	0.957830	0.361970	0.872470
H5601	H560	0.705230	0.105470	0.873770
H5611	H561	0.090730	0.513370	0.581870
Zn341	Zn34	0.271860	0.636280	0.028380
O1331	O133	0.261000	0.585700	0.997980
O1341	O134	0.324900	0.584500	0.999290
O1351	O135	0.229800	0.607300	0.067490
C10901	C1090	0.286500	0.570500	0.990100
C10911	C1091	0.238200	0.606600	0.100300
O1361	O136	0.276100	0.628400	0.114310
C10921	C1092	0.263600	0.531000	0.965000
C10931	C1093	0.201800	0.579900	0.124400
C10941	C1094	0.288600	0.512200	0.953000
C10951	C1095	0.220800	0.513500	0.953900
C10961	C1096	0.159300	0.551300	0.112600
C10971	C1097	0.207200	0.581800	0.158800
H5621	H562	0.318100	0.524200	0.960100
C10981	C1098	0.269200	0.475100	0.929800
C10991	C1099	0.204200	0.478000	0.931400
H5631	H563	0.203400	0.525400	0.961300
H5641	H564	0.153800	0.546200	0.088500
C11001	C1100	0.124600	0.530100	0.136200
C11011	C1101	0.172000	0.558200	0.182100
H5651	H565	0.235600	0.599500	0.168000
H5661	H566	0.285800	0.462300	0.922300
C11021	C1102	0.227100	0.458300	0.918800
H5671	H567	0.174900	0.466300	0.924000
H5681	H568	0.096000	0.513300	0.127200
C11031	C1103	0.129300	0.532100	0.170300
H5691	H569	0.177600	0.560300	0.206200
C11041	C1104	0.209800	0.420800	0.892600
C11051	C1105	0.090800	0.511000	0.193200
C11061	C1106	0.180500	0.378500	0.905300
C11071	C1107	0.223100	0.429900	0.858200
C11081	C1108	0.074200	0.468600	0.205700
C11091	C1109	0.074100	0.538200	0.204100
N1331	N133	0.159500	0.339700	0.884800
C11101	C1110	0.164200	0.366700	0.942300
N1341	N134	0.210500	0.400100	0.832200
C11111	C1111	0.251800	0.472300	0.845700
C11121	C1112	0.095200	0.440700	0.196800
N1351	N135	0.039600	0.444900	0.227900
N1361	N136	0.036500	0.526500	0.226500
C11131	C1113	0.088400	0.585700	0.194000
C11141	C1114	0.132200	0.307500	0.906500
C11151	C1115	0.135100	0.322000	0.943300
H5701	H570	0.172400	0.386300	0.961200
C11161	C1116	0.231500	0.423700	0.801000
H5711	H571	0.264500	0.498500	0.858700
C11171	C1117	0.257800	0.468500	0.810900
C11181	C1118	0.068600	0.400800	0.209700
H5721	H572	0.121700	0.450000	0.184700
C11191	C1119	0.033900	0.403400	0.232100
C11201	C1120	0.034000	0.564200	0.229600
C11211	C1121	0.064300	0.600200	0.209300
H5731	H573	0.111800	0.602700	0.178700
C11221	C1122	0.105900	0.261800	0.897100
H5741	H574	0.120400	0.304600	0.962900
H5751	H575	0.276400	0.491700	0.796000
H5761	H576	0.070800	0.375500	0.205800
H5771	H577	0.066900	0.628100	0.207100
H5781	H578	0.089300	0.242600	0.915200
Zn351	Zn35	0.938530	0.969610	0.361710
O1371	O137	0.927670	0.919030	0.331310
O1381	O138	0.991570	0.917830	0.332620
O1391	O139	0.896470	0.940630	0.400820
C11231	C1123	0.953170	0.903830	0.323430
C11241	C1124	0.904870	0.939930	0.433630
O1401	O140	0.942770	0.961730	0.447640
C11251	C1125	0.930270	0.864330	0.298330
C11261	C1126	0.868470	0.913230	0.457730
C11271	C1127	0.955270	0.845530	0.286330
C11281	C1128	0.887470	0.846830	0.287230
C11291	C1129	0.825970	0.884630	0.445930
C11301	C1130	0.873870	0.915130	0.492130
H5791	H579	0.984770	0.857530	0.293430
C11311	C1131	0.935870	0.808430	0.263130
C11321	C1132	0.870870	0.811330	0.264730
H5801	H580	0.870070	0.858730	0.294630
H5811	H581	0.820470	0.879530	0.421830
C11331	C1133	0.791270	0.863430	0.469530
C11341	C1134	0.838670	0.891530	0.515430
H5821	H582	0.902270	0.932830	0.501330
H5831	H583	0.952470	0.795630	0.255630
C11351	C1135	0.893770	0.791630	0.252130
H5841	H584	0.841570	0.799630	0.257330
H5851	H585	0.762670	0.846630	0.460530
C11361	C1136	0.795970	0.865430	0.503630
H5861	H586	0.844270	0.893630	0.539530
C11371	C1137	0.876470	0.754130	0.225930
C11381	C1138	0.757470	0.844330	0.526530
C11391	C1139	0.847170	0.711830	0.238630
C11401	C1140	0.889770	0.763230	0.191530
C11411	C1141	0.740870	0.801930	0.539030
C11421	C1142	0.740770	0.871530	0.537430
N1371	N137	0.826170	0.673030	0.218130
C11431	C1143	0.830870	0.700030	0.275630
N1381	N138	0.877170	0.733430	0.165530
C11441	C1144	0.918470	0.805630	0.179030
C11451	C1145	0.761870	0.774030	0.530130
N1391	N139	0.706270	0.778230	0.561230
N1401	N140	0.703170	0.859830	0.559830
C11461	C1146	0.755070	0.919030	0.527330
C11471	C1147	0.798870	0.640830	0.239830
C11481	C1148	0.801770	0.655330	0.276630
H5871	H587	0.839070	0.719630	0.294530
C11491	C1149	0.898170	0.757030	0.134330
H5881	H588	0.931170	0.831830	0.192030
C11501	C1150	0.924470	0.801830	0.144230
C11511	C1151	0.735270	0.734130	0.543030
H5891	H589	0.788370	0.783330	0.518030
C11521	C1152	0.700570	0.736730	0.565430
C11531	C1153	0.700670	0.897530	0.562930
C11541	C1154	0.730970	0.933530	0.542630
H5901	H590	0.778470	0.936030	0.512030
C11551	C1155	0.772570	0.595130	0.230430
H5911	H591	0.787070	0.637930	0.296230
H5921	H592	0.943070	0.825030	0.129330
H5931	H593	0.737470	0.708830	0.539130
H5941	H594	0.733570	0.961430	0.540430
H5951	H595	0.755970	0.575930	0.248530
Zn361	Zn36	0.605190	0.302950	0.695050
O1411	O141	0.594330	0.252370	0.664650
O1421	O142	0.658230	0.251170	0.665960
O1431	O143	0.563130	0.273970	0.734160
C11561	C1156	0.619830	0.237170	0.656770
C11571	C1157	0.571530	0.273270	0.766970
O1441	O144	0.609430	0.295070	0.780980
C11581	C1158	0.596930	0.197670	0.631670
C11591	C1159	0.535130	0.246570	0.791070
C11601	C1160	0.621930	0.178870	0.619670
C11611	C1161	0.554130	0.180170	0.620570
C11621	C1162	0.492630	0.217970	0.779270
C11631	C1163	0.540530	0.248470	0.825470
H5961	H596	0.651430	0.190870	0.626770
C11641	C1164	0.602530	0.141770	0.596470
C11651	C1165	0.537530	0.144670	0.598070
H5971	H597	0.536730	0.192070	0.627970
H5981	H598	0.487130	0.212870	0.755170
C11661	C1166	0.457930	0.196770	0.802870
C11671	C1167	0.505330	0.224870	0.848770
H5991	H599	0.568930	0.266170	0.834670
H6001	H600	0.619130	0.128970	0.588970
C11681	C1168	0.560430	0.124970	0.585470
H6011	H601	0.508230	0.132970	0.590670
H6021	H602	0.429330	0.179970	0.793870
C11691	C1169	0.462630	0.198770	0.836970
H6031	H603	0.510930	0.226970	0.872870
C11701	C1170	0.543130	0.087470	0.559270
C11711	C1171	0.424130	0.177670	0.859870
C11721	C1172	0.513830	0.045170	0.571970
C11731	C1173	0.556430	0.096570	0.524870
C11741	C1174	0.407530	0.135270	0.872370
C11751	C1175	0.407430	0.204870	0.870770
N1411	N141	0.492830	0.006370	0.551470
C11761	C1176	0.497530	0.033370	0.608970
N1421	N142	0.543830	0.066770	0.498870
C11771	C1177	0.585130	0.138970	0.512370
C11781	C1178	0.428530	0.107370	0.863470
N1431	N143	0.372930	0.111570	0.894570
N1441	N144	0.369830	0.193170	0.893170
C11791	C1179	0.421730	0.252370	0.860670
C11801	C1180	0.465530	0.974170	0.573170
C11811	C1181	0.468430	0.988670	0.609970
H6041	H604	0.505730	0.052970	0.627870
C11821	C1182	0.564830	0.090370	0.467670
H6051	H605	0.597830	0.165170	0.525370
C11831	C1183	0.591130	0.135170	0.477570
C11841	C1184	0.401930	0.067470	0.876370
H6061	H606	0.455030	0.116670	0.851370
C11851	C1185	0.367230	0.070070	0.898770
C11861	C1186	0.367330	0.230870	0.896270
C11871	C1187	0.397630	0.266870	0.875970
H6071	H607	0.445130	0.269370	0.845370
C11881	C1188	0.439230	0.928470	0.563770
H6081	H608	0.453730	0.971270	0.629570
H6091	H609	0.609730	0.158370	0.462670
H6101	H610	0.404130	0.042170	0.872470
H6111	H611	0.400230	0.294770	0.873770
H6121	H612	0.422630	0.909270	0.581870
O1451	O145	0.333330	0.666670	0.543900
Zn371	Zn37	0.333330	0.666670	0.594740
O1461	O146	0.000000	0.000000	0.877230
Zn381	Zn38	0.000000	0.000000	0.928070
O1471	O147	0.666670	0.333330	0.210570
Zn391	Zn39	0.666670	0.333330	0.261410
O1481	O148	0.666670	0.333330	0.956100
Zn401	Zn40	0.666670	0.333330	0.905260
O1491	O149	0.333330	0.666670	0.289430
Zn411	Zn41	0.333330	0.666670	0.238590
O1501	O150	0.000000	0.000000	0.622770
Zn421	Zn42	0.000000	0.000000	0.571930
O1511	O151	0.666670	0.333330	0.456100
Zn431	Zn43	0.666670	0.333330	0.405260
O1521	O152	0.333330	0.666670	0.789430
Zn441	Zn44	0.333330	0.666670	0.738590
O1531	O153	0.000000	0.000000	0.122770
Zn451	Zn45	0.000000	0.000000	0.071930
O1541	O154	0.333330	0.666670	0.043900
Zn461	Zn46	0.333330	0.666670	0.094740
O1551	O155	0.000000	0.000000	0.377230
Zn471	Zn47	0.000000	0.000000	0.428070
O1561	O156	0.666670	0.333330	0.710570
Zn481	Zn48	0.666670	0.333330	0.761410
Zn491	Zn49	0.166670	0.833330	0.333330
Zn501	Zn50	0.166670	0.333330	0.333330
Zn511	Zn51	0.666670	0.833330	0.333330
Zn521	Zn52	0.833330	0.166670	0.166670
Zn531	Zn53	0.500000	0.500000	0.500000
Zn541	Zn54	0.333330	0.166670	0.166670
Zn551	Zn55	0.000000	0.500000	0.500000
Zn561	Zn56	0.833330	0.666670	0.166670
Zn571	Zn57	0.500000	0.000000	0.500000
Zn581	Zn58	0.833330	0.166670	0.666670
Zn591	Zn59	0.500000	0.500000	0.000000
Zn601	Zn60	0.833330	0.666670	0.666670
Zn611	Zn61	0.500000	0.000000	0.000000
Zn621	Zn62	0.333330	0.166670	0.666670
Zn631	Zn63	0.000000	0.500000	0.000000
Zn641	Zn64	0.166670	0.833330	0.833330
Zn651	Zn65	0.666670	0.833330	0.833330
Zn661	Zn66	0.166670	0.333330	0.833330
Zn671	Zn67	0.000000	0.532670	0.750000
C11891	C1189	0.000000	0.631400	0.750000
C11901	C1190	0.000000	0.437200	0.750000
H6131	H613	0.000000	0.658200	0.750000
H6141	H614	0.000000	0.410400	0.750000
Zn681	Zn68	0.666670	0.866000	0.083330
C11911	C1191	0.666670	0.964730	0.083330
C11921	C1192	0.666670	0.770530	0.083330
H6151	H615	0.666670	0.991530	0.083330
H6161	H616	0.666670	0.743730	0.083330
Zn691	Zn69	0.333330	0.199340	0.416670
C11931	C1193	0.333330	0.298070	0.416670
C11941	C1194	0.333330	0.103870	0.416670
H6171	H617	0.333330	0.324870	0.416670
H6181	H618	0.333330	0.077070	0.416670
Zn701	Zn70	0.467330	0.467330	0.750000
C11951	C1195	0.368600	0.368600	0.750000
C11961	C1196	0.562800	0.562800	0.750000
H6191	H619	0.341800	0.341800	0.750000
H6201	H620	0.589600	0.589600	0.750000
Zn711	Zn71	0.134000	0.800660	0.083330
C11971	C1197	0.035270	0.701930	0.083330
C11981	C1198	0.229470	0.896130	0.083330
H6211	H621	0.008470	0.675130	0.083330
H6221	H622	0.256270	0.922930	0.083330
Zn721	Zn72	0.800660	0.134000	0.416670
C11991	C1199	0.701930	0.035270	0.416670
C12001	C1200	0.896130	0.229470	0.416670
H6231	H623	0.675130	0.008470	0.416670
H6241	H624	0.922930	0.256270	0.416670
Zn731	Zn73	0.532670	0.000000	0.750000
C12011	C1201	0.631400	0.000000	0.750000
C12021	C1202	0.437200	0.000000	0.750000
H6251	H625	0.658200	0.000000	0.750000
H6261	H626	0.410400	0.000000	0.750000
Zn741	Zn74	0.199340	0.333330	0.083330
C12031	C1203	0.298070	0.333330	0.083330
C12041	C1204	0.103870	0.333330	0.083330
H6271	H627	0.324870	0.333330	0.083330
H6281	H628	0.077070	0.333330	0.083330
Zn751	Zn75	0.866000	0.666670	0.416670
C12051	C1205	0.964730	0.666670	0.416670
C12061	C1206	0.770530	0.666670	0.416670
H6291	H629	0.991530	0.666670	0.416670
H6301	H630	0.743730	0.666670	0.416670
Zn761	Zn76	0.000000	0.467330	0.250000
C12071	C1207	0.000000	0.368600	0.250000
C12081	C1208	0.000000	0.562800	0.250000
H6311	H631	0.000000	0.341800	0.250000
H6321	H632	0.000000	0.589600	0.250000
Zn771	Zn77	0.666670	0.800660	0.583330
C12091	C1209	0.666670	0.701930	0.583330
C12101	C1210	0.666670	0.896130	0.583330
H6331	H633	0.666670	0.675130	0.583330
H6341	H634	0.666670	0.922930	0.583330
Zn781	Zn78	0.333330	0.134000	0.916670
C12111	C1211	0.333330	0.035270	0.916670
C12121	C1212	0.333330	0.229470	0.916670
H6351	H635	0.333330	0.008470	0.916670
H6361	H636	0.333330	0.256270	0.916670
Zn791	Zn79	0.532670	0.532670	0.250000
C12131	C1213	0.631400	0.631400	0.250000
C12141	C1214	0.437200	0.437200	0.250000
H6371	H637	0.658200	0.658200	0.250000
H6381	H638	0.410400	0.410400	0.250000
Zn801	Zn80	0.199340	0.866000	0.583330
C12151	C1215	0.298070	0.964730	0.583330
C12161	C1216	0.103870	0.770530	0.583330
H6391	H639	0.324870	0.991530	0.583330
H6401	H640	0.077070	0.743730	0.583330
Zn811	Zn81	0.866000	0.199340	0.916670
C12171	C1217	0.964730	0.298070	0.916670
C12181	C1218	0.770530	0.103870	0.916670
H6411	H641	0.991530	0.324870	0.916670
H6421	H642	0.743730	0.077070	0.916670
Zn821	Zn82	0.467330	0.000000	0.250000
C12191	C1219	0.368600	0.000000	0.250000
C12201	C1220	0.562800	0.000000	0.250000
H6431	H643	0.341800	0.000000	0.250000
H6441	H644	0.589600	0.000000	0.250000
Zn831	Zn83	0.134000	0.333330	0.583330
C12211	C1221	0.035270	0.333330	0.583330
C12221	C1222	0.229470	0.333330	0.583330
H6451	H645	0.008470	0.333330	0.583330
H6461	H646	0.256270	0.333330	0.583330
Zn841	Zn84	0.800660	0.666670	0.916670
C12231	C1223	0.701930	0.666670	0.916670
C12241	C1224	0.896130	0.666670	0.916670
H6471	H647	0.675130	0.666670	0.916670
H6481	H648	0.922930	0.666670	0.916670
