data_OSUGUG_clean_PM
_symmetry_space_group_name_H-M	'P1'
_cell_length_a	16.159000
_cell_length_b	14.035000
_cell_length_c	15.438000
_cell_angle_alpha	90.000000
_cell_angle_beta	109.090000
_cell_angle_gamma	90.000000
_symmetry_Int_Tables_number 1

loop_
_symmetry_equiv_pos_as_xyz
'x,y,z'

loop_
_atom_site_label
_atom_site_type_symbol
_atom_site_fract_x
_atom_site_fract_y
_atom_site_fract_z
N11	N1	0.538700	0.299600	0.350300
N21	N2	0.543400	0.174900	0.437800
N31	N3	0.461200	0.502200	0.156300
N41	N4	0.386500	0.620100	0.075400
C11	C1	0.501200	0.218600	0.358000
H11	H1	0.451700	0.194400	0.313800
C21	C2	0.609500	0.307900	0.429600
H21	H2	0.648600	0.358700	0.443800
C31	C3	0.613400	0.231200	0.483400
H31	H3	0.655200	0.219000	0.540100
C41	C4	0.521200	0.085000	0.469200
C51	C5	0.585600	0.022300	0.512900
H41	H4	0.643800	0.037300	0.521200
C61	C6	0.435000	0.063400	0.455100
H51	H5	0.391100	0.105900	0.424300
C71	C7	0.388300	0.549700	0.135200
H61	H6	0.343200	0.536700	0.158500
C81	C8	0.509200	0.542900	0.108700
H71	H7	0.564800	0.523600	0.110500
C91	C9	0.463800	0.615500	0.058500
H81	H8	0.481800	0.655000	0.019600
C101	C10	0.316500	0.686600	0.037200
C111	C11	0.294100	0.710400	0.946100
H91	H9	0.324100	0.683600	0.909900
C121	C12	0.273300	0.725600	0.091700
H101	H10	0.289100	0.709300	0.153400
N51	N5	0.038700	0.799600	0.350300
N61	N6	0.043400	0.674900	0.437800
N71	N7	0.961200	0.002200	0.156300
N81	N8	0.886500	0.120100	0.075400
C131	C13	0.001200	0.718600	0.358000
H111	H11	0.951700	0.694400	0.313800
C141	C14	0.109500	0.807900	0.429600
H121	H12	0.148600	0.858700	0.443800
C151	C15	0.113400	0.731200	0.483400
H131	H13	0.155200	0.719000	0.540100
C161	C16	0.021200	0.585000	0.469200
C171	C17	0.085600	0.522300	0.512900
H141	H14	0.143800	0.537300	0.521200
C181	C18	0.935000	0.563400	0.455100
H151	H15	0.891100	0.605900	0.424300
C191	C19	0.888300	0.049700	0.135200
H161	H16	0.843200	0.036700	0.158500
C201	C20	0.009200	0.042900	0.108700
H171	H17	0.064800	0.023600	0.110500
C211	C21	0.963800	0.115500	0.058500
H181	H18	0.981800	0.155000	0.019600
C221	C22	0.816500	0.186600	0.037200
C231	C23	0.794100	0.210400	0.946100
H191	H19	0.824100	0.183600	0.909900
C241	C24	0.773300	0.225600	0.091700
H201	H20	0.789100	0.209300	0.153400
N91	N9	0.461300	0.299600	0.149700
N101	N10	0.456600	0.174900	0.062200
N111	N11	0.538800	0.502200	0.343700
N121	N12	0.613500	0.620100	0.424600
C251	C25	0.498800	0.218600	0.142000
H211	H21	0.548300	0.194400	0.186200
C261	C26	0.390500	0.307900	0.070400
H221	H22	0.351400	0.358700	0.056200
C271	C27	0.386600	0.231200	0.016600
H231	H23	0.344800	0.219000	0.959900
C281	C28	0.478800	0.085000	0.030800
C291	C29	0.414400	0.022300	0.987100
H241	H24	0.356200	0.037300	0.978800
C301	C30	0.565000	0.063400	0.044900
H251	H25	0.608900	0.105900	0.075700
C311	C31	0.611700	0.549700	0.364800
H261	H26	0.656800	0.536700	0.341500
C321	C32	0.490800	0.542900	0.391300
H271	H27	0.435200	0.523600	0.389500
C331	C33	0.536200	0.615500	0.441500
H281	H28	0.518200	0.655000	0.480400
C341	C34	0.683500	0.686600	0.462800
C351	C35	0.705900	0.710400	0.553900
H291	H29	0.675900	0.683600	0.590100
C361	C36	0.726700	0.725600	0.408300
H301	H30	0.710900	0.709300	0.346600
N131	N13	0.961300	0.799600	0.149700
N141	N14	0.956600	0.674900	0.062200
N151	N15	0.038800	0.002200	0.343700
N161	N16	0.113500	0.120100	0.424600
C371	C37	0.998800	0.718600	0.142000
H311	H31	0.048300	0.694400	0.186200
C381	C38	0.890500	0.807900	0.070400
H321	H32	0.851400	0.858700	0.056200
C391	C39	0.886600	0.731200	0.016600
H331	H33	0.844800	0.719000	0.959900
C401	C40	0.978800	0.585000	0.030800
C411	C41	0.914400	0.522300	0.987100
H341	H34	0.856200	0.537300	0.978800
C421	C42	0.065000	0.563400	0.044900
H351	H35	0.108900	0.605900	0.075700
C431	C43	0.111700	0.049700	0.364800
H361	H36	0.156800	0.036700	0.341500
C441	C44	0.990800	0.042900	0.391300
H371	H37	0.935200	0.023600	0.389500
C451	C45	0.036200	0.115500	0.441500
H381	H38	0.018200	0.155000	0.480400
C461	C46	0.183500	0.186600	0.462800
C471	C47	0.205900	0.210400	0.553900
H391	H39	0.175900	0.183600	0.590100
C481	C48	0.226700	0.225600	0.408300
H401	H40	0.210900	0.209300	0.346600
N171	N17	0.461300	0.700400	0.649700
N181	N18	0.456600	0.825100	0.562200
N191	N19	0.538800	0.497800	0.843700
N201	N20	0.613500	0.379900	0.924600
C491	C49	0.498800	0.781400	0.642000
H411	H41	0.548300	0.805600	0.686200
C501	C50	0.390500	0.692100	0.570400
H421	H42	0.351400	0.641300	0.556200
C511	C51	0.386600	0.768800	0.516600
H431	H43	0.344800	0.781000	0.459900
C521	C52	0.478800	0.915000	0.530800
C531	C53	0.414400	0.977700	0.487100
H441	H44	0.356200	0.962700	0.478800
C541	C54	0.565000	0.936600	0.544900
H451	H45	0.608900	0.894100	0.575700
C551	C55	0.611700	0.450300	0.864800
H461	H46	0.656800	0.463300	0.841500
C561	C56	0.490800	0.457100	0.891300
H471	H47	0.435200	0.476400	0.889500
C571	C57	0.536200	0.384500	0.941500
H481	H48	0.518200	0.345000	0.980400
C581	C58	0.683500	0.313400	0.962800
C591	C59	0.705900	0.289600	0.053900
H491	H49	0.675900	0.316400	0.090100
C601	C60	0.726700	0.274400	0.908300
H501	H50	0.710900	0.290700	0.846600
N211	N21	0.961300	0.200400	0.649700
N221	N22	0.956600	0.325100	0.562200
N231	N23	0.038800	0.997800	0.843700
N241	N24	0.113500	0.879900	0.924600
C611	C61	0.998800	0.281400	0.642000
H511	H51	0.048300	0.305600	0.686200
C621	C62	0.890500	0.192100	0.570400
H521	H52	0.851400	0.141300	0.556200
C631	C63	0.886600	0.268800	0.516600
H531	H53	0.844800	0.281000	0.459900
C641	C64	0.978800	0.415000	0.530800
C651	C65	0.914400	0.477700	0.487100
H541	H54	0.856200	0.462700	0.478800
C661	C66	0.065000	0.436600	0.544900
H551	H55	0.108900	0.394100	0.575700
C671	C67	0.111700	0.950300	0.864800
H561	H56	0.156800	0.963300	0.841500
C681	C68	0.990800	0.957100	0.891300
H571	H57	0.935200	0.976400	0.889500
C691	C69	0.036200	0.884500	0.941500
H581	H58	0.018200	0.845000	0.980400
C701	C70	0.183500	0.813400	0.962800
C711	C71	0.205900	0.789600	0.053900
H591	H59	0.175900	0.816400	0.090100
C721	C72	0.226700	0.774400	0.908300
H601	H60	0.210900	0.790700	0.846600
N251	N25	0.538700	0.700400	0.850300
N261	N26	0.543400	0.825100	0.937800
N271	N27	0.461200	0.497800	0.656300
N281	N28	0.386500	0.379900	0.575400
C731	C73	0.501200	0.781400	0.858000
H611	H61	0.451700	0.805600	0.813800
C741	C74	0.609500	0.692100	0.929600
H621	H62	0.648600	0.641300	0.943800
C751	C75	0.613400	0.768800	0.983400
H631	H63	0.655200	0.781000	0.040100
C761	C76	0.521200	0.915000	0.969200
C771	C77	0.585600	0.977700	0.012900
H641	H64	0.643800	0.962700	0.021200
C781	C78	0.435000	0.936600	0.955100
H651	H65	0.391100	0.894100	0.924300
C791	C79	0.388300	0.450300	0.635200
H661	H66	0.343200	0.463300	0.658500
C801	C80	0.509200	0.457100	0.608700
H671	H67	0.564800	0.476400	0.610500
C811	C81	0.463800	0.384500	0.558500
H681	H68	0.481800	0.345000	0.519600
C821	C82	0.316500	0.313400	0.537200
C831	C83	0.294100	0.289600	0.446100
H691	H69	0.324100	0.316400	0.409900
C841	C84	0.273300	0.274400	0.591700
H701	H70	0.289100	0.290700	0.653400
N291	N29	0.038700	0.200400	0.850300
N301	N30	0.043400	0.325100	0.937800
N311	N31	0.961200	0.997800	0.656300
N321	N32	0.886500	0.879900	0.575400
C851	C85	0.001200	0.281400	0.858000
H711	H71	0.951700	0.305600	0.813800
C861	C86	0.109500	0.192100	0.929600
H721	H72	0.148600	0.141300	0.943800
C871	C87	0.113400	0.268800	0.983400
H731	H73	0.155200	0.281000	0.040100
C881	C88	0.021200	0.415000	0.969200
C891	C89	0.085600	0.477700	0.012900
H741	H74	0.143800	0.462700	0.021200
C901	C90	0.935000	0.436600	0.955100
H751	H75	0.891100	0.394100	0.924300
C911	C91	0.888300	0.950300	0.635200
H761	H76	0.843200	0.963300	0.658500
C921	C92	0.009200	0.957100	0.608700
H771	H77	0.064800	0.976400	0.610500
C931	C93	0.963800	0.884500	0.558500
H781	H78	0.981800	0.845000	0.519600
C941	C94	0.816500	0.813400	0.537200
C951	C95	0.794100	0.789600	0.446100
H791	H79	0.824100	0.816400	0.409900
C961	C96	0.773300	0.774400	0.591700
H801	H80	0.789100	0.790700	0.653400
Cu11	Cu1	0.500000	0.396850	0.250000
Cu21	Cu2	0.000000	0.896850	0.250000
Cu31	Cu3	0.500000	0.603150	0.750000
Cu41	Cu4	0.000000	0.103150	0.750000
