data_OSURAX_clean_PM
_symmetry_space_group_name_H-M	'P1'
_cell_length_a	31.980000
_cell_length_b	7.904000
_cell_length_c	26.800000
_cell_angle_alpha	90.000000
_cell_angle_beta	90.000000
_cell_angle_gamma	90.000000
_symmetry_Int_Tables_number 1

loop_
_symmetry_equiv_pos_as_xyz
'x,y,z'

loop_
_atom_site_label
_atom_site_type_symbol
_atom_site_fract_x
_atom_site_fract_y
_atom_site_fract_z
Cd11	Cd1	0.108370	0.634060	0.434430
C11	C1	0.175000	0.989800	0.530700
C21	C2	0.081000	0.238600	0.584400
H11	H1	0.092700	0.335600	0.598300
C31	C3	0.090400	0.383900	0.504900
C41	C4	0.241700	0.164300	0.632000
H21	H2	0.266400	0.225000	0.635300
C51	C5	0.078000	0.229200	0.536500
C61	C6	0.064500	0.084700	0.513600
H31	H3	0.063000	0.079700	0.479000
C71	C7	0.052900	0.946400	0.541700
N11	N1	0.173900	0.088300	0.488200
H41	H4	0.183400	0.189800	0.485900
O11	O1	0.069900	0.408400	0.464700
C81	C8	0.190400	0.034300	0.578500
O21	O2	0.119700	0.477200	0.518500
C91	C9	0.053900	0.960400	0.593600
H51	H5	0.045400	0.868200	0.612600
C101	C10	0.067000	0.104100	0.618000
C111	C11	0.069900	0.118400	0.674400
C121	C12	0.156700	0.845200	0.517100
H61	H6	0.152900	0.754300	0.538600
C131	C13	0.037700	0.786500	0.516500
O31	O3	0.079100	0.070600	0.860400
O41	O4	0.112700	0.303100	0.845800
C141	C14	0.092000	0.178900	0.831900
O51	O5	0.042600	0.773800	0.468500
O61	O6	0.021200	0.671500	0.541700
C151	C15	0.082400	0.163100	0.775800
C161	C16	0.086000	0.265000	0.695400
H71	H7	0.091500	0.356600	0.674700
C171	C17	0.093600	0.279700	0.742000
H81	H8	0.107600	0.375900	0.753000
C181	C18	0.168500	0.982000	0.620500
H91	H9	0.144100	0.919100	0.617100
C191	C19	0.183600	0.025100	0.668800
H101	H10	0.168700	0.992200	0.697000
C201	C20	0.220800	0.117500	0.673800
C211	C21	0.227200	0.124100	0.583700
H111	H11	0.242300	0.157700	0.555700
C221	C22	0.236500	0.163400	0.724900
C231	C23	0.268300	0.282900	0.816600
C241	C24	0.224900	0.279800	0.808800
H121	H12	0.206400	0.319000	0.833000
C251	C25	0.279900	0.167200	0.734900
H131	H13	0.298500	0.131000	0.710400
C261	C26	0.210500	0.215100	0.763100
H141	H14	0.181800	0.206600	0.758300
C271	C27	0.295600	0.223900	0.780400
H151	H15	0.324200	0.222100	0.786500
C281	C28	0.284900	0.358600	0.861400
N21	N2	0.324800	0.411100	0.867500
C291	C29	0.263900	0.413200	0.903300
H161	H16	0.235800	0.396800	0.910300
N31	N3	0.144300	0.843800	0.469000
C301	C30	0.330300	0.489400	0.911300
N41	N4	0.292000	0.495100	0.932300
H171	H17	0.286200	0.543800	0.960200
C311	C31	0.155700	0.001100	0.451000
H181	H18	0.151400	0.040000	0.418700
C321	C32	0.060800	0.993200	0.705600
H191	H19	0.050300	0.892000	0.693100
N51	N5	0.066900	0.012000	0.757100
H201	H20	0.061100	0.930200	0.777000
Cd21	Cd2	0.108370	0.134060	0.934430
C331	C33	0.175000	0.489800	0.030700
C341	C34	0.081000	0.738600	0.084400
H211	H21	0.092700	0.835600	0.098300
C351	C35	0.090400	0.883900	0.004900
C361	C36	0.241700	0.664300	0.132000
H221	H22	0.266400	0.725000	0.135300
C371	C37	0.078000	0.729200	0.036500
C381	C38	0.064500	0.584700	0.013600
H231	H23	0.063000	0.579700	0.979000
C391	C39	0.052900	0.446400	0.041700
N61	N6	0.173900	0.588300	0.988200
H241	H24	0.183400	0.689800	0.985900
O71	O7	0.069900	0.908400	0.964700
C401	C40	0.190400	0.534300	0.078500
O81	O8	0.119700	0.977200	0.018500
C411	C41	0.053900	0.460400	0.093600
H251	H25	0.045400	0.368200	0.112600
C421	C42	0.067000	0.604100	0.118000
C431	C43	0.069900	0.618400	0.174400
C441	C44	0.156700	0.345200	0.017100
H261	H26	0.152900	0.254300	0.038600
C451	C45	0.037700	0.286500	0.016500
O91	O9	0.079100	0.570600	0.360400
O101	O10	0.112700	0.803100	0.345800
C461	C46	0.092000	0.678900	0.331900
O111	O11	0.042600	0.273800	0.968500
O121	O12	0.021200	0.171500	0.041700
C471	C47	0.082400	0.663100	0.275800
C481	C48	0.086000	0.765000	0.195400
H271	H27	0.091500	0.856600	0.174700
C491	C49	0.093600	0.779700	0.242000
H281	H28	0.107600	0.875900	0.253000
C501	C50	0.168500	0.482000	0.120500
H291	H29	0.144100	0.419100	0.117100
C511	C51	0.183600	0.525100	0.168800
H301	H30	0.168700	0.492200	0.197000
C521	C52	0.220800	0.617500	0.173800
C531	C53	0.227200	0.624100	0.083700
H311	H31	0.242300	0.657700	0.055700
C541	C54	0.236500	0.663400	0.224900
C551	C55	0.268300	0.782900	0.316600
C561	C56	0.224900	0.779800	0.308800
H321	H32	0.206400	0.819000	0.333000
C571	C57	0.279900	0.667200	0.234900
H331	H33	0.298500	0.631000	0.210400
C581	C58	0.210500	0.715100	0.263100
H341	H34	0.181800	0.706600	0.258300
C591	C59	0.295600	0.723900	0.280400
H351	H35	0.324200	0.722100	0.286500
C601	C60	0.284900	0.858600	0.361400
N71	N7	0.324800	0.911100	0.367500
C611	C61	0.263900	0.913200	0.403300
H361	H36	0.235800	0.896800	0.410300
N81	N8	0.144300	0.343800	0.969000
C621	C62	0.330300	0.989400	0.411300
N91	N9	0.292000	0.995100	0.432300
H371	H37	0.286200	0.043800	0.460200
C631	C63	0.155700	0.501100	0.951000
H381	H38	0.151400	0.540000	0.918700
C641	C64	0.060800	0.493200	0.205600
H391	H39	0.050300	0.392000	0.193100
N101	N10	0.066900	0.512000	0.257100
H401	H40	0.061100	0.430200	0.277000
Cd31	Cd3	0.891630	0.365940	0.434430
C651	C65	0.825000	0.010200	0.530700
C661	C66	0.919000	0.761400	0.584400
H411	H41	0.907300	0.664400	0.598300
C671	C67	0.909600	0.616100	0.504900
C681	C68	0.758300	0.835700	0.632000
H421	H42	0.733600	0.775000	0.635300
C691	C69	0.922000	0.770800	0.536500
C701	C70	0.935500	0.915300	0.513600
H431	H43	0.937000	0.920300	0.479000
C711	C71	0.947100	0.053600	0.541700
N111	N11	0.826100	0.911700	0.488200
H441	H44	0.816600	0.810200	0.485900
O131	O13	0.930100	0.591600	0.464700
C721	C72	0.809600	0.965700	0.578500
O141	O14	0.880300	0.522800	0.518500
C731	C73	0.946100	0.039600	0.593600
H451	H45	0.954600	0.131800	0.612600
C741	C74	0.933000	0.895900	0.618000
C751	C75	0.930100	0.881600	0.674400
C761	C76	0.843300	0.154800	0.517100
H461	H46	0.847100	0.245700	0.538600
C771	C77	0.962300	0.213500	0.516500
O151	O15	0.920900	0.929400	0.860400
O161	O16	0.887300	0.696900	0.845800
C781	C78	0.908000	0.821100	0.831900
O171	O17	0.957400	0.226200	0.468500
O181	O18	0.978800	0.328500	0.541700
C791	C79	0.917600	0.836900	0.775800
C801	C80	0.914000	0.735000	0.695400
H471	H47	0.908500	0.643400	0.674700
C811	C81	0.906400	0.720300	0.742000
H481	H48	0.892400	0.624100	0.753000
C821	C82	0.831500	0.018000	0.620500
H491	H49	0.855900	0.080900	0.617100
C831	C83	0.816400	0.974900	0.668800
H501	H50	0.831300	0.007800	0.697000
C841	C84	0.779200	0.882500	0.673800
C851	C85	0.772800	0.875900	0.583700
H511	H51	0.757700	0.842300	0.555700
C861	C86	0.763500	0.836600	0.724900
C871	C87	0.731700	0.717100	0.816600
C881	C88	0.775100	0.720200	0.808800
H521	H52	0.793600	0.681000	0.833000
C891	C89	0.720100	0.832800	0.734900
H531	H53	0.701500	0.869000	0.710400
C901	C90	0.789500	0.784900	0.763100
H541	H54	0.818200	0.793400	0.758300
C911	C91	0.704400	0.776100	0.780400
H551	H55	0.675800	0.777900	0.786500
C921	C92	0.715100	0.641400	0.861400
N121	N12	0.675200	0.588900	0.867500
C931	C93	0.736100	0.586800	0.903300
H561	H56	0.764200	0.603200	0.910300
N131	N13	0.855700	0.156200	0.469000
C941	C94	0.669700	0.510600	0.911300
N141	N14	0.708000	0.504900	0.932300
H571	H57	0.713800	0.456200	0.960200
C951	C95	0.844300	0.998900	0.451000
H581	H58	0.848600	0.960000	0.418700
C961	C96	0.939200	0.006800	0.705600
H591	H59	0.949700	0.108000	0.693100
N151	N15	0.933100	0.988000	0.757100
H601	H60	0.938900	0.069800	0.777000
Cd41	Cd4	0.891630	0.865940	0.934430
C971	C97	0.825000	0.510200	0.030700
C981	C98	0.919000	0.261400	0.084400
H611	H61	0.907300	0.164400	0.098300
C991	C99	0.909600	0.116100	0.004900
C1001	C100	0.758300	0.335700	0.132000
H621	H62	0.733600	0.275000	0.135300
C1011	C101	0.922000	0.270800	0.036500
C1021	C102	0.935500	0.415300	0.013600
H631	H63	0.937000	0.420300	0.979000
C1031	C103	0.947100	0.553600	0.041700
N161	N16	0.826100	0.411700	0.988200
H641	H64	0.816600	0.310200	0.985900
O191	O19	0.930100	0.091600	0.964700
C1041	C104	0.809600	0.465700	0.078500
O201	O20	0.880300	0.022800	0.018500
C1051	C105	0.946100	0.539600	0.093600
H651	H65	0.954600	0.631800	0.112600
C1061	C106	0.933000	0.395900	0.118000
C1071	C107	0.930100	0.381600	0.174400
C1081	C108	0.843300	0.654800	0.017100
H661	H66	0.847100	0.745700	0.038600
C1091	C109	0.962300	0.713500	0.016500
O211	O21	0.920900	0.429400	0.360400
O221	O22	0.887300	0.196900	0.345800
C1101	C110	0.908000	0.321100	0.331900
O231	O23	0.957400	0.726200	0.968500
O241	O24	0.978800	0.828500	0.041700
C1111	C111	0.917600	0.336900	0.275800
C1121	C112	0.914000	0.235000	0.195400
H671	H67	0.908500	0.143400	0.174700
C1131	C113	0.906400	0.220300	0.242000
H681	H68	0.892400	0.124100	0.253000
C1141	C114	0.831500	0.518000	0.120500
H691	H69	0.855900	0.580900	0.117100
C1151	C115	0.816400	0.474900	0.168800
H701	H70	0.831300	0.507800	0.197000
C1161	C116	0.779200	0.382500	0.173800
C1171	C117	0.772800	0.375900	0.083700
H711	H71	0.757700	0.342300	0.055700
C1181	C118	0.763500	0.336600	0.224900
C1191	C119	0.731700	0.217100	0.316600
C1201	C120	0.775100	0.220200	0.308800
H721	H72	0.793600	0.181000	0.333000
C1211	C121	0.720100	0.332800	0.234900
H731	H73	0.701500	0.369000	0.210400
C1221	C122	0.789500	0.284900	0.263100
H741	H74	0.818200	0.293400	0.258300
C1231	C123	0.704400	0.276100	0.280400
H751	H75	0.675800	0.277900	0.286500
C1241	C124	0.715100	0.141400	0.361400
N171	N17	0.675200	0.088900	0.367500
C1251	C125	0.736100	0.086800	0.403300
H761	H76	0.764200	0.103200	0.410300
N181	N18	0.855700	0.656200	0.969000
C1261	C126	0.669700	0.010600	0.411300
N191	N19	0.708000	0.004900	0.432300
H771	H77	0.713800	0.956200	0.460200
C1271	C127	0.844300	0.498900	0.951000
H781	H78	0.848600	0.460000	0.918700
C1281	C128	0.939200	0.506800	0.205600
H791	H79	0.949700	0.608000	0.193100
N201	N20	0.933100	0.488000	0.257100
H801	H80	0.938900	0.569800	0.277000
Cd51	Cd5	0.608370	0.865940	0.434430
C1291	C129	0.675000	0.510200	0.530700
C1301	C130	0.581000	0.261400	0.584400
H811	H81	0.592700	0.164400	0.598300
C1311	C131	0.590400	0.116100	0.504900
C1321	C132	0.741700	0.335700	0.632000
H821	H82	0.766400	0.275000	0.635300
C1331	C133	0.578000	0.270800	0.536500
C1341	C134	0.564500	0.415300	0.513600
H831	H83	0.563000	0.420300	0.479000
C1351	C135	0.552900	0.553600	0.541700
N211	N21	0.673900	0.411700	0.488200
H841	H84	0.683400	0.310200	0.485900
O251	O25	0.569900	0.091600	0.464700
C1361	C136	0.690400	0.465700	0.578500
O261	O26	0.619700	0.022800	0.518500
C1371	C137	0.553900	0.539600	0.593600
H851	H85	0.545400	0.631800	0.612600
C1381	C138	0.567000	0.395900	0.618000
C1391	C139	0.569900	0.381600	0.674400
C1401	C140	0.656700	0.654800	0.517100
H861	H86	0.652900	0.745700	0.538600
C1411	C141	0.537700	0.713500	0.516500
O271	O27	0.579100	0.429400	0.860400
O281	O28	0.612700	0.196900	0.845800
C1421	C142	0.592000	0.321100	0.831900
O291	O29	0.542600	0.726200	0.468500
O301	O30	0.521200	0.828500	0.541700
C1431	C143	0.582400	0.336900	0.775800
C1441	C144	0.586000	0.235000	0.695400
H871	H87	0.591500	0.143400	0.674700
C1451	C145	0.593600	0.220300	0.742000
H881	H88	0.607600	0.124100	0.753000
C1461	C146	0.668500	0.518000	0.620500
H891	H89	0.644100	0.580900	0.617100
C1471	C147	0.683600	0.474900	0.668800
H901	H90	0.668700	0.507800	0.697000
C1481	C148	0.720800	0.382500	0.673800
C1491	C149	0.727200	0.375900	0.583700
H911	H91	0.742300	0.342300	0.555700
C1501	C150	0.736500	0.336600	0.724900
C1511	C151	0.768300	0.217100	0.816600
C1521	C152	0.724900	0.220200	0.808800
H921	H92	0.706400	0.181000	0.833000
C1531	C153	0.779900	0.332800	0.734900
H931	H93	0.798500	0.369000	0.710400
C1541	C154	0.710500	0.284900	0.763100
H941	H94	0.681800	0.293400	0.758300
C1551	C155	0.795600	0.276100	0.780400
H951	H95	0.824200	0.277900	0.786500
C1561	C156	0.784900	0.141400	0.861400
N221	N22	0.824800	0.088900	0.867500
C1571	C157	0.763900	0.086800	0.903300
H961	H96	0.735800	0.103200	0.910300
N231	N23	0.644300	0.656200	0.469000
C1581	C158	0.830300	0.010600	0.911300
N241	N24	0.792000	0.004900	0.932300
H971	H97	0.786200	0.956200	0.960200
C1591	C159	0.655700	0.498900	0.451000
H981	H98	0.651400	0.460000	0.418700
C1601	C160	0.560800	0.506800	0.705600
H991	H99	0.550300	0.608000	0.693100
N251	N25	0.566900	0.488000	0.757100
H1001	H100	0.561100	0.569800	0.777000
Cd61	Cd6	0.608370	0.365940	0.934430
C1611	C161	0.675000	0.010200	0.030700
C1621	C162	0.581000	0.761400	0.084400
H1011	H101	0.592700	0.664400	0.098300
C1631	C163	0.590400	0.616100	0.004900
C1641	C164	0.741700	0.835700	0.132000
H1021	H102	0.766400	0.775000	0.135300
C1651	C165	0.578000	0.770800	0.036500
C1661	C166	0.564500	0.915300	0.013600
H1031	H103	0.563000	0.920300	0.979000
C1671	C167	0.552900	0.053600	0.041700
N261	N26	0.673900	0.911700	0.988200
H1041	H104	0.683400	0.810200	0.985900
O311	O31	0.569900	0.591600	0.964700
C1681	C168	0.690400	0.965700	0.078500
O321	O32	0.619700	0.522800	0.018500
C1691	C169	0.553900	0.039600	0.093600
H1051	H105	0.545400	0.131800	0.112600
C1701	C170	0.567000	0.895900	0.118000
C1711	C171	0.569900	0.881600	0.174400
C1721	C172	0.656700	0.154800	0.017100
H1061	H106	0.652900	0.245700	0.038600
C1731	C173	0.537700	0.213500	0.016500
O331	O33	0.579100	0.929400	0.360400
O341	O34	0.612700	0.696900	0.345800
C1741	C174	0.592000	0.821100	0.331900
O351	O35	0.542600	0.226200	0.968500
O361	O36	0.521200	0.328500	0.041700
C1751	C175	0.582400	0.836900	0.275800
C1761	C176	0.586000	0.735000	0.195400
H1071	H107	0.591500	0.643400	0.174700
C1771	C177	0.593600	0.720300	0.242000
H1081	H108	0.607600	0.624100	0.253000
C1781	C178	0.668500	0.018000	0.120500
H1091	H109	0.644100	0.080900	0.117100
C1791	C179	0.683600	0.974900	0.168800
H1101	H110	0.668700	0.007800	0.197000
C1801	C180	0.720800	0.882500	0.173800
C1811	C181	0.727200	0.875900	0.083700
H1111	H111	0.742300	0.842300	0.055700
C1821	C182	0.736500	0.836600	0.224900
C1831	C183	0.768300	0.717100	0.316600
C1841	C184	0.724900	0.720200	0.308800
H1121	H112	0.706400	0.681000	0.333000
C1851	C185	0.779900	0.832800	0.234900
H1131	H113	0.798500	0.869000	0.210400
C1861	C186	0.710500	0.784900	0.263100
H1141	H114	0.681800	0.793400	0.258300
C1871	C187	0.795600	0.776100	0.280400
H1151	H115	0.824200	0.777900	0.286500
C1881	C188	0.784900	0.641400	0.361400
N271	N27	0.824800	0.588900	0.367500
C1891	C189	0.763900	0.586800	0.403300
H1161	H116	0.735800	0.603200	0.410300
N281	N28	0.644300	0.156200	0.969000
C1901	C190	0.830300	0.510600	0.411300
N291	N29	0.792000	0.504900	0.432300
H1171	H117	0.786200	0.456200	0.460200
C1911	C191	0.655700	0.998900	0.951000
H1181	H118	0.651400	0.960000	0.918700
C1921	C192	0.560800	0.006800	0.205600
H1191	H119	0.550300	0.108000	0.193100
N301	N30	0.566900	0.988000	0.257100
H1201	H120	0.561100	0.069800	0.277000
Cd71	Cd7	0.391630	0.134060	0.434430
C1931	C193	0.325000	0.489800	0.530700
C1941	C194	0.419000	0.738600	0.584400
H1211	H121	0.407300	0.835600	0.598300
C1951	C195	0.409600	0.883900	0.504900
C1961	C196	0.258300	0.664300	0.632000
H1221	H122	0.233600	0.725000	0.635300
C1971	C197	0.422000	0.729200	0.536500
C1981	C198	0.435500	0.584700	0.513600
H1231	H123	0.437000	0.579700	0.479000
C1991	C199	0.447100	0.446400	0.541700
N311	N31	0.326100	0.588300	0.488200
H1241	H124	0.316600	0.689800	0.485900
O371	O37	0.430100	0.908400	0.464700
C2001	C200	0.309600	0.534300	0.578500
O381	O38	0.380300	0.977200	0.518500
C2011	C201	0.446100	0.460400	0.593600
H1251	H125	0.454600	0.368200	0.612600
C2021	C202	0.433000	0.604100	0.618000
C2031	C203	0.430100	0.618400	0.674400
C2041	C204	0.343300	0.345200	0.517100
H1261	H126	0.347100	0.254300	0.538600
C2051	C205	0.462300	0.286500	0.516500
O391	O39	0.420900	0.570600	0.860400
O401	O40	0.387300	0.803100	0.845800
C2061	C206	0.408000	0.678900	0.831900
O411	O41	0.457400	0.273800	0.468500
O421	O42	0.478800	0.171500	0.541700
C2071	C207	0.417600	0.663100	0.775800
C2081	C208	0.414000	0.765000	0.695400
H1271	H127	0.408500	0.856600	0.674700
C2091	C209	0.406400	0.779700	0.742000
H1281	H128	0.392400	0.875900	0.753000
C2101	C210	0.331500	0.482000	0.620500
H1291	H129	0.355900	0.419100	0.617100
C2111	C211	0.316400	0.525100	0.668800
H1301	H130	0.331300	0.492200	0.697000
C2121	C212	0.279200	0.617500	0.673800
C2131	C213	0.272800	0.624100	0.583700
H1311	H131	0.257700	0.657700	0.555700
C2141	C214	0.263500	0.663400	0.724900
C2151	C215	0.231700	0.782900	0.816600
C2161	C216	0.275100	0.779800	0.808800
H1321	H132	0.293600	0.819000	0.833000
C2171	C217	0.220100	0.667200	0.734900
H1331	H133	0.201500	0.631000	0.710400
C2181	C218	0.289500	0.715100	0.763100
H1341	H134	0.318200	0.706600	0.758300
C2191	C219	0.204400	0.723900	0.780400
H1351	H135	0.175800	0.722100	0.786500
C2201	C220	0.215100	0.858600	0.861400
N321	N32	0.175200	0.911100	0.867500
C2211	C221	0.236100	0.913200	0.903300
H1361	H136	0.264200	0.896800	0.910300
N331	N33	0.355700	0.343800	0.469000
C2221	C222	0.169700	0.989400	0.911300
N341	N34	0.208000	0.995100	0.932300
H1371	H137	0.213800	0.043800	0.960200
C2231	C223	0.344300	0.501100	0.451000
H1381	H138	0.348600	0.540000	0.418700
C2241	C224	0.439200	0.493200	0.705600
H1391	H139	0.449700	0.392000	0.693100
N351	N35	0.433100	0.512000	0.757100
H1401	H140	0.438900	0.430200	0.777000
Cd81	Cd8	0.391630	0.634060	0.934430
C2251	C225	0.325000	0.989800	0.030700
C2261	C226	0.419000	0.238600	0.084400
H1411	H141	0.407300	0.335600	0.098300
C2271	C227	0.409600	0.383900	0.004900
C2281	C228	0.258300	0.164300	0.132000
H1421	H142	0.233600	0.225000	0.135300
C2291	C229	0.422000	0.229200	0.036500
C2301	C230	0.435500	0.084700	0.013600
H1431	H143	0.437000	0.079700	0.979000
C2311	C231	0.447100	0.946400	0.041700
N361	N36	0.326100	0.088300	0.988200
H1441	H144	0.316600	0.189800	0.985900
O431	O43	0.430100	0.408400	0.964700
C2321	C232	0.309600	0.034300	0.078500
O441	O44	0.380300	0.477200	0.018500
C2331	C233	0.446100	0.960400	0.093600
H1451	H145	0.454600	0.868200	0.112600
C2341	C234	0.433000	0.104100	0.118000
C2351	C235	0.430100	0.118400	0.174400
C2361	C236	0.343300	0.845200	0.017100
H1461	H146	0.347100	0.754300	0.038600
C2371	C237	0.462300	0.786500	0.016500
O451	O45	0.420900	0.070600	0.360400
O461	O46	0.387300	0.303100	0.345800
C2381	C238	0.408000	0.178900	0.331900
O471	O47	0.457400	0.773800	0.968500
O481	O48	0.478800	0.671500	0.041700
C2391	C239	0.417600	0.163100	0.275800
C2401	C240	0.414000	0.265000	0.195400
H1471	H147	0.408500	0.356600	0.174700
C2411	C241	0.406400	0.279700	0.242000
H1481	H148	0.392400	0.375900	0.253000
C2421	C242	0.331500	0.982000	0.120500
H1491	H149	0.355900	0.919100	0.117100
C2431	C243	0.316400	0.025100	0.168800
H1501	H150	0.331300	0.992200	0.197000
C2441	C244	0.279200	0.117500	0.173800
C2451	C245	0.272800	0.124100	0.083700
H1511	H151	0.257700	0.157700	0.055700
C2461	C246	0.263500	0.163400	0.224900
C2471	C247	0.231700	0.282900	0.316600
C2481	C248	0.275100	0.279800	0.308800
H1521	H152	0.293600	0.319000	0.333000
C2491	C249	0.220100	0.167200	0.234900
H1531	H153	0.201500	0.131000	0.210400
C2501	C250	0.289500	0.215100	0.263100
H1541	H154	0.318200	0.206600	0.258300
C2511	C251	0.204400	0.223900	0.280400
H1551	H155	0.175800	0.222100	0.286500
C2521	C252	0.215100	0.358600	0.361400
N371	N37	0.175200	0.411100	0.367500
C2531	C253	0.236100	0.413200	0.403300
H1561	H156	0.264200	0.396800	0.410300
N381	N38	0.355700	0.843800	0.969000
C2541	C254	0.169700	0.489400	0.411300
N391	N39	0.208000	0.495100	0.432300
H1571	H157	0.213800	0.543800	0.460200
C2551	C255	0.344300	0.001100	0.951000
H1581	H158	0.348600	0.040000	0.918700
C2561	C256	0.439200	0.993200	0.205600
H1591	H159	0.449700	0.892000	0.193100
N401	N40	0.433100	0.012000	0.257100
H1601	H160	0.438900	0.930200	0.277000
Cd91	Cd9	0.000000	0.500000	0.477140
Cd101	Cd10	0.000000	0.000000	0.977140
Cd111	Cd11	0.500000	0.000000	0.477140
Cd121	Cd12	0.500000	0.500000	0.977140
