data_OTALUS_clean_PM
_symmetry_space_group_name_H-M	'P1'
_cell_length_a	27.581000
_cell_length_b	27.581000
_cell_length_c	43.468000
_cell_angle_alpha	90.000000
_cell_angle_beta	90.000000
_cell_angle_gamma	90.000000
_symmetry_Int_Tables_number 1

loop_
_symmetry_equiv_pos_as_xyz
'x,y,z'

loop_
_atom_site_label
_atom_site_type_symbol
_atom_site_fract_x
_atom_site_fract_y
_atom_site_fract_z
C11	C1	0.221400	0.239700	0.276540
C21	C2	0.200200	0.258900	0.250410
C31	C3	0.161500	0.235400	0.236700
H11	H1	0.146900	0.248600	0.218800
C41	C4	0.144000	0.192600	0.249100
H21	H2	0.117500	0.176400	0.239700
C51	C5	0.165300	0.173300	0.275200
H31	H3	0.153300	0.144000	0.283700
C61	C6	0.204000	0.196900	0.289000
C71	C7	0.227300	0.168100	0.317500
H41	H4	0.256200	0.188300	0.322900
C81	C8	0.204600	0.156600	0.349200
H51	H5	0.228800	0.140400	0.362200
H61	H6	0.176600	0.135200	0.346400
H71	H7	0.194200	0.186800	0.359000
C91	C9	0.249900	0.123600	0.302000
H81	H8	0.268200	0.104900	0.317300
H91	H9	0.271800	0.134200	0.285500
H101	H10	0.224200	0.103300	0.293300
C101	C10	0.221000	0.304900	0.236800
H111	H11	0.254300	0.313100	0.244300
C111	C11	0.184000	0.343900	0.242300
H121	H12	0.177800	0.346800	0.264400
H131	H13	0.153800	0.335500	0.231700
H141	H14	0.196200	0.374800	0.234400
C121	C12	0.217500	0.299200	0.201700
H151	H15	0.241200	0.275100	0.194700
H161	H16	0.224200	0.330400	0.191800
H171	H17	0.184800	0.288400	0.196200
C131	C13	0.385700	0.493770	0.400650
C141	C14	0.371800	0.537400	0.388980
C151	C15	0.372400	0.577500	0.407120
H181	H18	0.362700	0.607900	0.399000
C161	C16	0.386900	0.574100	0.436940
H191	H19	0.387400	0.602100	0.449600
C171	C17	0.400900	0.530500	0.448620
H201	H20	0.411000	0.528100	0.469400
C181	C18	0.400300	0.490350	0.430470
C191	C19	0.415800	0.441400	0.442700
H211	H21	0.408300	0.415400	0.427400
C201	C20	0.394300	0.428800	0.474100
H221	H22	0.358900	0.428500	0.472600
H231	H23	0.404500	0.453100	0.489200
H241	H24	0.405900	0.396700	0.480500
C211	C21	0.467000	0.436300	0.454200
H251	H25	0.472300	0.403000	0.461200
H261	H26	0.472300	0.458800	0.471300
H271	H27	0.489700	0.443800	0.437500
C221	C22	0.431600	0.220900	0.412500
H281	H28	0.432400	0.196300	0.397300
C231	C23	0.461000	0.216900	0.437700
H291	H29	0.483600	0.191000	0.439400
C241	C24	0.457100	0.252400	0.461390
C251	C25	0.489000	0.247700	0.489630
C261	C26	0.425100	0.288700	0.457820
H301	H30	0.421300	0.312200	0.473600
C271	C27	0.397700	0.291600	0.431200
H311	H31	0.375500	0.317700	0.428600
C281	C28	0.506400	0.268600	0.541570
H321	H32	0.497000	0.285500	0.559700
C291	C29	0.475700	0.268500	0.516700
H331	H33	0.444700	0.283300	0.518400
C301	C30	0.531700	0.223400	0.488800
H341	H34	0.541400	0.206400	0.470800
C311	C31	0.561600	0.223700	0.515060
H351	H35	0.592000	0.207600	0.514200
N11	N1	0.402200	0.258400	0.409040
N21	N2	0.548600	0.245900	0.541150
O11	O1	0.385000	0.453300	0.382000
O21	O2	0.355720	0.367030	0.380720
O31	O3	0.316300	0.429300	0.347660
O41	O4	0.304700	0.432700	0.404890
O51	O5	0.262900	0.260100	0.288830
O61	O6	0.301300	0.281130	0.338460
O71	O7	0.263200	0.346260	0.306740
O81	O8	0.210500	0.285000	0.333120
O91	O9	0.376400	0.263500	0.383160
P11	P1	0.335920	0.417910	0.378710
P21	P2	0.258890	0.296180	0.319240
Zn11	Zn1	0.316480	0.308630	0.378070
Zn21	Zn2	0.256240	0.405630	0.330490
C321	C32	0.356500	0.542800	0.355500
H361	H36	0.359100	0.510700	0.345000
C331	C33	0.303100	0.558800	0.356000
H371	H37	0.291500	0.562800	0.334800
H381	H38	0.300200	0.589700	0.366900
H391	H39	0.283600	0.534100	0.366400
C341	C34	0.393100	0.579100	0.340400
H401	H40	0.426200	0.566800	0.343000
H411	H41	0.390300	0.610800	0.350500
H421	H42	0.385700	0.582400	0.318500
C351	C35	0.721400	0.739700	0.776540
C361	C36	0.700200	0.758900	0.750410
C371	C37	0.661500	0.735400	0.736700
H431	H43	0.646900	0.748600	0.718800
C381	C38	0.644000	0.692600	0.749100
H441	H44	0.617500	0.676400	0.739700
C391	C39	0.665300	0.673300	0.775200
H451	H45	0.653300	0.644000	0.783700
C401	C40	0.704000	0.696900	0.789000
C411	C41	0.727300	0.668100	0.817500
H461	H46	0.756200	0.688300	0.822900
C421	C42	0.704600	0.656600	0.849200
H471	H47	0.728800	0.640400	0.862200
H481	H48	0.676600	0.635200	0.846400
H491	H49	0.694200	0.686800	0.859000
C431	C43	0.749900	0.623600	0.802000
H501	H50	0.768200	0.604900	0.817300
H511	H51	0.771800	0.634200	0.785500
H521	H52	0.724200	0.603300	0.793300
C441	C44	0.721000	0.804900	0.736800
H531	H53	0.754300	0.813100	0.744300
C451	C45	0.684000	0.843900	0.742300
H541	H54	0.677800	0.846800	0.764400
H551	H55	0.653800	0.835500	0.731700
H561	H56	0.696200	0.874800	0.734400
C461	C46	0.717500	0.799200	0.701700
H571	H57	0.741200	0.775100	0.694700
H581	H58	0.724200	0.830400	0.691800
H591	H59	0.684800	0.788400	0.696200
C471	C47	0.885700	0.993770	0.900650
C481	C48	0.871800	0.037400	0.888980
C491	C49	0.872400	0.077500	0.907120
H601	H60	0.862700	0.107900	0.899000
C501	C50	0.886900	0.074100	0.936940
H611	H61	0.887400	0.102100	0.949600
C511	C51	0.900900	0.030500	0.948620
H621	H62	0.911000	0.028100	0.969400
C521	C52	0.900300	0.990350	0.930470
C531	C53	0.915800	0.941400	0.942700
H631	H63	0.908300	0.915400	0.927400
C541	C54	0.894300	0.928800	0.974100
H641	H64	0.858900	0.928500	0.972600
H651	H65	0.904500	0.953100	0.989200
H661	H66	0.905900	0.896700	0.980500
C551	C55	0.967000	0.936300	0.954200
H671	H67	0.972300	0.903000	0.961200
H681	H68	0.972300	0.958800	0.971300
H691	H69	0.989700	0.943800	0.937500
C561	C56	0.931600	0.720900	0.912500
H701	H70	0.932400	0.696300	0.897300
C571	C57	0.961000	0.716900	0.937700
H711	H71	0.983600	0.691000	0.939400
C581	C58	0.957100	0.752400	0.961390
C591	C59	0.989000	0.747700	0.989630
C601	C60	0.925100	0.788700	0.957820
H721	H72	0.921300	0.812200	0.973600
C611	C61	0.897700	0.791600	0.931200
H731	H73	0.875500	0.817700	0.928600
C621	C62	0.006400	0.768600	0.041570
H741	H74	0.997000	0.785500	0.059700
C631	C63	0.975700	0.768500	0.016700
H751	H75	0.944700	0.783300	0.018400
C641	C64	0.031700	0.723400	0.988800
H761	H76	0.041400	0.706400	0.970800
C651	C65	0.061600	0.723700	0.015060
H771	H77	0.092000	0.707600	0.014200
N31	N3	0.902200	0.758400	0.909040
N41	N4	0.048600	0.745900	0.041150
O101	O10	0.885000	0.953300	0.882000
O111	O11	0.855720	0.867030	0.880720
O121	O12	0.816300	0.929300	0.847660
O131	O13	0.804700	0.932700	0.904890
O141	O14	0.762900	0.760100	0.788830
O151	O15	0.801300	0.781130	0.838460
O161	O16	0.763200	0.846260	0.806740
O171	O17	0.710500	0.785000	0.833120
O181	O18	0.876400	0.763500	0.883160
P31	P3	0.835920	0.917910	0.878710
P41	P4	0.758890	0.796180	0.819240
Zn31	Zn3	0.816480	0.808630	0.878070
Zn41	Zn4	0.756240	0.905630	0.830490
C661	C66	0.856500	0.042800	0.855500
H781	H78	0.859100	0.010700	0.845000
C671	C67	0.803100	0.058800	0.856000
H791	H79	0.791500	0.062800	0.834800
H801	H80	0.800200	0.089700	0.866900
H811	H81	0.783600	0.034100	0.866400
C681	C68	0.893100	0.079100	0.840400
H821	H82	0.926200	0.066800	0.843000
H831	H83	0.890300	0.110800	0.850500
H841	H84	0.885700	0.082400	0.818500
C691	C69	0.778600	0.760300	0.276540
C701	C70	0.799800	0.741100	0.250410
C711	C71	0.838500	0.764600	0.236700
H851	H85	0.853100	0.751400	0.218800
C721	C72	0.856000	0.807400	0.249100
H861	H86	0.882500	0.823600	0.239700
C731	C73	0.834700	0.826700	0.275200
H871	H87	0.846700	0.856000	0.283700
C741	C74	0.796000	0.803100	0.289000
C751	C75	0.772700	0.831900	0.317500
H881	H88	0.743800	0.811700	0.322900
C761	C76	0.795400	0.843400	0.349200
H891	H89	0.771200	0.859600	0.362200
H901	H90	0.823400	0.864800	0.346400
H911	H91	0.805800	0.813200	0.359000
C771	C77	0.750100	0.876400	0.302000
H921	H92	0.731800	0.895100	0.317300
H931	H93	0.728200	0.865800	0.285500
H941	H94	0.775800	0.896700	0.293300
C781	C78	0.779000	0.695100	0.236800
H951	H95	0.745700	0.686900	0.244300
C791	C79	0.816000	0.656100	0.242300
H961	H96	0.822200	0.653200	0.264400
H971	H97	0.846200	0.664500	0.231700
H981	H98	0.803800	0.625200	0.234400
C801	C80	0.782500	0.700800	0.201700
H991	H99	0.758800	0.724900	0.194700
H1001	H100	0.775800	0.669600	0.191800
H1011	H101	0.815200	0.711600	0.196200
C811	C81	0.614300	0.506230	0.400650
C821	C82	0.628200	0.462600	0.388980
C831	C83	0.627600	0.422500	0.407120
H1021	H102	0.637300	0.392100	0.399000
C841	C84	0.613100	0.425900	0.436940
H1031	H103	0.612600	0.397900	0.449600
C851	C85	0.599100	0.469500	0.448620
H1041	H104	0.589000	0.471900	0.469400
C861	C86	0.599700	0.509650	0.430470
C871	C87	0.584200	0.558600	0.442700
H1051	H105	0.591700	0.584600	0.427400
C881	C88	0.605700	0.571200	0.474100
H1061	H106	0.641100	0.571500	0.472600
H1071	H107	0.595500	0.546900	0.489200
H1081	H108	0.594100	0.603300	0.480500
C891	C89	0.533000	0.563700	0.454200
H1091	H109	0.527700	0.597000	0.461200
H1101	H110	0.527700	0.541200	0.471300
H1111	H111	0.510300	0.556200	0.437500
C901	C90	0.568400	0.779100	0.412500
H1121	H112	0.567600	0.803700	0.397300
C911	C91	0.539000	0.783100	0.437700
H1131	H113	0.516400	0.809000	0.439400
C921	C92	0.542900	0.747600	0.461390
C931	C93	0.511000	0.752300	0.489630
C941	C94	0.574900	0.711300	0.457820
H1141	H114	0.578700	0.687800	0.473600
C951	C95	0.602300	0.708400	0.431200
H1151	H115	0.624500	0.682300	0.428600
C961	C96	0.493600	0.731400	0.541570
H1161	H116	0.503000	0.714500	0.559700
C971	C97	0.524300	0.731500	0.516700
H1171	H117	0.555300	0.716700	0.518400
C981	C98	0.468300	0.776600	0.488800
H1181	H118	0.458600	0.793600	0.470800
C991	C99	0.438400	0.776300	0.515060
H1191	H119	0.408000	0.792400	0.514200
N51	N5	0.597800	0.741600	0.409040
N61	N6	0.451400	0.754100	0.541150
O191	O19	0.615000	0.546700	0.382000
O201	O20	0.644280	0.632970	0.380720
O211	O21	0.683700	0.570700	0.347660
O221	O22	0.695300	0.567300	0.404890
O231	O23	0.737100	0.739900	0.288830
O241	O24	0.698700	0.718870	0.338460
O251	O25	0.736800	0.653740	0.306740
O261	O26	0.789500	0.715000	0.333120
O271	O27	0.623600	0.736500	0.383160
P51	P5	0.664080	0.582090	0.378710
P61	P6	0.741110	0.703820	0.319240
Zn51	Zn5	0.683520	0.691370	0.378070
Zn61	Zn6	0.743760	0.594370	0.330490
C1001	C100	0.643500	0.457200	0.355500
H1201	H120	0.640900	0.489300	0.345000
C1011	C101	0.696900	0.441200	0.356000
H1211	H121	0.708500	0.437200	0.334800
H1221	H122	0.699800	0.410300	0.366900
H1231	H123	0.716400	0.465900	0.366400
C1021	C102	0.606900	0.420900	0.340400
H1241	H124	0.573800	0.433200	0.343000
H1251	H125	0.609700	0.389200	0.350500
H1261	H126	0.614300	0.417600	0.318500
C1031	C103	0.278600	0.260300	0.776540
C1041	C104	0.299800	0.241100	0.750410
C1051	C105	0.338500	0.264600	0.736700
H1271	H127	0.353100	0.251400	0.718800
C1061	C106	0.356000	0.307400	0.749100
H1281	H128	0.382500	0.323600	0.739700
C1071	C107	0.334700	0.326700	0.775200
H1291	H129	0.346700	0.356000	0.783700
C1081	C108	0.296000	0.303100	0.789000
C1091	C109	0.272700	0.331900	0.817500
H1301	H130	0.243800	0.311700	0.822900
C1101	C110	0.295400	0.343400	0.849200
H1311	H131	0.271200	0.359600	0.862200
H1321	H132	0.323400	0.364800	0.846400
H1331	H133	0.305800	0.313200	0.859000
C1111	C111	0.250100	0.376400	0.802000
H1341	H134	0.231800	0.395100	0.817300
H1351	H135	0.228200	0.365800	0.785500
H1361	H136	0.275800	0.396700	0.793300
C1121	C112	0.279000	0.195100	0.736800
H1371	H137	0.245700	0.186900	0.744300
C1131	C113	0.316000	0.156100	0.742300
H1381	H138	0.322200	0.153200	0.764400
H1391	H139	0.346200	0.164500	0.731700
H1401	H140	0.303800	0.125200	0.734400
C1141	C114	0.282500	0.200800	0.701700
H1411	H141	0.258800	0.224900	0.694700
H1421	H142	0.275800	0.169600	0.691800
H1431	H143	0.315200	0.211600	0.696200
C1151	C115	0.114300	0.006230	0.900650
C1161	C116	0.128200	0.962600	0.888980
C1171	C117	0.127600	0.922500	0.907120
H1441	H144	0.137300	0.892100	0.899000
C1181	C118	0.113100	0.925900	0.936940
H1451	H145	0.112600	0.897900	0.949600
C1191	C119	0.099100	0.969500	0.948620
H1461	H146	0.089000	0.971900	0.969400
C1201	C120	0.099700	0.009650	0.930470
C1211	C121	0.084200	0.058600	0.942700
H1471	H147	0.091700	0.084600	0.927400
C1221	C122	0.105700	0.071200	0.974100
H1481	H148	0.141100	0.071500	0.972600
H1491	H149	0.095500	0.046900	0.989200
H1501	H150	0.094100	0.103300	0.980500
C1231	C123	0.033000	0.063700	0.954200
H1511	H151	0.027700	0.097000	0.961200
H1521	H152	0.027700	0.041200	0.971300
H1531	H153	0.010300	0.056200	0.937500
C1241	C124	0.068400	0.279100	0.912500
H1541	H154	0.067600	0.303700	0.897300
C1251	C125	0.039000	0.283100	0.937700
H1551	H155	0.016400	0.309000	0.939400
C1261	C126	0.042900	0.247600	0.961390
C1271	C127	0.011000	0.252300	0.989630
C1281	C128	0.074900	0.211300	0.957820
H1561	H156	0.078700	0.187800	0.973600
C1291	C129	0.102300	0.208400	0.931200
H1571	H157	0.124500	0.182300	0.928600
C1301	C130	0.993600	0.231400	0.041570
H1581	H158	0.003000	0.214500	0.059700
C1311	C131	0.024300	0.231500	0.016700
H1591	H159	0.055300	0.216700	0.018400
C1321	C132	0.968300	0.276600	0.988800
H1601	H160	0.958600	0.293600	0.970800
C1331	C133	0.938400	0.276300	0.015060
H1611	H161	0.908000	0.292400	0.014200
N71	N7	0.097800	0.241600	0.909040
N81	N8	0.951400	0.254100	0.041150
O281	O28	0.115000	0.046700	0.882000
O291	O29	0.144280	0.132970	0.880720
O301	O30	0.183700	0.070700	0.847660
O311	O31	0.195300	0.067300	0.904890
O321	O32	0.237100	0.239900	0.788830
O331	O33	0.198700	0.218870	0.838460
O341	O34	0.236800	0.153740	0.806740
O351	O35	0.289500	0.215000	0.833120
O361	O36	0.123600	0.236500	0.883160
P71	P7	0.164080	0.082090	0.878710
P81	P8	0.241110	0.203820	0.819240
Zn71	Zn7	0.183520	0.191370	0.878070
Zn81	Zn8	0.243760	0.094370	0.830490
C1341	C134	0.143500	0.957200	0.855500
H1621	H162	0.140900	0.989300	0.845000
C1351	C135	0.196900	0.941200	0.856000
H1631	H163	0.208500	0.937200	0.834800
H1641	H164	0.199800	0.910300	0.866900
H1651	H165	0.216400	0.965900	0.866400
C1361	C136	0.106900	0.920900	0.840400
H1661	H166	0.073800	0.933200	0.843000
H1671	H167	0.109700	0.889200	0.850500
H1681	H168	0.114300	0.917600	0.818500
C1371	C137	0.239700	0.778600	0.723460
C1381	C138	0.258900	0.799800	0.749590
C1391	C139	0.235400	0.838500	0.763300
H1691	H169	0.248600	0.853100	0.781200
C1401	C140	0.192600	0.856000	0.750900
H1701	H170	0.176400	0.882500	0.760300
C1411	C141	0.173300	0.834700	0.724800
H1711	H171	0.144000	0.846700	0.716300
C1421	C142	0.196900	0.796000	0.711000
C1431	C143	0.168100	0.772700	0.682500
H1721	H172	0.188300	0.743800	0.677100
C1441	C144	0.156600	0.795400	0.650800
H1731	H173	0.140400	0.771200	0.637800
H1741	H174	0.135200	0.823400	0.653600
H1751	H175	0.186800	0.805800	0.641000
C1451	C145	0.123600	0.750100	0.698000
H1761	H176	0.104900	0.731800	0.682700
H1771	H177	0.134200	0.728200	0.714500
H1781	H178	0.103300	0.775800	0.706700
C1461	C146	0.304900	0.779000	0.763200
H1791	H179	0.313100	0.745700	0.755700
C1471	C147	0.343900	0.816000	0.757700
H1801	H180	0.346800	0.822200	0.735600
H1811	H181	0.335500	0.846200	0.768300
H1821	H182	0.374800	0.803800	0.765600
C1481	C148	0.299200	0.782500	0.798300
H1831	H183	0.275100	0.758800	0.805300
H1841	H184	0.330400	0.775800	0.808200
H1851	H185	0.288400	0.815200	0.803800
C1491	C149	0.493770	0.614300	0.599350
C1501	C150	0.537400	0.628200	0.611020
C1511	C151	0.577500	0.627600	0.592880
H1861	H186	0.607900	0.637300	0.601000
C1521	C152	0.574100	0.613100	0.563060
H1871	H187	0.602100	0.612600	0.550400
C1531	C153	0.530500	0.599100	0.551380
H1881	H188	0.528100	0.589000	0.530600
C1541	C154	0.490350	0.599700	0.569530
C1551	C155	0.441400	0.584200	0.557300
H1891	H189	0.415400	0.591700	0.572600
C1561	C156	0.428800	0.605700	0.525900
H1901	H190	0.428500	0.641100	0.527400
H1911	H191	0.453100	0.595500	0.510800
H1921	H192	0.396700	0.594100	0.519500
C1571	C157	0.436300	0.533000	0.545800
H1931	H193	0.403000	0.527700	0.538800
H1941	H194	0.458800	0.527700	0.528700
H1951	H195	0.443800	0.510300	0.562500
C1581	C158	0.220900	0.568400	0.587500
H1961	H196	0.196300	0.567600	0.602700
C1591	C159	0.216900	0.539000	0.562300
H1971	H197	0.191000	0.516400	0.560600
C1601	C160	0.252400	0.542900	0.538610
C1611	C161	0.247700	0.511000	0.510370
C1621	C162	0.288700	0.574900	0.542180
H1981	H198	0.312200	0.578700	0.526400
C1631	C163	0.291600	0.602300	0.568800
H1991	H199	0.317700	0.624500	0.571400
C1641	C164	0.268600	0.493600	0.458430
H2001	H200	0.285500	0.503000	0.440300
C1651	C165	0.268500	0.524300	0.483300
H2011	H201	0.283300	0.555300	0.481600
C1661	C166	0.223400	0.468300	0.511200
H2021	H202	0.206400	0.458600	0.529200
C1671	C167	0.223700	0.438400	0.484940
H2031	H203	0.207600	0.408000	0.485800
N91	N9	0.258400	0.597800	0.590960
N101	N10	0.245900	0.451400	0.458850
O371	O37	0.453300	0.615000	0.618000
O381	O38	0.367030	0.644280	0.619280
O391	O39	0.429300	0.683700	0.652340
O401	O40	0.432700	0.695300	0.595110
O411	O41	0.260100	0.737100	0.711170
O421	O42	0.281130	0.698700	0.661540
O431	O43	0.346260	0.736800	0.693260
O441	O44	0.285000	0.789500	0.666880
O451	O45	0.263500	0.623600	0.616840
P91	P9	0.417910	0.664080	0.621290
P101	P10	0.296180	0.741110	0.680760
Zn91	Zn9	0.308630	0.683520	0.621930
Zn101	Zn10	0.405630	0.743760	0.669510
C1681	C168	0.542800	0.643500	0.644500
H2041	H204	0.510700	0.640900	0.655000
C1691	C169	0.558800	0.696900	0.644000
H2051	H205	0.562800	0.708500	0.665200
H2061	H206	0.589700	0.699800	0.633100
H2071	H207	0.534100	0.716400	0.633600
C1701	C170	0.579100	0.606900	0.659600
H2081	H208	0.566800	0.573800	0.657000
H2091	H209	0.610800	0.609700	0.649500
H2101	H210	0.582400	0.614300	0.681500
C1711	C171	0.739700	0.278600	0.223460
C1721	C172	0.758900	0.299800	0.249590
C1731	C173	0.735400	0.338500	0.263300
H2111	H211	0.748600	0.353100	0.281200
C1741	C174	0.692600	0.356000	0.250900
H2121	H212	0.676400	0.382500	0.260300
C1751	C175	0.673300	0.334700	0.224800
H2131	H213	0.644000	0.346700	0.216300
C1761	C176	0.696900	0.296000	0.211000
C1771	C177	0.668100	0.272700	0.182500
H2141	H214	0.688300	0.243800	0.177100
C1781	C178	0.656600	0.295400	0.150800
H2151	H215	0.640400	0.271200	0.137800
H2161	H216	0.635200	0.323400	0.153600
H2171	H217	0.686800	0.305800	0.141000
C1791	C179	0.623600	0.250100	0.198000
H2181	H218	0.604900	0.231800	0.182700
H2191	H219	0.634200	0.228200	0.214500
H2201	H220	0.603300	0.275800	0.206700
C1801	C180	0.804900	0.279000	0.263200
H2211	H221	0.813100	0.245700	0.255700
C1811	C181	0.843900	0.316000	0.257700
H2221	H222	0.846800	0.322200	0.235600
H2231	H223	0.835500	0.346200	0.268300
H2241	H224	0.874800	0.303800	0.265600
C1821	C182	0.799200	0.282500	0.298300
H2251	H225	0.775100	0.258800	0.305300
H2261	H226	0.830400	0.275800	0.308200
H2271	H227	0.788400	0.315200	0.303800
C1831	C183	0.993770	0.114300	0.099350
C1841	C184	0.037400	0.128200	0.111020
C1851	C185	0.077500	0.127600	0.092880
H2281	H228	0.107900	0.137300	0.101000
C1861	C186	0.074100	0.113100	0.063060
H2291	H229	0.102100	0.112600	0.050400
C1871	C187	0.030500	0.099100	0.051380
H2301	H230	0.028100	0.089000	0.030600
C1881	C188	0.990350	0.099700	0.069530
C1891	C189	0.941400	0.084200	0.057300
H2311	H231	0.915400	0.091700	0.072600
C1901	C190	0.928800	0.105700	0.025900
H2321	H232	0.928500	0.141100	0.027400
H2331	H233	0.953100	0.095500	0.010800
H2341	H234	0.896700	0.094100	0.019500
C1911	C191	0.936300	0.033000	0.045800
H2351	H235	0.903000	0.027700	0.038800
H2361	H236	0.958800	0.027700	0.028700
H2371	H237	0.943800	0.010300	0.062500
C1921	C192	0.720900	0.068400	0.087500
H2381	H238	0.696300	0.067600	0.102700
C1931	C193	0.716900	0.039000	0.062300
H2391	H239	0.691000	0.016400	0.060600
C1941	C194	0.752400	0.042900	0.038610
C1951	C195	0.747700	0.011000	0.010370
C1961	C196	0.788700	0.074900	0.042180
H2401	H240	0.812200	0.078700	0.026400
C1971	C197	0.791600	0.102300	0.068800
H2411	H241	0.817700	0.124500	0.071400
C1981	C198	0.768600	0.993600	0.958430
H2421	H242	0.785500	0.003000	0.940300
C1991	C199	0.768500	0.024300	0.983300
H2431	H243	0.783300	0.055300	0.981600
C2001	C200	0.723400	0.968300	0.011200
H2441	H244	0.706400	0.958600	0.029200
C2011	C201	0.723700	0.938400	0.984940
H2451	H245	0.707600	0.908000	0.985800
N111	N11	0.758400	0.097800	0.090960
N121	N12	0.745900	0.951400	0.958850
O461	O46	0.953300	0.115000	0.118000
O471	O47	0.867030	0.144280	0.119280
O481	O48	0.929300	0.183700	0.152340
O491	O49	0.932700	0.195300	0.095110
O501	O50	0.760100	0.237100	0.211170
O511	O51	0.781130	0.198700	0.161540
O521	O52	0.846260	0.236800	0.193260
O531	O53	0.785000	0.289500	0.166880
O541	O54	0.763500	0.123600	0.116840
P111	P11	0.917910	0.164080	0.121290
P121	P12	0.796180	0.241110	0.180760
Zn111	Zn11	0.808630	0.183520	0.121930
Zn121	Zn12	0.905630	0.243760	0.169510
C2021	C202	0.042800	0.143500	0.144500
H2461	H246	0.010700	0.140900	0.155000
C2031	C203	0.058800	0.196900	0.144000
H2471	H247	0.062800	0.208500	0.165200
H2481	H248	0.089700	0.199800	0.133100
H2491	H249	0.034100	0.216400	0.133600
C2041	C204	0.079100	0.106900	0.159600
H2501	H250	0.066800	0.073800	0.157000
H2511	H251	0.110800	0.109700	0.149500
H2521	H252	0.082400	0.114300	0.181500
C2051	C205	0.760300	0.221400	0.723460
C2061	C206	0.741100	0.200200	0.749590
C2071	C207	0.764600	0.161500	0.763300
H2531	H253	0.751400	0.146900	0.781200
C2081	C208	0.807400	0.144000	0.750900
H2541	H254	0.823600	0.117500	0.760300
C2091	C209	0.826700	0.165300	0.724800
H2551	H255	0.856000	0.153300	0.716300
C2101	C210	0.803100	0.204000	0.711000
C2111	C211	0.831900	0.227300	0.682500
H2561	H256	0.811700	0.256200	0.677100
C2121	C212	0.843400	0.204600	0.650800
H2571	H257	0.859600	0.228800	0.637800
H2581	H258	0.864800	0.176600	0.653600
H2591	H259	0.813200	0.194200	0.641000
C2131	C213	0.876400	0.249900	0.698000
H2601	H260	0.895100	0.268200	0.682700
H2611	H261	0.865800	0.271800	0.714500
H2621	H262	0.896700	0.224200	0.706700
C2141	C214	0.695100	0.221000	0.763200
H2631	H263	0.686900	0.254300	0.755700
C2151	C215	0.656100	0.184000	0.757700
H2641	H264	0.653200	0.177800	0.735600
H2651	H265	0.664500	0.153800	0.768300
H2661	H266	0.625200	0.196200	0.765600
C2161	C216	0.700800	0.217500	0.798300
H2671	H267	0.724900	0.241200	0.805300
H2681	H268	0.669600	0.224200	0.808200
H2691	H269	0.711600	0.184800	0.803800
C2171	C217	0.506230	0.385700	0.599350
C2181	C218	0.462600	0.371800	0.611020
C2191	C219	0.422500	0.372400	0.592880
H2701	H270	0.392100	0.362700	0.601000
C2201	C220	0.425900	0.386900	0.563060
H2711	H271	0.397900	0.387400	0.550400
C2211	C221	0.469500	0.400900	0.551380
H2721	H272	0.471900	0.411000	0.530600
C2221	C222	0.509650	0.400300	0.569530
C2231	C223	0.558600	0.415800	0.557300
H2731	H273	0.584600	0.408300	0.572600
C2241	C224	0.571200	0.394300	0.525900
H2741	H274	0.571500	0.358900	0.527400
H2751	H275	0.546900	0.404500	0.510800
H2761	H276	0.603300	0.405900	0.519500
C2251	C225	0.563700	0.467000	0.545800
H2771	H277	0.597000	0.472300	0.538800
H2781	H278	0.541200	0.472300	0.528700
H2791	H279	0.556200	0.489700	0.562500
C2261	C226	0.779100	0.431600	0.587500
H2801	H280	0.803700	0.432400	0.602700
C2271	C227	0.783100	0.461000	0.562300
H2811	H281	0.809000	0.483600	0.560600
C2281	C228	0.747600	0.457100	0.538610
C2291	C229	0.752300	0.489000	0.510370
C2301	C230	0.711300	0.425100	0.542180
H2821	H282	0.687800	0.421300	0.526400
C2311	C231	0.708400	0.397700	0.568800
H2831	H283	0.682300	0.375500	0.571400
C2321	C232	0.731400	0.506400	0.458430
H2841	H284	0.714500	0.497000	0.440300
C2331	C233	0.731500	0.475700	0.483300
H2851	H285	0.716700	0.444700	0.481600
C2341	C234	0.776600	0.531700	0.511200
H2861	H286	0.793600	0.541400	0.529200
C2351	C235	0.776300	0.561600	0.484940
H2871	H287	0.792400	0.592000	0.485800
N131	N13	0.741600	0.402200	0.590960
N141	N14	0.754100	0.548600	0.458850
O551	O55	0.546700	0.385000	0.618000
O561	O56	0.632970	0.355720	0.619280
O571	O57	0.570700	0.316300	0.652340
O581	O58	0.567300	0.304700	0.595110
O591	O59	0.739900	0.262900	0.711170
O601	O60	0.718870	0.301300	0.661540
O611	O61	0.653740	0.263200	0.693260
O621	O62	0.715000	0.210500	0.666880
O631	O63	0.736500	0.376400	0.616840
P131	P13	0.582090	0.335920	0.621290
P141	P14	0.703820	0.258890	0.680760
Zn131	Zn13	0.691370	0.316480	0.621930
Zn141	Zn14	0.594370	0.256240	0.669510
C2361	C236	0.457200	0.356500	0.644500
H2881	H288	0.489300	0.359100	0.655000
C2371	C237	0.441200	0.303100	0.644000
H2891	H289	0.437200	0.291500	0.665200
H2901	H290	0.410300	0.300200	0.633100
H2911	H291	0.465900	0.283600	0.633600
C2381	C238	0.420900	0.393100	0.659600
H2921	H292	0.433200	0.426200	0.657000
H2931	H293	0.389200	0.390300	0.649500
H2941	H294	0.417600	0.385700	0.681500
C2391	C239	0.260300	0.721400	0.223460
C2401	C240	0.241100	0.700200	0.249590
C2411	C241	0.264600	0.661500	0.263300
H2951	H295	0.251400	0.646900	0.281200
C2421	C242	0.307400	0.644000	0.250900
H2961	H296	0.323600	0.617500	0.260300
C2431	C243	0.326700	0.665300	0.224800
H2971	H297	0.356000	0.653300	0.216300
C2441	C244	0.303100	0.704000	0.211000
C2451	C245	0.331900	0.727300	0.182500
H2981	H298	0.311700	0.756200	0.177100
C2461	C246	0.343400	0.704600	0.150800
H2991	H299	0.359600	0.728800	0.137800
H3001	H300	0.364800	0.676600	0.153600
H3011	H301	0.313200	0.694200	0.141000
C2471	C247	0.376400	0.749900	0.198000
H3021	H302	0.395100	0.768200	0.182700
H3031	H303	0.365800	0.771800	0.214500
H3041	H304	0.396700	0.724200	0.206700
C2481	C248	0.195100	0.721000	0.263200
H3051	H305	0.186900	0.754300	0.255700
C2491	C249	0.156100	0.684000	0.257700
H3061	H306	0.153200	0.677800	0.235600
H3071	H307	0.164500	0.653800	0.268300
H3081	H308	0.125200	0.696200	0.265600
C2501	C250	0.200800	0.717500	0.298300
H3091	H309	0.224900	0.741200	0.305300
H3101	H310	0.169600	0.724200	0.308200
H3111	H311	0.211600	0.684800	0.303800
C2511	C251	0.006230	0.885700	0.099350
C2521	C252	0.962600	0.871800	0.111020
C2531	C253	0.922500	0.872400	0.092880
H3121	H312	0.892100	0.862700	0.101000
C2541	C254	0.925900	0.886900	0.063060
H3131	H313	0.897900	0.887400	0.050400
C2551	C255	0.969500	0.900900	0.051380
H3141	H314	0.971900	0.911000	0.030600
C2561	C256	0.009650	0.900300	0.069530
C2571	C257	0.058600	0.915800	0.057300
H3151	H315	0.084600	0.908300	0.072600
C2581	C258	0.071200	0.894300	0.025900
H3161	H316	0.071500	0.858900	0.027400
H3171	H317	0.046900	0.904500	0.010800
H3181	H318	0.103300	0.905900	0.019500
C2591	C259	0.063700	0.967000	0.045800
H3191	H319	0.097000	0.972300	0.038800
H3201	H320	0.041200	0.972300	0.028700
H3211	H321	0.056200	0.989700	0.062500
C2601	C260	0.279100	0.931600	0.087500
H3221	H322	0.303700	0.932400	0.102700
C2611	C261	0.283100	0.961000	0.062300
H3231	H323	0.309000	0.983600	0.060600
C2621	C262	0.247600	0.957100	0.038610
C2631	C263	0.252300	0.989000	0.010370
C2641	C264	0.211300	0.925100	0.042180
H3241	H324	0.187800	0.921300	0.026400
C2651	C265	0.208400	0.897700	0.068800
H3251	H325	0.182300	0.875500	0.071400
C2661	C266	0.231400	0.006400	0.958430
H3261	H326	0.214500	0.997000	0.940300
C2671	C267	0.231500	0.975700	0.983300
H3271	H327	0.216700	0.944700	0.981600
C2681	C268	0.276600	0.031700	0.011200
H3281	H328	0.293600	0.041400	0.029200
C2691	C269	0.276300	0.061600	0.984940
H3291	H329	0.292400	0.092000	0.985800
N151	N15	0.241600	0.902200	0.090960
N161	N16	0.254100	0.048600	0.958850
O641	O64	0.046700	0.885000	0.118000
O651	O65	0.132970	0.855720	0.119280
O661	O66	0.070700	0.816300	0.152340
O671	O67	0.067300	0.804700	0.095110
O681	O68	0.239900	0.762900	0.211170
O691	O69	0.218870	0.801300	0.161540
O701	O70	0.153740	0.763200	0.193260
O711	O71	0.215000	0.710500	0.166880
O721	O72	0.236500	0.876400	0.116840
P151	P15	0.082090	0.835920	0.121290
P161	P16	0.203820	0.758890	0.180760
Zn151	Zn15	0.191370	0.816480	0.121930
Zn161	Zn16	0.094370	0.756240	0.169510
C2701	C270	0.957200	0.856500	0.144500
H3301	H330	0.989300	0.859100	0.155000
C2711	C271	0.941200	0.803100	0.144000
H3311	H331	0.937200	0.791500	0.165200
H3321	H332	0.910300	0.800200	0.133100
H3331	H333	0.965900	0.783600	0.133600
C2721	C272	0.920900	0.893100	0.159600
H3341	H334	0.933200	0.926200	0.157000
H3351	H335	0.889200	0.890300	0.149500
H3361	H336	0.917600	0.885700	0.181500
C2731	C273	0.278600	0.239700	0.473460
C2741	C274	0.299800	0.258900	0.499590
C2751	C275	0.338500	0.235400	0.513300
H3371	H337	0.353100	0.248600	0.531200
C2761	C276	0.356000	0.192600	0.500900
H3381	H338	0.382500	0.176400	0.510300
C2771	C277	0.334700	0.173300	0.474800
H3391	H339	0.346700	0.144000	0.466300
C2781	C278	0.296000	0.196900	0.461000
C2791	C279	0.272700	0.168100	0.432500
H3401	H340	0.243800	0.188300	0.427100
C2801	C280	0.295400	0.156600	0.400800
H3411	H341	0.271200	0.140400	0.387800
H3421	H342	0.323400	0.135200	0.403600
H3431	H343	0.305800	0.186800	0.391000
C2811	C281	0.250100	0.123600	0.448000
H3441	H344	0.231800	0.104900	0.432700
H3451	H345	0.228200	0.134200	0.464500
H3461	H346	0.275800	0.103300	0.456700
C2821	C282	0.279000	0.304900	0.513200
H3471	H347	0.245700	0.313100	0.505700
C2831	C283	0.316000	0.343900	0.507700
H3481	H348	0.322200	0.346800	0.485600
H3491	H349	0.346200	0.335500	0.518300
H3501	H350	0.303800	0.374800	0.515600
C2841	C284	0.282500	0.299200	0.548300
H3511	H351	0.258800	0.275100	0.555300
H3521	H352	0.275800	0.330400	0.558200
H3531	H353	0.315200	0.288400	0.553800
C2851	C285	0.114300	0.493770	0.349350
C2861	C286	0.128200	0.537400	0.361020
C2871	C287	0.127600	0.577500	0.342880
H3541	H354	0.137300	0.607900	0.351000
C2881	C288	0.113100	0.574100	0.313060
H3551	H355	0.112600	0.602100	0.300400
C2891	C289	0.099100	0.530500	0.301380
H3561	H356	0.089000	0.528100	0.280600
C2901	C290	0.099700	0.490350	0.319530
C2911	C291	0.084200	0.441400	0.307300
H3571	H357	0.091700	0.415400	0.322600
C2921	C292	0.105700	0.428800	0.275900
H3581	H358	0.141100	0.428500	0.277400
H3591	H359	0.095500	0.453100	0.260800
H3601	H360	0.094100	0.396700	0.269500
C2931	C293	0.033000	0.436300	0.295800
H3611	H361	0.027700	0.403000	0.288800
H3621	H362	0.027700	0.458800	0.278700
H3631	H363	0.010300	0.443800	0.312500
C2941	C294	0.068400	0.220900	0.337500
H3641	H364	0.067600	0.196300	0.352700
C2951	C295	0.039000	0.216900	0.312300
H3651	H365	0.016400	0.191000	0.310600
C2961	C296	0.042900	0.252400	0.288610
C2971	C297	0.011000	0.247700	0.260370
C2981	C298	0.074900	0.288700	0.292180
H3661	H366	0.078700	0.312200	0.276400
C2991	C299	0.102300	0.291600	0.318800
H3671	H367	0.124500	0.317700	0.321400
C3001	C300	0.993600	0.268600	0.208430
H3681	H368	0.003000	0.285500	0.190300
C3011	C301	0.024300	0.268500	0.233300
H3691	H369	0.055300	0.283300	0.231600
C3021	C302	0.968300	0.223400	0.261200
H3701	H370	0.958600	0.206400	0.279200
C3031	C303	0.938400	0.223700	0.234940
H3711	H371	0.908000	0.207600	0.235800
N171	N17	0.097800	0.258400	0.340960
N181	N18	0.951400	0.245900	0.208850
O731	O73	0.115000	0.453300	0.368000
O741	O74	0.144280	0.367030	0.369280
O751	O75	0.183700	0.429300	0.402340
O761	O76	0.195300	0.432700	0.345110
O771	O77	0.237100	0.260100	0.461170
O781	O78	0.198700	0.281130	0.411540
O791	O79	0.236800	0.346260	0.443260
O801	O80	0.289500	0.285000	0.416880
O811	O81	0.123600	0.263500	0.366840
P171	P17	0.164080	0.417910	0.371290
P181	P18	0.241110	0.296180	0.430760
Zn171	Zn17	0.183520	0.308630	0.371930
Zn181	Zn18	0.243760	0.405630	0.419510
C3041	C304	0.143500	0.542800	0.394500
H3721	H372	0.140900	0.510700	0.405000
C3051	C305	0.196900	0.558800	0.394000
H3731	H373	0.208500	0.562800	0.415200
H3741	H374	0.199800	0.589700	0.383100
H3751	H375	0.216400	0.534100	0.383600
C3061	C306	0.106900	0.579100	0.409600
H3761	H376	0.073800	0.566800	0.407000
H3771	H377	0.109700	0.610800	0.399500
H3781	H378	0.114300	0.582400	0.431500
C3071	C307	0.778600	0.739700	0.973460
C3081	C308	0.799800	0.758900	0.999590
C3091	C309	0.838500	0.735400	0.013300
H3791	H379	0.853100	0.748600	0.031200
C3101	C310	0.856000	0.692600	0.000900
H3801	H380	0.882500	0.676400	0.010300
C3111	C311	0.834700	0.673300	0.974800
H3811	H381	0.846700	0.644000	0.966300
C3121	C312	0.796000	0.696900	0.961000
C3131	C313	0.772700	0.668100	0.932500
H3821	H382	0.743800	0.688300	0.927100
C3141	C314	0.795400	0.656600	0.900800
H3831	H383	0.771200	0.640400	0.887800
H3841	H384	0.823400	0.635200	0.903600
H3851	H385	0.805800	0.686800	0.891000
C3151	C315	0.750100	0.623600	0.948000
H3861	H386	0.731800	0.604900	0.932700
H3871	H387	0.728200	0.634200	0.964500
H3881	H388	0.775800	0.603300	0.956700
C3161	C316	0.779000	0.804900	0.013200
H3891	H389	0.745700	0.813100	0.005700
C3171	C317	0.816000	0.843900	0.007700
H3901	H390	0.822200	0.846800	0.985600
H3911	H391	0.846200	0.835500	0.018300
H3921	H392	0.803800	0.874800	0.015600
C3181	C318	0.782500	0.799200	0.048300
H3931	H393	0.758800	0.775100	0.055300
H3941	H394	0.775800	0.830400	0.058200
H3951	H395	0.815200	0.788400	0.053800
C3191	C319	0.614300	0.993770	0.849350
C3201	C320	0.628200	0.037400	0.861020
C3211	C321	0.627600	0.077500	0.842880
H3961	H396	0.637300	0.107900	0.851000
C3221	C322	0.613100	0.074100	0.813060
H3971	H397	0.612600	0.102100	0.800400
C3231	C323	0.599100	0.030500	0.801380
H3981	H398	0.589000	0.028100	0.780600
C3241	C324	0.599700	0.990350	0.819530
C3251	C325	0.584200	0.941400	0.807300
H3991	H399	0.591700	0.915400	0.822600
C3261	C326	0.605700	0.928800	0.775900
H4001	H400	0.641100	0.928500	0.777400
H4011	H401	0.595500	0.953100	0.760800
H4021	H402	0.594100	0.896700	0.769500
C3271	C327	0.533000	0.936300	0.795800
H4031	H403	0.527700	0.903000	0.788800
H4041	H404	0.527700	0.958800	0.778700
H4051	H405	0.510300	0.943800	0.812500
C3281	C328	0.568400	0.720900	0.837500
H4061	H406	0.567600	0.696300	0.852700
C3291	C329	0.539000	0.716900	0.812300
H4071	H407	0.516400	0.691000	0.810600
C3301	C330	0.542900	0.752400	0.788610
C3311	C331	0.511000	0.747700	0.760370
C3321	C332	0.574900	0.788700	0.792180
H4081	H408	0.578700	0.812200	0.776400
C3331	C333	0.602300	0.791600	0.818800
H4091	H409	0.624500	0.817700	0.821400
C3341	C334	0.493600	0.768600	0.708430
H4101	H410	0.503000	0.785500	0.690300
C3351	C335	0.524300	0.768500	0.733300
H4111	H411	0.555300	0.783300	0.731600
C3361	C336	0.468300	0.723400	0.761200
H4121	H412	0.458600	0.706400	0.779200
C3371	C337	0.438400	0.723700	0.734940
H4131	H413	0.408000	0.707600	0.735800
N191	N19	0.597800	0.758400	0.840960
N201	N20	0.451400	0.745900	0.708850
O821	O82	0.615000	0.953300	0.868000
O831	O83	0.644280	0.867030	0.869280
O841	O84	0.683700	0.929300	0.902340
O851	O85	0.695300	0.932700	0.845110
O861	O86	0.737100	0.760100	0.961170
O871	O87	0.698700	0.781130	0.911540
O881	O88	0.736800	0.846260	0.943260
O891	O89	0.789500	0.785000	0.916880
O901	O90	0.623600	0.763500	0.866840
P191	P19	0.664080	0.917910	0.871290
P201	P20	0.741110	0.796180	0.930760
Zn191	Zn19	0.683520	0.808630	0.871930
Zn201	Zn20	0.743760	0.905630	0.919510
C3381	C338	0.643500	0.042800	0.894500
H4141	H414	0.640900	0.010700	0.905000
C3391	C339	0.696900	0.058800	0.894000
H4151	H415	0.708500	0.062800	0.915200
H4161	H416	0.699800	0.089700	0.883100
H4171	H417	0.716400	0.034100	0.883600
C3401	C340	0.606900	0.079100	0.909600
H4181	H418	0.573800	0.066800	0.907000
H4191	H419	0.609700	0.110800	0.899500
H4201	H420	0.614300	0.082400	0.931500
C3411	C341	0.721400	0.760300	0.473460
C3421	C342	0.700200	0.741100	0.499590
C3431	C343	0.661500	0.764600	0.513300
H4211	H421	0.646900	0.751400	0.531200
C3441	C344	0.644000	0.807400	0.500900
H4221	H422	0.617500	0.823600	0.510300
C3451	C345	0.665300	0.826700	0.474800
H4231	H423	0.653300	0.856000	0.466300
C3461	C346	0.704000	0.803100	0.461000
C3471	C347	0.727300	0.831900	0.432500
H4241	H424	0.756200	0.811700	0.427100
C3481	C348	0.704600	0.843400	0.400800
H4251	H425	0.728800	0.859600	0.387800
H4261	H426	0.676600	0.864800	0.403600
H4271	H427	0.694200	0.813200	0.391000
C3491	C349	0.749900	0.876400	0.448000
H4281	H428	0.768200	0.895100	0.432700
H4291	H429	0.771800	0.865800	0.464500
H4301	H430	0.724200	0.896700	0.456700
C3501	C350	0.721000	0.695100	0.513200
H4311	H431	0.754300	0.686900	0.505700
C3511	C351	0.684000	0.656100	0.507700
H4321	H432	0.677800	0.653200	0.485600
H4331	H433	0.653800	0.664500	0.518300
H4341	H434	0.696200	0.625200	0.515600
C3521	C352	0.717500	0.700800	0.548300
H4351	H435	0.741200	0.724900	0.555300
H4361	H436	0.724200	0.669600	0.558200
H4371	H437	0.684800	0.711600	0.553800
C3531	C353	0.885700	0.506230	0.349350
C3541	C354	0.871800	0.462600	0.361020
C3551	C355	0.872400	0.422500	0.342880
H4381	H438	0.862700	0.392100	0.351000
C3561	C356	0.886900	0.425900	0.313060
H4391	H439	0.887400	0.397900	0.300400
C3571	C357	0.900900	0.469500	0.301380
H4401	H440	0.911000	0.471900	0.280600
C3581	C358	0.900300	0.509650	0.319530
C3591	C359	0.915800	0.558600	0.307300
H4411	H441	0.908300	0.584600	0.322600
C3601	C360	0.894300	0.571200	0.275900
H4421	H442	0.858900	0.571500	0.277400
H4431	H443	0.904500	0.546900	0.260800
H4441	H444	0.905900	0.603300	0.269500
C3611	C361	0.967000	0.563700	0.295800
H4451	H445	0.972300	0.597000	0.288800
H4461	H446	0.972300	0.541200	0.278700
H4471	H447	0.989700	0.556200	0.312500
C3621	C362	0.931600	0.779100	0.337500
H4481	H448	0.932400	0.803700	0.352700
C3631	C363	0.961000	0.783100	0.312300
H4491	H449	0.983600	0.809000	0.310600
C3641	C364	0.957100	0.747600	0.288610
C3651	C365	0.989000	0.752300	0.260370
C3661	C366	0.925100	0.711300	0.292180
H4501	H450	0.921300	0.687800	0.276400
C3671	C367	0.897700	0.708400	0.318800
H4511	H451	0.875500	0.682300	0.321400
C3681	C368	0.006400	0.731400	0.208430
H4521	H452	0.997000	0.714500	0.190300
C3691	C369	0.975700	0.731500	0.233300
H4531	H453	0.944700	0.716700	0.231600
C3701	C370	0.031700	0.776600	0.261200
H4541	H454	0.041400	0.793600	0.279200
C3711	C371	0.061600	0.776300	0.234940
H4551	H455	0.092000	0.792400	0.235800
N211	N21	0.902200	0.741600	0.340960
N221	N22	0.048600	0.754100	0.208850
O911	O91	0.885000	0.546700	0.368000
O921	O92	0.855720	0.632970	0.369280
O931	O93	0.816300	0.570700	0.402340
O941	O94	0.804700	0.567300	0.345110
O951	O95	0.762900	0.739900	0.461170
O961	O96	0.801300	0.718870	0.411540
O971	O97	0.763200	0.653740	0.443260
O981	O98	0.710500	0.715000	0.416880
O991	O99	0.876400	0.736500	0.366840
P211	P21	0.835920	0.582090	0.371290
P221	P22	0.758890	0.703820	0.430760
Zn211	Zn21	0.816480	0.691370	0.371930
Zn221	Zn22	0.756240	0.594370	0.419510
C3721	C372	0.856500	0.457200	0.394500
H4561	H456	0.859100	0.489300	0.405000
C3731	C373	0.803100	0.441200	0.394000
H4571	H457	0.791500	0.437200	0.415200
H4581	H458	0.800200	0.410300	0.383100
H4591	H459	0.783600	0.465900	0.383600
C3741	C374	0.893100	0.420900	0.409600
H4601	H460	0.926200	0.433200	0.407000
H4611	H461	0.890300	0.389200	0.399500
H4621	H462	0.885700	0.417600	0.431500
C3751	C375	0.221400	0.260300	0.973460
C3761	C376	0.200200	0.241100	0.999590
C3771	C377	0.161500	0.264600	0.013300
H4631	H463	0.146900	0.251400	0.031200
C3781	C378	0.144000	0.307400	0.000900
H4641	H464	0.117500	0.323600	0.010300
C3791	C379	0.165300	0.326700	0.974800
H4651	H465	0.153300	0.356000	0.966300
C3801	C380	0.204000	0.303100	0.961000
C3811	C381	0.227300	0.331900	0.932500
H4661	H466	0.256200	0.311700	0.927100
C3821	C382	0.204600	0.343400	0.900800
H4671	H467	0.228800	0.359600	0.887800
H4681	H468	0.176600	0.364800	0.903600
H4691	H469	0.194200	0.313200	0.891000
C3831	C383	0.249900	0.376400	0.948000
H4701	H470	0.268200	0.395100	0.932700
H4711	H471	0.271800	0.365800	0.964500
H4721	H472	0.224200	0.396700	0.956700
C3841	C384	0.221000	0.195100	0.013200
H4731	H473	0.254300	0.186900	0.005700
C3851	C385	0.184000	0.156100	0.007700
H4741	H474	0.177800	0.153200	0.985600
H4751	H475	0.153800	0.164500	0.018300
H4761	H476	0.196200	0.125200	0.015600
C3861	C386	0.217500	0.200800	0.048300
H4771	H477	0.241200	0.224900	0.055300
H4781	H478	0.224200	0.169600	0.058200
H4791	H479	0.184800	0.211600	0.053800
C3871	C387	0.385700	0.006230	0.849350
C3881	C388	0.371800	0.962600	0.861020
C3891	C389	0.372400	0.922500	0.842880
H4801	H480	0.362700	0.892100	0.851000
C3901	C390	0.386900	0.925900	0.813060
H4811	H481	0.387400	0.897900	0.800400
C3911	C391	0.400900	0.969500	0.801380
H4821	H482	0.411000	0.971900	0.780600
C3921	C392	0.400300	0.009650	0.819530
C3931	C393	0.415800	0.058600	0.807300
H4831	H483	0.408300	0.084600	0.822600
C3941	C394	0.394300	0.071200	0.775900
H4841	H484	0.358900	0.071500	0.777400
H4851	H485	0.404500	0.046900	0.760800
H4861	H486	0.405900	0.103300	0.769500
C3951	C395	0.467000	0.063700	0.795800
H4871	H487	0.472300	0.097000	0.788800
H4881	H488	0.472300	0.041200	0.778700
H4891	H489	0.489700	0.056200	0.812500
C3961	C396	0.431600	0.279100	0.837500
H4901	H490	0.432400	0.303700	0.852700
C3971	C397	0.461000	0.283100	0.812300
H4911	H491	0.483600	0.309000	0.810600
C3981	C398	0.457100	0.247600	0.788610
C3991	C399	0.489000	0.252300	0.760370
C4001	C400	0.425100	0.211300	0.792180
H4921	H492	0.421300	0.187800	0.776400
C4011	C401	0.397700	0.208400	0.818800
H4931	H493	0.375500	0.182300	0.821400
C4021	C402	0.506400	0.231400	0.708430
H4941	H494	0.497000	0.214500	0.690300
C4031	C403	0.475700	0.231500	0.733300
H4951	H495	0.444700	0.216700	0.731600
C4041	C404	0.531700	0.276600	0.761200
H4961	H496	0.541400	0.293600	0.779200
C4051	C405	0.561600	0.276300	0.734940
H4971	H497	0.592000	0.292400	0.735800
N231	N23	0.402200	0.241600	0.840960
N241	N24	0.548600	0.254100	0.708850
O1001	O100	0.385000	0.046700	0.868000
O1011	O101	0.355720	0.132970	0.869280
O1021	O102	0.316300	0.070700	0.902340
O1031	O103	0.304700	0.067300	0.845110
O1041	O104	0.262900	0.239900	0.961170
O1051	O105	0.301300	0.218870	0.911540
O1061	O106	0.263200	0.153740	0.943260
O1071	O107	0.210500	0.215000	0.916880
O1081	O108	0.376400	0.236500	0.866840
P231	P23	0.335920	0.082090	0.871290
P241	P24	0.258890	0.203820	0.930760
Zn231	Zn23	0.316480	0.191370	0.871930
Zn241	Zn24	0.256240	0.094370	0.919510
C4061	C406	0.356500	0.957200	0.894500
H4981	H498	0.359100	0.989300	0.905000
C4071	C407	0.303100	0.941200	0.894000
H4991	H499	0.291500	0.937200	0.915200
H5001	H500	0.300200	0.910300	0.883100
H5011	H501	0.283600	0.965900	0.883600
C4081	C408	0.393100	0.920900	0.909600
H5021	H502	0.426200	0.933200	0.907000
H5031	H503	0.390300	0.889200	0.899500
H5041	H504	0.385700	0.917600	0.931500
C4091	C409	0.260300	0.778600	0.026540
C4101	C410	0.241100	0.799800	0.000410
C4111	C411	0.264600	0.838500	0.986700
H5051	H505	0.251400	0.853100	0.968800
C4121	C412	0.307400	0.856000	0.999100
H5061	H506	0.323600	0.882500	0.989700
C4131	C413	0.326700	0.834700	0.025200
H5071	H507	0.356000	0.846700	0.033700
C4141	C414	0.303100	0.796000	0.039000
C4151	C415	0.331900	0.772700	0.067500
H5081	H508	0.311700	0.743800	0.072900
C4161	C416	0.343400	0.795400	0.099200
H5091	H509	0.359600	0.771200	0.112200
H5101	H510	0.364800	0.823400	0.096400
H5111	H511	0.313200	0.805800	0.109000
C4171	C417	0.376400	0.750100	0.052000
H5121	H512	0.395100	0.731800	0.067300
H5131	H513	0.365800	0.728200	0.035500
H5141	H514	0.396700	0.775800	0.043300
C4181	C418	0.195100	0.779000	0.986800
H5151	H515	0.186900	0.745700	0.994300
C4191	C419	0.156100	0.816000	0.992300
H5161	H516	0.153200	0.822200	0.014400
H5171	H517	0.164500	0.846200	0.981700
H5181	H518	0.125200	0.803800	0.984400
C4201	C420	0.200800	0.782500	0.951700
H5191	H519	0.224900	0.758800	0.944700
H5201	H520	0.169600	0.775800	0.941800
H5211	H521	0.211600	0.815200	0.946200
C4211	C421	0.006230	0.614300	0.150650
C4221	C422	0.962600	0.628200	0.138980
C4231	C423	0.922500	0.627600	0.157120
H5221	H522	0.892100	0.637300	0.149000
C4241	C424	0.925900	0.613100	0.186940
H5231	H523	0.897900	0.612600	0.199600
C4251	C425	0.969500	0.599100	0.198620
H5241	H524	0.971900	0.589000	0.219400
C4261	C426	0.009650	0.599700	0.180470
C4271	C427	0.058600	0.584200	0.192700
H5251	H525	0.084600	0.591700	0.177400
C4281	C428	0.071200	0.605700	0.224100
H5261	H526	0.071500	0.641100	0.222600
H5271	H527	0.046900	0.595500	0.239200
H5281	H528	0.103300	0.594100	0.230500
C4291	C429	0.063700	0.533000	0.204200
H5291	H529	0.097000	0.527700	0.211200
H5301	H530	0.041200	0.527700	0.221300
H5311	H531	0.056200	0.510300	0.187500
C4301	C430	0.279100	0.568400	0.162500
H5321	H532	0.303700	0.567600	0.147300
C4311	C431	0.283100	0.539000	0.187700
H5331	H533	0.309000	0.516400	0.189400
C4321	C432	0.247600	0.542900	0.211390
C4331	C433	0.252300	0.511000	0.239630
C4341	C434	0.211300	0.574900	0.207820
H5341	H534	0.187800	0.578700	0.223600
C4351	C435	0.208400	0.602300	0.181200
H5351	H535	0.182300	0.624500	0.178600
C4361	C436	0.231400	0.493600	0.291570
H5361	H536	0.214500	0.503000	0.309700
C4371	C437	0.231500	0.524300	0.266700
H5371	H537	0.216700	0.555300	0.268400
C4381	C438	0.276600	0.468300	0.238800
H5381	H538	0.293600	0.458600	0.220800
C4391	C439	0.276300	0.438400	0.265060
H5391	H539	0.292400	0.408000	0.264200
N251	N25	0.241600	0.597800	0.159040
N261	N26	0.254100	0.451400	0.291150
O1091	O109	0.046700	0.615000	0.132000
O1101	O110	0.132970	0.644280	0.130720
O1111	O111	0.070700	0.683700	0.097660
O1121	O112	0.067300	0.695300	0.154890
O1131	O113	0.239900	0.737100	0.038830
O1141	O114	0.218870	0.698700	0.088460
O1151	O115	0.153740	0.736800	0.056740
O1161	O116	0.215000	0.789500	0.083120
O1171	O117	0.236500	0.623600	0.133160
P251	P25	0.082090	0.664080	0.128710
P261	P26	0.203820	0.741110	0.069240
Zn251	Zn25	0.191370	0.683520	0.128070
Zn261	Zn26	0.094370	0.743760	0.080490
C4401	C440	0.957200	0.643500	0.105500
H5401	H540	0.989300	0.640900	0.095000
C4411	C441	0.941200	0.696900	0.106000
H5411	H541	0.937200	0.708500	0.084800
H5421	H542	0.910300	0.699800	0.116900
H5431	H543	0.965900	0.716400	0.116400
C4421	C442	0.920900	0.606900	0.090400
H5441	H544	0.933200	0.573800	0.093000
H5451	H545	0.889200	0.609700	0.100500
H5461	H546	0.917600	0.614300	0.068500
C4431	C443	0.760300	0.278600	0.526540
C4441	C444	0.741100	0.299800	0.500410
C4451	C445	0.764600	0.338500	0.486700
H5471	H547	0.751400	0.353100	0.468800
C4461	C446	0.807400	0.356000	0.499100
H5481	H548	0.823600	0.382500	0.489700
C4471	C447	0.826700	0.334700	0.525200
H5491	H549	0.856000	0.346700	0.533700
C4481	C448	0.803100	0.296000	0.539000
C4491	C449	0.831900	0.272700	0.567500
H5501	H550	0.811700	0.243800	0.572900
C4501	C450	0.843400	0.295400	0.599200
H5511	H551	0.859600	0.271200	0.612200
H5521	H552	0.864800	0.323400	0.596400
H5531	H553	0.813200	0.305800	0.609000
C4511	C451	0.876400	0.250100	0.552000
H5541	H554	0.895100	0.231800	0.567300
H5551	H555	0.865800	0.228200	0.535500
H5561	H556	0.896700	0.275800	0.543300
C4521	C452	0.695100	0.279000	0.486800
H5571	H557	0.686900	0.245700	0.494300
C4531	C453	0.656100	0.316000	0.492300
H5581	H558	0.653200	0.322200	0.514400
H5591	H559	0.664500	0.346200	0.481700
H5601	H560	0.625200	0.303800	0.484400
C4541	C454	0.700800	0.282500	0.451700
H5611	H561	0.724900	0.258800	0.444700
H5621	H562	0.669600	0.275800	0.441800
H5631	H563	0.711600	0.315200	0.446200
C4551	C455	0.506230	0.114300	0.650650
C4561	C456	0.462600	0.128200	0.638980
C4571	C457	0.422500	0.127600	0.657120
H5641	H564	0.392100	0.137300	0.649000
C4581	C458	0.425900	0.113100	0.686940
H5651	H565	0.397900	0.112600	0.699600
C4591	C459	0.469500	0.099100	0.698620
H5661	H566	0.471900	0.089000	0.719400
C4601	C460	0.509650	0.099700	0.680470
C4611	C461	0.558600	0.084200	0.692700
H5671	H567	0.584600	0.091700	0.677400
C4621	C462	0.571200	0.105700	0.724100
H5681	H568	0.571500	0.141100	0.722600
H5691	H569	0.546900	0.095500	0.739200
H5701	H570	0.603300	0.094100	0.730500
C4631	C463	0.563700	0.033000	0.704200
H5711	H571	0.597000	0.027700	0.711200
H5721	H572	0.541200	0.027700	0.721300
H5731	H573	0.556200	0.010300	0.687500
C4641	C464	0.779100	0.068400	0.662500
H5741	H574	0.803700	0.067600	0.647300
C4651	C465	0.783100	0.039000	0.687700
H5751	H575	0.809000	0.016400	0.689400
C4661	C466	0.747600	0.042900	0.711390
C4671	C467	0.752300	0.011000	0.739630
C4681	C468	0.711300	0.074900	0.707820
H5761	H576	0.687800	0.078700	0.723600
C4691	C469	0.708400	0.102300	0.681200
H5771	H577	0.682300	0.124500	0.678600
C4701	C470	0.731400	0.993600	0.791570
H5781	H578	0.714500	0.003000	0.809700
C4711	C471	0.731500	0.024300	0.766700
H5791	H579	0.716700	0.055300	0.768400
C4721	C472	0.776600	0.968300	0.738800
H5801	H580	0.793600	0.958600	0.720800
C4731	C473	0.776300	0.938400	0.765060
H5811	H581	0.792400	0.908000	0.764200
N271	N27	0.741600	0.097800	0.659040
N281	N28	0.754100	0.951400	0.791150
O1181	O118	0.546700	0.115000	0.632000
O1191	O119	0.632970	0.144280	0.630720
O1201	O120	0.570700	0.183700	0.597660
O1211	O121	0.567300	0.195300	0.654890
O1221	O122	0.739900	0.237100	0.538830
O1231	O123	0.718870	0.198700	0.588460
O1241	O124	0.653740	0.236800	0.556740
O1251	O125	0.715000	0.289500	0.583120
O1261	O126	0.736500	0.123600	0.633160
P271	P27	0.582090	0.164080	0.628710
P281	P28	0.703820	0.241110	0.569240
Zn271	Zn27	0.691370	0.183520	0.628070
Zn281	Zn28	0.594370	0.243760	0.580490
C4741	C474	0.457200	0.143500	0.605500
H5821	H582	0.489300	0.140900	0.595000
C4751	C475	0.441200	0.196900	0.606000
H5831	H583	0.437200	0.208500	0.584800
H5841	H584	0.410300	0.199800	0.616900
H5851	H585	0.465900	0.216400	0.616400
C4761	C476	0.420900	0.106900	0.590400
H5861	H586	0.433200	0.073800	0.593000
H5871	H587	0.389200	0.109700	0.600500
H5881	H588	0.417600	0.114300	0.568500
C4771	C477	0.739700	0.221400	0.026540
C4781	C478	0.758900	0.200200	0.000410
C4791	C479	0.735400	0.161500	0.986700
H5891	H589	0.748600	0.146900	0.968800
C4801	C480	0.692600	0.144000	0.999100
H5901	H590	0.676400	0.117500	0.989700
C4811	C481	0.673300	0.165300	0.025200
H5911	H591	0.644000	0.153300	0.033700
C4821	C482	0.696900	0.204000	0.039000
C4831	C483	0.668100	0.227300	0.067500
H5921	H592	0.688300	0.256200	0.072900
C4841	C484	0.656600	0.204600	0.099200
H5931	H593	0.640400	0.228800	0.112200
H5941	H594	0.635200	0.176600	0.096400
H5951	H595	0.686800	0.194200	0.109000
C4851	C485	0.623600	0.249900	0.052000
H5961	H596	0.604900	0.268200	0.067300
H5971	H597	0.634200	0.271800	0.035500
H5981	H598	0.603300	0.224200	0.043300
C4861	C486	0.804900	0.221000	0.986800
H5991	H599	0.813100	0.254300	0.994300
C4871	C487	0.843900	0.184000	0.992300
H6001	H600	0.846800	0.177800	0.014400
H6011	H601	0.835500	0.153800	0.981700
H6021	H602	0.874800	0.196200	0.984400
C4881	C488	0.799200	0.217500	0.951700
H6031	H603	0.775100	0.241200	0.944700
H6041	H604	0.830400	0.224200	0.941800
H6051	H605	0.788400	0.184800	0.946200
C4891	C489	0.993770	0.385700	0.150650
C4901	C490	0.037400	0.371800	0.138980
C4911	C491	0.077500	0.372400	0.157120
H6061	H606	0.107900	0.362700	0.149000
C4921	C492	0.074100	0.386900	0.186940
H6071	H607	0.102100	0.387400	0.199600
C4931	C493	0.030500	0.400900	0.198620
H6081	H608	0.028100	0.411000	0.219400
C4941	C494	0.990350	0.400300	0.180470
C4951	C495	0.941400	0.415800	0.192700
H6091	H609	0.915400	0.408300	0.177400
C4961	C496	0.928800	0.394300	0.224100
H6101	H610	0.928500	0.358900	0.222600
H6111	H611	0.953100	0.404500	0.239200
H6121	H612	0.896700	0.405900	0.230500
C4971	C497	0.936300	0.467000	0.204200
H6131	H613	0.903000	0.472300	0.211200
H6141	H614	0.958800	0.472300	0.221300
H6151	H615	0.943800	0.489700	0.187500
C4981	C498	0.720900	0.431600	0.162500
H6161	H616	0.696300	0.432400	0.147300
C4991	C499	0.716900	0.461000	0.187700
H6171	H617	0.691000	0.483600	0.189400
C5001	C500	0.752400	0.457100	0.211390
C5011	C501	0.747700	0.489000	0.239630
C5021	C502	0.788700	0.425100	0.207820
H6181	H618	0.812200	0.421300	0.223600
C5031	C503	0.791600	0.397700	0.181200
H6191	H619	0.817700	0.375500	0.178600
C5041	C504	0.768600	0.506400	0.291570
H6201	H620	0.785500	0.497000	0.309700
C5051	C505	0.768500	0.475700	0.266700
H6211	H621	0.783300	0.444700	0.268400
C5061	C506	0.723400	0.531700	0.238800
H6221	H622	0.706400	0.541400	0.220800
C5071	C507	0.723700	0.561600	0.265060
H6231	H623	0.707600	0.592000	0.264200
N291	N29	0.758400	0.402200	0.159040
N301	N30	0.745900	0.548600	0.291150
O1271	O127	0.953300	0.385000	0.132000
O1281	O128	0.867030	0.355720	0.130720
O1291	O129	0.929300	0.316300	0.097660
O1301	O130	0.932700	0.304700	0.154890
O1311	O131	0.760100	0.262900	0.038830
O1321	O132	0.781130	0.301300	0.088460
O1331	O133	0.846260	0.263200	0.056740
O1341	O134	0.785000	0.210500	0.083120
O1351	O135	0.763500	0.376400	0.133160
P291	P29	0.917910	0.335920	0.128710
P301	P30	0.796180	0.258890	0.069240
Zn291	Zn29	0.808630	0.316480	0.128070
Zn301	Zn30	0.905630	0.256240	0.080490
C5081	C508	0.042800	0.356500	0.105500
H6241	H624	0.010700	0.359100	0.095000
C5091	C509	0.058800	0.303100	0.106000
H6251	H625	0.062800	0.291500	0.084800
H6261	H626	0.089700	0.300200	0.116900
H6271	H627	0.034100	0.283600	0.116400
C5101	C510	0.079100	0.393100	0.090400
H6281	H628	0.066800	0.426200	0.093000
H6291	H629	0.110800	0.390300	0.100500
H6301	H630	0.082400	0.385700	0.068500
C5111	C511	0.239700	0.721400	0.526540
C5121	C512	0.258900	0.700200	0.500410
C5131	C513	0.235400	0.661500	0.486700
H6311	H631	0.248600	0.646900	0.468800
C5141	C514	0.192600	0.644000	0.499100
H6321	H632	0.176400	0.617500	0.489700
C5151	C515	0.173300	0.665300	0.525200
H6331	H633	0.144000	0.653300	0.533700
C5161	C516	0.196900	0.704000	0.539000
C5171	C517	0.168100	0.727300	0.567500
H6341	H634	0.188300	0.756200	0.572900
C5181	C518	0.156600	0.704600	0.599200
H6351	H635	0.140400	0.728800	0.612200
H6361	H636	0.135200	0.676600	0.596400
H6371	H637	0.186800	0.694200	0.609000
C5191	C519	0.123600	0.749900	0.552000
H6381	H638	0.104900	0.768200	0.567300
H6391	H639	0.134200	0.771800	0.535500
H6401	H640	0.103300	0.724200	0.543300
C5201	C520	0.304900	0.721000	0.486800
H6411	H641	0.313100	0.754300	0.494300
C5211	C521	0.343900	0.684000	0.492300
H6421	H642	0.346800	0.677800	0.514400
H6431	H643	0.335500	0.653800	0.481700
H6441	H644	0.374800	0.696200	0.484400
C5221	C522	0.299200	0.717500	0.451700
H6451	H645	0.275100	0.741200	0.444700
H6461	H646	0.330400	0.724200	0.441800
H6471	H647	0.288400	0.684800	0.446200
C5231	C523	0.493770	0.885700	0.650650
C5241	C524	0.537400	0.871800	0.638980
C5251	C525	0.577500	0.872400	0.657120
H6481	H648	0.607900	0.862700	0.649000
C5261	C526	0.574100	0.886900	0.686940
H6491	H649	0.602100	0.887400	0.699600
C5271	C527	0.530500	0.900900	0.698620
H6501	H650	0.528100	0.911000	0.719400
C5281	C528	0.490350	0.900300	0.680470
C5291	C529	0.441400	0.915800	0.692700
H6511	H651	0.415400	0.908300	0.677400
C5301	C530	0.428800	0.894300	0.724100
H6521	H652	0.428500	0.858900	0.722600
H6531	H653	0.453100	0.904500	0.739200
H6541	H654	0.396700	0.905900	0.730500
C5311	C531	0.436300	0.967000	0.704200
H6551	H655	0.403000	0.972300	0.711200
H6561	H656	0.458800	0.972300	0.721300
H6571	H657	0.443800	0.989700	0.687500
C5321	C532	0.220900	0.931600	0.662500
H6581	H658	0.196300	0.932400	0.647300
C5331	C533	0.216900	0.961000	0.687700
H6591	H659	0.191000	0.983600	0.689400
C5341	C534	0.252400	0.957100	0.711390
C5351	C535	0.247700	0.989000	0.739630
C5361	C536	0.288700	0.925100	0.707820
H6601	H660	0.312200	0.921300	0.723600
C5371	C537	0.291600	0.897700	0.681200
H6611	H661	0.317700	0.875500	0.678600
C5381	C538	0.268600	0.006400	0.791570
H6621	H662	0.285500	0.997000	0.809700
C5391	C539	0.268500	0.975700	0.766700
H6631	H663	0.283300	0.944700	0.768400
C5401	C540	0.223400	0.031700	0.738800
H6641	H664	0.206400	0.041400	0.720800
C5411	C541	0.223700	0.061600	0.765060
H6651	H665	0.207600	0.092000	0.764200
N311	N31	0.258400	0.902200	0.659040
N321	N32	0.245900	0.048600	0.791150
O1361	O136	0.453300	0.885000	0.632000
O1371	O137	0.367030	0.855720	0.630720
O1381	O138	0.429300	0.816300	0.597660
O1391	O139	0.432700	0.804700	0.654890
O1401	O140	0.260100	0.762900	0.538830
O1411	O141	0.281130	0.801300	0.588460
O1421	O142	0.346260	0.763200	0.556740
O1431	O143	0.285000	0.710500	0.583120
O1441	O144	0.263500	0.876400	0.633160
P311	P31	0.417910	0.835920	0.628710
P321	P32	0.296180	0.758890	0.569240
Zn311	Zn31	0.308630	0.816480	0.628070
Zn321	Zn32	0.405630	0.756240	0.580490
C5421	C542	0.542800	0.856500	0.605500
H6661	H666	0.510700	0.859100	0.595000
C5431	C543	0.558800	0.803100	0.606000
H6671	H667	0.562800	0.791500	0.584800
H6681	H668	0.589700	0.800200	0.616900
H6691	H669	0.534100	0.783600	0.616400
C5441	C544	0.579100	0.893100	0.590400
H6701	H670	0.566800	0.926200	0.593000
H6711	H671	0.610800	0.890300	0.600500
H6721	H672	0.582400	0.885700	0.568500
