data_OTAWIR_clean_PM
_symmetry_space_group_name_H-M	'P1'
_cell_length_a	28.662600
_cell_length_b	10.690500
_cell_length_c	28.232100
_cell_angle_alpha	90.000000
_cell_angle_beta	111.522000
_cell_angle_gamma	90.000000
_symmetry_Int_Tables_number 1

loop_
_symmetry_equiv_pos_as_xyz
'x,y,z'

loop_
_atom_site_label
_atom_site_type_symbol
_atom_site_fract_x
_atom_site_fract_y
_atom_site_fract_z
Zn11	Zn1	0.109150	0.223930	0.480110
O11	O1	0.159290	0.212200	0.553160
N11	N1	0.279070	0.373800	0.808580
N21	N2	0.147110	0.664700	0.946280
C11	C1	0.199710	0.539600	0.895000
C21	C2	0.227140	0.480000	0.865500
C31	C3	0.302550	0.397700	0.858380
O21	O2	0.107970	0.371500	0.542250
C41	C4	0.230250	0.403700	0.786580
C51	C5	0.278210	0.449800	0.888010
H11	H1	0.295600	0.464500	0.922500
C61	C6	0.356810	0.368100	0.879850
C71	C7	0.207030	0.377100	0.731110
O31	O3	0.542340	0.348900	0.977320
C81	C8	0.203210	0.454300	0.813630
H21	H2	0.169200	0.471100	0.797400
C91	C9	0.142930	0.301900	0.570330
C101	C10	0.164870	0.329100	0.626640
C111	C11	0.440620	0.406600	0.941030
H31	H3	0.462000	0.449600	0.969300
C121	C12	0.389260	0.433100	0.921720
H41	H4	0.376700	0.494700	0.937000
C131	C13	0.459480	0.316800	0.918120
O41	O4	0.533190	0.216700	0.917200
C141	C14	0.376050	0.276300	0.857310
H51	H5	0.354800	0.232000	0.829400
C151	C15	0.205760	0.261200	0.657520
H61	H6	0.219200	0.198900	0.643400
C161	C16	0.165410	0.443600	0.700250
H71	H7	0.150900	0.503600	0.714400
C171	C17	0.145200	0.420400	0.647780
H81	H8	0.118100	0.467500	0.627100
C181	C18	0.226870	0.284900	0.709240
H91	H9	0.254500	0.238800	0.729500
C191	C19	0.426880	0.250900	0.876600
H101	H10	0.439500	0.188700	0.861500
C201	C20	0.515010	0.291000	0.938200
C211	C21	0.222170	0.596500	0.938800
H111	H11	0.257000	0.599700	0.952900
C221	C22	0.193470	0.652700	0.964200
H121	H12	0.210500	0.683100	0.996900
C231	C23	0.123590	0.589200	0.906600
H131	H13	0.088900	0.582000	0.895900
C241	C24	0.147580	0.522200	0.880900
H141	H14	0.130100	0.467000	0.855000
Zn21	Zn2	0.609150	0.723930	0.480110
O51	O5	0.659290	0.712200	0.553160
N31	N3	0.779070	0.873800	0.808580
N41	N4	0.647110	0.164700	0.946280
C251	C25	0.699710	0.039600	0.895000
C261	C26	0.727140	0.980000	0.865500
C271	C27	0.802550	0.897700	0.858380
O61	O6	0.607970	0.871500	0.542250
C281	C28	0.730250	0.903700	0.786580
C291	C29	0.778210	0.949800	0.888010
H151	H15	0.795600	0.964500	0.922500
C301	C30	0.856810	0.868100	0.879850
C311	C31	0.707030	0.877100	0.731110
O71	O7	0.042340	0.848900	0.977320
C321	C32	0.703210	0.954300	0.813630
H161	H16	0.669200	0.971100	0.797400
C331	C33	0.642930	0.801900	0.570330
C341	C34	0.664870	0.829100	0.626640
C351	C35	0.940620	0.906600	0.941030
H171	H17	0.962000	0.949600	0.969300
C361	C36	0.889260	0.933100	0.921720
H181	H18	0.876700	0.994700	0.937000
C371	C37	0.959480	0.816800	0.918120
O81	O8	0.033190	0.716700	0.917200
C381	C38	0.876050	0.776300	0.857310
H191	H19	0.854800	0.732000	0.829400
C391	C39	0.705760	0.761200	0.657520
H201	H20	0.719200	0.698900	0.643400
C401	C40	0.665410	0.943600	0.700250
H211	H21	0.650900	0.003600	0.714400
C411	C41	0.645200	0.920400	0.647780
H221	H22	0.618100	0.967500	0.627100
C421	C42	0.726870	0.784900	0.709240
H231	H23	0.754500	0.738800	0.729500
C431	C43	0.926880	0.750900	0.876600
H241	H24	0.939500	0.688700	0.861500
C441	C44	0.015010	0.791000	0.938200
C451	C45	0.722170	0.096500	0.938800
H251	H25	0.757000	0.099700	0.952900
C461	C46	0.693470	0.152700	0.964200
H261	H26	0.710500	0.183100	0.996900
C471	C47	0.623590	0.089200	0.906600
H271	H27	0.588900	0.082000	0.895900
C481	C48	0.647580	0.022200	0.880900
H281	H28	0.630100	0.967000	0.855000
Zn31	Zn3	0.109150	0.776070	0.980110
O91	O9	0.159290	0.787800	0.053160
N51	N5	0.279070	0.626200	0.308580
N61	N6	0.147110	0.335300	0.446280
C491	C49	0.199710	0.460400	0.395000
C501	C50	0.227140	0.520000	0.365500
C511	C51	0.302550	0.602300	0.358380
O101	O10	0.107970	0.628500	0.042250
C521	C52	0.230250	0.596300	0.286580
C531	C53	0.278210	0.550200	0.388010
H291	H29	0.295600	0.535500	0.422500
C541	C54	0.356810	0.631900	0.379850
C551	C55	0.207030	0.622900	0.231110
O111	O11	0.542340	0.651100	0.477320
C561	C56	0.203210	0.545700	0.313630
H301	H30	0.169200	0.528900	0.297400
C571	C57	0.142930	0.698100	0.070330
C581	C58	0.164870	0.670900	0.126640
C591	C59	0.440620	0.593400	0.441030
H311	H31	0.462000	0.550400	0.469300
C601	C60	0.389260	0.566900	0.421720
H321	H32	0.376700	0.505300	0.437000
C611	C61	0.459480	0.683200	0.418120
O121	O12	0.533190	0.783300	0.417200
C621	C62	0.376050	0.723700	0.357310
H331	H33	0.354800	0.768000	0.329400
C631	C63	0.205760	0.738800	0.157520
H341	H34	0.219200	0.801100	0.143400
C641	C64	0.165410	0.556400	0.200250
H351	H35	0.150900	0.496400	0.214400
C651	C65	0.145200	0.579600	0.147780
H361	H36	0.118100	0.532500	0.127100
C661	C66	0.226870	0.715100	0.209240
H371	H37	0.254500	0.761200	0.229500
C671	C67	0.426880	0.749100	0.376600
H381	H38	0.439500	0.811300	0.361500
C681	C68	0.515010	0.709000	0.438200
C691	C69	0.222170	0.403500	0.438800
H391	H39	0.257000	0.400300	0.452900
C701	C70	0.193470	0.347300	0.464200
H401	H40	0.210500	0.316900	0.496900
C711	C71	0.123590	0.410800	0.406600
H411	H41	0.088900	0.418000	0.395900
C721	C72	0.147580	0.477800	0.380900
H421	H42	0.130100	0.533000	0.355000
Zn41	Zn4	0.609150	0.276070	0.980110
O131	O13	0.659290	0.287800	0.053160
N71	N7	0.779070	0.126200	0.308580
N81	N8	0.647110	0.835300	0.446280
C731	C73	0.699710	0.960400	0.395000
C741	C74	0.727140	0.020000	0.365500
C751	C75	0.802550	0.102300	0.358380
O141	O14	0.607970	0.128500	0.042250
C761	C76	0.730250	0.096300	0.286580
C771	C77	0.778210	0.050200	0.388010
H431	H43	0.795600	0.035500	0.422500
C781	C78	0.856810	0.131900	0.379850
C791	C79	0.707030	0.122900	0.231110
O151	O15	0.042340	0.151100	0.477320
C801	C80	0.703210	0.045700	0.313630
H441	H44	0.669200	0.028900	0.297400
C811	C81	0.642930	0.198100	0.070330
C821	C82	0.664870	0.170900	0.126640
C831	C83	0.940620	0.093400	0.441030
H451	H45	0.962000	0.050400	0.469300
C841	C84	0.889260	0.066900	0.421720
H461	H46	0.876700	0.005300	0.437000
C851	C85	0.959480	0.183200	0.418120
O161	O16	0.033190	0.283300	0.417200
C861	C86	0.876050	0.223700	0.357310
H471	H47	0.854800	0.268000	0.329400
C871	C87	0.705760	0.238800	0.157520
H481	H48	0.719200	0.301100	0.143400
C881	C88	0.665410	0.056400	0.200250
H491	H49	0.650900	0.996400	0.214400
C891	C89	0.645200	0.079600	0.147780
H501	H50	0.618100	0.032500	0.127100
C901	C90	0.726870	0.215100	0.209240
H511	H51	0.754500	0.261200	0.229500
C911	C91	0.926880	0.249100	0.376600
H521	H52	0.939500	0.311300	0.361500
C921	C92	0.015010	0.209000	0.438200
C931	C93	0.722170	0.903500	0.438800
H531	H53	0.757000	0.900300	0.452900
C941	C94	0.693470	0.847300	0.464200
H541	H54	0.710500	0.816900	0.496900
C951	C95	0.623590	0.910800	0.406600
H551	H55	0.588900	0.918000	0.395900
C961	C96	0.647580	0.977800	0.380900
H561	H56	0.630100	0.033000	0.355000
Zn51	Zn5	0.890850	0.223930	0.019890
O171	O17	0.840710	0.212200	0.946840
N91	N9	0.720930	0.373800	0.691420
N101	N10	0.852890	0.664700	0.553720
C971	C97	0.800290	0.539600	0.605000
C981	C98	0.772860	0.480000	0.634500
C991	C99	0.697450	0.397700	0.641620
O181	O18	0.892030	0.371500	0.957750
C1001	C100	0.769750	0.403700	0.713420
C1011	C101	0.721790	0.449800	0.611990
H571	H57	0.704400	0.464500	0.577500
C1021	C102	0.643190	0.368100	0.620150
C1031	C103	0.792970	0.377100	0.768890
O191	O19	0.457660	0.348900	0.522680
C1041	C104	0.796790	0.454300	0.686370
H581	H58	0.830800	0.471100	0.702600
C1051	C105	0.857070	0.301900	0.929670
C1061	C106	0.835130	0.329100	0.873360
C1071	C107	0.559380	0.406600	0.558970
H591	H59	0.538000	0.449600	0.530700
C1081	C108	0.610740	0.433100	0.578280
H601	H60	0.623300	0.494700	0.563000
C1091	C109	0.540520	0.316800	0.581880
O201	O20	0.466810	0.216700	0.582800
C1101	C110	0.623950	0.276300	0.642690
H611	H61	0.645200	0.232000	0.670600
C1111	C111	0.794240	0.261200	0.842480
H621	H62	0.780800	0.198900	0.856600
C1121	C112	0.834590	0.443600	0.799750
H631	H63	0.849100	0.503600	0.785600
C1131	C113	0.854800	0.420400	0.852220
H641	H64	0.881900	0.467500	0.872900
C1141	C114	0.773130	0.284900	0.790760
H651	H65	0.745500	0.238800	0.770500
C1151	C115	0.573120	0.250900	0.623400
H661	H66	0.560500	0.188700	0.638500
C1161	C116	0.484990	0.291000	0.561800
C1171	C117	0.777830	0.596500	0.561200
H671	H67	0.743000	0.599700	0.547100
C1181	C118	0.806530	0.652700	0.535800
H681	H68	0.789500	0.683100	0.503100
C1191	C119	0.876410	0.589200	0.593400
H691	H69	0.911100	0.582000	0.604100
C1201	C120	0.852420	0.522200	0.619100
H701	H70	0.869900	0.467000	0.645000
Zn61	Zn6	0.390850	0.723930	0.019890
O211	O21	0.340710	0.712200	0.946840
N111	N11	0.220930	0.873800	0.691420
N121	N12	0.352890	0.164700	0.553720
C1211	C121	0.300290	0.039600	0.605000
C1221	C122	0.272860	0.980000	0.634500
C1231	C123	0.197450	0.897700	0.641620
O221	O22	0.392030	0.871500	0.957750
C1241	C124	0.269750	0.903700	0.713420
C1251	C125	0.221790	0.949800	0.611990
H711	H71	0.204400	0.964500	0.577500
C1261	C126	0.143190	0.868100	0.620150
C1271	C127	0.292970	0.877100	0.768890
O231	O23	0.957660	0.848900	0.522680
C1281	C128	0.296790	0.954300	0.686370
H721	H72	0.330800	0.971100	0.702600
C1291	C129	0.357070	0.801900	0.929670
C1301	C130	0.335130	0.829100	0.873360
C1311	C131	0.059380	0.906600	0.558970
H731	H73	0.038000	0.949600	0.530700
C1321	C132	0.110740	0.933100	0.578280
H741	H74	0.123300	0.994700	0.563000
C1331	C133	0.040520	0.816800	0.581880
O241	O24	0.966810	0.716700	0.582800
C1341	C134	0.123950	0.776300	0.642690
H751	H75	0.145200	0.732000	0.670600
C1351	C135	0.294240	0.761200	0.842480
H761	H76	0.280800	0.698900	0.856600
C1361	C136	0.334590	0.943600	0.799750
H771	H77	0.349100	0.003600	0.785600
C1371	C137	0.354800	0.920400	0.852220
H781	H78	0.381900	0.967500	0.872900
C1381	C138	0.273130	0.784900	0.790760
H791	H79	0.245500	0.738800	0.770500
C1391	C139	0.073120	0.750900	0.623400
H801	H80	0.060500	0.688700	0.638500
C1401	C140	0.984990	0.791000	0.561800
C1411	C141	0.277830	0.096500	0.561200
H811	H81	0.243000	0.099700	0.547100
C1421	C142	0.306530	0.152700	0.535800
H821	H82	0.289500	0.183100	0.503100
C1431	C143	0.376410	0.089200	0.593400
H831	H83	0.411100	0.082000	0.604100
C1441	C144	0.352420	0.022200	0.619100
H841	H84	0.369900	0.967000	0.645000
Zn71	Zn7	0.890850	0.776070	0.519890
O251	O25	0.840710	0.787800	0.446840
N131	N13	0.720930	0.626200	0.191420
N141	N14	0.852890	0.335300	0.053720
C1451	C145	0.800290	0.460400	0.105000
C1461	C146	0.772860	0.520000	0.134500
C1471	C147	0.697450	0.602300	0.141620
O261	O26	0.892030	0.628500	0.457750
C1481	C148	0.769750	0.596300	0.213420
C1491	C149	0.721790	0.550200	0.111990
H851	H85	0.704400	0.535500	0.077500
C1501	C150	0.643190	0.631900	0.120150
C1511	C151	0.792970	0.622900	0.268890
O271	O27	0.457660	0.651100	0.022680
C1521	C152	0.796790	0.545700	0.186370
H861	H86	0.830800	0.528900	0.202600
C1531	C153	0.857070	0.698100	0.429670
C1541	C154	0.835130	0.670900	0.373360
C1551	C155	0.559380	0.593400	0.058970
H871	H87	0.538000	0.550400	0.030700
C1561	C156	0.610740	0.566900	0.078280
H881	H88	0.623300	0.505300	0.063000
C1571	C157	0.540520	0.683200	0.081880
O281	O28	0.466810	0.783300	0.082800
C1581	C158	0.623950	0.723700	0.142690
H891	H89	0.645200	0.768000	0.170600
C1591	C159	0.794240	0.738800	0.342480
H901	H90	0.780800	0.801100	0.356600
C1601	C160	0.834590	0.556400	0.299750
H911	H91	0.849100	0.496400	0.285600
C1611	C161	0.854800	0.579600	0.352220
H921	H92	0.881900	0.532500	0.372900
C1621	C162	0.773130	0.715100	0.290760
H931	H93	0.745500	0.761200	0.270500
C1631	C163	0.573120	0.749100	0.123400
H941	H94	0.560500	0.811300	0.138500
C1641	C164	0.484990	0.709000	0.061800
C1651	C165	0.777830	0.403500	0.061200
H951	H95	0.743000	0.400300	0.047100
C1661	C166	0.806530	0.347300	0.035800
H961	H96	0.789500	0.316900	0.003100
C1671	C167	0.876410	0.410800	0.093400
H971	H97	0.911100	0.418000	0.104100
C1681	C168	0.852420	0.477800	0.119100
H981	H98	0.869900	0.533000	0.145000
Zn81	Zn8	0.390850	0.276070	0.519890
O291	O29	0.340710	0.287800	0.446840
N151	N15	0.220930	0.126200	0.191420
N161	N16	0.352890	0.835300	0.053720
C1691	C169	0.300290	0.960400	0.105000
C1701	C170	0.272860	0.020000	0.134500
C1711	C171	0.197450	0.102300	0.141620
O301	O30	0.392030	0.128500	0.457750
C1721	C172	0.269750	0.096300	0.213420
C1731	C173	0.221790	0.050200	0.111990
H991	H99	0.204400	0.035500	0.077500
C1741	C174	0.143190	0.131900	0.120150
C1751	C175	0.292970	0.122900	0.268890
O311	O31	0.957660	0.151100	0.022680
C1761	C176	0.296790	0.045700	0.186370
H1001	H100	0.330800	0.028900	0.202600
C1771	C177	0.357070	0.198100	0.429670
C1781	C178	0.335130	0.170900	0.373360
C1791	C179	0.059380	0.093400	0.058970
H1011	H101	0.038000	0.050400	0.030700
C1801	C180	0.110740	0.066900	0.078280
H1021	H102	0.123300	0.005300	0.063000
C1811	C181	0.040520	0.183200	0.081880
O321	O32	0.966810	0.283300	0.082800
C1821	C182	0.123950	0.223700	0.142690
H1031	H103	0.145200	0.268000	0.170600
C1831	C183	0.294240	0.238800	0.342480
H1041	H104	0.280800	0.301100	0.356600
C1841	C184	0.334590	0.056400	0.299750
H1051	H105	0.349100	0.996400	0.285600
C1851	C185	0.354800	0.079600	0.352220
H1061	H106	0.381900	0.032500	0.372900
C1861	C186	0.273130	0.215100	0.290760
H1071	H107	0.245500	0.261200	0.270500
C1871	C187	0.073120	0.249100	0.123400
H1081	H108	0.060500	0.311300	0.138500
C1881	C188	0.984990	0.209000	0.061800
C1891	C189	0.277830	0.903500	0.061200
H1091	H109	0.243000	0.900300	0.047100
C1901	C190	0.306530	0.847300	0.035800
H1101	H110	0.289500	0.816900	0.003100
C1911	C191	0.376410	0.910800	0.093400
H1111	H111	0.411100	0.918000	0.104100
C1921	C192	0.352420	0.977800	0.119100
H1121	H112	0.369900	0.033000	0.145000
