data_OTECAT_clean_PM
_symmetry_space_group_name_H-M	'P1'
_cell_length_a	18.917500
_cell_length_b	18.917500
_cell_length_c	71.908000
_cell_angle_alpha	90.000000
_cell_angle_beta	90.000000
_cell_angle_gamma	90.000000
_symmetry_Int_Tables_number 1

loop_
_symmetry_equiv_pos_as_xyz
'x,y,z'

loop_
_atom_site_label
_atom_site_type_symbol
_atom_site_fract_x
_atom_site_fract_y
_atom_site_fract_z
Al11	Al1	0.396830	0.647060	0.536900
Al21	Al2	0.341680	0.671410	0.499450
Al31	Al3	0.504320	0.529940	0.555660
O11	O1	0.467060	0.578740	0.535770
H11	H1	0.485500	0.567900	0.523800
O21	O2	0.408670	0.623030	0.484100
O31	O3	0.449930	0.698500	0.553990
C11	C1	0.695700	0.852900	0.703370
O41	O4	0.537970	0.481380	0.577330
C21	C2	0.564400	0.389600	0.599150
C31	C3	0.420000	0.258500	0.690310
O51	O5	0.490650	0.606780	0.571970
C41	C4	0.557700	0.291400	0.652450
C51	C5	0.206200	0.003100	0.679130
C61	C6	0.473700	0.673900	0.569470
C71	C7	0.332600	0.940400	0.664950
C81	C8	0.466200	0.837500	0.637090
C91	C9	0.600600	0.325800	0.602140
H21	H2	0.626600	0.304100	0.592400
C101	C10	0.403600	0.873200	0.642070
H31	H3	0.365300	0.874600	0.633500
C111	C11	0.563300	0.420800	0.579540
C121	C12	0.707200	0.863100	0.683810
H41	H4	0.753800	0.864300	0.678900
C131	C13	0.293700	0.251800	0.690140
H51	H5	0.250700	0.249600	0.683300
C141	C14	0.547800	0.219700	0.686430
H61	H6	0.544900	0.195100	0.697900
C151	C15	0.498700	0.296800	0.663120
H71	H7	0.461400	0.326700	0.659100
C161	C16	0.397100	0.905800	0.659060
C171	C17	0.273000	0.037100	0.680350
H81	H8	0.274900	0.082700	0.685900
C181	C18	0.520200	0.874000	0.665480
C191	C19	0.477100	0.718300	0.585950
C201	C20	0.417400	0.258600	0.709860
H91	H9	0.460100	0.262400	0.716700
C211	C21	0.206800	0.938600	0.670230
H101	H10	0.163000	0.914900	0.668700
C221	C22	0.292400	0.248600	0.709530
C231	C23	0.580000	0.868400	0.679540
C241	C24	0.615600	0.249400	0.659080
H111	H11	0.657800	0.244500	0.652000
C251	C25	0.523900	0.838400	0.648350
H121	H12	0.566300	0.815200	0.644700
C261	C26	0.628300	0.855300	0.710200
H131	H13	0.620300	0.852400	0.723200
C271	C27	0.490600	0.258800	0.680310
C281	C28	0.335800	0.007800	0.673960
H141	H14	0.379600	0.031700	0.675500
C291	C29	0.358200	0.258500	0.680590
H151	H15	0.358700	0.263000	0.667400
C301	C30	0.507100	0.735200	0.618010
H161	H16	0.530100	0.719400	0.629000
C311	C31	0.511300	0.694100	0.602060
H171	H17	0.536600	0.650700	0.602000
C321	C32	0.470200	0.798500	0.618430
C331	C33	0.570400	0.862100	0.697830
H181	H18	0.523600	0.862200	0.702700
C341	C34	0.649000	0.871300	0.672080
H191	H19	0.655700	0.878700	0.659100
C351	C35	0.528700	0.392200	0.631660
H201	H20	0.504800	0.415100	0.641600
C361	C36	0.562900	0.327700	0.634610
C371	C37	0.597500	0.294600	0.619890
H211	H21	0.619400	0.250100	0.621900
C381	C38	0.441200	0.783800	0.586200
H221	H22	0.418800	0.800700	0.575200
C391	C39	0.144800	0.033400	0.687290
C401	C40	0.356900	0.253600	0.718930
H231	H23	0.357200	0.253300	0.732100
O61	O6	0.148540	0.095110	0.694020
O71	O7	0.088000	0.997260	0.687600
C411	C41	0.267900	0.905400	0.663320
H241	H24	0.265200	0.860100	0.657700
O81	O8	0.589170	0.381220	0.567070
C421	C42	0.438500	0.823000	0.602110
H251	H25	0.414800	0.867300	0.602100
C431	C43	0.456100	0.908000	0.670700
H261	H26	0.453400	0.932500	0.682200
C441	C44	0.653900	0.099900	0.690060
H271	H27	0.606800	0.082800	0.691200
C451	C45	0.738500	0.195700	0.681820
H281	H28	0.747400	0.242900	0.678000
C461	C46	0.670400	0.168800	0.682790
O91	O9	0.751780	0.842530	0.732770
O101	O10	0.522770	0.452390	0.540910
H291	H29	0.487300	0.439700	0.532200
C471	C47	0.714700	0.059000	0.695410
H301	H30	0.707100	0.013200	0.700400
C481	C48	0.794300	0.149400	0.686830
H311	H31	0.841600	0.165500	0.685400
C491	C49	0.530200	0.424300	0.613050
H321	H32	0.507800	0.468400	0.610800
C501	C50	0.607700	0.216100	0.676350
C511	C51	0.783400	0.082600	0.693650
C521	C52	0.842000	0.037600	0.697960
O111	O11	0.834350	0.973790	0.702450
O121	O12	0.904690	0.068320	0.698030
O131	O13	0.222710	0.229970	0.736270
C531	C53	0.225500	0.234900	0.718710
O141	O14	0.171800	0.216640	0.708430
C541	C54	0.758700	0.843200	0.714790
O151	O15	0.816990	0.836800	0.706890
O161	O16	0.339320	0.604070	0.518790
O171	O17	0.421600	0.698610	0.514670
O181	O18	0.263250	0.623750	0.489410
C551	C55	0.477300	0.621600	0.493120
H331	H33	0.514800	0.619400	0.483500
H341	H34	0.481000	0.578600	0.500900
C561	C56	0.487900	0.684600	0.504800
H351	H35	0.526600	0.676100	0.513800
H361	H36	0.500900	0.725600	0.497000
C571	C57	0.227700	0.580000	0.503540
H371	H37	0.205100	0.538700	0.497500
H381	H38	0.190500	0.608000	0.509800
C581	C58	0.281300	0.555200	0.517570
H391	H39	0.258500	0.550800	0.529900
H401	H40	0.299200	0.508100	0.513900
Al41	Al4	0.601920	0.397670	0.541310
Al51	Al5	0.603170	0.352940	0.036900
Al61	Al6	0.658320	0.328590	0.999450
Al71	Al7	0.495680	0.470060	0.055660
O191	O19	0.532940	0.421260	0.035770
H411	H41	0.514500	0.432100	0.023800
O201	O20	0.591330	0.376970	0.984100
O211	O21	0.550070	0.301500	0.053990
C591	C59	0.304300	0.147100	0.203370
O221	O22	0.462030	0.518620	0.077330
C601	C60	0.435600	0.610400	0.099150
C611	C61	0.580000	0.741500	0.190310
O231	O23	0.509350	0.393220	0.071970
C621	C62	0.442300	0.708600	0.152450
C631	C63	0.793800	0.996900	0.179130
C641	C64	0.526300	0.326100	0.069470
C651	C65	0.667400	0.059600	0.164950
C661	C66	0.533800	0.162500	0.137090
C671	C67	0.399400	0.674200	0.102140
H421	H42	0.373400	0.695900	0.092400
C681	C68	0.596400	0.126800	0.142070
H431	H43	0.634700	0.125400	0.133500
C691	C69	0.436700	0.579200	0.079540
C701	C70	0.292800	0.136900	0.183810
H441	H44	0.246200	0.135700	0.178900
C711	C71	0.706300	0.748200	0.190140
H451	H45	0.749300	0.750400	0.183300
C721	C72	0.452200	0.780300	0.186430
H461	H46	0.455100	0.804900	0.197900
C731	C73	0.501300	0.703200	0.163120
H471	H47	0.538600	0.673300	0.159100
C741	C74	0.602900	0.094200	0.159060
C751	C75	0.727000	0.962900	0.180350
H481	H48	0.725100	0.917300	0.185900
C761	C76	0.479800	0.126000	0.165480
C771	C77	0.522900	0.281700	0.085950
C781	C78	0.582600	0.741400	0.209860
H491	H49	0.539900	0.737600	0.216700
C791	C79	0.793200	0.061400	0.170230
H501	H50	0.837000	0.085100	0.168700
C801	C80	0.707600	0.751400	0.209530
C811	C81	0.420000	0.131600	0.179540
C821	C82	0.384400	0.750600	0.159080
H511	H51	0.342200	0.755500	0.152000
C831	C83	0.476100	0.161600	0.148350
H521	H52	0.433700	0.184800	0.144700
C841	C84	0.371700	0.144700	0.210200
H531	H53	0.379700	0.147600	0.223200
C851	C85	0.509400	0.741200	0.180310
C861	C86	0.664200	0.992200	0.173960
H541	H54	0.620400	0.968300	0.175500
C871	C87	0.641800	0.741500	0.180590
H551	H55	0.641300	0.737000	0.167400
C881	C88	0.492900	0.264800	0.118010
H561	H56	0.469900	0.280600	0.129000
C891	C89	0.488700	0.305900	0.102060
H571	H57	0.463400	0.349300	0.102000
C901	C90	0.529800	0.201500	0.118430
C911	C91	0.429600	0.137900	0.197830
H581	H58	0.476400	0.137800	0.202700
C921	C92	0.351000	0.128700	0.172080
H591	H59	0.344300	0.121300	0.159100
C931	C93	0.471300	0.607800	0.131660
H601	H60	0.495200	0.584900	0.141600
C941	C94	0.437100	0.672300	0.134610
C951	C95	0.402500	0.705400	0.119890
H611	H61	0.380600	0.749900	0.121900
C961	C96	0.558800	0.216200	0.086200
H621	H62	0.581200	0.199300	0.075200
C971	C97	0.855200	0.966600	0.187290
C981	C98	0.643100	0.746400	0.218930
H631	H63	0.642800	0.746700	0.232100
O241	O24	0.851460	0.904890	0.194020
O251	O25	0.912000	0.002740	0.187600
C991	C99	0.732100	0.094600	0.163320
H641	H64	0.734800	0.139900	0.157700
O261	O26	0.410830	0.618780	0.067070
C1001	C100	0.561500	0.177000	0.102110
H651	H65	0.585200	0.132700	0.102100
C1011	C101	0.543900	0.092000	0.170700
H661	H66	0.546600	0.067500	0.182200
C1021	C102	0.346100	0.900100	0.190060
H671	H67	0.393200	0.917200	0.191200
C1031	C103	0.261500	0.804300	0.181820
H681	H68	0.252600	0.757100	0.178000
C1041	C104	0.329600	0.831200	0.182790
O271	O27	0.248220	0.157470	0.232770
O281	O28	0.477230	0.547610	0.040910
H691	H69	0.512700	0.560300	0.032200
C1051	C105	0.285300	0.941000	0.195410
H701	H70	0.292900	0.986800	0.200400
C1061	C106	0.205700	0.850600	0.186830
H711	H71	0.158400	0.834500	0.185400
C1071	C107	0.469800	0.575700	0.113050
H721	H72	0.492200	0.531600	0.110800
C1081	C108	0.392300	0.783900	0.176350
C1091	C109	0.216600	0.917400	0.193650
C1101	C110	0.158000	0.962400	0.197960
O291	O29	0.165650	0.026210	0.202450
O301	O30	0.095310	0.931680	0.198030
O311	O31	0.777290	0.770030	0.236270
C1111	C111	0.774500	0.765100	0.218710
O321	O32	0.828200	0.783360	0.208430
C1121	C112	0.241300	0.156800	0.214790
O331	O33	0.183010	0.163200	0.206890
O341	O34	0.660680	0.395930	0.018790
O351	O35	0.578400	0.301390	0.014670
O361	O36	0.736750	0.376250	0.989410
C1131	C113	0.522700	0.378400	0.993120
H731	H73	0.485200	0.380600	0.983500
H741	H74	0.519000	0.421400	0.000900
C1141	C114	0.512100	0.315400	0.004800
H751	H75	0.473400	0.323900	0.013800
H761	H76	0.499100	0.274400	0.997000
C1151	C115	0.772300	0.420000	0.003540
H771	H77	0.794900	0.461300	0.997500
H781	H78	0.809500	0.392000	0.009800
C1161	C116	0.718700	0.444800	0.017570
H791	H79	0.741500	0.449200	0.029900
H801	H80	0.700800	0.491900	0.013900
Al81	Al8	0.398080	0.602330	0.041310
Al91	Al9	0.852940	0.896830	0.786900
Al101	Al10	0.828590	0.841680	0.749450
Al111	Al11	0.970060	0.004320	0.805660
O371	O37	0.921260	0.967060	0.785770
H811	H81	0.932100	0.985500	0.773800
O381	O38	0.876970	0.908670	0.734100
O391	O39	0.801500	0.949930	0.803990
C1171	C117	0.647100	0.195700	0.953370
O401	O40	0.018620	0.037970	0.827330
C1181	C118	0.110400	0.064400	0.849150
C1191	C119	0.241500	0.920000	0.940310
O411	O41	0.893220	0.990650	0.821970
C1201	C120	0.208600	0.057700	0.902450
C1211	C121	0.496900	0.706200	0.929130
C1221	C122	0.826100	0.973700	0.819470
C1231	C123	0.559600	0.832600	0.914950
C1241	C124	0.662500	0.966200	0.887090
C1251	C125	0.174200	0.100600	0.852140
H821	H82	0.195900	0.126600	0.842400
C1261	C126	0.626800	0.903600	0.892070
H831	H83	0.625400	0.865300	0.883500
C1271	C127	0.079200	0.063300	0.829540
C1281	C128	0.636900	0.207200	0.933810
H841	H84	0.635700	0.253800	0.928900
C1291	C129	0.248200	0.793700	0.940140
H851	H85	0.250400	0.750700	0.933300
C1301	C130	0.280300	0.047800	0.936430
H861	H86	0.304900	0.044900	0.947900
C1311	C131	0.203200	0.998700	0.913120
H871	H87	0.173300	0.961400	0.909100
C1321	C132	0.594200	0.897100	0.909060
C1331	C133	0.462900	0.773000	0.930350
H881	H88	0.417300	0.774900	0.935900
C1341	C134	0.626000	0.020200	0.915480
C1351	C135	0.781700	0.977100	0.835950
C1361	C136	0.241400	0.917400	0.959860
H891	H89	0.237600	0.960100	0.966700
C1371	C137	0.561400	0.706800	0.920230
H901	H90	0.585100	0.663000	0.918700
C1381	C138	0.251400	0.792400	0.959530
C1391	C139	0.631600	0.080000	0.929540
C1401	C140	0.250600	0.115600	0.909080
H911	H91	0.255500	0.157800	0.902000
C1411	C141	0.661600	0.023900	0.898350
H921	H92	0.684800	0.066300	0.894700
C1421	C142	0.644700	0.128300	0.960200
H931	H93	0.647600	0.120300	0.973200
C1431	C143	0.241200	0.990600	0.930310
C1441	C144	0.492200	0.835800	0.923960
H941	H94	0.468300	0.879600	0.925500
C1451	C145	0.241500	0.858200	0.930590
H951	H95	0.237000	0.858700	0.917400
C1461	C146	0.764800	0.007100	0.868010
H961	H96	0.780600	0.030100	0.879000
C1471	C147	0.805900	0.011300	0.852060
H971	H97	0.849300	0.036600	0.852000
C1481	C148	0.701500	0.970200	0.868430
C1491	C149	0.637900	0.070400	0.947830
H981	H98	0.637800	0.023600	0.952700
C1501	C150	0.628700	0.149000	0.922080
H991	H99	0.621300	0.155700	0.909100
C1511	C151	0.107800	0.028700	0.881660
H1001	H100	0.084900	0.004800	0.891600
C1521	C152	0.172300	0.062900	0.884610
C1531	C153	0.205400	0.097500	0.869890
H1011	H101	0.249900	0.119400	0.871900
C1541	C154	0.716200	0.941200	0.836200
H1021	H102	0.699300	0.918800	0.825200
C1551	C155	0.466600	0.644800	0.937290
C1561	C156	0.246400	0.856900	0.968930
H1031	H103	0.246700	0.857200	0.982100
O421	O42	0.404890	0.648540	0.944020
O431	O43	0.502740	0.588000	0.937600
C1571	C157	0.594600	0.767900	0.913320
H1041	H104	0.639900	0.765200	0.907700
O441	O44	0.118780	0.089170	0.817070
C1581	C158	0.677000	0.938500	0.852110
H1051	H105	0.632700	0.914800	0.852100
C1591	C159	0.592000	0.956100	0.920700
H1061	H106	0.567500	0.953400	0.932200
C1601	C160	0.400100	0.153900	0.940060
H1071	H107	0.417200	0.106800	0.941200
C1611	C161	0.304300	0.238500	0.931820
H1081	H108	0.257100	0.247400	0.928000
C1621	C162	0.331200	0.170400	0.932790
O451	O45	0.657470	0.251780	0.982770
O461	O46	0.047610	0.022770	0.790910
H1091	H109	0.060300	0.987300	0.782200
C1631	C163	0.441000	0.214700	0.945410
H1101	H110	0.486800	0.207100	0.950400
C1641	C164	0.350600	0.294300	0.936830
H1111	H111	0.334500	0.341600	0.935400
C1651	C165	0.075700	0.030200	0.863050
H1121	H112	0.031600	0.007800	0.860800
C1661	C166	0.283900	0.107700	0.926350
C1671	C167	0.417400	0.283400	0.943650
C1681	C168	0.462400	0.342000	0.947960
O471	O47	0.526210	0.334350	0.952450
O481	O48	0.431680	0.404690	0.948030
O491	O49	0.270030	0.722710	0.986270
C1691	C169	0.265100	0.725500	0.968710
O501	O50	0.283360	0.671800	0.958430
C1701	C170	0.656800	0.258700	0.964790
O511	O51	0.663200	0.316990	0.956890
O521	O52	0.895930	0.839320	0.768790
O531	O53	0.801390	0.921600	0.764670
O541	O54	0.876250	0.763250	0.739410
C1711	C171	0.878400	0.977300	0.743120
H1131	H113	0.880600	0.014800	0.733500
H1141	H114	0.921400	0.981000	0.750900
C1721	C172	0.815400	0.987900	0.754800
H1151	H115	0.823900	0.026600	0.763800
H1161	H116	0.774400	0.000900	0.747000
C1731	C173	0.920000	0.727700	0.753540
H1171	H117	0.961300	0.705100	0.747500
H1181	H118	0.892000	0.690500	0.759800
C1741	C174	0.944800	0.781300	0.767570
H1191	H119	0.949200	0.758500	0.779900
H1201	H120	0.991900	0.799200	0.763900
Al121	Al12	0.102330	0.101920	0.791310
Al131	Al13	0.147060	0.103170	0.286900
Al141	Al14	0.171410	0.158320	0.249450
Al151	Al15	0.029940	0.995680	0.305660
O551	O55	0.078740	0.032940	0.285770
H1211	H121	0.067900	0.014500	0.273800
O561	O56	0.123030	0.091330	0.234100
O571	O57	0.198500	0.050070	0.303990
C1751	C175	0.352900	0.804300	0.453370
O581	O58	0.981380	0.962030	0.327330
C1761	C176	0.889600	0.935600	0.349150
C1771	C177	0.758500	0.080000	0.440310
O591	O59	0.106780	0.009350	0.321970
C1781	C178	0.791400	0.942300	0.402450
C1791	C179	0.503100	0.293800	0.429130
C1801	C180	0.173900	0.026300	0.319470
C1811	C181	0.440400	0.167400	0.414950
C1821	C182	0.337500	0.033800	0.387090
C1831	C183	0.825800	0.899400	0.352140
H1221	H122	0.804100	0.873400	0.342400
C1841	C184	0.373200	0.096400	0.392070
H1231	H123	0.374600	0.134700	0.383500
C1851	C185	0.920800	0.936700	0.329540
C1861	C186	0.363100	0.792800	0.433810
H1241	H124	0.364300	0.746200	0.428900
C1871	C187	0.751800	0.206300	0.440140
H1251	H125	0.749600	0.249300	0.433300
C1881	C188	0.719700	0.952200	0.436430
H1261	H126	0.695100	0.955100	0.447900
C1891	C189	0.796800	0.001300	0.413120
H1271	H127	0.826700	0.038600	0.409100
C1901	C190	0.405800	0.102900	0.409060
C1911	C191	0.537100	0.227000	0.430350
H1281	H128	0.582700	0.225100	0.435900
C1921	C192	0.374000	0.979800	0.415480
C1931	C193	0.218300	0.022900	0.335950
C1941	C194	0.758600	0.082600	0.459860
H1291	H129	0.762400	0.039900	0.466700
C1951	C195	0.438600	0.293200	0.420230
H1301	H130	0.414900	0.337000	0.418700
C1961	C196	0.748600	0.207600	0.459530
C1971	C197	0.368400	0.920000	0.429540
C1981	C198	0.749400	0.884400	0.409080
H1311	H131	0.744500	0.842200	0.402000
C1991	C199	0.338400	0.976100	0.398350
H1321	H132	0.315200	0.933700	0.394700
C2001	C200	0.355300	0.871700	0.460200
H1331	H133	0.352400	0.879700	0.473200
C2011	C201	0.758800	0.009400	0.430310
C2021	C202	0.507800	0.164200	0.423960
H1341	H134	0.531700	0.120400	0.425500
C2031	C203	0.758500	0.141800	0.430590
H1351	H135	0.763000	0.141300	0.417400
C2041	C204	0.235200	0.992900	0.368010
H1361	H136	0.219400	0.969900	0.379000
C2051	C205	0.194100	0.988700	0.352060
H1371	H137	0.150700	0.963400	0.352000
C2061	C206	0.298500	0.029800	0.368430
C2071	C207	0.362100	0.929600	0.447830
H1381	H138	0.362200	0.976400	0.452700
C2081	C208	0.371300	0.851000	0.422080
H1391	H139	0.378700	0.844300	0.409100
C2091	C209	0.892200	0.971300	0.381660
H1401	H140	0.915100	0.995200	0.391600
C2101	C210	0.827700	0.937100	0.384610
C2111	C211	0.794600	0.902500	0.369890
H1411	H141	0.750100	0.880600	0.371900
C2121	C212	0.283800	0.058800	0.336200
H1421	H142	0.300700	0.081200	0.325200
C2131	C213	0.533400	0.355200	0.437290
C2141	C214	0.753600	0.143100	0.468930
H1431	H143	0.753300	0.142800	0.482100
O601	O60	0.595110	0.351460	0.444020
O611	O61	0.497260	0.412000	0.437600
C2151	C215	0.405400	0.232100	0.413320
H1441	H144	0.360100	0.234800	0.407700
O621	O62	0.881220	0.910830	0.317070
C2161	C216	0.323000	0.061500	0.352110
H1451	H145	0.367300	0.085200	0.352100
C2171	C217	0.408000	0.043900	0.420700
H1461	H146	0.432500	0.046600	0.432200
C2181	C218	0.599900	0.846100	0.440060
H1471	H147	0.582800	0.893200	0.441200
C2191	C219	0.695700	0.761500	0.431820
H1481	H148	0.742900	0.752600	0.428000
C2201	C220	0.668800	0.829600	0.432790
O631	O63	0.342530	0.748220	0.482770
O641	O64	0.952390	0.977230	0.290910
H1491	H149	0.939700	0.012700	0.282200
C2211	C221	0.559000	0.785300	0.445410
H1501	H150	0.513200	0.792900	0.450400
C2221	C222	0.649400	0.705700	0.436830
H1511	H151	0.665500	0.658400	0.435400
C2231	C223	0.924300	0.969800	0.363050
H1521	H152	0.968400	0.992200	0.360800
C2241	C224	0.716100	0.892300	0.426350
C2251	C225	0.582600	0.716600	0.443650
C2261	C226	0.537600	0.658000	0.447960
O651	O65	0.473790	0.665650	0.452450
O661	O66	0.568320	0.595310	0.448030
O671	O67	0.729970	0.277290	0.486270
C2271	C227	0.734900	0.274500	0.468710
O681	O68	0.716640	0.328200	0.458430
C2281	C228	0.343200	0.741300	0.464790
O691	O69	0.336800	0.683010	0.456890
O701	O70	0.104070	0.160680	0.268790
O711	O71	0.198610	0.078400	0.264670
O721	O72	0.123750	0.236750	0.239410
C2291	C229	0.121600	0.022700	0.243120
H1531	H153	0.119400	0.985200	0.233500
H1541	H154	0.078600	0.019000	0.250900
C2301	C230	0.184600	0.012100	0.254800
H1551	H155	0.176100	0.973400	0.263800
H1561	H156	0.225600	0.999100	0.247000
C2311	C231	0.080000	0.272300	0.253540
H1571	H157	0.038700	0.294900	0.247500
H1581	H158	0.108000	0.309500	0.259800
C2321	C232	0.055200	0.218700	0.267570
H1591	H159	0.050800	0.241500	0.279900
H1601	H160	0.008100	0.200800	0.263900
Al161	Al16	0.897670	0.898080	0.291310
Al171	Al17	0.103170	0.147060	0.713100
Al181	Al18	0.158320	0.171410	0.750550
Al191	Al19	0.995680	0.029940	0.694340
O731	O73	0.032940	0.078740	0.714230
H1611	H161	0.014500	0.067900	0.726200
O741	O74	0.091330	0.123030	0.765900
O751	O75	0.050070	0.198500	0.696010
C2331	C233	0.804300	0.352900	0.546630
O761	O76	0.962030	0.981380	0.672670
C2341	C234	0.935600	0.889600	0.650850
C2351	C235	0.080000	0.758500	0.559690
O771	O77	0.009350	0.106780	0.678030
C2361	C236	0.942300	0.791400	0.597550
C2371	C237	0.293800	0.503100	0.570870
C2381	C238	0.026300	0.173900	0.680530
C2391	C239	0.167400	0.440400	0.585050
C2401	C240	0.033800	0.337500	0.612910
C2411	C241	0.899400	0.825800	0.647860
H1621	H162	0.873400	0.804100	0.657600
C2421	C242	0.096400	0.373200	0.607930
H1631	H163	0.134700	0.374600	0.616500
C2431	C243	0.936700	0.920800	0.670460
C2441	C244	0.792800	0.363100	0.566190
H1641	H164	0.746200	0.364300	0.571100
C2451	C245	0.206300	0.751800	0.559860
H1651	H165	0.249300	0.749600	0.566700
C2461	C246	0.952200	0.719700	0.563570
H1661	H166	0.955100	0.695100	0.552100
C2471	C247	0.001300	0.796800	0.586880
H1671	H167	0.038600	0.826700	0.590900
C2481	C248	0.102900	0.405800	0.590940
C2491	C249	0.227000	0.537100	0.569650
H1681	H168	0.225100	0.582700	0.564100
C2501	C250	0.979800	0.374000	0.584520
C2511	C251	0.022900	0.218300	0.664050
C2521	C252	0.082600	0.758600	0.540140
H1691	H169	0.039900	0.762400	0.533300
C2531	C253	0.293200	0.438600	0.579770
H1701	H170	0.337000	0.414900	0.581300
C2541	C254	0.207600	0.748600	0.540470
C2551	C255	0.920000	0.368400	0.570460
C2561	C256	0.884400	0.749400	0.590920
H1711	H171	0.842200	0.744500	0.598000
C2571	C257	0.976100	0.338400	0.601650
H1721	H172	0.933700	0.315200	0.605300
C2581	C258	0.871700	0.355300	0.539800
H1731	H173	0.879700	0.352400	0.526800
C2591	C259	0.009400	0.758800	0.569690
C2601	C260	0.164200	0.507800	0.576040
H1741	H174	0.120400	0.531700	0.574500
C2611	C261	0.141800	0.758500	0.569410
H1751	H175	0.141300	0.763000	0.582600
C2621	C262	0.992900	0.235200	0.631990
H1761	H176	0.969900	0.219400	0.621000
C2631	C263	0.988700	0.194100	0.647940
H1771	H177	0.963400	0.150700	0.648000
C2641	C264	0.029800	0.298500	0.631570
C2651	C265	0.929600	0.362100	0.552170
H1781	H178	0.976400	0.362200	0.547300
C2661	C266	0.851000	0.371300	0.577920
H1791	H179	0.844300	0.378700	0.590900
C2671	C267	0.971300	0.892200	0.618340
H1801	H180	0.995200	0.915100	0.608400
C2681	C268	0.937100	0.827700	0.615390
C2691	C269	0.902500	0.794600	0.630110
H1811	H181	0.880600	0.750100	0.628100
C2701	C270	0.058800	0.283800	0.663800
H1821	H182	0.081200	0.300700	0.674800
C2711	C271	0.355200	0.533400	0.562710
C2721	C272	0.143100	0.753600	0.531070
H1831	H183	0.142800	0.753300	0.517900
O781	O78	0.351460	0.595110	0.555980
O791	O79	0.412000	0.497260	0.562400
C2731	C273	0.232100	0.405400	0.586680
H1841	H184	0.234800	0.360100	0.592300
O801	O80	0.910830	0.881220	0.682930
C2741	C274	0.061500	0.323000	0.647890
H1851	H185	0.085200	0.367300	0.647900
C2751	C275	0.043900	0.408000	0.579300
H1861	H186	0.046600	0.432500	0.567800
C2761	C276	0.846100	0.599900	0.559940
H1871	H187	0.893200	0.582800	0.558800
C2771	C277	0.761500	0.695700	0.568180
H1881	H188	0.752600	0.742900	0.572000
C2781	C278	0.829600	0.668800	0.567210
O811	O81	0.748220	0.342530	0.517230
O821	O82	0.977230	0.952390	0.709090
H1891	H189	0.012700	0.939700	0.717800
C2791	C279	0.785300	0.559000	0.554590
H1901	H190	0.792900	0.513200	0.549600
C2801	C280	0.705700	0.649400	0.563170
H1911	H191	0.658400	0.665500	0.564600
C2811	C281	0.969800	0.924300	0.636950
H1921	H192	0.992200	0.968400	0.639200
C2821	C282	0.892300	0.716100	0.573650
C2831	C283	0.716600	0.582600	0.556350
C2841	C284	0.658000	0.537600	0.552040
O831	O83	0.665650	0.473790	0.547550
O841	O84	0.595310	0.568320	0.551970
O851	O85	0.277290	0.729970	0.513730
C2851	C285	0.274500	0.734900	0.531290
O861	O86	0.328200	0.716640	0.541570
C2861	C286	0.741300	0.343200	0.535210
O871	O87	0.683010	0.336800	0.543110
O881	O88	0.160680	0.104070	0.731210
O891	O89	0.078400	0.198610	0.735330
O901	O90	0.236750	0.123750	0.760590
C2871	C287	0.022700	0.121600	0.756880
H1931	H193	0.985200	0.119400	0.766500
H1941	H194	0.019000	0.078600	0.749100
C2881	C288	0.012100	0.184600	0.745200
H1951	H195	0.973400	0.176100	0.736200
H1961	H196	0.999100	0.225600	0.753000
C2891	C289	0.272300	0.080000	0.746460
H1971	H197	0.294900	0.038700	0.752500
H1981	H198	0.309500	0.108000	0.740200
C2901	C290	0.218700	0.055200	0.732430
H1991	H199	0.241500	0.050800	0.720100
H2001	H200	0.200800	0.008100	0.736100
Al201	Al20	0.898080	0.897670	0.708690
Al211	Al21	0.896830	0.852940	0.213100
Al221	Al22	0.841680	0.828590	0.250550
Al231	Al23	0.004320	0.970060	0.194340
O911	O91	0.967060	0.921260	0.214230
H2011	H201	0.985500	0.932100	0.226200
O921	O92	0.908670	0.876970	0.265900
O931	O93	0.949930	0.801500	0.196010
C2911	C291	0.195700	0.647100	0.046630
O941	O94	0.037970	0.018620	0.172670
C2921	C292	0.064400	0.110400	0.150850
C2931	C293	0.920000	0.241500	0.059690
O951	O95	0.990650	0.893220	0.178030
C2941	C294	0.057700	0.208600	0.097550
C2951	C295	0.706200	0.496900	0.070870
C2961	C296	0.973700	0.826100	0.180530
C2971	C297	0.832600	0.559600	0.085050
C2981	C298	0.966200	0.662500	0.112910
C2991	C299	0.100600	0.174200	0.147860
H2021	H202	0.126600	0.195900	0.157600
C3001	C300	0.903600	0.626800	0.107930
H2031	H203	0.865300	0.625400	0.116500
C3011	C301	0.063300	0.079200	0.170460
C3021	C302	0.207200	0.636900	0.066190
H2041	H204	0.253800	0.635700	0.071100
C3031	C303	0.793700	0.248200	0.059860
H2051	H205	0.750700	0.250400	0.066700
C3041	C304	0.047800	0.280300	0.063570
H2061	H206	0.044900	0.304900	0.052100
C3051	C305	0.998700	0.203200	0.086880
H2071	H207	0.961400	0.173300	0.090900
C3061	C306	0.897100	0.594200	0.090940
C3071	C307	0.773000	0.462900	0.069650
H2081	H208	0.774900	0.417300	0.064100
C3081	C308	0.020200	0.626000	0.084520
C3091	C309	0.977100	0.781700	0.164050
C3101	C310	0.917400	0.241400	0.040140
H2091	H209	0.960100	0.237600	0.033300
C3111	C311	0.706800	0.561400	0.079770
H2101	H210	0.663000	0.585100	0.081300
C3121	C312	0.792400	0.251400	0.040470
C3131	C313	0.080000	0.631600	0.070460
C3141	C314	0.115600	0.250600	0.090920
H2111	H211	0.157800	0.255500	0.098000
C3151	C315	0.023900	0.661600	0.101650
H2121	H212	0.066300	0.684800	0.105300
C3161	C316	0.128300	0.644700	0.039800
H2131	H213	0.120300	0.647600	0.026800
C3171	C317	0.990600	0.241200	0.069690
C3181	C318	0.835800	0.492200	0.076040
H2141	H214	0.879600	0.468300	0.074500
C3191	C319	0.858200	0.241500	0.069410
H2151	H215	0.858700	0.237000	0.082600
C3201	C320	0.007100	0.764800	0.131990
H2161	H216	0.030100	0.780600	0.121000
C3211	C321	0.011300	0.805900	0.147940
H2171	H217	0.036600	0.849300	0.148000
C3221	C322	0.970200	0.701500	0.131570
C3231	C323	0.070400	0.637900	0.052170
H2181	H218	0.023600	0.637800	0.047300
C3241	C324	0.149000	0.628700	0.077920
H2191	H219	0.155700	0.621300	0.090900
C3251	C325	0.028700	0.107800	0.118340
H2201	H220	0.004800	0.084900	0.108400
C3261	C326	0.062900	0.172300	0.115390
C3271	C327	0.097500	0.205400	0.130110
H2211	H221	0.119400	0.249900	0.128100
C3281	C328	0.941200	0.716200	0.163800
H2221	H222	0.918800	0.699300	0.174800
C3291	C329	0.644800	0.466600	0.062710
C3301	C330	0.856900	0.246400	0.031070
H2231	H223	0.857200	0.246700	0.017900
O961	O96	0.648540	0.404890	0.055980
O971	O97	0.588000	0.502740	0.062400
C3311	C331	0.767900	0.594600	0.086680
H2241	H224	0.765200	0.639900	0.092300
O981	O98	0.089170	0.118780	0.182930
C3321	C332	0.938500	0.677000	0.147890
H2251	H225	0.914800	0.632700	0.147900
C3331	C333	0.956100	0.592000	0.079300
H2261	H226	0.953400	0.567500	0.067800
C3341	C334	0.153900	0.400100	0.059940
H2271	H227	0.106800	0.417200	0.058800
C3351	C335	0.238500	0.304300	0.068180
H2281	H228	0.247400	0.257100	0.072000
C3361	C336	0.170400	0.331200	0.067210
O991	O99	0.251780	0.657470	0.017230
O1001	O100	0.022770	0.047610	0.209090
H2291	H229	0.987300	0.060300	0.217800
C3371	C337	0.214700	0.441000	0.054590
H2301	H230	0.207100	0.486800	0.049600
C3381	C338	0.294300	0.350600	0.063170
H2311	H231	0.341600	0.334500	0.064600
C3391	C339	0.030200	0.075700	0.136950
H2321	H232	0.007800	0.031600	0.139200
C3401	C340	0.107700	0.283900	0.073650
C3411	C341	0.283400	0.417400	0.056350
C3421	C342	0.342000	0.462400	0.052040
O1011	O101	0.334350	0.526210	0.047550
O1021	O102	0.404690	0.431680	0.051970
O1031	O103	0.722710	0.270030	0.013730
C3431	C343	0.725500	0.265100	0.031290
O1041	O104	0.671800	0.283360	0.041570
C3441	C344	0.258700	0.656800	0.035210
O1051	O105	0.316990	0.663200	0.043110
O1061	O106	0.839320	0.895930	0.231210
O1071	O107	0.921600	0.801390	0.235330
O1081	O108	0.763250	0.876250	0.260590
C3451	C345	0.977300	0.878400	0.256880
H2331	H233	0.014800	0.880600	0.266500
H2341	H234	0.981000	0.921400	0.249100
C3461	C346	0.987900	0.815400	0.245200
H2351	H235	0.026600	0.823900	0.236200
H2361	H236	0.000900	0.774400	0.253000
C3471	C347	0.727700	0.920000	0.246460
H2371	H237	0.705100	0.961300	0.252500
H2381	H238	0.690500	0.892000	0.240200
C3481	C348	0.781300	0.944800	0.232430
H2391	H239	0.758500	0.949200	0.220100
H2401	H240	0.799200	0.991900	0.236100
Al241	Al24	0.101920	0.102330	0.208690
Al251	Al25	0.647060	0.396830	0.463100
Al261	Al26	0.671410	0.341680	0.500550
Al271	Al27	0.529940	0.504320	0.444340
O1091	O109	0.578740	0.467060	0.464230
H2411	H241	0.567900	0.485500	0.476200
O1101	O110	0.623030	0.408670	0.515900
O1111	O111	0.698500	0.449930	0.446010
C3491	C349	0.852900	0.695700	0.296630
O1121	O112	0.481380	0.537970	0.422670
C3501	C350	0.389600	0.564400	0.400850
C3511	C351	0.258500	0.420000	0.309690
O1131	O113	0.606780	0.490650	0.428030
C3521	C352	0.291400	0.557700	0.347550
C3531	C353	0.003100	0.206200	0.320870
C3541	C354	0.673900	0.473700	0.430530
C3551	C355	0.940400	0.332600	0.335050
C3561	C356	0.837500	0.466200	0.362910
C3571	C357	0.325800	0.600600	0.397860
H2421	H242	0.304100	0.626600	0.407600
C3581	C358	0.873200	0.403600	0.357930
H2431	H243	0.874600	0.365300	0.366500
C3591	C359	0.420800	0.563300	0.420460
C3601	C360	0.863100	0.707200	0.316190
H2441	H244	0.864300	0.753800	0.321100
C3611	C361	0.251800	0.293700	0.309860
H2451	H245	0.249600	0.250700	0.316700
C3621	C362	0.219700	0.547800	0.313570
H2461	H246	0.195100	0.544900	0.302100
C3631	C363	0.296800	0.498700	0.336880
H2471	H247	0.326700	0.461400	0.340900
C3641	C364	0.905800	0.397100	0.340940
C3651	C365	0.037100	0.273000	0.319650
H2481	H248	0.082700	0.274900	0.314100
C3661	C366	0.874000	0.520200	0.334520
C3671	C367	0.718300	0.477100	0.414050
C3681	C368	0.258600	0.417400	0.290140
H2491	H249	0.262400	0.460100	0.283300
C3691	C369	0.938600	0.206800	0.329770
H2501	H250	0.914900	0.163000	0.331300
C3701	C370	0.248600	0.292400	0.290470
C3711	C371	0.868400	0.580000	0.320460
C3721	C372	0.249400	0.615600	0.340920
H2511	H251	0.244500	0.657800	0.348000
C3731	C373	0.838400	0.523900	0.351650
H2521	H252	0.815200	0.566300	0.355300
C3741	C374	0.855300	0.628300	0.289800
H2531	H253	0.852400	0.620300	0.276800
C3751	C375	0.258800	0.490600	0.319690
C3761	C376	0.007800	0.335800	0.326040
H2541	H254	0.031700	0.379600	0.324500
C3771	C377	0.258500	0.358200	0.319410
H2551	H255	0.263000	0.358700	0.332600
C3781	C378	0.735200	0.507100	0.381990
H2561	H256	0.719400	0.530100	0.371000
C3791	C379	0.694100	0.511300	0.397940
H2571	H257	0.650700	0.536600	0.398000
C3801	C380	0.798500	0.470200	0.381570
C3811	C381	0.862100	0.570400	0.302170
H2581	H258	0.862200	0.523600	0.297300
C3821	C382	0.871300	0.649000	0.327920
H2591	H259	0.878700	0.655700	0.340900
C3831	C383	0.392200	0.528700	0.368340
H2601	H260	0.415100	0.504800	0.358400
C3841	C384	0.327700	0.562900	0.365390
C3851	C385	0.294600	0.597500	0.380110
H2611	H261	0.250100	0.619400	0.378100
C3861	C386	0.783800	0.441200	0.413800
H2621	H262	0.800700	0.418800	0.424800
C3871	C387	0.033400	0.144800	0.312710
C3881	C388	0.253600	0.356900	0.281070
H2631	H263	0.253300	0.357200	0.267900
O1141	O114	0.095110	0.148540	0.305980
O1151	O115	0.997260	0.088000	0.312400
C3891	C389	0.905400	0.267900	0.336680
H2641	H264	0.860100	0.265200	0.342300
O1161	O116	0.381220	0.589170	0.432930
C3901	C390	0.823000	0.438500	0.397890
H2651	H265	0.867300	0.414800	0.397900
C3911	C391	0.908000	0.456100	0.329300
H2661	H266	0.932500	0.453400	0.317800
C3921	C392	0.099900	0.653900	0.309940
H2671	H267	0.082800	0.606800	0.308800
C3931	C393	0.195700	0.738500	0.318180
H2681	H268	0.242900	0.747400	0.322000
C3941	C394	0.168800	0.670400	0.317210
O1171	O117	0.842530	0.751780	0.267230
O1181	O118	0.452390	0.522770	0.459090
H2691	H269	0.439700	0.487300	0.467800
C3951	C395	0.059000	0.714700	0.304590
H2701	H270	0.013200	0.707100	0.299600
C3961	C396	0.149400	0.794300	0.313170
H2711	H271	0.165500	0.841600	0.314600
C3971	C397	0.424300	0.530200	0.386950
H2721	H272	0.468400	0.507800	0.389200
C3981	C398	0.216100	0.607700	0.323650
C3991	C399	0.082600	0.783400	0.306350
C4001	C400	0.037600	0.842000	0.302040
O1191	O119	0.973790	0.834350	0.297550
O1201	O120	0.068320	0.904690	0.301970
O1211	O121	0.229970	0.222710	0.263730
C4011	C401	0.234900	0.225500	0.281290
O1221	O122	0.216640	0.171800	0.291570
C4021	C402	0.843200	0.758700	0.285210
O1231	O123	0.836800	0.816990	0.293110
O1241	O124	0.604070	0.339320	0.481210
O1251	O125	0.698610	0.421600	0.485330
O1261	O126	0.623750	0.263250	0.510590
C4031	C403	0.621600	0.477300	0.506880
H2731	H273	0.619400	0.514800	0.516500
H2741	H274	0.578600	0.481000	0.499100
C4041	C404	0.684600	0.487900	0.495200
H2751	H275	0.676100	0.526600	0.486200
H2761	H276	0.725600	0.500900	0.503000
C4051	C405	0.580000	0.227700	0.496460
H2771	H277	0.538700	0.205100	0.502500
H2781	H278	0.608000	0.190500	0.490200
C4061	C406	0.555200	0.281300	0.482430
H2791	H279	0.550800	0.258500	0.470100
H2801	H280	0.508100	0.299200	0.486100
Al281	Al28	0.397670	0.601920	0.458690
Al291	Al29	0.352940	0.603170	0.963100
Al301	Al30	0.328590	0.658320	0.000550
Al311	Al31	0.470060	0.495680	0.944340
O1271	O127	0.421260	0.532940	0.964230
H2811	H281	0.432100	0.514500	0.976200
O1281	O128	0.376970	0.591330	0.015900
O1291	O129	0.301500	0.550070	0.946010
C4071	C407	0.147100	0.304300	0.796630
O1301	O130	0.518620	0.462030	0.922670
C4081	C408	0.610400	0.435600	0.900850
C4091	C409	0.741500	0.580000	0.809690
O1311	O131	0.393220	0.509350	0.928030
C4101	C410	0.708600	0.442300	0.847550
C4111	C411	0.996900	0.793800	0.820870
C4121	C412	0.326100	0.526300	0.930530
C4131	C413	0.059600	0.667400	0.835050
C4141	C414	0.162500	0.533800	0.862910
C4151	C415	0.674200	0.399400	0.897860
H2821	H282	0.695900	0.373400	0.907600
C4161	C416	0.126800	0.596400	0.857930
H2831	H283	0.125400	0.634700	0.866500
C4171	C417	0.579200	0.436700	0.920460
C4181	C418	0.136900	0.292800	0.816190
H2841	H284	0.135700	0.246200	0.821100
C4191	C419	0.748200	0.706300	0.809860
H2851	H285	0.750400	0.749300	0.816700
C4201	C420	0.780300	0.452200	0.813570
H2861	H286	0.804900	0.455100	0.802100
C4211	C421	0.703200	0.501300	0.836880
H2871	H287	0.673300	0.538600	0.840900
C4221	C422	0.094200	0.602900	0.840940
C4231	C423	0.962900	0.727000	0.819650
H2881	H288	0.917300	0.725100	0.814100
C4241	C424	0.126000	0.479800	0.834520
C4251	C425	0.281700	0.522900	0.914050
C4261	C426	0.741400	0.582600	0.790140
H2891	H289	0.737600	0.539900	0.783300
C4271	C427	0.061400	0.793200	0.829770
H2901	H290	0.085100	0.837000	0.831300
C4281	C428	0.751400	0.707600	0.790470
C4291	C429	0.131600	0.420000	0.820460
C4301	C430	0.750600	0.384400	0.840920
H2911	H291	0.755500	0.342200	0.848000
C4311	C431	0.161600	0.476100	0.851650
H2921	H292	0.184800	0.433700	0.855300
C4321	C432	0.144700	0.371700	0.789800
H2931	H293	0.147600	0.379700	0.776800
C4331	C433	0.741200	0.509400	0.819690
C4341	C434	0.992200	0.664200	0.826040
H2941	H294	0.968300	0.620400	0.824500
C4351	C435	0.741500	0.641800	0.819410
H2951	H295	0.737000	0.641300	0.832600
C4361	C436	0.264800	0.492900	0.881990
H2961	H296	0.280600	0.469900	0.871000
C4371	C437	0.305900	0.488700	0.897940
H2971	H297	0.349300	0.463400	0.898000
C4381	C438	0.201500	0.529800	0.881570
C4391	C439	0.137900	0.429600	0.802170
H2981	H298	0.137800	0.476400	0.797300
C4401	C440	0.128700	0.351000	0.827920
H2991	H299	0.121300	0.344300	0.840900
C4411	C441	0.607800	0.471300	0.868340
H3001	H300	0.584900	0.495200	0.858400
C4421	C442	0.672300	0.437100	0.865390
C4431	C443	0.705400	0.402500	0.880110
H3011	H301	0.749900	0.380600	0.878100
C4441	C444	0.216200	0.558800	0.913800
H3021	H302	0.199300	0.581200	0.924800
C4451	C445	0.966600	0.855200	0.812710
C4461	C446	0.746400	0.643100	0.781070
H3031	H303	0.746700	0.642800	0.767900
O1321	O132	0.904890	0.851460	0.805980
O1331	O133	0.002740	0.912000	0.812400
C4471	C447	0.094600	0.732100	0.836680
H3041	H304	0.139900	0.734800	0.842300
O1341	O134	0.618780	0.410830	0.932930
C4481	C448	0.177000	0.561500	0.897890
H3051	H305	0.132700	0.585200	0.897900
C4491	C449	0.092000	0.543900	0.829300
H3061	H306	0.067500	0.546600	0.817800
C4501	C450	0.900100	0.346100	0.809940
H3071	H307	0.917200	0.393200	0.808800
C4511	C451	0.804300	0.261500	0.818180
H3081	H308	0.757100	0.252600	0.822000
C4521	C452	0.831200	0.329600	0.817210
O1351	O135	0.157470	0.248220	0.767230
O1361	O136	0.547610	0.477230	0.959090
H3091	H309	0.560300	0.512700	0.967800
C4531	C453	0.941000	0.285300	0.804590
H3101	H310	0.986800	0.292900	0.799600
C4541	C454	0.850600	0.205700	0.813170
H3111	H311	0.834500	0.158400	0.814600
C4551	C455	0.575700	0.469800	0.886950
H3121	H312	0.531600	0.492200	0.889200
C4561	C456	0.783900	0.392300	0.823650
C4571	C457	0.917400	0.216600	0.806350
C4581	C458	0.962400	0.158000	0.802040
O1371	O137	0.026210	0.165650	0.797550
O1381	O138	0.931680	0.095310	0.801970
O1391	O139	0.770030	0.777290	0.763730
C4591	C459	0.765100	0.774500	0.781290
O1401	O140	0.783360	0.828200	0.791570
C4601	C460	0.156800	0.241300	0.785210
O1411	O141	0.163200	0.183010	0.793110
O1421	O142	0.395930	0.660680	0.981210
O1431	O143	0.301390	0.578400	0.985330
O1441	O144	0.376250	0.736750	0.010590
C4611	C461	0.378400	0.522700	0.006880
H3131	H313	0.380600	0.485200	0.016500
H3141	H314	0.421400	0.519000	0.999100
C4621	C462	0.315400	0.512100	0.995200
H3151	H315	0.323900	0.473400	0.986200
H3161	H316	0.274400	0.499100	0.003000
C4631	C463	0.420000	0.772300	0.996460
H3171	H317	0.461300	0.794900	0.002500
H3181	H318	0.392000	0.809500	0.990200
C4641	C464	0.444800	0.718700	0.982430
H3191	H319	0.449200	0.741500	0.970100
H3201	H320	0.491900	0.700800	0.986100
Al321	Al32	0.602330	0.398080	0.958690
