data_OTENEH_charged_PM
_symmetry_space_group_name_H-M	'P1'
_cell_length_a	17.030000
_cell_length_b	17.086000
_cell_length_c	21.121000
_cell_angle_alpha	90.000000
_cell_angle_beta	90.000000
_cell_angle_gamma	99.158000
_symmetry_Int_Tables_number 1

loop_
_symmetry_equiv_pos_as_xyz
'x,y,z'

loop_
_atom_site_label
_atom_site_type_symbol
_atom_site_fract_x
_atom_site_fract_y
_atom_site_fract_z
Pr11	Pr1	0.537760	0.729550	0.451680
Pr21	Pr2	0.870530	0.749010	0.583250
Pr31	Pr3	0.482660	0.639310	0.643810
Pr41	Pr4	0.562290	0.872870	0.158730
Pr51	Pr5	0.962240	0.270450	0.951690
Pr61	Pr6	0.629470	0.250990	0.083250
Pr71	Pr7	0.017340	0.360690	0.143810
Pr81	Pr8	0.937710	0.127130	0.658730
Pr91	Pr9	0.462240	0.270450	0.548310
Pr101	Pr10	0.129470	0.250990	0.416750
Pr111	Pr11	0.517340	0.360690	0.356190
Pr121	Pr12	0.437710	0.127130	0.841270
Pr131	Pr13	0.037760	0.729550	0.048310
Pr141	Pr14	0.370530	0.749010	0.916750
Pr151	Pr15	0.982660	0.639310	0.856190
Pr161	Pr16	0.062290	0.872870	0.341270
H11	H1	0.906700	0.816900	0.716620
H21	H2	0.976330	0.821500	0.686600
H31	H3	0.797600	0.581700	0.539900
H41	H4	0.853500	0.601300	0.495530
H51	H5	0.328900	0.660600	0.707880
H61	H6	0.312700	0.655500	0.645970
H71	H7	0.507100	0.694400	0.135400
H81	H8	0.562700	0.694200	0.179900
H91	H9	0.555100	0.815000	0.648700
H101	H10	0.477900	0.816100	0.661700
H111	H11	0.512800	0.859200	0.547950
H121	H12	0.576900	0.891300	0.514400
H131	H13	0.707700	0.772500	0.466940
H141	H14	0.705000	0.802300	0.408390
H151	H15	0.507600	0.658900	0.320400
H161	H16	0.579600	0.704600	0.314000
H171	H17	0.615600	0.888100	0.022600
H181	H18	0.657300	0.829800	0.036200
H191	H19	0.022300	0.689400	0.526100
H201	H20	0.007900	0.757000	0.499110
H211	H21	0.733100	0.869700	0.198200
H221	H22	0.694200	0.796700	0.208000
H231	H23	0.593300	0.183100	0.216620
H241	H24	0.523670	0.178500	0.186600
H251	H25	0.702400	0.418300	0.039900
H261	H26	0.646500	0.398700	0.995530
H271	H27	0.171100	0.339400	0.207880
H281	H28	0.187300	0.344500	0.145970
H291	H29	0.992900	0.305600	0.635400
H301	H30	0.937300	0.305800	0.679900
H311	H31	0.944900	0.185000	0.148700
H321	H32	0.022100	0.183900	0.161700
H331	H33	0.987200	0.140800	0.047950
H341	H34	0.923100	0.108700	0.014400
H351	H35	0.792300	0.227500	0.966940
H361	H36	0.795000	0.197700	0.908390
H371	H37	0.992400	0.341100	0.820400
H381	H38	0.920400	0.295400	0.814000
H391	H39	0.884400	0.111900	0.522600
H401	H40	0.842700	0.170200	0.536200
H411	H41	0.477700	0.310600	0.026100
H421	H42	0.492100	0.243000	0.999110
H431	H43	0.766900	0.130300	0.698200
H441	H44	0.805800	0.203300	0.708000
H451	H45	0.093300	0.183100	0.283380
H461	H46	0.023670	0.178500	0.313400
H471	H47	0.202400	0.418300	0.460100
H481	H48	0.146500	0.398700	0.504470
H491	H49	0.671100	0.339400	0.292120
H501	H50	0.687300	0.344500	0.354030
H511	H51	0.492900	0.305600	0.864600
H521	H52	0.437300	0.305800	0.820100
H531	H53	0.444900	0.185000	0.351300
H541	H54	0.522100	0.183900	0.338300
H551	H55	0.487200	0.140800	0.452050
H561	H56	0.423100	0.108700	0.485600
H571	H57	0.292300	0.227500	0.533060
H581	H58	0.295000	0.197700	0.591610
H591	H59	0.492400	0.341100	0.679600
H601	H60	0.420400	0.295400	0.686000
H611	H61	0.384400	0.111900	0.977400
H621	H62	0.342700	0.170200	0.963800
H631	H63	0.977700	0.310600	0.473900
H641	H64	0.992100	0.243000	0.500890
H651	H65	0.266900	0.130300	0.801800
H661	H66	0.305800	0.203300	0.792000
H671	H67	0.406700	0.816900	0.783380
H681	H68	0.476330	0.821500	0.813400
H691	H69	0.297600	0.581700	0.960100
H701	H70	0.353500	0.601300	0.004470
H711	H71	0.828900	0.660600	0.792120
H721	H72	0.812700	0.655500	0.854030
H731	H73	0.007100	0.694400	0.364600
H741	H74	0.062700	0.694200	0.320100
H751	H75	0.055100	0.815000	0.851300
H761	H76	0.977900	0.816100	0.838300
H771	H77	0.012800	0.859200	0.952050
H781	H78	0.076900	0.891300	0.985600
H791	H79	0.207700	0.772500	0.033060
H801	H80	0.205000	0.802300	0.091610
H811	H81	0.007600	0.658900	0.179600
H821	H82	0.079600	0.704600	0.186000
H831	H83	0.115600	0.888100	0.477400
H841	H84	0.157300	0.829800	0.463800
H851	H85	0.522300	0.689400	0.973900
H861	H86	0.507900	0.757000	0.000890
H871	H87	0.233100	0.869700	0.301800
H881	H88	0.194200	0.796700	0.292000
C11	C1	0.342000	0.729300	0.468700
C21	C2	0.358000	0.696200	0.529520
C31	C3	0.546500	0.954190	0.306910
C41	C4	0.548800	0.870410	0.322560
C51	C5	0.571110	0.539580	0.425530
C61	C6	0.484670	0.533810	0.420400
C71	C7	0.951100	0.544110	0.714180
C81	C8	0.950660	0.627840	0.696010
C91	C9	0.682840	0.684330	0.645500
C101	C10	0.666870	0.708030	0.579980
C111	C11	0.934520	0.946200	0.592640
C121	C12	0.853570	0.938780	0.617060
C131	C13	0.862700	0.835600	0.365680
C141	C14	0.894440	0.810660	0.426820
C151	C15	0.158000	0.270700	0.968700
C161	C16	0.142000	0.303800	0.029520
C171	C17	0.953500	0.045810	0.806910
C181	C18	0.951200	0.129590	0.822560
C191	C19	0.928890	0.460420	0.925530
C201	C20	0.015330	0.466190	0.920400
C211	C21	0.548900	0.455890	0.214180
C221	C22	0.549340	0.372160	0.196010
C231	C23	0.817160	0.315670	0.145500
C241	C24	0.833130	0.291970	0.079980
C251	C25	0.565480	0.053800	0.092640
C261	C26	0.646430	0.061220	0.117060
C271	C27	0.637300	0.164400	0.865680
C281	C28	0.605560	0.189340	0.926820
C291	C29	0.658000	0.270700	0.531300
C301	C30	0.642000	0.303800	0.470480
C311	C31	0.453500	0.045810	0.693090
C321	C32	0.451200	0.129590	0.677440
C331	C33	0.428890	0.460420	0.574470
C341	C34	0.515330	0.466190	0.579600
C351	C35	0.048900	0.455890	0.285820
C361	C36	0.049340	0.372160	0.303990
C371	C37	0.317160	0.315670	0.354500
C381	C38	0.333130	0.291970	0.420020
C391	C39	0.065480	0.053800	0.407360
C401	C40	0.146430	0.061220	0.382940
C411	C41	0.137300	0.164400	0.634320
C421	C42	0.105560	0.189340	0.573180
C431	C43	0.842000	0.729300	0.031300
C441	C44	0.858000	0.696200	0.970480
C451	C45	0.046500	0.954190	0.193090
C461	C46	0.048800	0.870410	0.177440
C471	C47	0.071110	0.539580	0.074470
C481	C48	0.984670	0.533810	0.079600
C491	C49	0.451100	0.544110	0.785820
C501	C50	0.450660	0.627840	0.803990
C511	C51	0.182840	0.684330	0.854500
C521	C52	0.166870	0.708030	0.920020
C531	C53	0.434520	0.946200	0.907360
C541	C54	0.353570	0.938780	0.882940
C551	C55	0.362700	0.835600	0.134320
C561	C56	0.394440	0.810660	0.073180
N11	N1	0.398330	0.756010	0.427410
N21	N2	0.362300	0.784800	0.377260
N31	N3	0.285700	0.775500	0.391000
N41	N4	0.269800	0.736300	0.446300
N51	N5	0.541400	0.012400	0.347780
N61	N6	0.542700	0.077500	0.309400
N71	N7	0.547400	0.055960	0.250240
N81	N8	0.549740	0.978240	0.247540
N91	N9	0.607950	0.481670	0.408770
N101	N10	0.689800	0.512600	0.421400
N111	N11	0.695000	0.583900	0.443100
N121	N12	0.614230	0.604800	0.445250
N131	N13	0.965200	0.523790	0.772410
N141	N14	0.959000	0.444860	0.771630
N151	N15	0.938100	0.417700	0.714760
N161	N16	0.934500	0.480000	0.675830
N171	N17	0.629030	0.657170	0.689480
N181	N18	0.671530	0.643710	0.740080
N191	N19	0.746790	0.664320	0.728050
N201	N20	0.755930	0.690720	0.667340
N211	N21	0.963930	0.886180	0.564490
N221	N22	0.040340	0.917280	0.549640
N231	N23	0.054820	0.992680	0.568970
N241	N24	0.988910	0.011770	0.596250
N251	N25	0.911010	0.862600	0.317760
N261	N26	0.862810	0.881600	0.271320
N271	N27	0.788800	0.865800	0.292240
N281	N28	0.787700	0.838800	0.351830
N291	N29	0.101670	0.243990	0.927410
N301	N30	0.137700	0.215200	0.877260
N311	N31	0.214300	0.224500	0.891000
N321	N32	0.230200	0.263700	0.946300
N331	N33	0.958600	0.987600	0.847780
N341	N34	0.957300	0.922500	0.809400
N351	N35	0.952600	0.944040	0.750240
N361	N36	0.950260	0.021760	0.747540
N371	N37	0.892050	0.518330	0.908770
N381	N38	0.810200	0.487400	0.921400
N391	N39	0.805000	0.416100	0.943100
N401	N40	0.885770	0.395200	0.945250
N411	N41	0.534800	0.476210	0.272410
N421	N42	0.541000	0.555140	0.271630
N431	N43	0.561900	0.582300	0.214760
N441	N44	0.565500	0.520000	0.175830
N451	N45	0.870970	0.342830	0.189480
N461	N46	0.828470	0.356290	0.240080
N471	N47	0.753210	0.335680	0.228050
N481	N48	0.744070	0.309280	0.167340
N491	N49	0.536070	0.113820	0.064490
N501	N50	0.459660	0.082720	0.049640
N511	N51	0.445180	0.007320	0.068970
N521	N52	0.511090	0.988230	0.096250
N531	N53	0.588990	0.137400	0.817760
N541	N54	0.637190	0.118400	0.771320
N551	N55	0.711200	0.134200	0.792240
N561	N56	0.712300	0.161200	0.851830
N571	N57	0.601670	0.243990	0.572590
N581	N58	0.637700	0.215200	0.622740
N591	N59	0.714300	0.224500	0.609000
N601	N60	0.730200	0.263700	0.553700
N611	N61	0.458600	0.987600	0.652220
N621	N62	0.457300	0.922500	0.690600
N631	N63	0.452600	0.944040	0.749760
N641	N64	0.450260	0.021760	0.752460
N651	N65	0.392050	0.518330	0.591230
N661	N66	0.310200	0.487400	0.578600
N671	N67	0.305000	0.416100	0.556900
N681	N68	0.385770	0.395200	0.554750
N691	N69	0.034800	0.476210	0.227590
N701	N70	0.041000	0.555140	0.228370
N711	N71	0.061900	0.582300	0.285240
N721	N72	0.065500	0.520000	0.324170
N731	N73	0.370970	0.342830	0.310520
N741	N74	0.328470	0.356290	0.259920
N751	N75	0.253210	0.335680	0.271950
N761	N76	0.244070	0.309280	0.332660
N771	N77	0.036070	0.113820	0.435510
N781	N78	0.959660	0.082720	0.450360
N791	N79	0.945180	0.007320	0.431030
N801	N80	0.011090	0.988230	0.403750
N811	N81	0.088990	0.137400	0.682240
N821	N82	0.137190	0.118400	0.728680
N831	N83	0.211200	0.134200	0.707760
N841	N84	0.212300	0.161200	0.648170
N851	N85	0.898330	0.756010	0.072590
N861	N86	0.862300	0.784800	0.122740
N871	N87	0.785700	0.775500	0.109000
N881	N88	0.769800	0.736300	0.053700
N891	N89	0.041400	0.012400	0.152220
N901	N90	0.042700	0.077500	0.190600
N911	N91	0.047400	0.055960	0.249760
N921	N92	0.049740	0.978240	0.252460
N931	N93	0.107950	0.481670	0.091230
N941	N94	0.189800	0.512600	0.078600
N951	N95	0.195000	0.583900	0.056900
N961	N96	0.114230	0.604800	0.054750
N971	N97	0.465200	0.523790	0.727590
N981	N98	0.459000	0.444860	0.728370
N991	N99	0.438100	0.417700	0.785240
N1001	N100	0.434500	0.480000	0.824170
N1011	N101	0.129030	0.657170	0.810520
N1021	N102	0.171530	0.643710	0.759920
N1031	N103	0.246790	0.664320	0.771950
N1041	N104	0.255930	0.690720	0.832660
N1051	N105	0.463930	0.886180	0.935510
N1061	N106	0.540340	0.917280	0.950360
N1071	N107	0.554820	0.992680	0.931030
N1081	N108	0.488910	0.011770	0.903750
N1091	N109	0.411010	0.862600	0.182240
N1101	N110	0.362810	0.881600	0.228680
N1111	N111	0.288800	0.865800	0.207760
N1121	N112	0.287700	0.838800	0.148170
O11	O1	0.927890	0.800350	0.683820
O21	O2	0.430550	0.691360	0.542290
O31	O3	0.832780	0.619700	0.527780
O41	O4	0.346620	0.645450	0.673050
O51	O5	0.298700	0.670900	0.563870
O61	O6	0.539480	0.725710	0.158060
O71	O7	0.510990	0.784810	0.654770
O81	O8	0.541580	0.850270	0.516820
O91	O9	0.675530	0.786210	0.439760
O101	O10	0.541150	0.692800	0.339470
O111	O11	0.629010	0.860730	0.053190
O121	O12	0.995500	0.726860	0.530610
O131	O13	0.690690	0.839110	0.187870
O141	O14	0.547770	0.848660	0.378580
O151	O15	0.553890	0.826220	0.273630
O161	O16	0.444750	0.467560	0.401990
O171	O17	0.452270	0.593000	0.432850
O181	O18	0.972760	0.676300	0.740610
O191	O19	0.927150	0.644210	0.643490
O201	O20	0.593770	0.701150	0.563440
O211	O21	0.724890	0.731220	0.546870
O221	O22	0.810460	0.872430	0.612440
O231	O23	0.833600	0.001080	0.642190
O241	O24	0.969640	0.813150	0.426630
O251	O25	0.850000	0.788320	0.471110
O261	O26	0.572110	0.199650	0.183820
O271	O27	0.069450	0.308640	0.042290
O281	O28	0.667220	0.380300	0.027780
O291	O29	0.153380	0.354550	0.173050
O301	O30	0.201300	0.329100	0.063870
O311	O31	0.960520	0.274290	0.658060
O321	O32	0.989010	0.215190	0.154770
O331	O33	0.958420	0.149730	0.016820
O341	O34	0.824470	0.213790	0.939760
O351	O35	0.958850	0.307200	0.839470
O361	O36	0.870990	0.139270	0.553190
O371	O37	0.504500	0.273140	0.030610
O381	O38	0.809310	0.160890	0.687870
O391	O39	0.952230	0.151340	0.878580
O401	O40	0.946110	0.173780	0.773630
O411	O41	0.055250	0.532440	0.901990
O421	O42	0.047730	0.407000	0.932850
O431	O43	0.527240	0.323700	0.240610
O441	O44	0.572850	0.355790	0.143490
O451	O45	0.906230	0.298850	0.063440
O461	O46	0.775110	0.268780	0.046870
O471	O47	0.689540	0.127570	0.112440
O481	O48	0.666400	0.998920	0.142190
O491	O49	0.530360	0.186850	0.926630
O501	O50	0.650000	0.211680	0.971110
O511	O51	0.072110	0.199650	0.316180
O521	O52	0.569450	0.308640	0.457710
O531	O53	0.167220	0.380300	0.472220
O541	O54	0.653380	0.354550	0.326950
O551	O55	0.701300	0.329100	0.436130
O561	O56	0.460520	0.274290	0.841940
O571	O57	0.489010	0.215190	0.345230
O581	O58	0.458420	0.149730	0.483180
O591	O59	0.324470	0.213790	0.560240
O601	O60	0.458850	0.307200	0.660530
O611	O61	0.370990	0.139270	0.946810
O621	O62	0.004500	0.273140	0.469390
O631	O63	0.309310	0.160890	0.812130
O641	O64	0.452230	0.151340	0.621420
O651	O65	0.446110	0.173780	0.726370
O661	O66	0.555250	0.532440	0.598010
O671	O67	0.547730	0.407000	0.567150
O681	O68	0.027240	0.323700	0.259390
O691	O69	0.072850	0.355790	0.356510
O701	O70	0.406230	0.298850	0.436560
O711	O71	0.275110	0.268780	0.453130
O721	O72	0.189540	0.127570	0.387560
O731	O73	0.166400	0.998920	0.357810
O741	O74	0.030360	0.186850	0.573370
O751	O75	0.150000	0.211680	0.528890
O761	O76	0.427890	0.800350	0.816180
O771	O77	0.930550	0.691360	0.957710
O781	O78	0.332780	0.619700	0.972220
O791	O79	0.846620	0.645450	0.826950
O801	O80	0.798700	0.670900	0.936130
O811	O81	0.039480	0.725710	0.341940
O821	O82	0.010990	0.784810	0.845230
O831	O83	0.041580	0.850270	0.983180
O841	O84	0.175530	0.786210	0.060240
O851	O85	0.041150	0.692800	0.160530
O861	O86	0.129010	0.860730	0.446810
O871	O87	0.495500	0.726860	0.969390
O881	O88	0.190690	0.839110	0.312130
O891	O89	0.047770	0.848660	0.121420
O901	O90	0.053890	0.826220	0.226370
O911	O91	0.944750	0.467560	0.098010
O921	O92	0.952270	0.593000	0.067150
O931	O93	0.472760	0.676300	0.759390
O941	O94	0.427150	0.644210	0.856510
O951	O95	0.093770	0.701150	0.936560
O961	O96	0.224890	0.731220	0.953130
O971	O97	0.310460	0.872430	0.887560
O981	O98	0.333600	0.001080	0.857810
O991	O99	0.469640	0.813150	0.073370
O1001	O100	0.350000	0.788320	0.028890
