data_OTIBUQ_clean_PM
_symmetry_space_group_name_H-M	'P1'
_cell_length_a	31.978000
_cell_length_b	6.581200
_cell_length_c	16.862000
_cell_angle_alpha	90.000000
_cell_angle_beta	90.000000
_cell_angle_gamma	90.000000
_symmetry_Int_Tables_number 1

loop_
_symmetry_equiv_pos_as_xyz
'x,y,z'

loop_
_atom_site_label
_atom_site_type_symbol
_atom_site_fract_x
_atom_site_fract_y
_atom_site_fract_z
O11	O1	0.779500	0.158800	0.918200
C11	C1	0.847900	0.180400	0.788400
C21	C2	0.878230	0.180400	0.730900
H11	H1	0.836900	0.312000	0.809400
H21	H2	0.889290	0.312000	0.710000
O21	O2	0.279500	0.658800	0.918200
C31	C3	0.347900	0.680400	0.788400
C41	C4	0.378230	0.680400	0.730900
H31	H3	0.336900	0.812000	0.809400
H41	H4	0.389290	0.812000	0.710000
O31	O3	0.220500	0.841200	0.918200
C51	C5	0.152100	0.819600	0.788400
C61	C6	0.121770	0.819600	0.730900
H51	H5	0.163100	0.688000	0.809400
H61	H6	0.110710	0.688000	0.710000
O41	O4	0.720500	0.341200	0.918200
C71	C7	0.652100	0.319600	0.788400
C81	C8	0.621770	0.319600	0.730900
H71	H7	0.663100	0.188000	0.809400
H81	H8	0.610710	0.188000	0.710000
O51	O5	0.220500	0.158800	0.081800
C91	C9	0.152100	0.180400	0.211600
C101	C10	0.121770	0.180400	0.269100
H91	H9	0.163100	0.312000	0.190600
H101	H10	0.110710	0.312000	0.290000
O61	O6	0.720500	0.658800	0.081800
C111	C11	0.652100	0.680400	0.211600
C121	C12	0.621770	0.680400	0.269100
H111	H11	0.663100	0.812000	0.190600
H121	H12	0.610710	0.812000	0.290000
O71	O7	0.779500	0.841200	0.081800
C131	C13	0.847900	0.819600	0.211600
C141	C14	0.878230	0.819600	0.269100
H131	H13	0.836900	0.688000	0.190600
H141	H14	0.889290	0.688000	0.290000
O81	O8	0.279500	0.341200	0.081800
C151	C15	0.347900	0.319600	0.211600
C161	C16	0.378230	0.319600	0.269100
H151	H15	0.336900	0.188000	0.190600
H161	H16	0.389290	0.188000	0.290000
O91	O9	0.220500	0.841200	0.081800
C171	C17	0.152100	0.819600	0.211600
C181	C18	0.121770	0.819600	0.269100
H171	H17	0.163100	0.688000	0.190600
H181	H18	0.110710	0.688000	0.290000
O101	O10	0.720500	0.341200	0.081800
C191	C19	0.652100	0.319600	0.211600
C201	C20	0.621770	0.319600	0.269100
H191	H19	0.663100	0.188000	0.190600
H201	H20	0.610710	0.188000	0.290000
O111	O11	0.779500	0.158800	0.081800
C211	C21	0.847900	0.180400	0.211600
C221	C22	0.878230	0.180400	0.269100
H211	H21	0.836900	0.312000	0.190600
H221	H22	0.889290	0.312000	0.290000
O121	O12	0.279500	0.658800	0.081800
C231	C23	0.347900	0.680400	0.211600
C241	C24	0.378230	0.680400	0.269100
H231	H23	0.336900	0.812000	0.190600
H241	H24	0.389290	0.812000	0.290000
O131	O13	0.779500	0.841200	0.918200
C251	C25	0.847900	0.819600	0.788400
C261	C26	0.878230	0.819600	0.730900
H251	H25	0.836900	0.688000	0.809400
H261	H26	0.889290	0.688000	0.710000
O141	O14	0.279500	0.341200	0.918200
C271	C27	0.347900	0.319600	0.788400
C281	C28	0.378230	0.319600	0.730900
H271	H27	0.336900	0.188000	0.809400
H281	H28	0.389290	0.188000	0.710000
O151	O15	0.220500	0.158800	0.918200
C291	C29	0.152100	0.180400	0.788400
C301	C30	0.121770	0.180400	0.730900
H291	H29	0.163100	0.312000	0.809400
H301	H30	0.110710	0.312000	0.710000
O161	O16	0.720500	0.658800	0.918200
C311	C31	0.652100	0.680400	0.788400
C321	C32	0.621770	0.680400	0.730900
H311	H31	0.663100	0.812000	0.809400
H321	H32	0.610710	0.812000	0.710000
Al11	Al1	0.750000	0.250000	0.000000
Al21	Al2	0.250000	0.750000	0.000000
Al31	Al3	0.250000	0.250000	0.000000
Al41	Al4	0.750000	0.750000	0.000000
O171	O17	0.725100	0.000000	0.000000
H331	H33	0.693800	0.000000	0.000000
O181	O18	0.225100	0.500000	0.000000
H341	H34	0.193800	0.500000	0.000000
O191	O19	0.274900	0.000000	0.000000
H351	H35	0.306200	0.000000	0.000000
O201	O20	0.774900	0.500000	0.000000
H361	H36	0.806200	0.500000	0.000000
C331	C33	0.806200	0.000000	0.867500
C341	C34	0.832800	0.000000	0.817100
C351	C35	0.893380	0.000000	0.702200
C361	C36	0.923690	0.000000	0.644700
C371	C37	0.966600	0.000000	0.671400
C381	C38	0.909590	0.000000	0.563300
C391	C39	0.979400	0.000000	0.745800
C401	C40	0.870400	0.000000	0.539100
H371	H37	0.961000	0.000000	0.793800
H381	H38	0.845100	0.000000	0.574000
C411	C41	0.306200	0.500000	0.867500
C421	C42	0.332800	0.500000	0.817100
C431	C43	0.393380	0.500000	0.702200
C441	C44	0.423690	0.500000	0.644700
C451	C45	0.466600	0.500000	0.671400
C461	C46	0.409590	0.500000	0.563300
C471	C47	0.479400	0.500000	0.745800
C481	C48	0.370400	0.500000	0.539100
H391	H39	0.461000	0.500000	0.793800
H401	H40	0.345100	0.500000	0.574000
C491	C49	0.193800	0.000000	0.867500
C501	C50	0.167200	0.000000	0.817100
C511	C51	0.106620	0.000000	0.702200
C521	C52	0.076310	0.000000	0.644700
C531	C53	0.033400	0.000000	0.671400
C541	C54	0.090410	0.000000	0.563300
C551	C55	0.020600	0.000000	0.745800
C561	C56	0.129600	0.000000	0.539100
H411	H41	0.039000	0.000000	0.793800
H421	H42	0.154900	0.000000	0.574000
C571	C57	0.693800	0.500000	0.867500
C581	C58	0.667200	0.500000	0.817100
C591	C59	0.606620	0.500000	0.702200
C601	C60	0.576310	0.500000	0.644700
C611	C61	0.533400	0.500000	0.671400
C621	C62	0.590410	0.500000	0.563300
C631	C63	0.520600	0.500000	0.745800
C641	C64	0.629600	0.500000	0.539100
H431	H43	0.539000	0.500000	0.793800
H441	H44	0.654900	0.500000	0.574000
C651	C65	0.193800	0.000000	0.132500
C661	C66	0.167200	0.000000	0.182900
C671	C67	0.106620	0.000000	0.297800
C681	C68	0.076310	0.000000	0.355300
C691	C69	0.033400	0.000000	0.328600
C701	C70	0.090410	0.000000	0.436700
C711	C71	0.020600	0.000000	0.254200
C721	C72	0.129600	0.000000	0.460900
H451	H45	0.039000	0.000000	0.206200
H461	H46	0.154900	0.000000	0.426000
C731	C73	0.693800	0.500000	0.132500
C741	C74	0.667200	0.500000	0.182900
C751	C75	0.606620	0.500000	0.297800
C761	C76	0.576310	0.500000	0.355300
C771	C77	0.533400	0.500000	0.328600
C781	C78	0.590410	0.500000	0.436700
C791	C79	0.520600	0.500000	0.254200
C801	C80	0.629600	0.500000	0.460900
H471	H47	0.539000	0.500000	0.206200
H481	H48	0.654900	0.500000	0.426000
C811	C81	0.806200	0.000000	0.132500
C821	C82	0.832800	0.000000	0.182900
C831	C83	0.893380	0.000000	0.297800
C841	C84	0.923690	0.000000	0.355300
C851	C85	0.966600	0.000000	0.328600
C861	C86	0.909590	0.000000	0.436700
C871	C87	0.979400	0.000000	0.254200
C881	C88	0.870400	0.000000	0.460900
H491	H49	0.961000	0.000000	0.206200
H501	H50	0.845100	0.000000	0.426000
C891	C89	0.306200	0.500000	0.132500
C901	C90	0.332800	0.500000	0.182900
C911	C91	0.393380	0.500000	0.297800
C921	C92	0.423690	0.500000	0.355300
C931	C93	0.466600	0.500000	0.328600
C941	C94	0.409590	0.500000	0.436700
C951	C95	0.479400	0.500000	0.254200
C961	C96	0.370400	0.500000	0.460900
H511	H51	0.461000	0.500000	0.206200
H521	H52	0.345100	0.500000	0.426000
N11	N1	0.000000	0.000000	0.625500
H531	H53	0.000000	0.000000	0.566200
N21	N2	0.500000	0.500000	0.625500
H541	H54	0.500000	0.500000	0.566200
N31	N3	0.000000	0.000000	0.374500
H551	H55	0.000000	0.000000	0.433800
N41	N4	0.500000	0.500000	0.374500
H561	H56	0.500000	0.500000	0.433800
N51	N5	0.933800	0.000000	0.500000
H571	H57	0.965100	0.000000	0.500000
N61	N6	0.433800	0.500000	0.500000
H581	H58	0.465100	0.500000	0.500000
N71	N7	0.066200	0.000000	0.500000
H591	H59	0.034900	0.000000	0.500000
N81	N8	0.566200	0.500000	0.500000
H601	H60	0.534900	0.500000	0.500000
