data_OTIPEO_clean_PM
_symmetry_space_group_name_H-M	'P1'
_cell_length_a	12.315600
_cell_length_b	15.511300
_cell_length_c	18.952100
_cell_angle_alpha	90.000000
_cell_angle_beta	90.000000
_cell_angle_gamma	90.000000
_symmetry_Int_Tables_number 1

loop_
_symmetry_equiv_pos_as_xyz
'x,y,z'

loop_
_atom_site_label
_atom_site_type_symbol
_atom_site_fract_x
_atom_site_fract_y
_atom_site_fract_z
C11	C1	0.507100	0.664960	0.937870
H11	H1	0.498100	0.619000	0.906900
C21	C2	0.437600	0.671410	0.993630
H21	H2	0.384600	0.629500	0.000400
C31	C3	0.445390	0.739170	0.039720
C41	C4	0.529960	0.795940	0.028580
H31	H3	0.540900	0.842000	0.059100
C51	C5	0.597460	0.783770	0.972220
H41	H4	0.654600	0.822300	0.966300
C61	C6	0.561060	0.578840	0.774160
C71	C7	0.499080	0.497740	0.754910
C81	C8	0.525610	0.420240	0.786460
H51	H5	0.580800	0.417500	0.819900
C91	C9	0.468880	0.346550	0.767640
H61	H6	0.487300	0.294900	0.789400
C101	C10	0.363450	0.421570	0.690670
H71	H7	0.307200	0.422800	0.657900
C111	C11	0.416150	0.498300	0.706630
H81	H8	0.395400	0.549400	0.684800
C121	C12	0.362290	0.752980	0.095720
Cd11	Cd1	0.688200	0.716010	0.817990
N11	N1	0.586990	0.720460	0.925250
N21	N2	0.389800	0.345920	0.720190
O11	O1	0.648250	0.570560	0.805990
O21	O2	0.520760	0.649980	0.758840
O31	O3	0.345070	0.828630	0.116460
O41	O4	0.309270	0.689150	0.117080
C131	C13	0.992900	0.335040	0.437870
H91	H9	0.001900	0.381000	0.406900
C141	C14	0.062400	0.328590	0.493630
H101	H10	0.115400	0.370500	0.500400
C151	C15	0.054610	0.260830	0.539720
C161	C16	0.970040	0.204060	0.528580
H111	H11	0.959100	0.158000	0.559100
C171	C17	0.902540	0.216230	0.472220
H121	H12	0.845400	0.177700	0.466300
C181	C18	0.938940	0.421160	0.274160
C191	C19	0.000920	0.502260	0.254910
C201	C20	0.974390	0.579760	0.286460
H131	H13	0.919200	0.582500	0.319900
C211	C21	0.031120	0.653450	0.267640
H141	H14	0.012700	0.705100	0.289400
C221	C22	0.136550	0.578430	0.190670
H151	H15	0.192800	0.577200	0.157900
C231	C23	0.083850	0.501700	0.206630
H161	H16	0.104600	0.450600	0.184800
C241	C24	0.137710	0.247020	0.595720
Cd21	Cd2	0.811800	0.283990	0.317990
N31	N3	0.913010	0.279540	0.425250
N41	N4	0.110200	0.654080	0.220190
O51	O5	0.851750	0.429440	0.305990
O61	O6	0.979240	0.350020	0.258840
O71	O7	0.154930	0.171370	0.616460
O81	O8	0.190730	0.310850	0.617080
C251	C25	0.492900	0.164960	0.562130
H171	H17	0.501900	0.119000	0.593100
C261	C26	0.562400	0.171410	0.506370
H181	H18	0.615400	0.129500	0.499600
C271	C27	0.554610	0.239170	0.460280
C281	C28	0.470040	0.295940	0.471420
H191	H19	0.459100	0.342000	0.440900
C291	C29	0.402540	0.283770	0.527780
H201	H20	0.345400	0.322300	0.533700
C301	C30	0.438940	0.078840	0.725840
C311	C31	0.500920	0.997740	0.745090
C321	C32	0.474390	0.920240	0.713540
H211	H21	0.419200	0.917500	0.680100
C331	C33	0.531120	0.846550	0.732360
H221	H22	0.512700	0.794900	0.710600
C341	C34	0.636550	0.921570	0.809330
H231	H23	0.692800	0.922800	0.842100
C351	C35	0.583850	0.998300	0.793370
H241	H24	0.604600	0.049400	0.815200
C361	C36	0.637710	0.252980	0.404280
Cd31	Cd3	0.311800	0.216010	0.682010
N51	N5	0.413010	0.220460	0.574750
N61	N6	0.610200	0.845920	0.779810
O91	O9	0.351750	0.070560	0.694010
O101	O10	0.479240	0.149980	0.741160
O111	O11	0.654930	0.328630	0.383540
O121	O12	0.690730	0.189150	0.382920
C371	C37	0.007100	0.835040	0.062130
H251	H25	0.998100	0.881000	0.093100
C381	C38	0.937600	0.828590	0.006370
H261	H26	0.884600	0.870500	0.999600
C391	C39	0.945390	0.760830	0.960280
C401	C40	0.029960	0.704060	0.971420
H271	H27	0.040900	0.658000	0.940900
C411	C41	0.097460	0.716230	0.027780
H281	H28	0.154600	0.677700	0.033700
C421	C42	0.061060	0.921160	0.225840
C431	C43	0.999080	0.002260	0.245090
C441	C44	0.025610	0.079760	0.213540
H291	H29	0.080800	0.082500	0.180100
C451	C45	0.968880	0.153450	0.232360
H301	H30	0.987300	0.205100	0.210600
C461	C46	0.863450	0.078430	0.309330
H311	H31	0.807200	0.077200	0.342100
C471	C47	0.916150	0.001700	0.293370
H321	H32	0.895400	0.950600	0.315200
C481	C48	0.862290	0.747020	0.904280
Cd41	Cd4	0.188200	0.783990	0.182010
N71	N7	0.086990	0.779540	0.074750
N81	N8	0.889800	0.154080	0.279810
O131	O13	0.148250	0.929440	0.194010
O141	O14	0.020760	0.850020	0.241160
O151	O15	0.845070	0.671370	0.883540
O161	O16	0.809270	0.810850	0.882920
C491	C49	0.492900	0.335040	0.062130
H331	H33	0.501900	0.381000	0.093100
C501	C50	0.562400	0.328590	0.006370
H341	H34	0.615400	0.370500	0.999600
C511	C51	0.554610	0.260830	0.960280
C521	C52	0.470040	0.204060	0.971420
H351	H35	0.459100	0.158000	0.940900
C531	C53	0.402540	0.216230	0.027780
H361	H36	0.345400	0.177700	0.033700
C541	C54	0.438940	0.421160	0.225840
C551	C55	0.500920	0.502260	0.245090
C561	C56	0.474390	0.579760	0.213540
H371	H37	0.419200	0.582500	0.180100
C571	C57	0.531120	0.653450	0.232360
H381	H38	0.512700	0.705100	0.210600
C581	C58	0.636550	0.578430	0.309330
H391	H39	0.692800	0.577200	0.342100
C591	C59	0.583850	0.501700	0.293370
H401	H40	0.604600	0.450600	0.315200
C601	C60	0.637710	0.247020	0.904280
Cd51	Cd5	0.311800	0.283990	0.182010
N91	N9	0.413010	0.279540	0.074750
N101	N10	0.610200	0.654080	0.279810
O171	O17	0.351750	0.429440	0.194010
O181	O18	0.479240	0.350020	0.241160
O191	O19	0.654930	0.171370	0.883540
O201	O20	0.690730	0.310850	0.882920
C611	C61	0.007100	0.664960	0.562130
H411	H41	0.998100	0.619000	0.593100
C621	C62	0.937600	0.671410	0.506370
H421	H42	0.884600	0.629500	0.499600
C631	C63	0.945390	0.739170	0.460280
C641	C64	0.029960	0.795940	0.471420
H431	H43	0.040900	0.842000	0.440900
C651	C65	0.097460	0.783770	0.527780
H441	H44	0.154600	0.822300	0.533700
C661	C66	0.061060	0.578840	0.725840
C671	C67	0.999080	0.497740	0.745090
C681	C68	0.025610	0.420240	0.713540
H451	H45	0.080800	0.417500	0.680100
C691	C69	0.968880	0.346550	0.732360
H461	H46	0.987300	0.294900	0.710600
C701	C70	0.863450	0.421570	0.809330
H471	H47	0.807200	0.422800	0.842100
C711	C71	0.916150	0.498300	0.793370
H481	H48	0.895400	0.549400	0.815200
C721	C72	0.862290	0.752980	0.404280
Cd61	Cd6	0.188200	0.716010	0.682010
N111	N11	0.086990	0.720460	0.574750
N121	N12	0.889800	0.345920	0.779810
O211	O21	0.148250	0.570560	0.694010
O221	O22	0.020760	0.649980	0.741160
O231	O23	0.845070	0.828630	0.383540
O241	O24	0.809270	0.689150	0.382920
C731	C73	0.507100	0.835040	0.437870
H491	H49	0.498100	0.881000	0.406900
C741	C74	0.437600	0.828590	0.493630
H501	H50	0.384600	0.870500	0.500400
C751	C75	0.445390	0.760830	0.539720
C761	C76	0.529960	0.704060	0.528580
H511	H51	0.540900	0.658000	0.559100
C771	C77	0.597460	0.716230	0.472220
H521	H52	0.654600	0.677700	0.466300
C781	C78	0.561060	0.921160	0.274160
C791	C79	0.499080	0.002260	0.254910
C801	C80	0.525610	0.079760	0.286460
H531	H53	0.580800	0.082500	0.319900
C811	C81	0.468880	0.153450	0.267640
H541	H54	0.487300	0.205100	0.289400
C821	C82	0.363450	0.078430	0.190670
H551	H55	0.307200	0.077200	0.157900
C831	C83	0.416150	0.001700	0.206630
H561	H56	0.395400	0.950600	0.184800
C841	C84	0.362290	0.747020	0.595720
Cd71	Cd7	0.688200	0.783990	0.317990
N131	N13	0.586990	0.779540	0.425250
N141	N14	0.389800	0.154080	0.220190
O251	O25	0.648250	0.929440	0.305990
O261	O26	0.520760	0.850020	0.258840
O271	O27	0.345070	0.671370	0.616460
O281	O28	0.309270	0.810850	0.617080
C851	C85	0.992900	0.164960	0.937870
H571	H57	0.001900	0.119000	0.906900
C861	C86	0.062400	0.171410	0.993630
H581	H58	0.115400	0.129500	0.000400
C871	C87	0.054610	0.239170	0.039720
C881	C88	0.970040	0.295940	0.028580
H591	H59	0.959100	0.342000	0.059100
C891	C89	0.902540	0.283770	0.972220
H601	H60	0.845400	0.322300	0.966300
C901	C90	0.938940	0.078840	0.774160
C911	C91	0.000920	0.997740	0.754910
C921	C92	0.974390	0.920240	0.786460
H611	H61	0.919200	0.917500	0.819900
C931	C93	0.031120	0.846550	0.767640
H621	H62	0.012700	0.794900	0.789400
C941	C94	0.136550	0.921570	0.690670
H631	H63	0.192800	0.922800	0.657900
C951	C95	0.083850	0.998300	0.706630
H641	H64	0.104600	0.049400	0.684800
C961	C96	0.137710	0.252980	0.095720
Cd81	Cd8	0.811800	0.216010	0.817990
N151	N15	0.913010	0.220460	0.925250
N161	N16	0.110200	0.845920	0.720190
O291	O29	0.851750	0.070560	0.805990
O301	O30	0.979240	0.149980	0.758840
O311	O31	0.154930	0.328630	0.116460
O321	O32	0.190730	0.189150	0.117080
