data_OTIPUE_clean_PM
_symmetry_space_group_name_H-M	'P1'
_cell_length_a	10.833600
_cell_length_b	18.286700
_cell_length_c	15.125800
_cell_angle_alpha	90.000000
_cell_angle_beta	111.208000
_cell_angle_gamma	90.000000
_symmetry_Int_Tables_number 1

loop_
_symmetry_equiv_pos_as_xyz
'x,y,z'

loop_
_atom_site_label
_atom_site_type_symbol
_atom_site_fract_x
_atom_site_fract_y
_atom_site_fract_z
Mn11	Mn1	0.171700	0.011420	0.167710
O11	O1	0.165100	0.025340	0.024010
O21	O2	0.481900	0.017780	0.355890
O31	O3	0.180400	0.002780	0.311440
O41	O4	0.010800	0.049980	0.882580
O51	O5	0.354900	0.072480	0.221390
O61	O6	0.301600	0.951360	0.450130
F11	F1	0.543500	0.206970	0.097850
C11	C1	0.207900	0.951460	0.371300
N11	N1	0.719300	0.401260	0.324960
N21	N2	0.938400	0.620400	0.347990
C21	C2	0.108400	0.066690	0.954500
N31	N3	0.420300	0.384000	0.008650
C31	C3	0.450000	0.071140	0.298900
C41	C4	0.576900	0.269170	0.302800
C51	C5	0.068500	0.757180	0.378200
C61	C6	0.118700	0.886070	0.344700
H11	H1	0.044700	0.887400	0.289000
C71	C7	0.059200	0.628510	0.413100
H21	H2	0.100000	0.588200	0.449300
C81	C8	0.943000	0.746540	0.311000
C91	C9	0.141900	0.826170	0.398100
H31	H3	0.213600	0.828400	0.455200
F21	F2	0.877600	0.801090	0.255700
C101	C10	0.322300	0.241360	0.013100
C111	C11	0.240000	0.299530	0.968300
H41	H4	0.149400	0.291900	0.939000
C121	C12	0.453700	0.259470	0.054300
C131	C13	0.776900	0.336220	0.330900
H51	H5	0.867400	0.335100	0.343100
C141	C14	0.497700	0.201670	0.285100
H61	H6	0.411800	0.204400	0.240900
C151	C15	0.710700	0.270350	0.320000
H71	H7	0.756500	0.226700	0.324300
C161	C16	0.536900	0.137940	0.325700
H81	H8	0.620700	0.134000	0.372400
C171	C17	0.881400	0.679270	0.296900
H91	H9	0.797500	0.674700	0.250500
C181	C18	0.126900	0.694570	0.429300
C191	C19	0.161400	0.142050	0.953600
H101	H10	0.112200	0.173600	0.905500
F31	F3	0.389300	0.341000	0.282600
C201	C20	0.500100	0.329270	0.053500
H111	H11	0.589700	0.338700	0.085100
C211	C21	0.272500	0.166920	0.015800
H121	H12	0.322300	0.135800	0.064200
C221	C22	0.292200	0.368250	0.967300
H131	H13	0.234700	0.405600	0.935900
C231	C23	0.590200	0.400890	0.309200
H141	H14	0.546500	0.445200	0.305500
C241	C24	0.519400	0.336940	0.298200
F41	F4	0.251300	0.695000	0.482700
Mn21	Mn2	0.828300	0.511420	0.332290
O71	O7	0.834900	0.525340	0.475990
O81	O8	0.518100	0.517780	0.144110
O91	O9	0.819600	0.502780	0.188560
O101	O10	0.989200	0.549980	0.617420
O111	O11	0.645100	0.572480	0.278610
O121	O12	0.698400	0.451360	0.049870
F51	F5	0.456500	0.706970	0.402150
C251	C25	0.792100	0.451460	0.128700
N41	N4	0.280700	0.901260	0.175040
N51	N5	0.061600	0.120400	0.152010
C261	C26	0.891600	0.566690	0.545500
N61	N6	0.579700	0.884000	0.491350
C271	C27	0.550000	0.571140	0.201100
C281	C28	0.423100	0.769170	0.197200
C291	C29	0.931500	0.257180	0.121800
C301	C30	0.881300	0.386070	0.155300
H151	H15	0.955300	0.387400	0.211000
C311	C31	0.940800	0.128510	0.086900
H161	H16	0.900000	0.088200	0.050700
C321	C32	0.057000	0.246540	0.189000
C331	C33	0.858100	0.326170	0.101900
H171	H17	0.786400	0.328400	0.044800
F61	F6	0.122400	0.301090	0.244300
C341	C34	0.677700	0.741360	0.486900
C351	C35	0.760000	0.799530	0.531700
H181	H18	0.850600	0.791900	0.561000
C361	C36	0.546300	0.759470	0.445700
C371	C37	0.223100	0.836220	0.169100
H191	H19	0.132600	0.835100	0.156900
C381	C38	0.502300	0.701670	0.214900
H201	H20	0.588200	0.704400	0.259100
C391	C39	0.289300	0.770350	0.180000
H211	H21	0.243500	0.726700	0.175700
C401	C40	0.463100	0.637940	0.174300
H221	H22	0.379300	0.634000	0.127600
C411	C41	0.118600	0.179270	0.203100
H231	H23	0.202500	0.174700	0.249500
C421	C42	0.873100	0.194570	0.070700
C431	C43	0.838600	0.642050	0.546400
H241	H24	0.887800	0.673600	0.594500
F71	F7	0.610700	0.841000	0.217400
C441	C44	0.499900	0.829270	0.446500
H251	H25	0.410300	0.838700	0.414900
C451	C45	0.727500	0.666920	0.484200
H261	H26	0.677700	0.635800	0.435800
C461	C46	0.707800	0.868250	0.532700
H271	H27	0.765300	0.905600	0.564100
C471	C47	0.409800	0.900890	0.190800
H281	H28	0.453500	0.945200	0.194500
C481	C48	0.480600	0.836940	0.201800
F81	F8	0.748700	0.195000	0.017300
Mn31	Mn3	0.828300	0.988580	0.832290
O131	O13	0.834900	0.974660	0.975990
O141	O14	0.518100	0.982220	0.644110
O151	O15	0.819600	0.997220	0.688560
O161	O16	0.989200	0.950020	0.117420
O171	O17	0.645100	0.927520	0.778610
O181	O18	0.698400	0.048640	0.549870
F91	F9	0.456500	0.793030	0.902150
C491	C49	0.792100	0.048540	0.628700
N71	N7	0.280700	0.598740	0.675040
N81	N8	0.061600	0.379600	0.652010
C501	C50	0.891600	0.933310	0.045500
N91	N9	0.579700	0.616000	0.991350
C511	C51	0.550000	0.928860	0.701100
C521	C52	0.423100	0.730830	0.697200
C531	C53	0.931500	0.242820	0.621800
C541	C54	0.881300	0.113930	0.655300
H291	H29	0.955300	0.112600	0.711000
C551	C55	0.940800	0.371490	0.586900
H301	H30	0.900000	0.411800	0.550700
C561	C56	0.057000	0.253460	0.689000
C571	C57	0.858100	0.173830	0.601900
H311	H31	0.786400	0.171600	0.544800
F101	F10	0.122400	0.198910	0.744300
C581	C58	0.677700	0.758640	0.986900
C591	C59	0.760000	0.700470	0.031700
H321	H32	0.850600	0.708100	0.061000
C601	C60	0.546300	0.740530	0.945700
C611	C61	0.223100	0.663780	0.669100
H331	H33	0.132600	0.664900	0.656900
C621	C62	0.502300	0.798330	0.714900
H341	H34	0.588200	0.795600	0.759100
C631	C63	0.289300	0.729650	0.680000
H351	H35	0.243500	0.773300	0.675700
C641	C64	0.463100	0.862060	0.674300
H361	H36	0.379300	0.866000	0.627600
C651	C65	0.118600	0.320730	0.703100
H371	H37	0.202500	0.325300	0.749500
C661	C66	0.873100	0.305430	0.570700
C671	C67	0.838600	0.857950	0.046400
H381	H38	0.887800	0.826400	0.094500
F111	F11	0.610700	0.659000	0.717400
C681	C68	0.499900	0.670730	0.946500
H391	H39	0.410300	0.661300	0.914900
C691	C69	0.727500	0.833080	0.984200
H401	H40	0.677700	0.864200	0.935800
C701	C70	0.707800	0.631750	0.032700
H411	H41	0.765300	0.594400	0.064100
C711	C71	0.409800	0.599110	0.690800
H421	H42	0.453500	0.554800	0.694500
C721	C72	0.480600	0.663060	0.701800
F121	F12	0.748700	0.305000	0.517300
Mn41	Mn4	0.171700	0.488580	0.667710
O191	O19	0.165100	0.474660	0.524010
O201	O20	0.481900	0.482220	0.855890
O211	O21	0.180400	0.497220	0.811440
O221	O22	0.010800	0.450020	0.382580
O231	O23	0.354900	0.427520	0.721390
O241	O24	0.301600	0.548640	0.950130
F131	F13	0.543500	0.293030	0.597850
C731	C73	0.207900	0.548540	0.871300
N101	N10	0.719300	0.098740	0.824960
N111	N11	0.938400	0.879600	0.847990
C741	C74	0.108400	0.433310	0.454500
N121	N12	0.420300	0.116000	0.508650
C751	C75	0.450000	0.428860	0.798900
C761	C76	0.576900	0.230830	0.802800
C771	C77	0.068500	0.742820	0.878200
C781	C78	0.118700	0.613930	0.844700
H431	H43	0.044700	0.612600	0.789000
C791	C79	0.059200	0.871490	0.913100
H441	H44	0.100000	0.911800	0.949300
C801	C80	0.943000	0.753460	0.811000
C811	C81	0.141900	0.673830	0.898100
H451	H45	0.213600	0.671600	0.955200
F141	F14	0.877600	0.698910	0.755700
C821	C82	0.322300	0.258640	0.513100
C831	C83	0.240000	0.200470	0.468300
H461	H46	0.149400	0.208100	0.439000
C841	C84	0.453700	0.240530	0.554300
C851	C85	0.776900	0.163780	0.830900
H471	H47	0.867400	0.164900	0.843100
C861	C86	0.497700	0.298330	0.785100
H481	H48	0.411800	0.295600	0.740900
C871	C87	0.710700	0.229650	0.820000
H491	H49	0.756500	0.273300	0.824300
C881	C88	0.536900	0.362060	0.825700
H501	H50	0.620700	0.366000	0.872400
C891	C89	0.881400	0.820730	0.796900
H511	H51	0.797500	0.825300	0.750500
C901	C90	0.126900	0.805430	0.929300
C911	C91	0.161400	0.357950	0.453600
H521	H52	0.112200	0.326400	0.405500
F151	F15	0.389300	0.159000	0.782600
C921	C92	0.500100	0.170730	0.553500
H531	H53	0.589700	0.161300	0.585100
C931	C93	0.272500	0.333080	0.515800
H541	H54	0.322300	0.364200	0.564200
C941	C94	0.292200	0.131750	0.467300
H551	H55	0.234700	0.094400	0.435900
C951	C95	0.590200	0.099110	0.809200
H561	H56	0.546500	0.054800	0.805500
C961	C96	0.519400	0.163060	0.798200
F161	F16	0.251300	0.805000	0.982700
Mn51	Mn5	0.500000	0.500000	0.000000
Mn61	Mn6	0.500000	0.000000	0.500000
