data_OTIQEP_clean_PM
_symmetry_space_group_name_H-M	'P1'
_cell_length_a	9.954500
_cell_length_b	13.136400
_cell_length_c	11.009400
_cell_angle_alpha	90.000000
_cell_angle_beta	101.703000
_cell_angle_gamma	90.000000
_symmetry_Int_Tables_number 1

loop_
_symmetry_equiv_pos_as_xyz
'x,y,z'

loop_
_atom_site_label
_atom_site_type_symbol
_atom_site_fract_x
_atom_site_fract_y
_atom_site_fract_z
C11	C1	0.401500	0.504700	0.988300
C21	C2	0.150600	0.382500	0.481000
C31	C3	0.164200	0.478700	0.436000
H11	H1	0.178900	0.488000	0.356000
C41	C4	0.130600	0.372100	0.600200
H21	H2	0.117800	0.308100	0.632000
C51	C5	0.129800	0.456900	0.671300
H31	H3	0.120200	0.448600	0.753000
C61	C6	0.465500	0.900200	0.465100
H41	H4	0.542800	0.859300	0.487500
C71	C7	0.155800	0.561400	0.511600
H51	H5	0.159800	0.626600	0.479600
C81	C8	0.508800	0.362700	0.107600
H61	H6	0.587800	0.325200	0.137900
C91	C9	0.467200	0.983900	0.389300
H71	H7	0.547400	0.998600	0.361700
C101	C10	0.155700	0.290900	0.397200
C111	C11	0.234600	0.940100	0.470100
H81	H8	0.153200	0.927100	0.496400
C121	C12	0.243600	0.022300	0.392800
H91	H9	0.166700	0.063100	0.367300
C131	C13	0.281600	0.477100	0.025300
H101	H10	0.202300	0.515600	0.000500
C141	C14	0.517400	0.446100	0.032100
H111	H11	0.600500	0.462700	0.010900
C151	C15	0.280400	0.393000	0.098500
H121	H12	0.198600	0.375700	0.121700
C161	C16	0.409800	0.595900	0.907000
C171	C17	0.090000	0.096500	0.096900
C181	C18	0.101400	0.004100	0.019300
C191	C19	0.099000	0.905400	0.063100
H131	H13	0.092800	0.894200	0.145200
C201	C20	0.111700	0.927800	0.822900
H141	H14	0.114600	0.936800	0.739700
C211	C21	0.107900	0.013600	0.895700
H151	H15	0.109700	0.078000	0.861000
C221	C22	0.346000	0.878200	0.507400
C231	C23	0.105800	0.823100	0.985700
H161	H16	0.106300	0.757900	0.018700
C241	C24	0.342400	0.790700	0.598800
Mn11	Mn1	0.873710	0.192640	0.252220
Mn21	Mn2	0.375580	0.191590	0.246640
N11	N1	0.141900	0.550700	0.630100
N21	N2	0.390300	0.334100	0.138500
N31	N3	0.358100	0.044800	0.354000
N41	N4	0.111500	0.832800	0.866500
O11	O1	0.261400	0.283800	0.355900
O21	O2	0.058100	0.228500	0.388900
O31	O3	0.184100	0.159000	0.114700
O41	O4	0.985900	0.099000	0.145700
O51	O5	0.518300	0.606900	0.869000
O61	O6	0.440400	0.729800	0.615700
O71	O7	0.233500	0.786500	0.637900
O81	O8	0.305500	0.650000	0.877800
C251	C25	0.598500	0.004700	0.011700
C261	C26	0.849400	0.882500	0.519000
C271	C27	0.835800	0.978700	0.564000
H171	H17	0.821100	0.988000	0.644000
C281	C28	0.869400	0.872100	0.399800
H181	H18	0.882200	0.808100	0.368000
C291	C29	0.870200	0.956900	0.328700
H191	H19	0.879800	0.948600	0.247000
C301	C30	0.534500	0.400200	0.534900
H201	H20	0.457200	0.359300	0.512500
C311	C31	0.844200	0.061400	0.488400
H211	H21	0.840200	0.126600	0.520400
C321	C32	0.491200	0.862700	0.892400
H221	H22	0.412200	0.825200	0.862100
C331	C33	0.532800	0.483900	0.610700
H231	H23	0.452600	0.498600	0.638300
C341	C34	0.844300	0.790900	0.602800
C351	C35	0.765400	0.440100	0.529900
H241	H24	0.846800	0.427100	0.503600
C361	C36	0.756400	0.522300	0.607200
H251	H25	0.833300	0.563100	0.632700
C371	C37	0.718400	0.977100	0.974700
H261	H26	0.797700	0.015600	0.999500
C381	C38	0.482600	0.946100	0.967900
H271	H27	0.399500	0.962700	0.989100
C391	C39	0.719600	0.893000	0.901500
H281	H28	0.801400	0.875700	0.878300
C401	C40	0.590200	0.095900	0.093000
C411	C41	0.910000	0.596500	0.903100
C421	C42	0.898600	0.504100	0.980700
C431	C43	0.901000	0.405400	0.936900
H291	H29	0.907200	0.394200	0.854800
C441	C44	0.888300	0.427800	0.177100
H301	H30	0.885400	0.436800	0.260300
C451	C45	0.892100	0.513600	0.104300
H311	H31	0.890300	0.578000	0.139000
C461	C46	0.654000	0.378200	0.492600
C471	C47	0.894200	0.323100	0.014300
H321	H32	0.893700	0.257900	0.981300
C481	C48	0.657600	0.290700	0.401200
Mn31	Mn3	0.126290	0.692640	0.747780
Mn41	Mn4	0.624420	0.691590	0.753360
N51	N5	0.858100	0.050700	0.369900
N61	N6	0.609700	0.834100	0.861500
N71	N7	0.641900	0.544800	0.646000
N81	N8	0.888500	0.332800	0.133500
O91	O9	0.738600	0.783800	0.644100
O101	O10	0.941900	0.728500	0.611100
O111	O11	0.815900	0.659000	0.885300
O121	O12	0.014100	0.599000	0.854300
O131	O13	0.481700	0.106900	0.131000
O141	O14	0.559600	0.229800	0.384300
O151	O15	0.766500	0.286500	0.362100
O161	O16	0.694500	0.150000	0.122200
