data_OTOLIU_clean_PM
_symmetry_space_group_name_H-M	'P1'
_cell_length_a	22.911800
_cell_length_b	22.911800
_cell_length_c	22.911800
_cell_angle_alpha	90.000000
_cell_angle_beta	90.000000
_cell_angle_gamma	90.000000
_symmetry_Int_Tables_number 1

loop_
_symmetry_equiv_pos_as_xyz
'x,y,z'

loop_
_atom_site_label
_atom_site_type_symbol
_atom_site_fract_x
_atom_site_fract_y
_atom_site_fract_z
O11	O1	0.567090	0.931490	0.391700
O21	O2	0.586380	0.020900	0.406000
O31	O3	0.576800	0.090290	0.323680
C11	C1	0.576800	0.990420	0.309020
C21	C2	0.576800	0.046330	0.287800
C31	C3	0.576800	0.055900	0.228780
C41	C4	0.576800	0.980140	0.372410
H11	H1	0.576800	0.095890	0.213600
O41	O4	0.067090	0.431490	0.891700
O51	O5	0.086380	0.520900	0.906000
O61	O6	0.076800	0.590290	0.823680
C51	C5	0.076800	0.490420	0.809020
C61	C6	0.076800	0.546330	0.787800
C71	C7	0.076800	0.555900	0.728780
C81	C8	0.076800	0.480140	0.872410
H21	H2	0.076800	0.595890	0.713600
O71	O7	0.932910	0.068510	0.891700
O81	O8	0.913620	0.979100	0.906000
O91	O9	0.923200	0.909710	0.823680
C91	C9	0.923200	0.009580	0.809020
C101	C10	0.923200	0.953670	0.787800
C111	C11	0.923200	0.944100	0.728780
C121	C12	0.923200	0.019860	0.872410
H31	H3	0.923200	0.904110	0.713600
O101	O10	0.432910	0.568510	0.391700
O111	O11	0.413620	0.479100	0.406000
O121	O12	0.423200	0.409710	0.323680
C131	C13	0.423200	0.509580	0.309020
C141	C14	0.423200	0.453670	0.287800
C151	C15	0.423200	0.444100	0.228780
C161	C16	0.423200	0.519860	0.372410
H41	H4	0.423200	0.404110	0.213600
O131	O13	0.432910	0.431490	0.108300
O141	O14	0.413620	0.520900	0.094000
O151	O15	0.423200	0.590290	0.176320
C171	C17	0.423200	0.490420	0.190980
C181	C18	0.423200	0.546330	0.212200
C191	C19	0.423200	0.555900	0.271220
C201	C20	0.423200	0.480140	0.127590
H51	H5	0.423200	0.595890	0.286400
O161	O16	0.932910	0.931490	0.608300
O171	O17	0.913620	0.020900	0.594000
O181	O18	0.923200	0.090290	0.676320
C211	C21	0.923200	0.990420	0.690980
C221	C22	0.923200	0.046330	0.712200
C231	C23	0.923200	0.055900	0.771220
C241	C24	0.923200	0.980140	0.627590
H61	H6	0.923200	0.095890	0.786400
O191	O19	0.067090	0.568510	0.608300
O201	O20	0.086380	0.479100	0.594000
O211	O21	0.076800	0.409710	0.676320
C251	C25	0.076800	0.509580	0.690980
C261	C26	0.076800	0.453670	0.712200
C271	C27	0.076800	0.444100	0.771220
C281	C28	0.076800	0.519860	0.627590
H71	H7	0.076800	0.404110	0.786400
O221	O22	0.567090	0.068510	0.108300
O231	O23	0.586380	0.979100	0.094000
O241	O24	0.576800	0.909710	0.176320
C291	C29	0.576800	0.009580	0.190980
C301	C30	0.576800	0.953670	0.212200
C311	C31	0.576800	0.944100	0.271220
C321	C32	0.576800	0.019860	0.127590
H81	H8	0.576800	0.904110	0.286400
O251	O25	0.391700	0.567090	0.931490
O261	O26	0.406000	0.586380	0.020900
O271	O27	0.323680	0.576800	0.090290
C331	C33	0.309020	0.576800	0.990420
C341	C34	0.287800	0.576800	0.046330
C351	C35	0.228780	0.576800	0.055900
C361	C36	0.372410	0.576800	0.980140
H91	H9	0.213600	0.576800	0.095890
O281	O28	0.891700	0.067090	0.431490
O291	O29	0.906000	0.086380	0.520900
O301	O30	0.823680	0.076800	0.590290
C371	C37	0.809020	0.076800	0.490420
C381	C38	0.787800	0.076800	0.546330
C391	C39	0.728780	0.076800	0.555900
C401	C40	0.872410	0.076800	0.480140
H101	H10	0.713600	0.076800	0.595890
O311	O31	0.891700	0.932910	0.068510
O321	O32	0.906000	0.913620	0.979100
O331	O33	0.823680	0.923200	0.909710
C411	C41	0.809020	0.923200	0.009580
C421	C42	0.787800	0.923200	0.953670
C431	C43	0.728780	0.923200	0.944100
C441	C44	0.872410	0.923200	0.019860
H111	H11	0.713600	0.923200	0.904110
O341	O34	0.391700	0.432910	0.568510
O351	O35	0.406000	0.413620	0.479100
O361	O36	0.323680	0.423200	0.409710
C451	C45	0.309020	0.423200	0.509580
C461	C46	0.287800	0.423200	0.453670
C471	C47	0.228780	0.423200	0.444100
C481	C48	0.372410	0.423200	0.519860
H121	H12	0.213600	0.423200	0.404110
O371	O37	0.108300	0.432910	0.431490
O381	O38	0.094000	0.413620	0.520900
O391	O39	0.176320	0.423200	0.590290
C491	C49	0.190980	0.423200	0.490420
C501	C50	0.212200	0.423200	0.546330
C511	C51	0.271220	0.423200	0.555900
C521	C52	0.127590	0.423200	0.480140
H131	H13	0.286400	0.423200	0.595890
O401	O40	0.608300	0.932910	0.931490
O411	O41	0.594000	0.913620	0.020900
O421	O42	0.676320	0.923200	0.090290
C531	C53	0.690980	0.923200	0.990420
C541	C54	0.712200	0.923200	0.046330
C551	C55	0.771220	0.923200	0.055900
C561	C56	0.627590	0.923200	0.980140
H141	H14	0.786400	0.923200	0.095890
O431	O43	0.608300	0.067090	0.568510
O441	O44	0.594000	0.086380	0.479100
O451	O45	0.676320	0.076800	0.409710
C571	C57	0.690980	0.076800	0.509580
C581	C58	0.712200	0.076800	0.453670
C591	C59	0.771220	0.076800	0.444100
C601	C60	0.627590	0.076800	0.519860
H151	H15	0.786400	0.076800	0.404110
O461	O46	0.108300	0.567090	0.068510
O471	O47	0.094000	0.586380	0.979100
O481	O48	0.176320	0.576800	0.909710
C611	C61	0.190980	0.576800	0.009580
C621	C62	0.212200	0.576800	0.953670
C631	C63	0.271220	0.576800	0.944100
C641	C64	0.127590	0.576800	0.019860
H161	H16	0.286400	0.576800	0.904110
O491	O49	0.931490	0.391700	0.567090
O501	O50	0.020900	0.406000	0.586380
O511	O51	0.090290	0.323680	0.576800
C651	C65	0.990420	0.309020	0.576800
C661	C66	0.046330	0.287800	0.576800
C671	C67	0.055900	0.228780	0.576800
C681	C68	0.980140	0.372410	0.576800
H171	H17	0.095890	0.213600	0.576800
O521	O52	0.431490	0.891700	0.067090
O531	O53	0.520900	0.906000	0.086380
O541	O54	0.590290	0.823680	0.076800
C691	C69	0.490420	0.809020	0.076800
C701	C70	0.546330	0.787800	0.076800
C711	C71	0.555900	0.728780	0.076800
C721	C72	0.480140	0.872410	0.076800
H181	H18	0.595890	0.713600	0.076800
O551	O55	0.068510	0.891700	0.932910
O561	O56	0.979100	0.906000	0.913620
O571	O57	0.909710	0.823680	0.923200
C731	C73	0.009580	0.809020	0.923200
C741	C74	0.953670	0.787800	0.923200
C751	C75	0.944100	0.728780	0.923200
C761	C76	0.019860	0.872410	0.923200
H191	H19	0.904110	0.713600	0.923200
O581	O58	0.568510	0.391700	0.432910
O591	O59	0.479100	0.406000	0.413620
O601	O60	0.409710	0.323680	0.423200
C771	C77	0.509580	0.309020	0.423200
C781	C78	0.453670	0.287800	0.423200
C791	C79	0.444100	0.228780	0.423200
C801	C80	0.519860	0.372410	0.423200
H201	H20	0.404110	0.213600	0.423200
O611	O61	0.431490	0.108300	0.432910
O621	O62	0.520900	0.094000	0.413620
O631	O63	0.590290	0.176320	0.423200
C811	C81	0.490420	0.190980	0.423200
C821	C82	0.546330	0.212200	0.423200
C831	C83	0.555900	0.271220	0.423200
C841	C84	0.480140	0.127590	0.423200
H211	H21	0.595890	0.286400	0.423200
O641	O64	0.931490	0.608300	0.932910
O651	O65	0.020900	0.594000	0.913620
O661	O66	0.090290	0.676320	0.923200
C851	C85	0.990420	0.690980	0.923200
C861	C86	0.046330	0.712200	0.923200
C871	C87	0.055900	0.771220	0.923200
C881	C88	0.980140	0.627590	0.923200
H221	H22	0.095890	0.786400	0.923200
O671	O67	0.568510	0.608300	0.067090
O681	O68	0.479100	0.594000	0.086380
O691	O69	0.409710	0.676320	0.076800
C891	C89	0.509580	0.690980	0.076800
C901	C90	0.453670	0.712200	0.076800
C911	C91	0.444100	0.771220	0.076800
C921	C92	0.519860	0.627590	0.076800
H231	H23	0.404110	0.786400	0.076800
O701	O70	0.068510	0.108300	0.567090
O711	O71	0.979100	0.094000	0.586380
O721	O72	0.909710	0.176320	0.576800
C931	C93	0.009580	0.190980	0.576800
C941	C94	0.953670	0.212200	0.576800
C951	C95	0.944100	0.271220	0.576800
C961	C96	0.019860	0.127590	0.576800
H241	H24	0.904110	0.286400	0.576800
Ti11	Ti1	0.600950	0.899050	0.100950
Ti21	Ti2	0.100950	0.399050	0.600950
Ti31	Ti3	0.899050	0.100950	0.600950
Ti41	Ti4	0.399050	0.600950	0.100950
Ti51	Ti5	0.399050	0.399050	0.399050
Ti61	Ti6	0.899050	0.899050	0.899050
Ti71	Ti7	0.100950	0.600950	0.899050
Ti81	Ti8	0.600950	0.100950	0.399050
O731	O73	0.181490	0.817090	0.641700
O741	O74	0.270900	0.836380	0.656000
O751	O75	0.340290	0.826800	0.573680
C971	C97	0.240420	0.826800	0.559020
C981	C98	0.296330	0.826800	0.537800
C991	C99	0.305900	0.826800	0.478780
C1001	C100	0.230140	0.826800	0.622410
H251	H25	0.345890	0.826800	0.463600
O761	O76	0.681490	0.317090	0.141700
O771	O77	0.770900	0.336380	0.156000
O781	O78	0.840290	0.326800	0.073680
C1011	C101	0.740420	0.326800	0.059020
C1021	C102	0.796330	0.326800	0.037800
C1031	C103	0.805900	0.326800	0.978780
C1041	C104	0.730140	0.326800	0.122410
H261	H26	0.845890	0.326800	0.963600
O791	O79	0.318510	0.182910	0.141700
O801	O80	0.229100	0.163620	0.156000
O811	O81	0.159710	0.173200	0.073680
C1051	C105	0.259580	0.173200	0.059020
C1061	C106	0.203670	0.173200	0.037800
C1071	C107	0.194100	0.173200	0.978780
C1081	C108	0.269860	0.173200	0.122410
H271	H27	0.154110	0.173200	0.963600
O821	O82	0.818510	0.682910	0.641700
O831	O83	0.729100	0.663620	0.656000
O841	O84	0.659710	0.673200	0.573680
C1091	C109	0.759580	0.673200	0.559020
C1101	C110	0.703670	0.673200	0.537800
C1111	C111	0.694100	0.673200	0.478780
C1121	C112	0.769860	0.673200	0.622410
H281	H28	0.654110	0.673200	0.463600
O851	O85	0.681490	0.682910	0.358300
O861	O86	0.770900	0.663620	0.344000
O871	O87	0.840290	0.673200	0.426320
C1131	C113	0.740420	0.673200	0.440980
C1141	C114	0.796330	0.673200	0.462200
C1151	C115	0.805900	0.673200	0.521220
C1161	C116	0.730140	0.673200	0.377590
H291	H29	0.845890	0.673200	0.536400
O881	O88	0.181490	0.182910	0.858300
O891	O89	0.270900	0.163620	0.844000
O901	O90	0.340290	0.173200	0.926320
C1171	C117	0.240420	0.173200	0.940980
C1181	C118	0.296330	0.173200	0.962200
C1191	C119	0.305900	0.173200	0.021220
C1201	C120	0.230140	0.173200	0.877590
H301	H30	0.345890	0.173200	0.036400
O911	O91	0.818510	0.317090	0.858300
O921	O92	0.729100	0.336380	0.844000
O931	O93	0.659710	0.326800	0.926320
C1211	C121	0.759580	0.326800	0.940980
C1221	C122	0.703670	0.326800	0.962200
C1231	C123	0.694100	0.326800	0.021220
C1241	C124	0.769860	0.326800	0.877590
H311	H31	0.654110	0.326800	0.036400
O941	O94	0.318510	0.817090	0.358300
O951	O95	0.229100	0.836380	0.344000
O961	O96	0.159710	0.826800	0.426320
C1251	C125	0.259580	0.826800	0.440980
C1261	C126	0.203670	0.826800	0.462200
C1271	C127	0.194100	0.826800	0.521220
C1281	C128	0.269860	0.826800	0.377590
H321	H32	0.154110	0.826800	0.536400
O971	O97	0.817090	0.641700	0.181490
O981	O98	0.836380	0.656000	0.270900
O991	O99	0.826800	0.573680	0.340290
C1291	C129	0.826800	0.559020	0.240420
C1301	C130	0.826800	0.537800	0.296330
C1311	C131	0.826800	0.478780	0.305900
C1321	C132	0.826800	0.622410	0.230140
H331	H33	0.826800	0.463600	0.345890
O1001	O100	0.317090	0.141700	0.681490
O1011	O101	0.336380	0.156000	0.770900
O1021	O102	0.326800	0.073680	0.840290
C1331	C133	0.326800	0.059020	0.740420
C1341	C134	0.326800	0.037800	0.796330
C1351	C135	0.326800	0.978780	0.805900
C1361	C136	0.326800	0.122410	0.730140
H341	H34	0.326800	0.963600	0.845890
O1031	O103	0.182910	0.141700	0.318510
O1041	O104	0.163620	0.156000	0.229100
O1051	O105	0.173200	0.073680	0.159710
C1371	C137	0.173200	0.059020	0.259580
C1381	C138	0.173200	0.037800	0.203670
C1391	C139	0.173200	0.978780	0.194100
C1401	C140	0.173200	0.122410	0.269860
H351	H35	0.173200	0.963600	0.154110
O1061	O106	0.682910	0.641700	0.818510
O1071	O107	0.663620	0.656000	0.729100
O1081	O108	0.673200	0.573680	0.659710
C1411	C141	0.673200	0.559020	0.759580
C1421	C142	0.673200	0.537800	0.703670
C1431	C143	0.673200	0.478780	0.694100
C1441	C144	0.673200	0.622410	0.769860
H361	H36	0.673200	0.463600	0.654110
O1091	O109	0.682910	0.358300	0.681490
O1101	O110	0.663620	0.344000	0.770900
O1111	O111	0.673200	0.426320	0.840290
C1451	C145	0.673200	0.440980	0.740420
C1461	C146	0.673200	0.462200	0.796330
C1471	C147	0.673200	0.521220	0.805900
C1481	C148	0.673200	0.377590	0.730140
H371	H37	0.673200	0.536400	0.845890
O1121	O112	0.182910	0.858300	0.181490
O1131	O113	0.163620	0.844000	0.270900
O1141	O114	0.173200	0.926320	0.340290
C1491	C149	0.173200	0.940980	0.240420
C1501	C150	0.173200	0.962200	0.296330
C1511	C151	0.173200	0.021220	0.305900
C1521	C152	0.173200	0.877590	0.230140
H381	H38	0.173200	0.036400	0.345890
O1151	O115	0.317090	0.858300	0.818510
O1161	O116	0.336380	0.844000	0.729100
O1171	O117	0.326800	0.926320	0.659710
C1531	C153	0.326800	0.940980	0.759580
C1541	C154	0.326800	0.962200	0.703670
C1551	C155	0.326800	0.021220	0.694100
C1561	C156	0.326800	0.877590	0.769860
H391	H39	0.326800	0.036400	0.654110
O1181	O118	0.817090	0.358300	0.318510
O1191	O119	0.836380	0.344000	0.229100
O1201	O120	0.826800	0.426320	0.159710
C1571	C157	0.826800	0.440980	0.259580
C1581	C158	0.826800	0.462200	0.203670
C1591	C159	0.826800	0.521220	0.194100
C1601	C160	0.826800	0.377590	0.269860
H401	H40	0.826800	0.536400	0.154110
O1211	O121	0.641700	0.181490	0.817090
O1221	O122	0.656000	0.270900	0.836380
O1231	O123	0.573680	0.340290	0.826800
C1611	C161	0.559020	0.240420	0.826800
C1621	C162	0.537800	0.296330	0.826800
C1631	C163	0.478780	0.305900	0.826800
C1641	C164	0.622410	0.230140	0.826800
H411	H41	0.463600	0.345890	0.826800
O1241	O124	0.141700	0.681490	0.317090
O1251	O125	0.156000	0.770900	0.336380
O1261	O126	0.073680	0.840290	0.326800
C1651	C165	0.059020	0.740420	0.326800
C1661	C166	0.037800	0.796330	0.326800
C1671	C167	0.978780	0.805900	0.326800
C1681	C168	0.122410	0.730140	0.326800
H421	H42	0.963600	0.845890	0.326800
O1271	O127	0.141700	0.318510	0.182910
O1281	O128	0.156000	0.229100	0.163620
O1291	O129	0.073680	0.159710	0.173200
C1691	C169	0.059020	0.259580	0.173200
C1701	C170	0.037800	0.203670	0.173200
C1711	C171	0.978780	0.194100	0.173200
C1721	C172	0.122410	0.269860	0.173200
H431	H43	0.963600	0.154110	0.173200
O1301	O130	0.641700	0.818510	0.682910
O1311	O131	0.656000	0.729100	0.663620
O1321	O132	0.573680	0.659710	0.673200
C1731	C173	0.559020	0.759580	0.673200
C1741	C174	0.537800	0.703670	0.673200
C1751	C175	0.478780	0.694100	0.673200
C1761	C176	0.622410	0.769860	0.673200
H441	H44	0.463600	0.654110	0.673200
O1331	O133	0.358300	0.681490	0.682910
O1341	O134	0.344000	0.770900	0.663620
O1351	O135	0.426320	0.840290	0.673200
C1771	C177	0.440980	0.740420	0.673200
C1781	C178	0.462200	0.796330	0.673200
C1791	C179	0.521220	0.805900	0.673200
C1801	C180	0.377590	0.730140	0.673200
H451	H45	0.536400	0.845890	0.673200
O1361	O136	0.858300	0.181490	0.182910
O1371	O137	0.844000	0.270900	0.163620
O1381	O138	0.926320	0.340290	0.173200
C1811	C181	0.940980	0.240420	0.173200
C1821	C182	0.962200	0.296330	0.173200
C1831	C183	0.021220	0.305900	0.173200
C1841	C184	0.877590	0.230140	0.173200
H461	H46	0.036400	0.345890	0.173200
O1391	O139	0.858300	0.818510	0.317090
O1401	O140	0.844000	0.729100	0.336380
O1411	O141	0.926320	0.659710	0.326800
C1851	C185	0.940980	0.759580	0.326800
C1861	C186	0.962200	0.703670	0.326800
C1871	C187	0.021220	0.694100	0.326800
C1881	C188	0.877590	0.769860	0.326800
H471	H47	0.036400	0.654110	0.326800
O1421	O142	0.358300	0.318510	0.817090
O1431	O143	0.344000	0.229100	0.836380
O1441	O144	0.426320	0.159710	0.826800
C1891	C189	0.440980	0.259580	0.826800
C1901	C190	0.462200	0.203670	0.826800
C1911	C191	0.521220	0.194100	0.826800
C1921	C192	0.377590	0.269860	0.826800
H481	H48	0.536400	0.154110	0.826800
Ti91	Ti9	0.149050	0.850950	0.350950
Ti101	Ti10	0.649050	0.350950	0.850950
Ti111	Ti11	0.350950	0.149050	0.850950
Ti121	Ti12	0.850950	0.649050	0.350950
Ti131	Ti13	0.649050	0.649050	0.649050
Ti141	Ti14	0.149050	0.149050	0.149050
Ti151	Ti15	0.850950	0.350950	0.149050
Ti161	Ti16	0.350950	0.850950	0.649050
