data_OTOROF_clean_PM
_symmetry_space_group_name_H-M	'P1'
_cell_length_a	8.531000
_cell_length_b	13.376000
_cell_length_c	13.631000
_cell_angle_alpha	90.000000
_cell_angle_beta	90.000000
_cell_angle_gamma	90.000000
_symmetry_Int_Tables_number 1

loop_
_symmetry_equiv_pos_as_xyz
'x,y,z'

loop_
_atom_site_label
_atom_site_type_symbol
_atom_site_fract_x
_atom_site_fract_y
_atom_site_fract_z
Mn11	Mn1	0.815010	0.750000	0.775400
Mn21	Mn2	0.315010	0.250000	0.724600
Mn31	Mn3	0.184990	0.250000	0.224600
Mn41	Mn4	0.684990	0.750000	0.275400
Fe11	Fe1	0.500000	0.000000	0.000000
Fe21	Fe2	0.000000	0.000000	0.500000
Fe31	Fe3	0.500000	0.500000	0.000000
Fe41	Fe4	0.000000	0.500000	0.500000
C11	C1	0.626700	0.915530	0.915460
C21	C2	0.686400	0.075430	0.030670
C31	C3	0.550900	0.914590	0.110440
C41	C4	0.126700	0.084470	0.584540
C51	C5	0.186400	0.924570	0.469330
C61	C6	0.050900	0.085410	0.389560
C71	C7	0.373300	0.415530	0.084540
C81	C8	0.313600	0.575430	0.969330
C91	C9	0.449100	0.414590	0.889560
C101	C10	0.873300	0.584470	0.415460
C111	C11	0.813600	0.424570	0.530670
C121	C12	0.949100	0.585410	0.610440
C131	C13	0.373300	0.084470	0.084540
C141	C14	0.313600	0.924570	0.969330
C151	C15	0.449100	0.085410	0.889560
C161	C16	0.873300	0.915530	0.415460
C171	C17	0.813600	0.075430	0.530670
C181	C18	0.949100	0.914590	0.610440
C191	C19	0.626700	0.584470	0.915460
C201	C20	0.686400	0.424570	0.030670
C211	C21	0.550900	0.585410	0.110440
C221	C22	0.126700	0.415530	0.584540
C231	C23	0.186400	0.575430	0.469330
C241	C24	0.050900	0.414590	0.389560
N11	N1	0.701600	0.865910	0.865510
N21	N2	0.585400	0.864090	0.174370
N31	N3	0.797300	0.117930	0.049230
N41	N4	0.201600	0.134090	0.634490
N51	N5	0.085400	0.135910	0.325630
N61	N6	0.297300	0.882070	0.450770
N71	N7	0.298400	0.365910	0.134490
N81	N8	0.414600	0.364090	0.825630
N91	N9	0.202700	0.617930	0.950770
N101	N10	0.798400	0.634090	0.365510
N111	N11	0.914600	0.635910	0.674370
N121	N12	0.702700	0.382070	0.549230
N131	N13	0.298400	0.134090	0.134490
N141	N14	0.414600	0.135910	0.825630
N151	N15	0.202700	0.882070	0.950770
N161	N16	0.798400	0.865910	0.365510
N171	N17	0.914600	0.864090	0.674370
N181	N18	0.702700	0.117930	0.549230
N191	N19	0.701600	0.634090	0.865510
N201	N20	0.585400	0.635910	0.174370
N211	N21	0.797300	0.382070	0.049230
N221	N22	0.201600	0.365910	0.634490
N231	N23	0.085400	0.364090	0.325630
N241	N24	0.297300	0.617930	0.450770
