data_OTOXIF_clean_PM
_symmetry_space_group_name_H-M	'P1'
_cell_length_a	7.525300
_cell_length_b	34.225700
_cell_length_c	19.525100
_cell_angle_alpha	90.000000
_cell_angle_beta	90.483000
_cell_angle_gamma	90.000000
_symmetry_Int_Tables_number 1

loop_
_symmetry_equiv_pos_as_xyz
'x,y,z'

loop_
_atom_site_label
_atom_site_type_symbol
_atom_site_fract_x
_atom_site_fract_y
_atom_site_fract_z
Mo11	Mo1	0.212700	0.100860	0.975770
Mo21	Mo2	0.737210	0.088350	0.600540
Mo31	Mo3	0.731610	0.279310	0.811970
Mn11	Mn1	0.725230	0.018730	0.848510
Mn21	Mn2	0.231260	0.174010	0.735050
Mn31	Mn3	0.234270	0.066950	0.400930
Mn41	Mn4	0.228460	0.259130	0.010600
Mn51	Mn5	0.724800	0.150440	0.149710
C11	C1	0.387100	0.061950	0.922100
C21	C2	0.274800	0.127780	0.881500
C31	C3	0.191400	0.163160	0.989500
C41	C4	0.028900	0.109900	0.056300
C51	C5	0.200900	0.046010	0.031100
C61	C6	0.432300	0.112500	0.043500
C71	C7	0.989300	0.081970	0.915100
C81	C8	0.679700	0.058600	0.694100
C91	C9	0.535000	0.120190	0.651800
C101	C10	0.539700	0.075360	0.524500
C111	C11	0.242400	0.352560	0.059900
C121	C12	0.925200	0.085510	0.518500
C131	C13	0.806300	0.027870	0.589300
C141	C14	0.932900	0.113320	0.667000
C151	C15	0.915500	0.274920	0.895900
C161	C16	0.739400	0.339670	0.849500
C171	C17	0.412800	0.195800	0.239600
C181	C18	0.904700	0.232730	0.786600
C191	C19	0.563800	0.234450	0.775800
C201	C20	0.036800	0.193990	0.244600
C211	C21	0.543600	0.270860	0.894600
C221	C22	0.715100	0.119850	0.299000
C231	C23	0.726200	0.134800	0.369400
N11	N1	0.482000	0.041370	0.892500
N21	N2	0.294600	0.141450	0.828180
N31	N3	0.193600	0.196110	0.998400
N41	N4	0.931700	0.114900	0.101030
N51	N5	0.203400	0.017820	0.063600
N61	N6	0.539700	0.120100	0.083500
N71	N7	0.874900	0.070470	0.881400
N81	N8	0.663500	0.044460	0.747400
N91	N9	0.425000	0.136570	0.680080
N101	N10	0.435400	0.069720	0.481500
N111	N11	0.247000	0.320290	0.042600
N121	N12	0.024700	0.082260	0.474200
N131	N13	0.829100	0.995060	0.581900
N141	N14	0.030000	0.128800	0.704100
N151	N15	0.011500	0.272350	0.942200
N161	N16	0.748500	0.371430	0.868200
N171	N17	0.508400	0.181790	0.200900
N181	N18	0.007700	0.208970	0.772500
N191	N19	0.459700	0.211620	0.757700
N201	N20	0.933800	0.181050	0.206700
N211	N21	0.445800	0.265610	0.938320
N221	N22	0.708500	0.109460	0.243200
K11	K1	0.233900	0.065020	0.616660
H11	H1	0.836200	0.126700	0.389800
H21	H2	0.721300	0.162700	0.367800
H31	H3	0.629400	0.124800	0.394900
Mo41	Mo4	0.287300	0.600860	0.524230
Mo51	Mo5	0.762790	0.588350	0.899460
Mo61	Mo6	0.768390	0.779310	0.688030
Mn61	Mn6	0.774770	0.518730	0.651490
Mn71	Mn7	0.268740	0.674010	0.764950
Mn81	Mn8	0.265730	0.566950	0.099070
Mn91	Mn9	0.271540	0.759130	0.489400
Mn101	Mn10	0.775200	0.650440	0.350290
C241	C24	0.112900	0.561950	0.577900
C251	C25	0.225200	0.627780	0.618500
C261	C26	0.308600	0.663160	0.510500
C271	C27	0.471100	0.609900	0.443700
C281	C28	0.299100	0.546010	0.468900
C291	C29	0.067700	0.612500	0.456500
C301	C30	0.510700	0.581970	0.584900
C311	C31	0.820300	0.558600	0.805900
C321	C32	0.965000	0.620190	0.848200
C331	C33	0.960300	0.575360	0.975500
C341	C34	0.257600	0.852560	0.440100
C351	C35	0.574800	0.585510	0.981500
C361	C36	0.693700	0.527870	0.910700
C371	C37	0.567100	0.613320	0.833000
C381	C38	0.584500	0.774920	0.604100
C391	C39	0.760600	0.839670	0.650500
C401	C40	0.087200	0.695800	0.260400
C411	C41	0.595300	0.732730	0.713400
C421	C42	0.936200	0.734450	0.724200
C431	C43	0.463200	0.693990	0.255400
C441	C44	0.956400	0.770860	0.605400
C451	C45	0.784900	0.619850	0.201000
C461	C46	0.773800	0.634800	0.130600
N231	N23	0.018000	0.541370	0.607500
N241	N24	0.205400	0.641450	0.671820
N251	N25	0.306400	0.696110	0.501600
N261	N26	0.568300	0.614900	0.398970
N271	N27	0.296600	0.517820	0.436400
N281	N28	0.960300	0.620100	0.416500
N291	N29	0.625100	0.570470	0.618600
N301	N30	0.836500	0.544460	0.752600
N311	N31	0.075000	0.636570	0.819920
N321	N32	0.064600	0.569720	0.018500
N331	N33	0.253000	0.820290	0.457400
N341	N34	0.475300	0.582260	0.025800
N351	N35	0.670900	0.495060	0.918100
N361	N36	0.470000	0.628800	0.795900
N371	N37	0.488500	0.772350	0.557800
N381	N38	0.751500	0.871430	0.631800
N391	N39	0.991600	0.681790	0.299100
N401	N40	0.492300	0.708970	0.727500
N411	N41	0.040300	0.711620	0.742300
N421	N42	0.566200	0.681050	0.293300
N431	N43	0.054200	0.765610	0.561680
N441	N44	0.791500	0.609460	0.256800
K21	K2	0.266100	0.565020	0.883340
H41	H4	0.663800	0.626700	0.110200
H51	H5	0.778700	0.662700	0.132200
H61	H6	0.870600	0.624800	0.105100
Mo71	Mo7	0.787300	0.899140	0.024230
Mo81	Mo8	0.262790	0.911650	0.399460
Mo91	Mo9	0.268390	0.720690	0.188030
Mn111	Mn11	0.274770	0.981270	0.151490
Mn121	Mn12	0.768740	0.825990	0.264950
Mn131	Mn13	0.765730	0.933050	0.599070
Mn141	Mn14	0.771540	0.740870	0.989400
Mn151	Mn15	0.275200	0.849560	0.850290
C471	C47	0.612900	0.938050	0.077900
C481	C48	0.725200	0.872220	0.118500
C491	C49	0.808600	0.836840	0.010500
C501	C50	0.971100	0.890100	0.943700
C511	C51	0.799100	0.953990	0.968900
C521	C52	0.567700	0.887500	0.956500
C531	C53	0.010700	0.918030	0.084900
C541	C54	0.320300	0.941400	0.305900
C551	C55	0.465000	0.879810	0.348200
C561	C56	0.460300	0.924640	0.475500
C571	C57	0.757600	0.647440	0.940100
C581	C58	0.074800	0.914490	0.481500
C591	C59	0.193700	0.972130	0.410700
C601	C60	0.067100	0.886680	0.333000
C611	C61	0.084500	0.725080	0.104100
C621	C62	0.260600	0.660330	0.150500
C631	C63	0.587200	0.804200	0.760400
C641	C64	0.095300	0.767270	0.213400
C651	C65	0.436200	0.765550	0.224200
C661	C66	0.963200	0.806010	0.755400
C671	C67	0.456400	0.729140	0.105400
C681	C68	0.284900	0.880150	0.701000
C691	C69	0.273800	0.865200	0.630600
N451	N45	0.518000	0.958630	0.107500
N461	N46	0.705400	0.858550	0.171820
N471	N47	0.806400	0.803890	0.001600
N481	N48	0.068300	0.885100	0.898970
N491	N49	0.796600	0.982180	0.936400
N501	N50	0.460300	0.879900	0.916500
N511	N51	0.125100	0.929530	0.118600
N521	N52	0.336500	0.955540	0.252600
N531	N53	0.575000	0.863430	0.319920
N541	N54	0.564600	0.930280	0.518500
N551	N55	0.753000	0.679710	0.957400
N561	N56	0.975300	0.917740	0.525800
N571	N57	0.170900	0.004940	0.418100
N581	N58	0.970000	0.871200	0.295900
N591	N59	0.988500	0.727650	0.057800
N601	N60	0.251500	0.628570	0.131800
N611	N61	0.491600	0.818210	0.799100
N621	N62	0.992300	0.791030	0.227500
N631	N63	0.540300	0.788380	0.242300
N641	N64	0.066200	0.818950	0.793300
N651	N65	0.554200	0.734390	0.061680
N661	N66	0.291500	0.890540	0.756800
K31	K3	0.766100	0.934980	0.383340
H71	H7	0.163800	0.873300	0.610200
H81	H8	0.278700	0.837300	0.632200
H91	H9	0.370600	0.875200	0.605100
Mo101	Mo10	0.712700	0.399140	0.475770
Mo111	Mo11	0.237210	0.411650	0.100540
Mo121	Mo12	0.231610	0.220690	0.311970
Mn161	Mn16	0.225230	0.481270	0.348510
Mn171	Mn17	0.731260	0.325990	0.235050
Mn181	Mn18	0.734270	0.433050	0.900930
Mn191	Mn19	0.728460	0.240870	0.510600
Mn201	Mn20	0.224800	0.349560	0.649710
C701	C70	0.887100	0.438050	0.422100
C711	C71	0.774800	0.372220	0.381500
C721	C72	0.691400	0.336840	0.489500
C731	C73	0.528900	0.390100	0.556300
C741	C74	0.700900	0.453990	0.531100
C751	C75	0.932300	0.387500	0.543500
C761	C76	0.489300	0.418030	0.415100
C771	C77	0.179700	0.441400	0.194100
C781	C78	0.035000	0.379810	0.151800
C791	C79	0.039700	0.424640	0.024500
C801	C80	0.742400	0.147440	0.559900
C811	C81	0.425200	0.414490	0.018500
C821	C82	0.306300	0.472130	0.089300
C831	C83	0.432900	0.386680	0.167000
C841	C84	0.415500	0.225080	0.395900
C851	C85	0.239400	0.160330	0.349500
C861	C86	0.912800	0.304200	0.739600
C871	C87	0.404700	0.267270	0.286600
C881	C88	0.063800	0.265550	0.275800
C891	C89	0.536800	0.306010	0.744600
C901	C90	0.043600	0.229140	0.394600
C911	C91	0.215100	0.380150	0.799000
C921	C92	0.226200	0.365200	0.869400
N671	N67	0.982000	0.458630	0.392500
N681	N68	0.794600	0.358550	0.328180
N691	N69	0.693600	0.303890	0.498400
N701	N70	0.431700	0.385100	0.601030
N711	N71	0.703400	0.482180	0.563600
N721	N72	0.039700	0.379900	0.583500
N731	N73	0.374900	0.429530	0.381400
N741	N74	0.163500	0.455540	0.247400
N751	N75	0.925000	0.363430	0.180080
N761	N76	0.935400	0.430280	0.981500
N771	N77	0.747000	0.179710	0.542600
N781	N78	0.524700	0.417740	0.974200
N791	N79	0.329100	0.504940	0.081900
N801	N80	0.530000	0.371200	0.204100
N811	N81	0.511500	0.227650	0.442200
N821	N82	0.248500	0.128570	0.368200
N831	N83	0.008400	0.318210	0.700900
N841	N84	0.507700	0.291030	0.272500
N851	N85	0.959700	0.288380	0.257700
N861	N86	0.433800	0.318950	0.706700
N871	N87	0.945800	0.234390	0.438320
N881	N88	0.208500	0.390540	0.743200
K41	K4	0.733900	0.434980	0.116660
H101	H10	0.336200	0.373300	0.889800
H111	H11	0.221300	0.337300	0.867800
H121	H12	0.129400	0.375200	0.894900
