data_OTUDEO_clean_PM
_symmetry_space_group_name_H-M	'P1'
_cell_length_a	20.475100
_cell_length_b	20.475100
_cell_length_c	10.407500
_cell_angle_alpha	90.000000
_cell_angle_beta	90.000000
_cell_angle_gamma	120.000000
_symmetry_Int_Tables_number 1

loop_
_symmetry_equiv_pos_as_xyz
'x,y,z'

loop_
_atom_site_label
_atom_site_type_symbol
_atom_site_fract_x
_atom_site_fract_y
_atom_site_fract_z
Mn11	Mn1	0.379720	0.834660	0.712820
O11	O1	0.423510	0.759040	0.699590
C11	C1	0.492040	0.780960	0.691000
O21	O2	0.519250	0.738460	0.686300
O31	O3	0.514980	0.904520	0.734220
C21	C2	0.615390	0.153710	0.927600
C31	C3	0.600760	0.105430	0.809000
O41	O4	0.633380	0.191560	0.431950
C41	C4	0.568270	0.027250	0.822500
H11	H1	0.557000	0.005700	0.904000
C51	C5	0.570700	0.013620	0.592900
H21	H2	0.561000	0.983100	0.521000
C61	C6	0.552950	0.982150	0.715800
C71	C7	0.603100	0.091210	0.579700
C81	C8	0.617210	0.136510	0.687500
H31	H3	0.638000	0.188300	0.677500
O51	O5	0.599710	0.117770	0.032770
C91	C9	0.617750	0.124550	0.447800
O61	O6	0.611170	0.082810	0.352690
O71	O7	0.640570	0.221880	0.915800
C101	C10	0.548540	0.864570	0.678400
H41	H4	0.547600	0.873800	0.586300
C111	C11	0.626200	0.887600	0.701300
H51	H5	0.656600	0.941200	0.689500
H61	H6	0.642000	0.862300	0.642100
H71	H7	0.632000	0.874900	0.787700
Mn21	Mn2	0.165340	0.545060	0.712820
O81	O8	0.240960	0.664470	0.699590
C121	C12	0.219040	0.711080	0.691000
O91	O9	0.261540	0.780790	0.686300
O101	O10	0.095480	0.610460	0.734220
C131	C13	0.846290	0.461680	0.927600
C141	C14	0.894570	0.495330	0.809000
O111	O11	0.808440	0.441820	0.431950
C151	C15	0.972750	0.541020	0.822500
H81	H8	0.994300	0.551300	0.904000
C161	C16	0.986380	0.557080	0.592900
H91	H9	0.016900	0.577900	0.521000
C171	C17	0.017850	0.570800	0.715800
C181	C18	0.908790	0.511890	0.579700
C191	C19	0.863490	0.480700	0.687500
H101	H10	0.811700	0.449700	0.677500
O121	O12	0.882230	0.481940	0.032770
C201	C20	0.875450	0.493200	0.447800
O131	O13	0.917190	0.528360	0.352690
O141	O14	0.778120	0.418690	0.915800
C211	C21	0.135430	0.683970	0.678400
H111	H11	0.126200	0.673800	0.586300
C221	C22	0.112400	0.738600	0.701300
H121	H12	0.058800	0.715400	0.689500
H131	H13	0.137700	0.779700	0.642100
H141	H14	0.125100	0.757100	0.787700
Mn31	Mn3	0.454940	0.620280	0.712820
O151	O15	0.335530	0.576490	0.699590
C231	C23	0.288920	0.507960	0.691000
O161	O16	0.219210	0.480750	0.686300
O171	O17	0.389540	0.485020	0.734220
C241	C24	0.538320	0.384610	0.927600
C251	C25	0.504670	0.399240	0.809000
O181	O18	0.558180	0.366620	0.431950
C261	C26	0.458980	0.431730	0.822500
H151	H15	0.448700	0.443000	0.904000
C271	C27	0.442920	0.429300	0.592900
H161	H16	0.422100	0.439000	0.521000
C281	C28	0.429200	0.447050	0.715800
C291	C29	0.488110	0.396900	0.579700
C301	C30	0.519300	0.382790	0.687500
H171	H17	0.550300	0.362000	0.677500
O191	O19	0.518060	0.400290	0.032770
C311	C31	0.506800	0.382250	0.447800
O201	O20	0.471640	0.388830	0.352690
O211	O21	0.581310	0.359430	0.915800
C321	C32	0.316030	0.451460	0.678400
H181	H18	0.326200	0.452400	0.586300
C331	C33	0.261400	0.373800	0.701300
H191	H19	0.284600	0.343400	0.689500
H201	H20	0.220300	0.358000	0.642100
H211	H21	0.242900	0.368000	0.787700
Mn41	Mn4	0.620280	0.165340	0.212820
O221	O22	0.576490	0.240960	0.199590
C341	C34	0.507960	0.219040	0.191000
O231	O23	0.480750	0.261540	0.186300
O241	O24	0.485020	0.095480	0.234220
C351	C35	0.384610	0.846290	0.427600
C361	C36	0.399240	0.894570	0.309000
O251	O25	0.366620	0.808440	0.931950
C371	C37	0.431730	0.972750	0.322500
H221	H22	0.443000	0.994300	0.404000
C381	C38	0.429300	0.986380	0.092900
H231	H23	0.439000	0.016900	0.021000
C391	C39	0.447050	0.017850	0.215800
C401	C40	0.396900	0.908790	0.079700
C411	C41	0.382790	0.863490	0.187500
H241	H24	0.362000	0.811700	0.177500
O261	O26	0.400290	0.882230	0.532770
C421	C42	0.382250	0.875450	0.947800
O271	O27	0.388830	0.917190	0.852690
O281	O28	0.359430	0.778120	0.415800
C431	C43	0.451460	0.135430	0.178400
H251	H25	0.452400	0.126200	0.086300
C441	C44	0.373800	0.112400	0.201300
H261	H26	0.343400	0.058800	0.189500
H271	H27	0.358000	0.137700	0.142100
H281	H28	0.368000	0.125100	0.287700
Mn51	Mn5	0.834660	0.454940	0.212820
O291	O29	0.759040	0.335530	0.199590
C451	C45	0.780960	0.288920	0.191000
O301	O30	0.738460	0.219210	0.186300
O311	O31	0.904520	0.389540	0.234220
C461	C46	0.153710	0.538320	0.427600
C471	C47	0.105430	0.504670	0.309000
O321	O32	0.191560	0.558180	0.931950
C481	C48	0.027250	0.458980	0.322500
H291	H29	0.005700	0.448700	0.404000
C491	C49	0.013620	0.442920	0.092900
H301	H30	0.983100	0.422100	0.021000
C501	C50	0.982150	0.429200	0.215800
C511	C51	0.091210	0.488110	0.079700
C521	C52	0.136510	0.519300	0.187500
H311	H31	0.188300	0.550300	0.177500
O331	O33	0.117770	0.518060	0.532770
C531	C53	0.124550	0.506800	0.947800
O341	O34	0.082810	0.471640	0.852690
O351	O35	0.221880	0.581310	0.415800
C541	C54	0.864570	0.316030	0.178400
H321	H32	0.873800	0.326200	0.086300
C551	C55	0.887600	0.261400	0.201300
H331	H33	0.941200	0.284600	0.189500
H341	H34	0.862300	0.220300	0.142100
H351	H35	0.874900	0.242900	0.287700
Mn61	Mn6	0.545060	0.379720	0.212820
O361	O36	0.664470	0.423510	0.199590
C561	C56	0.711080	0.492040	0.191000
O371	O37	0.780790	0.519250	0.186300
O381	O38	0.610460	0.514980	0.234220
C571	C57	0.461680	0.615390	0.427600
C581	C58	0.495330	0.600760	0.309000
O391	O39	0.441820	0.633380	0.931950
C591	C59	0.541020	0.568270	0.322500
H361	H36	0.551300	0.557000	0.404000
C601	C60	0.557080	0.570700	0.092900
H371	H37	0.577900	0.561000	0.021000
C611	C61	0.570800	0.552950	0.215800
C621	C62	0.511890	0.603100	0.079700
C631	C63	0.480700	0.617210	0.187500
H381	H38	0.449700	0.638000	0.177500
O401	O40	0.481940	0.599710	0.532770
C641	C64	0.493200	0.617750	0.947800
O411	O41	0.528360	0.611170	0.852690
O421	O42	0.418690	0.640570	0.415800
C651	C65	0.683970	0.548540	0.178400
H391	H39	0.673800	0.547600	0.086300
C661	C66	0.738600	0.626200	0.201300
H401	H40	0.715400	0.656600	0.189500
H411	H41	0.779700	0.642000	0.142100
H421	H42	0.757100	0.632000	0.287700
Na11	Na1	0.666670	0.333330	0.028260
Na21	Na2	0.333330	0.666670	0.528260
K11	K1	0.333330	0.666670	0.936200
K21	K2	0.666670	0.333330	0.436200
