data_OTUXUX_clean_PM
_symmetry_space_group_name_H-M	'P1'
_cell_length_a	20.385600
_cell_length_b	13.829300
_cell_length_c	13.156300
_cell_angle_alpha	90.000000
_cell_angle_beta	103.632000
_cell_angle_gamma	90.000000
_symmetry_Int_Tables_number 1

loop_
_symmetry_equiv_pos_as_xyz
'x,y,z'

loop_
_atom_site_label
_atom_site_type_symbol
_atom_site_fract_x
_atom_site_fract_y
_atom_site_fract_z
O11	O1	0.232800	0.841300	0.849600
O21	O2	0.148900	0.801700	0.714200
C11	C1	0.197200	0.853200	0.758500
N11	N1	0.244800	0.101600	0.590900
C21	C2	0.215300	0.938800	0.698600
C31	C3	0.279500	0.081400	0.688500
H11	H1	0.313700	0.123300	0.720800
C41	C4	0.180000	0.959700	0.598500
H21	H2	0.145000	0.919600	0.564900
N21	N2	0.134000	0.261300	0.496500
C51	C5	0.266700	0.001800	0.742800
H31	H3	0.292800	0.990100	0.809800
C61	C6	0.783700	0.204700	0.590700
H41	H4	0.806200	0.174700	0.652300
C71	C7	0.085700	0.250400	0.408200
H51	H5	0.098900	0.244600	0.345400
C81	C8	0.785200	0.303000	0.442600
H61	H6	0.808900	0.339700	0.403900
N31	N3	0.927700	0.253300	0.490400
H71	H7	0.902500	0.245000	0.428700
O31	O3	0.923000	0.268300	0.660500
C91	C9	0.112600	0.270500	0.584900
H81	H8	0.145000	0.279400	0.647100
C101	C10	0.996900	0.257000	0.497500
C111	C11	0.045400	0.267400	0.589500
H91	H9	0.033300	0.272300	0.653200
C121	C12	0.819700	0.257200	0.532400
C131	C13	0.018600	0.247500	0.405500
H101	H10	0.987200	0.239200	0.342100
C141	C14	0.894900	0.261200	0.569500
C151	C15	0.196700	0.040700	0.547800
H111	H11	0.172500	0.052600	0.479700
O41	O4	0.267200	0.341300	0.650400
O51	O5	0.351100	0.301700	0.785800
C161	C16	0.302800	0.353200	0.741500
N41	N4	0.255200	0.601600	0.909100
C171	C17	0.284700	0.438800	0.801400
C181	C18	0.220500	0.581400	0.811500
H121	H12	0.186300	0.623300	0.779200
C191	C19	0.320000	0.459700	0.901500
H131	H13	0.355000	0.419600	0.935100
N51	N5	0.366000	0.761300	0.003500
C201	C20	0.233300	0.501800	0.757200
H141	H14	0.207200	0.490100	0.690200
C211	C21	0.716300	0.704700	0.909300
H151	H15	0.693800	0.674700	0.847700
C221	C22	0.414300	0.750400	0.091800
H161	H16	0.401100	0.744600	0.154600
C231	C23	0.714800	0.803000	0.057400
H171	H17	0.691100	0.839700	0.096100
N61	N6	0.572300	0.753300	0.009600
H181	H18	0.597500	0.745000	0.071300
O61	O6	0.577000	0.768300	0.839500
C241	C24	0.387400	0.770500	0.915100
H191	H19	0.355000	0.779400	0.852900
C251	C25	0.503100	0.757000	0.002500
C261	C26	0.454600	0.767400	0.910500
H201	H20	0.466700	0.772300	0.846800
C271	C27	0.680300	0.757200	0.967600
C281	C28	0.481400	0.747500	0.094500
H211	H21	0.512800	0.739200	0.157900
C291	C29	0.605100	0.761200	0.930500
C301	C30	0.303300	0.540700	0.952200
H221	H22	0.327500	0.552600	0.020300
O71	O7	0.267200	0.658700	0.150400
O81	O8	0.351100	0.698300	0.285800
C311	C31	0.302800	0.646800	0.241500
N71	N7	0.255200	0.398400	0.409100
C321	C32	0.284700	0.561200	0.301400
C331	C33	0.220500	0.418600	0.311500
H231	H23	0.186300	0.376700	0.279200
C341	C34	0.320000	0.540300	0.401500
H241	H24	0.355000	0.580400	0.435100
N81	N8	0.366000	0.238700	0.503500
C351	C35	0.233300	0.498200	0.257200
H251	H25	0.207200	0.509900	0.190200
C361	C36	0.716300	0.295300	0.409300
H261	H26	0.693800	0.325300	0.347700
C371	C37	0.414300	0.249600	0.591800
H271	H27	0.401100	0.255400	0.654600
C381	C38	0.714800	0.197000	0.557400
H281	H28	0.691100	0.160300	0.596100
N91	N9	0.572300	0.246700	0.509600
H291	H29	0.597500	0.255000	0.571300
O91	O9	0.577000	0.231700	0.339500
C391	C39	0.387400	0.229500	0.415100
H301	H30	0.355000	0.220600	0.352900
C401	C40	0.503100	0.243000	0.502500
C411	C41	0.454600	0.232600	0.410500
H311	H31	0.466700	0.227700	0.346800
C421	C42	0.680300	0.242800	0.467600
C431	C43	0.481400	0.252500	0.594500
H321	H32	0.512800	0.260800	0.657900
C441	C44	0.605100	0.238800	0.430500
C451	C45	0.303300	0.459300	0.452200
H331	H33	0.327500	0.447400	0.520300
O101	O10	0.232800	0.158700	0.349600
O111	O11	0.148900	0.198300	0.214200
C461	C46	0.197200	0.146800	0.258500
N101	N10	0.244800	0.898400	0.090900
C471	C47	0.215300	0.061200	0.198600
C481	C48	0.279500	0.918600	0.188500
H341	H34	0.313700	0.876700	0.220800
C491	C49	0.180000	0.040300	0.098500
H351	H35	0.145000	0.080400	0.064900
N111	N11	0.134000	0.738700	0.996500
C501	C50	0.266700	0.998200	0.242800
H361	H36	0.292800	0.009900	0.309800
C511	C51	0.783700	0.795300	0.090700
H371	H37	0.806200	0.825300	0.152300
C521	C52	0.085700	0.749600	0.908200
H381	H38	0.098900	0.755400	0.845400
C531	C53	0.785200	0.697000	0.942600
H391	H39	0.808900	0.660300	0.903900
N121	N12	0.927700	0.746700	0.990400
H401	H40	0.902500	0.755000	0.928700
O121	O12	0.923000	0.731700	0.160500
C541	C54	0.112600	0.729500	0.084900
H411	H41	0.145000	0.720600	0.147100
C551	C55	0.996900	0.743000	0.997500
C561	C56	0.045400	0.732600	0.089500
H421	H42	0.033300	0.727700	0.153200
C571	C57	0.819700	0.742800	0.032400
C581	C58	0.018600	0.752500	0.905500
H431	H43	0.987200	0.760800	0.842100
C591	C59	0.894900	0.738800	0.069500
C601	C60	0.196700	0.959300	0.047800
H441	H44	0.172500	0.947400	0.979700
Cd11	Cd1	0.250000	0.250000	0.500000
Cd21	Cd2	0.250000	0.750000	0.000000
O131	O13	0.732800	0.341300	0.849600
O141	O14	0.648900	0.301700	0.714200
C611	C61	0.697200	0.353200	0.758500
N131	N13	0.744800	0.601600	0.590900
C621	C62	0.715300	0.438800	0.698600
C631	C63	0.779500	0.581400	0.688500
H451	H45	0.813700	0.623300	0.720800
C641	C64	0.680000	0.459700	0.598500
H461	H46	0.645000	0.419600	0.564900
N141	N14	0.634000	0.761300	0.496500
C651	C65	0.766700	0.501800	0.742800
H471	H47	0.792800	0.490100	0.809800
C661	C66	0.283700	0.704700	0.590700
H481	H48	0.306200	0.674700	0.652300
C671	C67	0.585700	0.750400	0.408200
H491	H49	0.598900	0.744600	0.345400
C681	C68	0.285200	0.803000	0.442600
H501	H50	0.308900	0.839700	0.403900
N151	N15	0.427700	0.753300	0.490400
H511	H51	0.402500	0.745000	0.428700
O151	O15	0.423000	0.768300	0.660500
C691	C69	0.612600	0.770500	0.584900
H521	H52	0.645000	0.779400	0.647100
C701	C70	0.496900	0.757000	0.497500
C711	C71	0.545400	0.767400	0.589500
H531	H53	0.533300	0.772300	0.653200
C721	C72	0.319700	0.757200	0.532400
C731	C73	0.518600	0.747500	0.405500
H541	H54	0.487200	0.739200	0.342100
C741	C74	0.394900	0.761200	0.569500
C751	C75	0.696700	0.540700	0.547800
H551	H55	0.672500	0.552600	0.479700
O161	O16	0.767200	0.841300	0.650400
O171	O17	0.851100	0.801700	0.785800
C761	C76	0.802800	0.853200	0.741500
N161	N16	0.755200	0.101600	0.909100
C771	C77	0.784700	0.938800	0.801400
C781	C78	0.720500	0.081400	0.811500
H561	H56	0.686300	0.123300	0.779200
C791	C79	0.820000	0.959700	0.901500
H571	H57	0.855000	0.919600	0.935100
N171	N17	0.866000	0.261300	0.003500
C801	C80	0.733300	0.001800	0.757200
H581	H58	0.707200	0.990100	0.690200
C811	C81	0.216300	0.204700	0.909300
H591	H59	0.193800	0.174700	0.847700
C821	C82	0.914300	0.250400	0.091800
H601	H60	0.901100	0.244600	0.154600
C831	C83	0.214800	0.303000	0.057400
H611	H61	0.191100	0.339700	0.096100
N181	N18	0.072300	0.253300	0.009600
H621	H62	0.097500	0.245000	0.071300
O181	O18	0.077000	0.268300	0.839500
C841	C84	0.887400	0.270500	0.915100
H631	H63	0.855000	0.279400	0.852900
C851	C85	0.003100	0.257000	0.002500
C861	C86	0.954600	0.267400	0.910500
H641	H64	0.966700	0.272300	0.846800
C871	C87	0.180300	0.257200	0.967600
C881	C88	0.981400	0.247500	0.094500
H651	H65	0.012800	0.239200	0.157900
C891	C89	0.105100	0.261200	0.930500
C901	C90	0.803300	0.040700	0.952200
H661	H66	0.827500	0.052600	0.020300
O191	O19	0.767200	0.158700	0.150400
O201	O20	0.851100	0.198300	0.285800
C911	C91	0.802800	0.146800	0.241500
N191	N19	0.755200	0.898400	0.409100
C921	C92	0.784700	0.061200	0.301400
C931	C93	0.720500	0.918600	0.311500
H671	H67	0.686300	0.876700	0.279200
C941	C94	0.820000	0.040300	0.401500
H681	H68	0.855000	0.080400	0.435100
N201	N20	0.866000	0.738700	0.503500
C951	C95	0.733300	0.998200	0.257200
H691	H69	0.707200	0.009900	0.190200
C961	C96	0.216300	0.795300	0.409300
H701	H70	0.193800	0.825300	0.347700
C971	C97	0.914300	0.749600	0.591800
H711	H71	0.901100	0.755400	0.654600
C981	C98	0.214800	0.697000	0.557400
H721	H72	0.191100	0.660300	0.596100
N211	N21	0.072300	0.746700	0.509600
H731	H73	0.097500	0.755000	0.571300
O211	O21	0.077000	0.731700	0.339500
C991	C99	0.887400	0.729500	0.415100
H741	H74	0.855000	0.720600	0.352900
C1001	C100	0.003100	0.743000	0.502500
C1011	C101	0.954600	0.732600	0.410500
H751	H75	0.966700	0.727700	0.346800
C1021	C102	0.180300	0.742800	0.467600
C1031	C103	0.981400	0.752500	0.594500
H761	H76	0.012800	0.760800	0.657900
C1041	C104	0.105100	0.738800	0.430500
C1051	C105	0.803300	0.959300	0.452200
H771	H77	0.827500	0.947400	0.520300
O221	O22	0.732800	0.658700	0.349600
O231	O23	0.648900	0.698300	0.214200
C1061	C106	0.697200	0.646800	0.258500
N221	N22	0.744800	0.398400	0.090900
C1071	C107	0.715300	0.561200	0.198600
C1081	C108	0.779500	0.418600	0.188500
H781	H78	0.813700	0.376700	0.220800
C1091	C109	0.680000	0.540300	0.098500
H791	H79	0.645000	0.580400	0.064900
N231	N23	0.634000	0.238700	0.996500
C1101	C110	0.766700	0.498200	0.242800
H801	H80	0.792800	0.509900	0.309800
C1111	C111	0.283700	0.295300	0.090700
H811	H81	0.306200	0.325300	0.152300
C1121	C112	0.585700	0.249600	0.908200
H821	H82	0.598900	0.255400	0.845400
C1131	C113	0.285200	0.197000	0.942600
H831	H83	0.308900	0.160300	0.903900
N241	N24	0.427700	0.246700	0.990400
H841	H84	0.402500	0.255000	0.928700
O241	O24	0.423000	0.231700	0.160500
C1141	C114	0.612600	0.229500	0.084900
H851	H85	0.645000	0.220600	0.147100
C1151	C115	0.496900	0.243000	0.997500
C1161	C116	0.545400	0.232600	0.089500
H861	H86	0.533300	0.227700	0.153200
C1171	C117	0.319700	0.242800	0.032400
C1181	C118	0.518600	0.252500	0.905500
H871	H87	0.487200	0.260800	0.842100
C1191	C119	0.394900	0.238800	0.069500
C1201	C120	0.696700	0.459300	0.047800
H881	H88	0.672500	0.447400	0.979700
Cd31	Cd3	0.750000	0.250000	0.000000
Cd41	Cd4	0.750000	0.750000	0.500000
