data_OVEHUT_clean_PM
_symmetry_space_group_name_H-M	'P1'
_cell_length_a	10.094000
_cell_length_b	13.699000
_cell_length_c	13.723000
_cell_angle_alpha	90.000000
_cell_angle_beta	107.920000
_cell_angle_gamma	90.000000
_symmetry_Int_Tables_number 1

loop_
_symmetry_equiv_pos_as_xyz
'x,y,z'

loop_
_atom_site_label
_atom_site_type_symbol
_atom_site_fract_x
_atom_site_fract_y
_atom_site_fract_z
Cd11	Cd1	0.673400	0.557230	0.081550
O11	O1	0.852900	0.456300	0.218100
O21	O2	0.627300	0.429200	0.178000
O31	O3	0.604500	0.059700	0.455700
O41	O4	0.455200	0.149300	0.337300
O51	O5	0.166500	0.182100	0.360500
O61	O6	0.118000	0.076700	0.467000
C11	C1	0.752400	0.405500	0.223800
C21	C2	0.578200	0.125000	0.387000
C31	C3	0.084200	0.147300	0.405100
C41	C4	0.832600	0.141500	0.401700
H11	H1	0.851100	0.085800	0.442400
C51	C5	0.941000	0.189800	0.378700
C61	C6	0.913300	0.277100	0.324100
H21	H2	0.986200	0.311400	0.312000
C71	C7	0.779900	0.313500	0.287600
C81	C8	0.670700	0.261500	0.305500
H31	H3	0.579800	0.283800	0.278200
C91	C9	0.696900	0.176400	0.363900
Cd21	Cd2	0.326600	0.057230	0.418450
O71	O7	0.147100	0.956300	0.281900
O81	O8	0.372700	0.929200	0.322000
O91	O9	0.395500	0.559700	0.044300
O101	O10	0.544800	0.649300	0.162700
O111	O11	0.833500	0.682100	0.139500
O121	O12	0.882000	0.576700	0.033000
C101	C10	0.247600	0.905500	0.276200
C111	C11	0.421800	0.625000	0.113000
C121	C12	0.915800	0.647300	0.094900
C131	C13	0.167400	0.641500	0.098300
H41	H4	0.148900	0.585800	0.057600
C141	C14	0.059000	0.689800	0.121300
C151	C15	0.086700	0.777100	0.175900
H51	H5	0.013800	0.811400	0.188000
C161	C16	0.220100	0.813500	0.212400
C171	C17	0.329300	0.761500	0.194500
H61	H6	0.420200	0.783800	0.221800
C181	C18	0.303100	0.676400	0.136100
Cd31	Cd3	0.326600	0.442770	0.918450
O131	O13	0.147100	0.543700	0.781900
O141	O14	0.372700	0.570800	0.822000
O151	O15	0.395500	0.940300	0.544300
O161	O16	0.544800	0.850700	0.662700
O171	O17	0.833500	0.817900	0.639500
O181	O18	0.882000	0.923300	0.533000
C191	C19	0.247600	0.594500	0.776200
C201	C20	0.421800	0.875000	0.613000
C211	C21	0.915800	0.852700	0.594900
C221	C22	0.167400	0.858500	0.598300
H71	H7	0.148900	0.914200	0.557600
C231	C23	0.059000	0.810200	0.621300
C241	C24	0.086700	0.722900	0.675900
H81	H8	0.013800	0.688600	0.688000
C251	C25	0.220100	0.686500	0.712400
C261	C26	0.329300	0.738500	0.694500
H91	H9	0.420200	0.716200	0.721800
C271	C27	0.303100	0.823600	0.636100
Cd41	Cd4	0.673400	0.942770	0.581550
O191	O19	0.852900	0.043700	0.718100
O201	O20	0.627300	0.070800	0.678000
O211	O21	0.604500	0.440300	0.955700
O221	O22	0.455200	0.350700	0.837300
O231	O23	0.166500	0.317900	0.860500
O241	O24	0.118000	0.423300	0.967000
C281	C28	0.752400	0.094500	0.723800
C291	C29	0.578200	0.375000	0.887000
C301	C30	0.084200	0.352700	0.905100
C311	C31	0.832600	0.358500	0.901700
H101	H10	0.851100	0.414200	0.942400
C321	C32	0.941000	0.310200	0.878700
C331	C33	0.913300	0.222900	0.824100
H111	H11	0.986200	0.188600	0.812000
C341	C34	0.779900	0.186500	0.787600
C351	C35	0.670700	0.238500	0.805500
H121	H12	0.579800	0.216200	0.778200
C361	C36	0.696900	0.323600	0.863900
