data_OVIZID_clean_PM
_symmetry_space_group_name_H-M	'P1'
_cell_length_a	12.793200
_cell_length_b	12.793200
_cell_length_c	18.033100
_cell_angle_alpha	91.864600
_cell_angle_beta	91.864600
_cell_angle_gamma	106.133000
_symmetry_Int_Tables_number 1

loop_
_symmetry_equiv_pos_as_xyz
'x,y,z'

loop_
_atom_site_label
_atom_site_type_symbol
_atom_site_fract_x
_atom_site_fract_y
_atom_site_fract_z
Ni11	Ni1	0.237110	0.275510	0.710570
Ni21	Ni2	0.724490	0.762890	0.789430
Ni31	Ni3	0.762890	0.724490	0.289430
Ni41	Ni4	0.275510	0.237110	0.210570
Ni51	Ni5	0.000000	0.000000	0.500000
Ni61	Ni6	0.000000	0.000000	0.000000
H11	H1	0.523100	0.467900	0.679500
H21	H2	0.460900	0.680100	0.533800
H31	H3	0.283300	0.362500	0.520300
H41	H4	0.347000	0.227800	0.526000
H51	H5	0.358000	0.139800	0.584400
H61	H6	0.507000	0.240400	0.649800
H71	H7	0.490100	0.322900	0.714200
H81	H8	0.308300	0.524900	0.721000
H91	H9	0.042400	0.323000	0.629700
H101	H10	0.266500	0.671500	0.671200
H111	H11	0.987400	0.466000	0.583600
H121	H12	0.237800	0.752200	0.542900
H131	H13	0.935600	0.641400	0.621500
H141	H14	0.188100	0.899900	0.499800
H151	H15	0.894900	0.789900	0.575500
H161	H16	0.266600	0.653000	0.408000
H171	H17	0.532100	0.476900	0.820500
H181	H18	0.319900	0.539100	0.966200
H191	H19	0.637500	0.716700	0.979700
H201	H20	0.772200	0.653000	0.974000
H211	H21	0.860200	0.642000	0.915600
H221	H22	0.759600	0.493000	0.850200
H231	H23	0.677100	0.509900	0.785800
H241	H24	0.475100	0.691700	0.779000
H251	H25	0.677000	0.957600	0.870300
H261	H26	0.328500	0.733500	0.828800
H271	H27	0.534000	0.012600	0.916400
H281	H28	0.247800	0.762200	0.957100
H291	H29	0.358600	0.064400	0.878500
H301	H30	0.100100	0.811900	0.000200
H311	H31	0.210100	0.105100	0.924500
H321	H32	0.347000	0.733400	0.092000
H331	H33	0.476900	0.532100	0.320500
H341	H34	0.539100	0.319900	0.466200
H351	H35	0.716700	0.637500	0.479700
H361	H36	0.653000	0.772200	0.474000
H371	H37	0.642000	0.860200	0.415600
H381	H38	0.493000	0.759600	0.350200
H391	H39	0.509900	0.677100	0.285800
H401	H40	0.691700	0.475100	0.279000
H411	H41	0.957600	0.677000	0.370300
H421	H42	0.733500	0.328500	0.328800
H431	H43	0.012600	0.534000	0.416400
H441	H44	0.762200	0.247800	0.457100
H451	H45	0.064400	0.358600	0.378500
H461	H46	0.811900	0.100100	0.500200
H471	H47	0.105100	0.210100	0.424500
H481	H48	0.733400	0.347000	0.592000
H491	H49	0.467900	0.523100	0.179500
H501	H50	0.680100	0.460900	0.033800
H511	H51	0.362500	0.283300	0.020300
H521	H52	0.227800	0.347000	0.026000
H531	H53	0.139800	0.358000	0.084400
H541	H54	0.240400	0.507000	0.149800
H551	H55	0.322900	0.490100	0.214200
H561	H56	0.524900	0.308300	0.221000
H571	H57	0.323000	0.042400	0.129700
H581	H58	0.671500	0.266500	0.171200
H591	H59	0.466000	0.987400	0.083600
H601	H60	0.752200	0.237800	0.042900
H611	H61	0.641400	0.935600	0.121500
H621	H62	0.899900	0.188100	0.999800
H631	H63	0.789900	0.894900	0.075500
H641	H64	0.653000	0.266600	0.908000
C11	C1	0.399040	0.396560	0.603900
C21	C2	0.481900	0.481900	0.638100
C31	C3	0.504400	0.586600	0.612200
C41	C4	0.445400	0.608600	0.551700
C51	C5	0.363300	0.523900	0.517800
C61	C6	0.340100	0.419100	0.543900
C71	C7	0.593100	0.676900	0.650900
C81	C8	0.300300	0.542900	0.451000
C91	C9	0.325000	0.199800	0.575400
C101	C10	0.201390	0.154210	0.573600
C111	C11	0.452200	0.259800	0.680900
C121	C12	0.397700	0.163500	0.727300
C131	C13	0.243500	0.512500	0.690800
C141	C14	0.088200	0.395000	0.638700
C151	C15	0.218500	0.600500	0.662300
C161	C16	0.055600	0.479800	0.610100
C171	C17	0.122300	0.585500	0.620000
C181	C18	0.092500	0.679500	0.588200
C191	C19	0.166900	0.758700	0.550600
C201	C20	0.989300	0.693700	0.596600
C211	C21	0.136300	0.846300	0.524900
C221	C22	0.965850	0.782150	0.569180
C231	C23	0.603440	0.600960	0.896100
C241	C24	0.518100	0.518100	0.861900
C251	C25	0.413400	0.495600	0.887800
C261	C26	0.391400	0.554600	0.948300
C271	C27	0.476100	0.636700	0.982200
C281	C28	0.580900	0.659900	0.956100
C291	C29	0.323100	0.406900	0.849100
C301	C30	0.457100	0.699700	0.049000
C311	C31	0.800200	0.675000	0.924600
C321	C32	0.845790	0.798610	0.926400
C331	C33	0.740200	0.547800	0.819100
C341	C34	0.836500	0.602300	0.772700
C351	C35	0.487500	0.756500	0.809200
C361	C36	0.605000	0.911800	0.861300
C371	C37	0.399500	0.781500	0.837700
C381	C38	0.520200	0.944400	0.889900
C391	C39	0.414500	0.877700	0.880000
C401	C40	0.320500	0.907500	0.911800
C411	C41	0.241300	0.833100	0.949400
C421	C42	0.306300	0.010700	0.903400
C431	C43	0.153700	0.863700	0.975100
C441	C44	0.217850	0.034150	0.930820
C451	C45	0.600960	0.603440	0.396100
C461	C46	0.518100	0.518100	0.361900
C471	C47	0.495600	0.413400	0.387800
C481	C48	0.554600	0.391400	0.448300
C491	C49	0.636700	0.476100	0.482200
C501	C50	0.659900	0.580900	0.456100
C511	C51	0.406900	0.323100	0.349100
C521	C52	0.699700	0.457100	0.549000
C531	C53	0.675000	0.800200	0.424600
C541	C54	0.798610	0.845790	0.426400
C551	C55	0.547800	0.740200	0.319100
C561	C56	0.602300	0.836500	0.272700
C571	C57	0.756500	0.487500	0.309200
C581	C58	0.911800	0.605000	0.361300
C591	C59	0.781500	0.399500	0.337700
C601	C60	0.944400	0.520200	0.389900
C611	C61	0.877700	0.414500	0.380000
C621	C62	0.907500	0.320500	0.411800
C631	C63	0.833100	0.241300	0.449400
C641	C64	0.010700	0.306300	0.403400
C651	C65	0.863700	0.153700	0.475100
C661	C66	0.034150	0.217850	0.430820
C671	C67	0.396560	0.399040	0.103900
C681	C68	0.481900	0.481900	0.138100
C691	C69	0.586600	0.504400	0.112200
C701	C70	0.608600	0.445400	0.051700
C711	C71	0.523900	0.363300	0.017800
C721	C72	0.419100	0.340100	0.043900
C731	C73	0.676900	0.593100	0.150900
C741	C74	0.542900	0.300300	0.951000
C751	C75	0.199800	0.325000	0.075400
C761	C76	0.154210	0.201390	0.073600
C771	C77	0.259800	0.452200	0.180900
C781	C78	0.163500	0.397700	0.227300
C791	C79	0.512500	0.243500	0.190800
C801	C80	0.395000	0.088200	0.138700
C811	C81	0.600500	0.218500	0.162300
C821	C82	0.479800	0.055600	0.110100
C831	C83	0.585500	0.122300	0.120000
C841	C84	0.679500	0.092500	0.088200
C851	C85	0.758700	0.166900	0.050600
C861	C86	0.693700	0.989300	0.096600
C871	C87	0.846300	0.136300	0.024900
C881	C88	0.782150	0.965850	0.069180
N11	N1	0.181700	0.409100	0.678620
N21	N2	0.369400	0.288760	0.632940
N31	N3	0.037380	0.859820	0.533300
N41	N4	0.590900	0.818300	0.821380
N51	N5	0.711240	0.630600	0.867060
N61	N6	0.140180	0.962620	0.966700
N71	N7	0.818300	0.590900	0.321380
N81	N8	0.630600	0.711240	0.367060
N91	N9	0.962620	0.140180	0.466700
N101	N10	0.409100	0.181700	0.178620
N111	N11	0.288760	0.369400	0.132940
N121	N12	0.859820	0.037380	0.033300
O11	O1	0.298070	0.147670	0.738350
O21	O2	0.453400	0.103800	0.749000
O31	O3	0.148570	0.183510	0.624240
O41	O4	0.160850	0.087850	0.521820
O51	O5	0.627180	0.657180	0.713250
O61	O6	0.624900	0.764500	0.619100
O71	O7	0.322380	0.643020	0.431350
O81	O8	0.239400	0.466600	0.414400
O91	O9	0.852330	0.701930	0.761650
O101	O10	0.896200	0.546600	0.751000
O111	O11	0.816490	0.851430	0.875760
O121	O12	0.912150	0.839150	0.978180
O131	O13	0.342820	0.372820	0.786750
O141	O14	0.235500	0.375100	0.880900
O151	O15	0.356980	0.677620	0.068650
O161	O16	0.533400	0.760600	0.085600
O171	O17	0.701930	0.852330	0.261650
O181	O18	0.546600	0.896200	0.251000
O191	O19	0.851430	0.816490	0.375760
O201	O20	0.839150	0.912150	0.478180
O211	O21	0.372820	0.342820	0.286750
O221	O22	0.375100	0.235500	0.380900
O231	O23	0.677620	0.356980	0.568650
O241	O24	0.760600	0.533400	0.585600
O251	O25	0.147670	0.298070	0.238350
O261	O26	0.103800	0.453400	0.249000
O271	O27	0.183510	0.148570	0.124240
O281	O28	0.087850	0.160850	0.021820
O291	O29	0.657180	0.627180	0.213250
O301	O30	0.764500	0.624900	0.119100
O311	O31	0.643020	0.322380	0.931350
O321	O32	0.466600	0.239400	0.914400
