data_OVIZOJ_clean_PM
_symmetry_space_group_name_H-M	'P1'
_cell_length_a	12.422500
_cell_length_b	12.998100
_cell_length_c	14.779000
_cell_angle_alpha	64.384000
_cell_angle_beta	80.885000
_cell_angle_gamma	79.562000
_symmetry_Int_Tables_number 1

loop_
_symmetry_equiv_pos_as_xyz
'x,y,z'

loop_
_atom_site_label
_atom_site_type_symbol
_atom_site_fract_x
_atom_site_fract_y
_atom_site_fract_z
Ni11	Ni1	0.228860	0.216340	0.212280
O11	O1	0.439910	0.206500	0.646870
N11	N1	0.288290	0.070160	0.344830
C11	C1	0.370720	0.177410	0.611390
Ni21	Ni2	0.449430	0.175560	0.795240
O21	O2	0.276090	0.153700	0.654670
N21	N2	0.748200	0.317000	0.041900
C21	C2	0.402900	0.166600	0.513100
Ni31	Ni3	0.809750	0.154840	0.162900
O31	O3	0.723400	0.200800	0.366800
N31	N3	0.897300	0.681200	0.263200
C31	C3	0.508100	0.183800	0.466200
Ni41	Ni4	0.846870	0.782840	0.119790
O41	O4	0.677480	0.139300	0.260690
C41	C4	0.541200	0.158000	0.383300
O51	O5	0.474450	0.990930	0.163850
C51	C5	0.468800	0.119000	0.346100
O61	O6	0.333990	0.128580	0.138840
C61	C6	0.361600	0.105300	0.390600
O71	O7	0.028200	0.971000	0.379500
C71	C7	0.329300	0.128600	0.475000
O81	O8	0.104030	0.114600	0.253060
C81	C8	0.656400	0.167900	0.333200
O91	O9	0.352280	0.312400	0.174600
C91	C9	0.187400	0.027700	0.408300
O101	O10	0.308400	0.438300	0.243900
C101	C10	0.100300	0.036200	0.341900
O111	O11	0.611820	0.659820	0.228450
C111	C11	0.346600	0.983500	0.306000
O121	O12	0.754950	0.668840	0.112740
C121	C12	0.389500	0.038300	0.194900
O131	O13	0.940720	0.172330	0.055950
C131	C13	0.373900	0.388900	0.196600
O141	O14	0.022770	0.308180	0.925580
C141	C14	0.668400	0.628300	0.163800
O151	O15	0.737400	0.088550	0.089430
C151	C15	0.522500	0.509400	0.177900
O161	O16	0.694700	0.124900	0.938600
C161	C16	0.629800	0.535000	0.146900
C171	C17	0.702300	0.474600	0.099500
C181	C18	0.670200	0.387400	0.084000
C191	C19	0.562700	0.362300	0.114700
C201	C20	0.488800	0.422700	0.161800
O171	O17	0.289450	0.129530	0.830370
C211	C21	0.852000	0.366700	0.993600
C221	C22	0.944200	0.273300	0.991400
C231	C23	0.701700	0.285300	0.971800
C241	C24	0.712800	0.157000	0.001800
C251	C25	0.978300	0.538700	0.450300
H11	H1	0.259300	0.154900	0.774900
H21	H2	0.290700	0.058500	0.858500
H31	H3	0.296300	0.937500	0.303400
H41	H4	0.404400	0.933900	0.344300
H51	H5	0.154400	0.071700	0.440800
H61	H6	0.205200	0.944500	0.464600
H71	H7	0.621700	0.315700	0.962000
H81	H8	0.733000	0.327100	0.899500
H91	H9	0.875100	0.394400	0.032000
H101	H10	0.832400	0.418400	0.913700
H111	H11	0.539200	0.300300	0.109300
H121	H12	0.496700	0.104300	0.282200
H131	H13	0.253100	0.110900	0.514100
H141	H14	0.559500	0.200400	0.500500
H151	H15	0.777500	0.490200	0.085100
H161	H16	0.464200	0.546700	0.219200
C261	C26	0.834090	0.618060	0.340600
C271	C27	0.871490	0.547250	0.433700
C281	C28	0.001690	0.677460	0.280000
C291	C29	0.046090	0.608450	0.370500
H171	H17	0.817400	0.512300	0.484400
H181	H18	0.119600	0.621300	0.377600
H191	H19	0.760400	0.634900	0.333400
H201	H20	0.060100	0.723600	0.220800
Ni51	Ni5	0.771140	0.783660	0.787720
O181	O18	0.560090	0.793500	0.353130
N41	N4	0.711710	0.929840	0.655170
C301	C30	0.629280	0.822590	0.388610
Ni61	Ni6	0.550570	0.824440	0.204760
O191	O19	0.723910	0.846300	0.345330
N51	N5	0.251800	0.683000	0.958100
C311	C31	0.597100	0.833400	0.486900
Ni71	Ni7	0.190250	0.845160	0.837100
O201	O20	0.276600	0.799200	0.633200
N61	N6	0.102700	0.318800	0.736800
C321	C32	0.491900	0.816200	0.533800
Ni81	Ni8	0.153130	0.217160	0.880210
O211	O21	0.322520	0.860700	0.739310
C331	C33	0.458800	0.842000	0.616700
O221	O22	0.525550	0.009070	0.836150
C341	C34	0.531200	0.881000	0.653900
O231	O23	0.666010	0.871420	0.861160
C351	C35	0.638400	0.894700	0.609400
O241	O24	0.971800	0.029000	0.620500
C361	C36	0.670700	0.871400	0.525000
O251	O25	0.895970	0.885400	0.746940
C371	C37	0.343600	0.832100	0.666800
O261	O26	0.647720	0.687600	0.825400
C381	C38	0.812600	0.972300	0.591700
O271	O27	0.691600	0.561700	0.756100
C391	C39	0.899700	0.963800	0.658100
O281	O28	0.388180	0.340180	0.771550
C401	C40	0.653400	0.016500	0.694000
O291	O29	0.245050	0.331160	0.887260
C411	C41	0.610500	0.961700	0.805100
O301	O30	0.059280	0.827670	0.944050
C421	C42	0.626100	0.611100	0.803400
O311	O31	0.977230	0.691820	0.074420
C431	C43	0.331600	0.371700	0.836200
O321	O32	0.262600	0.911450	0.910570
C441	C44	0.477500	0.490600	0.822100
O331	O33	0.305300	0.875100	0.061400
C451	C45	0.370200	0.465000	0.853100
C461	C46	0.297700	0.525400	0.900500
C471	C47	0.329800	0.612600	0.916000
C481	C48	0.437300	0.637700	0.885300
C491	C49	0.511200	0.577300	0.838200
O341	O34	0.710550	0.870470	0.169630
C501	C50	0.148000	0.633300	0.006400
C511	C51	0.055800	0.726700	0.008600
C521	C52	0.298300	0.714700	0.028200
C531	C53	0.287200	0.843000	0.998200
C541	C54	0.021700	0.461300	0.549700
H211	H21	0.740700	0.845100	0.225100
H221	H22	0.709300	0.941500	0.141500
H231	H23	0.703700	0.062500	0.696600
H241	H24	0.595600	0.066100	0.655700
H251	H25	0.845600	0.928300	0.559200
H261	H26	0.794800	0.055500	0.535400
H271	H27	0.378300	0.684300	0.038000
H281	H28	0.267000	0.672900	0.100500
H291	H29	0.124900	0.605600	0.968000
H301	H30	0.167600	0.581600	0.086300
H311	H31	0.460800	0.699700	0.890700
H321	H32	0.503300	0.895700	0.717800
H331	H33	0.746900	0.889100	0.485900
H341	H34	0.440500	0.799600	0.499500
H351	H35	0.222500	0.509800	0.914900
H361	H36	0.535800	0.453300	0.780800
C551	C55	0.165910	0.381940	0.659400
C561	C56	0.128510	0.452750	0.566300
C571	C57	0.998310	0.322540	0.720000
C581	C58	0.953910	0.391550	0.629500
H371	H37	0.182600	0.487700	0.515600
H381	H38	0.880400	0.378700	0.622400
H391	H39	0.239600	0.365100	0.666600
H401	H40	0.939900	0.276400	0.779200
