data_OWETIU_clean_PM
_symmetry_space_group_name_H-M	'P1'
_cell_length_a	15.616000
_cell_length_b	17.365000
_cell_length_c	19.962000
_cell_angle_alpha	75.813000
_cell_angle_beta	89.468000
_cell_angle_gamma	76.036000
_symmetry_Int_Tables_number 1

loop_
_symmetry_equiv_pos_as_xyz
'x,y,z'

loop_
_atom_site_label
_atom_site_type_symbol
_atom_site_fract_x
_atom_site_fract_y
_atom_site_fract_z
Ag11	Ag1	0.272000	0.948950	0.086820
Ag21	Ag2	0.965920	0.571870	0.536320
Ag31	Ag3	0.403650	0.060470	0.032560
Ag41	Ag4	0.728000	0.051050	0.913180
Ag51	Ag5	0.034080	0.428130	0.463680
Ag61	Ag6	0.596350	0.939530	0.967440
Ag71	Ag7	0.000000	0.500000	0.000000
Ag81	Ag8	0.500000	0.500000	0.000000
Ag91	Ag9	0.000000	0.000000	0.000000
P11	P1	0.782100	0.858600	0.250870
P21	P2	0.666700	0.684700	0.230690
P31	P3	0.217900	0.141400	0.749130
P41	P4	0.333300	0.315300	0.769310
H11	H1	0.149700	0.882000	0.932800
H21	H2	0.325000	0.684700	0.926500
H31	H3	0.240700	0.755400	0.903700
H41	H4	0.341100	0.811900	0.942400
H51	H5	0.364300	0.741600	0.011200
H61	H6	0.213500	0.240800	0.217900
H71	H7	0.151800	0.246300	0.154600
H81	H8	0.412600	0.995200	0.202000
H91	H9	0.133200	0.857900	0.131000
H101	H10	0.499100	0.588900	0.834100
H111	H11	0.201000	0.139100	0.091400
H121	H12	0.528500	0.686000	0.981800
H131	H13	0.659800	0.676300	0.698400
H141	H14	0.638000	0.600600	0.749900
H151	H15	0.761000	0.628400	0.552600
H161	H16	0.055700	0.314800	0.969900
H171	H17	0.342400	0.585700	0.028100
H181	H18	0.289800	0.639800	0.076100
H191	H19	0.933700	0.232500	0.208300
H201	H20	0.934200	0.168600	0.164700
H211	H21	0.343300	0.097600	0.261800
H221	H22	0.092200	0.114100	0.189200
H231	H23	0.043200	0.104600	0.258100
H241	H24	0.079600	0.227400	0.260700
H251	H25	0.146400	0.142000	0.287300
H261	H26	0.599800	0.554200	0.661000
H271	H27	0.612800	0.632500	0.607600
H281	H28	0.528000	0.781800	0.869800
H291	H29	0.164400	0.691700	0.994000
H301	H30	0.206200	0.628700	0.949800
H311	H31	0.512200	0.727300	0.663100
H321	H32	0.489700	0.651200	0.712400
H331	H33	0.440500	0.760700	0.747300
H341	H34	0.535000	0.775400	0.749600
H351	H35	0.783900	0.466600	0.735300
H361	H36	0.961900	0.373900	0.137500
H371	H37	0.030000	0.190600	0.047600
H381	H38	0.915800	0.445100	0.678600
H391	H39	0.266000	0.769200	0.114400
H401	H40	0.850300	0.118000	0.067200
H411	H41	0.675000	0.315300	0.073500
H421	H42	0.759300	0.244600	0.096300
H431	H43	0.658900	0.188100	0.057600
H441	H44	0.635700	0.258400	0.988800
H451	H45	0.786500	0.759200	0.782100
H461	H46	0.848200	0.753700	0.845400
H471	H47	0.587400	0.004800	0.798000
H481	H48	0.866800	0.142100	0.869000
H491	H49	0.500900	0.411100	0.165900
H501	H50	0.799000	0.860900	0.908600
H511	H51	0.471500	0.314000	0.018200
H521	H52	0.340200	0.323700	0.301600
H531	H53	0.362000	0.399400	0.250100
H541	H54	0.239000	0.371600	0.447400
H551	H55	0.944300	0.685200	0.030100
H561	H56	0.657600	0.414300	0.971900
H571	H57	0.710200	0.360200	0.923900
H581	H58	0.066300	0.767500	0.791700
H591	H59	0.065800	0.831400	0.835300
H601	H60	0.656700	0.902400	0.738200
H611	H61	0.907800	0.885900	0.810800
H621	H62	0.956800	0.895400	0.741900
H631	H63	0.920400	0.772600	0.739300
H641	H64	0.853600	0.858000	0.712700
H651	H65	0.400200	0.445800	0.339000
H661	H66	0.387200	0.367500	0.392400
H671	H67	0.472000	0.218200	0.130200
H681	H68	0.835600	0.308300	0.006000
H691	H69	0.793800	0.371300	0.050200
H701	H70	0.487800	0.272700	0.336900
H711	H71	0.510300	0.348800	0.287600
H721	H72	0.559500	0.239300	0.252700
H731	H73	0.465000	0.224600	0.250400
H741	H74	0.216100	0.533400	0.264700
H751	H75	0.038100	0.626100	0.862500
H761	H76	0.970000	0.809400	0.952400
H771	H77	0.084200	0.554900	0.321400
H781	H78	0.734000	0.230800	0.885600
W11	W1	0.617130	0.497100	0.313050
W21	W2	0.901800	0.929860	0.361950
W31	W3	0.618630	0.656610	0.405760
W41	W4	0.817390	0.895350	0.073570
W51	W5	0.756270	0.068310	0.240750
W61	W6	0.827410	0.544780	0.351260
W71	W7	0.709660	0.730090	0.053100
W81	W8	0.626680	0.997100	0.124640
W91	W9	0.729540	0.819400	0.425470
W101	W10	0.584120	0.960600	0.309340
W111	W11	0.654830	0.535990	0.142350
W121	W12	0.936790	0.709850	0.368560
W131	W13	0.518920	0.830420	0.105100
W141	W14	0.867710	0.576390	0.182310
W151	W15	0.947090	0.960570	0.193390
W161	W16	0.475670	0.797140	0.288630
W171	W17	0.466340	0.636410	0.196910
W181	W18	0.979240	0.740360	0.199710
W191	W19	0.382870	0.502900	0.686950
W201	W20	0.098200	0.070140	0.638050
W211	W21	0.381370	0.343390	0.594240
W221	W22	0.182610	0.104650	0.926430
W231	W23	0.243730	0.931690	0.759250
W241	W24	0.172590	0.455220	0.648740
W251	W25	0.290340	0.269910	0.946900
W261	W26	0.373320	0.002900	0.875360
W271	W27	0.270460	0.180600	0.574530
W281	W28	0.415880	0.039400	0.690660
W291	W29	0.345170	0.464010	0.857650
W301	W30	0.063210	0.290150	0.631440
W311	W31	0.481080	0.169580	0.894900
W321	W32	0.132290	0.423610	0.817690
W331	W33	0.052910	0.039430	0.806610
W341	W34	0.524330	0.202860	0.711370
W351	W35	0.533660	0.363590	0.803090
W361	W36	0.020760	0.259640	0.800290
C11	C1	0.165600	0.871300	0.979500
C21	C2	0.275900	0.719000	0.944100
C31	C3	0.317200	0.774500	0.977400
C41	C4	0.182800	0.209800	0.196700
C51	C5	0.362100	0.037000	0.185900
C61	C6	0.164900	0.872000	0.088900
C71	C7	0.509200	0.626300	0.857400
C81	C8	0.245600	0.116800	0.126200
C91	C9	0.524300	0.674700	0.939000
C101	C10	0.620900	0.639400	0.705400
C111	C11	0.780200	0.583100	0.589800
C121	C12	0.031100	0.311800	0.012800
C131	C13	0.284400	0.609400	0.042200
C141	C14	0.968500	0.202500	0.178200
C151	C15	0.324000	0.092600	0.219500
C161	C16	0.059300	0.144400	0.220100
C171	C17	0.114800	0.180600	0.246300
C181	C18	0.634800	0.594400	0.651700
C191	C19	0.523200	0.728000	0.876700
C201	C20	0.219000	0.661900	0.979200
C211	C21	0.527400	0.689000	0.708100
C221	C22	0.502600	0.733100	0.756700
C231	C23	0.791000	0.494500	0.690400
C241	C24	0.979900	0.344300	0.104600
C251	C25	0.018900	0.242300	0.056200
C261	C26	0.864500	0.484800	0.660200
C271	C27	0.241200	0.820000	0.079100
C281	C28	0.834400	0.128700	0.020500
C291	C29	0.724100	0.281000	0.055900
C301	C30	0.682800	0.225500	0.022600
C311	C31	0.817200	0.790200	0.803300
C321	C32	0.637900	0.963000	0.814100
C331	C33	0.835100	0.128000	0.911100
C341	C34	0.490800	0.373700	0.142600
C351	C35	0.754400	0.883200	0.873800
C361	C36	0.475700	0.325300	0.061000
C371	C37	0.379100	0.360600	0.294600
C381	C38	0.219800	0.416900	0.410200
C391	C39	0.968900	0.688200	0.987200
C401	C40	0.715600	0.390600	0.957800
C411	C41	0.031500	0.797500	0.821800
C421	C42	0.676000	0.907400	0.780500
C431	C43	0.940700	0.855600	0.779900
C441	C44	0.885200	0.819400	0.753700
C451	C45	0.365200	0.405600	0.348300
C461	C46	0.476800	0.272000	0.123300
C471	C47	0.781000	0.338100	0.020800
C481	C48	0.472600	0.311000	0.291900
C491	C49	0.497400	0.266900	0.243300
C501	C50	0.209000	0.505500	0.309600
C511	C51	0.020100	0.655700	0.895400
C521	C52	0.981100	0.757700	0.943800
C531	C53	0.135500	0.515200	0.339800
C541	C54	0.758800	0.180000	0.920900
N11	N1	0.118400	0.901000	0.024500
N21	N2	0.248400	0.142600	0.178400
N31	N3	0.723200	0.553900	0.645800
N41	N4	0.514300	0.691100	0.827000
N51	N5	0.987500	0.262500	0.114400
N61	N6	0.518500	0.605700	0.928800
N71	N7	0.243500	0.821300	0.011800
N81	N8	0.002100	0.375600	0.041100
N91	N9	0.857500	0.538500	0.599500
N101	N10	0.317100	0.049900	0.125200
N111	N11	0.881600	0.099000	0.975500
N121	N12	0.751600	0.857400	0.821600
N131	N13	0.276800	0.446100	0.354200
N141	N14	0.485700	0.308900	0.173000
N151	N15	0.012500	0.737500	0.885600
N161	N16	0.481500	0.394300	0.071200
N171	N17	0.756500	0.178700	0.988200
N181	N18	0.997900	0.624400	0.958900
N191	N19	0.142500	0.461500	0.400500
N201	N20	0.682900	0.950100	0.874800
O11	O1	0.496800	0.542100	0.271600
O21	O2	0.528400	0.570900	0.137900
O31	O3	0.861300	0.063600	0.192300
O41	O4	0.493500	0.844000	0.194700
O51	O5	0.588600	0.572400	0.368400
O61	O6	0.667500	0.026500	0.294000
O71	O7	0.828000	0.738000	0.410500
O81	O8	0.628300	0.912200	0.401800
O91	O9	0.696100	0.054100	0.163700
O101	O10	0.889600	0.511700	0.275100
O111	O11	0.715800	0.984300	0.056200
O121	O12	0.738300	0.605100	0.396100
O131	O13	0.482300	0.732000	0.127800
O141	O14	0.646900	0.461600	0.230400
O151	O15	0.015700	0.699200	0.295800
O161	O16	0.897400	0.617500	0.353800
O171	O17	0.502000	0.726200	0.378300
O181	O18	0.935600	0.646200	0.202000
O191	O19	0.580200	0.916600	0.098800
O201	O20	0.810300	0.665300	0.106000
O211	O21	0.805500	0.892300	0.406100
O221	O22	0.774900	0.528100	0.171200
O231	O23	0.528700	0.872400	0.315100
O241	O24	0.747700	0.824300	0.054800
O251	O25	0.874600	0.954400	0.117600
O261	O26	0.976600	0.953900	0.286100
O271	O27	0.661600	0.634500	0.079900
O281	O28	0.826800	0.036900	0.325500
O291	O29	0.452900	0.706800	0.257500
O301	O30	0.008800	0.655600	0.438500
O311	O31	0.618300	0.615700	0.223700
O321	O32	0.655000	0.747800	0.415700
O331	O33	0.576400	0.974000	0.211300
O341	O34	0.851900	0.777400	0.265900
O351	O35	0.623200	0.722600	0.287000
O361	O36	0.711700	0.856700	0.303900
O371	O37	0.654400	0.748200	0.160600
O381	O38	0.743200	0.882000	0.177100
O391	O39	0.899400	0.799300	0.121800
O401	O40	0.761900	0.642800	0.249200
O411	O41	0.736300	0.493600	0.330900
O421	O42	0.949800	0.814400	0.366300
O431	O43	0.826600	0.927100	0.257900
O441	O44	0.989900	0.846200	0.206500
O451	O45	0.590400	0.798300	0.034500
O461	O46	0.503200	0.457900	0.728400
O471	O47	0.471600	0.429100	0.862100
O481	O48	0.138700	0.936400	0.807700
O491	O49	0.506500	0.156000	0.805300
O501	O50	0.411400	0.427600	0.631600
O511	O51	0.332500	0.973500	0.706000
O521	O52	0.172000	0.262000	0.589500
O531	O53	0.371700	0.087800	0.598200
O541	O54	0.303900	0.945900	0.836300
O551	O55	0.110400	0.488300	0.724900
O561	O56	0.284200	0.015700	0.943800
O571	O57	0.261700	0.394900	0.603900
O581	O58	0.517700	0.268000	0.872200
O591	O59	0.353100	0.538400	0.769600
O601	O60	0.984300	0.300800	0.704200
O611	O61	0.102600	0.382500	0.646200
O621	O62	0.498000	0.273800	0.621700
O631	O63	0.064400	0.353800	0.798000
O641	O64	0.419800	0.083400	0.901200
O651	O65	0.189700	0.334700	0.894000
O661	O66	0.194500	0.107700	0.593900
O671	O67	0.225100	0.471900	0.828800
O681	O68	0.471300	0.127600	0.684900
O691	O69	0.252300	0.175700	0.945200
O701	O70	0.125400	0.045600	0.882400
O711	O71	0.023400	0.046100	0.713900
O721	O72	0.338400	0.365500	0.920100
O731	O73	0.173200	0.963100	0.674500
O741	O74	0.547100	0.293200	0.742500
O751	O75	0.991200	0.344400	0.561500
O761	O76	0.381700	0.384300	0.776300
O771	O77	0.345000	0.252200	0.584300
O781	O78	0.423600	0.026000	0.788700
O791	O79	0.148100	0.222600	0.734100
O801	O80	0.376800	0.277400	0.713000
O811	O81	0.288300	0.143300	0.696100
O821	O82	0.345600	0.251800	0.839400
O831	O83	0.256800	0.118000	0.822900
O841	O84	0.100600	0.200700	0.878200
O851	O85	0.238100	0.357200	0.750800
O861	O86	0.263700	0.506400	0.669100
O871	O87	0.050200	0.185600	0.633700
O881	O88	0.173400	0.072900	0.742100
O891	O89	0.010100	0.153800	0.793500
O901	O90	0.409600	0.201700	0.965500
