data_OWEYOF_clean_PM
_symmetry_space_group_name_H-M	'P1'
_cell_length_a	18.330800
_cell_length_b	22.567500
_cell_length_c	31.743500
_cell_angle_alpha	90.000000
_cell_angle_beta	90.000000
_cell_angle_gamma	90.000000
_symmetry_Int_Tables_number 1

loop_
_symmetry_equiv_pos_as_xyz
'x,y,z'

loop_
_atom_site_label
_atom_site_type_symbol
_atom_site_fract_x
_atom_site_fract_y
_atom_site_fract_z
N11	N1	0.372710	0.943060	0.326530
O11	O1	0.520450	0.090910	0.214250
O21	O2	0.314380	0.180170	0.262540
N21	N2	0.407400	0.123370	0.235910
C11	C1	0.317100	0.026680	0.294030
H11	H1	0.280700	0.055400	0.294700
C21	C2	0.321400	0.985390	0.325500
H21	H2	0.287300	0.986800	0.347100
C31	C3	0.499400	0.191860	0.238310
C41	C4	0.366400	0.025890	0.261300
C51	C5	0.481600	0.129700	0.227380
C61	C6	0.364900	0.070400	0.226060
H31	H3	0.314700	0.081700	0.220500
H41	H4	0.384200	0.052200	0.200700
C71	C7	0.436400	0.219690	0.252430
C81	C8	0.419900	0.942570	0.295030
H51	H5	0.455800	0.913500	0.294900
C91	C9	0.418800	0.982500	0.262450
H61	H6	0.453600	0.980200	0.241200
C101	C10	0.565700	0.221820	0.235320
H71	H7	0.608200	0.203700	0.225800
C111	C11	0.377400	0.174820	0.251440
S11	S1	0.116680	0.846900	0.366940
N31	N3	0.372710	0.443060	0.826530
O31	O3	0.520450	0.590910	0.714250
O41	O4	0.314380	0.680170	0.762540
N41	N4	0.407400	0.623370	0.735910
C121	C12	0.317100	0.526680	0.794030
H81	H8	0.280700	0.555400	0.794700
C131	C13	0.321400	0.485390	0.825500
H91	H9	0.287300	0.486800	0.847100
C141	C14	0.499400	0.691860	0.738310
C151	C15	0.366400	0.525890	0.761300
C161	C16	0.481600	0.629700	0.727380
C171	C17	0.364900	0.570400	0.726060
H101	H10	0.314700	0.581700	0.720500
H111	H11	0.384200	0.552200	0.700700
C181	C18	0.436400	0.719690	0.752430
C191	C19	0.419900	0.442570	0.795030
H121	H12	0.455800	0.413500	0.794900
C201	C20	0.418800	0.482500	0.762450
H131	H13	0.453600	0.480200	0.741200
C211	C21	0.565700	0.721820	0.735320
H141	H14	0.608200	0.703700	0.725800
C221	C22	0.377400	0.674820	0.751440
S21	S2	0.116680	0.346900	0.866940
N51	N5	0.872710	0.943060	0.826530
O51	O5	0.020450	0.090910	0.714250
O61	O6	0.814380	0.180170	0.762540
N61	N6	0.907400	0.123370	0.735910
C231	C23	0.817100	0.026680	0.794030
H151	H15	0.780700	0.055400	0.794700
C241	C24	0.821400	0.985390	0.825500
H161	H16	0.787300	0.986800	0.847100
C251	C25	0.999400	0.191860	0.738310
C261	C26	0.866400	0.025890	0.761300
C271	C27	0.981600	0.129700	0.727380
C281	C28	0.864900	0.070400	0.726060
H171	H17	0.814700	0.081700	0.720500
H181	H18	0.884200	0.052200	0.700700
C291	C29	0.936400	0.219690	0.752430
C301	C30	0.919900	0.942570	0.795030
H191	H19	0.955800	0.913500	0.794900
C311	C31	0.918800	0.982500	0.762450
H201	H20	0.953600	0.980200	0.741200
C321	C32	0.065700	0.221820	0.735320
H211	H21	0.108200	0.203700	0.725800
C331	C33	0.877400	0.174820	0.751440
S31	S3	0.616680	0.846900	0.866940
N71	N7	0.872710	0.443060	0.326530
O71	O7	0.020450	0.590910	0.214250
O81	O8	0.814380	0.680170	0.262540
N81	N8	0.907400	0.623370	0.235910
C341	C34	0.817100	0.526680	0.294030
H221	H22	0.780700	0.555400	0.294700
C351	C35	0.821400	0.485390	0.325500
H231	H23	0.787300	0.486800	0.347100
C361	C36	0.999400	0.691860	0.238310
C371	C37	0.866400	0.525890	0.261300
C381	C38	0.981600	0.629700	0.227380
C391	C39	0.864900	0.570400	0.226060
H241	H24	0.814700	0.581700	0.220500
H251	H25	0.884200	0.552200	0.200700
C401	C40	0.936400	0.719690	0.252430
C411	C41	0.919900	0.442570	0.295030
H261	H26	0.955800	0.413500	0.294900
C421	C42	0.918800	0.482500	0.262450
H271	H27	0.953600	0.480200	0.241200
C431	C43	0.065700	0.721820	0.235320
H281	H28	0.108200	0.703700	0.225800
C441	C44	0.877400	0.674820	0.251440
S41	S4	0.616680	0.346900	0.366940
N91	N9	0.377290	0.806940	0.326530
O91	O9	0.229550	0.659090	0.214250
O101	O10	0.435620	0.569830	0.262540
N101	N10	0.342600	0.626630	0.235910
C451	C45	0.432900	0.723320	0.294030
H291	H29	0.469300	0.694600	0.294700
C461	C46	0.428600	0.764610	0.325500
H301	H30	0.462700	0.763200	0.347100
C471	C47	0.250600	0.558140	0.238310
C481	C48	0.383600	0.724110	0.261300
C491	C49	0.268400	0.620300	0.227380
C501	C50	0.385100	0.679600	0.226060
H311	H31	0.435300	0.668300	0.220500
H321	H32	0.365800	0.697800	0.200700
C511	C51	0.313600	0.530310	0.252430
C521	C52	0.330100	0.807430	0.295030
H331	H33	0.294200	0.836500	0.294900
C531	C53	0.331200	0.767500	0.262450
H341	H34	0.296400	0.769800	0.241200
C541	C54	0.184300	0.528180	0.235320
H351	H35	0.141800	0.546300	0.225800
C551	C55	0.372600	0.575180	0.251440
S51	S5	0.633320	0.903100	0.366940
N111	N11	0.377290	0.306940	0.826530
O111	O11	0.229550	0.159090	0.714250
O121	O12	0.435620	0.069830	0.762540
N121	N12	0.342600	0.126630	0.735910
C561	C56	0.432900	0.223320	0.794030
H361	H36	0.469300	0.194600	0.794700
C571	C57	0.428600	0.264610	0.825500
H371	H37	0.462700	0.263200	0.847100
C581	C58	0.250600	0.058140	0.738310
C591	C59	0.383600	0.224110	0.761300
C601	C60	0.268400	0.120300	0.727380
C611	C61	0.385100	0.179600	0.726060
H381	H38	0.435300	0.168300	0.720500
H391	H39	0.365800	0.197800	0.700700
C621	C62	0.313600	0.030310	0.752430
C631	C63	0.330100	0.307430	0.795030
H401	H40	0.294200	0.336500	0.794900
C641	C64	0.331200	0.267500	0.762450
H411	H41	0.296400	0.269800	0.741200
C651	C65	0.184300	0.028180	0.735320
H421	H42	0.141800	0.046300	0.725800
C661	C66	0.372600	0.075180	0.751440
S61	S6	0.633320	0.403100	0.866940
N131	N13	0.877290	0.806940	0.826530
O131	O13	0.729550	0.659090	0.714250
O141	O14	0.935620	0.569830	0.762540
N141	N14	0.842600	0.626630	0.735910
C671	C67	0.932900	0.723320	0.794030
H431	H43	0.969300	0.694600	0.794700
C681	C68	0.928600	0.764610	0.825500
H441	H44	0.962700	0.763200	0.847100
C691	C69	0.750600	0.558140	0.738310
C701	C70	0.883600	0.724110	0.761300
C711	C71	0.768400	0.620300	0.727380
C721	C72	0.885100	0.679600	0.726060
H451	H45	0.935300	0.668300	0.720500
H461	H46	0.865800	0.697800	0.700700
C731	C73	0.813600	0.530310	0.752430
C741	C74	0.830100	0.807430	0.795030
H471	H47	0.794200	0.836500	0.794900
C751	C75	0.831200	0.767500	0.762450
H481	H48	0.796400	0.769800	0.741200
C761	C76	0.684300	0.528180	0.735320
H491	H49	0.641800	0.546300	0.725800
C771	C77	0.872600	0.575180	0.751440
S71	S7	0.133320	0.903100	0.866940
N151	N15	0.877290	0.306940	0.326530
O151	O15	0.729550	0.159090	0.214250
O161	O16	0.935620	0.069830	0.262540
N161	N16	0.842600	0.126630	0.235910
C781	C78	0.932900	0.223320	0.294030
H501	H50	0.969300	0.194600	0.294700
C791	C79	0.928600	0.264610	0.325500
H511	H51	0.962700	0.263200	0.347100
C801	C80	0.750600	0.058140	0.238310
C811	C81	0.883600	0.224110	0.261300
C821	C82	0.768400	0.120300	0.227380
C831	C83	0.885100	0.179600	0.226060
H521	H52	0.935300	0.168300	0.220500
H531	H53	0.865800	0.197800	0.200700
C841	C84	0.813600	0.030310	0.252430
C851	C85	0.830100	0.307430	0.295030
H541	H54	0.794200	0.336500	0.294900
C861	C86	0.831200	0.267500	0.262450
H551	H55	0.796400	0.269800	0.241200
C871	C87	0.684300	0.028180	0.235320
H561	H56	0.641800	0.046300	0.225800
C881	C88	0.872600	0.075180	0.251440
S81	S8	0.133320	0.403100	0.366940
N171	N17	0.377290	0.943060	0.423470
O171	O17	0.229550	0.090910	0.535750
O181	O18	0.435620	0.180170	0.487460
N181	N18	0.342600	0.123370	0.514090
C891	C89	0.432900	0.026680	0.455970
H571	H57	0.469300	0.055400	0.455300
C901	C90	0.428600	0.985390	0.424500
H581	H58	0.462700	0.986800	0.402900
C911	C91	0.250600	0.191860	0.511690
C921	C92	0.383600	0.025890	0.488700
C931	C93	0.268400	0.129700	0.522620
C941	C94	0.385100	0.070400	0.523940
H591	H59	0.435300	0.081700	0.529500
H601	H60	0.365800	0.052200	0.549300
C951	C95	0.313600	0.219690	0.497570
C961	C96	0.330100	0.942570	0.454970
H611	H61	0.294200	0.913500	0.455100
C971	C97	0.331200	0.982500	0.487550
H621	H62	0.296400	0.980200	0.508800
C981	C98	0.184300	0.221820	0.514680
H631	H63	0.141800	0.203700	0.524200
C991	C99	0.372600	0.174820	0.498560
S91	S9	0.633320	0.846900	0.383060
N191	N19	0.377290	0.443060	0.923470
O191	O19	0.229550	0.590910	0.035750
O201	O20	0.435620	0.680170	0.987460
N201	N20	0.342600	0.623370	0.014090
C1001	C100	0.432900	0.526680	0.955970
H641	H64	0.469300	0.555400	0.955300
C1011	C101	0.428600	0.485390	0.924500
H651	H65	0.462700	0.486800	0.902900
C1021	C102	0.250600	0.691860	0.011690
C1031	C103	0.383600	0.525890	0.988700
C1041	C104	0.268400	0.629700	0.022620
C1051	C105	0.385100	0.570400	0.023940
H661	H66	0.435300	0.581700	0.029500
H671	H67	0.365800	0.552200	0.049300
C1061	C106	0.313600	0.719690	0.997570
C1071	C107	0.330100	0.442570	0.954970
H681	H68	0.294200	0.413500	0.955100
C1081	C108	0.331200	0.482500	0.987550
H691	H69	0.296400	0.480200	0.008800
C1091	C109	0.184300	0.721820	0.014680
H701	H70	0.141800	0.703700	0.024200
C1101	C110	0.372600	0.674820	0.998560
S101	S10	0.633320	0.346900	0.883060
N211	N21	0.877290	0.943060	0.923470
O211	O21	0.729550	0.090910	0.035750
O221	O22	0.935620	0.180170	0.987460
N221	N22	0.842600	0.123370	0.014090
C1111	C111	0.932900	0.026680	0.955970
H711	H71	0.969300	0.055400	0.955300
C1121	C112	0.928600	0.985390	0.924500
H721	H72	0.962700	0.986800	0.902900
C1131	C113	0.750600	0.191860	0.011690
C1141	C114	0.883600	0.025890	0.988700
C1151	C115	0.768400	0.129700	0.022620
C1161	C116	0.885100	0.070400	0.023940
H731	H73	0.935300	0.081700	0.029500
H741	H74	0.865800	0.052200	0.049300
C1171	C117	0.813600	0.219690	0.997570
C1181	C118	0.830100	0.942570	0.954970
H751	H75	0.794200	0.913500	0.955100
C1191	C119	0.831200	0.982500	0.987550
H761	H76	0.796400	0.980200	0.008800
C1201	C120	0.684300	0.221820	0.014680
H771	H77	0.641800	0.203700	0.024200
C1211	C121	0.872600	0.174820	0.998560
S111	S11	0.133320	0.846900	0.883060
N231	N23	0.877290	0.443060	0.423470
O231	O23	0.729550	0.590910	0.535750
O241	O24	0.935620	0.680170	0.487460
N241	N24	0.842600	0.623370	0.514090
C1221	C122	0.932900	0.526680	0.455970
H781	H78	0.969300	0.555400	0.455300
C1231	C123	0.928600	0.485390	0.424500
H791	H79	0.962700	0.486800	0.402900
C1241	C124	0.750600	0.691860	0.511690
C1251	C125	0.883600	0.525890	0.488700
C1261	C126	0.768400	0.629700	0.522620
C1271	C127	0.885100	0.570400	0.523940
H801	H80	0.935300	0.581700	0.529500
H811	H81	0.865800	0.552200	0.549300
C1281	C128	0.813600	0.719690	0.497570
C1291	C129	0.830100	0.442570	0.454970
H821	H82	0.794200	0.413500	0.455100
C1301	C130	0.831200	0.482500	0.487550
H831	H83	0.796400	0.480200	0.508800
C1311	C131	0.684300	0.721820	0.514680
H841	H84	0.641800	0.703700	0.524200
C1321	C132	0.872600	0.674820	0.498560
S121	S12	0.133320	0.346900	0.383060
N251	N25	0.372710	0.806940	0.423470
O251	O25	0.520450	0.659090	0.535750
O261	O26	0.314380	0.569830	0.487460
N261	N26	0.407400	0.626630	0.514090
C1331	C133	0.317100	0.723320	0.455970
H851	H85	0.280700	0.694600	0.455300
C1341	C134	0.321400	0.764610	0.424500
H861	H86	0.287300	0.763200	0.402900
C1351	C135	0.499400	0.558140	0.511690
C1361	C136	0.366400	0.724110	0.488700
C1371	C137	0.481600	0.620300	0.522620
C1381	C138	0.364900	0.679600	0.523940
H871	H87	0.314700	0.668300	0.529500
H881	H88	0.384200	0.697800	0.549300
C1391	C139	0.436400	0.530310	0.497570
C1401	C140	0.419900	0.807430	0.454970
H891	H89	0.455800	0.836500	0.455100
C1411	C141	0.418800	0.767500	0.487550
H901	H90	0.453600	0.769800	0.508800
C1421	C142	0.565700	0.528180	0.514680
H911	H91	0.608200	0.546300	0.524200
C1431	C143	0.377400	0.575180	0.498560
S131	S13	0.116680	0.903100	0.383060
N271	N27	0.372710	0.306940	0.923470
O271	O27	0.520450	0.159090	0.035750
O281	O28	0.314380	0.069830	0.987460
N281	N28	0.407400	0.126630	0.014090
C1441	C144	0.317100	0.223320	0.955970
H921	H92	0.280700	0.194600	0.955300
C1451	C145	0.321400	0.264610	0.924500
H931	H93	0.287300	0.263200	0.902900
C1461	C146	0.499400	0.058140	0.011690
C1471	C147	0.366400	0.224110	0.988700
C1481	C148	0.481600	0.120300	0.022620
C1491	C149	0.364900	0.179600	0.023940
H941	H94	0.314700	0.168300	0.029500
H951	H95	0.384200	0.197800	0.049300
C1501	C150	0.436400	0.030310	0.997570
C1511	C151	0.419900	0.307430	0.954970
H961	H96	0.455800	0.336500	0.955100
C1521	C152	0.418800	0.267500	0.987550
H971	H97	0.453600	0.269800	0.008800
C1531	C153	0.565700	0.028180	0.014680
H981	H98	0.608200	0.046300	0.024200
C1541	C154	0.377400	0.075180	0.998560
S141	S14	0.116680	0.403100	0.883060
N291	N29	0.872710	0.806940	0.923470
O291	O29	0.020450	0.659090	0.035750
O301	O30	0.814380	0.569830	0.987460
N301	N30	0.907400	0.626630	0.014090
C1551	C155	0.817100	0.723320	0.955970
H991	H99	0.780700	0.694600	0.955300
C1561	C156	0.821400	0.764610	0.924500
H1001	H100	0.787300	0.763200	0.902900
C1571	C157	0.999400	0.558140	0.011690
C1581	C158	0.866400	0.724110	0.988700
C1591	C159	0.981600	0.620300	0.022620
C1601	C160	0.864900	0.679600	0.023940
H1011	H101	0.814700	0.668300	0.029500
H1021	H102	0.884200	0.697800	0.049300
C1611	C161	0.936400	0.530310	0.997570
C1621	C162	0.919900	0.807430	0.954970
H1031	H103	0.955800	0.836500	0.955100
C1631	C163	0.918800	0.767500	0.987550
H1041	H104	0.953600	0.769800	0.008800
C1641	C164	0.065700	0.528180	0.014680
H1051	H105	0.108200	0.546300	0.024200
C1651	C165	0.877400	0.575180	0.998560
S151	S15	0.616680	0.903100	0.883060
N311	N31	0.872710	0.306940	0.423470
O311	O31	0.020450	0.159090	0.535750
O321	O32	0.814380	0.069830	0.487460
N321	N32	0.907400	0.126630	0.514090
C1661	C166	0.817100	0.223320	0.455970
H1061	H106	0.780700	0.194600	0.455300
C1671	C167	0.821400	0.264610	0.424500
H1071	H107	0.787300	0.263200	0.402900
C1681	C168	0.999400	0.058140	0.511690
C1691	C169	0.866400	0.224110	0.488700
C1701	C170	0.981600	0.120300	0.522620
C1711	C171	0.864900	0.179600	0.523940
H1081	H108	0.814700	0.168300	0.529500
H1091	H109	0.884200	0.197800	0.549300
C1721	C172	0.936400	0.030310	0.497570
C1731	C173	0.919900	0.307430	0.454970
H1101	H110	0.955800	0.336500	0.455100
C1741	C174	0.918800	0.267500	0.487550
H1111	H111	0.953600	0.269800	0.508800
C1751	C175	0.065700	0.028180	0.514680
H1121	H112	0.108200	0.046300	0.524200
C1761	C176	0.877400	0.075180	0.498560
S161	S16	0.616680	0.403100	0.383060
N331	N33	0.627290	0.056940	0.673470
O331	O33	0.479550	0.909090	0.785750
O341	O34	0.685620	0.819830	0.737460
N341	N34	0.592600	0.876630	0.764090
C1771	C177	0.682900	0.973320	0.705970
H1131	H113	0.719300	0.944600	0.705300
C1781	C178	0.678600	0.014610	0.674500
H1141	H114	0.712700	0.013200	0.652900
C1791	C179	0.500600	0.808140	0.761690
C1801	C180	0.633600	0.974110	0.738700
C1811	C181	0.518400	0.870300	0.772620
C1821	C182	0.635100	0.929600	0.773940
H1151	H115	0.685300	0.918300	0.779500
H1161	H116	0.615800	0.947800	0.799300
C1831	C183	0.563600	0.780310	0.747570
C1841	C184	0.580100	0.057430	0.704970
H1171	H117	0.544200	0.086500	0.705100
C1851	C185	0.581200	0.017500	0.737550
H1181	H118	0.546400	0.019800	0.758800
C1861	C186	0.434300	0.778180	0.764680
H1191	H119	0.391800	0.796300	0.774200
C1871	C187	0.622600	0.825180	0.748560
S171	S17	0.883320	0.153100	0.633060
N351	N35	0.627290	0.556940	0.173470
O351	O35	0.479550	0.409090	0.285750
O361	O36	0.685620	0.319830	0.237460
N361	N36	0.592600	0.376630	0.264090
C1881	C188	0.682900	0.473320	0.205970
H1201	H120	0.719300	0.444600	0.205300
C1891	C189	0.678600	0.514610	0.174500
H1211	H121	0.712700	0.513200	0.152900
C1901	C190	0.500600	0.308140	0.261690
C1911	C191	0.633600	0.474110	0.238700
C1921	C192	0.518400	0.370300	0.272620
C1931	C193	0.635100	0.429600	0.273940
H1221	H122	0.685300	0.418300	0.279500
H1231	H123	0.615800	0.447800	0.299300
C1941	C194	0.563600	0.280310	0.247570
C1951	C195	0.580100	0.557430	0.204970
H1241	H124	0.544200	0.586500	0.205100
C1961	C196	0.581200	0.517500	0.237550
H1251	H125	0.546400	0.519800	0.258800
C1971	C197	0.434300	0.278180	0.264680
H1261	H126	0.391800	0.296300	0.274200
C1981	C198	0.622600	0.325180	0.248560
S181	S18	0.883320	0.653100	0.133060
N371	N37	0.127290	0.056940	0.173470
O371	O37	0.979550	0.909090	0.285750
O381	O38	0.185620	0.819830	0.237460
N381	N38	0.092600	0.876630	0.264090
C1991	C199	0.182900	0.973320	0.205970
H1271	H127	0.219300	0.944600	0.205300
C2001	C200	0.178600	0.014610	0.174500
H1281	H128	0.212700	0.013200	0.152900
C2011	C201	0.000600	0.808140	0.261690
C2021	C202	0.133600	0.974110	0.238700
C2031	C203	0.018400	0.870300	0.272620
C2041	C204	0.135100	0.929600	0.273940
H1291	H129	0.185300	0.918300	0.279500
H1301	H130	0.115800	0.947800	0.299300
C2051	C205	0.063600	0.780310	0.247570
C2061	C206	0.080100	0.057430	0.204970
H1311	H131	0.044200	0.086500	0.205100
C2071	C207	0.081200	0.017500	0.237550
H1321	H132	0.046400	0.019800	0.258800
C2081	C208	0.934300	0.778180	0.264680
H1331	H133	0.891800	0.796300	0.274200
C2091	C209	0.122600	0.825180	0.248560
S191	S19	0.383320	0.153100	0.133060
N391	N39	0.127290	0.556940	0.673470
O391	O39	0.979550	0.409090	0.785750
O401	O40	0.185620	0.319830	0.737460
N401	N40	0.092600	0.376630	0.764090
C2101	C210	0.182900	0.473320	0.705970
H1341	H134	0.219300	0.444600	0.705300
C2111	C211	0.178600	0.514610	0.674500
H1351	H135	0.212700	0.513200	0.652900
C2121	C212	0.000600	0.308140	0.761690
C2131	C213	0.133600	0.474110	0.738700
C2141	C214	0.018400	0.370300	0.772620
C2151	C215	0.135100	0.429600	0.773940
H1361	H136	0.185300	0.418300	0.779500
H1371	H137	0.115800	0.447800	0.799300
C2161	C216	0.063600	0.280310	0.747570
C2171	C217	0.080100	0.557430	0.704970
H1381	H138	0.044200	0.586500	0.705100
C2181	C218	0.081200	0.517500	0.737550
H1391	H139	0.046400	0.519800	0.758800
C2191	C219	0.934300	0.278180	0.764680
H1401	H140	0.891800	0.296300	0.774200
C2201	C220	0.122600	0.325180	0.748560
S201	S20	0.383320	0.653100	0.633060
N411	N41	0.622710	0.193060	0.673470
O411	O41	0.770450	0.340910	0.785750
O421	O42	0.564380	0.430170	0.737460
N421	N42	0.657400	0.373370	0.764090
C2211	C221	0.567100	0.276680	0.705970
H1411	H141	0.530700	0.305400	0.705300
C2221	C222	0.571400	0.235390	0.674500
H1421	H142	0.537300	0.236800	0.652900
C2231	C223	0.749400	0.441860	0.761690
C2241	C224	0.616400	0.275890	0.738700
C2251	C225	0.731600	0.379700	0.772620
C2261	C226	0.614900	0.320400	0.773940
H1431	H143	0.564700	0.331700	0.779500
H1441	H144	0.634200	0.302200	0.799300
C2271	C227	0.686400	0.469690	0.747570
C2281	C228	0.669900	0.192570	0.704970
H1451	H145	0.705800	0.163500	0.705100
C2291	C229	0.668800	0.232500	0.737550
H1461	H146	0.703600	0.230200	0.758800
C2301	C230	0.815700	0.471820	0.764680
H1471	H147	0.858200	0.453700	0.774200
C2311	C231	0.627400	0.424820	0.748560
S211	S21	0.366680	0.096900	0.633060
N431	N43	0.622710	0.693060	0.173470
O431	O43	0.770450	0.840910	0.285750
O441	O44	0.564380	0.930170	0.237460
N441	N44	0.657400	0.873370	0.264090
C2321	C232	0.567100	0.776680	0.205970
H1481	H148	0.530700	0.805400	0.205300
C2331	C233	0.571400	0.735390	0.174500
H1491	H149	0.537300	0.736800	0.152900
C2341	C234	0.749400	0.941860	0.261690
C2351	C235	0.616400	0.775890	0.238700
C2361	C236	0.731600	0.879700	0.272620
C2371	C237	0.614900	0.820400	0.273940
H1501	H150	0.564700	0.831700	0.279500
H1511	H151	0.634200	0.802200	0.299300
C2381	C238	0.686400	0.969690	0.247570
C2391	C239	0.669900	0.692570	0.204970
H1521	H152	0.705800	0.663500	0.205100
C2401	C240	0.668800	0.732500	0.237550
H1531	H153	0.703600	0.730200	0.258800
C2411	C241	0.815700	0.971820	0.264680
H1541	H154	0.858200	0.953700	0.274200
C2421	C242	0.627400	0.924820	0.248560
S221	S22	0.366680	0.596900	0.133060
N451	N45	0.122710	0.193060	0.173470
O451	O45	0.270450	0.340910	0.285750
O461	O46	0.064380	0.430170	0.237460
N461	N46	0.157400	0.373370	0.264090
C2431	C243	0.067100	0.276680	0.205970
H1551	H155	0.030700	0.305400	0.205300
C2441	C244	0.071400	0.235390	0.174500
H1561	H156	0.037300	0.236800	0.152900
C2451	C245	0.249400	0.441860	0.261690
C2461	C246	0.116400	0.275890	0.238700
C2471	C247	0.231600	0.379700	0.272620
C2481	C248	0.114900	0.320400	0.273940
H1571	H157	0.064700	0.331700	0.279500
H1581	H158	0.134200	0.302200	0.299300
C2491	C249	0.186400	0.469690	0.247570
C2501	C250	0.169900	0.192570	0.204970
H1591	H159	0.205800	0.163500	0.205100
C2511	C251	0.168800	0.232500	0.237550
H1601	H160	0.203600	0.230200	0.258800
C2521	C252	0.315700	0.471820	0.264680
H1611	H161	0.358200	0.453700	0.274200
C2531	C253	0.127400	0.424820	0.248560
S231	S23	0.866680	0.096900	0.133060
N471	N47	0.122710	0.693060	0.673470
O471	O47	0.270450	0.840910	0.785750
O481	O48	0.064380	0.930170	0.737460
N481	N48	0.157400	0.873370	0.764090
C2541	C254	0.067100	0.776680	0.705970
H1621	H162	0.030700	0.805400	0.705300
C2551	C255	0.071400	0.735390	0.674500
H1631	H163	0.037300	0.736800	0.652900
C2561	C256	0.249400	0.941860	0.761690
C2571	C257	0.116400	0.775890	0.738700
C2581	C258	0.231600	0.879700	0.772620
C2591	C259	0.114900	0.820400	0.773940
H1641	H164	0.064700	0.831700	0.779500
H1651	H165	0.134200	0.802200	0.799300
C2601	C260	0.186400	0.969690	0.747570
C2611	C261	0.169900	0.692570	0.704970
H1661	H166	0.205800	0.663500	0.705100
C2621	C262	0.168800	0.732500	0.737550
H1671	H167	0.203600	0.730200	0.758800
C2631	C263	0.315700	0.971820	0.764680
H1681	H168	0.358200	0.953700	0.774200
C2641	C264	0.127400	0.924820	0.748560
S241	S24	0.866680	0.596900	0.633060
N491	N49	0.622710	0.056940	0.576530
O491	O49	0.770450	0.909090	0.464250
O501	O50	0.564380	0.819830	0.512540
N501	N50	0.657400	0.876630	0.485910
C2651	C265	0.567100	0.973320	0.544030
H1691	H169	0.530700	0.944600	0.544700
C2661	C266	0.571400	0.014610	0.575500
H1701	H170	0.537300	0.013200	0.597100
C2671	C267	0.749400	0.808140	0.488310
C2681	C268	0.616400	0.974110	0.511300
C2691	C269	0.731600	0.870300	0.477380
C2701	C270	0.614900	0.929600	0.476060
H1711	H171	0.564700	0.918300	0.470500
H1721	H172	0.634200	0.947800	0.450700
C2711	C271	0.686400	0.780310	0.502430
C2721	C272	0.669900	0.057430	0.545030
H1731	H173	0.705800	0.086500	0.544900
C2731	C273	0.668800	0.017500	0.512450
H1741	H174	0.703600	0.019800	0.491200
C2741	C274	0.815700	0.778180	0.485320
H1751	H175	0.858200	0.796300	0.475800
C2751	C275	0.627400	0.825180	0.501440
S251	S25	0.366680	0.153100	0.616940
N511	N51	0.622710	0.556940	0.076530
O511	O51	0.770450	0.409090	0.964250
O521	O52	0.564380	0.319830	0.012540
N521	N52	0.657400	0.376630	0.985910
C2761	C276	0.567100	0.473320	0.044030
H1761	H176	0.530700	0.444600	0.044700
C2771	C277	0.571400	0.514610	0.075500
H1771	H177	0.537300	0.513200	0.097100
C2781	C278	0.749400	0.308140	0.988310
C2791	C279	0.616400	0.474110	0.011300
C2801	C280	0.731600	0.370300	0.977380
C2811	C281	0.614900	0.429600	0.976060
H1781	H178	0.564700	0.418300	0.970500
H1791	H179	0.634200	0.447800	0.950700
C2821	C282	0.686400	0.280310	0.002430
C2831	C283	0.669900	0.557430	0.045030
H1801	H180	0.705800	0.586500	0.044900
C2841	C284	0.668800	0.517500	0.012450
H1811	H181	0.703600	0.519800	0.991200
C2851	C285	0.815700	0.278180	0.985320
H1821	H182	0.858200	0.296300	0.975800
C2861	C286	0.627400	0.325180	0.001440
S261	S26	0.366680	0.653100	0.116940
N531	N53	0.122710	0.056940	0.076530
O531	O53	0.270450	0.909090	0.964250
O541	O54	0.064380	0.819830	0.012540
N541	N54	0.157400	0.876630	0.985910
C2871	C287	0.067100	0.973320	0.044030
H1831	H183	0.030700	0.944600	0.044700
C2881	C288	0.071400	0.014610	0.075500
H1841	H184	0.037300	0.013200	0.097100
C2891	C289	0.249400	0.808140	0.988310
C2901	C290	0.116400	0.974110	0.011300
C2911	C291	0.231600	0.870300	0.977380
C2921	C292	0.114900	0.929600	0.976060
H1851	H185	0.064700	0.918300	0.970500
H1861	H186	0.134200	0.947800	0.950700
C2931	C293	0.186400	0.780310	0.002430
C2941	C294	0.169900	0.057430	0.045030
H1871	H187	0.205800	0.086500	0.044900
C2951	C295	0.168800	0.017500	0.012450
H1881	H188	0.203600	0.019800	0.991200
C2961	C296	0.315700	0.778180	0.985320
H1891	H189	0.358200	0.796300	0.975800
C2971	C297	0.127400	0.825180	0.001440
S271	S27	0.866680	0.153100	0.116940
N551	N55	0.122710	0.556940	0.576530
O551	O55	0.270450	0.409090	0.464250
O561	O56	0.064380	0.319830	0.512540
N561	N56	0.157400	0.376630	0.485910
C2981	C298	0.067100	0.473320	0.544030
H1901	H190	0.030700	0.444600	0.544700
C2991	C299	0.071400	0.514610	0.575500
H1911	H191	0.037300	0.513200	0.597100
C3001	C300	0.249400	0.308140	0.488310
C3011	C301	0.116400	0.474110	0.511300
C3021	C302	0.231600	0.370300	0.477380
C3031	C303	0.114900	0.429600	0.476060
H1921	H192	0.064700	0.418300	0.470500
H1931	H193	0.134200	0.447800	0.450700
C3041	C304	0.186400	0.280310	0.502430
C3051	C305	0.169900	0.557430	0.545030
H1941	H194	0.205800	0.586500	0.544900
C3061	C306	0.168800	0.517500	0.512450
H1951	H195	0.203600	0.519800	0.491200
C3071	C307	0.315700	0.278180	0.485320
H1961	H196	0.358200	0.296300	0.475800
C3081	C308	0.127400	0.325180	0.501440
S281	S28	0.866680	0.653100	0.616940
N571	N57	0.627290	0.193060	0.576530
O571	O57	0.479550	0.340910	0.464250
O581	O58	0.685620	0.430170	0.512540
N581	N58	0.592600	0.373370	0.485910
C3091	C309	0.682900	0.276680	0.544030
H1971	H197	0.719300	0.305400	0.544700
C3101	C310	0.678600	0.235390	0.575500
H1981	H198	0.712700	0.236800	0.597100
C3111	C311	0.500600	0.441860	0.488310
C3121	C312	0.633600	0.275890	0.511300
C3131	C313	0.518400	0.379700	0.477380
C3141	C314	0.635100	0.320400	0.476060
H1991	H199	0.685300	0.331700	0.470500
H2001	H200	0.615800	0.302200	0.450700
C3151	C315	0.563600	0.469690	0.502430
C3161	C316	0.580100	0.192570	0.545030
H2011	H201	0.544200	0.163500	0.544900
C3171	C317	0.581200	0.232500	0.512450
H2021	H202	0.546400	0.230200	0.491200
C3181	C318	0.434300	0.471820	0.485320
H2031	H203	0.391800	0.453700	0.475800
C3191	C319	0.622600	0.424820	0.501440
S291	S29	0.883320	0.096900	0.616940
N591	N59	0.627290	0.693060	0.076530
O591	O59	0.479550	0.840910	0.964250
O601	O60	0.685620	0.930170	0.012540
N601	N60	0.592600	0.873370	0.985910
C3201	C320	0.682900	0.776680	0.044030
H2041	H204	0.719300	0.805400	0.044700
C3211	C321	0.678600	0.735390	0.075500
H2051	H205	0.712700	0.736800	0.097100
C3221	C322	0.500600	0.941860	0.988310
C3231	C323	0.633600	0.775890	0.011300
C3241	C324	0.518400	0.879700	0.977380
C3251	C325	0.635100	0.820400	0.976060
H2061	H206	0.685300	0.831700	0.970500
H2071	H207	0.615800	0.802200	0.950700
C3261	C326	0.563600	0.969690	0.002430
C3271	C327	0.580100	0.692570	0.045030
H2081	H208	0.544200	0.663500	0.044900
C3281	C328	0.581200	0.732500	0.012450
H2091	H209	0.546400	0.730200	0.991200
C3291	C329	0.434300	0.971820	0.985320
H2101	H210	0.391800	0.953700	0.975800
C3301	C330	0.622600	0.924820	0.001440
S301	S30	0.883320	0.596900	0.116940
N611	N61	0.127290	0.193060	0.076530
O611	O61	0.979550	0.340910	0.964250
O621	O62	0.185620	0.430170	0.012540
N621	N62	0.092600	0.373370	0.985910
C3311	C331	0.182900	0.276680	0.044030
H2111	H211	0.219300	0.305400	0.044700
C3321	C332	0.178600	0.235390	0.075500
H2121	H212	0.212700	0.236800	0.097100
C3331	C333	0.000600	0.441860	0.988310
C3341	C334	0.133600	0.275890	0.011300
C3351	C335	0.018400	0.379700	0.977380
C3361	C336	0.135100	0.320400	0.976060
H2131	H213	0.185300	0.331700	0.970500
H2141	H214	0.115800	0.302200	0.950700
C3371	C337	0.063600	0.469690	0.002430
C3381	C338	0.080100	0.192570	0.045030
H2151	H215	0.044200	0.163500	0.044900
C3391	C339	0.081200	0.232500	0.012450
H2161	H216	0.046400	0.230200	0.991200
C3401	C340	0.934300	0.471820	0.985320
H2171	H217	0.891800	0.453700	0.975800
C3411	C341	0.122600	0.424820	0.001440
S311	S31	0.383320	0.096900	0.116940
N631	N63	0.127290	0.693060	0.576530
O631	O63	0.979550	0.840910	0.464250
O641	O64	0.185620	0.930170	0.512540
N641	N64	0.092600	0.873370	0.485910
C3421	C342	0.182900	0.776680	0.544030
H2181	H218	0.219300	0.805400	0.544700
C3431	C343	0.178600	0.735390	0.575500
H2191	H219	0.212700	0.736800	0.597100
C3441	C344	0.000600	0.941860	0.488310
C3451	C345	0.133600	0.775890	0.511300
C3461	C346	0.018400	0.879700	0.477380
C3471	C347	0.135100	0.820400	0.476060
H2201	H220	0.185300	0.831700	0.470500
H2211	H221	0.115800	0.802200	0.450700
C3481	C348	0.063600	0.969690	0.502430
C3491	C349	0.080100	0.692570	0.545030
H2221	H222	0.044200	0.663500	0.544900
C3501	C350	0.081200	0.732500	0.512450
H2231	H223	0.046400	0.730200	0.491200
C3511	C351	0.934300	0.971820	0.485320
H2241	H224	0.891800	0.953700	0.475800
C3521	C352	0.122600	0.924820	0.501440
S321	S32	0.383320	0.596900	0.616940
Co11	Co1	0.375000	0.875000	0.375000
Co21	Co2	0.375000	0.375000	0.875000
Co31	Co3	0.875000	0.875000	0.875000
Co41	Co4	0.875000	0.375000	0.375000
Co51	Co5	0.625000	0.125000	0.625000
Co61	Co6	0.625000	0.625000	0.125000
Co71	Co7	0.125000	0.125000	0.125000
Co81	Co8	0.125000	0.625000	0.625000
N651	N65	0.261300	0.875000	0.375000
C3531	C353	0.200600	0.875000	0.375000
N661	N66	0.261300	0.375000	0.875000
C3541	C354	0.200600	0.375000	0.875000
N671	N67	0.761300	0.875000	0.875000
C3551	C355	0.700600	0.875000	0.875000
N681	N68	0.761300	0.375000	0.375000
C3561	C356	0.700600	0.375000	0.375000
N691	N69	0.488700	0.875000	0.375000
C3571	C357	0.549400	0.875000	0.375000
N701	N70	0.488700	0.375000	0.875000
C3581	C358	0.549400	0.375000	0.875000
N711	N71	0.988700	0.875000	0.875000
C3591	C359	0.049400	0.875000	0.875000
N721	N72	0.988700	0.375000	0.375000
C3601	C360	0.049400	0.375000	0.375000
N731	N73	0.738700	0.125000	0.625000
C3611	C361	0.799400	0.125000	0.625000
N741	N74	0.738700	0.625000	0.125000
C3621	C362	0.799400	0.625000	0.125000
N751	N75	0.238700	0.125000	0.125000
C3631	C363	0.299400	0.125000	0.125000
N761	N76	0.238700	0.625000	0.625000
C3641	C364	0.299400	0.625000	0.625000
N771	N77	0.511300	0.125000	0.625000
C3651	C365	0.450600	0.125000	0.625000
N781	N78	0.511300	0.625000	0.125000
C3661	C366	0.450600	0.625000	0.125000
N791	N79	0.011300	0.125000	0.125000
C3671	C367	0.950600	0.125000	0.125000
N801	N80	0.011300	0.625000	0.625000
C3681	C368	0.950600	0.625000	0.625000
