data_OWIHOT_clean_PM
_symmetry_space_group_name_H-M	'P1'
_cell_length_a	15.501900
_cell_length_b	15.501900
_cell_length_c	12.306000
_cell_angle_alpha	90.000000
_cell_angle_beta	90.000000
_cell_angle_gamma	90.000000
_symmetry_Int_Tables_number 1

loop_
_symmetry_equiv_pos_as_xyz
'x,y,z'

loop_
_atom_site_label
_atom_site_type_symbol
_atom_site_fract_x
_atom_site_fract_y
_atom_site_fract_z
O11	O1	0.613500	0.381700	0.618200
O21	O2	0.588100	0.291200	0.754500
C11	C1	0.582900	0.364300	0.710400
C21	C2	0.539100	0.432480	0.769300
C31	C3	0.539100	0.432480	0.882800
H11	H1	0.568400	0.381700	0.925400
O31	O3	0.113500	0.881700	0.118200
O41	O4	0.088100	0.791200	0.254500
C41	C4	0.082900	0.864300	0.210400
C51	C5	0.039100	0.932480	0.269300
C61	C6	0.039100	0.932480	0.382800
H21	H2	0.068400	0.881700	0.425400
O51	O5	0.886500	0.118300	0.118200
O61	O6	0.911900	0.208800	0.254500
C71	C7	0.917100	0.135700	0.210400
C81	C8	0.960900	0.067520	0.269300
C91	C9	0.960900	0.067520	0.382800
H31	H3	0.931600	0.118300	0.425400
O71	O7	0.386500	0.618300	0.618200
O81	O8	0.411900	0.708800	0.754500
C101	C10	0.417100	0.635700	0.710400
C111	C11	0.460900	0.567520	0.769300
C121	C12	0.460900	0.567520	0.882800
H41	H4	0.431600	0.618300	0.925400
O91	O9	0.618300	0.113500	0.868200
O101	O10	0.708800	0.088100	0.004500
C131	C13	0.635700	0.082900	0.960400
C141	C14	0.567520	0.039100	0.019300
C151	C15	0.567520	0.039100	0.132800
H51	H5	0.618300	0.068400	0.175400
O111	O11	0.118300	0.613500	0.368200
O121	O12	0.208800	0.588100	0.504500
C161	C16	0.135700	0.582900	0.460400
C171	C17	0.067520	0.539100	0.519300
C181	C18	0.067520	0.539100	0.632800
H61	H6	0.118300	0.568400	0.675400
O131	O13	0.881700	0.386500	0.368200
O141	O14	0.791200	0.411900	0.504500
C191	C19	0.864300	0.417100	0.460400
C201	C20	0.932480	0.460900	0.519300
C211	C21	0.932480	0.460900	0.632800
H71	H7	0.881700	0.431600	0.675400
O151	O15	0.381700	0.886500	0.868200
O161	O16	0.291200	0.911900	0.004500
C221	C22	0.364300	0.917100	0.960400
C231	C23	0.432480	0.960900	0.019300
C241	C24	0.432480	0.960900	0.132800
H81	H8	0.381700	0.931600	0.175400
O171	O17	0.886500	0.381700	0.131800
O181	O18	0.911900	0.291200	0.995500
C251	C25	0.917100	0.364300	0.039600
C261	C26	0.960900	0.432480	0.980700
C271	C27	0.960900	0.432480	0.867200
H91	H9	0.931600	0.381700	0.824600
O191	O19	0.386500	0.881700	0.631800
O201	O20	0.411900	0.791200	0.495500
C281	C28	0.417100	0.864300	0.539600
C291	C29	0.460900	0.932480	0.480700
C301	C30	0.460900	0.932480	0.367200
H101	H10	0.431600	0.881700	0.324600
O211	O21	0.613500	0.118300	0.631800
O221	O22	0.588100	0.208800	0.495500
C311	C31	0.582900	0.135700	0.539600
C321	C32	0.539100	0.067520	0.480700
C331	C33	0.539100	0.067520	0.367200
H111	H11	0.568400	0.118300	0.324600
O231	O23	0.113500	0.618300	0.131800
O241	O24	0.088100	0.708800	0.995500
C341	C34	0.082900	0.635700	0.039600
C351	C35	0.039100	0.567520	0.980700
C361	C36	0.039100	0.567520	0.867200
H121	H12	0.068400	0.618300	0.824600
O251	O25	0.881700	0.113500	0.881800
O261	O26	0.791200	0.088100	0.745500
C371	C37	0.864300	0.082900	0.789600
C381	C38	0.932480	0.039100	0.730700
C391	C39	0.932480	0.039100	0.617200
H131	H13	0.881700	0.068400	0.574600
O271	O27	0.381700	0.613500	0.381800
O281	O28	0.291200	0.588100	0.245500
C401	C40	0.364300	0.582900	0.289600
C411	C41	0.432480	0.539100	0.230700
C421	C42	0.432480	0.539100	0.117200
H141	H14	0.381700	0.568400	0.074600
O291	O29	0.618300	0.386500	0.381800
O301	O30	0.708800	0.411900	0.245500
C431	C43	0.635700	0.417100	0.289600
C441	C44	0.567520	0.460900	0.230700
C451	C45	0.567520	0.460900	0.117200
H151	H15	0.618300	0.431600	0.074600
O311	O31	0.118300	0.886500	0.881800
O321	O32	0.208800	0.911900	0.745500
C461	C46	0.135700	0.917100	0.789600
C471	C47	0.067520	0.960900	0.730700
C481	C48	0.067520	0.960900	0.617200
H161	H16	0.118300	0.931600	0.574600
In11	In1	0.671900	0.328100	0.500000
In21	In2	0.171900	0.828100	0.000000
In31	In3	0.828100	0.171900	0.000000
In41	In4	0.328100	0.671900	0.500000
In51	In5	0.671900	0.171900	0.750000
In61	In6	0.171900	0.671900	0.250000
In71	In7	0.828100	0.328100	0.250000
In81	In8	0.328100	0.828100	0.750000
O331	O33	0.757500	0.250000	0.625000
H171	H17	0.815500	0.250000	0.625000
O341	O34	0.257500	0.750000	0.125000
H181	H18	0.315500	0.750000	0.125000
O351	O35	0.742500	0.250000	0.125000
H191	H19	0.684500	0.250000	0.125000
O361	O36	0.242500	0.750000	0.625000
H201	H20	0.184500	0.750000	0.625000
O371	O37	0.750000	0.257500	0.875000
H211	H21	0.750000	0.315500	0.875000
O381	O38	0.250000	0.757500	0.375000
H221	H22	0.250000	0.815500	0.375000
O391	O39	0.750000	0.242500	0.375000
H231	H23	0.750000	0.184500	0.375000
O401	O40	0.250000	0.742500	0.875000
H241	H24	0.250000	0.684500	0.875000
C491	C49	0.500000	0.500000	0.712600
C501	C50	0.500000	0.500000	0.939500
H251	H25	0.500000	0.500000	0.627300
C511	C51	0.000000	0.000000	0.212600
C521	C52	0.000000	0.000000	0.439500
H261	H26	0.000000	0.000000	0.127300
C531	C53	0.500000	0.000000	0.962600
C541	C54	0.500000	0.000000	0.189500
H271	H27	0.500000	0.000000	0.877300
C551	C55	0.000000	0.500000	0.462600
C561	C56	0.000000	0.500000	0.689500
H281	H28	0.000000	0.500000	0.377300
C571	C57	0.000000	0.500000	0.037400
C581	C58	0.000000	0.500000	0.810500
H291	H29	0.000000	0.500000	0.122700
C591	C59	0.500000	0.000000	0.537400
C601	C60	0.500000	0.000000	0.310500
H301	H30	0.500000	0.000000	0.622700
C611	C61	0.000000	0.000000	0.787400
C621	C62	0.000000	0.000000	0.560500
H311	H31	0.000000	0.000000	0.872700
C631	C63	0.500000	0.500000	0.287400
C641	C64	0.500000	0.500000	0.060500
H321	H32	0.500000	0.500000	0.372700
