data_OWIYUP_clean_PM
_symmetry_space_group_name_H-M	'P1'
_cell_length_a	13.832500
_cell_length_b	40.435000
_cell_length_c	60.962000
_cell_angle_alpha	90.000000
_cell_angle_beta	90.000000
_cell_angle_gamma	90.000000
_symmetry_Int_Tables_number 1

loop_
_symmetry_equiv_pos_as_xyz
'x,y,z'

loop_
_atom_site_label
_atom_site_type_symbol
_atom_site_fract_x
_atom_site_fract_y
_atom_site_fract_z
O11	O1	0.044000	0.536200	0.527600
O21	O2	0.066500	0.546000	0.484300
C11	C1	0.788600	0.701420	0.376320
C21	C2	0.776200	0.719900	0.395330
H11	H1	0.810700	0.714600	0.407900
C31	C3	0.712000	0.746400	0.395510
H21	H2	0.703700	0.758800	0.408200
C41	C4	0.660400	0.754300	0.376700
C51	C5	0.672800	0.735800	0.357670
H31	H3	0.638300	0.741200	0.345100
C61	C6	0.737000	0.709400	0.357490
H41	H4	0.745300	0.697000	0.344800
Cu11	Cu1	0.087890	0.509300	0.504010
C71	C7	0.781700	0.569900	0.576020
C81	C8	0.694700	0.557940	0.584180
H51	H5	0.668800	0.538400	0.578700
C91	C9	0.646400	0.575100	0.600610
H61	H6	0.588200	0.567100	0.606100
C101	C10	0.685200	0.604300	0.608880
C111	C11	0.772200	0.616270	0.600710
H71	H7	0.798200	0.635800	0.606200
C121	C12	0.820500	0.599100	0.584280
H81	H8	0.878800	0.607100	0.578800
C131	C13	0.883700	0.652610	0.394610
C141	C14	0.971100	0.636500	0.398160
H91	H9	0.024000	0.641000	0.389300
C151	C15	0.979300	0.613500	0.415020
H101	H10	0.037700	0.602700	0.417400
C161	C16	0.900200	0.606700	0.428340
C171	C17	0.812800	0.622800	0.424790
H111	H11	0.759900	0.618300	0.433700
C181	C18	0.804600	0.645800	0.407930
H121	H12	0.746200	0.656600	0.405600
C191	C19	0.912300	0.553900	0.551600
H131	H13	0.954200	0.566900	0.559800
C201	C20	0.910400	0.582200	0.446400
H141	H14	0.853500	0.571900	0.450800
C211	C21	0.822800	0.552900	0.557100
H151	H15	0.781100	0.540400	0.548400
C221	C22	0.602000	0.784100	0.377400
C231	C23	0.989700	0.573000	0.457100
H161	H16	0.047000	0.583600	0.453400
C241	C24	0.954900	0.533700	0.531200
C251	C25	0.995000	0.546900	0.474800
O31	O3	0.883200	0.519100	0.520940
O41	O4	0.912500	0.530000	0.476120
C261	C26	0.494000	0.829400	0.372000
O51	O5	0.491600	0.843300	0.391300
O61	O6	0.456000	0.837900	0.357200
C271	C27	0.286000	0.876100	0.480700
O71	O7	0.326900	0.875500	0.430500
C281	C28	0.551000	0.799300	0.366500
C291	C29	0.682000	0.442700	0.389600
O81	O8	0.044000	0.036200	0.027600
O91	O9	0.066500	0.046000	0.984300
C301	C30	0.788600	0.201420	0.876320
C311	C31	0.776200	0.219900	0.895330
H171	H17	0.810700	0.214600	0.907900
C321	C32	0.712000	0.246400	0.895510
H181	H18	0.703700	0.258800	0.908200
C331	C33	0.660400	0.254300	0.876700
C341	C34	0.672800	0.235800	0.857670
H191	H19	0.638300	0.241200	0.845100
C351	C35	0.737000	0.209400	0.857490
H201	H20	0.745300	0.197000	0.844800
Cu21	Cu2	0.087890	0.009300	0.004010
C361	C36	0.781700	0.069900	0.076020
C371	C37	0.694700	0.057940	0.084180
H211	H21	0.668800	0.038400	0.078700
C381	C38	0.646400	0.075100	0.100610
H221	H22	0.588200	0.067100	0.106100
C391	C39	0.685200	0.104300	0.108880
C401	C40	0.772200	0.116270	0.100710
H231	H23	0.798200	0.135800	0.106200
C411	C41	0.820500	0.099100	0.084280
H241	H24	0.878800	0.107100	0.078800
C421	C42	0.883700	0.152610	0.894610
C431	C43	0.971100	0.136500	0.898160
H251	H25	0.024000	0.141000	0.889300
C441	C44	0.979300	0.113500	0.915020
H261	H26	0.037700	0.102700	0.917400
C451	C45	0.900200	0.106700	0.928340
C461	C46	0.812800	0.122800	0.924790
H271	H27	0.759900	0.118300	0.933700
C471	C47	0.804600	0.145800	0.907930
H281	H28	0.746200	0.156600	0.905600
C481	C48	0.912300	0.053900	0.051600
H291	H29	0.954200	0.066900	0.059800
C491	C49	0.910400	0.082200	0.946400
H301	H30	0.853500	0.071900	0.950800
C501	C50	0.822800	0.052900	0.057100
H311	H31	0.781100	0.040400	0.048400
C511	C51	0.602000	0.284100	0.877400
C521	C52	0.989700	0.073000	0.957100
H321	H32	0.047000	0.083600	0.953400
C531	C53	0.954900	0.033700	0.031200
C541	C54	0.995000	0.046900	0.974800
O101	O10	0.883200	0.019100	0.020940
O111	O11	0.912500	0.030000	0.976120
C551	C55	0.494000	0.329400	0.872000
O121	O12	0.491600	0.343300	0.891300
O131	O13	0.456000	0.337900	0.857200
C561	C56	0.286000	0.376100	0.980700
O141	O14	0.326900	0.375500	0.930500
C571	C57	0.551000	0.299300	0.866500
C581	C58	0.682000	0.942700	0.889600
O151	O15	0.544000	0.536200	0.027600
O161	O16	0.566500	0.546000	0.984300
C591	C59	0.288600	0.701420	0.876320
C601	C60	0.276200	0.719900	0.895330
H331	H33	0.310700	0.714600	0.907900
C611	C61	0.212000	0.746400	0.895510
H341	H34	0.203700	0.758800	0.908200
C621	C62	0.160400	0.754300	0.876700
C631	C63	0.172800	0.735800	0.857670
H351	H35	0.138300	0.741200	0.845100
C641	C64	0.237000	0.709400	0.857490
H361	H36	0.245300	0.697000	0.844800
Cu31	Cu3	0.587890	0.509300	0.004010
C651	C65	0.281700	0.569900	0.076020
C661	C66	0.194700	0.557940	0.084180
H371	H37	0.168800	0.538400	0.078700
C671	C67	0.146400	0.575100	0.100610
H381	H38	0.088200	0.567100	0.106100
C681	C68	0.185200	0.604300	0.108880
C691	C69	0.272200	0.616270	0.100710
H391	H39	0.298200	0.635800	0.106200
C701	C70	0.320500	0.599100	0.084280
H401	H40	0.378800	0.607100	0.078800
C711	C71	0.383700	0.652610	0.894610
C721	C72	0.471100	0.636500	0.898160
H411	H41	0.524000	0.641000	0.889300
C731	C73	0.479300	0.613500	0.915020
H421	H42	0.537700	0.602700	0.917400
C741	C74	0.400200	0.606700	0.928340
C751	C75	0.312800	0.622800	0.924790
H431	H43	0.259900	0.618300	0.933700
C761	C76	0.304600	0.645800	0.907930
H441	H44	0.246200	0.656600	0.905600
C771	C77	0.412300	0.553900	0.051600
H451	H45	0.454200	0.566900	0.059800
C781	C78	0.410400	0.582200	0.946400
H461	H46	0.353500	0.571900	0.950800
C791	C79	0.322800	0.552900	0.057100
H471	H47	0.281100	0.540400	0.048400
C801	C80	0.102000	0.784100	0.877400
C811	C81	0.489700	0.573000	0.957100
H481	H48	0.547000	0.583600	0.953400
C821	C82	0.454900	0.533700	0.031200
C831	C83	0.495000	0.546900	0.974800
O171	O17	0.383200	0.519100	0.020940
O181	O18	0.412500	0.530000	0.976120
C841	C84	0.994000	0.829400	0.872000
O191	O19	0.991600	0.843300	0.891300
O201	O20	0.956000	0.837900	0.857200
C851	C85	0.786000	0.876100	0.980700
O211	O21	0.826900	0.875500	0.930500
C861	C86	0.051000	0.799300	0.866500
C871	C87	0.182000	0.442700	0.889600
O221	O22	0.544000	0.036200	0.527600
O231	O23	0.566500	0.046000	0.484300
C881	C88	0.288600	0.201420	0.376320
C891	C89	0.276200	0.219900	0.395330
H491	H49	0.310700	0.214600	0.407900
C901	C90	0.212000	0.246400	0.395510
H501	H50	0.203700	0.258800	0.408200
C911	C91	0.160400	0.254300	0.376700
C921	C92	0.172800	0.235800	0.357670
H511	H51	0.138300	0.241200	0.345100
C931	C93	0.237000	0.209400	0.357490
H521	H52	0.245300	0.197000	0.344800
Cu41	Cu4	0.587890	0.009300	0.504010
C941	C94	0.281700	0.069900	0.576020
C951	C95	0.194700	0.057940	0.584180
H531	H53	0.168800	0.038400	0.578700
C961	C96	0.146400	0.075100	0.600610
H541	H54	0.088200	0.067100	0.606100
C971	C97	0.185200	0.104300	0.608880
C981	C98	0.272200	0.116270	0.600710
H551	H55	0.298200	0.135800	0.606200
C991	C99	0.320500	0.099100	0.584280
H561	H56	0.378800	0.107100	0.578800
C1001	C100	0.383700	0.152610	0.394610
C1011	C101	0.471100	0.136500	0.398160
H571	H57	0.524000	0.141000	0.389300
C1021	C102	0.479300	0.113500	0.415020
H581	H58	0.537700	0.102700	0.417400
C1031	C103	0.400200	0.106700	0.428340
C1041	C104	0.312800	0.122800	0.424790
H591	H59	0.259900	0.118300	0.433700
C1051	C105	0.304600	0.145800	0.407930
H601	H60	0.246200	0.156600	0.405600
C1061	C106	0.412300	0.053900	0.551600
H611	H61	0.454200	0.066900	0.559800
C1071	C107	0.410400	0.082200	0.446400
H621	H62	0.353500	0.071900	0.450800
C1081	C108	0.322800	0.052900	0.557100
H631	H63	0.281100	0.040400	0.548400
C1091	C109	0.102000	0.284100	0.377400
C1101	C110	0.489700	0.073000	0.457100
H641	H64	0.547000	0.083600	0.453400
C1111	C111	0.454900	0.033700	0.531200
C1121	C112	0.495000	0.046900	0.474800
O241	O24	0.383200	0.019100	0.520940
O251	O25	0.412500	0.030000	0.476120
C1131	C113	0.994000	0.329400	0.372000
O261	O26	0.991600	0.343300	0.391300
O271	O27	0.956000	0.337900	0.357200
C1141	C114	0.786000	0.376100	0.480700
O281	O28	0.826900	0.375500	0.430500
C1151	C115	0.051000	0.299300	0.366500
C1161	C116	0.182000	0.942700	0.389600
O291	O29	0.706000	0.213800	0.527600
O301	O30	0.683500	0.204000	0.484300
C1171	C117	0.961400	0.048580	0.376320
C1181	C118	0.973800	0.030100	0.395330
H651	H65	0.939300	0.035400	0.407900
C1191	C119	0.038000	0.003600	0.395510
H661	H66	0.046300	0.991200	0.408200
C1201	C120	0.089600	0.995700	0.376700
C1211	C121	0.077200	0.014200	0.357670
H671	H67	0.111700	0.008800	0.345100
C1221	C122	0.013000	0.040600	0.357490
H681	H68	0.004700	0.053000	0.344800
Cu51	Cu5	0.662110	0.240700	0.504010
C1231	C123	0.968300	0.180100	0.576020
C1241	C124	0.055300	0.192060	0.584180
H691	H69	0.081200	0.211600	0.578700
C1251	C125	0.103600	0.174900	0.600610
H701	H70	0.161800	0.182900	0.606100
C1261	C126	0.064800	0.145700	0.608880
C1271	C127	0.977800	0.133730	0.600710
H711	H71	0.951800	0.114200	0.606200
C1281	C128	0.929500	0.150900	0.584280
H721	H72	0.871200	0.142900	0.578800
C1291	C129	0.866300	0.097390	0.394610
C1301	C130	0.778900	0.113500	0.398160
H731	H73	0.726000	0.109000	0.389300
C1311	C131	0.770700	0.136500	0.415020
H741	H74	0.712300	0.147300	0.417400
C1321	C132	0.849800	0.143300	0.428340
C1331	C133	0.937200	0.127200	0.424790
H751	H75	0.990100	0.131700	0.433700
C1341	C134	0.945400	0.104200	0.407930
H761	H76	0.003800	0.093400	0.405600
C1351	C135	0.837700	0.196100	0.551600
H771	H77	0.795800	0.183100	0.559800
C1361	C136	0.839600	0.167800	0.446400
H781	H78	0.896500	0.178100	0.450800
C1371	C137	0.927200	0.197100	0.557100
H791	H79	0.968900	0.209600	0.548400
C1381	C138	0.148000	0.965900	0.377400
C1391	C139	0.760300	0.177000	0.457100
H801	H80	0.703000	0.166400	0.453400
C1401	C140	0.795100	0.216300	0.531200
C1411	C141	0.755000	0.203100	0.474800
O311	O31	0.866800	0.230900	0.520940
O321	O32	0.837500	0.220000	0.476120
C1421	C142	0.256000	0.920600	0.372000
O331	O33	0.258400	0.906700	0.391300
O341	O34	0.294000	0.912100	0.357200
C1431	C143	0.464000	0.873900	0.480700
O351	O35	0.423100	0.874500	0.430500
C1441	C144	0.199000	0.950700	0.366500
C1451	C145	0.068000	0.307300	0.389600
O361	O36	0.706000	0.713800	0.027600
O371	O37	0.683500	0.704000	0.984300
C1461	C146	0.961400	0.548580	0.876320
C1471	C147	0.973800	0.530100	0.895330
H811	H81	0.939300	0.535400	0.907900
C1481	C148	0.038000	0.503600	0.895510
H821	H82	0.046300	0.491200	0.908200
C1491	C149	0.089600	0.495700	0.876700
C1501	C150	0.077200	0.514200	0.857670
H831	H83	0.111700	0.508800	0.845100
C1511	C151	0.013000	0.540600	0.857490
H841	H84	0.004700	0.553000	0.844800
Cu61	Cu6	0.662110	0.740700	0.004010
C1521	C152	0.968300	0.680100	0.076020
C1531	C153	0.055300	0.692060	0.084180
H851	H85	0.081200	0.711600	0.078700
C1541	C154	0.103600	0.674900	0.100610
H861	H86	0.161800	0.682900	0.106100
C1551	C155	0.064800	0.645700	0.108880
C1561	C156	0.977800	0.633730	0.100710
H871	H87	0.951800	0.614200	0.106200
C1571	C157	0.929500	0.650900	0.084280
H881	H88	0.871200	0.642900	0.078800
C1581	C158	0.866300	0.597390	0.894610
C1591	C159	0.778900	0.613500	0.898160
H891	H89	0.726000	0.609000	0.889300
C1601	C160	0.770700	0.636500	0.915020
H901	H90	0.712300	0.647300	0.917400
C1611	C161	0.849800	0.643300	0.928340
C1621	C162	0.937200	0.627200	0.924790
H911	H91	0.990100	0.631700	0.933700
C1631	C163	0.945400	0.604200	0.907930
H921	H92	0.003800	0.593400	0.905600
C1641	C164	0.837700	0.696100	0.051600
H931	H93	0.795800	0.683100	0.059800
C1651	C165	0.839600	0.667800	0.946400
H941	H94	0.896500	0.678100	0.950800
C1661	C166	0.927200	0.697100	0.057100
H951	H95	0.968900	0.709600	0.048400
C1671	C167	0.148000	0.465900	0.877400
C1681	C168	0.760300	0.677000	0.957100
H961	H96	0.703000	0.666400	0.953400
C1691	C169	0.795100	0.716300	0.031200
C1701	C170	0.755000	0.703100	0.974800
O381	O38	0.866800	0.730900	0.020940
O391	O39	0.837500	0.720000	0.976120
C1711	C171	0.256000	0.420600	0.872000
O401	O40	0.258400	0.406700	0.891300
O411	O41	0.294000	0.412100	0.857200
C1721	C172	0.464000	0.373900	0.980700
O421	O42	0.423100	0.374500	0.930500
C1731	C173	0.199000	0.450700	0.866500
C1741	C174	0.068000	0.807300	0.889600
O431	O43	0.206000	0.213800	0.027600
O441	O44	0.183500	0.204000	0.984300
C1751	C175	0.461400	0.048580	0.876320
C1761	C176	0.473800	0.030100	0.895330
H971	H97	0.439300	0.035400	0.907900
C1771	C177	0.538000	0.003600	0.895510
H981	H98	0.546300	0.991200	0.908200
C1781	C178	0.589600	0.995700	0.876700
C1791	C179	0.577200	0.014200	0.857670
H991	H99	0.611700	0.008800	0.845100
C1801	C180	0.513000	0.040600	0.857490
H1001	H100	0.504700	0.053000	0.844800
Cu71	Cu7	0.162110	0.240700	0.004010
C1811	C181	0.468300	0.180100	0.076020
C1821	C182	0.555300	0.192060	0.084180
H1011	H101	0.581200	0.211600	0.078700
C1831	C183	0.603600	0.174900	0.100610
H1021	H102	0.661800	0.182900	0.106100
C1841	C184	0.564800	0.145700	0.108880
C1851	C185	0.477800	0.133730	0.100710
H1031	H103	0.451800	0.114200	0.106200
C1861	C186	0.429500	0.150900	0.084280
H1041	H104	0.371200	0.142900	0.078800
C1871	C187	0.366300	0.097390	0.894610
C1881	C188	0.278900	0.113500	0.898160
H1051	H105	0.226000	0.109000	0.889300
C1891	C189	0.270700	0.136500	0.915020
H1061	H106	0.212300	0.147300	0.917400
C1901	C190	0.349800	0.143300	0.928340
C1911	C191	0.437200	0.127200	0.924790
H1071	H107	0.490100	0.131700	0.933700
C1921	C192	0.445400	0.104200	0.907930
H1081	H108	0.503800	0.093400	0.905600
C1931	C193	0.337700	0.196100	0.051600
H1091	H109	0.295800	0.183100	0.059800
C1941	C194	0.339600	0.167800	0.946400
H1101	H110	0.396500	0.178100	0.950800
C1951	C195	0.427200	0.197100	0.057100
H1111	H111	0.468900	0.209600	0.048400
C1961	C196	0.648000	0.965900	0.877400
C1971	C197	0.260300	0.177000	0.957100
H1121	H112	0.203000	0.166400	0.953400
C1981	C198	0.295100	0.216300	0.031200
C1991	C199	0.255000	0.203100	0.974800
O451	O45	0.366800	0.230900	0.020940
O461	O46	0.337500	0.220000	0.976120
C2001	C200	0.756000	0.920600	0.872000
O471	O47	0.758400	0.906700	0.891300
O481	O48	0.794000	0.912100	0.857200
C2011	C201	0.964000	0.873900	0.980700
O491	O49	0.923100	0.874500	0.930500
C2021	C202	0.699000	0.950700	0.866500
C2031	C203	0.568000	0.307300	0.889600
O501	O50	0.206000	0.713800	0.527600
O511	O51	0.183500	0.704000	0.484300
C2041	C204	0.461400	0.548580	0.376320
C2051	C205	0.473800	0.530100	0.395330
H1131	H113	0.439300	0.535400	0.407900
C2061	C206	0.538000	0.503600	0.395510
H1141	H114	0.546300	0.491200	0.408200
C2071	C207	0.589600	0.495700	0.376700
C2081	C208	0.577200	0.514200	0.357670
H1151	H115	0.611700	0.508800	0.345100
C2091	C209	0.513000	0.540600	0.357490
H1161	H116	0.504700	0.553000	0.344800
Cu81	Cu8	0.162110	0.740700	0.504010
C2101	C210	0.468300	0.680100	0.576020
C2111	C211	0.555300	0.692060	0.584180
H1171	H117	0.581200	0.711600	0.578700
C2121	C212	0.603600	0.674900	0.600610
H1181	H118	0.661800	0.682900	0.606100
C2131	C213	0.564800	0.645700	0.608880
C2141	C214	0.477800	0.633730	0.600710
H1191	H119	0.451800	0.614200	0.606200
C2151	C215	0.429500	0.650900	0.584280
H1201	H120	0.371200	0.642900	0.578800
C2161	C216	0.366300	0.597390	0.394610
C2171	C217	0.278900	0.613500	0.398160
H1211	H121	0.226000	0.609000	0.389300
C2181	C218	0.270700	0.636500	0.415020
H1221	H122	0.212300	0.647300	0.417400
C2191	C219	0.349800	0.643300	0.428340
C2201	C220	0.437200	0.627200	0.424790
H1231	H123	0.490100	0.631700	0.433700
C2211	C221	0.445400	0.604200	0.407930
H1241	H124	0.503800	0.593400	0.405600
C2221	C222	0.337700	0.696100	0.551600
H1251	H125	0.295800	0.683100	0.559800
C2231	C223	0.339600	0.667800	0.446400
H1261	H126	0.396500	0.678100	0.450800
C2241	C224	0.427200	0.697100	0.557100
H1271	H127	0.468900	0.709600	0.548400
C2251	C225	0.648000	0.465900	0.377400
C2261	C226	0.260300	0.677000	0.457100
H1281	H128	0.203000	0.666400	0.453400
C2271	C227	0.295100	0.716300	0.531200
C2281	C228	0.255000	0.703100	0.474800
O521	O52	0.366800	0.730900	0.520940
O531	O53	0.337500	0.720000	0.476120
C2291	C229	0.756000	0.420600	0.372000
O541	O54	0.758400	0.406700	0.391300
O551	O55	0.794000	0.412100	0.357200
C2301	C230	0.964000	0.373900	0.480700
O561	O56	0.923100	0.374500	0.430500
C2311	C231	0.699000	0.450700	0.366500
C2321	C232	0.568000	0.807300	0.389600
O571	O57	0.706000	0.536200	0.222400
O581	O58	0.683500	0.546000	0.265700
C2331	C233	0.961400	0.701420	0.373680
C2341	C234	0.973800	0.719900	0.354670
H1291	H129	0.939300	0.714600	0.342100
C2351	C235	0.038000	0.746400	0.354490
H1301	H130	0.046300	0.758800	0.341800
C2361	C236	0.089600	0.754300	0.373300
C2371	C237	0.077200	0.735800	0.392330
H1311	H131	0.111700	0.741200	0.404900
C2381	C238	0.013000	0.709400	0.392510
H1321	H132	0.004700	0.697000	0.405200
Cu91	Cu9	0.662110	0.509300	0.245990
C2391	C239	0.968300	0.569900	0.173980
C2401	C240	0.055300	0.557940	0.165820
H1331	H133	0.081200	0.538400	0.171300
C2411	C241	0.103600	0.575100	0.149390
H1341	H134	0.161800	0.567100	0.143900
C2421	C242	0.064800	0.604300	0.141120
C2431	C243	0.977800	0.616270	0.149290
H1351	H135	0.951800	0.635800	0.143800
C2441	C244	0.929500	0.599100	0.165720
H1361	H136	0.871200	0.607100	0.171200
C2451	C245	0.866300	0.652610	0.355390
C2461	C246	0.778900	0.636500	0.351840
H1371	H137	0.726000	0.641000	0.360700
C2471	C247	0.770700	0.613500	0.334980
H1381	H138	0.712300	0.602700	0.332600
C2481	C248	0.849800	0.606700	0.321660
C2491	C249	0.937200	0.622800	0.325210
H1391	H139	0.990100	0.618300	0.316300
C2501	C250	0.945400	0.645800	0.342070
H1401	H140	0.003800	0.656600	0.344400
C2511	C251	0.837700	0.553900	0.198400
H1411	H141	0.795800	0.566900	0.190200
C2521	C252	0.839600	0.582200	0.303600
H1421	H142	0.896500	0.571900	0.299200
C2531	C253	0.927200	0.552900	0.192900
H1431	H143	0.968900	0.540400	0.201600
C2541	C254	0.148000	0.784100	0.372600
C2551	C255	0.760300	0.573000	0.292900
H1441	H144	0.703000	0.583600	0.296600
C2561	C256	0.795100	0.533700	0.218800
C2571	C257	0.755000	0.546900	0.275200
O591	O59	0.866800	0.519100	0.229060
O601	O60	0.837500	0.530000	0.273880
C2581	C258	0.256000	0.829400	0.378000
O611	O61	0.258400	0.843300	0.358700
O621	O62	0.294000	0.837900	0.392800
C2591	C259	0.464000	0.876100	0.269300
O631	O63	0.423100	0.875500	0.319500
C2601	C260	0.199000	0.799300	0.383500
C2611	C261	0.068000	0.442700	0.360400
O641	O64	0.706000	0.036200	0.722400
O651	O65	0.683500	0.046000	0.765700
C2621	C262	0.961400	0.201420	0.873680
C2631	C263	0.973800	0.219900	0.854670
H1451	H145	0.939300	0.214600	0.842100
C2641	C264	0.038000	0.246400	0.854490
H1461	H146	0.046300	0.258800	0.841800
C2651	C265	0.089600	0.254300	0.873300
C2661	C266	0.077200	0.235800	0.892330
H1471	H147	0.111700	0.241200	0.904900
C2671	C267	0.013000	0.209400	0.892510
H1481	H148	0.004700	0.197000	0.905200
Cu101	Cu10	0.662110	0.009300	0.745990
C2681	C268	0.968300	0.069900	0.673980
C2691	C269	0.055300	0.057940	0.665820
H1491	H149	0.081200	0.038400	0.671300
C2701	C270	0.103600	0.075100	0.649390
H1501	H150	0.161800	0.067100	0.643900
C2711	C271	0.064800	0.104300	0.641120
C2721	C272	0.977800	0.116270	0.649290
H1511	H151	0.951800	0.135800	0.643800
C2731	C273	0.929500	0.099100	0.665720
H1521	H152	0.871200	0.107100	0.671200
C2741	C274	0.866300	0.152610	0.855390
C2751	C275	0.778900	0.136500	0.851840
H1531	H153	0.726000	0.141000	0.860700
C2761	C276	0.770700	0.113500	0.834980
H1541	H154	0.712300	0.102700	0.832600
C2771	C277	0.849800	0.106700	0.821660
C2781	C278	0.937200	0.122800	0.825210
H1551	H155	0.990100	0.118300	0.816300
C2791	C279	0.945400	0.145800	0.842070
H1561	H156	0.003800	0.156600	0.844400
C2801	C280	0.837700	0.053900	0.698400
H1571	H157	0.795800	0.066900	0.690200
C2811	C281	0.839600	0.082200	0.803600
H1581	H158	0.896500	0.071900	0.799200
C2821	C282	0.927200	0.052900	0.692900
H1591	H159	0.968900	0.040400	0.701600
C2831	C283	0.148000	0.284100	0.872600
C2841	C284	0.760300	0.073000	0.792900
H1601	H160	0.703000	0.083600	0.796600
C2851	C285	0.795100	0.033700	0.718800
C2861	C286	0.755000	0.046900	0.775200
O661	O66	0.866800	0.019100	0.729060
O671	O67	0.837500	0.030000	0.773880
C2871	C287	0.256000	0.329400	0.878000
O681	O68	0.258400	0.343300	0.858700
O691	O69	0.294000	0.337900	0.892800
C2881	C288	0.464000	0.376100	0.769300
O701	O70	0.423100	0.375500	0.819500
C2891	C289	0.199000	0.299300	0.883500
C2901	C290	0.068000	0.942700	0.860400
O711	O71	0.206000	0.536200	0.722400
O721	O72	0.183500	0.546000	0.765700
C2911	C291	0.461400	0.701420	0.873680
C2921	C292	0.473800	0.719900	0.854670
H1611	H161	0.439300	0.714600	0.842100
C2931	C293	0.538000	0.746400	0.854490
H1621	H162	0.546300	0.758800	0.841800
C2941	C294	0.589600	0.754300	0.873300
C2951	C295	0.577200	0.735800	0.892330
H1631	H163	0.611700	0.741200	0.904900
C2961	C296	0.513000	0.709400	0.892510
H1641	H164	0.504700	0.697000	0.905200
Cu111	Cu11	0.162110	0.509300	0.745990
C2971	C297	0.468300	0.569900	0.673980
C2981	C298	0.555300	0.557940	0.665820
H1651	H165	0.581200	0.538400	0.671300
C2991	C299	0.603600	0.575100	0.649390
H1661	H166	0.661800	0.567100	0.643900
C3001	C300	0.564800	0.604300	0.641120
C3011	C301	0.477800	0.616270	0.649290
H1671	H167	0.451800	0.635800	0.643800
C3021	C302	0.429500	0.599100	0.665720
H1681	H168	0.371200	0.607100	0.671200
C3031	C303	0.366300	0.652610	0.855390
C3041	C304	0.278900	0.636500	0.851840
H1691	H169	0.226000	0.641000	0.860700
C3051	C305	0.270700	0.613500	0.834980
H1701	H170	0.212300	0.602700	0.832600
C3061	C306	0.349800	0.606700	0.821660
C3071	C307	0.437200	0.622800	0.825210
H1711	H171	0.490100	0.618300	0.816300
C3081	C308	0.445400	0.645800	0.842070
H1721	H172	0.503800	0.656600	0.844400
C3091	C309	0.337700	0.553900	0.698400
H1731	H173	0.295800	0.566900	0.690200
C3101	C310	0.339600	0.582200	0.803600
H1741	H174	0.396500	0.571900	0.799200
C3111	C311	0.427200	0.552900	0.692900
H1751	H175	0.468900	0.540400	0.701600
C3121	C312	0.648000	0.784100	0.872600
C3131	C313	0.260300	0.573000	0.792900
H1761	H176	0.203000	0.583600	0.796600
C3141	C314	0.295100	0.533700	0.718800
C3151	C315	0.255000	0.546900	0.775200
O731	O73	0.366800	0.519100	0.729060
O741	O74	0.337500	0.530000	0.773880
C3161	C316	0.756000	0.829400	0.878000
O751	O75	0.758400	0.843300	0.858700
O761	O76	0.794000	0.837900	0.892800
C3171	C317	0.964000	0.876100	0.769300
O771	O77	0.923100	0.875500	0.819500
C3181	C318	0.699000	0.799300	0.883500
C3191	C319	0.568000	0.442700	0.860400
O781	O78	0.206000	0.036200	0.222400
O791	O79	0.183500	0.046000	0.265700
C3201	C320	0.461400	0.201420	0.373680
C3211	C321	0.473800	0.219900	0.354670
H1771	H177	0.439300	0.214600	0.342100
C3221	C322	0.538000	0.246400	0.354490
H1781	H178	0.546300	0.258800	0.341800
C3231	C323	0.589600	0.254300	0.373300
C3241	C324	0.577200	0.235800	0.392330
H1791	H179	0.611700	0.241200	0.404900
C3251	C325	0.513000	0.209400	0.392510
H1801	H180	0.504700	0.197000	0.405200
Cu121	Cu12	0.162110	0.009300	0.245990
C3261	C326	0.468300	0.069900	0.173980
C3271	C327	0.555300	0.057940	0.165820
H1811	H181	0.581200	0.038400	0.171300
C3281	C328	0.603600	0.075100	0.149390
H1821	H182	0.661800	0.067100	0.143900
C3291	C329	0.564800	0.104300	0.141120
C3301	C330	0.477800	0.116270	0.149290
H1831	H183	0.451800	0.135800	0.143800
C3311	C331	0.429500	0.099100	0.165720
H1841	H184	0.371200	0.107100	0.171200
C3321	C332	0.366300	0.152610	0.355390
C3331	C333	0.278900	0.136500	0.351840
H1851	H185	0.226000	0.141000	0.360700
C3341	C334	0.270700	0.113500	0.334980
H1861	H186	0.212300	0.102700	0.332600
C3351	C335	0.349800	0.106700	0.321660
C3361	C336	0.437200	0.122800	0.325210
H1871	H187	0.490100	0.118300	0.316300
C3371	C337	0.445400	0.145800	0.342070
H1881	H188	0.503800	0.156600	0.344400
C3381	C338	0.337700	0.053900	0.198400
H1891	H189	0.295800	0.066900	0.190200
C3391	C339	0.339600	0.082200	0.303600
H1901	H190	0.396500	0.071900	0.299200
C3401	C340	0.427200	0.052900	0.192900
H1911	H191	0.468900	0.040400	0.201600
C3411	C341	0.648000	0.284100	0.372600
C3421	C342	0.260300	0.073000	0.292900
H1921	H192	0.203000	0.083600	0.296600
C3431	C343	0.295100	0.033700	0.218800
C3441	C344	0.255000	0.046900	0.275200
O801	O80	0.366800	0.019100	0.229060
O811	O81	0.337500	0.030000	0.273880
C3451	C345	0.756000	0.329400	0.378000
O821	O82	0.758400	0.343300	0.358700
O831	O83	0.794000	0.337900	0.392800
C3461	C346	0.964000	0.376100	0.269300
O841	O84	0.923100	0.375500	0.319500
C3471	C347	0.699000	0.299300	0.383500
C3481	C348	0.568000	0.942700	0.360400
O851	O85	0.044000	0.213800	0.222400
O861	O86	0.066500	0.204000	0.265700
C3491	C349	0.788600	0.048580	0.373680
C3501	C350	0.776200	0.030100	0.354670
H1931	H193	0.810700	0.035400	0.342100
C3511	C351	0.712000	0.003600	0.354490
H1941	H194	0.703700	0.991200	0.341800
C3521	C352	0.660400	0.995700	0.373300
C3531	C353	0.672800	0.014200	0.392330
H1951	H195	0.638300	0.008800	0.404900
C3541	C354	0.737000	0.040600	0.392510
H1961	H196	0.745300	0.053000	0.405200
Cu131	Cu13	0.087890	0.240700	0.245990
C3551	C355	0.781700	0.180100	0.173980
C3561	C356	0.694700	0.192060	0.165820
H1971	H197	0.668800	0.211600	0.171300
C3571	C357	0.646400	0.174900	0.149390
H1981	H198	0.588200	0.182900	0.143900
C3581	C358	0.685200	0.145700	0.141120
C3591	C359	0.772200	0.133730	0.149290
H1991	H199	0.798200	0.114200	0.143800
C3601	C360	0.820500	0.150900	0.165720
H2001	H200	0.878800	0.142900	0.171200
C3611	C361	0.883700	0.097390	0.355390
C3621	C362	0.971100	0.113500	0.351840
H2011	H201	0.024000	0.109000	0.360700
C3631	C363	0.979300	0.136500	0.334980
H2021	H202	0.037700	0.147300	0.332600
C3641	C364	0.900200	0.143300	0.321660
C3651	C365	0.812800	0.127200	0.325210
H2031	H203	0.759900	0.131700	0.316300
C3661	C366	0.804600	0.104200	0.342070
H2041	H204	0.746200	0.093400	0.344400
C3671	C367	0.912300	0.196100	0.198400
H2051	H205	0.954200	0.183100	0.190200
C3681	C368	0.910400	0.167800	0.303600
H2061	H206	0.853500	0.178100	0.299200
C3691	C369	0.822800	0.197100	0.192900
H2071	H207	0.781100	0.209600	0.201600
C3701	C370	0.602000	0.965900	0.372600
C3711	C371	0.989700	0.177000	0.292900
H2081	H208	0.047000	0.166400	0.296600
C3721	C372	0.954900	0.216300	0.218800
C3731	C373	0.995000	0.203100	0.275200
O871	O87	0.883200	0.230900	0.229060
O881	O88	0.912500	0.220000	0.273880
C3741	C374	0.494000	0.920600	0.378000
O891	O89	0.491600	0.906700	0.358700
O901	O90	0.456000	0.912100	0.392800
C3751	C375	0.286000	0.873900	0.269300
O911	O91	0.326900	0.874500	0.319500
C3761	C376	0.551000	0.950700	0.383500
C3771	C377	0.682000	0.307300	0.360400
O921	O92	0.044000	0.713800	0.722400
O931	O93	0.066500	0.704000	0.765700
C3781	C378	0.788600	0.548580	0.873680
C3791	C379	0.776200	0.530100	0.854670
H2091	H209	0.810700	0.535400	0.842100
C3801	C380	0.712000	0.503600	0.854490
H2101	H210	0.703700	0.491200	0.841800
C3811	C381	0.660400	0.495700	0.873300
C3821	C382	0.672800	0.514200	0.892330
H2111	H211	0.638300	0.508800	0.904900
C3831	C383	0.737000	0.540600	0.892510
H2121	H212	0.745300	0.553000	0.905200
Cu141	Cu14	0.087890	0.740700	0.745990
C3841	C384	0.781700	0.680100	0.673980
C3851	C385	0.694700	0.692060	0.665820
H2131	H213	0.668800	0.711600	0.671300
C3861	C386	0.646400	0.674900	0.649390
H2141	H214	0.588200	0.682900	0.643900
C3871	C387	0.685200	0.645700	0.641120
C3881	C388	0.772200	0.633730	0.649290
H2151	H215	0.798200	0.614200	0.643800
C3891	C389	0.820500	0.650900	0.665720
H2161	H216	0.878800	0.642900	0.671200
C3901	C390	0.883700	0.597390	0.855390
C3911	C391	0.971100	0.613500	0.851840
H2171	H217	0.024000	0.609000	0.860700
C3921	C392	0.979300	0.636500	0.834980
H2181	H218	0.037700	0.647300	0.832600
C3931	C393	0.900200	0.643300	0.821660
C3941	C394	0.812800	0.627200	0.825210
H2191	H219	0.759900	0.631700	0.816300
C3951	C395	0.804600	0.604200	0.842070
H2201	H220	0.746200	0.593400	0.844400
C3961	C396	0.912300	0.696100	0.698400
H2211	H221	0.954200	0.683100	0.690200
C3971	C397	0.910400	0.667800	0.803600
H2221	H222	0.853500	0.678100	0.799200
C3981	C398	0.822800	0.697100	0.692900
H2231	H223	0.781100	0.709600	0.701600
C3991	C399	0.602000	0.465900	0.872600
C4001	C400	0.989700	0.677000	0.792900
H2241	H224	0.047000	0.666400	0.796600
C4011	C401	0.954900	0.716300	0.718800
C4021	C402	0.995000	0.703100	0.775200
O941	O94	0.883200	0.730900	0.729060
O951	O95	0.912500	0.720000	0.773880
C4031	C403	0.494000	0.420600	0.878000
O961	O96	0.491600	0.406700	0.858700
O971	O97	0.456000	0.412100	0.892800
C4041	C404	0.286000	0.373900	0.769300
O981	O98	0.326900	0.374500	0.819500
C4051	C405	0.551000	0.450700	0.883500
C4061	C406	0.682000	0.807300	0.860400
O991	O99	0.544000	0.213800	0.722400
O1001	O100	0.566500	0.204000	0.765700
C4071	C407	0.288600	0.048580	0.873680
C4081	C408	0.276200	0.030100	0.854670
H2251	H225	0.310700	0.035400	0.842100
C4091	C409	0.212000	0.003600	0.854490
H2261	H226	0.203700	0.991200	0.841800
C4101	C410	0.160400	0.995700	0.873300
C4111	C411	0.172800	0.014200	0.892330
H2271	H227	0.138300	0.008800	0.904900
C4121	C412	0.237000	0.040600	0.892510
H2281	H228	0.245300	0.053000	0.905200
Cu151	Cu15	0.587890	0.240700	0.745990
C4131	C413	0.281700	0.180100	0.673980
C4141	C414	0.194700	0.192060	0.665820
H2291	H229	0.168800	0.211600	0.671300
C4151	C415	0.146400	0.174900	0.649390
H2301	H230	0.088200	0.182900	0.643900
C4161	C416	0.185200	0.145700	0.641120
C4171	C417	0.272200	0.133730	0.649290
H2311	H231	0.298200	0.114200	0.643800
C4181	C418	0.320500	0.150900	0.665720
H2321	H232	0.378800	0.142900	0.671200
C4191	C419	0.383700	0.097390	0.855390
C4201	C420	0.471100	0.113500	0.851840
H2331	H233	0.524000	0.109000	0.860700
C4211	C421	0.479300	0.136500	0.834980
H2341	H234	0.537700	0.147300	0.832600
C4221	C422	0.400200	0.143300	0.821660
C4231	C423	0.312800	0.127200	0.825210
H2351	H235	0.259900	0.131700	0.816300
C4241	C424	0.304600	0.104200	0.842070
H2361	H236	0.246200	0.093400	0.844400
C4251	C425	0.412300	0.196100	0.698400
H2371	H237	0.454200	0.183100	0.690200
C4261	C426	0.410400	0.167800	0.803600
H2381	H238	0.353500	0.178100	0.799200
C4271	C427	0.322800	0.197100	0.692900
H2391	H239	0.281100	0.209600	0.701600
C4281	C428	0.102000	0.965900	0.872600
C4291	C429	0.489700	0.177000	0.792900
H2401	H240	0.547000	0.166400	0.796600
C4301	C430	0.454900	0.216300	0.718800
C4311	C431	0.495000	0.203100	0.775200
O1011	O101	0.383200	0.230900	0.729060
O1021	O102	0.412500	0.220000	0.773880
C4321	C432	0.994000	0.920600	0.878000
O1031	O103	0.991600	0.906700	0.858700
O1041	O104	0.956000	0.912100	0.892800
C4331	C433	0.786000	0.873900	0.769300
O1051	O105	0.826900	0.874500	0.819500
C4341	C434	0.051000	0.950700	0.883500
C4351	C435	0.182000	0.307300	0.860400
O1061	O106	0.544000	0.713800	0.222400
O1071	O107	0.566500	0.704000	0.265700
C4361	C436	0.288600	0.548580	0.373680
C4371	C437	0.276200	0.530100	0.354670
H2411	H241	0.310700	0.535400	0.342100
C4381	C438	0.212000	0.503600	0.354490
H2421	H242	0.203700	0.491200	0.341800
C4391	C439	0.160400	0.495700	0.373300
C4401	C440	0.172800	0.514200	0.392330
H2431	H243	0.138300	0.508800	0.404900
C4411	C441	0.237000	0.540600	0.392510
H2441	H244	0.245300	0.553000	0.405200
Cu161	Cu16	0.587890	0.740700	0.245990
C4421	C442	0.281700	0.680100	0.173980
C4431	C443	0.194700	0.692060	0.165820
H2451	H245	0.168800	0.711600	0.171300
C4441	C444	0.146400	0.674900	0.149390
H2461	H246	0.088200	0.682900	0.143900
C4451	C445	0.185200	0.645700	0.141120
C4461	C446	0.272200	0.633730	0.149290
H2471	H247	0.298200	0.614200	0.143800
C4471	C447	0.320500	0.650900	0.165720
H2481	H248	0.378800	0.642900	0.171200
C4481	C448	0.383700	0.597390	0.355390
C4491	C449	0.471100	0.613500	0.351840
H2491	H249	0.524000	0.609000	0.360700
C4501	C450	0.479300	0.636500	0.334980
H2501	H250	0.537700	0.647300	0.332600
C4511	C451	0.400200	0.643300	0.321660
C4521	C452	0.312800	0.627200	0.325210
H2511	H251	0.259900	0.631700	0.316300
C4531	C453	0.304600	0.604200	0.342070
H2521	H252	0.246200	0.593400	0.344400
C4541	C454	0.412300	0.696100	0.198400
H2531	H253	0.454200	0.683100	0.190200
C4551	C455	0.410400	0.667800	0.303600
H2541	H254	0.353500	0.678100	0.299200
C4561	C456	0.322800	0.697100	0.192900
H2551	H255	0.281100	0.709600	0.201600
C4571	C457	0.102000	0.465900	0.372600
C4581	C458	0.489700	0.677000	0.292900
H2561	H256	0.547000	0.666400	0.296600
C4591	C459	0.454900	0.716300	0.218800
C4601	C460	0.495000	0.703100	0.275200
O1081	O108	0.383200	0.730900	0.229060
O1091	O109	0.412500	0.720000	0.273880
C4611	C461	0.994000	0.420600	0.378000
O1101	O110	0.991600	0.406700	0.358700
O1111	O111	0.956000	0.412100	0.392800
C4621	C462	0.786000	0.373900	0.269300
O1121	O112	0.826900	0.374500	0.319500
C4631	C463	0.051000	0.450700	0.383500
C4641	C464	0.182000	0.807300	0.360400
O1131	O113	0.956000	0.463800	0.472400
O1141	O114	0.933500	0.454000	0.515700
C4651	C465	0.211400	0.298580	0.623680
C4661	C466	0.223800	0.280100	0.604670
H2571	H257	0.189300	0.285400	0.592100
C4671	C467	0.288000	0.253600	0.604490
H2581	H258	0.296300	0.241200	0.591800
C4681	C468	0.339600	0.245700	0.623300
C4691	C469	0.327200	0.264200	0.642330
H2591	H259	0.361700	0.258800	0.654900
C4701	C470	0.263000	0.290600	0.642510
H2601	H260	0.254700	0.303000	0.655200
Cu171	Cu17	0.912110	0.490700	0.495990
C4711	C471	0.218300	0.430100	0.423980
C4721	C472	0.305300	0.442060	0.415820
H2611	H261	0.331200	0.461600	0.421300
C4731	C473	0.353600	0.424900	0.399390
H2621	H262	0.411800	0.432900	0.393900
C4741	C474	0.314800	0.395700	0.391120
C4751	C475	0.227800	0.383730	0.399290
H2631	H263	0.201800	0.364200	0.393800
C4761	C476	0.179500	0.400900	0.415720
H2641	H264	0.121200	0.392900	0.421200
C4771	C477	0.116300	0.347390	0.605390
C4781	C478	0.028900	0.363500	0.601840
H2651	H265	0.976000	0.359000	0.610700
C4791	C479	0.020700	0.386500	0.584980
H2661	H266	0.962300	0.397300	0.582600
C4801	C480	0.099800	0.393300	0.571660
C4811	C481	0.187200	0.377200	0.575210
H2671	H267	0.240100	0.381700	0.566300
C4821	C482	0.195400	0.354200	0.592070
H2681	H268	0.253800	0.343400	0.594400
C4831	C483	0.087700	0.446100	0.448400
H2691	H269	0.045800	0.433100	0.440200
C4841	C484	0.089600	0.417800	0.553600
H2701	H270	0.146500	0.428100	0.549200
C4851	C485	0.177200	0.447100	0.442900
H2711	H271	0.218900	0.459600	0.451600
C4861	C486	0.398000	0.215900	0.622600
C4871	C487	0.010300	0.427000	0.542900
H2721	H272	0.953000	0.416400	0.546600
C4881	C488	0.045100	0.466300	0.468800
C4891	C489	0.005000	0.453100	0.525200
O1151	O115	0.116800	0.480900	0.479060
O1161	O116	0.087500	0.470000	0.523880
C4901	C490	0.506000	0.170600	0.628000
O1171	O117	0.508400	0.156700	0.608700
O1181	O118	0.544000	0.162100	0.642800
C4911	C491	0.714000	0.123900	0.519300
O1191	O119	0.673100	0.124500	0.569500
C4921	C492	0.449000	0.200700	0.633500
C4931	C493	0.318000	0.557300	0.610400
O1201	O120	0.956000	0.963800	0.972400
O1211	O121	0.933500	0.954000	0.015700
C4941	C494	0.211400	0.798580	0.123680
C4951	C495	0.223800	0.780100	0.104670
H2731	H273	0.189300	0.785400	0.092100
C4961	C496	0.288000	0.753600	0.104490
H2741	H274	0.296300	0.741200	0.091800
C4971	C497	0.339600	0.745700	0.123300
C4981	C498	0.327200	0.764200	0.142330
H2751	H275	0.361700	0.758800	0.154900
C4991	C499	0.263000	0.790600	0.142510
H2761	H276	0.254700	0.803000	0.155200
Cu181	Cu18	0.912110	0.990700	0.995990
C5001	C500	0.218300	0.930100	0.923980
C5011	C501	0.305300	0.942060	0.915820
H2771	H277	0.331200	0.961600	0.921300
C5021	C502	0.353600	0.924900	0.899390
H2781	H278	0.411800	0.932900	0.893900
C5031	C503	0.314800	0.895700	0.891120
C5041	C504	0.227800	0.883730	0.899290
H2791	H279	0.201800	0.864200	0.893800
C5051	C505	0.179500	0.900900	0.915720
H2801	H280	0.121200	0.892900	0.921200
C5061	C506	0.116300	0.847390	0.105390
C5071	C507	0.028900	0.863500	0.101840
H2811	H281	0.976000	0.859000	0.110700
C5081	C508	0.020700	0.886500	0.084980
H2821	H282	0.962300	0.897300	0.082600
C5091	C509	0.099800	0.893300	0.071660
C5101	C510	0.187200	0.877200	0.075210
H2831	H283	0.240100	0.881700	0.066300
C5111	C511	0.195400	0.854200	0.092070
H2841	H284	0.253800	0.843400	0.094400
C5121	C512	0.087700	0.946100	0.948400
H2851	H285	0.045800	0.933100	0.940200
C5131	C513	0.089600	0.917800	0.053600
H2861	H286	0.146500	0.928100	0.049200
C5141	C514	0.177200	0.947100	0.942900
H2871	H287	0.218900	0.959600	0.951600
C5151	C515	0.398000	0.715900	0.122600
C5161	C516	0.010300	0.927000	0.042900
H2881	H288	0.953000	0.916400	0.046600
C5171	C517	0.045100	0.966300	0.968800
C5181	C518	0.005000	0.953100	0.025200
O1221	O122	0.116800	0.980900	0.979060
O1231	O123	0.087500	0.970000	0.023880
C5191	C519	0.506000	0.670600	0.128000
O1241	O124	0.508400	0.656700	0.108700
O1251	O125	0.544000	0.662100	0.142800
C5201	C520	0.714000	0.623900	0.019300
O1261	O126	0.673100	0.624500	0.069500
C5211	C521	0.449000	0.700700	0.133500
C5221	C522	0.318000	0.057300	0.110400
O1271	O127	0.456000	0.463800	0.972400
O1281	O128	0.433500	0.454000	0.015700
C5231	C523	0.711400	0.298580	0.123680
C5241	C524	0.723800	0.280100	0.104670
H2891	H289	0.689300	0.285400	0.092100
C5251	C525	0.788000	0.253600	0.104490
H2901	H290	0.796300	0.241200	0.091800
C5261	C526	0.839600	0.245700	0.123300
C5271	C527	0.827200	0.264200	0.142330
H2911	H291	0.861700	0.258800	0.154900
C5281	C528	0.763000	0.290600	0.142510
H2921	H292	0.754700	0.303000	0.155200
Cu191	Cu19	0.412110	0.490700	0.995990
C5291	C529	0.718300	0.430100	0.923980
C5301	C530	0.805300	0.442060	0.915820
H2931	H293	0.831200	0.461600	0.921300
C5311	C531	0.853600	0.424900	0.899390
H2941	H294	0.911800	0.432900	0.893900
C5321	C532	0.814800	0.395700	0.891120
C5331	C533	0.727800	0.383730	0.899290
H2951	H295	0.701800	0.364200	0.893800
C5341	C534	0.679500	0.400900	0.915720
H2961	H296	0.621200	0.392900	0.921200
C5351	C535	0.616300	0.347390	0.105390
C5361	C536	0.528900	0.363500	0.101840
H2971	H297	0.476000	0.359000	0.110700
C5371	C537	0.520700	0.386500	0.084980
H2981	H298	0.462300	0.397300	0.082600
C5381	C538	0.599800	0.393300	0.071660
C5391	C539	0.687200	0.377200	0.075210
H2991	H299	0.740100	0.381700	0.066300
C5401	C540	0.695400	0.354200	0.092070
H3001	H300	0.753800	0.343400	0.094400
C5411	C541	0.587700	0.446100	0.948400
H3011	H301	0.545800	0.433100	0.940200
C5421	C542	0.589600	0.417800	0.053600
H3021	H302	0.646500	0.428100	0.049200
C5431	C543	0.677200	0.447100	0.942900
H3031	H303	0.718900	0.459600	0.951600
C5441	C544	0.898000	0.215900	0.122600
C5451	C545	0.510300	0.427000	0.042900
H3041	H304	0.453000	0.416400	0.046600
C5461	C546	0.545100	0.466300	0.968800
C5471	C547	0.505000	0.453100	0.025200
O1291	O129	0.616800	0.480900	0.979060
O1301	O130	0.587500	0.470000	0.023880
C5481	C548	0.006000	0.170600	0.128000
O1311	O131	0.008400	0.156700	0.108700
O1321	O132	0.044000	0.162100	0.142800
C5491	C549	0.214000	0.123900	0.019300
O1331	O133	0.173100	0.124500	0.069500
C5501	C550	0.949000	0.200700	0.133500
C5511	C551	0.818000	0.557300	0.110400
O1341	O134	0.456000	0.963800	0.472400
O1351	O135	0.433500	0.954000	0.515700
C5521	C552	0.711400	0.798580	0.623680
C5531	C553	0.723800	0.780100	0.604670
H3051	H305	0.689300	0.785400	0.592100
C5541	C554	0.788000	0.753600	0.604490
H3061	H306	0.796300	0.741200	0.591800
C5551	C555	0.839600	0.745700	0.623300
C5561	C556	0.827200	0.764200	0.642330
H3071	H307	0.861700	0.758800	0.654900
C5571	C557	0.763000	0.790600	0.642510
H3081	H308	0.754700	0.803000	0.655200
Cu201	Cu20	0.412110	0.990700	0.495990
C5581	C558	0.718300	0.930100	0.423980
C5591	C559	0.805300	0.942060	0.415820
H3091	H309	0.831200	0.961600	0.421300
C5601	C560	0.853600	0.924900	0.399390
H3101	H310	0.911800	0.932900	0.393900
C5611	C561	0.814800	0.895700	0.391120
C5621	C562	0.727800	0.883730	0.399290
H3111	H311	0.701800	0.864200	0.393800
C5631	C563	0.679500	0.900900	0.415720
H3121	H312	0.621200	0.892900	0.421200
C5641	C564	0.616300	0.847390	0.605390
C5651	C565	0.528900	0.863500	0.601840
H3131	H313	0.476000	0.859000	0.610700
C5661	C566	0.520700	0.886500	0.584980
H3141	H314	0.462300	0.897300	0.582600
C5671	C567	0.599800	0.893300	0.571660
C5681	C568	0.687200	0.877200	0.575210
H3151	H315	0.740100	0.881700	0.566300
C5691	C569	0.695400	0.854200	0.592070
H3161	H316	0.753800	0.843400	0.594400
C5701	C570	0.587700	0.946100	0.448400
H3171	H317	0.545800	0.933100	0.440200
C5711	C571	0.589600	0.917800	0.553600
H3181	H318	0.646500	0.928100	0.549200
C5721	C572	0.677200	0.947100	0.442900
H3191	H319	0.718900	0.959600	0.451600
C5731	C573	0.898000	0.715900	0.622600
C5741	C574	0.510300	0.927000	0.542900
H3201	H320	0.453000	0.916400	0.546600
C5751	C575	0.545100	0.966300	0.468800
C5761	C576	0.505000	0.953100	0.525200
O1361	O136	0.616800	0.980900	0.479060
O1371	O137	0.587500	0.970000	0.523880
C5771	C577	0.006000	0.670600	0.628000
O1381	O138	0.008400	0.656700	0.608700
O1391	O139	0.044000	0.662100	0.642800
C5781	C578	0.214000	0.623900	0.519300
O1401	O140	0.173100	0.624500	0.569500
C5791	C579	0.949000	0.700700	0.633500
C5801	C580	0.818000	0.057300	0.610400
O1411	O141	0.294000	0.786200	0.472400
O1421	O142	0.316500	0.796000	0.515700
C5811	C581	0.038600	0.951420	0.623680
C5821	C582	0.026200	0.969900	0.604670
H3211	H321	0.060700	0.964600	0.592100
C5831	C583	0.962000	0.996400	0.604490
H3221	H322	0.953700	0.008800	0.591800
C5841	C584	0.910400	0.004300	0.623300
C5851	C585	0.922800	0.985800	0.642330
H3231	H323	0.888300	0.991200	0.654900
C5861	C586	0.987000	0.959400	0.642510
H3241	H324	0.995300	0.947000	0.655200
Cu211	Cu21	0.337890	0.759300	0.495990
C5871	C587	0.031700	0.819900	0.423980
C5881	C588	0.944700	0.807940	0.415820
H3251	H325	0.918800	0.788400	0.421300
C5891	C589	0.896400	0.825100	0.399390
H3261	H326	0.838200	0.817100	0.393900
C5901	C590	0.935200	0.854300	0.391120
C5911	C591	0.022200	0.866270	0.399290
H3271	H327	0.048200	0.885800	0.393800
C5921	C592	0.070500	0.849100	0.415720
H3281	H328	0.128800	0.857100	0.421200
C5931	C593	0.133700	0.902610	0.605390
C5941	C594	0.221100	0.886500	0.601840
H3291	H329	0.274000	0.891000	0.610700
C5951	C595	0.229300	0.863500	0.584980
H3301	H330	0.287700	0.852700	0.582600
C5961	C596	0.150200	0.856700	0.571660
C5971	C597	0.062800	0.872800	0.575210
H3311	H331	0.009900	0.868300	0.566300
C5981	C598	0.054600	0.895800	0.592070
H3321	H332	0.996200	0.906600	0.594400
C5991	C599	0.162300	0.803900	0.448400
H3331	H333	0.204200	0.816900	0.440200
C6001	C600	0.160400	0.832200	0.553600
H3341	H334	0.103500	0.821900	0.549200
C6011	C601	0.072800	0.802900	0.442900
H3351	H335	0.031100	0.790400	0.451600
C6021	C602	0.852000	0.034100	0.622600
C6031	C603	0.239700	0.823000	0.542900
H3361	H336	0.297000	0.833600	0.546600
C6041	C604	0.204900	0.783700	0.468800
C6051	C605	0.245000	0.796900	0.525200
O1431	O143	0.133200	0.769100	0.479060
O1441	O144	0.162500	0.780000	0.523880
C6061	C606	0.744000	0.079400	0.628000
O1451	O145	0.741600	0.093300	0.608700
O1461	O146	0.706000	0.087900	0.642800
C6071	C607	0.536000	0.126100	0.519300
O1471	O147	0.576900	0.125500	0.569500
C6081	C608	0.801000	0.049300	0.633500
C6091	C609	0.932000	0.692700	0.610400
O1481	O148	0.294000	0.286200	0.972400
O1491	O149	0.316500	0.296000	0.015700
C6101	C610	0.038600	0.451420	0.123680
C6111	C611	0.026200	0.469900	0.104670
H3371	H337	0.060700	0.464600	0.092100
C6121	C612	0.962000	0.496400	0.104490
H3381	H338	0.953700	0.508800	0.091800
C6131	C613	0.910400	0.504300	0.123300
C6141	C614	0.922800	0.485800	0.142330
H3391	H339	0.888300	0.491200	0.154900
C6151	C615	0.987000	0.459400	0.142510
H3401	H340	0.995300	0.447000	0.155200
Cu221	Cu22	0.337890	0.259300	0.995990
C6161	C616	0.031700	0.319900	0.923980
C6171	C617	0.944700	0.307940	0.915820
H3411	H341	0.918800	0.288400	0.921300
C6181	C618	0.896400	0.325100	0.899390
H3421	H342	0.838200	0.317100	0.893900
C6191	C619	0.935200	0.354300	0.891120
C6201	C620	0.022200	0.366270	0.899290
H3431	H343	0.048200	0.385800	0.893800
C6211	C621	0.070500	0.349100	0.915720
H3441	H344	0.128800	0.357100	0.921200
C6221	C622	0.133700	0.402610	0.105390
C6231	C623	0.221100	0.386500	0.101840
H3451	H345	0.274000	0.391000	0.110700
C6241	C624	0.229300	0.363500	0.084980
H3461	H346	0.287700	0.352700	0.082600
C6251	C625	0.150200	0.356700	0.071660
C6261	C626	0.062800	0.372800	0.075210
H3471	H347	0.009900	0.368300	0.066300
C6271	C627	0.054600	0.395800	0.092070
H3481	H348	0.996200	0.406600	0.094400
C6281	C628	0.162300	0.303900	0.948400
H3491	H349	0.204200	0.316900	0.940200
C6291	C629	0.160400	0.332200	0.053600
H3501	H350	0.103500	0.321900	0.049200
C6301	C630	0.072800	0.302900	0.942900
H3511	H351	0.031100	0.290400	0.951600
C6311	C631	0.852000	0.534100	0.122600
C6321	C632	0.239700	0.323000	0.042900
H3521	H352	0.297000	0.333600	0.046600
C6331	C633	0.204900	0.283700	0.968800
C6341	C634	0.245000	0.296900	0.025200
O1501	O150	0.133200	0.269100	0.979060
O1511	O151	0.162500	0.280000	0.023880
C6351	C635	0.744000	0.579400	0.128000
O1521	O152	0.741600	0.593300	0.108700
O1531	O153	0.706000	0.587900	0.142800
C6361	C636	0.536000	0.626100	0.019300
O1541	O154	0.576900	0.625500	0.069500
C6371	C637	0.801000	0.549300	0.133500
C6381	C638	0.932000	0.192700	0.110400
O1551	O155	0.794000	0.786200	0.972400
O1561	O156	0.816500	0.796000	0.015700
C6391	C639	0.538600	0.951420	0.123680
C6401	C640	0.526200	0.969900	0.104670
H3531	H353	0.560700	0.964600	0.092100
C6411	C641	0.462000	0.996400	0.104490
H3541	H354	0.453700	0.008800	0.091800
C6421	C642	0.410400	0.004300	0.123300
C6431	C643	0.422800	0.985800	0.142330
H3551	H355	0.388300	0.991200	0.154900
C6441	C644	0.487000	0.959400	0.142510
H3561	H356	0.495300	0.947000	0.155200
Cu231	Cu23	0.837890	0.759300	0.995990
C6451	C645	0.531700	0.819900	0.923980
C6461	C646	0.444700	0.807940	0.915820
H3571	H357	0.418800	0.788400	0.921300
C6471	C647	0.396400	0.825100	0.899390
H3581	H358	0.338200	0.817100	0.893900
C6481	C648	0.435200	0.854300	0.891120
C6491	C649	0.522200	0.866270	0.899290
H3591	H359	0.548200	0.885800	0.893800
C6501	C650	0.570500	0.849100	0.915720
H3601	H360	0.628800	0.857100	0.921200
C6511	C651	0.633700	0.902610	0.105390
C6521	C652	0.721100	0.886500	0.101840
H3611	H361	0.774000	0.891000	0.110700
C6531	C653	0.729300	0.863500	0.084980
H3621	H362	0.787700	0.852700	0.082600
C6541	C654	0.650200	0.856700	0.071660
C6551	C655	0.562800	0.872800	0.075210
H3631	H363	0.509900	0.868300	0.066300
C6561	C656	0.554600	0.895800	0.092070
H3641	H364	0.496200	0.906600	0.094400
C6571	C657	0.662300	0.803900	0.948400
H3651	H365	0.704200	0.816900	0.940200
C6581	C658	0.660400	0.832200	0.053600
H3661	H366	0.603500	0.821900	0.049200
C6591	C659	0.572800	0.802900	0.942900
H3671	H367	0.531100	0.790400	0.951600
C6601	C660	0.352000	0.034100	0.122600
C6611	C661	0.739700	0.823000	0.042900
H3681	H368	0.797000	0.833600	0.046600
C6621	C662	0.704900	0.783700	0.968800
C6631	C663	0.745000	0.796900	0.025200
O1571	O157	0.633200	0.769100	0.979060
O1581	O158	0.662500	0.780000	0.023880
C6641	C664	0.244000	0.079400	0.128000
O1591	O159	0.241600	0.093300	0.108700
O1601	O160	0.206000	0.087900	0.142800
C6651	C665	0.036000	0.126100	0.019300
O1611	O161	0.076900	0.125500	0.069500
C6661	C666	0.301000	0.049300	0.133500
C6671	C667	0.432000	0.692700	0.110400
O1621	O162	0.794000	0.286200	0.472400
O1631	O163	0.816500	0.296000	0.515700
C6681	C668	0.538600	0.451420	0.623680
C6691	C669	0.526200	0.469900	0.604670
H3691	H369	0.560700	0.464600	0.592100
C6701	C670	0.462000	0.496400	0.604490
H3701	H370	0.453700	0.508800	0.591800
C6711	C671	0.410400	0.504300	0.623300
C6721	C672	0.422800	0.485800	0.642330
H3711	H371	0.388300	0.491200	0.654900
C6731	C673	0.487000	0.459400	0.642510
H3721	H372	0.495300	0.447000	0.655200
Cu241	Cu24	0.837890	0.259300	0.495990
C6741	C674	0.531700	0.319900	0.423980
C6751	C675	0.444700	0.307940	0.415820
H3731	H373	0.418800	0.288400	0.421300
C6761	C676	0.396400	0.325100	0.399390
H3741	H374	0.338200	0.317100	0.393900
C6771	C677	0.435200	0.354300	0.391120
C6781	C678	0.522200	0.366270	0.399290
H3751	H375	0.548200	0.385800	0.393800
C6791	C679	0.570500	0.349100	0.415720
H3761	H376	0.628800	0.357100	0.421200
C6801	C680	0.633700	0.402610	0.605390
C6811	C681	0.721100	0.386500	0.601840
H3771	H377	0.774000	0.391000	0.610700
C6821	C682	0.729300	0.363500	0.584980
H3781	H378	0.787700	0.352700	0.582600
C6831	C683	0.650200	0.356700	0.571660
C6841	C684	0.562800	0.372800	0.575210
H3791	H379	0.509900	0.368300	0.566300
C6851	C685	0.554600	0.395800	0.592070
H3801	H380	0.496200	0.406600	0.594400
C6861	C686	0.662300	0.303900	0.448400
H3811	H381	0.704200	0.316900	0.440200
C6871	C687	0.660400	0.332200	0.553600
H3821	H382	0.603500	0.321900	0.549200
C6881	C688	0.572800	0.302900	0.442900
H3831	H383	0.531100	0.290400	0.451600
C6891	C689	0.352000	0.534100	0.622600
C6901	C690	0.739700	0.323000	0.542900
H3841	H384	0.797000	0.333600	0.546600
C6911	C691	0.704900	0.283700	0.468800
C6921	C692	0.745000	0.296900	0.525200
O1641	O164	0.633200	0.269100	0.479060
O1651	O165	0.662500	0.280000	0.523880
C6931	C693	0.244000	0.579400	0.628000
O1661	O166	0.241600	0.593300	0.608700
O1671	O167	0.206000	0.587900	0.642800
C6941	C694	0.036000	0.626100	0.519300
O1681	O168	0.076900	0.625500	0.569500
C6951	C695	0.301000	0.549300	0.633500
C6961	C696	0.432000	0.192700	0.610400
O1691	O169	0.294000	0.463800	0.777600
O1701	O170	0.316500	0.454000	0.734300
C6971	C697	0.038600	0.298580	0.626320
C6981	C698	0.026200	0.280100	0.645330
H3851	H385	0.060700	0.285400	0.657900
C6991	C699	0.962000	0.253600	0.645510
H3861	H386	0.953700	0.241200	0.658200
C7001	C700	0.910400	0.245700	0.626700
C7011	C701	0.922800	0.264200	0.607670
H3871	H387	0.888300	0.258800	0.595100
C7021	C702	0.987000	0.290600	0.607490
H3881	H388	0.995300	0.303000	0.594800
Cu251	Cu25	0.337890	0.490700	0.754010
C7031	C703	0.031700	0.430100	0.826020
C7041	C704	0.944700	0.442060	0.834180
H3891	H389	0.918800	0.461600	0.828700
C7051	C705	0.896400	0.424900	0.850610
H3901	H390	0.838200	0.432900	0.856100
C7061	C706	0.935200	0.395700	0.858880
C7071	C707	0.022200	0.383730	0.850710
H3911	H391	0.048200	0.364200	0.856200
C7081	C708	0.070500	0.400900	0.834280
H3921	H392	0.128800	0.392900	0.828800
C7091	C709	0.133700	0.347390	0.644610
C7101	C710	0.221100	0.363500	0.648160
H3931	H393	0.274000	0.359000	0.639300
C7111	C711	0.229300	0.386500	0.665020
H3941	H394	0.287700	0.397300	0.667400
C7121	C712	0.150200	0.393300	0.678340
C7131	C713	0.062800	0.377200	0.674790
H3951	H395	0.009900	0.381700	0.683700
C7141	C714	0.054600	0.354200	0.657930
H3961	H396	0.996200	0.343400	0.655600
C7151	C715	0.162300	0.446100	0.801600
H3971	H397	0.204200	0.433100	0.809800
C7161	C716	0.160400	0.417800	0.696400
H3981	H398	0.103500	0.428100	0.700800
C7171	C717	0.072800	0.447100	0.807100
H3991	H399	0.031100	0.459600	0.798400
C7181	C718	0.852000	0.215900	0.627400
C7191	C719	0.239700	0.427000	0.707100
H4001	H400	0.297000	0.416400	0.703400
C7201	C720	0.204900	0.466300	0.781200
C7211	C721	0.245000	0.453100	0.724800
O1711	O171	0.133200	0.480900	0.770940
O1721	O172	0.162500	0.470000	0.726120
C7221	C722	0.744000	0.170600	0.622000
O1731	O173	0.741600	0.156700	0.641300
O1741	O174	0.706000	0.162100	0.607200
C7231	C723	0.536000	0.123900	0.730700
O1751	O175	0.576900	0.124500	0.680500
C7241	C724	0.801000	0.200700	0.616500
C7251	C725	0.932000	0.557300	0.639600
O1761	O176	0.294000	0.963800	0.277600
O1771	O177	0.316500	0.954000	0.234300
C7261	C726	0.038600	0.798580	0.126320
C7271	C727	0.026200	0.780100	0.145330
H4011	H401	0.060700	0.785400	0.157900
C7281	C728	0.962000	0.753600	0.145510
H4021	H402	0.953700	0.741200	0.158200
C7291	C729	0.910400	0.745700	0.126700
C7301	C730	0.922800	0.764200	0.107670
H4031	H403	0.888300	0.758800	0.095100
C7311	C731	0.987000	0.790600	0.107490
H4041	H404	0.995300	0.803000	0.094800
Cu261	Cu26	0.337890	0.990700	0.254010
C7321	C732	0.031700	0.930100	0.326020
C7331	C733	0.944700	0.942060	0.334180
H4051	H405	0.918800	0.961600	0.328700
C7341	C734	0.896400	0.924900	0.350610
H4061	H406	0.838200	0.932900	0.356100
C7351	C735	0.935200	0.895700	0.358880
C7361	C736	0.022200	0.883730	0.350710
H4071	H407	0.048200	0.864200	0.356200
C7371	C737	0.070500	0.900900	0.334280
H4081	H408	0.128800	0.892900	0.328800
C7381	C738	0.133700	0.847390	0.144610
C7391	C739	0.221100	0.863500	0.148160
H4091	H409	0.274000	0.859000	0.139300
C7401	C740	0.229300	0.886500	0.165020
H4101	H410	0.287700	0.897300	0.167400
C7411	C741	0.150200	0.893300	0.178340
C7421	C742	0.062800	0.877200	0.174790
H4111	H411	0.009900	0.881700	0.183700
C7431	C743	0.054600	0.854200	0.157930
H4121	H412	0.996200	0.843400	0.155600
C7441	C744	0.162300	0.946100	0.301600
H4131	H413	0.204200	0.933100	0.309800
C7451	C745	0.160400	0.917800	0.196400
H4141	H414	0.103500	0.928100	0.200800
C7461	C746	0.072800	0.947100	0.307100
H4151	H415	0.031100	0.959600	0.298400
C7471	C747	0.852000	0.715900	0.127400
C7481	C748	0.239700	0.927000	0.207100
H4161	H416	0.297000	0.916400	0.203400
C7491	C749	0.204900	0.966300	0.281200
C7501	C750	0.245000	0.953100	0.224800
O1781	O178	0.133200	0.980900	0.270940
O1791	O179	0.162500	0.970000	0.226120
C7511	C751	0.744000	0.670600	0.122000
O1801	O180	0.741600	0.656700	0.141300
O1811	O181	0.706000	0.662100	0.107200
C7521	C752	0.536000	0.623900	0.230700
O1821	O182	0.576900	0.624500	0.180500
C7531	C753	0.801000	0.700700	0.116500
C7541	C754	0.932000	0.057300	0.139600
O1831	O183	0.794000	0.463800	0.277600
O1841	O184	0.816500	0.454000	0.234300
C7551	C755	0.538600	0.298580	0.126320
C7561	C756	0.526200	0.280100	0.145330
H4171	H417	0.560700	0.285400	0.157900
C7571	C757	0.462000	0.253600	0.145510
H4181	H418	0.453700	0.241200	0.158200
C7581	C758	0.410400	0.245700	0.126700
C7591	C759	0.422800	0.264200	0.107670
H4191	H419	0.388300	0.258800	0.095100
C7601	C760	0.487000	0.290600	0.107490
H4201	H420	0.495300	0.303000	0.094800
Cu271	Cu27	0.837890	0.490700	0.254010
C7611	C761	0.531700	0.430100	0.326020
C7621	C762	0.444700	0.442060	0.334180
H4211	H421	0.418800	0.461600	0.328700
C7631	C763	0.396400	0.424900	0.350610
H4221	H422	0.338200	0.432900	0.356100
C7641	C764	0.435200	0.395700	0.358880
C7651	C765	0.522200	0.383730	0.350710
H4231	H423	0.548200	0.364200	0.356200
C7661	C766	0.570500	0.400900	0.334280
H4241	H424	0.628800	0.392900	0.328800
C7671	C767	0.633700	0.347390	0.144610
C7681	C768	0.721100	0.363500	0.148160
H4251	H425	0.774000	0.359000	0.139300
C7691	C769	0.729300	0.386500	0.165020
H4261	H426	0.787700	0.397300	0.167400
C7701	C770	0.650200	0.393300	0.178340
C7711	C771	0.562800	0.377200	0.174790
H4271	H427	0.509900	0.381700	0.183700
C7721	C772	0.554600	0.354200	0.157930
H4281	H428	0.496200	0.343400	0.155600
C7731	C773	0.662300	0.446100	0.301600
H4291	H429	0.704200	0.433100	0.309800
C7741	C774	0.660400	0.417800	0.196400
H4301	H430	0.603500	0.428100	0.200800
C7751	C775	0.572800	0.447100	0.307100
H4311	H431	0.531100	0.459600	0.298400
C7761	C776	0.352000	0.215900	0.127400
C7771	C777	0.739700	0.427000	0.207100
H4321	H432	0.797000	0.416400	0.203400
C7781	C778	0.704900	0.466300	0.281200
C7791	C779	0.745000	0.453100	0.224800
O1851	O185	0.633200	0.480900	0.270940
O1861	O186	0.662500	0.470000	0.226120
C7801	C780	0.244000	0.170600	0.122000
O1871	O187	0.241600	0.156700	0.141300
O1881	O188	0.206000	0.162100	0.107200
C7811	C781	0.036000	0.123900	0.230700
O1891	O189	0.076900	0.124500	0.180500
C7821	C782	0.301000	0.200700	0.116500
C7831	C783	0.432000	0.557300	0.139600
O1901	O190	0.794000	0.963800	0.777600
O1911	O191	0.816500	0.954000	0.734300
C7841	C784	0.538600	0.798580	0.626320
C7851	C785	0.526200	0.780100	0.645330
H4331	H433	0.560700	0.785400	0.657900
C7861	C786	0.462000	0.753600	0.645510
H4341	H434	0.453700	0.741200	0.658200
C7871	C787	0.410400	0.745700	0.626700
C7881	C788	0.422800	0.764200	0.607670
H4351	H435	0.388300	0.758800	0.595100
C7891	C789	0.487000	0.790600	0.607490
H4361	H436	0.495300	0.803000	0.594800
Cu281	Cu28	0.837890	0.990700	0.754010
C7901	C790	0.531700	0.930100	0.826020
C7911	C791	0.444700	0.942060	0.834180
H4371	H437	0.418800	0.961600	0.828700
C7921	C792	0.396400	0.924900	0.850610
H4381	H438	0.338200	0.932900	0.856100
C7931	C793	0.435200	0.895700	0.858880
C7941	C794	0.522200	0.883730	0.850710
H4391	H439	0.548200	0.864200	0.856200
C7951	C795	0.570500	0.900900	0.834280
H4401	H440	0.628800	0.892900	0.828800
C7961	C796	0.633700	0.847390	0.644610
C7971	C797	0.721100	0.863500	0.648160
H4411	H441	0.774000	0.859000	0.639300
C7981	C798	0.729300	0.886500	0.665020
H4421	H442	0.787700	0.897300	0.667400
C7991	C799	0.650200	0.893300	0.678340
C8001	C800	0.562800	0.877200	0.674790
H4431	H443	0.509900	0.881700	0.683700
C8011	C801	0.554600	0.854200	0.657930
H4441	H444	0.496200	0.843400	0.655600
C8021	C802	0.662300	0.946100	0.801600
H4451	H445	0.704200	0.933100	0.809800
C8031	C803	0.660400	0.917800	0.696400
H4461	H446	0.603500	0.928100	0.700800
C8041	C804	0.572800	0.947100	0.807100
H4471	H447	0.531100	0.959600	0.798400
C8051	C805	0.352000	0.715900	0.627400
C8061	C806	0.739700	0.927000	0.707100
H4481	H448	0.797000	0.916400	0.703400
C8071	C807	0.704900	0.966300	0.781200
C8081	C808	0.745000	0.953100	0.724800
O1921	O192	0.633200	0.980900	0.770940
O1931	O193	0.662500	0.970000	0.726120
C8091	C809	0.244000	0.670600	0.622000
O1941	O194	0.241600	0.656700	0.641300
O1951	O195	0.206000	0.662100	0.607200
C8101	C810	0.036000	0.623900	0.730700
O1961	O196	0.076900	0.624500	0.680500
C8111	C811	0.301000	0.700700	0.616500
C8121	C812	0.432000	0.057300	0.639600
O1971	O197	0.956000	0.786200	0.777600
O1981	O198	0.933500	0.796000	0.734300
C8131	C813	0.211400	0.951420	0.626320
C8141	C814	0.223800	0.969900	0.645330
H4491	H449	0.189300	0.964600	0.657900
C8151	C815	0.288000	0.996400	0.645510
H4501	H450	0.296300	0.008800	0.658200
C8161	C816	0.339600	0.004300	0.626700
C8171	C817	0.327200	0.985800	0.607670
H4511	H451	0.361700	0.991200	0.595100
C8181	C818	0.263000	0.959400	0.607490
H4521	H452	0.254700	0.947000	0.594800
Cu291	Cu29	0.912110	0.759300	0.754010
C8191	C819	0.218300	0.819900	0.826020
C8201	C820	0.305300	0.807940	0.834180
H4531	H453	0.331200	0.788400	0.828700
C8211	C821	0.353600	0.825100	0.850610
H4541	H454	0.411800	0.817100	0.856100
C8221	C822	0.314800	0.854300	0.858880
C8231	C823	0.227800	0.866270	0.850710
H4551	H455	0.201800	0.885800	0.856200
C8241	C824	0.179500	0.849100	0.834280
H4561	H456	0.121200	0.857100	0.828800
C8251	C825	0.116300	0.902610	0.644610
C8261	C826	0.028900	0.886500	0.648160
H4571	H457	0.976000	0.891000	0.639300
C8271	C827	0.020700	0.863500	0.665020
H4581	H458	0.962300	0.852700	0.667400
C8281	C828	0.099800	0.856700	0.678340
C8291	C829	0.187200	0.872800	0.674790
H4591	H459	0.240100	0.868300	0.683700
C8301	C830	0.195400	0.895800	0.657930
H4601	H460	0.253800	0.906600	0.655600
C8311	C831	0.087700	0.803900	0.801600
H4611	H461	0.045800	0.816900	0.809800
C8321	C832	0.089600	0.832200	0.696400
H4621	H462	0.146500	0.821900	0.700800
C8331	C833	0.177200	0.802900	0.807100
H4631	H463	0.218900	0.790400	0.798400
C8341	C834	0.398000	0.034100	0.627400
C8351	C835	0.010300	0.823000	0.707100
H4641	H464	0.953000	0.833600	0.703400
C8361	C836	0.045100	0.783700	0.781200
C8371	C837	0.005000	0.796900	0.724800
O1991	O199	0.116800	0.769100	0.770940
O2001	O200	0.087500	0.780000	0.726120
C8381	C838	0.506000	0.079400	0.622000
O2011	O201	0.508400	0.093300	0.641300
O2021	O202	0.544000	0.087900	0.607200
C8391	C839	0.714000	0.126100	0.730700
O2031	O203	0.673100	0.125500	0.680500
C8401	C840	0.449000	0.049300	0.616500
C8411	C841	0.318000	0.692700	0.639600
O2041	O204	0.956000	0.286200	0.277600
O2051	O205	0.933500	0.296000	0.234300
C8421	C842	0.211400	0.451420	0.126320
C8431	C843	0.223800	0.469900	0.145330
H4651	H465	0.189300	0.464600	0.157900
C8441	C844	0.288000	0.496400	0.145510
H4661	H466	0.296300	0.508800	0.158200
C8451	C845	0.339600	0.504300	0.126700
C8461	C846	0.327200	0.485800	0.107670
H4671	H467	0.361700	0.491200	0.095100
C8471	C847	0.263000	0.459400	0.107490
H4681	H468	0.254700	0.447000	0.094800
Cu301	Cu30	0.912110	0.259300	0.254010
C8481	C848	0.218300	0.319900	0.326020
C8491	C849	0.305300	0.307940	0.334180
H4691	H469	0.331200	0.288400	0.328700
C8501	C850	0.353600	0.325100	0.350610
H4701	H470	0.411800	0.317100	0.356100
C8511	C851	0.314800	0.354300	0.358880
C8521	C852	0.227800	0.366270	0.350710
H4711	H471	0.201800	0.385800	0.356200
C8531	C853	0.179500	0.349100	0.334280
H4721	H472	0.121200	0.357100	0.328800
C8541	C854	0.116300	0.402610	0.144610
C8551	C855	0.028900	0.386500	0.148160
H4731	H473	0.976000	0.391000	0.139300
C8561	C856	0.020700	0.363500	0.165020
H4741	H474	0.962300	0.352700	0.167400
C8571	C857	0.099800	0.356700	0.178340
C8581	C858	0.187200	0.372800	0.174790
H4751	H475	0.240100	0.368300	0.183700
C8591	C859	0.195400	0.395800	0.157930
H4761	H476	0.253800	0.406600	0.155600
C8601	C860	0.087700	0.303900	0.301600
H4771	H477	0.045800	0.316900	0.309800
C8611	C861	0.089600	0.332200	0.196400
H4781	H478	0.146500	0.321900	0.200800
C8621	C862	0.177200	0.302900	0.307100
H4791	H479	0.218900	0.290400	0.298400
C8631	C863	0.398000	0.534100	0.127400
C8641	C864	0.010300	0.323000	0.207100
H4801	H480	0.953000	0.333600	0.203400
C8651	C865	0.045100	0.283700	0.281200
C8661	C866	0.005000	0.296900	0.224800
O2061	O206	0.116800	0.269100	0.270940
O2071	O207	0.087500	0.280000	0.226120
C8671	C867	0.506000	0.579400	0.122000
O2081	O208	0.508400	0.593300	0.141300
O2091	O209	0.544000	0.587900	0.107200
C8681	C868	0.714000	0.626100	0.230700
O2101	O210	0.673100	0.625500	0.180500
C8691	C869	0.449000	0.549300	0.116500
C8701	C870	0.318000	0.192700	0.139600
O2111	O211	0.456000	0.786200	0.277600
O2121	O212	0.433500	0.796000	0.234300
C8711	C871	0.711400	0.951420	0.126320
C8721	C872	0.723800	0.969900	0.145330
H4811	H481	0.689300	0.964600	0.157900
C8731	C873	0.788000	0.996400	0.145510
H4821	H482	0.796300	0.008800	0.158200
C8741	C874	0.839600	0.004300	0.126700
C8751	C875	0.827200	0.985800	0.107670
H4831	H483	0.861700	0.991200	0.095100
C8761	C876	0.763000	0.959400	0.107490
H4841	H484	0.754700	0.947000	0.094800
Cu311	Cu31	0.412110	0.759300	0.254010
C8771	C877	0.718300	0.819900	0.326020
C8781	C878	0.805300	0.807940	0.334180
H4851	H485	0.831200	0.788400	0.328700
C8791	C879	0.853600	0.825100	0.350610
H4861	H486	0.911800	0.817100	0.356100
C8801	C880	0.814800	0.854300	0.358880
C8811	C881	0.727800	0.866270	0.350710
H4871	H487	0.701800	0.885800	0.356200
C8821	C882	0.679500	0.849100	0.334280
H4881	H488	0.621200	0.857100	0.328800
C8831	C883	0.616300	0.902610	0.144610
C8841	C884	0.528900	0.886500	0.148160
H4891	H489	0.476000	0.891000	0.139300
C8851	C885	0.520700	0.863500	0.165020
H4901	H490	0.462300	0.852700	0.167400
C8861	C886	0.599800	0.856700	0.178340
C8871	C887	0.687200	0.872800	0.174790
H4911	H491	0.740100	0.868300	0.183700
C8881	C888	0.695400	0.895800	0.157930
H4921	H492	0.753800	0.906600	0.155600
C8891	C889	0.587700	0.803900	0.301600
H4931	H493	0.545800	0.816900	0.309800
C8901	C890	0.589600	0.832200	0.196400
H4941	H494	0.646500	0.821900	0.200800
C8911	C891	0.677200	0.802900	0.307100
H4951	H495	0.718900	0.790400	0.298400
C8921	C892	0.898000	0.034100	0.127400
C8931	C893	0.510300	0.823000	0.207100
H4961	H496	0.453000	0.833600	0.203400
C8941	C894	0.545100	0.783700	0.281200
C8951	C895	0.505000	0.796900	0.224800
O2131	O213	0.616800	0.769100	0.270940
O2141	O214	0.587500	0.780000	0.226120
C8961	C896	0.006000	0.079400	0.122000
O2151	O215	0.008400	0.093300	0.141300
O2161	O216	0.044000	0.087900	0.107200
C8971	C897	0.214000	0.126100	0.230700
O2171	O217	0.173100	0.125500	0.180500
C8981	C898	0.949000	0.049300	0.116500
C8991	C899	0.818000	0.692700	0.139600
O2181	O218	0.456000	0.286200	0.777600
O2191	O219	0.433500	0.296000	0.734300
C9001	C900	0.711400	0.451420	0.626320
C9011	C901	0.723800	0.469900	0.645330
H4971	H497	0.689300	0.464600	0.657900
C9021	C902	0.788000	0.496400	0.645510
H4981	H498	0.796300	0.508800	0.658200
C9031	C903	0.839600	0.504300	0.626700
C9041	C904	0.827200	0.485800	0.607670
H4991	H499	0.861700	0.491200	0.595100
C9051	C905	0.763000	0.459400	0.607490
H5001	H500	0.754700	0.447000	0.594800
Cu321	Cu32	0.412110	0.259300	0.754010
C9061	C906	0.718300	0.319900	0.826020
C9071	C907	0.805300	0.307940	0.834180
H5011	H501	0.831200	0.288400	0.828700
C9081	C908	0.853600	0.325100	0.850610
H5021	H502	0.911800	0.317100	0.856100
C9091	C909	0.814800	0.354300	0.858880
C9101	C910	0.727800	0.366270	0.850710
H5031	H503	0.701800	0.385800	0.856200
C9111	C911	0.679500	0.349100	0.834280
H5041	H504	0.621200	0.357100	0.828800
C9121	C912	0.616300	0.402610	0.644610
C9131	C913	0.528900	0.386500	0.648160
H5051	H505	0.476000	0.391000	0.639300
C9141	C914	0.520700	0.363500	0.665020
H5061	H506	0.462300	0.352700	0.667400
C9151	C915	0.599800	0.356700	0.678340
C9161	C916	0.687200	0.372800	0.674790
H5071	H507	0.740100	0.368300	0.683700
C9171	C917	0.695400	0.395800	0.657930
H5081	H508	0.753800	0.406600	0.655600
C9181	C918	0.587700	0.303900	0.801600
H5091	H509	0.545800	0.316900	0.809800
C9191	C919	0.589600	0.332200	0.696400
H5101	H510	0.646500	0.321900	0.700800
C9201	C920	0.677200	0.302900	0.807100
H5111	H511	0.718900	0.290400	0.798400
C9211	C921	0.898000	0.534100	0.627400
C9221	C922	0.510300	0.323000	0.707100
H5121	H512	0.453000	0.333600	0.703400
C9231	C923	0.545100	0.283700	0.781200
C9241	C924	0.505000	0.296900	0.724800
O2201	O220	0.616800	0.269100	0.770940
O2211	O221	0.587500	0.280000	0.726120
C9251	C925	0.006000	0.579400	0.622000
O2221	O222	0.008400	0.593300	0.641300
O2231	O223	0.044000	0.587900	0.607200
C9261	C926	0.214000	0.626100	0.730700
O2241	O224	0.173100	0.625500	0.680500
C9271	C927	0.949000	0.549300	0.616500
C9281	C928	0.818000	0.192700	0.639600
Cu331	Cu33	0.375000	0.875000	0.396060
C9291	C929	0.375000	0.875000	0.444100
N11	N1	0.375000	0.875000	0.466400
Cu341	Cu34	0.375000	0.375000	0.896060
C9301	C930	0.375000	0.375000	0.944100
N21	N2	0.375000	0.375000	0.966400
Cu351	Cu35	0.875000	0.875000	0.896060
C9311	C931	0.875000	0.875000	0.944100
N31	N3	0.875000	0.875000	0.966400
Cu361	Cu36	0.875000	0.375000	0.396060
C9321	C932	0.875000	0.375000	0.444100
N41	N4	0.875000	0.375000	0.466400
Cu371	Cu37	0.375000	0.875000	0.353940
C9331	C933	0.375000	0.875000	0.305900
N51	N5	0.375000	0.875000	0.283600
Cu381	Cu38	0.375000	0.375000	0.853940
C9341	C934	0.375000	0.375000	0.805900
N61	N6	0.375000	0.375000	0.783600
Cu391	Cu39	0.875000	0.875000	0.853940
C9351	C935	0.875000	0.875000	0.805900
N71	N7	0.875000	0.875000	0.783600
Cu401	Cu40	0.875000	0.375000	0.353940
C9361	C936	0.875000	0.375000	0.305900
N81	N8	0.875000	0.375000	0.283600
Cu411	Cu41	0.625000	0.125000	0.603940
C9371	C937	0.625000	0.125000	0.555900
N91	N9	0.625000	0.125000	0.533600
Cu421	Cu42	0.625000	0.625000	0.103940
C9381	C938	0.625000	0.625000	0.055900
N101	N10	0.625000	0.625000	0.033600
Cu431	Cu43	0.125000	0.125000	0.103940
C9391	C939	0.125000	0.125000	0.055900
N111	N11	0.125000	0.125000	0.033600
Cu441	Cu44	0.125000	0.625000	0.603940
C9401	C940	0.125000	0.625000	0.555900
N121	N12	0.125000	0.625000	0.533600
Cu451	Cu45	0.625000	0.125000	0.646060
C9411	C941	0.625000	0.125000	0.694100
N131	N13	0.625000	0.125000	0.716400
Cu461	Cu46	0.625000	0.625000	0.146060
C9421	C942	0.625000	0.625000	0.194100
N141	N14	0.625000	0.625000	0.216400
Cu471	Cu47	0.125000	0.125000	0.146060
C9431	C943	0.125000	0.125000	0.194100
N151	N15	0.125000	0.125000	0.216400
Cu481	Cu48	0.125000	0.625000	0.646060
C9441	C944	0.125000	0.625000	0.694100
N161	N16	0.125000	0.625000	0.716400
C9451	C945	0.875000	0.677000	0.375000
C9461	C946	0.875000	0.177000	0.875000
C9471	C947	0.375000	0.677000	0.875000
C9481	C948	0.375000	0.177000	0.375000
C9491	C949	0.875000	0.073000	0.375000
C9501	C950	0.875000	0.573000	0.875000
C9511	C951	0.375000	0.073000	0.875000
C9521	C952	0.375000	0.573000	0.375000
C9531	C953	0.125000	0.323000	0.625000
C9541	C954	0.125000	0.823000	0.125000
C9551	C955	0.625000	0.323000	0.125000
C9561	C956	0.625000	0.823000	0.625000
C9571	C957	0.125000	0.927000	0.625000
C9581	C958	0.125000	0.427000	0.125000
C9591	C959	0.625000	0.927000	0.125000
C9601	C960	0.625000	0.427000	0.625000
C9611	C961	0.625000	0.625000	0.625000
C9621	C962	0.125000	0.125000	0.625000
C9631	C963	0.125000	0.625000	0.125000
C9641	C964	0.625000	0.125000	0.125000
C9651	C965	0.375000	0.375000	0.375000
C9661	C966	0.875000	0.875000	0.375000
C9671	C967	0.875000	0.375000	0.875000
C9681	C968	0.375000	0.875000	0.875000
