data_OWIZAW_clean_PM
_symmetry_space_group_name_H-M	'P1'
_cell_length_a	19.948200
_cell_length_b	19.948200
_cell_length_c	45.448000
_cell_angle_alpha	93.420300
_cell_angle_beta	93.420300
_cell_angle_gamma	96.612500
_symmetry_Int_Tables_number 1

loop_
_symmetry_equiv_pos_as_xyz
'x,y,z'

loop_
_atom_site_label
_atom_site_type_symbol
_atom_site_fract_x
_atom_site_fract_y
_atom_site_fract_z
Cu11	Cu1	0.473720	0.907420	0.314500
Cu21	Cu2	0.338300	0.884940	0.305430
Cu31	Cu3	0.907420	0.473720	0.814500
Cu41	Cu4	0.884940	0.338300	0.805430
H11	H1	0.485200	0.062600	0.383900
H21	H2	0.474700	0.138500	0.423600
H31	H3	0.272400	0.097800	0.413100
H41	H4	0.282900	0.021900	0.373400
H51	H5	0.463500	0.361900	0.538300
H61	H6	0.462000	0.276600	0.501200
H71	H7	0.259100	0.262900	0.492300
H81	H8	0.260600	0.348200	0.529400
H91	H9	0.311100	0.725700	0.364500
H101	H10	0.304700	0.661100	0.405300
H111	H11	0.486600	0.752200	0.437600
H121	H12	0.492900	0.816900	0.396800
H131	H13	0.266000	0.479400	0.529800
H141	H14	0.271100	0.556700	0.493600
H151	H15	0.473900	0.582700	0.505400
H161	H16	0.468800	0.505400	0.541600
H171	H17	0.749300	0.522900	0.751700
H181	H18	0.671100	0.532900	0.712800
H191	H19	0.660400	0.333200	0.691700
H201	H20	0.738600	0.323200	0.730600
H211	H21	0.036700	0.312100	0.741700
H221	H22	0.095900	0.312900	0.699300
H231	H23	0.073700	0.509300	0.692800
H241	H24	0.014500	0.508500	0.735200
H251	H25	0.292000	0.320400	0.582400
H261	H26	0.212000	0.316000	0.617500
H271	H27	0.215400	0.518000	0.619000
H281	H28	0.295400	0.522400	0.583900
H291	H29	0.423700	0.330700	0.585400
H301	H30	0.505400	0.336600	0.624300
H311	H31	0.514900	0.539300	0.629900
H321	H32	0.433300	0.533500	0.591000
H331	H33	0.062600	0.485200	0.883900
H341	H34	0.138500	0.474700	0.923600
H351	H35	0.097800	0.272400	0.913100
H361	H36	0.021900	0.282900	0.873400
H371	H37	0.361900	0.463500	0.038300
H381	H38	0.276600	0.462000	0.001200
H391	H39	0.262900	0.259100	0.992300
H401	H40	0.348200	0.260600	0.029400
H411	H41	0.725700	0.311100	0.864500
H421	H42	0.661100	0.304700	0.905300
H431	H43	0.752200	0.486600	0.937600
H441	H44	0.816900	0.492900	0.896800
H451	H45	0.479400	0.266000	0.029800
H461	H46	0.556700	0.271100	0.993600
H471	H47	0.582700	0.473900	0.005400
H481	H48	0.505400	0.468800	0.041600
H491	H49	0.522900	0.749300	0.251700
H501	H50	0.532900	0.671100	0.212800
H511	H51	0.333200	0.660400	0.191700
H521	H52	0.323200	0.738600	0.230600
H531	H53	0.312100	0.036700	0.241700
H541	H54	0.312900	0.095900	0.199300
H551	H55	0.509300	0.073700	0.192800
H561	H56	0.508500	0.014500	0.235200
H571	H57	0.320400	0.292000	0.082400
H581	H58	0.316000	0.212000	0.117500
H591	H59	0.518000	0.215400	0.119000
H601	H60	0.522400	0.295400	0.083900
H611	H61	0.330700	0.423700	0.085400
H621	H62	0.336600	0.505400	0.124300
H631	H63	0.539300	0.514900	0.129900
H641	H64	0.533500	0.433300	0.091000
C11	C1	0.385100	0.034700	0.374720
C21	C2	0.442600	0.069600	0.389800
C31	C3	0.436300	0.115100	0.413600
C41	C4	0.372500	0.125700	0.422300
C51	C5	0.315000	0.090800	0.407200
C61	C6	0.321300	0.045300	0.383500
C71	C7	0.362200	0.363600	0.537540
C81	C8	0.422500	0.342100	0.529100
C91	C9	0.421600	0.291000	0.506900
C101	C10	0.360400	0.261400	0.493070
C111	C11	0.300100	0.282700	0.501500
C121	C12	0.301000	0.333800	0.523800
C131	C13	0.402600	0.777800	0.376640
C141	C14	0.346300	0.731100	0.379200
C151	C15	0.342500	0.692300	0.403600
C161	C16	0.395000	0.700200	0.425400
C171	C17	0.451400	0.747000	0.422900
C181	C18	0.455100	0.785700	0.398500
C191	C19	0.366900	0.484700	0.539280
C201	C20	0.307700	0.500100	0.524900
C211	C21	0.310700	0.546500	0.503200
C221	C22	0.373000	0.577400	0.495900
C231	C23	0.432200	0.562000	0.510300
C241	C24	0.429100	0.515700	0.532000
C251	C25	0.751700	0.422100	0.745030
C261	C26	0.731500	0.484900	0.739700
C271	C27	0.684600	0.490800	0.716400
C281	C28	0.658000	0.434000	0.698430
C291	C29	0.678200	0.371200	0.703800
C301	C30	0.725100	0.365300	0.727100
C311	C31	0.019800	0.410200	0.742690
C321	C32	0.044100	0.351700	0.731900
C331	C33	0.079600	0.352200	0.706500
C341	C34	0.090700	0.411300	0.691870
C351	C35	0.066400	0.469800	0.702600
C361	C36	0.030900	0.469300	0.728000
C371	C37	0.301600	0.421800	0.579690
C381	C38	0.276600	0.360000	0.589700
C391	C39	0.228700	0.357300	0.610800
C401	C40	0.205800	0.416600	0.621700
C411	C41	0.230800	0.478400	0.611700
C421	C42	0.278800	0.481000	0.590600
C431	C43	0.420400	0.431600	0.584330
C441	C44	0.442000	0.372600	0.594300
C451	C45	0.490900	0.376100	0.617600
C461	C46	0.518200	0.438600	0.630990
C471	C47	0.496600	0.497600	0.621000
C481	C48	0.447800	0.494000	0.597700
C491	C49	0.363600	0.426400	0.560300
C501	C50	0.393900	0.985700	0.350000
C511	C51	0.409500	0.819300	0.350000
C521	C52	0.804100	0.418700	0.770600
C531	C53	0.977100	0.409100	0.768900
C541	C54	0.367400	0.213000	0.469200
C551	C55	0.369000	0.175000	0.447900
C561	C56	0.385700	0.622300	0.472200
C571	C57	0.389500	0.657300	0.450800
C581	C58	0.122300	0.412700	0.664400
C591	C59	0.166300	0.415700	0.646900
C601	C60	0.569600	0.445200	0.655500
C611	C61	0.611600	0.441200	0.675400
C621	C62	0.034700	0.385100	0.874720
C631	C63	0.069600	0.442600	0.889800
C641	C64	0.115100	0.436300	0.913600
C651	C65	0.125700	0.372500	0.922300
C661	C66	0.090800	0.315000	0.907200
C671	C67	0.045300	0.321300	0.883500
C681	C68	0.363600	0.362200	0.037540
C691	C69	0.342100	0.422500	0.029100
C701	C70	0.291000	0.421600	0.006900
C711	C71	0.261400	0.360400	0.993070
C721	C72	0.282700	0.300100	0.001500
C731	C73	0.333800	0.301000	0.023800
C741	C74	0.777800	0.402600	0.876640
C751	C75	0.731100	0.346300	0.879200
C761	C76	0.692300	0.342500	0.903600
C771	C77	0.700200	0.395000	0.925400
C781	C78	0.747000	0.451400	0.922900
C791	C79	0.785700	0.455100	0.898500
C801	C80	0.484700	0.366900	0.039280
C811	C81	0.500100	0.307700	0.024900
C821	C82	0.546500	0.310700	0.003200
C831	C83	0.577400	0.373000	0.995900
C841	C84	0.562000	0.432200	0.010300
C851	C85	0.515700	0.429100	0.032000
C861	C86	0.422100	0.751700	0.245030
C871	C87	0.484900	0.731500	0.239700
C881	C88	0.490800	0.684600	0.216400
C891	C89	0.434000	0.658000	0.198430
C901	C90	0.371200	0.678200	0.203800
C911	C91	0.365300	0.725100	0.227100
C921	C92	0.410200	0.019800	0.242690
C931	C93	0.351700	0.044100	0.231900
C941	C94	0.352200	0.079600	0.206500
C951	C95	0.411300	0.090700	0.191870
C961	C96	0.469800	0.066400	0.202600
C971	C97	0.469300	0.030900	0.228000
C981	C98	0.421800	0.301600	0.079690
C991	C99	0.360000	0.276600	0.089700
C1001	C100	0.357300	0.228700	0.110800
C1011	C101	0.416600	0.205800	0.121700
C1021	C102	0.478400	0.230800	0.111700
C1031	C103	0.481000	0.278800	0.090600
C1041	C104	0.431600	0.420400	0.084330
C1051	C105	0.372600	0.442000	0.094300
C1061	C106	0.376100	0.490900	0.117600
C1071	C107	0.438600	0.518200	0.130990
C1081	C108	0.497600	0.496600	0.121000
C1091	C109	0.494000	0.447800	0.097700
C1101	C110	0.426400	0.363600	0.060300
C1111	C111	0.985700	0.393900	0.850000
C1121	C112	0.819300	0.409500	0.850000
C1131	C113	0.418700	0.804100	0.270600
C1141	C114	0.409100	0.977100	0.268900
C1151	C115	0.213000	0.367400	0.969200
C1161	C116	0.175000	0.369000	0.947900
C1171	C117	0.622300	0.385700	0.972200
C1181	C118	0.657300	0.389500	0.950800
C1191	C119	0.412700	0.122300	0.164400
C1201	C120	0.415700	0.166300	0.146900
C1211	C121	0.445200	0.569600	0.155500
C1221	C122	0.441200	0.611600	0.175400
O11	O1	0.452700	0.981300	0.342000
O21	O2	0.335900	0.952700	0.339100
O31	O3	0.351200	0.815800	0.335100
O41	O4	0.469300	0.851300	0.347300
O51	O5	0.829700	0.473500	0.787100
O61	O6	0.821600	0.360400	0.774700
O71	O7	0.962800	0.466200	0.780800
O81	O8	0.957000	0.350800	0.777900
O91	O9	0.981300	0.452700	0.842000
O101	O10	0.952700	0.335900	0.839100
O111	O11	0.815800	0.351200	0.835100
O121	O12	0.851300	0.469300	0.847300
O131	O13	0.473500	0.829700	0.287100
O141	O14	0.360400	0.821600	0.274700
O151	O15	0.466200	0.962800	0.280800
O161	O16	0.350800	0.957000	0.277900
Cu51	Cu5	0.092580	0.526280	0.185500
Cu61	Cu6	0.115060	0.661700	0.194570
Cu71	Cu7	0.526280	0.092580	0.685500
Cu81	Cu8	0.661700	0.115060	0.694570
H651	H65	0.937400	0.514800	0.116100
H661	H66	0.861500	0.525300	0.076400
H671	H67	0.902200	0.727600	0.086900
H681	H68	0.978100	0.717100	0.126600
H691	H69	0.638100	0.536500	0.961700
H701	H70	0.723400	0.538000	0.998800
H711	H71	0.737100	0.740900	0.007700
H721	H72	0.651800	0.739400	0.970600
H731	H73	0.274300	0.688900	0.135500
H741	H74	0.338900	0.695300	0.094700
H751	H75	0.247800	0.513400	0.062400
H761	H76	0.183100	0.507100	0.103200
H771	H77	0.520600	0.734000	0.970200
H781	H78	0.443300	0.728900	0.006400
H791	H79	0.417300	0.526100	0.994600
H801	H80	0.494600	0.531200	0.958400
H811	H81	0.477100	0.250700	0.748300
H821	H82	0.467100	0.328900	0.787200
H831	H83	0.666800	0.339600	0.808300
H841	H84	0.676800	0.261400	0.769400
H851	H85	0.687900	0.963300	0.758300
H861	H86	0.687100	0.904100	0.800700
H871	H87	0.490700	0.926300	0.807200
H881	H88	0.491500	0.985500	0.764800
H891	H89	0.679600	0.708000	0.917600
H901	H90	0.684000	0.788000	0.882500
H911	H91	0.482000	0.784600	0.881000
H921	H92	0.477600	0.704600	0.916100
H931	H93	0.669300	0.576300	0.914600
H941	H94	0.663400	0.494600	0.875700
H951	H95	0.460700	0.485100	0.870100
H961	H96	0.466500	0.566700	0.909000
H971	H97	0.514800	0.937400	0.616100
H981	H98	0.525300	0.861500	0.576400
H991	H99	0.727600	0.902200	0.586900
H1001	H100	0.717100	0.978100	0.626600
H1011	H101	0.536500	0.638100	0.461700
H1021	H102	0.538000	0.723400	0.498800
H1031	H103	0.740900	0.737100	0.507700
H1041	H104	0.739400	0.651800	0.470600
H1051	H105	0.688900	0.274300	0.635500
H1061	H106	0.695300	0.338900	0.594700
H1071	H107	0.513400	0.247800	0.562400
H1081	H108	0.507100	0.183100	0.603200
H1091	H109	0.734000	0.520600	0.470200
H1101	H110	0.728900	0.443300	0.506400
H1111	H111	0.526100	0.417300	0.494600
H1121	H112	0.531200	0.494600	0.458400
H1131	H113	0.250700	0.477100	0.248300
H1141	H114	0.328900	0.467100	0.287200
H1151	H115	0.339600	0.666800	0.308300
H1161	H116	0.261400	0.676800	0.269400
H1171	H117	0.963300	0.687900	0.258300
H1181	H118	0.904100	0.687100	0.300700
H1191	H119	0.926300	0.490700	0.307200
H1201	H120	0.985500	0.491500	0.264800
H1211	H121	0.708000	0.679600	0.417600
H1221	H122	0.788000	0.684000	0.382500
H1231	H123	0.784600	0.482000	0.381000
H1241	H124	0.704600	0.477600	0.416100
H1251	H125	0.576300	0.669300	0.414600
H1261	H126	0.494600	0.663400	0.375700
H1271	H127	0.485100	0.460700	0.370100
H1281	H128	0.566700	0.466500	0.409000
C1231	C123	0.965300	0.614900	0.125280
C1241	C124	0.930400	0.557400	0.110200
C1251	C125	0.884900	0.563700	0.086400
C1261	C126	0.874300	0.627500	0.077700
C1271	C127	0.909200	0.685000	0.092800
C1281	C128	0.954700	0.678700	0.116500
C1291	C129	0.636400	0.637800	0.962460
C1301	C130	0.657900	0.577500	0.970900
C1311	C131	0.709000	0.578400	0.993100
C1321	C132	0.738600	0.639600	0.006930
C1331	C133	0.717300	0.699900	0.998500
C1341	C134	0.666200	0.699000	0.976200
C1351	C135	0.222200	0.597400	0.123360
C1361	C136	0.268900	0.653700	0.120800
C1371	C137	0.307700	0.657500	0.096400
C1381	C138	0.299800	0.605000	0.074600
C1391	C139	0.253000	0.548600	0.077100
C1401	C140	0.214300	0.544900	0.101500
C1411	C141	0.515300	0.633100	0.960720
C1421	C142	0.499900	0.692300	0.975100
C1431	C143	0.453500	0.689300	0.996800
C1441	C144	0.422600	0.627000	0.004100
C1451	C145	0.438000	0.567800	0.989700
C1461	C146	0.484300	0.570900	0.968000
C1471	C147	0.577900	0.248300	0.754970
C1481	C148	0.515100	0.268500	0.760300
C1491	C149	0.509200	0.315400	0.783600
C1501	C150	0.566000	0.342000	0.801570
C1511	C151	0.628800	0.321800	0.796200
C1521	C152	0.634700	0.274900	0.772900
C1531	C153	0.589800	0.980200	0.757310
C1541	C154	0.648300	0.955900	0.768100
C1551	C155	0.647800	0.920400	0.793500
C1561	C156	0.588700	0.909300	0.808130
C1571	C157	0.530200	0.933600	0.797400
C1581	C158	0.530700	0.969100	0.772000
C1591	C159	0.578200	0.698400	0.920310
C1601	C160	0.640000	0.723400	0.910300
C1611	C161	0.642700	0.771300	0.889200
C1621	C162	0.583400	0.794200	0.878300
C1631	C163	0.521600	0.769200	0.888300
C1641	C164	0.519000	0.721200	0.909400
C1651	C165	0.568400	0.579600	0.915670
C1661	C166	0.627400	0.558000	0.905700
C1671	C167	0.623900	0.509100	0.882400
C1681	C168	0.561400	0.481800	0.869010
C1691	C169	0.502400	0.503400	0.879000
C1701	C170	0.506000	0.552200	0.902300
C1711	C171	0.573600	0.636400	0.939700
C1721	C172	0.014300	0.606100	0.150000
C1731	C173	0.180700	0.590500	0.150000
C1741	C174	0.581300	0.195900	0.729400
C1751	C175	0.590900	0.022900	0.731100
C1761	C176	0.787000	0.632600	0.030800
C1771	C177	0.825000	0.631000	0.052100
C1781	C178	0.377700	0.614300	0.027800
C1791	C179	0.342700	0.610500	0.049200
C1801	C180	0.587300	0.877700	0.835600
C1811	C181	0.584300	0.833700	0.853100
C1821	C182	0.554800	0.430400	0.844500
C1831	C183	0.558800	0.388400	0.824600
C1841	C184	0.614900	0.965300	0.625280
C1851	C185	0.557400	0.930400	0.610200
C1861	C186	0.563700	0.884900	0.586400
C1871	C187	0.627500	0.874300	0.577700
C1881	C188	0.685000	0.909200	0.592800
C1891	C189	0.678700	0.954700	0.616500
C1901	C190	0.637800	0.636400	0.462460
C1911	C191	0.577500	0.657900	0.470900
C1921	C192	0.578400	0.709000	0.493100
C1931	C193	0.639600	0.738600	0.506930
C1941	C194	0.699900	0.717300	0.498500
C1951	C195	0.699000	0.666200	0.476200
C1961	C196	0.597400	0.222200	0.623360
C1971	C197	0.653700	0.268900	0.620800
C1981	C198	0.657500	0.307700	0.596400
C1991	C199	0.605000	0.299800	0.574600
C2001	C200	0.548600	0.253000	0.577100
C2011	C201	0.544900	0.214300	0.601500
C2021	C202	0.633100	0.515300	0.460720
C2031	C203	0.692300	0.499900	0.475100
C2041	C204	0.689300	0.453500	0.496800
C2051	C205	0.627000	0.422600	0.504100
C2061	C206	0.567800	0.438000	0.489700
C2071	C207	0.570900	0.484300	0.468000
C2081	C208	0.248300	0.577900	0.254970
C2091	C209	0.268500	0.515100	0.260300
C2101	C210	0.315400	0.509200	0.283600
C2111	C211	0.342000	0.566000	0.301570
C2121	C212	0.321800	0.628800	0.296200
C2131	C213	0.274900	0.634700	0.272900
C2141	C214	0.980200	0.589800	0.257310
C2151	C215	0.955900	0.648300	0.268100
C2161	C216	0.920400	0.647800	0.293500
C2171	C217	0.909300	0.588700	0.308130
C2181	C218	0.933600	0.530200	0.297400
C2191	C219	0.969100	0.530700	0.272000
C2201	C220	0.698400	0.578200	0.420310
C2211	C221	0.723400	0.640000	0.410300
C2221	C222	0.771300	0.642700	0.389200
C2231	C223	0.794200	0.583400	0.378300
C2241	C224	0.769200	0.521600	0.388300
C2251	C225	0.721200	0.519000	0.409400
C2261	C226	0.579600	0.568400	0.415670
C2271	C227	0.558000	0.627400	0.405700
C2281	C228	0.509100	0.623900	0.382400
C2291	C229	0.481800	0.561400	0.369010
C2301	C230	0.503400	0.502400	0.379000
C2311	C231	0.552200	0.506000	0.402300
C2321	C232	0.636400	0.573600	0.439700
C2331	C233	0.606100	0.014300	0.650000
C2341	C234	0.590500	0.180700	0.650000
C2351	C235	0.195900	0.581300	0.229400
C2361	C236	0.022900	0.590900	0.231100
C2371	C237	0.632600	0.787000	0.530800
C2381	C238	0.631000	0.825000	0.552100
C2391	C239	0.614300	0.377700	0.527800
C2401	C240	0.610500	0.342700	0.549200
C2411	C241	0.877700	0.587300	0.335600
C2421	C242	0.833700	0.584300	0.353100
C2431	C243	0.430400	0.554800	0.344500
C2441	C244	0.388400	0.558800	0.324600
O171	O17	0.018700	0.547300	0.158000
O181	O18	0.047300	0.664100	0.160900
O191	O19	0.184200	0.648800	0.164900
O201	O20	0.148700	0.530700	0.152700
O211	O21	0.526500	0.170300	0.712900
O221	O22	0.639600	0.178400	0.725300
O231	O23	0.533800	0.037200	0.719200
O241	O24	0.649200	0.043000	0.722100
O251	O25	0.547300	0.018700	0.658000
O261	O26	0.664100	0.047300	0.660900
O271	O27	0.648800	0.184200	0.664900
O281	O28	0.530700	0.148700	0.652700
O291	O29	0.170300	0.526500	0.212900
O301	O30	0.178400	0.639600	0.225300
O311	O31	0.037200	0.533800	0.219200
O321	O32	0.043000	0.649200	0.222100
