data_OWUWUA_clean_PM
_symmetry_space_group_name_H-M	'P1'
_cell_length_a	24.050000
_cell_length_b	12.458000
_cell_length_c	18.140000
_cell_angle_alpha	90.000000
_cell_angle_beta	104.466000
_cell_angle_gamma	90.000000
_symmetry_Int_Tables_number 1

loop_
_symmetry_equiv_pos_as_xyz
'x,y,z'

loop_
_atom_site_label
_atom_site_type_symbol
_atom_site_fract_x
_atom_site_fract_y
_atom_site_fract_z
Na11	Na1	0.081980	0.024700	0.106700
Fe11	Fe1	0.642190	0.230090	0.584400
Zn11	Zn1	0.144020	0.168860	0.234420
C11	C1	0.206600	0.068200	0.137800
C21	C2	0.263000	0.022600	0.136300
C31	C3	0.269200	0.955400	0.077300
H11	H1	0.237600	0.939800	0.037400
C41	C4	0.322000	0.912500	0.078300
C51	C5	0.368700	0.931200	0.140800
H21	H2	0.404000	0.899500	0.142100
C61	C6	0.363400	0.996200	0.200700
C71	C7	0.309900	0.043100	0.195400
H31	H3	0.305800	0.090200	0.233400
C81	C8	0.332200	0.844300	0.014900
C91	C9	0.413700	0.010500	0.266000
H41	H4	0.425000	0.941800	0.290300
H51	H5	0.445700	0.038700	0.248500
C101	C10	0.444200	0.105700	0.383800
C111	C11	0.498200	0.067900	0.395400
H61	H6	0.508000	0.021400	0.360600
C121	C12	0.539500	0.100200	0.461300
C131	C13	0.524900	0.171100	0.515600
C141	C14	0.467600	0.206000	0.502700
C151	C15	0.428200	0.173200	0.436500
H71	H7	0.390400	0.196900	0.427100
C161	C16	0.448800	0.283500	0.557600
C171	C17	0.477600	0.392300	0.555200
H81	H8	0.518500	0.383100	0.567800
H91	H9	0.467400	0.439900	0.591300
H101	H10	0.465000	0.422200	0.505000
C181	C18	0.384900	0.302500	0.538400
H111	H11	0.365400	0.235400	0.539300
H121	H12	0.372800	0.333700	0.488600
H131	H13	0.375800	0.350400	0.575200
C191	C19	0.466100	0.236500	0.642000
H141	H14	0.447900	0.168100	0.643000
H151	H15	0.453800	0.285200	0.675800
H161	H16	0.507000	0.227900	0.658000
C201	C20	0.597000	0.055900	0.471600
H171	H17	0.601100	0.995300	0.443600
C211	C21	0.696100	0.038500	0.530600
H181	H18	0.723900	0.079400	0.511500
H191	H19	0.691400	0.968600	0.506300
C221	C22	0.715600	0.027100	0.616700
H201	H20	0.693700	0.971200	0.633800
H211	H21	0.755900	0.007700	0.631800
C231	C23	0.740300	0.156600	0.715800
H221	H22	0.769600	0.108500	0.736700
C241	C24	0.737300	0.251300	0.757900
C251	C25	0.779700	0.261400	0.829700
H231	H23	0.805700	0.206300	0.847300
C261	C26	0.781000	0.352700	0.870900
C271	C27	0.742500	0.434600	0.845000
H241	H24	0.744500	0.496300	0.874400
C281	C28	0.700400	0.428600	0.776200
C291	C29	0.697200	0.332800	0.733200
C301	C30	0.657300	0.521800	0.749800
C311	C31	0.659500	0.556600	0.669200
H251	H25	0.697700	0.580200	0.670000
H261	H26	0.633000	0.614300	0.652400
H271	H27	0.649400	0.496900	0.635000
C321	C32	0.597000	0.483000	0.748000
H281	H28	0.570100	0.540500	0.731500
H291	H29	0.595500	0.460200	0.798000
H301	H30	0.587200	0.423900	0.713200
C331	C33	0.671300	0.621400	0.801400
H311	H31	0.709400	0.645900	0.802600
H321	H32	0.669200	0.603000	0.852000
H331	H33	0.644200	0.677300	0.781800
C341	C34	0.852000	0.282400	0.973100
H341	H34	0.875000	0.256900	0.939700
H351	H35	0.826800	0.224600	0.980100
C351	C35	0.890800	0.313400	0.049000
C361	C36	0.944700	0.264600	0.070200
H361	H36	0.955700	0.218700	0.035900
C371	C37	0.981600	0.281500	0.138900
C381	C38	0.965200	0.349600	0.187500
H371	H37	0.989900	0.361500	0.235100
C391	C39	0.914800	0.400300	0.169200
C401	C40	0.876200	0.381800	0.100700
H381	H38	0.840500	0.415200	0.089300
C411	C41	0.896700	0.475600	0.224400
C421	C42	0.041900	0.230100	0.157500
N11	N1	0.706600	0.130600	0.651400
N21	N2	0.642100	0.094400	0.516500
O11	O1	0.203500	0.136800	0.185900
O21	O2	0.163700	0.026400	0.093100
O31	O3	0.289800	0.801500	0.967900
O41	O4	0.382000	0.831900	0.007900
O51	O5	0.052300	0.172500	0.105500
O61	O6	0.069200	0.234700	0.217100
O71	O7	0.928500	0.475600	0.289100
O81	O8	0.860800	0.541600	0.199100
O91	O9	0.399640	0.082900	0.319600
O101	O10	0.819300	0.370100	0.939800
O111	O11	0.564060	0.196800	0.578300
O121	O12	0.656120	0.321300	0.668800
Na21	Na2	0.918020	0.524700	0.393300
Fe21	Fe2	0.357810	0.730090	0.915600
Zn21	Zn2	0.855980	0.668860	0.265580
C431	C43	0.793400	0.568200	0.362200
C441	C44	0.737000	0.522600	0.363700
C451	C45	0.730800	0.455400	0.422700
H391	H39	0.762400	0.439800	0.462600
C461	C46	0.678000	0.412500	0.421700
C471	C47	0.631300	0.431200	0.359200
H401	H40	0.596000	0.399500	0.357900
C481	C48	0.636600	0.496200	0.299300
C491	C49	0.690100	0.543100	0.304600
H411	H41	0.694200	0.590200	0.266600
C501	C50	0.667800	0.344300	0.485100
C511	C51	0.586300	0.510500	0.234000
H421	H42	0.575000	0.441800	0.209700
H431	H43	0.554300	0.538700	0.251500
C521	C52	0.555800	0.605700	0.116200
C531	C53	0.501800	0.567900	0.104600
H441	H44	0.492000	0.521400	0.139400
C541	C54	0.460500	0.600200	0.038700
C551	C55	0.475100	0.671100	0.984400
C561	C56	0.532400	0.706000	0.997300
C571	C57	0.571800	0.673200	0.063500
H451	H45	0.609600	0.696900	0.072900
C581	C58	0.551200	0.783500	0.942400
C591	C59	0.522400	0.892300	0.944800
H461	H46	0.481500	0.883100	0.932200
H471	H47	0.532600	0.939900	0.908700
H481	H48	0.535000	0.922200	0.995000
C601	C60	0.615100	0.802500	0.961600
H491	H49	0.634600	0.735400	0.960700
H501	H50	0.627200	0.833700	0.011400
H511	H51	0.624200	0.850400	0.924800
C611	C61	0.533900	0.736500	0.858000
H521	H52	0.552100	0.668100	0.857000
H531	H53	0.546200	0.785200	0.824200
H541	H54	0.493000	0.727900	0.842000
C621	C62	0.403000	0.555900	0.028400
H551	H55	0.398900	0.495300	0.056400
C631	C63	0.303900	0.538500	0.969400
H561	H56	0.276100	0.579400	0.988500
H571	H57	0.308600	0.468600	0.993700
C641	C64	0.284400	0.527100	0.883300
H581	H58	0.306300	0.471200	0.866200
H591	H59	0.244100	0.507700	0.868200
C651	C65	0.259700	0.656600	0.784200
H601	H60	0.230400	0.608500	0.763300
C661	C66	0.262700	0.751300	0.742100
C671	C67	0.220300	0.761400	0.670300
H611	H61	0.194300	0.706300	0.652700
C681	C68	0.219000	0.852700	0.629100
C691	C69	0.257500	0.934600	0.655000
H621	H62	0.255500	0.996300	0.625600
C701	C70	0.299600	0.928600	0.723800
C711	C71	0.302800	0.832800	0.766800
C721	C72	0.342700	0.021800	0.750200
C731	C73	0.340500	0.056600	0.830800
H631	H63	0.302300	0.080200	0.830000
H641	H64	0.367000	0.114300	0.847600
H651	H65	0.350600	0.996900	0.865000
C741	C74	0.403000	0.983000	0.752000
H661	H66	0.429900	0.040500	0.768500
H671	H67	0.404500	0.960200	0.702000
H681	H68	0.412800	0.923900	0.786800
C751	C75	0.328700	0.121400	0.698600
H691	H69	0.290600	0.145900	0.697400
H701	H70	0.330800	0.103000	0.648000
H711	H71	0.355800	0.177300	0.718200
C761	C76	0.148000	0.782400	0.526900
H721	H72	0.125000	0.756900	0.560300
H731	H73	0.173200	0.724600	0.519900
C771	C77	0.109200	0.813400	0.451000
C781	C78	0.055300	0.764600	0.429800
H741	H74	0.044300	0.718700	0.464100
C791	C79	0.018400	0.781500	0.361100
C801	C80	0.034800	0.849600	0.312500
H751	H75	0.010100	0.861500	0.264900
C811	C81	0.085200	0.900300	0.330800
C821	C82	0.123800	0.881800	0.399300
H761	H76	0.159500	0.915200	0.410700
C831	C83	0.103300	0.975600	0.275600
C841	C84	0.958100	0.730100	0.342500
N31	N3	0.293400	0.630600	0.848600
N41	N4	0.357900	0.594400	0.983500
O131	O13	0.796500	0.636800	0.314100
O141	O14	0.836300	0.526400	0.406900
O151	O15	0.710200	0.301500	0.532100
O161	O16	0.618000	0.331900	0.492100
O171	O17	0.947700	0.672500	0.394500
O181	O18	0.930800	0.734700	0.282900
O191	O19	0.071500	0.975600	0.210900
O201	O20	0.139200	0.041600	0.300900
O211	O21	0.600360	0.582900	0.180400
O221	O22	0.180700	0.870100	0.560200
O231	O23	0.435940	0.696800	0.921700
O241	O24	0.343880	0.821300	0.831200
Na31	Na3	0.918020	0.975300	0.893300
Fe31	Fe3	0.357810	0.769910	0.415600
Zn31	Zn3	0.855980	0.831140	0.765580
C851	C85	0.793400	0.931800	0.862200
C861	C86	0.737000	0.977400	0.863700
C871	C87	0.730800	0.044600	0.922700
H771	H77	0.762400	0.060200	0.962600
C881	C88	0.678000	0.087500	0.921700
C891	C89	0.631300	0.068800	0.859200
H781	H78	0.596000	0.100500	0.857900
C901	C90	0.636600	0.003800	0.799300
C911	C91	0.690100	0.956900	0.804600
H791	H79	0.694200	0.909800	0.766600
C921	C92	0.667800	0.155700	0.985100
C931	C93	0.586300	0.989500	0.734000
H801	H80	0.575000	0.058200	0.709700
H811	H81	0.554300	0.961300	0.751500
C941	C94	0.555800	0.894300	0.616200
C951	C95	0.501800	0.932100	0.604600
H821	H82	0.492000	0.978600	0.639400
C961	C96	0.460500	0.899800	0.538700
C971	C97	0.475100	0.828900	0.484400
C981	C98	0.532400	0.794000	0.497300
C991	C99	0.571800	0.826800	0.563500
H831	H83	0.609600	0.803100	0.572900
C1001	C100	0.551200	0.716500	0.442400
C1011	C101	0.522400	0.607700	0.444800
H841	H84	0.481500	0.616900	0.432200
H851	H85	0.532600	0.560100	0.408700
H861	H86	0.535000	0.577800	0.495000
C1021	C102	0.615100	0.697500	0.461600
H871	H87	0.634600	0.764600	0.460700
H881	H88	0.627200	0.666300	0.511400
H891	H89	0.624200	0.649600	0.424800
C1031	C103	0.533900	0.763500	0.358000
H901	H90	0.552100	0.831900	0.357000
H911	H91	0.546200	0.714800	0.324200
H921	H92	0.493000	0.772100	0.342000
C1041	C104	0.403000	0.944100	0.528400
H931	H93	0.398900	0.004700	0.556400
C1051	C105	0.303900	0.961500	0.469400
H941	H94	0.276100	0.920600	0.488500
H951	H95	0.308600	0.031400	0.493700
C1061	C106	0.284400	0.972900	0.383300
H961	H96	0.306300	0.028800	0.366200
H971	H97	0.244100	0.992300	0.368200
C1071	C107	0.259700	0.843400	0.284200
H981	H98	0.230400	0.891500	0.263300
C1081	C108	0.262700	0.748700	0.242100
C1091	C109	0.220300	0.738600	0.170300
H991	H99	0.194300	0.793700	0.152700
C1101	C110	0.219000	0.647300	0.129100
C1111	C111	0.257500	0.565400	0.155000
H1001	H100	0.255500	0.503700	0.125600
C1121	C112	0.299600	0.571400	0.223800
C1131	C113	0.302800	0.667200	0.266800
C1141	C114	0.342700	0.478200	0.250200
C1151	C115	0.340500	0.443400	0.330800
H1011	H101	0.302300	0.419800	0.330000
H1021	H102	0.367000	0.385700	0.347600
H1031	H103	0.350600	0.503100	0.365000
C1161	C116	0.403000	0.517000	0.252000
H1041	H104	0.429900	0.459500	0.268500
H1051	H105	0.404500	0.539800	0.202000
H1061	H106	0.412800	0.576100	0.286800
C1171	C117	0.328700	0.378600	0.198600
H1071	H107	0.290600	0.354100	0.197400
H1081	H108	0.330800	0.397000	0.148000
H1091	H109	0.355800	0.322700	0.218200
C1181	C118	0.148000	0.717600	0.026900
H1101	H110	0.125000	0.743100	0.060300
H1111	H111	0.173200	0.775400	0.019900
C1191	C119	0.109200	0.686600	0.951000
C1201	C120	0.055300	0.735400	0.929800
H1121	H112	0.044300	0.781300	0.964100
C1211	C121	0.018400	0.718500	0.861100
C1221	C122	0.034800	0.650400	0.812500
H1131	H113	0.010100	0.638500	0.764900
C1231	C123	0.085200	0.599700	0.830800
C1241	C124	0.123800	0.618200	0.899300
H1141	H114	0.159500	0.584800	0.910700
C1251	C125	0.103300	0.524400	0.775600
C1261	C126	0.958100	0.769900	0.842500
N51	N5	0.293400	0.869400	0.348600
N61	N6	0.357900	0.905600	0.483500
O251	O25	0.796500	0.863200	0.814100
O261	O26	0.836300	0.973600	0.906900
O271	O27	0.710200	0.198500	0.032100
O281	O28	0.618000	0.168100	0.992100
O291	O29	0.947700	0.827500	0.894500
O301	O30	0.930800	0.765300	0.782900
O311	O31	0.071500	0.524400	0.710900
O321	O32	0.139200	0.458400	0.800900
O331	O33	0.600360	0.917100	0.680400
O341	O34	0.180700	0.629900	0.060200
O351	O35	0.435940	0.803200	0.421700
O361	O36	0.343880	0.678700	0.331200
Na41	Na4	0.081980	0.475300	0.606700
Fe41	Fe4	0.642190	0.269910	0.084400
Zn41	Zn4	0.144020	0.331140	0.734420
C1271	C127	0.206600	0.431800	0.637800
C1281	C128	0.263000	0.477400	0.636300
C1291	C129	0.269200	0.544600	0.577300
H1151	H115	0.237600	0.560200	0.537400
C1301	C130	0.322000	0.587500	0.578300
C1311	C131	0.368700	0.568800	0.640800
H1161	H116	0.404000	0.600500	0.642100
C1321	C132	0.363400	0.503800	0.700700
C1331	C133	0.309900	0.456900	0.695400
H1171	H117	0.305800	0.409800	0.733400
C1341	C134	0.332200	0.655700	0.514900
C1351	C135	0.413700	0.489500	0.766000
H1181	H118	0.425000	0.558200	0.790300
H1191	H119	0.445700	0.461300	0.748500
C1361	C136	0.444200	0.394300	0.883800
C1371	C137	0.498200	0.432100	0.895400
H1201	H120	0.508000	0.478600	0.860600
C1381	C138	0.539500	0.399800	0.961300
C1391	C139	0.524900	0.328900	0.015600
C1401	C140	0.467600	0.294000	0.002700
C1411	C141	0.428200	0.326800	0.936500
H1211	H121	0.390400	0.303100	0.927100
C1421	C142	0.448800	0.216500	0.057600
C1431	C143	0.477600	0.107700	0.055200
H1221	H122	0.518500	0.116900	0.067800
H1231	H123	0.467400	0.060100	0.091300
H1241	H124	0.465000	0.077800	0.005000
C1441	C144	0.384900	0.197500	0.038400
H1251	H125	0.365400	0.264600	0.039300
H1261	H126	0.372800	0.166300	0.988600
H1271	H127	0.375800	0.149600	0.075200
C1451	C145	0.466100	0.263500	0.142000
H1281	H128	0.447900	0.331900	0.143000
H1291	H129	0.453800	0.214800	0.175800
H1301	H130	0.507000	0.272100	0.158000
C1461	C146	0.597000	0.444100	0.971600
H1311	H131	0.601100	0.504700	0.943600
C1471	C147	0.696100	0.461500	0.030600
H1321	H132	0.723900	0.420600	0.011500
H1331	H133	0.691400	0.531400	0.006300
C1481	C148	0.715600	0.472900	0.116700
H1341	H134	0.693700	0.528800	0.133800
H1351	H135	0.755900	0.492300	0.131800
C1491	C149	0.740300	0.343400	0.215800
H1361	H136	0.769600	0.391500	0.236700
C1501	C150	0.737300	0.248700	0.257900
C1511	C151	0.779700	0.238600	0.329700
H1371	H137	0.805700	0.293700	0.347300
C1521	C152	0.781000	0.147300	0.370900
C1531	C153	0.742500	0.065400	0.345000
H1381	H138	0.744500	0.003700	0.374400
C1541	C154	0.700400	0.071400	0.276200
C1551	C155	0.697200	0.167200	0.233200
C1561	C156	0.657300	0.978200	0.249800
C1571	C157	0.659500	0.943400	0.169200
H1391	H139	0.697700	0.919800	0.170000
H1401	H140	0.633000	0.885700	0.152400
H1411	H141	0.649400	0.003100	0.135000
C1581	C158	0.597000	0.017000	0.248000
H1421	H142	0.570100	0.959500	0.231500
H1431	H143	0.595500	0.039800	0.298000
H1441	H144	0.587200	0.076100	0.213200
C1591	C159	0.671300	0.878600	0.301400
H1451	H145	0.709400	0.854100	0.302600
H1461	H146	0.669200	0.897000	0.352000
H1471	H147	0.644200	0.822700	0.281800
C1601	C160	0.852000	0.217600	0.473100
H1481	H148	0.875000	0.243100	0.439700
H1491	H149	0.826800	0.275400	0.480100
C1611	C161	0.890800	0.186600	0.549000
C1621	C162	0.944700	0.235400	0.570200
H1501	H150	0.955700	0.281300	0.535900
C1631	C163	0.981600	0.218500	0.638900
C1641	C164	0.965200	0.150400	0.687500
H1511	H151	0.989900	0.138500	0.735100
C1651	C165	0.914800	0.099700	0.669200
C1661	C166	0.876200	0.118200	0.600700
H1521	H152	0.840500	0.084800	0.589300
C1671	C167	0.896700	0.024400	0.724400
C1681	C168	0.041900	0.269900	0.657500
N71	N7	0.706600	0.369400	0.151400
N81	N8	0.642100	0.405600	0.016500
O371	O37	0.203500	0.363200	0.685900
O381	O38	0.163700	0.473600	0.593100
O391	O39	0.289800	0.698500	0.467900
O401	O40	0.382000	0.668100	0.507900
O411	O41	0.052300	0.327500	0.605500
O421	O42	0.069200	0.265300	0.717100
O431	O43	0.928500	0.024400	0.789100
O441	O44	0.860800	0.958400	0.699100
O451	O45	0.399640	0.417100	0.819600
O461	O46	0.819300	0.129900	0.439800
O471	O47	0.564060	0.303200	0.078300
O481	O48	0.656120	0.178700	0.168800
