data_OXAPEJ_charged_PM
_symmetry_space_group_name_H-M	'P1'
_cell_length_a	12.075100
_cell_length_b	18.970500
_cell_length_c	19.478300
_cell_angle_alpha	90.000000
_cell_angle_beta	90.000000
_cell_angle_gamma	90.000000
_symmetry_Int_Tables_number 1

loop_
_symmetry_equiv_pos_as_xyz
'x,y,z'

loop_
_atom_site_label
_atom_site_type_symbol
_atom_site_fract_x
_atom_site_fract_y
_atom_site_fract_z
Co11	Co1	0.647240	0.812790	0.837870
Co21	Co2	0.147240	0.687210	0.162130
Co31	Co3	0.352760	0.187210	0.337870
Co41	Co4	0.852760	0.312790	0.662130
Co51	Co5	0.352760	0.187210	0.162130
Co61	Co6	0.852760	0.312790	0.837870
Co71	Co7	0.647240	0.812790	0.662130
Co81	Co8	0.147240	0.687210	0.337870
Co91	Co9	0.407310	0.655480	0.250000
Co101	Co10	0.907310	0.844520	0.750000
Co111	Co11	0.592690	0.344520	0.750000
Co121	Co12	0.092690	0.155480	0.250000
H11	H1	0.559700	0.648800	0.040000
H21	H2	0.649300	0.690600	0.942100
H31	H3	0.455300	0.856300	0.934900
H41	H4	0.351900	0.815500	0.027000
H51	H5	0.346600	0.413600	0.348900
H61	H6	0.372000	0.535100	0.345600
H71	H7	0.801700	0.716700	0.335800
H81	H8	0.608400	0.715000	0.334900
H91	H9	0.661000	0.013600	0.892600
H101	H10	0.686800	0.984400	0.819000
H111	H11	0.464700	0.002600	0.851800
H121	H12	0.525700	0.010600	0.779100
H131	H13	0.589400	0.119900	0.803800
H141	H14	0.584000	0.107100	0.885100
H151	H15	0.439600	0.183800	0.852100
H161	H16	0.393600	0.126100	0.799400
H171	H17	0.387300	0.111900	0.880300
H181	H18	0.725400	0.920400	0.870200
H191	H19	0.059700	0.851200	0.960000
H201	H20	0.149300	0.809400	0.057900
H211	H21	0.955300	0.643700	0.065100
H221	H22	0.851900	0.684500	0.973000
H231	H23	0.846600	0.086400	0.651100
H241	H24	0.872000	0.964900	0.654400
H251	H25	0.301700	0.783300	0.664200
H261	H26	0.108400	0.785000	0.665100
H271	H27	0.161000	0.486400	0.107400
H281	H28	0.186800	0.515600	0.181000
H291	H29	0.964700	0.497400	0.148200
H301	H30	0.025700	0.489400	0.220900
H311	H31	0.089400	0.380100	0.196200
H321	H32	0.084000	0.392900	0.114900
H331	H33	0.939600	0.316200	0.147900
H341	H34	0.893600	0.373900	0.200600
H351	H35	0.887300	0.388100	0.119700
H361	H36	0.225400	0.579600	0.129800
H371	H37	0.440300	0.351200	0.540000
H381	H38	0.350700	0.309400	0.442100
H391	H39	0.544700	0.143700	0.434900
H401	H40	0.648100	0.184500	0.527000
H411	H41	0.653400	0.586400	0.848900
H421	H42	0.628000	0.464900	0.845600
H431	H43	0.198300	0.283300	0.835800
H441	H44	0.391600	0.285000	0.834900
H451	H45	0.339000	0.986400	0.392600
H461	H46	0.313200	0.015600	0.319000
H471	H47	0.535300	0.997400	0.351800
H481	H48	0.474300	0.989400	0.279100
H491	H49	0.410600	0.880100	0.303800
H501	H50	0.416000	0.892900	0.385100
H511	H51	0.560400	0.816200	0.352100
H521	H52	0.606400	0.873900	0.299400
H531	H53	0.612700	0.888100	0.380300
H541	H54	0.274600	0.079600	0.370200
H551	H55	0.940300	0.148800	0.460000
H561	H56	0.850700	0.190600	0.557900
H571	H57	0.044700	0.356300	0.565100
H581	H58	0.148100	0.315500	0.473000
H591	H59	0.153400	0.913600	0.151100
H601	H60	0.128000	0.035100	0.154400
H611	H61	0.698300	0.216700	0.164200
H621	H62	0.891600	0.215000	0.165100
H631	H63	0.839000	0.513600	0.607400
H641	H64	0.813200	0.484400	0.681000
H651	H65	0.035300	0.502600	0.648200
H661	H66	0.974300	0.510600	0.720900
H671	H67	0.910600	0.619900	0.696200
H681	H68	0.916000	0.607100	0.614900
H691	H69	0.060400	0.683800	0.647900
H701	H70	0.106400	0.626100	0.700600
H711	H71	0.112700	0.611900	0.619700
H721	H72	0.774600	0.420400	0.629800
H731	H73	0.440300	0.351200	0.960000
H741	H74	0.350700	0.309400	0.057900
H751	H75	0.544700	0.143700	0.065100
H761	H76	0.648100	0.184500	0.973000
H771	H77	0.653400	0.586400	0.651100
H781	H78	0.628000	0.464900	0.654400
H791	H79	0.198300	0.283300	0.664200
H801	H80	0.391600	0.285000	0.665100
H811	H81	0.339000	0.986400	0.107400
H821	H82	0.313200	0.015600	0.181000
H831	H83	0.535300	0.997400	0.148200
H841	H84	0.474300	0.989400	0.220900
H851	H85	0.410600	0.880100	0.196200
H861	H86	0.416000	0.892900	0.114900
H871	H87	0.560400	0.816200	0.147900
H881	H88	0.606400	0.873900	0.200600
H891	H89	0.612700	0.888100	0.119700
H901	H90	0.274600	0.079600	0.129800
H911	H91	0.940300	0.148800	0.040000
H921	H92	0.850700	0.190600	0.942100
H931	H93	0.044700	0.356300	0.934900
H941	H94	0.148100	0.315500	0.027000
H951	H95	0.153400	0.913600	0.348900
H961	H96	0.128000	0.035100	0.345600
H971	H97	0.698300	0.216700	0.335800
H981	H98	0.891600	0.215000	0.334900
H991	H99	0.839000	0.513600	0.892600
H1001	H100	0.813200	0.484400	0.819000
H1011	H101	0.035300	0.502600	0.851800
H1021	H102	0.974300	0.510600	0.779100
H1031	H103	0.910600	0.619900	0.803800
H1041	H104	0.916000	0.607100	0.885100
H1051	H105	0.060400	0.683800	0.852100
H1061	H106	0.106400	0.626100	0.799400
H1071	H107	0.112700	0.611900	0.880300
H1081	H108	0.774600	0.420400	0.870200
H1091	H109	0.559700	0.648800	0.460000
H1101	H110	0.649300	0.690600	0.557900
H1111	H111	0.455300	0.856300	0.565100
H1121	H112	0.351900	0.815500	0.473000
H1131	H113	0.346600	0.413600	0.151100
H1141	H114	0.372000	0.535100	0.154400
H1151	H115	0.801700	0.716700	0.164200
H1161	H116	0.608400	0.715000	0.165100
H1171	H117	0.661000	0.013600	0.607400
H1181	H118	0.686800	0.984400	0.681000
H1191	H119	0.464700	0.002600	0.648200
H1201	H120	0.525700	0.010600	0.720900
H1211	H121	0.589400	0.119900	0.696200
H1221	H122	0.584000	0.107100	0.614900
H1231	H123	0.439600	0.183800	0.647900
H1241	H124	0.393600	0.126100	0.700600
H1251	H125	0.387300	0.111900	0.619700
H1261	H126	0.725400	0.920400	0.629800
H1271	H127	0.059700	0.851200	0.540000
H1281	H128	0.149300	0.809400	0.442100
H1291	H129	0.955300	0.643700	0.434900
H1301	H130	0.851900	0.684500	0.527000
H1311	H131	0.846600	0.086400	0.848900
H1321	H132	0.872000	0.964900	0.845600
H1331	H133	0.301700	0.783300	0.835800
H1341	H134	0.108400	0.785000	0.834900
H1351	H135	0.161000	0.486400	0.392600
H1361	H136	0.186800	0.515600	0.319000
H1371	H137	0.964700	0.497400	0.351800
H1381	H138	0.025700	0.489400	0.279100
H1391	H139	0.089400	0.380100	0.303800
H1401	H140	0.084000	0.392900	0.385100
H1411	H141	0.939600	0.316200	0.352100
H1421	H142	0.893600	0.373900	0.299400
H1431	H143	0.887300	0.388100	0.380300
H1441	H144	0.225400	0.579600	0.370200
H1451	H145	0.327200	0.780200	0.250000
H1461	H146	0.827200	0.719800	0.750000
H1471	H147	0.672800	0.219800	0.750000
H1481	H148	0.172800	0.280200	0.250000
C11	C1	0.444700	0.726600	0.043300
C21	C2	0.534800	0.690800	0.018300
C31	C3	0.589300	0.716900	0.960400
C41	C4	0.475200	0.812800	0.955600
C51	C5	0.413900	0.789400	0.011100
C61	C6	0.379800	0.700300	0.104400
C71	C7	0.370600	0.435900	0.307900
C81	C8	0.384400	0.508800	0.304800
C91	C9	0.763200	0.691800	0.300900
C101	C10	0.647600	0.691000	0.299700
C111	C11	0.633200	0.980500	0.857300
C121	C12	0.532700	0.019800	0.829000
C131	C13	0.545000	0.098800	0.841100
C141	C14	0.431000	0.133200	0.843400
C151	C15	0.944700	0.773400	0.956700
C161	C16	0.034800	0.809200	0.981700
C171	C17	0.089300	0.783100	0.039600
C181	C18	0.975200	0.687200	0.044400
C191	C19	0.913900	0.710600	0.988900
C201	C20	0.879800	0.799700	0.895600
C211	C21	0.870600	0.064100	0.692100
C221	C22	0.884400	0.991200	0.695200
C231	C23	0.263200	0.808200	0.699100
C241	C24	0.147600	0.809000	0.700300
C251	C25	0.133200	0.519500	0.142700
C261	C26	0.032700	0.480200	0.171000
C271	C27	0.045000	0.401200	0.158900
C281	C28	0.931000	0.366800	0.156600
C291	C29	0.555300	0.273400	0.543300
C301	C30	0.465200	0.309200	0.518300
C311	C31	0.410700	0.283100	0.460400
C321	C32	0.524800	0.187200	0.455600
C331	C33	0.586100	0.210600	0.511100
C341	C34	0.620200	0.299700	0.604400
C351	C35	0.629400	0.564100	0.807900
C361	C36	0.615600	0.491200	0.804800
C371	C37	0.236800	0.308200	0.800900
C381	C38	0.352400	0.309000	0.799700
C391	C39	0.366800	0.019500	0.357300
C401	C40	0.467300	0.980200	0.329000
C411	C41	0.455000	0.901200	0.341100
C421	C42	0.569000	0.866800	0.343400
C431	C43	0.055300	0.226600	0.456700
C441	C44	0.965200	0.190800	0.481700
C451	C45	0.910700	0.216900	0.539600
C461	C46	0.024800	0.312800	0.544400
C471	C47	0.086100	0.289400	0.488900
C481	C48	0.120200	0.200300	0.395600
C491	C49	0.129400	0.935900	0.192100
C501	C50	0.115600	0.008800	0.195200
C511	C51	0.736800	0.191800	0.199100
C521	C52	0.852400	0.191000	0.200300
C531	C53	0.866800	0.480500	0.642700
C541	C54	0.967300	0.519800	0.671000
C551	C55	0.955000	0.598800	0.658900
C561	C56	0.069000	0.633200	0.656600
C571	C57	0.555300	0.273400	0.956700
C581	C58	0.465200	0.309200	0.981700
C591	C59	0.410700	0.283100	0.039600
C601	C60	0.524800	0.187200	0.044400
C611	C61	0.586100	0.210600	0.988900
C621	C62	0.620200	0.299700	0.895600
C631	C63	0.629400	0.564100	0.692100
C641	C64	0.615600	0.491200	0.695200
C651	C65	0.236800	0.308200	0.699100
C661	C66	0.352400	0.309000	0.700300
C671	C67	0.366800	0.019500	0.142700
C681	C68	0.467300	0.980200	0.171000
C691	C69	0.455000	0.901200	0.158900
C701	C70	0.569000	0.866800	0.156600
C711	C71	0.055300	0.226600	0.043300
C721	C72	0.965200	0.190800	0.018300
C731	C73	0.910700	0.216900	0.960400
C741	C74	0.024800	0.312800	0.955600
C751	C75	0.086100	0.289400	0.011100
C761	C76	0.120200	0.200300	0.104400
C771	C77	0.129400	0.935900	0.307900
C781	C78	0.115600	0.008800	0.304800
C791	C79	0.736800	0.191800	0.300900
C801	C80	0.852400	0.191000	0.299700
C811	C81	0.866800	0.480500	0.857300
C821	C82	0.967300	0.519800	0.829000
C831	C83	0.955000	0.598800	0.841100
C841	C84	0.069000	0.633200	0.843400
C851	C85	0.444700	0.726600	0.456700
C861	C86	0.534800	0.690800	0.481700
C871	C87	0.589300	0.716900	0.539600
C881	C88	0.475200	0.812800	0.544400
C891	C89	0.413900	0.789400	0.488900
C901	C90	0.379800	0.700300	0.395600
C911	C91	0.370600	0.435900	0.192100
C921	C92	0.384400	0.508800	0.195200
C931	C93	0.763200	0.691800	0.199100
C941	C94	0.647600	0.691000	0.200300
C951	C95	0.633200	0.980500	0.642700
C961	C96	0.532700	0.019800	0.671000
C971	C97	0.545000	0.098800	0.658900
C981	C98	0.431000	0.133200	0.656600
C991	C99	0.944700	0.773400	0.543300
C1001	C100	0.034800	0.809200	0.518300
C1011	C101	0.089300	0.783100	0.460400
C1021	C102	0.975200	0.687200	0.455600
C1031	C103	0.913900	0.710600	0.511100
C1041	C104	0.879800	0.799700	0.604400
C1051	C105	0.870600	0.064100	0.807900
C1061	C106	0.884400	0.991200	0.804800
C1071	C107	0.263200	0.808200	0.800900
C1081	C108	0.147600	0.809000	0.799700
C1091	C109	0.133200	0.519500	0.357300
C1101	C110	0.032700	0.480200	0.329000
C1111	C111	0.045000	0.401200	0.341100
C1121	C112	0.931000	0.366800	0.343400
C1131	C113	0.392800	0.397400	0.250000
C1141	C114	0.376000	0.318300	0.250000
C1151	C115	0.821600	0.655700	0.250000
C1161	C116	0.948900	0.656400	0.250000
C1171	C117	0.892800	0.102600	0.750000
C1181	C118	0.876000	0.181700	0.750000
C1191	C119	0.321600	0.844300	0.750000
C1201	C120	0.448900	0.843600	0.750000
C1211	C121	0.607200	0.602600	0.750000
C1221	C122	0.624000	0.681700	0.750000
C1231	C123	0.178400	0.344300	0.750000
C1241	C124	0.051100	0.343600	0.750000
C1251	C125	0.107200	0.897400	0.250000
C1261	C126	0.124000	0.818300	0.250000
C1271	C127	0.678400	0.155700	0.250000
C1281	C128	0.551100	0.156400	0.250000
N11	N1	0.561000	0.777200	0.929700
N21	N2	0.061000	0.722800	0.070300
N31	N3	0.439000	0.222800	0.429700
N41	N4	0.939000	0.277200	0.570300
N51	N5	0.439000	0.222800	0.070300
N61	N6	0.939000	0.277200	0.929700
N71	N7	0.561000	0.777200	0.570300
N81	N8	0.061000	0.722800	0.429700
N91	N9	0.412900	0.543000	0.250000
N101	N10	0.589200	0.657200	0.250000
N111	N11	0.912900	0.957000	0.750000
N121	N12	0.089200	0.842800	0.750000
N131	N13	0.587100	0.457000	0.750000
N141	N14	0.410800	0.342800	0.750000
N151	N15	0.087100	0.043000	0.250000
N161	N16	0.910800	0.157200	0.250000
O11	O1	0.427300	0.657200	0.143800
O21	O2	0.283600	0.723600	0.110400
O31	O3	0.368700	0.289200	0.196200
O41	O4	0.993400	0.655900	0.306200
O51	O5	0.660300	0.914300	0.885800
O61	O6	0.927300	0.842800	0.856200
O71	O7	0.783600	0.776400	0.889600
O81	O8	0.868700	0.210800	0.803800
O91	O9	0.493400	0.844100	0.693800
O101	O10	0.160300	0.585700	0.114200
O111	O11	0.572700	0.342800	0.643800
O121	O12	0.716400	0.276400	0.610400
O131	O13	0.631300	0.710800	0.696200
O141	O14	0.006600	0.344100	0.806200
O151	O15	0.339700	0.085700	0.385800
O161	O16	0.072700	0.157200	0.356200
O171	O17	0.216400	0.223600	0.389600
O181	O18	0.131300	0.789200	0.303800
O191	O19	0.506600	0.155900	0.193800
O201	O20	0.839700	0.414300	0.614200
O211	O21	0.572700	0.342800	0.856200
O221	O22	0.716400	0.276400	0.889600
O231	O23	0.631300	0.710800	0.803800
O241	O24	0.006600	0.344100	0.693800
O251	O25	0.339700	0.085700	0.114200
O261	O26	0.072700	0.157200	0.143800
O271	O27	0.216400	0.223600	0.110400
O281	O28	0.131300	0.789200	0.196200
O291	O29	0.506600	0.155900	0.306200
O301	O30	0.839700	0.414300	0.885800
O311	O31	0.427300	0.657200	0.356200
O321	O32	0.283600	0.723600	0.389600
O331	O33	0.368700	0.289200	0.303800
O341	O34	0.993400	0.655900	0.193800
O351	O35	0.660300	0.914300	0.614200
O361	O36	0.927300	0.842800	0.643800
O371	O37	0.783600	0.776400	0.610400
O381	O38	0.868700	0.210800	0.696200
O391	O39	0.493400	0.844100	0.806200
O401	O40	0.160300	0.585700	0.385800
O411	O41	0.232000	0.652300	0.250000
O421	O42	0.395000	0.768000	0.250000
O431	O43	0.732000	0.847700	0.750000
O441	O44	0.895000	0.732000	0.750000
O451	O45	0.768000	0.347700	0.750000
O461	O46	0.605000	0.232000	0.750000
O471	O47	0.268000	0.152300	0.250000
O481	O48	0.105000	0.268000	0.250000
