data_OYEJOS_clean_PM
_symmetry_space_group_name_H-M	'P1'
_cell_length_a	15.597000
_cell_length_b	18.492000
_cell_length_c	23.295000
_cell_angle_alpha	91.822000
_cell_angle_beta	90.000000
_cell_angle_gamma	90.000000
_symmetry_Int_Tables_number 1

loop_
_symmetry_equiv_pos_as_xyz
'x,y,z'

loop_
_atom_site_label
_atom_site_type_symbol
_atom_site_fract_x
_atom_site_fract_y
_atom_site_fract_z
Cu11	Cu1	0.343020	0.797540	0.029770
Cu21	Cu2	0.843020	0.702460	0.470230
Cu31	Cu3	0.656980	0.202460	0.970230
Cu41	Cu4	0.156980	0.297540	0.529770
Cu51	Cu5	0.500000	0.000000	0.500000
Cu61	Cu6	0.000000	0.500000	0.000000
H11	H1	0.319400	0.853900	0.907000
H21	H2	0.525600	0.870400	0.001100
H31	H3	0.565300	0.896900	0.903800
H41	H4	0.306100	0.919400	0.827700
H51	H5	0.289700	0.939300	0.731400
H61	H6	0.532900	0.881100	0.703000
H71	H7	0.550500	0.864100	0.800700
H81	H8	0.272400	0.903900	0.630500
H91	H9	0.305400	0.948300	0.535000
H101	H10	0.515100	0.969700	0.627300
H111	H11	0.236000	0.784000	0.144600
H121	H12	0.315500	0.628200	0.039200
H131	H13	0.228800	0.571900	0.113000
H141	H14	0.222300	0.733000	0.248700
H151	H15	0.129200	0.716100	0.326500
H161	H16	0.984200	0.585200	0.230900
H171	H17	0.071600	0.607000	0.151200
H181	H18	0.976100	0.738000	0.368400
H191	H19	0.879200	0.552300	0.412900
H201	H20	0.970300	0.527700	0.329400
H211	H21	0.191700	0.742100	0.933200
H221	H22	0.065400	0.817900	0.916200
H231	H23	0.209800	0.913900	0.035000
H241	H24	0.145300	0.019500	0.004800
H251	H25	0.949800	0.887000	0.971000
H261	H26	0.639700	0.112400	0.550900
H271	H27	0.394400	0.141700	0.527900
H281	H28	0.454400	0.259900	0.551600
H291	H29	0.605300	0.297800	0.639700
H301	H30	0.701400	0.394100	0.642400
H311	H31	0.785700	0.335400	0.486800
H321	H32	0.687300	0.240100	0.483100
H331	H33	0.819400	0.646100	0.593000
H341	H34	0.025600	0.629600	0.498900
H351	H35	0.065300	0.603100	0.596200
H361	H36	0.806100	0.580600	0.672300
H371	H37	0.789700	0.560700	0.768600
H381	H38	0.032900	0.618900	0.797000
H391	H39	0.050500	0.635900	0.699300
H401	H40	0.772400	0.596100	0.869500
H411	H41	0.805400	0.551700	0.965000
H421	H42	0.015100	0.530300	0.872700
H431	H43	0.736000	0.716000	0.355400
H441	H44	0.815500	0.871800	0.460800
H451	H45	0.728800	0.928100	0.387000
H461	H46	0.722300	0.767000	0.251300
H471	H47	0.629200	0.783900	0.173500
H481	H48	0.484200	0.914800	0.269100
H491	H49	0.571600	0.893000	0.348800
H501	H50	0.476100	0.762000	0.131600
H511	H51	0.379200	0.947700	0.087100
H521	H52	0.470300	0.972300	0.170600
H531	H53	0.691700	0.757900	0.566800
H541	H54	0.565400	0.682100	0.583800
H551	H55	0.709800	0.586100	0.465000
H561	H56	0.645300	0.480500	0.495200
H571	H57	0.449800	0.613000	0.529000
H581	H58	0.139700	0.387600	0.949100
H591	H59	0.894400	0.358300	0.972100
H601	H60	0.954400	0.240100	0.948400
H611	H61	0.105300	0.202200	0.860300
H621	H62	0.201400	0.105900	0.857600
H631	H63	0.285700	0.164600	0.013200
H641	H64	0.187300	0.259900	0.016900
H651	H65	0.680600	0.146100	0.093000
H661	H66	0.474400	0.129600	0.998900
H671	H67	0.434700	0.103100	0.096200
H681	H68	0.693900	0.080600	0.172300
H691	H69	0.710300	0.060700	0.268600
H701	H70	0.467100	0.118900	0.297000
H711	H71	0.449500	0.135900	0.199300
H721	H72	0.727600	0.096100	0.369500
H731	H73	0.694600	0.051700	0.465000
H741	H74	0.484900	0.030300	0.372700
H751	H75	0.764000	0.216000	0.855400
H761	H76	0.684500	0.371800	0.960800
H771	H77	0.771200	0.428100	0.887000
H781	H78	0.777700	0.267000	0.751300
H791	H79	0.870800	0.283900	0.673500
H801	H80	0.015800	0.414800	0.769100
H811	H81	0.928400	0.393000	0.848800
H821	H82	0.023900	0.262000	0.631600
H831	H83	0.120800	0.447700	0.587100
H841	H84	0.029700	0.472300	0.670600
H851	H85	0.808300	0.257900	0.066800
H861	H86	0.934600	0.182100	0.083800
H871	H87	0.790200	0.086100	0.965000
H881	H88	0.854700	0.980500	0.995200
H891	H89	0.050200	0.113000	0.029000
H901	H90	0.360300	0.887600	0.449100
H911	H91	0.605600	0.858300	0.472100
H921	H92	0.545600	0.740100	0.448400
H931	H93	0.394700	0.702200	0.360300
H941	H94	0.298600	0.605900	0.357600
H951	H95	0.214300	0.664600	0.513200
H961	H96	0.312700	0.759900	0.516900
H971	H97	0.180600	0.353900	0.407000
H981	H98	0.974400	0.370400	0.501100
H991	H99	0.934700	0.396900	0.403800
H1001	H100	0.193900	0.419400	0.327700
H1011	H101	0.210300	0.439300	0.231400
H1021	H102	0.967100	0.381100	0.203000
H1031	H103	0.949500	0.364100	0.300700
H1041	H104	0.227600	0.403900	0.130500
H1051	H105	0.194600	0.448300	0.035000
H1061	H106	0.984900	0.469700	0.127300
H1071	H107	0.264000	0.284000	0.644600
H1081	H108	0.184500	0.128200	0.539200
H1091	H109	0.271200	0.071900	0.613000
H1101	H110	0.277700	0.233000	0.748700
H1111	H111	0.370800	0.216100	0.826500
H1121	H112	0.515800	0.085200	0.730900
H1131	H113	0.428400	0.107000	0.651200
H1141	H114	0.523900	0.238000	0.868400
H1151	H115	0.620800	0.052300	0.912900
H1161	H116	0.529700	0.027700	0.829400
H1171	H117	0.308300	0.242100	0.433200
H1181	H118	0.434600	0.317900	0.416200
H1191	H119	0.290200	0.413900	0.535000
H1201	H120	0.354700	0.519500	0.504800
H1211	H121	0.550200	0.387000	0.471000
H1221	H122	0.860300	0.612400	0.050900
H1231	H123	0.105600	0.641700	0.027900
H1241	H124	0.045600	0.759900	0.051600
H1251	H125	0.894700	0.797800	0.139700
H1261	H126	0.798600	0.894100	0.142400
H1271	H127	0.714300	0.835400	0.986800
H1281	H128	0.812700	0.740100	0.983100
C11	C1	0.376000	0.860700	0.918500
C21	C2	0.488700	0.869800	0.969700
C31	C3	0.510700	0.884700	0.916300
C41	C4	0.430600	0.889600	0.823600
C51	C5	0.352100	0.912300	0.802700
C61	C6	0.342300	0.924100	0.745500
C71	C7	0.410200	0.913600	0.709000
C81	C8	0.487800	0.889800	0.728400
C91	C9	0.497700	0.878800	0.786700
C101	C10	0.324800	0.921900	0.618300
C111	C11	0.343500	0.946900	0.565700
C121	C12	0.459300	0.958700	0.616000
C131	C13	0.245100	0.738800	0.127100
C141	C14	0.288700	0.652700	0.069700
C151	C15	0.240500	0.621000	0.110000
C161	C16	0.156900	0.667000	0.194100
C171	C17	0.174700	0.702900	0.244900
C181	C18	0.119000	0.692700	0.291200
C191	C19	0.049900	0.648400	0.284200
C201	C20	0.031700	0.615400	0.234500
C211	C21	0.085400	0.627000	0.187200
C221	C22	0.963800	0.688900	0.369700
C231	C23	0.911000	0.586600	0.393800
C241	C24	0.960600	0.572600	0.347300
C251	C25	0.179500	0.786300	0.951600
C261	C26	0.109600	0.827800	0.942100
C271	C27	0.190000	0.880200	0.007600
C281	C28	0.056500	0.944700	0.987700
C291	C29	0.086500	0.011300	0.003200
C301	C30	0.970300	0.932300	0.983100
C311	C31	0.586200	0.134100	0.547600
C321	C32	0.452000	0.151000	0.535400
C331	C33	0.484200	0.216300	0.548300
C341	C34	0.635400	0.262100	0.560600
C351	C35	0.640800	0.305800	0.608500
C361	C36	0.699300	0.362300	0.610700
C371	C37	0.753400	0.370300	0.566000
C381	C38	0.749400	0.327400	0.517600
C391	C39	0.690000	0.271200	0.515300
C401	C40	0.876000	0.639300	0.581500
C411	C41	0.988700	0.630200	0.530300
C421	C42	0.010700	0.615300	0.583700
C431	C43	0.930600	0.610400	0.676400
C441	C44	0.852100	0.587700	0.697300
C451	C45	0.842300	0.575900	0.754500
C461	C46	0.910200	0.586400	0.791000
C471	C47	0.987800	0.610200	0.771600
C481	C48	0.997700	0.621200	0.713300
C491	C49	0.824800	0.578100	0.881700
C501	C50	0.843500	0.553100	0.934300
C511	C51	0.959300	0.541300	0.884000
C521	C52	0.745100	0.761200	0.372900
C531	C53	0.788700	0.847300	0.430300
C541	C54	0.740500	0.879000	0.390000
C551	C55	0.656900	0.833000	0.305900
C561	C56	0.674700	0.797100	0.255100
C571	C57	0.619000	0.807300	0.208800
C581	C58	0.549900	0.851600	0.215800
C591	C59	0.531700	0.884600	0.265500
C601	C60	0.585400	0.873000	0.312800
C611	C61	0.463800	0.811100	0.130300
C621	C62	0.411000	0.913400	0.106200
C631	C63	0.460600	0.927400	0.152700
C641	C64	0.679500	0.713700	0.548400
C651	C65	0.609600	0.672200	0.557900
C661	C66	0.690000	0.619800	0.492400
C671	C67	0.556500	0.555300	0.512300
C681	C68	0.586500	0.488700	0.496800
C691	C69	0.470300	0.567700	0.516900
C701	C70	0.086200	0.365900	0.952400
C711	C71	0.952000	0.349000	0.964600
C721	C72	0.984200	0.283700	0.951700
C731	C73	0.135400	0.237900	0.939400
C741	C74	0.140800	0.194200	0.891500
C751	C75	0.199300	0.137700	0.889300
C761	C76	0.253400	0.129700	0.934000
C771	C77	0.249400	0.172600	0.982400
C781	C78	0.190000	0.228800	0.984700
C791	C79	0.624000	0.139300	0.081500
C801	C80	0.511300	0.130200	0.030300
C811	C81	0.489300	0.115300	0.083700
C821	C82	0.569400	0.110400	0.176400
C831	C83	0.647900	0.087700	0.197300
C841	C84	0.657700	0.075900	0.254500
C851	C85	0.589800	0.086400	0.291000
C861	C86	0.512200	0.110200	0.271600
C871	C87	0.502300	0.121200	0.213300
C881	C88	0.675200	0.078100	0.381700
C891	C89	0.656500	0.053100	0.434300
C901	C90	0.540700	0.041300	0.384000
C911	C91	0.754900	0.261200	0.872900
C921	C92	0.711300	0.347300	0.930300
C931	C93	0.759500	0.379000	0.890000
C941	C94	0.843100	0.333000	0.805900
C951	C95	0.825300	0.297100	0.755100
C961	C96	0.881000	0.307300	0.708800
C971	C97	0.950100	0.351600	0.715800
C981	C98	0.968300	0.384600	0.765500
C991	C99	0.914600	0.373000	0.812800
C1001	C100	0.036200	0.311100	0.630300
C1011	C101	0.089000	0.413400	0.606200
C1021	C102	0.039400	0.427400	0.652700
C1031	C103	0.820500	0.213700	0.048400
C1041	C104	0.890400	0.172200	0.057900
C1051	C105	0.810000	0.119800	0.992400
C1061	C106	0.943500	0.055300	0.012300
C1071	C107	0.913500	0.988700	0.996800
C1081	C108	0.029700	0.067700	0.016900
C1091	C109	0.413800	0.865900	0.452400
C1101	C110	0.548000	0.849000	0.464600
C1111	C111	0.515800	0.783700	0.451700
C1121	C112	0.364600	0.737900	0.439400
C1131	C113	0.359200	0.694200	0.391500
C1141	C114	0.300700	0.637700	0.389300
C1151	C115	0.246600	0.629700	0.434000
C1161	C116	0.250600	0.672600	0.482400
C1171	C117	0.310000	0.728800	0.484700
C1181	C118	0.124000	0.360700	0.418500
C1191	C119	0.011300	0.369800	0.469700
C1201	C120	0.989300	0.384700	0.416300
C1211	C121	0.069400	0.389600	0.323600
C1221	C122	0.147900	0.412300	0.302700
C1231	C123	0.157700	0.424100	0.245500
C1241	C124	0.089800	0.413600	0.209000
C1251	C125	0.012200	0.389800	0.228400
C1261	C126	0.002300	0.378800	0.286700
C1271	C127	0.175200	0.421900	0.118300
C1281	C128	0.156500	0.446900	0.065700
C1291	C129	0.040700	0.458700	0.116000
C1301	C130	0.254900	0.238800	0.627100
C1311	C131	0.211300	0.152700	0.569700
C1321	C132	0.259500	0.121000	0.610000
C1331	C133	0.343100	0.167000	0.694100
C1341	C134	0.325300	0.202900	0.744900
C1351	C135	0.381000	0.192700	0.791200
C1361	C136	0.450100	0.148400	0.784200
C1371	C137	0.468300	0.115400	0.734500
C1381	C138	0.414600	0.127000	0.687200
C1391	C139	0.536200	0.188900	0.869700
C1401	C140	0.589000	0.086600	0.893800
C1411	C141	0.539400	0.072600	0.847300
C1421	C142	0.320500	0.286300	0.451600
C1431	C143	0.390400	0.327800	0.442100
C1441	C144	0.310000	0.380200	0.507600
C1451	C145	0.443500	0.444700	0.487700
C1461	C146	0.413500	0.511300	0.503200
C1471	C147	0.529700	0.432300	0.483100
C1481	C148	0.913800	0.634100	0.047600
C1491	C149	0.048000	0.651000	0.035400
C1501	C150	0.015800	0.716300	0.048300
C1511	C151	0.864600	0.762100	0.060600
C1521	C152	0.859200	0.805800	0.108500
C1531	C153	0.800700	0.862300	0.110700
C1541	C154	0.746600	0.870300	0.066000
C1551	C155	0.750600	0.827400	0.017600
C1561	C156	0.810000	0.771200	0.015300
Br11	Br1	0.832340	0.447460	0.567480
Br21	Br2	0.332340	0.052540	0.932520
Br31	Br3	0.167660	0.552540	0.432520
Br41	Br4	0.667660	0.947460	0.067480
N11	N1	0.404000	0.853500	0.971400
N21	N2	0.439900	0.879100	0.883500
N31	N3	0.399200	0.928500	0.650200
N41	N4	0.427400	0.970200	0.564500
N51	N5	0.292500	0.726000	0.079900
N61	N6	0.212700	0.676100	0.145300
N71	N7	0.993700	0.637300	0.331900
N81	N8	0.914600	0.658900	0.408500
N91	N9	0.229700	0.820500	0.993300
N101	N10	0.117300	0.887000	0.978100
N111	N11	0.515000	0.099600	0.534600
N121	N12	0.571000	0.205600	0.555600
N131	N13	0.904000	0.646500	0.528600
N141	N14	0.939900	0.620900	0.616500
N151	N15	0.899200	0.571500	0.849800
N161	N16	0.927400	0.529800	0.935500
N171	N17	0.792500	0.774000	0.420100
N181	N18	0.712700	0.823900	0.354700
N191	N19	0.493700	0.862700	0.168100
N201	N20	0.414600	0.841100	0.091500
N211	N21	0.729700	0.679500	0.506700
N221	N22	0.617300	0.613000	0.521900
N231	N23	0.015000	0.400400	0.965400
N241	N24	0.071000	0.294400	0.944400
N251	N25	0.596000	0.146500	0.028600
N261	N26	0.560100	0.120900	0.116500
N271	N27	0.600800	0.071500	0.349800
N281	N28	0.572600	0.029800	0.435500
N291	N29	0.707500	0.274000	0.920100
N301	N30	0.787300	0.323900	0.854700
N311	N31	0.006300	0.362700	0.668100
N321	N32	0.085400	0.341100	0.591500
N331	N33	0.770300	0.179500	0.006700
N341	N34	0.882700	0.113000	0.021900
N351	N35	0.485000	0.900400	0.465400
N361	N36	0.429000	0.794400	0.444400
N371	N37	0.096000	0.353500	0.471400
N381	N38	0.060100	0.379100	0.383500
N391	N39	0.100800	0.428500	0.150200
N401	N40	0.072600	0.470200	0.064500
N411	N41	0.207500	0.226000	0.579900
N421	N42	0.287300	0.176100	0.645300
N431	N43	0.506300	0.137300	0.831900
N441	N44	0.585400	0.158900	0.908500
N451	N45	0.270300	0.320500	0.493300
N461	N46	0.382700	0.387000	0.478100
N471	N47	0.985000	0.599600	0.034600
N481	N48	0.929000	0.705600	0.055600
