data_OYERUH_clean_PM
_symmetry_space_group_name_H-M	'P1'
_cell_length_a	23.751000
_cell_length_b	30.607000
_cell_length_c	23.764000
_cell_angle_alpha	90.000000
_cell_angle_beta	90.000000
_cell_angle_gamma	90.000000
_symmetry_Int_Tables_number 1

loop_
_symmetry_equiv_pos_as_xyz
'x,y,z'

loop_
_atom_site_label
_atom_site_type_symbol
_atom_site_fract_x
_atom_site_fract_y
_atom_site_fract_z
N11	N1	0.629500	0.309300	0.693100
Cl11	Cl1	0.731400	0.234500	0.713700
Cl21	Cl2	0.554300	0.217400	0.699100
C11	C1	0.595900	0.313500	0.645500
C21	C2	0.668600	0.341500	0.706300
C31	C3	0.601500	0.350000	0.611100
H11	H1	0.569200	0.291500	0.636500
C41	C4	0.674100	0.378000	0.671900
H21	H2	0.691500	0.338600	0.738800
C51	C5	0.640600	0.382200	0.624300
H31	H3	0.578500	0.352900	0.578500
C61	C6	0.714400	0.410600	0.688400
H41	H4	0.644300	0.407100	0.600700
O11	O1	0.717800	0.443300	0.655900
O21	O2	0.741000	0.408100	0.735000
Cr11	Cr1	0.782460	0.452210	0.780130
O31	O3	0.675000	0.523500	0.653100
O41	O4	0.719100	0.447400	0.833800
C71	C7	0.639200	0.542300	0.684100
C81	C8	0.678500	0.472800	0.843100
O51	O5	0.671900	0.511100	0.831400
O61	O6	0.649500	0.553900	0.733500
C91	C9	0.585000	0.553400	0.659000
C101	C10	0.633500	0.450100	0.878700
C111	C11	0.550200	0.583700	0.683000
C121	C12	0.571300	0.533700	0.608700
C131	C13	0.628400	0.401900	0.879500
C141	C14	0.598900	0.477100	0.912400
H51	H5	0.560500	0.597400	0.717400
C151	C15	0.499000	0.594500	0.656700
N21	N2	0.523400	0.542600	0.582700
H61	H6	0.596700	0.513400	0.592400
H71	H7	0.652600	0.384100	0.857500
C161	C16	0.587700	0.383800	0.913100
N31	N3	0.558400	0.457000	0.945000
H81	H8	0.603500	0.507900	0.912700
H91	H9	0.473500	0.615400	0.671800
C171	C17	0.488600	0.572500	0.607400
H101	H10	0.581200	0.353200	0.914500
C181	C18	0.557400	0.412500	0.944100
H111	H11	0.454100	0.578600	0.588800
H121	H12	0.531200	0.399600	0.969400
Cl31	Cl3	0.624600	0.206000	0.667400
Cl41	Cl4	0.583920	0.449400	0.516420
N41	N4	0.129500	0.809300	0.693100
Cl51	Cl5	0.231400	0.734500	0.713700
Cl61	Cl6	0.054300	0.717400	0.699100
C191	C19	0.095900	0.813500	0.645500
C201	C20	0.168600	0.841500	0.706300
C211	C21	0.101500	0.850000	0.611100
H131	H13	0.069200	0.791500	0.636500
C221	C22	0.174100	0.878000	0.671900
H141	H14	0.191500	0.838600	0.738800
C231	C23	0.140600	0.882200	0.624300
H151	H15	0.078500	0.852900	0.578500
C241	C24	0.214400	0.910600	0.688400
H161	H16	0.144300	0.907100	0.600700
O71	O7	0.217800	0.943300	0.655900
O81	O8	0.241000	0.908100	0.735000
Cr21	Cr2	0.282460	0.952210	0.780130
O91	O9	0.175000	0.023500	0.653100
O101	O10	0.219100	0.947400	0.833800
C251	C25	0.139200	0.042300	0.684100
C261	C26	0.178500	0.972800	0.843100
O111	O11	0.171900	0.011100	0.831400
O121	O12	0.149500	0.053900	0.733500
C271	C27	0.085000	0.053400	0.659000
C281	C28	0.133500	0.950100	0.878700
C291	C29	0.050200	0.083700	0.683000
C301	C30	0.071300	0.033700	0.608700
C311	C31	0.128400	0.901900	0.879500
C321	C32	0.098900	0.977100	0.912400
H171	H17	0.060500	0.097400	0.717400
C331	C33	0.999000	0.094500	0.656700
N51	N5	0.023400	0.042600	0.582700
H181	H18	0.096700	0.013400	0.592400
H191	H19	0.152600	0.884100	0.857500
C341	C34	0.087700	0.883800	0.913100
N61	N6	0.058400	0.957000	0.945000
H201	H20	0.103500	0.007900	0.912700
H211	H21	0.973500	0.115400	0.671800
C351	C35	0.988600	0.072500	0.607400
H221	H22	0.081200	0.853200	0.914500
C361	C36	0.057400	0.912500	0.944100
H231	H23	0.954100	0.078600	0.588800
H241	H24	0.031200	0.899600	0.969400
Cl71	Cl7	0.124600	0.706000	0.667400
Cl81	Cl8	0.083920	0.949400	0.516420
N71	N7	0.870500	0.690700	0.693100
Cl91	Cl9	0.768600	0.765500	0.713700
Cl101	Cl10	0.945700	0.782600	0.699100
C371	C37	0.904100	0.686500	0.645500
C381	C38	0.831400	0.658500	0.706300
C391	C39	0.898500	0.650000	0.611100
H251	H25	0.930800	0.708500	0.636500
C401	C40	0.825900	0.622000	0.671900
H261	H26	0.808500	0.661400	0.738800
C411	C41	0.859400	0.617800	0.624300
H271	H27	0.921500	0.647100	0.578500
C421	C42	0.785600	0.589400	0.688400
H281	H28	0.855700	0.592900	0.600700
O131	O13	0.782200	0.556700	0.655900
O141	O14	0.759000	0.591900	0.735000
Cr31	Cr3	0.717540	0.547790	0.780130
O151	O15	0.825000	0.476500	0.653100
O161	O16	0.780900	0.552600	0.833800
C431	C43	0.860800	0.457700	0.684100
C441	C44	0.821500	0.527200	0.843100
O171	O17	0.828100	0.488900	0.831400
O181	O18	0.850500	0.446100	0.733500
C451	C45	0.915000	0.446600	0.659000
C461	C46	0.866500	0.549900	0.878700
C471	C47	0.949800	0.416300	0.683000
C481	C48	0.928700	0.466300	0.608700
C491	C49	0.871600	0.598100	0.879500
C501	C50	0.901100	0.522900	0.912400
H291	H29	0.939500	0.402600	0.717400
C511	C51	0.001000	0.405500	0.656700
N81	N8	0.976600	0.457400	0.582700
H301	H30	0.903300	0.486600	0.592400
H311	H31	0.847400	0.615900	0.857500
C521	C52	0.912300	0.616200	0.913100
N91	N9	0.941600	0.543000	0.945000
H321	H32	0.896500	0.492100	0.912700
H331	H33	0.026500	0.384600	0.671800
C531	C53	0.011400	0.427500	0.607400
H341	H34	0.918800	0.646800	0.914500
C541	C54	0.942600	0.587500	0.944100
H351	H35	0.045900	0.421400	0.588800
H361	H36	0.968800	0.600400	0.969400
Cl111	Cl11	0.875400	0.794000	0.667400
Cl121	Cl12	0.916080	0.550600	0.516420
N101	N10	0.370500	0.190700	0.693100
Cl131	Cl13	0.268600	0.265500	0.713700
Cl141	Cl14	0.445700	0.282600	0.699100
C551	C55	0.404100	0.186500	0.645500
C561	C56	0.331400	0.158500	0.706300
C571	C57	0.398500	0.150000	0.611100
H371	H37	0.430800	0.208500	0.636500
C581	C58	0.325900	0.122000	0.671900
H381	H38	0.308500	0.161400	0.738800
C591	C59	0.359400	0.117800	0.624300
H391	H39	0.421500	0.147100	0.578500
C601	C60	0.285600	0.089400	0.688400
H401	H40	0.355700	0.092900	0.600700
O191	O19	0.282200	0.056700	0.655900
O201	O20	0.259000	0.091900	0.735000
Cr41	Cr4	0.217540	0.047790	0.780130
O211	O21	0.325000	0.976500	0.653100
O221	O22	0.280900	0.052600	0.833800
C611	C61	0.360800	0.957700	0.684100
C621	C62	0.321500	0.027200	0.843100
O231	O23	0.328100	0.988900	0.831400
O241	O24	0.350500	0.946100	0.733500
C631	C63	0.415000	0.946600	0.659000
C641	C64	0.366500	0.049900	0.878700
C651	C65	0.449800	0.916300	0.683000
C661	C66	0.428700	0.966300	0.608700
C671	C67	0.371600	0.098100	0.879500
C681	C68	0.401100	0.022900	0.912400
H411	H41	0.439500	0.902600	0.717400
C691	C69	0.501000	0.905500	0.656700
N111	N11	0.476600	0.957400	0.582700
H421	H42	0.403300	0.986600	0.592400
H431	H43	0.347400	0.115900	0.857500
C701	C70	0.412300	0.116200	0.913100
N121	N12	0.441600	0.043000	0.945000
H441	H44	0.396500	0.992100	0.912700
H451	H45	0.526500	0.884600	0.671800
C711	C71	0.511400	0.927500	0.607400
H461	H46	0.418800	0.146800	0.914500
C721	C72	0.442600	0.087500	0.944100
H471	H47	0.545900	0.921400	0.588800
H481	H48	0.468800	0.100400	0.969400
Cl151	Cl15	0.375400	0.294000	0.667400
Cl161	Cl16	0.416080	0.050600	0.516420
N131	N13	0.370500	0.309300	0.806900
Cl171	Cl17	0.268600	0.234500	0.786300
Cl181	Cl18	0.445700	0.217400	0.800900
C731	C73	0.404100	0.313500	0.854500
C741	C74	0.331400	0.341500	0.793700
C751	C75	0.398500	0.350000	0.888900
H491	H49	0.430800	0.291500	0.863500
C761	C76	0.325900	0.378000	0.828100
H501	H50	0.308500	0.338600	0.761200
C771	C77	0.359400	0.382200	0.875700
H511	H51	0.421500	0.352900	0.921500
C781	C78	0.285600	0.410600	0.811600
H521	H52	0.355700	0.407100	0.899300
O251	O25	0.282200	0.443300	0.844100
O261	O26	0.259000	0.408100	0.765000
Cr51	Cr5	0.217540	0.452210	0.719870
O271	O27	0.325000	0.523500	0.846900
O281	O28	0.280900	0.447400	0.666200
C791	C79	0.360800	0.542300	0.815900
C801	C80	0.321500	0.472800	0.656900
O291	O29	0.328100	0.511100	0.668600
O301	O30	0.350500	0.553900	0.766500
C811	C81	0.415000	0.553400	0.841000
C821	C82	0.366500	0.450100	0.621300
C831	C83	0.449800	0.583700	0.817000
C841	C84	0.428700	0.533700	0.891300
C851	C85	0.371600	0.401900	0.620500
C861	C86	0.401100	0.477100	0.587600
H531	H53	0.439500	0.597400	0.782600
C871	C87	0.501000	0.594500	0.843300
N141	N14	0.476600	0.542600	0.917300
H541	H54	0.403300	0.513400	0.907600
H551	H55	0.347400	0.384100	0.642500
C881	C88	0.412300	0.383800	0.586900
N151	N15	0.441600	0.457000	0.555000
H561	H56	0.396500	0.507900	0.587300
H571	H57	0.526500	0.615400	0.828200
C891	C89	0.511400	0.572500	0.892600
H581	H58	0.418800	0.353200	0.585500
C901	C90	0.442600	0.412500	0.555900
H591	H59	0.545900	0.578600	0.911200
H601	H60	0.468800	0.399600	0.530600
Cl191	Cl19	0.375400	0.206000	0.832600
Cl201	Cl20	0.416080	0.449400	0.983580
N161	N16	0.870500	0.809300	0.806900
Cl211	Cl21	0.768600	0.734500	0.786300
Cl221	Cl22	0.945700	0.717400	0.800900
C911	C91	0.904100	0.813500	0.854500
C921	C92	0.831400	0.841500	0.793700
C931	C93	0.898500	0.850000	0.888900
H611	H61	0.930800	0.791500	0.863500
C941	C94	0.825900	0.878000	0.828100
H621	H62	0.808500	0.838600	0.761200
C951	C95	0.859400	0.882200	0.875700
H631	H63	0.921500	0.852900	0.921500
C961	C96	0.785600	0.910600	0.811600
H641	H64	0.855700	0.907100	0.899300
O311	O31	0.782200	0.943300	0.844100
O321	O32	0.759000	0.908100	0.765000
Cr61	Cr6	0.717540	0.952210	0.719870
O331	O33	0.825000	0.023500	0.846900
O341	O34	0.780900	0.947400	0.666200
C971	C97	0.860800	0.042300	0.815900
C981	C98	0.821500	0.972800	0.656900
O351	O35	0.828100	0.011100	0.668600
O361	O36	0.850500	0.053900	0.766500
C991	C99	0.915000	0.053400	0.841000
C1001	C100	0.866500	0.950100	0.621300
C1011	C101	0.949800	0.083700	0.817000
C1021	C102	0.928700	0.033700	0.891300
C1031	C103	0.871600	0.901900	0.620500
C1041	C104	0.901100	0.977100	0.587600
H651	H65	0.939500	0.097400	0.782600
C1051	C105	0.001000	0.094500	0.843300
N171	N17	0.976600	0.042600	0.917300
H661	H66	0.903300	0.013400	0.907600
H671	H67	0.847400	0.884100	0.642500
C1061	C106	0.912300	0.883800	0.586900
N181	N18	0.941600	0.957000	0.555000
H681	H68	0.896500	0.007900	0.587300
H691	H69	0.026500	0.115400	0.828200
C1071	C107	0.011400	0.072500	0.892600
H701	H70	0.918800	0.853200	0.585500
C1081	C108	0.942600	0.912500	0.555900
H711	H71	0.045900	0.078600	0.911200
H721	H72	0.968800	0.899600	0.530600
Cl231	Cl23	0.875400	0.706000	0.832600
Cl241	Cl24	0.916080	0.949400	0.983580
N191	N19	0.129500	0.690700	0.806900
Cl251	Cl25	0.231400	0.765500	0.786300
Cl261	Cl26	0.054300	0.782600	0.800900
C1091	C109	0.095900	0.686500	0.854500
C1101	C110	0.168600	0.658500	0.793700
C1111	C111	0.101500	0.650000	0.888900
H731	H73	0.069200	0.708500	0.863500
C1121	C112	0.174100	0.622000	0.828100
H741	H74	0.191500	0.661400	0.761200
C1131	C113	0.140600	0.617800	0.875700
H751	H75	0.078500	0.647100	0.921500
C1141	C114	0.214400	0.589400	0.811600
H761	H76	0.144300	0.592900	0.899300
O371	O37	0.217800	0.556700	0.844100
O381	O38	0.241000	0.591900	0.765000
Cr71	Cr7	0.282460	0.547790	0.719870
O391	O39	0.175000	0.476500	0.846900
O401	O40	0.219100	0.552600	0.666200
C1151	C115	0.139200	0.457700	0.815900
C1161	C116	0.178500	0.527200	0.656900
O411	O41	0.171900	0.488900	0.668600
O421	O42	0.149500	0.446100	0.766500
C1171	C117	0.085000	0.446600	0.841000
C1181	C118	0.133500	0.549900	0.621300
C1191	C119	0.050200	0.416300	0.817000
C1201	C120	0.071300	0.466300	0.891300
C1211	C121	0.128400	0.598100	0.620500
C1221	C122	0.098900	0.522900	0.587600
H771	H77	0.060500	0.402600	0.782600
C1231	C123	0.999000	0.405500	0.843300
N201	N20	0.023400	0.457400	0.917300
H781	H78	0.096700	0.486600	0.907600
H791	H79	0.152600	0.615900	0.642500
C1241	C124	0.087700	0.616200	0.586900
N211	N21	0.058400	0.543000	0.555000
H801	H80	0.103500	0.492100	0.587300
H811	H81	0.973500	0.384600	0.828200
C1251	C125	0.988600	0.427500	0.892600
H821	H82	0.081200	0.646800	0.585500
C1261	C126	0.057400	0.587500	0.555900
H831	H83	0.954100	0.421400	0.911200
H841	H84	0.031200	0.600400	0.530600
Cl271	Cl27	0.124600	0.794000	0.832600
Cl281	Cl28	0.083920	0.550600	0.983580
N221	N22	0.629500	0.190700	0.806900
Cl291	Cl29	0.731400	0.265500	0.786300
Cl301	Cl30	0.554300	0.282600	0.800900
C1271	C127	0.595900	0.186500	0.854500
C1281	C128	0.668600	0.158500	0.793700
C1291	C129	0.601500	0.150000	0.888900
H851	H85	0.569200	0.208500	0.863500
C1301	C130	0.674100	0.122000	0.828100
H861	H86	0.691500	0.161400	0.761200
C1311	C131	0.640600	0.117800	0.875700
H871	H87	0.578500	0.147100	0.921500
C1321	C132	0.714400	0.089400	0.811600
H881	H88	0.644300	0.092900	0.899300
O431	O43	0.717800	0.056700	0.844100
O441	O44	0.741000	0.091900	0.765000
Cr81	Cr8	0.782460	0.047790	0.719870
O451	O45	0.675000	0.976500	0.846900
O461	O46	0.719100	0.052600	0.666200
C1331	C133	0.639200	0.957700	0.815900
C1341	C134	0.678500	0.027200	0.656900
O471	O47	0.671900	0.988900	0.668600
O481	O48	0.649500	0.946100	0.766500
C1351	C135	0.585000	0.946600	0.841000
C1361	C136	0.633500	0.049900	0.621300
C1371	C137	0.550200	0.916300	0.817000
C1381	C138	0.571300	0.966300	0.891300
C1391	C139	0.628400	0.098100	0.620500
C1401	C140	0.598900	0.022900	0.587600
H891	H89	0.560500	0.902600	0.782600
C1411	C141	0.499000	0.905500	0.843300
N231	N23	0.523400	0.957400	0.917300
H901	H90	0.596700	0.986600	0.907600
H911	H91	0.652600	0.115900	0.642500
C1421	C142	0.587700	0.116200	0.586900
N241	N24	0.558400	0.043000	0.555000
H921	H92	0.603500	0.992100	0.587300
H931	H93	0.473500	0.884600	0.828200
C1431	C143	0.488600	0.927500	0.892600
H941	H94	0.581200	0.146800	0.585500
C1441	C144	0.557400	0.087500	0.555900
H951	H95	0.454100	0.921400	0.911200
H961	H96	0.531200	0.100400	0.530600
Cl311	Cl31	0.624600	0.294000	0.832600
Cl321	Cl32	0.583920	0.050600	0.983580
N251	N25	0.370500	0.690700	0.306900
Cl331	Cl33	0.268600	0.765500	0.286300
Cl341	Cl34	0.445700	0.782600	0.300900
C1451	C145	0.404100	0.686500	0.354500
C1461	C146	0.331400	0.658500	0.293700
C1471	C147	0.398500	0.650000	0.388900
H971	H97	0.430800	0.708500	0.363500
C1481	C148	0.325900	0.622000	0.328100
H981	H98	0.308500	0.661400	0.261200
C1491	C149	0.359400	0.617800	0.375700
H991	H99	0.421500	0.647100	0.421500
C1501	C150	0.285600	0.589400	0.311600
H1001	H100	0.355700	0.592900	0.399300
O491	O49	0.282200	0.556700	0.344100
O501	O50	0.259000	0.591900	0.265000
Cr91	Cr9	0.217540	0.547790	0.219870
O511	O51	0.325000	0.476500	0.346900
O521	O52	0.280900	0.552600	0.166200
C1511	C151	0.360800	0.457700	0.315900
C1521	C152	0.321500	0.527200	0.156900
O531	O53	0.328100	0.488900	0.168600
O541	O54	0.350500	0.446100	0.266500
C1531	C153	0.415000	0.446600	0.341000
C1541	C154	0.366500	0.549900	0.121300
C1551	C155	0.449800	0.416300	0.317000
C1561	C156	0.428700	0.466300	0.391300
C1571	C157	0.371600	0.598100	0.120500
C1581	C158	0.401100	0.522900	0.087600
H1011	H101	0.439500	0.402600	0.282600
C1591	C159	0.501000	0.405500	0.343300
N261	N26	0.476600	0.457400	0.417300
H1021	H102	0.403300	0.486600	0.407600
H1031	H103	0.347400	0.615900	0.142500
C1601	C160	0.412300	0.616200	0.086900
N271	N27	0.441600	0.543000	0.055000
H1041	H104	0.396500	0.492100	0.087300
H1051	H105	0.526500	0.384600	0.328200
C1611	C161	0.511400	0.427500	0.392600
H1061	H106	0.418800	0.646800	0.085500
C1621	C162	0.442600	0.587500	0.055900
H1071	H107	0.545900	0.421400	0.411200
H1081	H108	0.468800	0.600400	0.030600
Cl351	Cl35	0.375400	0.794000	0.332600
Cl361	Cl36	0.416080	0.550600	0.483580
N281	N28	0.870500	0.190700	0.306900
Cl371	Cl37	0.768600	0.265500	0.286300
Cl381	Cl38	0.945700	0.282600	0.300900
C1631	C163	0.904100	0.186500	0.354500
C1641	C164	0.831400	0.158500	0.293700
C1651	C165	0.898500	0.150000	0.388900
H1091	H109	0.930800	0.208500	0.363500
C1661	C166	0.825900	0.122000	0.328100
H1101	H110	0.808500	0.161400	0.261200
C1671	C167	0.859400	0.117800	0.375700
H1111	H111	0.921500	0.147100	0.421500
C1681	C168	0.785600	0.089400	0.311600
H1121	H112	0.855700	0.092900	0.399300
O551	O55	0.782200	0.056700	0.344100
O561	O56	0.759000	0.091900	0.265000
Cr101	Cr10	0.717540	0.047790	0.219870
O571	O57	0.825000	0.976500	0.346900
O581	O58	0.780900	0.052600	0.166200
C1691	C169	0.860800	0.957700	0.315900
C1701	C170	0.821500	0.027200	0.156900
O591	O59	0.828100	0.988900	0.168600
O601	O60	0.850500	0.946100	0.266500
C1711	C171	0.915000	0.946600	0.341000
C1721	C172	0.866500	0.049900	0.121300
C1731	C173	0.949800	0.916300	0.317000
C1741	C174	0.928700	0.966300	0.391300
C1751	C175	0.871600	0.098100	0.120500
C1761	C176	0.901100	0.022900	0.087600
H1131	H113	0.939500	0.902600	0.282600
C1771	C177	0.001000	0.905500	0.343300
N291	N29	0.976600	0.957400	0.417300
H1141	H114	0.903300	0.986600	0.407600
H1151	H115	0.847400	0.115900	0.142500
C1781	C178	0.912300	0.116200	0.086900
N301	N30	0.941600	0.043000	0.055000
H1161	H116	0.896500	0.992100	0.087300
H1171	H117	0.026500	0.884600	0.328200
C1791	C179	0.011400	0.927500	0.392600
H1181	H118	0.918800	0.146800	0.085500
C1801	C180	0.942600	0.087500	0.055900
H1191	H119	0.045900	0.921400	0.411200
H1201	H120	0.968800	0.100400	0.030600
Cl391	Cl39	0.875400	0.294000	0.332600
Cl401	Cl40	0.916080	0.050600	0.483580
N311	N31	0.129500	0.309300	0.306900
Cl411	Cl41	0.231400	0.234500	0.286300
Cl421	Cl42	0.054300	0.217400	0.300900
C1811	C181	0.095900	0.313500	0.354500
C1821	C182	0.168600	0.341500	0.293700
C1831	C183	0.101500	0.350000	0.388900
H1211	H121	0.069200	0.291500	0.363500
C1841	C184	0.174100	0.378000	0.328100
H1221	H122	0.191500	0.338600	0.261200
C1851	C185	0.140600	0.382200	0.375700
H1231	H123	0.078500	0.352900	0.421500
C1861	C186	0.214400	0.410600	0.311600
H1241	H124	0.144300	0.407100	0.399300
O611	O61	0.217800	0.443300	0.344100
O621	O62	0.241000	0.408100	0.265000
Cr111	Cr11	0.282460	0.452210	0.219870
O631	O63	0.175000	0.523500	0.346900
O641	O64	0.219100	0.447400	0.166200
C1871	C187	0.139200	0.542300	0.315900
C1881	C188	0.178500	0.472800	0.156900
O651	O65	0.171900	0.511100	0.168600
O661	O66	0.149500	0.553900	0.266500
C1891	C189	0.085000	0.553400	0.341000
C1901	C190	0.133500	0.450100	0.121300
C1911	C191	0.050200	0.583700	0.317000
C1921	C192	0.071300	0.533700	0.391300
C1931	C193	0.128400	0.401900	0.120500
C1941	C194	0.098900	0.477100	0.087600
H1251	H125	0.060500	0.597400	0.282600
C1951	C195	0.999000	0.594500	0.343300
N321	N32	0.023400	0.542600	0.417300
H1261	H126	0.096700	0.513400	0.407600
H1271	H127	0.152600	0.384100	0.142500
C1961	C196	0.087700	0.383800	0.086900
N331	N33	0.058400	0.457000	0.055000
H1281	H128	0.103500	0.507900	0.087300
H1291	H129	0.973500	0.615400	0.328200
C1971	C197	0.988600	0.572500	0.392600
H1301	H130	0.081200	0.353200	0.085500
C1981	C198	0.057400	0.412500	0.055900
H1311	H131	0.954100	0.578600	0.411200
H1321	H132	0.031200	0.399600	0.030600
Cl431	Cl43	0.124600	0.206000	0.332600
Cl441	Cl44	0.083920	0.449400	0.483580
N341	N34	0.629500	0.809300	0.306900
Cl451	Cl45	0.731400	0.734500	0.286300
Cl461	Cl46	0.554300	0.717400	0.300900
C1991	C199	0.595900	0.813500	0.354500
C2001	C200	0.668600	0.841500	0.293700
C2011	C201	0.601500	0.850000	0.388900
H1331	H133	0.569200	0.791500	0.363500
C2021	C202	0.674100	0.878000	0.328100
H1341	H134	0.691500	0.838600	0.261200
C2031	C203	0.640600	0.882200	0.375700
H1351	H135	0.578500	0.852900	0.421500
C2041	C204	0.714400	0.910600	0.311600
H1361	H136	0.644300	0.907100	0.399300
O671	O67	0.717800	0.943300	0.344100
O681	O68	0.741000	0.908100	0.265000
Cr121	Cr12	0.782460	0.952210	0.219870
O691	O69	0.675000	0.023500	0.346900
O701	O70	0.719100	0.947400	0.166200
C2051	C205	0.639200	0.042300	0.315900
C2061	C206	0.678500	0.972800	0.156900
O711	O71	0.671900	0.011100	0.168600
O721	O72	0.649500	0.053900	0.266500
C2071	C207	0.585000	0.053400	0.341000
C2081	C208	0.633500	0.950100	0.121300
C2091	C209	0.550200	0.083700	0.317000
C2101	C210	0.571300	0.033700	0.391300
C2111	C211	0.628400	0.901900	0.120500
C2121	C212	0.598900	0.977100	0.087600
H1371	H137	0.560500	0.097400	0.282600
C2131	C213	0.499000	0.094500	0.343300
N351	N35	0.523400	0.042600	0.417300
H1381	H138	0.596700	0.013400	0.407600
H1391	H139	0.652600	0.884100	0.142500
C2141	C214	0.587700	0.883800	0.086900
N361	N36	0.558400	0.957000	0.055000
H1401	H140	0.603500	0.007900	0.087300
H1411	H141	0.473500	0.115400	0.328200
C2151	C215	0.488600	0.072500	0.392600
H1421	H142	0.581200	0.853200	0.085500
C2161	C216	0.557400	0.912500	0.055900
H1431	H143	0.454100	0.078600	0.411200
H1441	H144	0.531200	0.899600	0.030600
Cl471	Cl47	0.624600	0.706000	0.332600
Cl481	Cl48	0.583920	0.949400	0.483580
N371	N37	0.629500	0.690700	0.193100
Cl491	Cl49	0.731400	0.765500	0.213700
Cl501	Cl50	0.554300	0.782600	0.199100
C2171	C217	0.595900	0.686500	0.145500
C2181	C218	0.668600	0.658500	0.206300
C2191	C219	0.601500	0.650000	0.111100
H1451	H145	0.569200	0.708500	0.136500
C2201	C220	0.674100	0.622000	0.171900
H1461	H146	0.691500	0.661400	0.238800
C2211	C221	0.640600	0.617800	0.124300
H1471	H147	0.578500	0.647100	0.078500
C2221	C222	0.714400	0.589400	0.188400
H1481	H148	0.644300	0.592900	0.100700
O731	O73	0.717800	0.556700	0.155900
O741	O74	0.741000	0.591900	0.235000
Cr131	Cr13	0.782460	0.547790	0.280130
O751	O75	0.675000	0.476500	0.153100
O761	O76	0.719100	0.552600	0.333800
C2231	C223	0.639200	0.457700	0.184100
C2241	C224	0.678500	0.527200	0.343100
O771	O77	0.671900	0.488900	0.331400
O781	O78	0.649500	0.446100	0.233500
C2251	C225	0.585000	0.446600	0.159000
C2261	C226	0.633500	0.549900	0.378700
C2271	C227	0.550200	0.416300	0.183000
C2281	C228	0.571300	0.466300	0.108700
C2291	C229	0.628400	0.598100	0.379500
C2301	C230	0.598900	0.522900	0.412400
H1491	H149	0.560500	0.402600	0.217400
C2311	C231	0.499000	0.405500	0.156700
N381	N38	0.523400	0.457400	0.082700
H1501	H150	0.596700	0.486600	0.092400
H1511	H151	0.652600	0.615900	0.357500
C2321	C232	0.587700	0.616200	0.413100
N391	N39	0.558400	0.543000	0.445000
H1521	H152	0.603500	0.492100	0.412700
H1531	H153	0.473500	0.384600	0.171800
C2331	C233	0.488600	0.427500	0.107400
H1541	H154	0.581200	0.646800	0.414500
C2341	C234	0.557400	0.587500	0.444100
H1551	H155	0.454100	0.421400	0.088800
H1561	H156	0.531200	0.600400	0.469400
Cl511	Cl51	0.624600	0.794000	0.167400
Cl521	Cl52	0.583920	0.550600	0.016420
N401	N40	0.129500	0.190700	0.193100
Cl531	Cl53	0.231400	0.265500	0.213700
Cl541	Cl54	0.054300	0.282600	0.199100
C2351	C235	0.095900	0.186500	0.145500
C2361	C236	0.168600	0.158500	0.206300
C2371	C237	0.101500	0.150000	0.111100
H1571	H157	0.069200	0.208500	0.136500
C2381	C238	0.174100	0.122000	0.171900
H1581	H158	0.191500	0.161400	0.238800
C2391	C239	0.140600	0.117800	0.124300
H1591	H159	0.078500	0.147100	0.078500
C2401	C240	0.214400	0.089400	0.188400
H1601	H160	0.144300	0.092900	0.100700
O791	O79	0.217800	0.056700	0.155900
O801	O80	0.241000	0.091900	0.235000
Cr141	Cr14	0.282460	0.047790	0.280130
O811	O81	0.175000	0.976500	0.153100
O821	O82	0.219100	0.052600	0.333800
C2411	C241	0.139200	0.957700	0.184100
C2421	C242	0.178500	0.027200	0.343100
O831	O83	0.171900	0.988900	0.331400
O841	O84	0.149500	0.946100	0.233500
C2431	C243	0.085000	0.946600	0.159000
C2441	C244	0.133500	0.049900	0.378700
C2451	C245	0.050200	0.916300	0.183000
C2461	C246	0.071300	0.966300	0.108700
C2471	C247	0.128400	0.098100	0.379500
C2481	C248	0.098900	0.022900	0.412400
H1611	H161	0.060500	0.902600	0.217400
C2491	C249	0.999000	0.905500	0.156700
N411	N41	0.023400	0.957400	0.082700
H1621	H162	0.096700	0.986600	0.092400
H1631	H163	0.152600	0.115900	0.357500
C2501	C250	0.087700	0.116200	0.413100
N421	N42	0.058400	0.043000	0.445000
H1641	H164	0.103500	0.992100	0.412700
H1651	H165	0.973500	0.884600	0.171800
C2511	C251	0.988600	0.927500	0.107400
H1661	H166	0.081200	0.146800	0.414500
C2521	C252	0.057400	0.087500	0.444100
H1671	H167	0.954100	0.921400	0.088800
H1681	H168	0.031200	0.100400	0.469400
Cl551	Cl55	0.124600	0.294000	0.167400
Cl561	Cl56	0.083920	0.050600	0.016420
N431	N43	0.870500	0.309300	0.193100
Cl571	Cl57	0.768600	0.234500	0.213700
Cl581	Cl58	0.945700	0.217400	0.199100
C2531	C253	0.904100	0.313500	0.145500
C2541	C254	0.831400	0.341500	0.206300
C2551	C255	0.898500	0.350000	0.111100
H1691	H169	0.930800	0.291500	0.136500
C2561	C256	0.825900	0.378000	0.171900
H1701	H170	0.808500	0.338600	0.238800
C2571	C257	0.859400	0.382200	0.124300
H1711	H171	0.921500	0.352900	0.078500
C2581	C258	0.785600	0.410600	0.188400
H1721	H172	0.855700	0.407100	0.100700
O851	O85	0.782200	0.443300	0.155900
O861	O86	0.759000	0.408100	0.235000
Cr151	Cr15	0.717540	0.452210	0.280130
O871	O87	0.825000	0.523500	0.153100
O881	O88	0.780900	0.447400	0.333800
C2591	C259	0.860800	0.542300	0.184100
C2601	C260	0.821500	0.472800	0.343100
O891	O89	0.828100	0.511100	0.331400
O901	O90	0.850500	0.553900	0.233500
C2611	C261	0.915000	0.553400	0.159000
C2621	C262	0.866500	0.450100	0.378700
C2631	C263	0.949800	0.583700	0.183000
C2641	C264	0.928700	0.533700	0.108700
C2651	C265	0.871600	0.401900	0.379500
C2661	C266	0.901100	0.477100	0.412400
H1731	H173	0.939500	0.597400	0.217400
C2671	C267	0.001000	0.594500	0.156700
N441	N44	0.976600	0.542600	0.082700
H1741	H174	0.903300	0.513400	0.092400
H1751	H175	0.847400	0.384100	0.357500
C2681	C268	0.912300	0.383800	0.413100
N451	N45	0.941600	0.457000	0.445000
H1761	H176	0.896500	0.507900	0.412700
H1771	H177	0.026500	0.615400	0.171800
C2691	C269	0.011400	0.572500	0.107400
H1781	H178	0.918800	0.353200	0.414500
C2701	C270	0.942600	0.412500	0.444100
H1791	H179	0.045900	0.578600	0.088800
H1801	H180	0.968800	0.399600	0.469400
Cl591	Cl59	0.875400	0.206000	0.167400
Cl601	Cl60	0.916080	0.449400	0.016420
N461	N46	0.370500	0.809300	0.193100
Cl611	Cl61	0.268600	0.734500	0.213700
Cl621	Cl62	0.445700	0.717400	0.199100
C2711	C271	0.404100	0.813500	0.145500
C2721	C272	0.331400	0.841500	0.206300
C2731	C273	0.398500	0.850000	0.111100
H1811	H181	0.430800	0.791500	0.136500
C2741	C274	0.325900	0.878000	0.171900
H1821	H182	0.308500	0.838600	0.238800
C2751	C275	0.359400	0.882200	0.124300
H1831	H183	0.421500	0.852900	0.078500
C2761	C276	0.285600	0.910600	0.188400
H1841	H184	0.355700	0.907100	0.100700
O911	O91	0.282200	0.943300	0.155900
O921	O92	0.259000	0.908100	0.235000
Cr161	Cr16	0.217540	0.952210	0.280130
O931	O93	0.325000	0.023500	0.153100
O941	O94	0.280900	0.947400	0.333800
C2771	C277	0.360800	0.042300	0.184100
C2781	C278	0.321500	0.972800	0.343100
O951	O95	0.328100	0.011100	0.331400
O961	O96	0.350500	0.053900	0.233500
C2791	C279	0.415000	0.053400	0.159000
C2801	C280	0.366500	0.950100	0.378700
C2811	C281	0.449800	0.083700	0.183000
C2821	C282	0.428700	0.033700	0.108700
C2831	C283	0.371600	0.901900	0.379500
C2841	C284	0.401100	0.977100	0.412400
H1851	H185	0.439500	0.097400	0.217400
C2851	C285	0.501000	0.094500	0.156700
N471	N47	0.476600	0.042600	0.082700
H1861	H186	0.403300	0.013400	0.092400
H1871	H187	0.347400	0.884100	0.357500
C2861	C286	0.412300	0.883800	0.413100
N481	N48	0.441600	0.957000	0.445000
H1881	H188	0.396500	0.007900	0.412700
H1891	H189	0.526500	0.115400	0.171800
C2871	C287	0.511400	0.072500	0.107400
H1901	H190	0.418800	0.853200	0.414500
C2881	C288	0.442600	0.912500	0.444100
H1911	H191	0.545900	0.078600	0.088800
H1921	H192	0.468800	0.899600	0.469400
Cl631	Cl63	0.375400	0.706000	0.167400
Cl641	Cl64	0.416080	0.949400	0.016420
Cd11	Cd1	0.630500	0.250000	0.750000
Cd21	Cd2	0.869500	0.750000	0.750000
Cd31	Cd3	0.369500	0.250000	0.750000
Cd41	Cd4	0.130500	0.750000	0.750000
Cd51	Cd5	0.369500	0.750000	0.250000
Cd61	Cd6	0.130500	0.250000	0.250000
Cd71	Cd7	0.630500	0.750000	0.250000
Cd81	Cd8	0.869500	0.250000	0.250000
Cr171	Cr17	0.750000	0.500000	0.661020
O971	O97	0.750000	0.500000	0.742600
Cr181	Cr18	0.250000	0.000000	0.661020
O981	O98	0.250000	0.000000	0.742600
Cr191	Cr19	0.250000	0.500000	0.838980
O991	O99	0.250000	0.500000	0.757400
Cr201	Cr20	0.750000	0.000000	0.838980
O1001	O100	0.750000	0.000000	0.757400
Cr211	Cr21	0.250000	0.500000	0.338980
O1011	O101	0.250000	0.500000	0.257400
Cr221	Cr22	0.750000	0.000000	0.338980
O1021	O102	0.750000	0.000000	0.257400
Cr231	Cr23	0.750000	0.500000	0.161020
O1031	O103	0.750000	0.500000	0.242600
Cr241	Cr24	0.250000	0.000000	0.161020
O1041	O104	0.250000	0.000000	0.242600
Cd91	Cd9	0.500000	0.500000	0.500000
Cd101	Cd10	0.000000	0.000000	0.500000
Cd111	Cd11	0.000000	0.500000	0.500000
Cd121	Cd12	0.500000	0.000000	0.500000
Cd131	Cd13	0.500000	0.500000	0.000000
Cd141	Cd14	0.000000	0.000000	0.000000
Cd151	Cd15	0.000000	0.500000	0.000000
Cd161	Cd16	0.500000	0.000000	0.000000
