data_OYIVOI_clean_PM
_symmetry_space_group_name_H-M	'P1'
_cell_length_a	7.185000
_cell_length_b	9.185400
_cell_length_c	21.544000
_cell_angle_alpha	90.000000
_cell_angle_beta	90.000000
_cell_angle_gamma	90.000000
_symmetry_Int_Tables_number 1

loop_
_symmetry_equiv_pos_as_xyz
'x,y,z'

loop_
_atom_site_label
_atom_site_type_symbol
_atom_site_fract_x
_atom_site_fract_y
_atom_site_fract_z
C11	C1	0.910600	0.210400	0.095100
C21	C2	0.913600	0.257000	0.153200
H11	H1	0.027500	0.279700	0.171200
N11	N1	0.649400	0.400800	0.338000
N21	N2	0.592900	0.351500	0.285500
O11	O1	0.605900	0.117900	0.971000
F11	F1	0.095000	0.210000	0.070500
C31	C3	0.410600	0.710400	0.595100
C41	C4	0.413600	0.757000	0.653200
H21	H2	0.527500	0.779700	0.671200
N31	N3	0.149400	0.900800	0.838000
N41	N4	0.092900	0.851500	0.785500
O21	O2	0.105900	0.617900	0.471000
F21	F2	0.595000	0.710000	0.570500
C51	C5	0.089400	0.789600	0.095100
C61	C6	0.086400	0.743000	0.153200
H31	H3	0.972500	0.720300	0.171200
N51	N5	0.350600	0.599200	0.338000
N61	N6	0.407100	0.648500	0.285500
O31	O3	0.394100	0.882100	0.971000
F31	F3	0.905000	0.790000	0.070500
C71	C7	0.589400	0.289600	0.595100
C81	C8	0.586400	0.243000	0.653200
H41	H4	0.472500	0.220300	0.671200
N71	N7	0.850600	0.099200	0.838000
N81	N8	0.907100	0.148500	0.785500
O41	O4	0.894100	0.382100	0.471000
F41	F4	0.405000	0.290000	0.570500
C91	C9	0.410600	0.789600	0.095100
C101	C10	0.413600	0.743000	0.153200
H51	H5	0.527500	0.720300	0.171200
N91	N9	0.149400	0.599200	0.338000
N101	N10	0.092900	0.648500	0.285500
O51	O5	0.105900	0.882100	0.971000
F51	F5	0.595000	0.790000	0.070500
C111	C11	0.910600	0.289600	0.595100
C121	C12	0.913600	0.243000	0.653200
H61	H6	0.027500	0.220300	0.671200
N111	N11	0.649400	0.099200	0.838000
N121	N12	0.592900	0.148500	0.785500
O61	O6	0.605900	0.382100	0.471000
F61	F6	0.095000	0.290000	0.570500
C131	C13	0.589400	0.210400	0.095100
C141	C14	0.586400	0.257000	0.153200
H71	H7	0.472500	0.279700	0.171200
N131	N13	0.850600	0.400800	0.338000
N141	N14	0.907100	0.351500	0.285500
O71	O7	0.894100	0.117900	0.971000
F71	F7	0.405000	0.210000	0.070500
C151	C15	0.089400	0.710400	0.595100
C161	C16	0.086400	0.757000	0.653200
H81	H8	0.972500	0.779700	0.671200
N151	N15	0.350600	0.900800	0.838000
N161	N16	0.407100	0.851500	0.785500
O81	O8	0.394100	0.617900	0.471000
F81	F8	0.905000	0.710000	0.570500
C171	C17	0.750000	0.182400	0.060400
C181	C18	0.750000	0.314000	0.251600
C191	C19	0.750000	0.138800	0.995600
C201	C20	0.750000	0.273300	0.188700
C211	C21	0.250000	0.682400	0.560400
C221	C22	0.250000	0.814000	0.751600
C231	C23	0.250000	0.638800	0.495600
C241	C24	0.250000	0.773300	0.688700
C251	C25	0.250000	0.817600	0.060400
C261	C26	0.250000	0.686000	0.251600
C271	C27	0.250000	0.861200	0.995600
C281	C28	0.250000	0.726700	0.188700
C291	C29	0.750000	0.317600	0.560400
C301	C30	0.750000	0.186000	0.751600
C311	C31	0.750000	0.361200	0.495600
C321	C32	0.750000	0.226700	0.688700
Cu11	Cu1	0.500000	0.500000	0.403600
Cu21	Cu2	0.000000	0.000000	0.903600
Cu31	Cu3	0.000000	0.500000	0.403600
Cu41	Cu4	0.500000	0.000000	0.903600
