data_OYIVEY_clean_PM
_symmetry_space_group_name_H-M	'P1'
_cell_length_a	13.464000
_cell_length_b	19.717000
_cell_length_c	29.985000
_cell_angle_alpha	90.000000
_cell_angle_beta	90.000000
_cell_angle_gamma	90.000000
_symmetry_Int_Tables_number 1

loop_
_symmetry_equiv_pos_as_xyz
'x,y,z'

loop_
_atom_site_label
_atom_site_type_symbol
_atom_site_fract_x
_atom_site_fract_y
_atom_site_fract_z
Cu11	Cu1	0.115570	0.469430	0.641950
Cu21	Cu2	0.568850	0.468360	0.619180
Cu31	Cu3	0.349810	0.468950	0.699310
Cu41	Cu4	0.026670	0.969900	0.542160
Cu51	Cu5	0.884430	0.469430	0.358050
Cu61	Cu6	0.431150	0.468360	0.380820
Cu71	Cu7	0.650190	0.468950	0.300690
Cu81	Cu8	0.973330	0.969900	0.457840
Cu91	Cu9	0.615570	0.969430	0.858050
Cu101	Cu10	0.068850	0.968360	0.880820
Cu111	Cu11	0.849810	0.968950	0.800690
Cu121	Cu12	0.526670	0.469900	0.957840
Cu131	Cu13	0.384430	0.969430	0.141950
Cu141	Cu14	0.931150	0.968360	0.119180
Cu151	Cu15	0.150190	0.968950	0.199310
Cu161	Cu16	0.473330	0.469900	0.042160
Cu171	Cu17	0.500000	0.472020	0.500000
Cu181	Cu18	0.000000	0.972020	0.000000
H11	H1	0.764700	0.137300	0.463100
H21	H2	0.676600	0.236700	0.475200
H31	H3	0.780800	0.244300	0.600700
H41	H4	0.868900	0.144900	0.588500
H51	H5	0.185000	0.139800	0.821600
H61	H6	0.239800	0.238900	0.787800
H71	H7	0.006600	0.233300	0.704300
H81	H8	0.951800	0.134200	0.738000
H91	H9	0.213100	0.366100	0.509700
H101	H10	0.104700	0.369100	0.449600
H111	H11	0.077100	0.570800	0.463900
H121	H12	0.185500	0.567900	0.524000
H131	H13	0.242900	0.706400	0.785500
H141	H14	0.189600	0.809400	0.813300
H151	H15	0.932600	0.788400	0.754600
H161	H16	0.984400	0.686200	0.721900
H171	H17	0.754500	0.811500	0.459800
H181	H18	0.663600	0.713000	0.470900
H191	H19	0.732200	0.717300	0.601300
H201	H20	0.823100	0.815800	0.590200
H211	H21	0.235300	0.137300	0.536900
H221	H22	0.323400	0.236700	0.524800
H231	H23	0.219200	0.244300	0.399300
H241	H24	0.131100	0.144900	0.411500
H251	H25	0.815000	0.139800	0.178400
H261	H26	0.760200	0.238900	0.212200
H271	H27	0.993400	0.233300	0.295700
H281	H28	0.048200	0.134200	0.262000
H291	H29	0.786900	0.366100	0.490300
H301	H30	0.895300	0.369100	0.550400
H311	H31	0.922900	0.570800	0.536100
H321	H32	0.814500	0.567900	0.476000
H331	H33	0.757100	0.706400	0.214500
H341	H34	0.810400	0.809400	0.186700
H351	H35	0.067400	0.788400	0.245400
H361	H36	0.015600	0.686200	0.278100
H371	H37	0.245500	0.811500	0.540200
H381	H38	0.336400	0.713000	0.529100
H391	H39	0.267800	0.717300	0.398700
H401	H40	0.176900	0.815800	0.409800
H411	H41	0.264700	0.637300	0.036900
H421	H42	0.176600	0.736700	0.024800
H431	H43	0.280800	0.744300	0.899300
H441	H44	0.368900	0.644900	0.911500
H451	H45	0.685000	0.639800	0.678400
H461	H46	0.739800	0.738900	0.712200
H471	H47	0.506600	0.733300	0.795700
H481	H48	0.451800	0.634200	0.762000
H491	H49	0.713100	0.866100	0.990300
H501	H50	0.604700	0.869100	0.050400
H511	H51	0.577100	0.070800	0.036100
H521	H52	0.685500	0.067900	0.976000
H531	H53	0.742900	0.206400	0.714500
H541	H54	0.689600	0.309400	0.686700
H551	H55	0.432600	0.288400	0.745400
H561	H56	0.484400	0.186200	0.778100
H571	H57	0.254500	0.311500	0.040200
H581	H58	0.163600	0.213000	0.029100
H591	H59	0.232200	0.217300	0.898700
H601	H60	0.323100	0.315800	0.909800
H611	H61	0.735300	0.637300	0.963100
H621	H62	0.823400	0.736700	0.975200
H631	H63	0.719200	0.744300	0.100700
H641	H64	0.631100	0.644900	0.088500
H651	H65	0.315000	0.639800	0.321600
H661	H66	0.260200	0.738900	0.287800
H671	H67	0.493400	0.733300	0.204300
H681	H68	0.548200	0.634200	0.238000
H691	H69	0.286900	0.866100	0.009700
H701	H70	0.395300	0.869100	0.949600
H711	H71	0.422900	0.070800	0.963900
H721	H72	0.314500	0.067900	0.024000
H731	H73	0.257100	0.206400	0.285500
H741	H74	0.310400	0.309400	0.313300
H751	H75	0.567400	0.288400	0.254600
H761	H76	0.515600	0.186200	0.221900
H771	H77	0.745500	0.311500	0.959800
H781	H78	0.836400	0.213000	0.970900
H791	H79	0.767800	0.217300	0.101300
H801	H80	0.676900	0.315800	0.090200
C11	C1	0.668200	0.312500	0.546500
C21	C2	0.767900	0.158800	0.490600
C31	C3	0.715200	0.218300	0.497900
C41	C4	0.720000	0.250400	0.539200
C51	C5	0.777600	0.222800	0.573100
C61	C6	0.830300	0.163300	0.565800
C71	C7	0.825500	0.131200	0.524600
C81	C8	0.881200	0.064000	0.516800
C91	C9	0.868800	0.879800	0.514000
C101	C10	0.019200	0.062600	0.803800
C111	C11	0.063000	0.127200	0.783100
C121	C12	0.149300	0.158600	0.798000
C131	C13	0.182100	0.217900	0.777800
C141	C14	0.128600	0.245900	0.742700
C151	C15	0.042300	0.214500	0.727800
C161	C16	0.009500	0.155200	0.748000
C171	C17	0.171100	0.632600	0.720100
C181	C18	0.153600	0.314700	0.727000
C191	C19	0.281800	0.467000	0.559900
C201	C20	0.210100	0.466700	0.522780
C211	C21	0.185900	0.407100	0.500500
C221	C22	0.120900	0.408900	0.464500
C231	C23	0.080100	0.470200	0.450770
C241	C24	0.104300	0.529800	0.473100
C251	C25	0.169300	0.528000	0.509100
C261	C26	0.007100	0.463100	0.414200
C271	C27	0.123600	0.691100	0.747600
C281	C28	0.181600	0.724000	0.777200
C291	C29	0.148000	0.784300	0.794800
C301	C30	0.053900	0.808400	0.785600
C311	C31	0.996700	0.772800	0.759900
C321	C32	0.027200	0.711500	0.739700
C331	C33	0.031700	0.875200	0.812700
C341	C34	0.797800	0.823400	0.524000
C351	C35	0.750000	0.792600	0.488200
C361	C36	0.695600	0.733600	0.494800
C371	C37	0.688900	0.705300	0.537200
C381	C38	0.736600	0.736100	0.572900
C391	C39	0.791100	0.795200	0.566300
C401	C40	0.649100	0.638200	0.543600
C411	C41	0.331800	0.312500	0.453500
C421	C42	0.232100	0.158800	0.509400
C431	C43	0.284800	0.218300	0.502100
C441	C44	0.280000	0.250400	0.460800
C451	C45	0.222400	0.222800	0.426900
C461	C46	0.169700	0.163300	0.434200
C471	C47	0.174500	0.131200	0.475400
C481	C48	0.118800	0.064000	0.483200
C491	C49	0.131200	0.879800	0.486000
C501	C50	0.980800	0.062600	0.196200
C511	C51	0.937000	0.127200	0.216900
C521	C52	0.850700	0.158600	0.202000
C531	C53	0.817900	0.217900	0.222200
C541	C54	0.871400	0.245900	0.257300
C551	C55	0.957700	0.214500	0.272200
C561	C56	0.990500	0.155200	0.252000
C571	C57	0.828900	0.632600	0.279900
C581	C58	0.846400	0.314700	0.273000
C591	C59	0.718200	0.467000	0.440100
C601	C60	0.789900	0.466700	0.477220
C611	C61	0.814100	0.407100	0.499500
C621	C62	0.879100	0.408900	0.535500
C631	C63	0.919900	0.470200	0.549230
C641	C64	0.895700	0.529800	0.526900
C651	C65	0.830700	0.528000	0.490900
C661	C66	0.992900	0.463100	0.585800
C671	C67	0.876400	0.691100	0.252400
C681	C68	0.818400	0.724000	0.222800
C691	C69	0.852000	0.784300	0.205200
C701	C70	0.946100	0.808400	0.214400
C711	C71	0.003300	0.772800	0.240100
C721	C72	0.972800	0.711500	0.260300
C731	C73	0.968300	0.875200	0.187300
C741	C74	0.202200	0.823400	0.476000
C751	C75	0.250000	0.792600	0.511800
C761	C76	0.304400	0.733600	0.505200
C771	C77	0.311100	0.705300	0.462800
C781	C78	0.263400	0.736100	0.427100
C791	C79	0.208900	0.795200	0.433700
C801	C80	0.350900	0.638200	0.456400
C811	C81	0.168200	0.812500	0.953500
C821	C82	0.267900	0.658800	0.009400
C831	C83	0.215200	0.718300	0.002100
C841	C84	0.220000	0.750400	0.960800
C851	C85	0.277600	0.722800	0.926900
C861	C86	0.330300	0.663300	0.934200
C871	C87	0.325500	0.631200	0.975400
C881	C88	0.381200	0.564000	0.983200
C891	C89	0.368800	0.379800	0.986000
C901	C90	0.519200	0.562600	0.696200
C911	C91	0.563000	0.627200	0.716900
C921	C92	0.649300	0.658600	0.702000
C931	C93	0.682100	0.717900	0.722200
C941	C94	0.628600	0.745900	0.757300
C951	C95	0.542300	0.714500	0.772200
C961	C96	0.509500	0.655200	0.752000
C971	C97	0.671100	0.132600	0.779900
C981	C98	0.653600	0.814700	0.773000
C991	C99	0.781800	0.967000	0.940100
C1001	C100	0.710100	0.966700	0.977220
C1011	C101	0.685900	0.907100	0.999500
C1021	C102	0.620900	0.908900	0.035500
C1031	C103	0.580100	0.970200	0.049230
C1041	C104	0.604300	0.029800	0.026900
C1051	C105	0.669300	0.028000	0.990900
C1061	C106	0.507100	0.963100	0.085800
C1071	C107	0.623600	0.191100	0.752400
C1081	C108	0.681600	0.224000	0.722800
C1091	C109	0.648000	0.284300	0.705200
C1101	C110	0.553900	0.308400	0.714400
C1111	C111	0.496700	0.272800	0.740100
C1121	C112	0.527200	0.211500	0.760300
C1131	C113	0.531700	0.375200	0.687300
C1141	C114	0.297800	0.323400	0.976000
C1151	C115	0.250000	0.292600	0.011800
C1161	C116	0.195600	0.233600	0.005200
C1171	C117	0.188900	0.205300	0.962800
C1181	C118	0.236600	0.236100	0.927100
C1191	C119	0.291100	0.295200	0.933700
C1201	C120	0.149100	0.138200	0.956400
C1211	C121	0.831800	0.812500	0.046500
C1221	C122	0.732100	0.658800	0.990600
C1231	C123	0.784800	0.718300	0.997900
C1241	C124	0.780000	0.750400	0.039200
C1251	C125	0.722400	0.722800	0.073100
C1261	C126	0.669700	0.663300	0.065800
C1271	C127	0.674500	0.631200	0.024600
C1281	C128	0.618800	0.564000	0.016800
C1291	C129	0.631200	0.379800	0.014000
C1301	C130	0.480800	0.562600	0.303800
C1311	C131	0.437000	0.627200	0.283100
C1321	C132	0.350700	0.658600	0.298000
C1331	C133	0.317900	0.717900	0.277800
C1341	C134	0.371400	0.745900	0.242700
C1351	C135	0.457700	0.714500	0.227800
C1361	C136	0.490500	0.655200	0.248000
C1371	C137	0.328900	0.132600	0.220100
C1381	C138	0.346400	0.814700	0.227000
C1391	C139	0.218200	0.967000	0.059900
C1401	C140	0.289900	0.966700	0.022780
C1411	C141	0.314100	0.907100	0.000500
C1421	C142	0.379100	0.908900	0.964500
C1431	C143	0.419900	0.970200	0.950770
C1441	C144	0.395700	0.029800	0.973100
C1451	C145	0.330700	0.028000	0.009100
C1461	C146	0.492900	0.963100	0.914200
C1471	C147	0.376400	0.191100	0.247600
C1481	C148	0.318400	0.224000	0.277200
C1491	C149	0.352000	0.284300	0.294800
C1501	C150	0.446100	0.308400	0.285600
C1511	C151	0.503300	0.272800	0.259900
C1521	C152	0.472800	0.211500	0.239700
C1531	C153	0.468300	0.375200	0.312700
C1541	C154	0.702200	0.323400	0.024000
C1551	C155	0.750000	0.292600	0.988200
C1561	C156	0.804400	0.233600	0.994800
C1571	C157	0.811100	0.205300	0.037200
C1581	C158	0.763400	0.236100	0.072900
C1591	C159	0.708900	0.295200	0.066300
C1601	C160	0.850900	0.138200	0.043600
N11	N1	0.659700	0.341800	0.583500
N21	N2	0.623200	0.343300	0.512800
N31	N3	0.581900	0.392600	0.534100
N41	N4	0.602200	0.396000	0.573300
N51	N5	0.411700	0.476100	0.599300
N61	N6	0.377800	0.474900	0.557240
N71	N7	0.252500	0.478000	0.603000
N81	N8	0.338300	0.467500	0.627000
N91	N9	0.596900	0.599500	0.511300
N101	N10	0.570800	0.536400	0.531100
N111	N11	0.607000	0.536200	0.575500
N121	N12	0.655400	0.599100	0.583300
N131	N13	0.154300	0.542300	0.684100
N141	N14	0.244000	0.544500	0.703900
N151	N15	0.247900	0.602500	0.728500
N161	N16	0.098700	0.596900	0.692600
N171	N17	0.166500	0.398100	0.681300
N181	N18	0.239300	0.397700	0.710400
N191	N19	0.241800	0.348000	0.737000
N201	N20	0.113500	0.345400	0.695800
N211	N21	0.340300	0.341800	0.416500
N221	N22	0.376800	0.343300	0.487200
N231	N23	0.418100	0.392600	0.465900
N241	N24	0.397800	0.396000	0.426700
N251	N25	0.588300	0.476100	0.400700
N261	N26	0.622200	0.474900	0.442760
N271	N27	0.747500	0.478000	0.397000
N281	N28	0.661700	0.467500	0.373000
N291	N29	0.403100	0.599500	0.488700
N301	N30	0.429200	0.536400	0.468900
N311	N31	0.393000	0.536200	0.424500
N321	N32	0.344600	0.599100	0.416700
N331	N33	0.845700	0.542300	0.315900
N341	N34	0.756000	0.544500	0.296100
N351	N35	0.752100	0.602500	0.271500
N361	N36	0.901300	0.596900	0.307400
N371	N37	0.833500	0.398100	0.318700
N381	N38	0.760700	0.397700	0.289600
N391	N39	0.758200	0.348000	0.263000
N401	N40	0.886500	0.345400	0.304200
N411	N41	0.159700	0.841800	0.916500
N421	N42	0.123200	0.843300	0.987200
N431	N43	0.081900	0.892600	0.965900
N441	N44	0.102200	0.896000	0.926700
N451	N45	0.911700	0.976100	0.900700
N461	N46	0.877800	0.974900	0.942760
N471	N47	0.752500	0.978000	0.897000
N481	N48	0.838300	0.967500	0.873000
N491	N49	0.096900	0.099500	0.988700
N501	N50	0.070800	0.036400	0.968900
N511	N51	0.107000	0.036200	0.924500
N521	N52	0.155400	0.099100	0.916700
N531	N53	0.654300	0.042300	0.815900
N541	N54	0.744000	0.044500	0.796100
N551	N55	0.747900	0.102500	0.771500
N561	N56	0.598700	0.096900	0.807400
N571	N57	0.666500	0.898100	0.818700
N581	N58	0.739300	0.897700	0.789600
N591	N59	0.741800	0.848000	0.763000
N601	N60	0.613500	0.845400	0.804200
N611	N61	0.840300	0.841800	0.083500
N621	N62	0.876800	0.843300	0.012800
N631	N63	0.918100	0.892600	0.034100
N641	N64	0.897800	0.896000	0.073300
N651	N65	0.088300	0.976100	0.099300
N661	N66	0.122200	0.974900	0.057240
N671	N67	0.247500	0.978000	0.103000
N681	N68	0.161700	0.967500	0.127000
N691	N69	0.903100	0.099500	0.011300
N701	N70	0.929200	0.036400	0.031100
N711	N71	0.893000	0.036200	0.075500
N721	N72	0.844600	0.099100	0.083300
N731	N73	0.345700	0.042300	0.184100
N741	N74	0.256000	0.044500	0.203900
N751	N75	0.252100	0.102500	0.228500
N761	N76	0.401300	0.096900	0.192600
N771	N77	0.333500	0.898100	0.181300
N781	N78	0.260700	0.897700	0.210400
N791	N79	0.258200	0.848000	0.237000
N801	N80	0.386500	0.845400	0.195800
O11	O1	0.942700	0.037900	0.786900
O21	O2	0.092500	0.030200	0.832800
O31	O3	0.946700	0.893700	0.796900
O41	O4	0.065100	0.895800	0.838600
O51	O5	0.915300	0.038900	0.549700
O61	O6	0.869500	0.035400	0.475300
O71	O7	0.974100	0.417700	0.396800
O81	O8	0.973800	0.525200	0.398400
O91	O9	0.889400	0.896100	0.476700
O101	O10	0.935100	0.897300	0.546300
O111	O11	0.057300	0.037900	0.213100
O121	O12	0.907500	0.030200	0.167200
O131	O13	0.053300	0.893700	0.203100
O141	O14	0.934900	0.895800	0.161400
O151	O15	0.084700	0.038900	0.450300
O161	O16	0.130500	0.035400	0.524700
O171	O17	0.025900	0.417700	0.603200
O181	O18	0.026200	0.525200	0.601600
O191	O19	0.110600	0.896100	0.523300
O201	O20	0.064900	0.897300	0.453700
O211	O21	0.442700	0.537900	0.713100
O221	O22	0.592500	0.530200	0.667200
O231	O23	0.446700	0.393700	0.703100
O241	O24	0.565100	0.395800	0.661400
O251	O25	0.415300	0.538900	0.950300
O261	O26	0.369500	0.535400	0.024700
O271	O27	0.474100	0.917700	0.103200
O281	O28	0.473800	0.025200	0.101600
O291	O29	0.389400	0.396100	0.023300
O301	O30	0.435100	0.397300	0.953700
O311	O31	0.557300	0.537900	0.286900
O321	O32	0.407500	0.530200	0.332800
O331	O33	0.553300	0.393700	0.296900
O341	O34	0.434900	0.395800	0.338600
O351	O35	0.584700	0.538900	0.049700
O361	O36	0.630500	0.535400	0.975300
O371	O37	0.525900	0.917700	0.896800
O381	O38	0.526200	0.025200	0.898400
O391	O39	0.610600	0.396100	0.976700
O401	O40	0.564900	0.397300	0.046300
