data_OZAVES_clean_PM
_symmetry_space_group_name_H-M	'P1'
_cell_length_a	10.301400
_cell_length_b	14.417600
_cell_length_c	17.507000
_cell_angle_alpha	90.000000
_cell_angle_beta	94.809000
_cell_angle_gamma	90.000000
_symmetry_Int_Tables_number 1

loop_
_symmetry_equiv_pos_as_xyz
'x,y,z'

loop_
_atom_site_label
_atom_site_type_symbol
_atom_site_fract_x
_atom_site_fract_y
_atom_site_fract_z
O11	O1	0.399600	0.030300	0.109690
Ca11	Ca1	0.389300	0.155620	0.027790
Ca21	Ca2	0.530440	0.391470	0.058970
S11	S1	0.271230	0.256600	0.801910
S21	S2	0.303310	0.936930	0.243880
O21	O2	0.409300	0.300460	0.954690
O31	O3	0.130400	0.156100	0.679230
O41	O4	0.428500	0.450800	0.935520
C11	C1	0.378600	0.887100	0.169900
C21	C2	0.309000	0.363700	0.839700
O51	O5	0.065000	0.273890	0.604740
C31	C3	0.182000	0.304900	0.725000
C41	C4	0.254700	0.433500	0.793800
H11	H1	0.265200	0.496300	0.804900
C51	C5	0.182100	0.399400	0.728800
H21	H2	0.138400	0.437200	0.692100
O61	O6	0.224700	0.744400	0.390120
C61	C6	0.386000	0.371500	0.914300
C71	C7	0.120700	0.240900	0.665900
O71	O7	0.161200	0.892000	0.381170
C81	C8	0.427900	0.946400	0.109000
C91	C9	0.281000	0.830400	0.284800
C101	C10	0.328600	0.761100	0.242700
H31	H3	0.325000	0.698800	0.256100
C111	C11	0.383600	0.793200	0.177200
H41	H4	0.419800	0.754300	0.142200
O81	O8	0.492400	0.906800	0.061580
C121	C12	0.216200	0.821600	0.357700
O91	O9	0.100400	0.530300	0.390310
Ca31	Ca3	0.110700	0.655620	0.472210
Ca41	Ca4	0.969560	0.891470	0.441030
S31	S3	0.228770	0.756600	0.698090
S41	S4	0.196690	0.436930	0.256120
O101	O10	0.090700	0.800460	0.545310
O111	O11	0.369600	0.656100	0.820770
O121	O12	0.071500	0.950800	0.564480
C131	C13	0.121400	0.387100	0.330100
C141	C14	0.191000	0.863700	0.660300
O131	O13	0.435000	0.773890	0.895260
C151	C15	0.318000	0.804900	0.775000
C161	C16	0.245300	0.933500	0.706200
H51	H5	0.234800	0.996300	0.695100
C171	C17	0.317900	0.899400	0.771200
H61	H6	0.361600	0.937200	0.807900
O141	O14	0.275300	0.244400	0.109880
C181	C18	0.114000	0.871500	0.585700
C191	C19	0.379300	0.740900	0.834100
O151	O15	0.338800	0.392000	0.118830
C201	C20	0.072100	0.446400	0.391000
C211	C21	0.219000	0.330400	0.215200
C221	C22	0.171400	0.261100	0.257300
H71	H7	0.175000	0.198800	0.243900
C231	C23	0.116400	0.293200	0.322800
H81	H8	0.080200	0.254300	0.357800
O161	O16	0.007600	0.406800	0.438420
C241	C24	0.283800	0.321600	0.142300
O171	O17	0.600400	0.969700	0.890310
Ca51	Ca5	0.610700	0.844380	0.972210
Ca61	Ca6	0.469560	0.608530	0.941030
S51	S5	0.728770	0.743400	0.198090
S61	S6	0.696690	0.063070	0.756120
O181	O18	0.590700	0.699540	0.045310
O191	O19	0.869600	0.843900	0.320770
O201	O20	0.571500	0.549200	0.064480
C251	C25	0.621400	0.112900	0.830100
C261	C26	0.691000	0.636300	0.160300
O211	O21	0.935000	0.726110	0.395260
C271	C27	0.818000	0.695100	0.275000
C281	C28	0.745300	0.566500	0.206200
H91	H9	0.734800	0.503700	0.195100
C291	C29	0.817900	0.600600	0.271200
H101	H10	0.861600	0.562800	0.307900
O221	O22	0.775300	0.255600	0.609880
C301	C30	0.614000	0.628500	0.085700
C311	C31	0.879300	0.759100	0.334100
O231	O23	0.838800	0.108000	0.618830
C321	C32	0.572100	0.053600	0.891000
C331	C33	0.719000	0.169600	0.715200
C341	C34	0.671400	0.238900	0.757300
H111	H11	0.675000	0.301200	0.743900
C351	C35	0.616400	0.206800	0.822800
H121	H12	0.580200	0.245700	0.857800
O241	O24	0.507600	0.093200	0.938420
C361	C36	0.783800	0.178400	0.642300
O251	O25	0.899600	0.469700	0.609690
Ca71	Ca7	0.889300	0.344380	0.527790
Ca81	Ca8	0.030440	0.108530	0.558970
S71	S7	0.771230	0.243400	0.301910
S81	S8	0.803310	0.563070	0.743880
O261	O26	0.909300	0.199540	0.454690
O271	O27	0.630400	0.343900	0.179230
O281	O28	0.928500	0.049200	0.435520
C371	C37	0.878600	0.612900	0.669900
C381	C38	0.809000	0.136300	0.339700
O291	O29	0.565000	0.226110	0.104740
C391	C39	0.682000	0.195100	0.225000
C401	C40	0.754700	0.066500	0.293800
H131	H13	0.765200	0.003700	0.304900
C411	C41	0.682100	0.100600	0.228800
H141	H14	0.638400	0.062800	0.192100
O301	O30	0.724700	0.755600	0.890120
C421	C42	0.886000	0.128500	0.414300
C431	C43	0.620700	0.259100	0.165900
O311	O31	0.661200	0.608000	0.881170
C441	C44	0.927900	0.553600	0.609000
C451	C45	0.781000	0.669600	0.784800
C461	C46	0.828600	0.738900	0.742700
H151	H15	0.825000	0.801200	0.756100
C471	C47	0.883600	0.706800	0.677200
H161	H16	0.919800	0.745700	0.642200
O321	O32	0.992400	0.593200	0.561580
C481	C48	0.716200	0.678400	0.857700
