data_OZAVUI_clean_PM
_symmetry_space_group_name_H-M	'P1'
_cell_length_a	6.786200
_cell_length_b	11.095000
_cell_length_c	18.351000
_cell_angle_alpha	90.000000
_cell_angle_beta	95.688000
_cell_angle_gamma	90.000000
_symmetry_Int_Tables_number 1

loop_
_symmetry_equiv_pos_as_xyz
'x,y,z'

loop_
_atom_site_label
_atom_site_type_symbol
_atom_site_fract_x
_atom_site_fract_y
_atom_site_fract_z
C11	C1	0.810000	0.272800	0.796100
C21	C2	0.993000	0.313000	0.783700
H11	H1	0.103100	0.308100	0.817900
C31	C3	0.996000	0.362600	0.713700
H21	H2	0.109300	0.395300	0.696700
C41	C4	0.815000	0.358200	0.672300
C51	C5	0.766000	0.399100	0.595800
C61	C6	0.753000	0.217100	0.865700
O11	O1	0.895400	0.191200	0.912900
O21	O2	0.576400	0.202700	0.874600
O31	O3	0.590400	0.399800	0.569400
O41	O4	0.908600	0.433200	0.561600
S11	S1	0.639400	0.294800	0.721340
Sr11	Sr1	0.742800	0.104840	0.020630
C71	C7	0.690000	0.772800	0.703900
C81	C8	0.507000	0.813000	0.716300
H31	H3	0.396900	0.808100	0.682100
C91	C9	0.504000	0.862600	0.786300
H41	H4	0.390700	0.895300	0.803300
C101	C10	0.685000	0.858200	0.827700
C111	C11	0.734000	0.899100	0.904200
C121	C12	0.747000	0.717100	0.634300
O51	O5	0.604600	0.691200	0.587100
O61	O6	0.923600	0.702700	0.625400
O71	O7	0.909600	0.899800	0.930600
O81	O8	0.591400	0.933200	0.938400
S21	S2	0.860600	0.794800	0.778660
Sr21	Sr2	0.757200	0.604840	0.479370
C131	C13	0.190000	0.727200	0.203900
C141	C14	0.007000	0.687000	0.216300
H51	H5	0.896900	0.691900	0.182100
C151	C15	0.004000	0.637400	0.286300
H61	H6	0.890700	0.604700	0.303300
C161	C16	0.185000	0.641800	0.327700
C171	C17	0.234000	0.600900	0.404200
C181	C18	0.247000	0.782900	0.134300
O91	O9	0.104600	0.808800	0.087100
O101	O10	0.423600	0.797300	0.125400
O111	O11	0.409600	0.600200	0.430600
O121	O12	0.091400	0.566800	0.438400
S31	S3	0.360600	0.705200	0.278660
Sr31	Sr3	0.257200	0.895160	0.979370
C191	C19	0.310000	0.227200	0.296100
C201	C20	0.493000	0.187000	0.283700
H71	H7	0.603100	0.191900	0.317900
C211	C21	0.496000	0.137400	0.213700
H81	H8	0.609300	0.104700	0.196700
C221	C22	0.315000	0.141800	0.172300
C231	C23	0.266000	0.100900	0.095800
C241	C24	0.253000	0.282900	0.365700
O131	O13	0.395400	0.308800	0.412900
O141	O14	0.076400	0.297300	0.374600
O151	O15	0.090400	0.100200	0.069400
O161	O16	0.408600	0.066800	0.061600
S41	S4	0.139400	0.205200	0.221340
Sr41	Sr4	0.242800	0.395160	0.520630
