data_OZULAY_clean_PM
_symmetry_space_group_name_H-M	'P1'
_cell_length_a	26.297800
_cell_length_b	26.297800
_cell_length_c	7.074100
_cell_angle_alpha	90.000000
_cell_angle_beta	90.000000
_cell_angle_gamma	120.000000
_symmetry_Int_Tables_number 1

loop_
_symmetry_equiv_pos_as_xyz
'x,y,z'

loop_
_atom_site_label
_atom_site_type_symbol
_atom_site_fract_x
_atom_site_fract_y
_atom_site_fract_z
Mn11	Mn1	0.950800	0.638500	0.018000
C11	C1	0.012500	0.590200	0.755000
C21	C2	0.007100	0.545500	0.874000
C31	C3	0.993000	0.543300	0.068000
C41	C4	0.981800	0.498000	0.193000
H11	H1	0.972570	0.497500	0.337240
O11	O1	0.032600	0.593000	0.581000
O21	O2	0.008700	0.633500	0.789000
O31	O3	0.976400	0.580300	0.141000
Mn21	Mn2	0.617470	0.971830	0.351330
C51	C5	0.679170	0.923530	0.088330
C61	C6	0.673770	0.878830	0.207330
C71	C7	0.659670	0.876630	0.401330
C81	C8	0.648470	0.831330	0.526330
H21	H2	0.639240	0.830830	0.670570
O41	O4	0.699270	0.926330	0.914330
O51	O5	0.675370	0.966830	0.122330
O61	O6	0.643070	0.913630	0.474330
Mn31	Mn3	0.284130	0.305170	0.684670
C91	C9	0.345830	0.256870	0.421670
C101	C10	0.340430	0.212170	0.540670
C111	C11	0.326330	0.209970	0.734670
C121	C12	0.315130	0.164670	0.859670
H31	H3	0.305900	0.164170	0.003910
O71	O7	0.365930	0.259670	0.247670
O81	O8	0.342030	0.300170	0.455670
O91	O9	0.309730	0.246970	0.807670
Mn41	Mn4	0.361500	0.312300	0.018000
C131	C13	0.409800	0.422300	0.755000
C141	C14	0.454500	0.461600	0.874000
C151	C15	0.456700	0.449700	0.068000
C161	C16	0.502000	0.483800	0.193000
H41	H4	0.502500	0.475070	0.337240
O101	O10	0.407000	0.439600	0.581000
O111	O11	0.366500	0.375200	0.789000
O121	O12	0.419700	0.396100	0.141000
Mn51	Mn5	0.028170	0.645630	0.351330
C171	C17	0.076470	0.755630	0.088330
C181	C18	0.121170	0.794930	0.207330
C191	C19	0.123370	0.783030	0.401330
C201	C20	0.168670	0.817130	0.526330
H51	H5	0.169170	0.808400	0.670570
O131	O13	0.073670	0.772930	0.914330
O141	O14	0.033170	0.708530	0.122330
O151	O15	0.086370	0.729430	0.474330
Mn61	Mn6	0.694830	0.978970	0.684670
C211	C21	0.743130	0.088970	0.421670
C221	C22	0.787830	0.128270	0.540670
C231	C23	0.790030	0.116370	0.734670
C241	C24	0.835330	0.150470	0.859670
H61	H6	0.835830	0.141740	0.003910
O161	O16	0.740330	0.106270	0.247670
O171	O17	0.699830	0.041870	0.455670
O181	O18	0.753030	0.062770	0.807670
Mn71	Mn7	0.687700	0.049200	0.018000
C251	C25	0.577700	0.987500	0.755000
C261	C26	0.538400	0.992900	0.874000
C271	C27	0.550300	0.007000	0.068000
C281	C28	0.516200	0.018200	0.193000
H71	H7	0.524930	0.027430	0.337240
O191	O19	0.560400	0.967400	0.581000
O201	O20	0.624800	0.991300	0.789000
O211	O21	0.603900	0.023600	0.141000
Mn81	Mn8	0.354370	0.382530	0.351330
C291	C29	0.244370	0.320830	0.088330
C301	C30	0.205070	0.326230	0.207330
C311	C31	0.216970	0.340330	0.401330
C321	C32	0.182870	0.351530	0.526330
H81	H8	0.191600	0.360760	0.670570
O221	O22	0.227070	0.300730	0.914330
O231	O23	0.291470	0.324630	0.122330
O241	O24	0.270570	0.356930	0.474330
Mn91	Mn9	0.021030	0.715870	0.684670
C331	C33	0.911030	0.654170	0.421670
C341	C34	0.871730	0.659570	0.540670
C351	C35	0.883630	0.673670	0.734670
C361	C36	0.849530	0.684870	0.859670
H91	H9	0.858260	0.694100	0.003910
O251	O25	0.893730	0.634070	0.247670
O261	O26	0.958130	0.657970	0.455670
O271	O27	0.937230	0.690270	0.807670
Mn101	Mn10	0.049200	0.361500	0.982000
C371	C37	0.987500	0.409800	0.245000
C381	C38	0.992900	0.454500	0.126000
C391	C39	0.007000	0.456700	0.932000
C401	C40	0.018200	0.502000	0.807000
H101	H10	0.027430	0.502500	0.662760
O281	O28	0.967400	0.407000	0.419000
O291	O29	0.991300	0.366500	0.211000
O301	O30	0.023600	0.419700	0.859000
Mn111	Mn11	0.715870	0.694830	0.315330
C411	C41	0.654170	0.743130	0.578330
C421	C42	0.659570	0.787830	0.459330
C431	C43	0.673670	0.790030	0.265330
C441	C44	0.684870	0.835330	0.140330
H111	H11	0.694100	0.835830	0.996090
O311	O31	0.634070	0.740330	0.752330
O321	O32	0.657970	0.699830	0.544330
O331	O33	0.690270	0.753030	0.192330
Mn121	Mn12	0.382530	0.028170	0.648670
C451	C45	0.320830	0.076470	0.911670
C461	C46	0.326230	0.121170	0.792670
C471	C47	0.340330	0.123370	0.598670
C481	C48	0.351530	0.168670	0.473670
H121	H12	0.360760	0.169170	0.329430
O341	O34	0.300730	0.073670	0.085670
O351	O35	0.324630	0.033170	0.877670
O361	O36	0.356930	0.086370	0.525670
Mn131	Mn13	0.638500	0.687700	0.982000
C491	C49	0.590200	0.577700	0.245000
C501	C50	0.545500	0.538400	0.126000
C511	C51	0.543300	0.550300	0.932000
C521	C52	0.498000	0.516200	0.807000
H131	H13	0.497500	0.524930	0.662760
O371	O37	0.593000	0.560400	0.419000
O381	O38	0.633500	0.624800	0.211000
O391	O39	0.580300	0.603900	0.859000
Mn141	Mn14	0.305170	0.021030	0.315330
C531	C53	0.256870	0.911030	0.578330
C541	C54	0.212170	0.871730	0.459330
C551	C55	0.209970	0.883630	0.265330
C561	C56	0.164670	0.849530	0.140330
H141	H14	0.164170	0.858260	0.996090
O401	O40	0.259670	0.893730	0.752330
O411	O41	0.300170	0.958130	0.544330
O421	O42	0.246970	0.937230	0.192330
Mn151	Mn15	0.971830	0.354370	0.648670
C571	C57	0.923530	0.244370	0.911670
C581	C58	0.878830	0.205070	0.792670
C591	C59	0.876630	0.216970	0.598670
C601	C60	0.831330	0.182870	0.473670
H151	H15	0.830830	0.191600	0.329430
O431	O43	0.926330	0.227070	0.085670
O441	O44	0.966830	0.291470	0.877670
O451	O45	0.913630	0.270570	0.525670
Mn161	Mn16	0.312300	0.950800	0.982000
C611	C61	0.422300	0.012500	0.245000
C621	C62	0.461600	0.007100	0.126000
C631	C63	0.449700	0.993000	0.932000
C641	C64	0.483800	0.981800	0.807000
H161	H16	0.475070	0.972570	0.662760
O461	O46	0.439600	0.032600	0.419000
O471	O47	0.375200	0.008700	0.211000
O481	O48	0.396100	0.976400	0.859000
Mn171	Mn17	0.978970	0.284130	0.315330
C651	C65	0.088970	0.345830	0.578330
C661	C66	0.128270	0.340430	0.459330
C671	C67	0.116370	0.326330	0.265330
C681	C68	0.150470	0.315130	0.140330
H171	H17	0.141740	0.305900	0.996090
O491	O49	0.106270	0.365930	0.752330
O501	O50	0.041870	0.342030	0.544330
O511	O51	0.062770	0.309730	0.192330
Mn181	Mn18	0.645630	0.617470	0.648670
C691	C69	0.755630	0.679170	0.911670
C701	C70	0.794930	0.673770	0.792670
C711	C71	0.783030	0.659670	0.598670
C721	C72	0.817130	0.648470	0.473670
H181	H18	0.808400	0.639240	0.329430
O521	O52	0.772930	0.699270	0.085670
O531	O53	0.708530	0.675370	0.877670
O541	O54	0.729430	0.643070	0.525670
