data_OZUMIH_clean_PM
_symmetry_space_group_name_H-M	'P1'
_cell_length_a	25.859200
_cell_length_b	25.859200
_cell_length_c	6.269600
_cell_angle_alpha	90.000000
_cell_angle_beta	90.000000
_cell_angle_gamma	120.000000
_symmetry_Int_Tables_number 1

loop_
_symmetry_equiv_pos_as_xyz
'x,y,z'

loop_
_atom_site_label
_atom_site_type_symbol
_atom_site_fract_x
_atom_site_fract_y
_atom_site_fract_z
Cu11	Cu1	0.945900	0.629500	0.986000
C11	C1	0.005000	0.587300	0.710000
C21	C2	0.022300	0.501900	0.792000
C31	C3	0.007200	0.543200	0.856000
C41	C4	0.987600	0.545100	0.072000
H11	H1	0.034900	0.507000	0.634000
O11	O1	0.038700	0.597700	0.549000
O21	O2	0.981600	0.617100	0.738000
O31	O3	0.970000	0.583000	0.152000
Cu21	Cu2	0.612570	0.962830	0.319330
C51	C5	0.671670	0.920630	0.043330
C61	C6	0.688970	0.835230	0.125330
C71	C7	0.673870	0.876530	0.189330
C81	C8	0.654270	0.878430	0.405330
H21	H2	0.701570	0.840330	0.967330
O41	O4	0.705370	0.931030	0.882330
O51	O5	0.648270	0.950430	0.071330
O61	O6	0.636670	0.916330	0.485330
Cu31	Cu3	0.279230	0.296170	0.652670
C91	C9	0.338330	0.253970	0.376670
C101	C10	0.355630	0.168570	0.458670
C111	C11	0.340530	0.209870	0.522670
C121	C12	0.320930	0.211770	0.738670
H31	H3	0.368230	0.173670	0.300670
O71	O7	0.372030	0.264370	0.215670
O81	O8	0.314930	0.283770	0.404670
O91	O9	0.303330	0.249670	0.818670
Cu41	Cu4	0.370500	0.316400	0.986000
C131	C13	0.412700	0.417700	0.710000
C141	C14	0.498100	0.520400	0.792000
C151	C15	0.456800	0.464000	0.856000
C161	C16	0.454900	0.442500	0.072000
H41	H4	0.493000	0.527900	0.634000
O101	O10	0.402300	0.441000	0.549000
O111	O11	0.382900	0.364500	0.738000
O121	O12	0.417000	0.387000	0.152000
Cu51	Cu5	0.037170	0.649730	0.319330
C171	C17	0.079370	0.751030	0.043330
C181	C18	0.164770	0.853730	0.125330
C191	C19	0.123470	0.797330	0.189330
C201	C20	0.121570	0.775830	0.405330
H51	H5	0.159670	0.861230	0.967330
O131	O13	0.068970	0.774330	0.882330
O141	O14	0.049570	0.697830	0.071330
O151	O15	0.083670	0.720330	0.485330
Cu61	Cu6	0.703830	0.983070	0.652670
C211	C21	0.746030	0.084370	0.376670
C221	C22	0.831430	0.187070	0.458670
C231	C23	0.790130	0.130670	0.522670
C241	C24	0.788230	0.109170	0.738670
H61	H6	0.826330	0.194570	0.300670
O161	O16	0.735630	0.107670	0.215670
O171	O17	0.716230	0.031170	0.404670
O181	O18	0.750330	0.053670	0.818670
Cu71	Cu7	0.683600	0.054100	0.986000
C251	C25	0.582300	0.995000	0.710000
C261	C26	0.479600	0.977700	0.792000
C271	C27	0.536000	0.992800	0.856000
C281	C28	0.557500	0.012400	0.072000
H71	H7	0.472100	0.965100	0.634000
O191	O19	0.559000	0.961300	0.549000
O201	O20	0.635500	0.018400	0.738000
O211	O21	0.613000	0.030000	0.152000
Cu81	Cu8	0.350270	0.387430	0.319330
C291	C29	0.248970	0.328330	0.043330
C301	C30	0.146270	0.311030	0.125330
C311	C31	0.202670	0.326130	0.189330
C321	C32	0.224170	0.345730	0.405330
H81	H8	0.138770	0.298430	0.967330
O221	O22	0.225670	0.294630	0.882330
O231	O23	0.302170	0.351730	0.071330
O241	O24	0.279670	0.363330	0.485330
Cu91	Cu9	0.016930	0.720770	0.652670
C331	C33	0.915630	0.661670	0.376670
C341	C34	0.812930	0.644370	0.458670
C351	C35	0.869330	0.659470	0.522670
C361	C36	0.890830	0.679070	0.738670
H91	H9	0.805430	0.631770	0.300670
O251	O25	0.892330	0.627970	0.215670
O261	O26	0.968830	0.685070	0.404670
O271	O27	0.946330	0.696670	0.818670
Cu101	Cu10	0.054100	0.370500	0.014000
C371	C37	0.995000	0.412700	0.290000
C381	C38	0.977700	0.498100	0.208000
C391	C39	0.992800	0.456800	0.144000
C401	C40	0.012400	0.454900	0.928000
H101	H10	0.965100	0.493000	0.366000
O281	O28	0.961300	0.402300	0.451000
O291	O29	0.018400	0.382900	0.262000
O301	O30	0.030000	0.417000	0.848000
Cu111	Cu11	0.720770	0.703830	0.347330
C411	C41	0.661670	0.746030	0.623330
C421	C42	0.644370	0.831430	0.541330
C431	C43	0.659470	0.790130	0.477330
C441	C44	0.679070	0.788230	0.261330
H111	H11	0.631770	0.826330	0.699330
O311	O31	0.627970	0.735630	0.784330
O321	O32	0.685070	0.716230	0.595330
O331	O33	0.696670	0.750330	0.181330
Cu121	Cu12	0.387430	0.037170	0.680670
C451	C45	0.328330	0.079370	0.956670
C461	C46	0.311030	0.164770	0.874670
C471	C47	0.326130	0.123470	0.810670
C481	C48	0.345730	0.121570	0.594670
H121	H12	0.298430	0.159670	0.032670
O341	O34	0.294630	0.068970	0.117670
O351	O35	0.351730	0.049570	0.928670
O361	O36	0.363330	0.083670	0.514670
Cu131	Cu13	0.629500	0.683600	0.014000
C491	C49	0.587300	0.582300	0.290000
C501	C50	0.501900	0.479600	0.208000
C511	C51	0.543200	0.536000	0.144000
C521	C52	0.545100	0.557500	0.928000
H131	H13	0.507000	0.472100	0.366000
O371	O37	0.597700	0.559000	0.451000
O381	O38	0.617100	0.635500	0.262000
O391	O39	0.583000	0.613000	0.848000
Cu141	Cu14	0.296170	0.016930	0.347330
C531	C53	0.253970	0.915630	0.623330
C541	C54	0.168570	0.812930	0.541330
C551	C55	0.209870	0.869330	0.477330
C561	C56	0.211770	0.890830	0.261330
H141	H14	0.173670	0.805430	0.699330
O401	O40	0.264370	0.892330	0.784330
O411	O41	0.283770	0.968830	0.595330
O421	O42	0.249670	0.946330	0.181330
Cu151	Cu15	0.962830	0.350270	0.680670
C571	C57	0.920630	0.248970	0.956670
C581	C58	0.835230	0.146270	0.874670
C591	C59	0.876530	0.202670	0.810670
C601	C60	0.878430	0.224170	0.594670
H151	H15	0.840330	0.138770	0.032670
O431	O43	0.931030	0.225670	0.117670
O441	O44	0.950430	0.302170	0.928670
O451	O45	0.916330	0.279670	0.514670
Cu161	Cu16	0.316400	0.945900	0.014000
C611	C61	0.417700	0.005000	0.290000
C621	C62	0.520400	0.022300	0.208000
C631	C63	0.464000	0.007200	0.144000
C641	C64	0.442500	0.987600	0.928000
H161	H16	0.527900	0.034900	0.366000
O461	O46	0.441000	0.038700	0.451000
O471	O47	0.364500	0.981600	0.262000
O481	O48	0.387000	0.970000	0.848000
Cu171	Cu17	0.983070	0.279230	0.347330
C651	C65	0.084370	0.338330	0.623330
C661	C66	0.187070	0.355630	0.541330
C671	C67	0.130670	0.340530	0.477330
C681	C68	0.109170	0.320930	0.261330
H171	H17	0.194570	0.368230	0.699330
O491	O49	0.107670	0.372030	0.784330
O501	O50	0.031170	0.314930	0.595330
O511	O51	0.053670	0.303330	0.181330
Cu181	Cu18	0.649730	0.612570	0.680670
C691	C69	0.751030	0.671670	0.956670
C701	C70	0.853730	0.688970	0.874670
C711	C71	0.797330	0.673870	0.810670
C721	C72	0.775830	0.654270	0.594670
H181	H18	0.861230	0.701570	0.032670
O521	O52	0.774330	0.705370	0.117670
O531	O53	0.697830	0.648270	0.928670
O541	O54	0.720330	0.636670	0.514670
