data_OZUMAZ_clean_PM
_symmetry_space_group_name_H-M	'P1'
_cell_length_a	25.871700
_cell_length_b	25.871700
_cell_length_c	6.263100
_cell_angle_alpha	90.000000
_cell_angle_beta	90.000000
_cell_angle_gamma	120.000000
_symmetry_Int_Tables_number 1

loop_
_symmetry_equiv_pos_as_xyz
'x,y,z'

loop_
_atom_site_label
_atom_site_type_symbol
_atom_site_fract_x
_atom_site_fract_y
_atom_site_fract_z
Cu11	Cu1	0.946800	0.631700	0.985900
C11	C1	0.006200	0.586600	0.696000
C21	C2	0.022000	0.505600	0.799000
C31	C3	0.004700	0.545400	0.866000
C41	C4	0.988400	0.543200	0.083000
H11	H1	0.038000	0.509300	0.630000
O11	O1	0.042400	0.601900	0.539000
O21	O2	0.978000	0.615200	0.743000
O31	O3	0.970800	0.583600	0.145000
Cu21	Cu2	0.613470	0.965030	0.319230
C51	C5	0.672870	0.919930	0.029330
C61	C6	0.688670	0.838930	0.132330
C71	C7	0.671370	0.878730	0.199330
C81	C8	0.655070	0.876530	0.416330
H21	H2	0.704670	0.842630	0.963330
O41	O4	0.709070	0.935230	0.872330
O51	O5	0.644670	0.948530	0.076330
O61	O6	0.637470	0.916930	0.478330
Cu31	Cu3	0.280130	0.298370	0.652570
C91	C9	0.339530	0.253270	0.362670
C101	C10	0.355330	0.172270	0.465670
C111	C11	0.338030	0.212070	0.532670
C121	C12	0.321730	0.209870	0.749670
H31	H3	0.371330	0.175970	0.296670
O71	O7	0.375730	0.268570	0.205670
O81	O8	0.311330	0.281870	0.409670
O91	O9	0.304130	0.250270	0.811670
Cu41	Cu4	0.368300	0.315100	0.985900
C131	C13	0.413400	0.419600	0.696000
C141	C14	0.494400	0.516400	0.799000
C151	C15	0.454600	0.459300	0.866000
C161	C16	0.456800	0.445200	0.083000
H41	H4	0.490700	0.528700	0.630000
O101	O10	0.398100	0.440500	0.539000
O111	O11	0.384800	0.362800	0.743000
O121	O12	0.416400	0.387200	0.145000
Cu51	Cu5	0.034970	0.648430	0.319230
C171	C17	0.080070	0.752930	0.029330
C181	C18	0.161070	0.849730	0.132330
C191	C19	0.121270	0.792630	0.199330
C201	C20	0.123470	0.778530	0.416330
H51	H5	0.157370	0.862030	0.963330
O131	O13	0.064770	0.773830	0.872330
O141	O14	0.051470	0.696130	0.076330
O151	O15	0.083070	0.720530	0.478330
Cu61	Cu6	0.701630	0.981770	0.652570
C211	C21	0.746730	0.086270	0.362670
C221	C22	0.827730	0.183070	0.465670
C231	C23	0.787930	0.125970	0.532670
C241	C24	0.790130	0.111870	0.749670
H61	H6	0.824030	0.195370	0.296670
O161	O16	0.731430	0.107170	0.205670
O171	O17	0.718130	0.029470	0.409670
O181	O18	0.749730	0.053870	0.811670
Cu71	Cu7	0.684900	0.053200	0.985900
C251	C25	0.580400	0.993800	0.696000
C261	C26	0.483600	0.978000	0.799000
C271	C27	0.540700	0.995300	0.866000
C281	C28	0.554800	0.011600	0.083000
H71	H7	0.471300	0.962000	0.630000
O191	O19	0.559500	0.957600	0.539000
O201	O20	0.637200	0.022000	0.743000
O211	O21	0.612800	0.029200	0.145000
Cu81	Cu8	0.351570	0.386530	0.319230
C291	C29	0.247070	0.327130	0.029330
C301	C30	0.150270	0.311330	0.132330
C311	C31	0.207370	0.328630	0.199330
C321	C32	0.221470	0.344930	0.416330
H81	H8	0.137970	0.295330	0.963330
O221	O22	0.226170	0.290930	0.872330
O231	O23	0.303870	0.355330	0.076330
O241	O24	0.279470	0.362530	0.478330
Cu91	Cu9	0.018230	0.719870	0.652570
C331	C33	0.913730	0.660470	0.362670
C341	C34	0.816930	0.644670	0.465670
C351	C35	0.874030	0.661970	0.532670
C361	C36	0.888130	0.678270	0.749670
H91	H9	0.804630	0.628670	0.296670
O251	O25	0.892830	0.624270	0.205670
O261	O26	0.970530	0.688670	0.409670
O271	O27	0.946130	0.695870	0.811670
Cu101	Cu10	0.053200	0.368300	0.014100
C371	C37	0.993800	0.413400	0.304000
C381	C38	0.978000	0.494400	0.201000
C391	C39	0.995300	0.454600	0.134000
C401	C40	0.011600	0.456800	0.917000
H101	H10	0.962000	0.490700	0.370000
O281	O28	0.957600	0.398100	0.461000
O291	O29	0.022000	0.384800	0.257000
O301	O30	0.029200	0.416400	0.855000
Cu111	Cu11	0.719870	0.701630	0.347430
C411	C41	0.660470	0.746730	0.637330
C421	C42	0.644670	0.827730	0.534330
C431	C43	0.661970	0.787930	0.467330
C441	C44	0.678270	0.790130	0.250330
H111	H11	0.628670	0.824030	0.703330
O311	O31	0.624270	0.731430	0.794330
O321	O32	0.688670	0.718130	0.590330
O331	O33	0.695870	0.749730	0.188330
Cu121	Cu12	0.386530	0.034970	0.680770
C451	C45	0.327130	0.080070	0.970670
C461	C46	0.311330	0.161070	0.867670
C471	C47	0.328630	0.121270	0.800670
C481	C48	0.344930	0.123470	0.583670
H121	H12	0.295330	0.157370	0.036670
O341	O34	0.290930	0.064770	0.127670
O351	O35	0.355330	0.051470	0.923670
O361	O36	0.362530	0.083070	0.521670
Cu131	Cu13	0.631700	0.684900	0.014100
C491	C49	0.586600	0.580400	0.304000
C501	C50	0.505600	0.483600	0.201000
C511	C51	0.545400	0.540700	0.134000
C521	C52	0.543200	0.554800	0.917000
H131	H13	0.509300	0.471300	0.370000
O371	O37	0.601900	0.559500	0.461000
O381	O38	0.615200	0.637200	0.257000
O391	O39	0.583600	0.612800	0.855000
Cu141	Cu14	0.298370	0.018230	0.347430
C531	C53	0.253270	0.913730	0.637330
C541	C54	0.172270	0.816930	0.534330
C551	C55	0.212070	0.874030	0.467330
C561	C56	0.209870	0.888130	0.250330
H141	H14	0.175970	0.804630	0.703330
O401	O40	0.268570	0.892830	0.794330
O411	O41	0.281870	0.970530	0.590330
O421	O42	0.250270	0.946130	0.188330
Cu151	Cu15	0.965030	0.351570	0.680770
C571	C57	0.919930	0.247070	0.970670
C581	C58	0.838930	0.150270	0.867670
C591	C59	0.878730	0.207370	0.800670
C601	C60	0.876530	0.221470	0.583670
H151	H15	0.842630	0.137970	0.036670
O431	O43	0.935230	0.226170	0.127670
O441	O44	0.948530	0.303870	0.923670
O451	O45	0.916930	0.279470	0.521670
Cu161	Cu16	0.315100	0.946800	0.014100
C611	C61	0.419600	0.006200	0.304000
C621	C62	0.516400	0.022000	0.201000
C631	C63	0.459300	0.004700	0.134000
C641	C64	0.445200	0.988400	0.917000
H161	H16	0.528700	0.038000	0.370000
O461	O46	0.440500	0.042400	0.461000
O471	O47	0.362800	0.978000	0.257000
O481	O48	0.387200	0.970800	0.855000
Cu171	Cu17	0.981770	0.280130	0.347430
C651	C65	0.086270	0.339530	0.637330
C661	C66	0.183070	0.355330	0.534330
C671	C67	0.125970	0.338030	0.467330
C681	C68	0.111870	0.321730	0.250330
H171	H17	0.195370	0.371330	0.703330
O491	O49	0.107170	0.375730	0.794330
O501	O50	0.029470	0.311330	0.590330
O511	O51	0.053870	0.304130	0.188330
Cu181	Cu18	0.648430	0.613470	0.680770
C691	C69	0.752930	0.672870	0.970670
C701	C70	0.849730	0.688670	0.867670
C711	C71	0.792630	0.671370	0.800670
C721	C72	0.778530	0.655070	0.583670
H181	H18	0.862030	0.704670	0.036670
O521	O52	0.773830	0.709070	0.127670
O531	O53	0.696130	0.644670	0.923670
O541	O54	0.720530	0.637470	0.521670
