data_PABXAT_clean_PM
_symmetry_space_group_name_H-M	'P1'
_cell_length_a	8.655900
_cell_length_b	9.199900
_cell_length_c	15.857000
_cell_angle_alpha	90.000000
_cell_angle_beta	90.000000
_cell_angle_gamma	114.438000
_symmetry_Int_Tables_number 1

loop_
_symmetry_equiv_pos_as_xyz
'x,y,z'

loop_
_atom_site_label
_atom_site_type_symbol
_atom_site_fract_x
_atom_site_fract_y
_atom_site_fract_z
Pr11	Pr1	0.732370	0.749170	0.731010
Pr21	Pr2	0.767630	0.250830	0.231010
Pr31	Pr3	0.267630	0.250830	0.268990
Pr41	Pr4	0.232370	0.749170	0.768990
H11	H1	0.363000	0.521000	0.022000
H21	H2	0.136000	0.339000	0.673000
H31	H3	0.318000	0.161000	0.720000
H41	H4	0.137000	0.479000	0.522000
H51	H5	0.364000	0.661000	0.173000
H61	H6	0.182000	0.839000	0.220000
H71	H7	0.637000	0.479000	0.978000
H81	H8	0.864000	0.661000	0.327000
H91	H9	0.682000	0.839000	0.280000
H101	H10	0.863000	0.521000	0.478000
H111	H11	0.636000	0.339000	0.827000
H121	H12	0.818000	0.161000	0.780000
C11	C1	0.226700	0.181500	0.702300
C21	C2	0.460000	0.612300	0.905700
C31	C3	0.067300	0.034900	0.703900
C41	C4	0.396600	0.470100	0.693900
C51	C5	0.235200	0.324500	0.684200
C61	C6	0.444100	0.526600	0.987400
C71	C7	0.273300	0.818500	0.202300
C81	C8	0.040000	0.387700	0.405700
C91	C9	0.432700	0.965100	0.203900
C101	C10	0.103400	0.529900	0.193900
C111	C11	0.264800	0.675500	0.184200
C121	C12	0.055900	0.473400	0.487400
C131	C13	0.773300	0.818500	0.297700
C141	C14	0.540000	0.387700	0.094300
C151	C15	0.932700	0.965100	0.296100
C161	C16	0.603400	0.529900	0.306100
C171	C17	0.764800	0.675500	0.315800
C181	C18	0.555900	0.473400	0.012600
C191	C19	0.726700	0.181500	0.797700
C201	C20	0.960000	0.612300	0.594300
C211	C21	0.567300	0.034900	0.796100
C221	C22	0.896600	0.470100	0.806100
C231	C23	0.735200	0.324500	0.815800
C241	C24	0.944100	0.526600	0.512600
O11	O1	0.352000	0.667700	0.891500
O21	O2	0.578500	0.622300	0.857800
O31	O3	0.931000	0.033900	0.676500
O41	O4	0.537400	0.460600	0.689600
O51	O5	0.070500	0.910100	0.736700
O61	O6	0.388500	0.602100	0.708030
O71	O7	0.148000	0.332300	0.391500
O81	O8	0.921500	0.377700	0.357800
O91	O9	0.569000	0.966100	0.176500
O101	O10	0.962600	0.539400	0.189600
O111	O11	0.429500	0.089900	0.236700
O121	O12	0.111500	0.397900	0.208030
O131	O13	0.648000	0.332300	0.108500
O141	O14	0.421500	0.377700	0.142200
O151	O15	0.069000	0.966100	0.323500
O161	O16	0.462600	0.539400	0.310400
O171	O17	0.929500	0.089900	0.263300
O181	O18	0.611500	0.397900	0.291970
O191	O19	0.852000	0.667700	0.608500
O201	O20	0.078500	0.622300	0.642200
O211	O21	0.431000	0.033900	0.823500
O221	O22	0.037400	0.460600	0.810400
O231	O23	0.570500	0.910100	0.763300
O241	O24	0.888500	0.602100	0.791970
