data_PACZOK_clean_PM
_symmetry_space_group_name_H-M	'P1'
_cell_length_a	26.506800
_cell_length_b	26.506800
_cell_length_c	26.506800
_cell_angle_alpha	90.000000
_cell_angle_beta	90.000000
_cell_angle_gamma	90.000000
_symmetry_Int_Tables_number 1

loop_
_symmetry_equiv_pos_as_xyz
'x,y,z'

loop_
_atom_site_label
_atom_site_type_symbol
_atom_site_fract_x
_atom_site_fract_y
_atom_site_fract_z
O11	O1	0.229760	0.296030	0.047320
O21	O2	0.358500	0.289500	0.105000
O31	O3	0.224100	0.397700	0.951300
O41	O4	0.729760	0.796030	0.547320
O51	O5	0.858500	0.789500	0.605000
O61	O6	0.724100	0.897700	0.451300
O71	O7	0.770240	0.703970	0.047320
O81	O8	0.641500	0.710500	0.105000
O91	O9	0.775900	0.602300	0.951300
O101	O10	0.270240	0.203970	0.547320
O111	O11	0.141500	0.210500	0.605000
O121	O12	0.275900	0.102300	0.451300
O131	O13	0.770240	0.296030	0.952680
O141	O14	0.641500	0.289500	0.895000
O151	O15	0.775900	0.397700	0.048700
O161	O16	0.270240	0.796030	0.452680
O171	O17	0.141500	0.789500	0.395000
O181	O18	0.275900	0.897700	0.548700
O191	O19	0.229760	0.703970	0.952680
O201	O20	0.358500	0.710500	0.895000
O211	O21	0.224100	0.602300	0.048700
O221	O22	0.729760	0.203970	0.452680
O231	O23	0.858500	0.210500	0.395000
O241	O24	0.724100	0.102300	0.548700
O251	O25	0.047320	0.229760	0.296030
O261	O26	0.105000	0.358500	0.289500
O271	O27	0.951300	0.224100	0.397700
O281	O28	0.547320	0.729760	0.796030
O291	O29	0.605000	0.858500	0.789500
O301	O30	0.451300	0.724100	0.897700
O311	O31	0.047320	0.770240	0.703970
O321	O32	0.105000	0.641500	0.710500
O331	O33	0.951300	0.775900	0.602300
O341	O34	0.547320	0.270240	0.203970
O351	O35	0.605000	0.141500	0.210500
O361	O36	0.451300	0.275900	0.102300
O371	O37	0.952680	0.770240	0.296030
O381	O38	0.895000	0.641500	0.289500
O391	O39	0.048700	0.775900	0.397700
O401	O40	0.452680	0.270240	0.796030
O411	O41	0.395000	0.141500	0.789500
O421	O42	0.548700	0.275900	0.897700
O431	O43	0.952680	0.229760	0.703970
O441	O44	0.895000	0.358500	0.710500
O451	O45	0.048700	0.224100	0.602300
O461	O46	0.452680	0.729760	0.203970
O471	O47	0.395000	0.858500	0.210500
O481	O48	0.548700	0.724100	0.102300
O491	O49	0.296030	0.047320	0.229760
O501	O50	0.289500	0.105000	0.358500
O511	O51	0.397700	0.951300	0.224100
O521	O52	0.796030	0.547320	0.729760
O531	O53	0.789500	0.605000	0.858500
O541	O54	0.897700	0.451300	0.724100
O551	O55	0.703970	0.047320	0.770240
O561	O56	0.710500	0.105000	0.641500
O571	O57	0.602300	0.951300	0.775900
O581	O58	0.203970	0.547320	0.270240
O591	O59	0.210500	0.605000	0.141500
O601	O60	0.102300	0.451300	0.275900
O611	O61	0.296030	0.952680	0.770240
O621	O62	0.289500	0.895000	0.641500
O631	O63	0.397700	0.048700	0.775900
O641	O64	0.796030	0.452680	0.270240
O651	O65	0.789500	0.395000	0.141500
O661	O66	0.897700	0.548700	0.275900
O671	O67	0.703970	0.952680	0.229760
O681	O68	0.710500	0.895000	0.358500
O691	O69	0.602300	0.048700	0.224100
O701	O70	0.203970	0.452680	0.729760
O711	O71	0.210500	0.395000	0.858500
O721	O72	0.102300	0.548700	0.724100
O731	O73	0.296030	0.229760	0.952680
O741	O74	0.289500	0.358500	0.895000
O751	O75	0.397700	0.224100	0.048700
O761	O76	0.796030	0.729760	0.452680
O771	O77	0.789500	0.858500	0.395000
O781	O78	0.897700	0.724100	0.548700
O791	O79	0.703970	0.770240	0.952680
O801	O80	0.710500	0.641500	0.895000
O811	O81	0.602300	0.775900	0.048700
O821	O82	0.203970	0.270240	0.452680
O831	O83	0.210500	0.141500	0.395000
O841	O84	0.102300	0.275900	0.548700
O851	O85	0.296030	0.770240	0.047320
O861	O86	0.289500	0.641500	0.105000
O871	O87	0.397700	0.775900	0.951300
O881	O88	0.796030	0.270240	0.547320
O891	O89	0.789500	0.141500	0.605000
O901	O90	0.897700	0.275900	0.451300
O911	O91	0.703970	0.229760	0.047320
O921	O92	0.710500	0.358500	0.105000
O931	O93	0.602300	0.224100	0.951300
O941	O94	0.203970	0.729760	0.547320
O951	O95	0.210500	0.858500	0.605000
O961	O96	0.102300	0.724100	0.451300
O971	O97	0.229760	0.047320	0.703970
O981	O98	0.358500	0.105000	0.710500
O991	O99	0.224100	0.951300	0.602300
O1001	O100	0.729760	0.547320	0.203970
O1011	O101	0.858500	0.605000	0.210500
O1021	O102	0.724100	0.451300	0.102300
O1031	O103	0.770240	0.047320	0.296030
O1041	O104	0.641500	0.105000	0.289500
O1051	O105	0.775900	0.951300	0.397700
O1061	O106	0.270240	0.547320	0.796030
O1071	O107	0.141500	0.605000	0.789500
O1081	O108	0.275900	0.451300	0.897700
O1091	O109	0.770240	0.952680	0.703970
O1101	O110	0.641500	0.895000	0.710500
O1111	O111	0.775900	0.048700	0.602300
O1121	O112	0.270240	0.452680	0.203970
O1131	O113	0.141500	0.395000	0.210500
O1141	O114	0.275900	0.548700	0.102300
O1151	O115	0.229760	0.952680	0.296030
O1161	O116	0.358500	0.895000	0.289500
O1171	O117	0.224100	0.048700	0.397700
O1181	O118	0.729760	0.452680	0.796030
O1191	O119	0.858500	0.395000	0.789500
O1201	O120	0.724100	0.548700	0.897700
O1211	O121	0.047320	0.296030	0.770240
O1221	O122	0.105000	0.289500	0.641500
O1231	O123	0.951300	0.397700	0.775900
O1241	O124	0.547320	0.796030	0.270240
O1251	O125	0.605000	0.789500	0.141500
O1261	O126	0.451300	0.897700	0.275900
O1271	O127	0.047320	0.703970	0.229760
O1281	O128	0.105000	0.710500	0.358500
O1291	O129	0.951300	0.602300	0.224100
O1301	O130	0.547320	0.203970	0.729760
O1311	O131	0.605000	0.210500	0.858500
O1321	O132	0.451300	0.102300	0.724100
O1331	O133	0.952680	0.296030	0.229760
O1341	O134	0.895000	0.289500	0.358500
O1351	O135	0.048700	0.397700	0.224100
O1361	O136	0.452680	0.796030	0.729760
O1371	O137	0.395000	0.789500	0.858500
O1381	O138	0.548700	0.897700	0.724100
O1391	O139	0.952680	0.703970	0.770240
O1401	O140	0.895000	0.710500	0.641500
O1411	O141	0.048700	0.602300	0.775900
O1421	O142	0.452680	0.203970	0.270240
O1431	O143	0.395000	0.210500	0.141500
O1441	O144	0.548700	0.102300	0.275900
O1451	O145	0.770240	0.703970	0.952680
O1461	O146	0.641500	0.710500	0.895000
O1471	O147	0.775900	0.602300	0.048700
O1481	O148	0.270240	0.203970	0.452680
O1491	O149	0.141500	0.210500	0.395000
O1501	O150	0.275900	0.102300	0.548700
O1511	O151	0.229760	0.296030	0.952680
O1521	O152	0.358500	0.289500	0.895000
O1531	O153	0.224100	0.397700	0.048700
O1541	O154	0.729760	0.796030	0.452680
O1551	O155	0.858500	0.789500	0.395000
O1561	O156	0.724100	0.897700	0.548700
O1571	O157	0.229760	0.703970	0.047320
O1581	O158	0.358500	0.710500	0.105000
O1591	O159	0.224100	0.602300	0.951300
O1601	O160	0.729760	0.203970	0.547320
O1611	O161	0.858500	0.210500	0.605000
O1621	O162	0.724100	0.102300	0.451300
O1631	O163	0.770240	0.296030	0.047320
O1641	O164	0.641500	0.289500	0.105000
O1651	O165	0.775900	0.397700	0.951300
O1661	O166	0.270240	0.796030	0.547320
O1671	O167	0.141500	0.789500	0.605000
O1681	O168	0.275900	0.897700	0.451300
O1691	O169	0.952680	0.770240	0.703970
O1701	O170	0.895000	0.641500	0.710500
O1711	O171	0.048700	0.775900	0.602300
O1721	O172	0.452680	0.270240	0.203970
O1731	O173	0.395000	0.141500	0.210500
O1741	O174	0.548700	0.275900	0.102300
O1751	O175	0.952680	0.229760	0.296030
O1761	O176	0.895000	0.358500	0.289500
O1771	O177	0.048700	0.224100	0.397700
O1781	O178	0.452680	0.729760	0.796030
O1791	O179	0.395000	0.858500	0.789500
O1801	O180	0.548700	0.724100	0.897700
O1811	O181	0.047320	0.229760	0.703970
O1821	O182	0.105000	0.358500	0.710500
O1831	O183	0.951300	0.224100	0.602300
O1841	O184	0.547320	0.729760	0.203970
O1851	O185	0.605000	0.858500	0.210500
O1861	O186	0.451300	0.724100	0.102300
O1871	O187	0.047320	0.770240	0.296030
O1881	O188	0.105000	0.641500	0.289500
O1891	O189	0.951300	0.775900	0.397700
O1901	O190	0.547320	0.270240	0.796030
O1911	O191	0.605000	0.141500	0.789500
O1921	O192	0.451300	0.275900	0.897700
O1931	O193	0.703970	0.952680	0.770240
O1941	O194	0.710500	0.895000	0.641500
O1951	O195	0.602300	0.048700	0.775900
O1961	O196	0.203970	0.452680	0.270240
O1971	O197	0.210500	0.395000	0.141500
O1981	O198	0.102300	0.548700	0.275900
O1991	O199	0.296030	0.952680	0.229760
O2001	O200	0.289500	0.895000	0.358500
O2011	O201	0.397700	0.048700	0.224100
O2021	O202	0.796030	0.452680	0.729760
O2031	O203	0.789500	0.395000	0.858500
O2041	O204	0.897700	0.548700	0.724100
O2051	O205	0.703970	0.047320	0.229760
O2061	O206	0.710500	0.105000	0.358500
O2071	O207	0.602300	0.951300	0.224100
O2081	O208	0.203970	0.547320	0.729760
O2091	O209	0.210500	0.605000	0.858500
O2101	O210	0.102300	0.451300	0.724100
O2111	O211	0.296030	0.047320	0.770240
O2121	O212	0.289500	0.105000	0.641500
O2131	O213	0.397700	0.951300	0.775900
O2141	O214	0.796030	0.547320	0.270240
O2151	O215	0.789500	0.605000	0.141500
O2161	O216	0.897700	0.451300	0.275900
O2171	O217	0.703970	0.770240	0.047320
O2181	O218	0.710500	0.641500	0.105000
O2191	O219	0.602300	0.775900	0.951300
O2201	O220	0.203970	0.270240	0.547320
O2211	O221	0.210500	0.141500	0.605000
O2221	O222	0.102300	0.275900	0.451300
O2231	O223	0.296030	0.229760	0.047320
O2241	O224	0.289500	0.358500	0.105000
O2251	O225	0.397700	0.224100	0.951300
O2261	O226	0.796030	0.729760	0.547320
O2271	O227	0.789500	0.858500	0.605000
O2281	O228	0.897700	0.724100	0.451300
O2291	O229	0.703970	0.229760	0.952680
O2301	O230	0.710500	0.358500	0.895000
O2311	O231	0.602300	0.224100	0.048700
O2321	O232	0.203970	0.729760	0.452680
O2331	O233	0.210500	0.858500	0.395000
O2341	O234	0.102300	0.724100	0.548700
O2351	O235	0.296030	0.770240	0.952680
O2361	O236	0.289500	0.641500	0.895000
O2371	O237	0.397700	0.775900	0.048700
O2381	O238	0.796030	0.270240	0.452680
O2391	O239	0.789500	0.141500	0.395000
O2401	O240	0.897700	0.275900	0.548700
O2411	O241	0.770240	0.952680	0.296030
O2421	O242	0.641500	0.895000	0.289500
O2431	O243	0.775900	0.048700	0.397700
O2441	O244	0.270240	0.452680	0.796030
O2451	O245	0.141500	0.395000	0.789500
O2461	O246	0.275900	0.548700	0.897700
O2471	O247	0.229760	0.952680	0.703970
O2481	O248	0.358500	0.895000	0.710500
O2491	O249	0.224100	0.048700	0.602300
O2501	O250	0.729760	0.452680	0.203970
O2511	O251	0.858500	0.395000	0.210500
O2521	O252	0.724100	0.548700	0.102300
O2531	O253	0.229760	0.047320	0.296030
O2541	O254	0.358500	0.105000	0.289500
O2551	O255	0.224100	0.951300	0.397700
O2561	O256	0.729760	0.547320	0.796030
O2571	O257	0.858500	0.605000	0.789500
O2581	O258	0.724100	0.451300	0.897700
O2591	O259	0.770240	0.047320	0.703970
O2601	O260	0.641500	0.105000	0.710500
O2611	O261	0.775900	0.951300	0.602300
O2621	O262	0.270240	0.547320	0.203970
O2631	O263	0.141500	0.605000	0.210500
O2641	O264	0.275900	0.451300	0.102300
O2651	O265	0.952680	0.703970	0.229760
O2661	O266	0.895000	0.710500	0.358500
O2671	O267	0.048700	0.602300	0.224100
O2681	O268	0.452680	0.203970	0.729760
O2691	O269	0.395000	0.210500	0.858500
O2701	O270	0.548700	0.102300	0.724100
O2711	O271	0.952680	0.296030	0.770240
O2721	O272	0.895000	0.289500	0.641500
O2731	O273	0.048700	0.397700	0.775900
O2741	O274	0.452680	0.796030	0.270240
O2751	O275	0.395000	0.789500	0.141500
O2761	O276	0.548700	0.897700	0.275900
O2771	O277	0.047320	0.703970	0.770240
O2781	O278	0.105000	0.710500	0.641500
O2791	O279	0.951300	0.602300	0.775900
O2801	O280	0.547320	0.203970	0.270240
O2811	O281	0.605000	0.210500	0.141500
O2821	O282	0.451300	0.102300	0.275900
O2831	O283	0.047320	0.296030	0.229760
O2841	O284	0.105000	0.289500	0.358500
O2851	O285	0.951300	0.397700	0.224100
O2861	O286	0.547320	0.796030	0.729760
O2871	O287	0.605000	0.789500	0.858500
O2881	O288	0.451300	0.897700	0.724100
V11	V1	0.285790	0.285790	0.094400
V21	V2	0.785790	0.785790	0.594400
V31	V3	0.714210	0.714210	0.094400
V41	V4	0.214210	0.214210	0.594400
V51	V5	0.714210	0.285790	0.905600
V61	V6	0.214210	0.785790	0.405600
V71	V7	0.285790	0.714210	0.905600
V81	V8	0.785790	0.214210	0.405600
V91	V9	0.094400	0.285790	0.285790
V101	V10	0.594400	0.785790	0.785790
V111	V11	0.094400	0.714210	0.714210
V121	V12	0.594400	0.214210	0.214210
V131	V13	0.905600	0.714210	0.285790
V141	V14	0.405600	0.214210	0.785790
V151	V15	0.905600	0.285790	0.714210
V161	V16	0.405600	0.785790	0.214210
V171	V17	0.285790	0.094400	0.285790
V181	V18	0.785790	0.594400	0.785790
V191	V19	0.714210	0.094400	0.714210
V201	V20	0.214210	0.594400	0.214210
V211	V21	0.285790	0.905600	0.714210
V221	V22	0.785790	0.405600	0.214210
V231	V23	0.714210	0.905600	0.285790
V241	V24	0.214210	0.405600	0.785790
V251	V25	0.285790	0.285790	0.905600
V261	V26	0.785790	0.785790	0.405600
V271	V27	0.714210	0.714210	0.905600
V281	V28	0.214210	0.214210	0.405600
V291	V29	0.285790	0.714210	0.094400
V301	V30	0.785790	0.214210	0.594400
V311	V31	0.714210	0.285790	0.094400
V321	V32	0.214210	0.785790	0.594400
V331	V33	0.285790	0.094400	0.714210
V341	V34	0.785790	0.594400	0.214210
V351	V35	0.714210	0.094400	0.285790
V361	V36	0.214210	0.594400	0.785790
V371	V37	0.714210	0.905600	0.714210
V381	V38	0.214210	0.405600	0.214210
V391	V39	0.285790	0.905600	0.285790
V401	V40	0.785790	0.405600	0.785790
V411	V41	0.094400	0.285790	0.714210
V421	V42	0.594400	0.785790	0.214210
V431	V43	0.094400	0.714210	0.285790
V441	V44	0.594400	0.214210	0.785790
V451	V45	0.905600	0.285790	0.285790
V461	V46	0.405600	0.785790	0.785790
V471	V47	0.905600	0.714210	0.714210
V481	V48	0.405600	0.214210	0.214210
V491	V49	0.245720	0.245720	0.000000
V501	V50	0.745720	0.745720	0.500000
V511	V51	0.754280	0.754280	0.000000
V521	V52	0.254280	0.254280	0.500000
V531	V53	0.754280	0.245720	0.000000
V541	V54	0.254280	0.745720	0.500000
V551	V55	0.245720	0.754280	0.000000
V561	V56	0.745720	0.254280	0.500000
V571	V57	0.000000	0.245720	0.245720
V581	V58	0.500000	0.745720	0.745720
V591	V59	0.000000	0.754280	0.754280
V601	V60	0.500000	0.254280	0.254280
V611	V61	0.000000	0.754280	0.245720
V621	V62	0.500000	0.254280	0.745720
V631	V63	0.000000	0.245720	0.754280
V641	V64	0.500000	0.745720	0.254280
V651	V65	0.245720	0.000000	0.245720
V661	V66	0.745720	0.500000	0.745720
V671	V67	0.754280	0.000000	0.754280
V681	V68	0.254280	0.500000	0.254280
V691	V69	0.245720	0.000000	0.754280
V701	V70	0.745720	0.500000	0.254280
V711	V71	0.754280	0.000000	0.245720
V721	V72	0.254280	0.500000	0.745720
V731	V73	0.205910	0.346610	0.000000
V741	V74	0.705910	0.846610	0.500000
V751	V75	0.794090	0.653390	0.000000
V761	V76	0.294090	0.153390	0.500000
V771	V77	0.794090	0.346610	0.000000
V781	V78	0.294090	0.846610	0.500000
V791	V79	0.205910	0.653390	0.000000
V801	V80	0.705910	0.153390	0.500000
V811	V81	0.000000	0.205910	0.346610
V821	V82	0.500000	0.705910	0.846610
V831	V83	0.000000	0.794090	0.653390
V841	V84	0.500000	0.294090	0.153390
V851	V85	0.000000	0.794090	0.346610
V861	V86	0.500000	0.294090	0.846610
V871	V87	0.000000	0.205910	0.653390
V881	V88	0.500000	0.705910	0.153390
V891	V89	0.346610	0.000000	0.205910
V901	V90	0.846610	0.500000	0.705910
V911	V91	0.653390	0.000000	0.794090
V921	V92	0.153390	0.500000	0.294090
V931	V93	0.346610	0.000000	0.794090
V941	V94	0.846610	0.500000	0.294090
V951	V95	0.653390	0.000000	0.205910
V961	V96	0.153390	0.500000	0.705910
V971	V97	0.346610	0.205910	0.000000
V981	V98	0.846610	0.705910	0.500000
V991	V99	0.653390	0.794090	0.000000
V1001	V100	0.153390	0.294090	0.500000
V1011	V101	0.346610	0.794090	0.000000
V1021	V102	0.846610	0.294090	0.500000
V1031	V103	0.653390	0.205910	0.000000
V1041	V104	0.153390	0.705910	0.500000
V1051	V105	0.205910	0.000000	0.653390
V1061	V106	0.705910	0.500000	0.153390
V1071	V107	0.794090	0.000000	0.346610
V1081	V108	0.294090	0.500000	0.846610
V1091	V109	0.794090	0.000000	0.653390
V1101	V110	0.294090	0.500000	0.153390
V1111	V111	0.205910	0.000000	0.346610
V1121	V112	0.705910	0.500000	0.846610
V1131	V113	0.000000	0.346610	0.794090
V1141	V114	0.500000	0.846610	0.294090
V1151	V115	0.000000	0.653390	0.205910
V1161	V116	0.500000	0.153390	0.705910
V1171	V117	0.000000	0.346610	0.205910
V1181	V118	0.500000	0.846610	0.705910
V1191	V119	0.000000	0.653390	0.794090
V1201	V120	0.500000	0.153390	0.294090
P11	P1	0.400190	0.250000	0.099810
P21	P2	0.599810	0.750000	0.099810
P31	P3	0.599810	0.250000	0.900190
P41	P4	0.400190	0.750000	0.900190
P51	P5	0.099810	0.400190	0.250000
P61	P6	0.099810	0.599810	0.750000
P71	P7	0.900190	0.599810	0.250000
P81	P8	0.900190	0.400190	0.750000
P91	P9	0.250000	0.099810	0.400190
P101	P10	0.750000	0.099810	0.599810
P111	P11	0.250000	0.900190	0.599810
P121	P12	0.750000	0.900190	0.400190
P131	P13	0.250000	0.400190	0.900190
P141	P14	0.750000	0.599810	0.900190
P151	P15	0.250000	0.599810	0.099810
P161	P16	0.750000	0.400190	0.099810
P171	P17	0.400190	0.099810	0.750000
P181	P18	0.599810	0.099810	0.250000
P191	P19	0.599810	0.900190	0.750000
P201	P20	0.400190	0.900190	0.250000
P211	P21	0.099810	0.250000	0.599810
P221	P22	0.099810	0.750000	0.400190
P231	P23	0.900190	0.250000	0.400190
P241	P24	0.900190	0.750000	0.599810
P251	P25	0.599810	0.750000	0.900190
P261	P26	0.099810	0.250000	0.400190
P271	P27	0.400190	0.250000	0.900190
P281	P28	0.400190	0.750000	0.099810
P291	P29	0.599810	0.250000	0.099810
P301	P30	0.900190	0.599810	0.750000
P311	P31	0.400190	0.099810	0.250000
P321	P32	0.900190	0.400190	0.250000
P331	P33	0.099810	0.400190	0.750000
P341	P34	0.099810	0.599810	0.250000
P351	P35	0.750000	0.900190	0.599810
P361	P36	0.250000	0.400190	0.099810
P371	P37	0.250000	0.900190	0.400190
P381	P38	0.750000	0.099810	0.400190
P391	P39	0.250000	0.099810	0.599810
P401	P40	0.750000	0.599810	0.099810
P411	P41	0.750000	0.400190	0.900190
P421	P42	0.250000	0.599810	0.900190
P431	P43	0.599810	0.900190	0.250000
P441	P44	0.400190	0.900190	0.750000
P451	P45	0.599810	0.099810	0.750000
P461	P46	0.900190	0.750000	0.400190
P471	P47	0.900190	0.250000	0.599810
P481	P48	0.099810	0.750000	0.599810
