data_PAKFAL_clean_PM
_symmetry_space_group_name_H-M	'P1'
_cell_length_a	12.133000
_cell_length_b	25.156000
_cell_length_c	7.637300
_cell_angle_alpha	90.000000
_cell_angle_beta	93.317000
_cell_angle_gamma	90.000000
_symmetry_Int_Tables_number 1

loop_
_symmetry_equiv_pos_as_xyz
'x,y,z'

loop_
_atom_site_label
_atom_site_type_symbol
_atom_site_fract_x
_atom_site_fract_y
_atom_site_fract_z
Mn11	Mn1	0.809380	0.623580	0.297140
N11	N1	0.705500	0.616600	0.526400
N21	N2	0.703100	0.566200	0.149400
N31	N3	0.699600	0.694750	0.211200
O11	O1	0.426100	0.822930	0.931000
O21	O2	0.587400	0.866910	0.933100
C11	C1	0.632300	0.612300	0.610800
C21	C2	0.630700	0.540700	0.094200
C31	C3	0.605700	0.688300	0.110100
H11	H1	0.578600	0.654300	0.086300
C41	C4	0.549100	0.732600	0.041200
H21	H2	0.482600	0.727300	0.976800
C51	C5	0.584300	0.779300	0.062500
C61	C6	0.678800	0.788000	0.167300
H31	H3	0.705900	0.822300	0.186600
C71	C7	0.731800	0.744800	0.242400
H41	H4	0.793200	0.750700	0.318700
C81	C8	0.527900	0.827400	0.969100
Mn21	Mn2	0.309380	0.123580	0.297140
N41	N4	0.205500	0.116600	0.526400
N51	N5	0.203100	0.066200	0.149400
N61	N6	0.199600	0.194750	0.211200
O31	O3	0.926100	0.322930	0.931000
O41	O4	0.087400	0.366910	0.933100
C91	C9	0.132300	0.112300	0.610800
C101	C10	0.130700	0.040700	0.094200
C111	C11	0.105700	0.188300	0.110100
H51	H5	0.078600	0.154300	0.086300
C121	C12	0.049100	0.232600	0.041200
H61	H6	0.982600	0.227300	0.976800
C131	C13	0.084300	0.279300	0.062500
C141	C14	0.178800	0.288000	0.167300
H71	H7	0.205900	0.322300	0.186600
C151	C15	0.231800	0.244800	0.242400
H81	H8	0.293200	0.250700	0.318700
C161	C16	0.027900	0.327400	0.969100
Mn31	Mn3	0.190620	0.623580	0.202860
N71	N7	0.294500	0.616600	0.973600
N81	N8	0.296900	0.566200	0.350600
N91	N9	0.300400	0.694750	0.288800
O51	O5	0.573900	0.822930	0.569000
O61	O6	0.412600	0.866910	0.566900
C171	C17	0.367700	0.612300	0.889200
C181	C18	0.369300	0.540700	0.405800
C191	C19	0.394300	0.688300	0.389900
H91	H9	0.421400	0.654300	0.413700
C201	C20	0.450900	0.732600	0.458800
H101	H10	0.517400	0.727300	0.523200
C211	C21	0.415700	0.779300	0.437500
C221	C22	0.321200	0.788000	0.332700
H111	H11	0.294100	0.822300	0.313400
C231	C23	0.268200	0.744800	0.257600
H121	H12	0.206800	0.750700	0.181300
C241	C24	0.472100	0.827400	0.530900
Mn41	Mn4	0.690620	0.123580	0.202860
N101	N10	0.794500	0.116600	0.973600
N111	N11	0.796900	0.066200	0.350600
N121	N12	0.800400	0.194750	0.288800
O71	O7	0.073900	0.322930	0.569000
O81	O8	0.912600	0.366910	0.566900
C251	C25	0.867700	0.112300	0.889200
C261	C26	0.869300	0.040700	0.405800
C271	C27	0.894300	0.188300	0.389900
H131	H13	0.921400	0.154300	0.413700
C281	C28	0.950900	0.232600	0.458800
H141	H14	0.017400	0.227300	0.523200
C291	C29	0.915700	0.279300	0.437500
C301	C30	0.821200	0.288000	0.332700
H151	H15	0.794100	0.322300	0.313400
C311	C31	0.768200	0.244800	0.257600
H161	H16	0.706800	0.250700	0.181300
C321	C32	0.972100	0.327400	0.530900
Mn51	Mn5	0.190620	0.376420	0.702860
N131	N13	0.294500	0.383400	0.473600
N141	N14	0.296900	0.433800	0.850600
N151	N15	0.300400	0.305250	0.788800
O91	O9	0.573900	0.177070	0.069000
O101	O10	0.412600	0.133090	0.066900
C331	C33	0.367700	0.387700	0.389200
C341	C34	0.369300	0.459300	0.905800
C351	C35	0.394300	0.311700	0.889900
H171	H17	0.421400	0.345700	0.913700
C361	C36	0.450900	0.267400	0.958800
H181	H18	0.517400	0.272700	0.023200
C371	C37	0.415700	0.220700	0.937500
C381	C38	0.321200	0.212000	0.832700
H191	H19	0.294100	0.177700	0.813400
C391	C39	0.268200	0.255200	0.757600
H201	H20	0.206800	0.249300	0.681300
C401	C40	0.472100	0.172600	0.030900
Mn61	Mn6	0.690620	0.876420	0.702860
N161	N16	0.794500	0.883400	0.473600
N171	N17	0.796900	0.933800	0.850600
N181	N18	0.800400	0.805250	0.788800
O111	O11	0.073900	0.677070	0.069000
O121	O12	0.912600	0.633090	0.066900
C411	C41	0.867700	0.887700	0.389200
C421	C42	0.869300	0.959300	0.905800
C431	C43	0.894300	0.811700	0.889900
H211	H21	0.921400	0.845700	0.913700
C441	C44	0.950900	0.767400	0.958800
H221	H22	0.017400	0.772700	0.023200
C451	C45	0.915700	0.720700	0.937500
C461	C46	0.821200	0.712000	0.832700
H231	H23	0.794100	0.677700	0.813400
C471	C47	0.768200	0.755200	0.757600
H241	H24	0.706800	0.749300	0.681300
C481	C48	0.972100	0.672600	0.030900
Mn71	Mn7	0.809380	0.376420	0.797140
N191	N19	0.705500	0.383400	0.026400
N201	N20	0.703100	0.433800	0.649400
N211	N21	0.699600	0.305250	0.711200
O131	O13	0.426100	0.177070	0.431000
O141	O14	0.587400	0.133090	0.433100
C491	C49	0.632300	0.387700	0.110800
C501	C50	0.630700	0.459300	0.594200
C511	C51	0.605700	0.311700	0.610100
H251	H25	0.578600	0.345700	0.586300
C521	C52	0.549100	0.267400	0.541200
H261	H26	0.482600	0.272700	0.476800
C531	C53	0.584300	0.220700	0.562500
C541	C54	0.678800	0.212000	0.667300
H271	H27	0.705900	0.177700	0.686600
C551	C55	0.731800	0.255200	0.742400
H281	H28	0.793200	0.249300	0.818700
C561	C56	0.527900	0.172600	0.469100
Mn81	Mn8	0.309380	0.876420	0.797140
N221	N22	0.205500	0.883400	0.026400
N231	N23	0.203100	0.933800	0.649400
N241	N24	0.199600	0.805250	0.711200
O151	O15	0.926100	0.677070	0.431000
O161	O16	0.087400	0.633090	0.433100
C571	C57	0.132300	0.887700	0.110800
C581	C58	0.130700	0.959300	0.594200
C591	C59	0.105700	0.811700	0.610100
H291	H29	0.078600	0.845700	0.586300
C601	C60	0.049100	0.767400	0.541200
H301	H30	0.982600	0.772700	0.476800
C611	C61	0.084300	0.720700	0.562500
C621	C62	0.178800	0.712000	0.667300
H311	H31	0.205900	0.677700	0.686600
C631	C63	0.231800	0.755200	0.742400
H321	H32	0.293200	0.749300	0.818700
C641	C64	0.027900	0.672600	0.469100
Au11	Au1	0.500000	0.607290	0.750000
Au21	Au2	0.000000	0.107290	0.750000
Au31	Au3	0.500000	0.392710	0.250000
Au41	Au4	0.000000	0.892710	0.250000
Au51	Au5	0.500000	0.500000	0.000000
Au61	Au6	0.000000	0.000000	0.000000
Au71	Au7	0.500000	0.500000	0.500000
Au81	Au8	0.000000	0.000000	0.500000
