data_PAKXIK_clean_PM
_symmetry_space_group_name_H-M	'P1'
_cell_length_a	12.678400
_cell_length_b	13.543300
_cell_length_c	17.132200
_cell_angle_alpha	77.839000
_cell_angle_beta	76.404000
_cell_angle_gamma	80.614000
_symmetry_Int_Tables_number 1

loop_
_symmetry_equiv_pos_as_xyz
'x,y,z'

loop_
_atom_site_label
_atom_site_type_symbol
_atom_site_fract_x
_atom_site_fract_y
_atom_site_fract_z
Cd11	Cd1	0.478320	0.527570	0.738990
Cd21	Cd2	0.720660	0.245980	0.241180
Cd31	Cd3	0.719250	0.300590	0.749050
Cd41	Cd4	0.521680	0.472430	0.261010
Cd51	Cd5	0.279340	0.754020	0.758820
Cd61	Cd6	0.280750	0.699410	0.250950
H11	H1	0.800800	0.679600	0.657800
H21	H2	0.954400	0.748600	0.657800
H31	H3	0.976200	0.567100	0.872300
H41	H4	0.721500	0.549200	0.971500
H51	H5	0.725500	0.252700	0.069600
H61	H6	0.846100	0.213500	0.953200
H71	H7	0.525800	0.707400	0.450200
H81	H8	0.165500	0.850900	0.472900
H91	H9	0.221800	0.748300	0.584300
H101	H10	0.305000	0.021300	0.413800
H111	H11	0.320000	0.116800	0.344100
H121	H12	0.203100	0.098000	0.395900
H131	H13	0.144300	0.085600	0.254500
H141	H14	0.257600	0.128000	0.223800
H151	H15	0.239900	0.028300	0.198300
H161	H16	0.675400	0.773600	0.153200
H171	H17	0.717100	0.937100	0.136400
H181	H18	0.500000	0.976200	0.341400
H191	H19	0.073400	0.324500	0.687600
H201	H20	0.174600	0.334200	0.722200
H211	H21	0.126300	0.230200	0.741800
H221	H22	0.134400	0.295700	0.887400
H231	H23	0.132200	0.409800	0.843600
H241	H24	0.033600	0.374700	0.913000
H251	H25	0.199200	0.320400	0.342200
H261	H26	0.045600	0.251400	0.342200
H271	H27	0.023800	0.432900	0.127700
H281	H28	0.278500	0.450800	0.028500
H291	H29	0.274500	0.747300	0.930400
H301	H30	0.153900	0.786500	0.046800
H311	H31	0.474200	0.292600	0.549800
H321	H32	0.834500	0.149100	0.527100
H331	H33	0.778200	0.251700	0.415700
H341	H34	0.695000	0.978700	0.586200
H351	H35	0.680000	0.883200	0.655900
H361	H36	0.796900	0.902000	0.604100
H371	H37	0.855700	0.914400	0.745500
H381	H38	0.742400	0.872000	0.776200
H391	H39	0.760100	0.971700	0.801700
H401	H40	0.324600	0.226400	0.846800
H411	H41	0.282900	0.062900	0.863600
H421	H42	0.500000	0.023800	0.658600
H431	H43	0.926600	0.675500	0.312400
H441	H44	0.825400	0.665800	0.277800
H451	H45	0.873700	0.769800	0.258200
H461	H46	0.865600	0.704300	0.112600
H471	H47	0.867800	0.590200	0.156400
H481	H48	0.966400	0.625300	0.087000
C11	C1	0.694800	0.539100	0.759600
C21	C2	0.797700	0.579200	0.762300
C31	C3	0.837000	0.655900	0.700700
C41	C4	0.928200	0.698400	0.700900
C51	C5	0.981200	0.665400	0.766400
C61	C6	0.941300	0.588700	0.828600
C71	C7	0.851900	0.543200	0.828100
C81	C8	0.082700	0.707700	0.767700
C91	C9	0.816800	0.458800	0.896700
C101	C10	0.746400	0.481600	0.967500
C111	C11	0.712100	0.404800	0.033200
C121	C12	0.748900	0.304500	0.026900
C131	C13	0.820700	0.281000	0.957000
C141	C14	0.855000	0.358100	0.892600
C151	C15	0.634900	0.432000	0.108300
C161	C16	0.930300	0.326700	0.817300
C171	C17	0.416900	0.645000	0.599100
C181	C18	0.379700	0.715100	0.527700
C191	C19	0.453800	0.737400	0.454600
C201	C20	0.423400	0.803000	0.388100
C211	C21	0.312400	0.845400	0.395200
C221	C22	0.238300	0.823100	0.468600
C231	C23	0.271400	0.760500	0.534800
C241	C24	0.273000	0.906800	0.322600
C251	C25	0.272900	0.065800	0.371800
C261	C26	0.222000	0.067400	0.241300
C271	C27	0.544500	0.666900	0.267700
C281	C28	0.561300	0.776500	0.257500
C291	C29	0.640000	0.814300	0.191300
C301	C30	0.666000	0.911700	0.181800
C311	C31	0.616600	0.971300	0.239200
C321	C32	0.535600	0.934600	0.304000
C331	C33	0.506700	0.838000	0.314200
C341	C34	0.655000	0.071900	0.235200
C351	C35	0.108800	0.302800	0.733200
C361	C36	0.088600	0.355200	0.868100
C371	C37	0.305200	0.460900	0.240400
C381	C38	0.202300	0.420800	0.237700
C391	C39	0.163000	0.344100	0.299300
C401	C40	0.071800	0.301600	0.299100
C411	C41	0.018800	0.334600	0.233600
C421	C42	0.058700	0.411300	0.171400
C431	C43	0.148100	0.456800	0.171900
C441	C44	0.917300	0.292300	0.232300
C451	C45	0.183200	0.541200	0.103300
C461	C46	0.253600	0.518400	0.032500
C471	C47	0.287900	0.595200	0.966800
C481	C48	0.251100	0.695500	0.973100
C491	C49	0.179300	0.719000	0.043000
C501	C50	0.145000	0.641900	0.107400
C511	C51	0.365100	0.568000	0.891700
C521	C52	0.069700	0.673300	0.182700
C531	C53	0.583100	0.355000	0.400900
C541	C54	0.620300	0.284900	0.472300
C551	C55	0.546200	0.262600	0.545400
C561	C56	0.576600	0.197000	0.611900
C571	C57	0.687600	0.154600	0.604800
C581	C58	0.761700	0.176900	0.531400
C591	C59	0.728600	0.239500	0.465200
C601	C60	0.727000	0.093200	0.677400
C611	C61	0.727100	0.934200	0.628200
C621	C62	0.778000	0.932600	0.758700
C631	C63	0.455500	0.333100	0.732300
C641	C64	0.438700	0.223500	0.742500
C651	C65	0.360000	0.185700	0.808700
C661	C66	0.334000	0.088300	0.818200
C671	C67	0.383400	0.028700	0.760800
C681	C68	0.464400	0.065400	0.696000
C691	C69	0.493300	0.162000	0.685800
C701	C70	0.345000	0.928100	0.764800
C711	C71	0.891200	0.697200	0.266800
C721	C72	0.911400	0.644800	0.131900
N11	N1	0.035300	0.332700	0.806600
N21	N2	0.258600	0.006900	0.313400
N31	N3	0.964700	0.667300	0.193400
N41	N4	0.741400	0.993100	0.686600
O11	O1	0.893200	0.294000	0.768000
O21	O2	0.675300	0.451900	0.796500
O31	O3	0.632000	0.598000	0.719000
O41	O4	0.615100	0.119200	0.295000
O51	O5	0.727900	0.104400	0.177200
O61	O6	0.502400	0.586100	0.588900
O71	O7	0.357600	0.647500	0.670200
O81	O8	0.595500	0.520000	0.111700
O91	O9	0.612500	0.360100	0.169800
O101	O10	0.114600	0.781100	0.713700
O111	O11	0.133800	0.665700	0.822500
O121	O12	0.447800	0.642500	0.286400
O131	O13	0.624900	0.603100	0.257000
O141	O14	0.253700	0.863400	0.271000
O151	O15	0.106800	0.706000	0.232000
O161	O16	0.324700	0.548100	0.203500
O171	O17	0.368000	0.402000	0.281000
O181	O18	0.384900	0.880800	0.705000
O191	O19	0.272100	0.895600	0.822800
O201	O20	0.497600	0.413900	0.411100
O211	O21	0.642400	0.352500	0.329800
O221	O22	0.404500	0.480000	0.888300
O231	O23	0.387500	0.639900	0.830200
O241	O24	0.885400	0.218900	0.286300
O251	O25	0.866200	0.334300	0.177500
O261	O26	0.552200	0.357500	0.713600
O271	O27	0.375100	0.396900	0.743000
O281	O28	0.746300	0.136600	0.729000
