data_PAPRUU_clean_PM
_symmetry_space_group_name_H-M	'P1'
_cell_length_a	7.488100
_cell_length_b	13.253900
_cell_length_c	13.253900
_cell_angle_alpha	120.000000
_cell_angle_beta	90.000000
_cell_angle_gamma	90.000000
_symmetry_Int_Tables_number 1

loop_
_symmetry_equiv_pos_as_xyz
'x,y,z'

loop_
_atom_site_label
_atom_site_type_symbol
_atom_site_fract_x
_atom_site_fract_y
_atom_site_fract_z
La11	La1	0.330510	0.666670	0.333340
La21	La2	0.669490	0.333330	0.666660
Ni11	Ni1	0.000000	0.500000	0.500000
Ni21	Ni2	0.000000	0.000000	0.500000
Ni31	Ni3	0.000000	0.500000	0.000000
H11	H1	0.714700	0.731200	0.557500
H21	H2	0.605200	0.666500	0.608600
H31	H3	0.838900	0.645500	0.682000
H41	H4	0.066300	0.755700	0.717800
H51	H5	0.935100	0.816300	0.672200
H61	H6	0.714700	0.826300	0.268800
H71	H7	0.605200	0.942100	0.333500
H81	H8	0.838900	0.036500	0.354500
H91	H9	0.066300	0.962100	0.244300
H101	H10	0.935100	0.855900	0.183700
H111	H11	0.714700	0.442500	0.173700
H121	H12	0.605200	0.391400	0.057900
H131	H13	0.838900	0.318000	0.963500
H141	H14	0.066300	0.282200	0.037900
H151	H15	0.935100	0.327800	0.144100
H161	H16	0.285300	0.268800	0.442500
H171	H17	0.394800	0.333500	0.391400
H181	H18	0.161100	0.354500	0.318000
H191	H19	0.933700	0.244300	0.282200
H201	H20	0.064900	0.183700	0.327800
H211	H21	0.285300	0.173700	0.731200
H221	H22	0.394800	0.057900	0.666500
H231	H23	0.161100	0.963500	0.645500
H241	H24	0.933700	0.037900	0.755700
H251	H25	0.064900	0.144100	0.816300
H261	H26	0.285300	0.557500	0.826300
H271	H27	0.394800	0.608600	0.942100
H281	H28	0.161100	0.682000	0.036500
H291	H29	0.933700	0.717800	0.962100
H301	H30	0.064900	0.672200	0.855900
C11	C1	0.676600	0.560400	0.440200
C21	C2	0.707600	0.659900	0.560900
C31	C3	0.998500	0.744500	0.650600
C41	C4	0.125800	0.717800	0.551100
C51	C5	0.676600	0.879800	0.439600
C61	C6	0.707600	0.901000	0.340100
C71	C7	0.998500	0.906100	0.255500
C81	C8	0.125800	0.833300	0.282200
C91	C9	0.676600	0.559800	0.120200
C101	C10	0.707600	0.439100	0.099000
C111	C11	0.998500	0.349400	0.093900
C121	C12	0.125800	0.448900	0.166700
C131	C13	0.323400	0.439600	0.559800
C141	C14	0.292400	0.340100	0.439100
C151	C15	0.001500	0.255500	0.349400
C161	C16	0.874200	0.282200	0.448900
C171	C17	0.323400	0.120200	0.560400
C181	C18	0.292400	0.099000	0.659900
C191	C19	0.001500	0.093900	0.744500
C201	C20	0.874200	0.166700	0.717800
C211	C21	0.323400	0.440200	0.879800
C221	C22	0.292400	0.560900	0.901000
C231	C23	0.001500	0.650600	0.906100
C241	C24	0.874200	0.551100	0.833300
N11	N1	0.869500	0.650140	0.618040
N21	N2	0.869500	0.967900	0.349860
N31	N3	0.869500	0.381960	0.032100
N41	N4	0.130500	0.349860	0.381960
N51	N5	0.130500	0.032100	0.650140
N61	N6	0.130500	0.618040	0.967900
O11	O1	0.539500	0.565800	0.389700
O21	O2	0.785100	0.476440	0.396160
O31	O3	0.110500	0.620270	0.458050
O41	O4	0.239400	0.790120	0.561270
O51	O5	0.539500	0.823900	0.434200
O61	O6	0.785100	0.919720	0.523560
O71	O7	0.110500	0.837780	0.379730
O81	O8	0.239400	0.771150	0.209880
O91	O9	0.539500	0.610300	0.176100
O101	O10	0.785100	0.603840	0.080280
O111	O11	0.110500	0.541950	0.162220
O121	O12	0.239400	0.438730	0.228850
O131	O13	0.460500	0.434200	0.610300
O141	O14	0.214900	0.523560	0.603840
O151	O15	0.889500	0.379730	0.541950
O161	O16	0.760600	0.209880	0.438730
O171	O17	0.460500	0.176100	0.565800
O181	O18	0.214900	0.080280	0.476440
O191	O19	0.889500	0.162220	0.620270
O201	O20	0.760600	0.228850	0.790120
O211	O21	0.460500	0.389700	0.823900
O221	O22	0.214900	0.396160	0.919720
O231	O23	0.889500	0.458050	0.837780
O241	O24	0.760600	0.561270	0.771150
