data_PAPVEJ_clean_PM
_symmetry_space_group_name_H-M	'P1'
_cell_length_a	9.006800
_cell_length_b	14.803500
_cell_length_c	22.983700
_cell_angle_alpha	90.000000
_cell_angle_beta	90.000000
_cell_angle_gamma	92.787000
_symmetry_Int_Tables_number 1

loop_
_symmetry_equiv_pos_as_xyz
'x,y,z'

loop_
_atom_site_label
_atom_site_type_symbol
_atom_site_fract_x
_atom_site_fract_y
_atom_site_fract_z
Er11	Er1	0.210160	0.003960	0.981610
Er21	Er2	0.289840	0.496040	0.481610
Er31	Er3	0.789840	0.996040	0.018390
Er41	Er4	0.710160	0.503960	0.518390
H11	H1	0.700400	0.218000	0.499600
H21	H2	0.320600	0.250200	0.979500
H31	H3	0.428900	0.477600	0.065200
H41	H4	0.287000	0.400700	0.995800
H51	H5	0.831400	0.359400	0.145300
H61	H6	0.708100	0.336900	0.192400
H71	H7	0.316000	0.243300	0.163400
H81	H8	0.336500	0.158400	0.202800
H91	H9	0.371700	0.255700	0.227600
H101	H10	0.605100	0.404000	0.116900
H111	H11	0.297000	0.124200	0.293700
H121	H12	0.173400	0.104500	0.341100
H131	H13	0.394300	0.056100	0.372700
H141	H14	0.721500	0.064500	0.490200
H151	H15	0.567200	0.984100	0.427300
H161	H16	0.005300	0.151000	0.379900
H171	H17	0.841500	0.129700	0.359200
H181	H18	0.889600	0.226700	0.381600
H191	H19	0.999600	0.310600	0.105500
H201	H20	0.117400	0.236100	0.103800
H211	H21	0.163000	0.333700	0.126100
H221	H22	0.691900	0.224700	0.323300
H231	H23	0.632100	0.213800	0.259500
H241	H24	0.676200	0.310200	0.284000
H251	H25	0.799600	0.282000	0.999600
H261	H26	0.179400	0.249800	0.479500
H271	H27	0.071100	0.022400	0.565200
H281	H28	0.213000	0.099300	0.495800
H291	H29	0.668600	0.140600	0.645300
H301	H30	0.791900	0.163100	0.692400
H311	H31	0.184000	0.256700	0.663400
H321	H32	0.163500	0.341600	0.702800
H331	H33	0.128300	0.244300	0.727600
H341	H34	0.894900	0.096000	0.616900
H351	H35	0.203000	0.375800	0.793700
H361	H36	0.326600	0.395500	0.841100
H371	H37	0.105700	0.443900	0.872700
H381	H38	0.778500	0.435500	0.990200
H391	H39	0.932800	0.515900	0.927300
H401	H40	0.494700	0.349000	0.879900
H411	H41	0.658500	0.370300	0.859200
H421	H42	0.610400	0.273300	0.881600
H431	H43	0.500400	0.189400	0.605500
H441	H44	0.382600	0.263900	0.603800
H451	H45	0.337000	0.166300	0.626100
H461	H46	0.808100	0.275300	0.823300
H471	H47	0.867900	0.286200	0.759500
H481	H48	0.823800	0.189800	0.784000
H491	H49	0.299600	0.782000	0.500400
H501	H50	0.679400	0.749800	0.020500
H511	H51	0.571100	0.522400	0.934800
H521	H52	0.713000	0.599300	0.004200
H531	H53	0.168600	0.640600	0.854700
H541	H54	0.291900	0.663100	0.807600
H551	H55	0.684000	0.756700	0.836600
H561	H56	0.663500	0.841600	0.797200
H571	H57	0.628300	0.744300	0.772400
H581	H58	0.394900	0.596000	0.883100
H591	H59	0.703000	0.875800	0.706300
H601	H60	0.826600	0.895500	0.658900
H611	H61	0.605700	0.943900	0.627300
H621	H62	0.278500	0.935500	0.509800
H631	H63	0.432800	0.015900	0.572700
H641	H64	0.994700	0.849000	0.620100
H651	H65	0.158500	0.870300	0.640800
H661	H66	0.110400	0.773300	0.618400
H671	H67	0.000400	0.689400	0.894500
H681	H68	0.882600	0.763900	0.896200
H691	H69	0.837000	0.666300	0.873900
H701	H70	0.308100	0.775300	0.676700
H711	H71	0.367900	0.786200	0.740500
H721	H72	0.323800	0.689800	0.716000
H731	H73	0.200400	0.718000	0.000400
H741	H74	0.820600	0.750200	0.520500
H751	H75	0.928900	0.977600	0.434800
H761	H76	0.787000	0.900700	0.504200
H771	H77	0.331400	0.859400	0.354700
H781	H78	0.208100	0.836900	0.307600
H791	H79	0.816000	0.743300	0.336600
H801	H80	0.836500	0.658400	0.297200
H811	H81	0.871700	0.755700	0.272400
H821	H82	0.105100	0.904000	0.383100
H831	H83	0.797000	0.624200	0.206300
H841	H84	0.673400	0.604500	0.158900
H851	H85	0.894300	0.556100	0.127300
H861	H86	0.221500	0.564500	0.009800
H871	H87	0.067200	0.484100	0.072700
H881	H88	0.505300	0.651000	0.120100
H891	H89	0.341500	0.629700	0.140800
H901	H90	0.389600	0.726700	0.118400
H911	H91	0.499600	0.810600	0.394500
H921	H92	0.617400	0.736100	0.396200
H931	H93	0.663000	0.833700	0.373900
H941	H94	0.191900	0.724700	0.176700
H951	H95	0.132100	0.713800	0.240500
H961	H96	0.176200	0.810200	0.216000
C11	C1	0.504800	0.137400	0.020760
C21	C2	0.636900	0.185500	0.474530
C31	C3	0.436500	0.182600	0.404210
C41	C4	0.378900	0.281000	0.007140
C51	C5	0.485500	0.234400	0.037590
C61	C6	0.530100	0.230700	0.443700
C71	C7	0.442600	0.416700	0.058230
C81	C8	0.357900	0.371000	0.016920
C91	C9	0.519500	0.330300	0.456060
C101	C10	0.569800	0.281100	0.080350
C111	C11	0.784400	0.311400	0.168490
C121	C12	0.307700	0.220000	0.202300
C131	C13	0.108700	0.194500	0.278690
C141	C14	0.149100	0.224000	0.222720
C151	C15	0.898400	0.267900	0.206420
C161	C16	0.547800	0.372300	0.089350
C171	C17	0.221600	0.151400	0.317230
C181	C18	0.857300	0.239000	0.262570
C191	C19	0.454100	0.089500	0.398680
C201	C20	0.650700	0.093800	0.468770
C211	C21	0.559000	0.046200	0.431170
C221	C22	0.964900	0.203000	0.298930
C231	C23	0.921300	0.175000	0.360600
C241	C24	0.042200	0.259300	0.186160
C251	C25	0.084400	0.287500	0.124770
C261	C26	0.700000	0.247700	0.284400
C271	C27	0.109500	0.046600	0.097480
C281	C28	0.995200	0.362600	0.520760
C291	C29	0.863100	0.314500	0.974530
C301	C30	0.063500	0.317400	0.904210
C311	C31	0.121100	0.219000	0.507140
C321	C32	0.014500	0.265600	0.537590
C331	C33	0.969900	0.269300	0.943700
C341	C34	0.057400	0.083300	0.558230
C351	C35	0.142100	0.129000	0.516920
C361	C36	0.980500	0.169700	0.956060
C371	C37	0.930200	0.218900	0.580350
C381	C38	0.715600	0.188600	0.668490
C391	C39	0.192300	0.280000	0.702300
C401	C40	0.391300	0.305500	0.778690
C411	C41	0.350900	0.276000	0.722720
C421	C42	0.601600	0.232100	0.706420
C431	C43	0.952200	0.127700	0.589350
C441	C44	0.278400	0.348600	0.817230
C451	C45	0.642700	0.261000	0.762570
C461	C46	0.045900	0.410500	0.898680
C471	C47	0.849300	0.406200	0.968770
C481	C48	0.941000	0.453800	0.931170
C491	C49	0.535100	0.297000	0.798930
C501	C50	0.578700	0.325000	0.860600
C511	C51	0.457800	0.240700	0.686160
C521	C52	0.415600	0.212500	0.624770
C531	C53	0.800000	0.252300	0.784400
C541	C54	0.390500	0.453400	0.597480
C551	C55	0.495200	0.862600	0.979240
C561	C56	0.363100	0.814500	0.525470
C571	C57	0.563500	0.817400	0.595790
C581	C58	0.621100	0.719000	0.992860
C591	C59	0.514500	0.765600	0.962410
C601	C60	0.469900	0.769300	0.556300
C611	C61	0.557400	0.583300	0.941770
C621	C62	0.642100	0.629000	0.983080
C631	C63	0.480500	0.669700	0.543940
C641	C64	0.430200	0.718900	0.919650
C651	C65	0.215600	0.688600	0.831510
C661	C66	0.692300	0.780000	0.797700
C671	C67	0.891300	0.805500	0.721310
C681	C68	0.850900	0.776000	0.777280
C691	C69	0.101600	0.732100	0.793580
C701	C70	0.452200	0.627700	0.910650
C711	C71	0.778400	0.848600	0.682770
C721	C72	0.142700	0.761000	0.737430
C731	C73	0.545900	0.910500	0.601320
C741	C74	0.349300	0.906200	0.531230
C751	C75	0.441000	0.953800	0.568830
C761	C76	0.035100	0.797000	0.701070
C771	C77	0.078700	0.825000	0.639400
C781	C78	0.957800	0.740700	0.813840
C791	C79	0.915600	0.712500	0.875230
C801	C80	0.300000	0.752300	0.715600
C811	C81	0.890500	0.953400	0.902520
C821	C82	0.004800	0.637400	0.479240
C831	C83	0.136900	0.685500	0.025470
C841	C84	0.936500	0.682600	0.095790
C851	C85	0.878900	0.781000	0.492860
C861	C86	0.985500	0.734400	0.462410
C871	C87	0.030100	0.730700	0.056300
C881	C88	0.942600	0.916700	0.441770
C891	C89	0.857900	0.871000	0.483080
C901	C90	0.019500	0.830300	0.043940
C911	C91	0.069800	0.781100	0.419650
C921	C92	0.284400	0.811400	0.331510
C931	C93	0.807700	0.720000	0.297700
C941	C94	0.608700	0.694500	0.221310
C951	C95	0.649100	0.724000	0.277280
C961	C96	0.398400	0.767900	0.293580
C971	C97	0.047800	0.872300	0.410650
C981	C98	0.721600	0.651400	0.182770
C991	C99	0.357300	0.739000	0.237430
C1001	C100	0.954100	0.589500	0.101320
C1011	C101	0.150700	0.593800	0.031230
C1021	C102	0.059000	0.546200	0.068830
C1031	C103	0.464900	0.703000	0.201070
C1041	C104	0.421300	0.675000	0.139400
C1051	C105	0.542200	0.759300	0.313840
C1061	C106	0.584400	0.787500	0.375230
C1071	C107	0.200000	0.747700	0.215600
C1081	C108	0.609500	0.546600	0.402520
S11	S1	0.305820	0.240170	0.362920
S21	S2	0.703350	0.222920	0.121660
S31	S3	0.194180	0.259830	0.862920
S41	S4	0.796650	0.277080	0.621660
S51	S5	0.694180	0.759830	0.637080
S61	S6	0.296650	0.777080	0.878340
S71	S7	0.805820	0.740170	0.137080
S81	S8	0.203350	0.722920	0.378340
O11	O1	0.245300	0.039200	0.088000
O21	O2	0.411200	0.100150	0.986890
O31	O3	0.393400	0.362060	0.453070
O41	O4	0.638000	0.372320	0.469950
O51	O5	0.616000	0.099870	0.040180
O61	O6	0.019200	0.044710	0.055930
O71	O7	0.254700	0.460800	0.588000
O81	O8	0.088800	0.399850	0.486890
O91	O9	0.106600	0.137940	0.953070
O101	O10	0.862000	0.127680	0.969950
O111	O11	0.884000	0.400130	0.540180
O121	O12	0.480800	0.455290	0.555930
O131	O13	0.754700	0.960800	0.912000
O141	O14	0.588800	0.899850	0.013110
O151	O15	0.606600	0.637940	0.546930
O161	O16	0.362000	0.627680	0.530050
O171	O17	0.384000	0.900130	0.959820
O181	O18	0.980800	0.955290	0.944070
O191	O19	0.745300	0.539200	0.412000
O201	O20	0.911200	0.600150	0.513110
O211	O21	0.893400	0.862060	0.046930
O221	O22	0.138000	0.872320	0.030050
O231	O23	0.116000	0.599870	0.459820
O241	O24	0.519200	0.544710	0.444070
