data_PAPVIN_clean_PM
_symmetry_space_group_name_H-M	'P1'
_cell_length_a	9.024600
_cell_length_b	14.811100
_cell_length_c	23.061000
_cell_angle_alpha	90.000000
_cell_angle_beta	90.000000
_cell_angle_gamma	92.773200
_symmetry_Int_Tables_number 1

loop_
_symmetry_equiv_pos_as_xyz
'x,y,z'

loop_
_atom_site_label
_atom_site_type_symbol
_atom_site_fract_x
_atom_site_fract_y
_atom_site_fract_z
Tm11	Tm1	0.790090	0.996160	0.018430
Tm21	Tm2	0.709910	0.503840	0.518430
Tm31	Tm3	0.209910	0.003840	0.981570
Tm41	Tm4	0.290090	0.496160	0.481570
H11	H1	0.633100	0.806000	0.768700
H21	H2	0.689600	0.815300	0.832900
H31	H3	0.654100	0.719300	0.806200
H41	H4	0.999100	0.688500	0.893700
H51	H5	0.836400	0.665800	0.872700
H61	H6	0.881600	0.763000	0.895500
H71	H7	0.678800	0.751000	0.020600
H81	H8	0.292800	0.663500	0.807900
H91	H9	0.169300	0.641000	0.854700
H101	H10	0.181700	0.815500	0.633000
H111	H11	0.064500	0.890200	0.635300
H121	H12	0.018500	0.793200	0.612300
H131	H13	0.308000	0.776800	0.676800
H141	H14	0.325200	0.691400	0.715900
H151	H15	0.367700	0.787900	0.740400
H161	H16	0.704000	0.871000	0.707000
H171	H17	0.280000	0.936000	0.508000
H181	H18	0.408000	0.593000	0.885000
H191	H19	0.825000	0.893000	0.659000
H201	H20	0.715000	0.605000	0.006000
H211	H21	0.305000	0.786000	0.498000
H221	H22	0.574000	0.520000	0.935000
H231	H23	0.436000	0.010000	0.572000
H241	H24	0.591000	0.937000	0.626000
H251	H25	0.866900	0.694000	0.268700
H261	H26	0.810400	0.684700	0.332900
H271	H27	0.845900	0.780700	0.306200
H281	H28	0.500900	0.811500	0.393700
H291	H29	0.663600	0.834200	0.372700
H301	H30	0.618400	0.737000	0.395500
H311	H31	0.821200	0.749000	0.520600
H321	H32	0.207200	0.836500	0.307900
H331	H33	0.330700	0.859000	0.354700
H341	H34	0.318300	0.684500	0.133000
H351	H35	0.435500	0.609800	0.135300
H361	H36	0.481500	0.706800	0.112300
H371	H37	0.192000	0.723200	0.176800
H381	H38	0.174800	0.808600	0.215900
H391	H39	0.132300	0.712100	0.240400
H401	H40	0.796000	0.629000	0.207000
H411	H41	0.220000	0.564000	0.008000
H421	H42	0.092000	0.907000	0.385000
H431	H43	0.675000	0.607000	0.159000
H441	H44	0.785000	0.895000	0.506000
H451	H45	0.195000	0.714000	0.998000
H461	H46	0.926000	0.980000	0.435000
H471	H47	0.064000	0.490000	0.072000
H481	H48	0.909000	0.563000	0.126000
H491	H49	0.366900	0.194000	0.231300
H501	H50	0.310400	0.184700	0.167100
H511	H51	0.345900	0.280700	0.193800
H521	H52	0.000900	0.311500	0.106300
H531	H53	0.163600	0.334200	0.127300
H541	H54	0.118400	0.237000	0.104500
H551	H55	0.321200	0.249000	0.979400
H561	H56	0.707200	0.336500	0.192100
H571	H57	0.830700	0.359000	0.145300
H581	H58	0.818300	0.184500	0.367000
H591	H59	0.935500	0.109800	0.364700
H601	H60	0.981500	0.206800	0.387700
H611	H61	0.692000	0.223200	0.323200
H621	H62	0.674800	0.308600	0.284100
H631	H63	0.632300	0.212100	0.259600
H641	H64	0.296000	0.129000	0.293000
H651	H65	0.720000	0.064000	0.492000
H661	H66	0.592000	0.407000	0.115000
H671	H67	0.175000	0.107000	0.341000
H681	H68	0.285000	0.395000	0.994000
H691	H69	0.695000	0.214000	0.502000
H701	H70	0.426000	0.480000	0.065000
H711	H71	0.564000	0.990000	0.428000
H721	H72	0.409000	0.063000	0.374000
H731	H73	0.133100	0.306000	0.731300
H741	H74	0.189600	0.315300	0.667100
H751	H75	0.154100	0.219300	0.693800
H761	H76	0.499100	0.188500	0.606300
H771	H77	0.336400	0.165800	0.627300
H781	H78	0.381600	0.263000	0.604500
H791	H79	0.178800	0.251000	0.479400
H801	H80	0.792800	0.163500	0.692100
H811	H81	0.669300	0.141000	0.645300
H821	H82	0.681700	0.315500	0.867000
H831	H83	0.564500	0.390200	0.864700
H841	H84	0.518500	0.293200	0.887700
H851	H85	0.808000	0.276800	0.823200
H861	H86	0.825200	0.191400	0.784100
H871	H87	0.867700	0.287900	0.759600
H881	H88	0.204000	0.371000	0.793000
H891	H89	0.780000	0.436000	0.992000
H901	H90	0.908000	0.093000	0.615000
H911	H91	0.325000	0.393000	0.841000
H921	H92	0.215000	0.105000	0.494000
H931	H93	0.805000	0.286000	0.002000
H941	H94	0.074000	0.020000	0.565000
H951	H95	0.936000	0.510000	0.928000
H961	H96	0.091000	0.437000	0.874000
C11	C1	0.480400	0.669600	0.543500
C21	C2	0.470900	0.769100	0.556300
C31	C3	0.364500	0.814000	0.525400
C41	C4	0.348200	0.905100	0.530800
C51	C5	0.438400	0.952100	0.569100
C61	C6	0.544900	0.909600	0.600800
C71	C7	0.562600	0.817700	0.595720
C81	C8	0.778000	0.848200	0.683100
C91	C9	0.891500	0.806400	0.721600
C101	C10	0.036000	0.797100	0.701600
C111	C11	0.851100	0.776500	0.777200
C121	C12	0.692500	0.779600	0.798200
C131	C13	0.958000	0.740600	0.813900
C141	C14	0.914900	0.711900	0.874400
C151	C15	0.495200	0.862700	0.979500
C161	C16	0.515000	0.765700	0.962270
C171	C17	0.621000	0.719900	0.993000
C181	C18	0.642300	0.629100	0.983500
C191	C19	0.558100	0.583200	0.941900
C201	C20	0.453900	0.628300	0.910300
C211	C21	0.430200	0.719600	0.918850
C221	C22	0.216400	0.689000	0.831600
C231	C23	0.102600	0.732200	0.793400
C241	C24	0.141800	0.761500	0.737600
C251	C25	0.079200	0.826800	0.639700
C261	C26	0.300500	0.753700	0.715700
C271	C27	0.890500	0.953600	0.902200
C281	C28	0.019600	0.830400	0.043500
C291	C29	0.029100	0.730900	0.056300
C301	C30	0.135500	0.686000	0.025400
C311	C31	0.151800	0.594900	0.030800
C321	C32	0.061600	0.547900	0.069100
C331	C33	0.955100	0.590400	0.100800
C341	C34	0.937400	0.682300	0.095720
C351	C35	0.722000	0.651800	0.183100
C361	C36	0.608500	0.693600	0.221600
C371	C37	0.464000	0.702900	0.201600
C381	C38	0.648900	0.723500	0.277200
C391	C39	0.807500	0.720400	0.298200
C401	C40	0.542000	0.759400	0.313900
C411	C41	0.585100	0.788100	0.374400
C421	C42	0.004800	0.637300	0.479500
C431	C43	0.985000	0.734300	0.462270
C441	C44	0.879000	0.780100	0.493000
C451	C45	0.857700	0.870900	0.483500
C461	C46	0.941900	0.916800	0.441900
C471	C47	0.046100	0.871700	0.410300
C481	C48	0.069800	0.780400	0.418850
C491	C49	0.283600	0.811000	0.331600
C501	C50	0.397400	0.767800	0.293400
C511	C51	0.358200	0.738500	0.237600
C521	C52	0.420800	0.673200	0.139700
C531	C53	0.199500	0.746300	0.215700
C541	C54	0.609500	0.546400	0.402200
C551	C55	0.519600	0.330400	0.456500
C561	C56	0.529100	0.230900	0.443700
C571	C57	0.635500	0.186000	0.474600
C581	C58	0.651800	0.094900	0.469200
C591	C59	0.561600	0.047900	0.430900
C601	C60	0.455100	0.090400	0.399200
C611	C61	0.437400	0.182300	0.404280
C621	C62	0.222000	0.151800	0.316900
C631	C63	0.108500	0.193600	0.278400
C641	C64	0.964000	0.202900	0.298400
C651	C65	0.148900	0.223500	0.222800
C661	C66	0.307500	0.220400	0.201800
C671	C67	0.042000	0.259400	0.186100
C681	C68	0.085100	0.288100	0.125600
C691	C69	0.504800	0.137300	0.020500
C701	C70	0.485000	0.234300	0.037730
C711	C71	0.379000	0.280100	0.007000
C721	C72	0.357700	0.370900	0.016500
C731	C73	0.441900	0.416800	0.058100
C741	C74	0.546100	0.371700	0.089700
C751	C75	0.569800	0.280400	0.081150
C761	C76	0.783600	0.311000	0.168400
C771	C77	0.897400	0.267800	0.206600
C781	C78	0.858200	0.238500	0.262400
C791	C79	0.920800	0.173200	0.360300
C801	C80	0.699500	0.246300	0.284300
C811	C81	0.109500	0.046400	0.097800
C821	C82	0.980400	0.169600	0.956500
C831	C83	0.970900	0.269100	0.943700
C841	C84	0.864500	0.314000	0.974600
C851	C85	0.848200	0.405100	0.969200
C861	C86	0.938400	0.452100	0.930900
C871	C87	0.044900	0.409600	0.899200
C881	C88	0.062600	0.317700	0.904280
C891	C89	0.278000	0.348200	0.816900
C901	C90	0.391500	0.306400	0.778400
C911	C91	0.536000	0.297100	0.798400
C921	C92	0.351100	0.276500	0.722800
C931	C93	0.192500	0.279600	0.701800
C941	C94	0.458000	0.240600	0.686100
C951	C95	0.414900	0.211900	0.625600
C961	C96	0.995200	0.362700	0.520500
C971	C97	0.015000	0.265700	0.537730
C981	C98	0.121000	0.219900	0.507000
C991	C99	0.142300	0.129100	0.516500
C1001	C100	0.058100	0.083200	0.558100
C1011	C101	0.953900	0.128300	0.589700
C1021	C102	0.930200	0.219600	0.581150
C1031	C103	0.716400	0.189000	0.668400
C1041	C104	0.602600	0.232200	0.706600
C1051	C105	0.641800	0.261500	0.762400
C1061	C106	0.579200	0.326800	0.860300
C1071	C107	0.800500	0.253700	0.784300
C1081	C108	0.390500	0.453600	0.597800
S11	S1	0.694100	0.759660	0.637070
S21	S2	0.297210	0.777260	0.878360
S31	S3	0.805900	0.740340	0.137070
S41	S4	0.202790	0.722740	0.378360
S51	S5	0.305900	0.240340	0.362930
S61	S6	0.702790	0.222740	0.121640
S71	S7	0.194100	0.259660	0.862930
S81	S8	0.797210	0.277260	0.621640
O11	O1	0.362000	0.626900	0.529610
O21	O2	0.607300	0.637700	0.546750
O31	O3	0.383100	0.900500	0.960540
O41	O4	0.589400	0.901000	0.012900
O51	O5	0.754800	0.960800	0.912000
O61	O6	0.980900	0.955500	0.944480
O71	O7	0.138000	0.873100	0.029610
O81	O8	0.892700	0.862300	0.046750
O91	O9	0.116900	0.599500	0.460540
O101	O10	0.910600	0.599000	0.512900
O111	O11	0.745200	0.539200	0.412000
O121	O12	0.519100	0.544500	0.444480
O131	O13	0.638000	0.373100	0.470390
O141	O14	0.392700	0.362300	0.453250
O151	O15	0.616900	0.099500	0.039460
O161	O16	0.410600	0.099000	0.987100
O171	O17	0.245200	0.039200	0.088000
O181	O18	0.019100	0.044500	0.055520
O191	O19	0.862000	0.126900	0.970390
O201	O20	0.107300	0.137700	0.953250
O211	O21	0.883100	0.400500	0.539460
O221	O22	0.089400	0.401000	0.487100
O231	O23	0.254800	0.460800	0.588000
O241	O24	0.480900	0.455500	0.555520
