data_PAPXUB_clean_PM
_symmetry_space_group_name_H-M	'P1'
_cell_length_a	10.888000
_cell_length_b	12.822000
_cell_length_c	13.478300
_cell_angle_alpha	118.402000
_cell_angle_beta	109.353000
_cell_angle_gamma	90.000000
_symmetry_Int_Tables_number 1

loop_
_symmetry_equiv_pos_as_xyz
'x,y,z'

loop_
_atom_site_label
_atom_site_type_symbol
_atom_site_fract_x
_atom_site_fract_y
_atom_site_fract_z
Cd11	Cd1	0.750000	0.920860	0.000000
Cd21	Cd2	0.250000	0.079140	0.000000
H11	H1	0.892900	0.784400	0.140000
H21	H2	0.879600	0.710200	0.262800
H31	H3	0.699400	0.733000	0.325800
H41	H4	0.558600	0.900900	0.135600
H51	H5	0.409200	0.807400	0.201200
H61	H6	0.495900	0.930200	0.323000
H71	H7	0.535300	0.754400	0.517400
H81	H8	0.419300	0.799700	0.645200
H91	H9	0.235200	0.891200	0.618800
H101	H10	0.287300	0.894200	0.334600
H111	H11	0.100800	0.976600	0.392000
H121	H12	0.607100	0.644400	0.860000
H131	H13	0.620400	0.447400	0.737200
H141	H14	0.800600	0.407200	0.674200
H151	H15	0.941400	0.765300	0.864400
H161	H16	0.090800	0.606200	0.798800
H171	H17	0.004100	0.607200	0.677000
H181	H18	0.964700	0.237000	0.482600
H191	H19	0.080700	0.154500	0.354800
H201	H20	0.264800	0.272400	0.381200
H211	H21	0.212700	0.559600	0.665400
H221	H22	0.399200	0.584600	0.608000
H231	H23	0.107100	0.215600	0.860000
H241	H24	0.120400	0.289800	0.737200
H251	H25	0.300600	0.267000	0.674200
H261	H26	0.441400	0.099100	0.864400
H271	H27	0.590800	0.192600	0.798800
H281	H28	0.504100	0.069800	0.677000
H291	H29	0.464700	0.245600	0.482600
H301	H30	0.580700	0.200300	0.354800
H311	H31	0.764800	0.108800	0.381200
H321	H32	0.712700	0.105800	0.665400
H331	H33	0.899200	0.023400	0.608000
H341	H34	0.392900	0.355600	0.140000
H351	H35	0.379600	0.552600	0.262800
H361	H36	0.199400	0.592800	0.325800
H371	H37	0.058600	0.234700	0.135600
H381	H38	0.909200	0.393800	0.201200
H391	H39	0.995900	0.392800	0.323000
H401	H40	0.035300	0.763000	0.517400
H411	H41	0.919300	0.845500	0.645200
H421	H42	0.735200	0.727600	0.618800
H431	H43	0.787300	0.440400	0.334600
H441	H44	0.600800	0.415400	0.392000
C11	C1	0.819300	0.793560	0.164520
C21	C2	0.812300	0.749500	0.237800
C31	C3	0.706000	0.762900	0.275000
C41	C4	0.609600	0.820760	0.236920
C51	C5	0.624700	0.861600	0.162400
C61	C6	0.492400	0.842430	0.274260
C71	C7	0.421700	0.820480	0.415360
C81	C8	0.460800	0.792200	0.506800
C91	C9	0.391800	0.818740	0.582080
C101	C10	0.282500	0.873000	0.566400
C111	C11	0.242000	0.901020	0.473640
C121	C12	0.313200	0.874780	0.397560
C131	C13	0.124800	0.955140	0.453480
C141	C14	0.908800	0.016940	0.875480
C151	C15	0.680700	0.629040	0.835480
C161	C16	0.687700	0.511700	0.762200
C171	C17	0.794000	0.487900	0.725000
C181	C18	0.890400	0.583840	0.763080
C191	C19	0.875300	0.699200	0.837600
C201	C20	0.007600	0.568170	0.725740
C211	C21	0.078300	0.405120	0.584640
C221	C22	0.039200	0.285400	0.493200
C231	C23	0.108200	0.236660	0.417920
C241	C24	0.217500	0.306600	0.433600
C251	C25	0.258000	0.427380	0.526360
C261	C26	0.186800	0.477220	0.602440
C271	C27	0.375200	0.501660	0.546520
C281	C28	0.591200	0.141460	0.124520
C291	C29	0.180700	0.206440	0.835480
C301	C30	0.187700	0.250500	0.762200
C311	C31	0.294000	0.237100	0.725000
C321	C32	0.390400	0.179240	0.763080
C331	C33	0.375300	0.138400	0.837600
C341	C34	0.507600	0.157570	0.725740
C351	C35	0.578300	0.179520	0.584640
C361	C36	0.539200	0.207800	0.493200
C371	C37	0.608200	0.181260	0.417920
C381	C38	0.717500	0.127000	0.433600
C391	C39	0.758000	0.098980	0.526360
C401	C40	0.686800	0.125220	0.602440
C411	C41	0.875200	0.044860	0.546520
C421	C42	0.091200	0.983060	0.124520
C431	C43	0.319300	0.370960	0.164520
C441	C44	0.312300	0.488300	0.237800
C451	C45	0.206000	0.512100	0.275000
C461	C46	0.109600	0.416160	0.236920
C471	C47	0.124700	0.300800	0.162400
C481	C48	0.992400	0.431830	0.274260
C491	C49	0.921700	0.594880	0.415360
C501	C50	0.960800	0.714600	0.506800
C511	C51	0.891800	0.763340	0.582080
C521	C52	0.782500	0.693400	0.566400
C531	C53	0.742000	0.572620	0.473640
C541	C54	0.813200	0.522780	0.397560
C551	C55	0.624800	0.498340	0.453480
C561	C56	0.408800	0.858540	0.875480
S11	S1	0.747870	0.982710	0.833040
S21	S2	0.752130	0.149670	0.166960
S31	S3	0.252130	0.017290	0.166960
S41	S4	0.247870	0.850330	0.833040
N11	N1	0.726600	0.849020	0.126040
N21	N2	0.054100	0.974030	0.517060
N31	N3	0.021900	0.039120	0.902040
N41	N4	0.773400	0.722980	0.873960
N51	N5	0.445900	0.456970	0.482940
N61	N6	0.478100	0.137080	0.097960
N71	N7	0.273400	0.150980	0.873960
N81	N8	0.945900	0.025970	0.482940
N91	N9	0.978100	0.960880	0.097960
N101	N10	0.226600	0.277020	0.126040
N111	N11	0.554100	0.543030	0.517060
N121	N12	0.521900	0.862920	0.902040
O11	O1	0.496200	0.787200	0.344200
O21	O2	0.003800	0.443000	0.655800
O31	O3	0.503800	0.212800	0.655800
O41	O4	0.996200	0.557000	0.344200
