data_PARFOF_clean_h_PM
_symmetry_space_group_name_H-M	'P1'
_cell_length_a	6.779700
_cell_length_b	7.507700
_cell_length_c	12.832500
_cell_angle_alpha	107.009000
_cell_angle_beta	103.454000
_cell_angle_gamma	90.000000
_symmetry_Int_Tables_number 1

loop_
_symmetry_equiv_pos_as_xyz
'x,y,z'

loop_
_atom_site_label
_atom_site_type_symbol
_atom_site_fract_x
_atom_site_fract_y
_atom_site_fract_z
V11	V1	0.000000	0.000000	0.000000
V21	V2	0.500000	0.000000	0.000000
C11	C1	0.082800	0.087900	0.707800
C21	C2	0.201200	0.000100	0.626200
C31	C3	0.217400	0.895200	0.438400
C41	C4	0.152800	0.093400	0.822800
C51	C5	0.094400	0.967000	0.514000
C61	C6	0.872200	0.132100	0.678200
C71	C7	0.417200	0.380100	0.292200
C81	C8	0.298800	0.373900	0.373800
C91	C9	0.282600	0.456800	0.561600
C101	C10	0.347200	0.270600	0.177200
C111	C11	0.405600	0.453000	0.486000
C121	C12	0.627800	0.453900	0.321800
C131	C13	0.917200	0.912100	0.292200
C141	C14	0.798800	0.999900	0.373800
C151	C15	0.782600	0.104800	0.561600
C161	C16	0.847200	0.906600	0.177200
C171	C17	0.905600	0.033000	0.486000
C181	C18	0.127800	0.867900	0.321800
C191	C19	0.582800	0.619900	0.707800
C201	C20	0.701200	0.626100	0.626200
C211	C21	0.717400	0.543200	0.438400
C221	C22	0.652800	0.729400	0.822800
C231	C23	0.594400	0.547000	0.514000
C241	C24	0.372200	0.546100	0.678200
O11	O1	0.093800	0.151900	0.913800
O21	O2	0.335600	0.068300	0.856600
O31	O3	0.406200	0.238100	0.086200
O41	O4	0.164400	0.211700	0.143400
O51	O5	0.906200	0.848100	0.086200
O61	O6	0.664400	0.931700	0.143400
O71	O7	0.593800	0.761900	0.913800
O81	O8	0.835600	0.788300	0.856600
O91	O9	0.250000	0.879000	0.000000
O101	O10	0.750000	0.121000	0.000000
H11	H1	0.364170	0.965640	0.656830
H21	H2	0.379880	0.861930	0.471340
H31	H3	0.786580	0.185720	0.746590
H41	H4	0.135830	0.308820	0.343170
H51	H5	0.120120	0.390600	0.528660
H61	H6	0.713420	0.439130	0.253410
H71	H7	0.635830	0.034360	0.343170
H81	H8	0.619230	0.140610	0.533570
H91	H9	0.213420	0.814280	0.253410
H101	H10	0.864170	0.691180	0.656830
H111	H11	0.880770	0.607040	0.466430
H121	H12	0.278920	0.556690	0.742830
