data_PASMUT_clean_PM
_symmetry_space_group_name_H-M	'P1'
_cell_length_a	11.811300
_cell_length_b	13.847900
_cell_length_c	16.334400
_cell_angle_alpha	90.000000
_cell_angle_beta	90.000000
_cell_angle_gamma	112.851000
_symmetry_Int_Tables_number 1

loop_
_symmetry_equiv_pos_as_xyz
'x,y,z'

loop_
_atom_site_label
_atom_site_type_symbol
_atom_site_fract_x
_atom_site_fract_y
_atom_site_fract_z
Zn11	Zn1	0.603310	0.599780	0.452620
Zn21	Zn2	0.744540	0.283450	0.454910
Zn31	Zn3	0.948120	0.872760	0.631310
Zn41	Zn4	0.896690	0.900220	0.952620
Zn51	Zn5	0.755460	0.216550	0.954910
Zn61	Zn6	0.551880	0.627240	0.131310
Zn71	Zn7	0.396690	0.400220	0.547380
Zn81	Zn8	0.255460	0.716550	0.545090
Zn91	Zn9	0.051880	0.127240	0.368690
Zn101	Zn10	0.103310	0.099780	0.047380
Zn111	Zn11	0.244540	0.783450	0.045090
Zn121	Zn12	0.448120	0.372760	0.868690
H11	H1	0.896600	0.461000	0.580700
H21	H2	0.833200	0.394600	0.704800
H31	H3	0.666400	0.371500	0.774500
H41	H4	0.823800	0.519500	0.797400
H51	H5	0.881800	0.677300	0.743700
H61	H6	0.950800	0.562400	0.691600
H71	H7	0.603400	0.039000	0.080700
H81	H8	0.666800	0.105400	0.204800
H91	H9	0.833600	0.128500	0.274500
H101	H10	0.676200	0.980500	0.297400
H111	H11	0.618200	0.822700	0.243700
H121	H12	0.549200	0.937600	0.191600
H131	H13	0.103400	0.539000	0.419300
H141	H14	0.166800	0.605400	0.295200
H151	H15	0.333600	0.628500	0.225500
H161	H16	0.176200	0.480500	0.202600
H171	H17	0.118200	0.322700	0.256300
H181	H18	0.049200	0.437600	0.308400
H191	H19	0.396600	0.961000	0.919300
H201	H20	0.333200	0.894600	0.795200
H211	H21	0.166400	0.871500	0.725500
H221	H22	0.323800	0.019500	0.702600
H231	H23	0.381800	0.177300	0.756300
H241	H24	0.450800	0.062400	0.808400
C11	C1	0.756200	0.492800	0.533840
C21	C2	0.833100	0.481100	0.604990
C31	C3	0.765900	0.395000	0.669840
C41	C4	0.682900	0.422500	0.729890
C51	C5	0.756300	0.530700	0.769680
C61	C6	0.823600	0.621200	0.710270
C71	C7	0.902400	0.584300	0.652540
C81	C8	0.705800	0.281300	0.641100
C91	C9	0.557800	0.404800	0.693890
C101	C10	0.692900	0.563400	0.839400
C111	C11	0.735700	0.665900	0.673510
C121	C12	0.002900	0.668600	0.603680
C131	C13	0.743800	0.007200	0.033840
C141	C14	0.666900	0.018900	0.104990
C151	C15	0.734100	0.105000	0.169840
C161	C16	0.817100	0.077500	0.229890
C171	C17	0.743700	0.969300	0.269680
C181	C18	0.676400	0.878800	0.210270
C191	C19	0.597600	0.915700	0.152540
C201	C20	0.794200	0.218700	0.141100
C211	C21	0.942200	0.095200	0.193890
C221	C22	0.807100	0.936600	0.339400
C231	C23	0.764300	0.834100	0.173510
C241	C24	0.497100	0.831400	0.103680
C251	C25	0.243800	0.507200	0.466160
C261	C26	0.166900	0.518900	0.395010
C271	C27	0.234100	0.605000	0.330160
C281	C28	0.317100	0.577500	0.270110
C291	C29	0.243700	0.469300	0.230320
C301	C30	0.176400	0.378800	0.289730
C311	C31	0.097600	0.415700	0.347460
C321	C32	0.294200	0.718700	0.358900
C331	C33	0.442200	0.595200	0.306110
C341	C34	0.307100	0.436600	0.160600
C351	C35	0.264300	0.334100	0.326490
C361	C36	0.997100	0.331400	0.396320
C371	C37	0.256200	0.992800	0.966160
C381	C38	0.333100	0.981100	0.895010
C391	C39	0.265900	0.895000	0.830160
C401	C40	0.182900	0.922500	0.770110
C411	C41	0.256300	0.030700	0.730320
C421	C42	0.323600	0.121200	0.789730
C431	C43	0.402400	0.084300	0.847460
C441	C44	0.205800	0.781300	0.858900
C451	C45	0.057800	0.904800	0.806110
C461	C46	0.192900	0.063400	0.660600
C471	C47	0.235700	0.165900	0.826490
C481	C48	0.502900	0.168600	0.896320
O11	O1	0.734200	0.573920	0.528370
O21	O2	0.722100	0.421380	0.478710
O31	O3	0.744100	0.254000	0.576030
O41	O4	0.630000	0.217720	0.687670
O51	O5	0.542100	0.394530	0.617820
O61	O6	0.470000	0.395030	0.743310
O71	O7	0.617900	0.494920	0.885410
O81	O8	0.728300	0.659290	0.853710
O91	O9	0.622900	0.613980	0.682680
O101	O10	0.777400	0.754870	0.639060
O111	O11	0.026100	0.763620	0.614840
O121	O12	0.068400	0.636230	0.559540
O131	O13	0.765800	0.926080	0.028370
O141	O14	0.777900	0.078620	0.978710
O151	O15	0.755900	0.246000	0.076030
O161	O16	0.870000	0.282280	0.187670
O171	O17	0.957900	0.105470	0.117820
O181	O18	0.030000	0.104970	0.243310
O191	O19	0.882100	0.005080	0.385410
O201	O20	0.771700	0.840710	0.353710
O211	O21	0.877100	0.886020	0.182680
O221	O22	0.722600	0.745130	0.139060
O231	O23	0.473900	0.736380	0.114840
O241	O24	0.431600	0.863770	0.059540
O251	O25	0.265800	0.426080	0.471630
O261	O26	0.277900	0.578620	0.521290
O271	O27	0.255900	0.746000	0.423970
O281	O28	0.370000	0.782280	0.312330
O291	O29	0.457900	0.605470	0.382180
O301	O30	0.530000	0.604970	0.256690
O311	O31	0.382100	0.505080	0.114590
O321	O32	0.271700	0.340710	0.146290
O331	O33	0.377100	0.386020	0.317320
O341	O34	0.222600	0.245130	0.360940
O351	O35	0.973900	0.236380	0.385160
O361	O36	0.931600	0.363770	0.440460
O371	O37	0.234200	0.073920	0.971630
O381	O38	0.222100	0.921380	0.021290
O391	O39	0.244100	0.754000	0.923970
O401	O40	0.130000	0.717720	0.812330
O411	O41	0.042100	0.894530	0.882180
O421	O42	0.970000	0.895030	0.756690
O431	O43	0.117900	0.994920	0.614590
O441	O44	0.228300	0.159290	0.646290
O451	O45	0.122900	0.113980	0.817320
O461	O46	0.277400	0.254870	0.860940
O471	O47	0.526100	0.263620	0.885160
O481	O48	0.568400	0.136230	0.940460
