data_PASNAA_clean_PM
_symmetry_space_group_name_H-M	'P1'
_cell_length_a	11.815100
_cell_length_b	13.836200
_cell_length_c	16.321600
_cell_angle_alpha	90.000000
_cell_angle_beta	90.000000
_cell_angle_gamma	112.766000
_symmetry_Int_Tables_number 1

loop_
_symmetry_equiv_pos_as_xyz
'x,y,z'

loop_
_atom_site_label
_atom_site_type_symbol
_atom_site_fract_x
_atom_site_fract_y
_atom_site_fract_z
Co11	Co1	0.101520	0.099140	0.954110
Co21	Co2	0.759670	0.217830	0.046520
Co31	Co3	0.051330	0.126690	0.631090
Co41	Co4	0.398480	0.400860	0.454110
Co51	Co5	0.740330	0.282170	0.546520
Co61	Co6	0.448670	0.373310	0.131090
Co71	Co7	0.898480	0.900860	0.045890
Co81	Co8	0.240330	0.782170	0.953480
Co91	Co9	0.948670	0.873310	0.368910
Co101	Co10	0.601520	0.599140	0.545890
Co111	Co11	0.259670	0.717830	0.453480
Co121	Co12	0.551330	0.626690	0.868910
H11	H1	0.666400	0.105400	0.795600
H21	H2	0.833800	0.128400	0.725700
H31	H3	0.677000	0.980300	0.702200
H41	H4	0.618500	0.822400	0.755900
H51	H5	0.549000	0.937500	0.809100
H61	H6	0.603600	0.038900	0.920200
H71	H7	0.979400	0.915400	0.896100
H81	H8	0.061900	0.901600	0.948400
H91	H9	0.833600	0.394600	0.295600
H101	H10	0.666200	0.371600	0.225700
H111	H11	0.823000	0.519700	0.202200
H121	H12	0.881500	0.677600	0.255900
H131	H13	0.951000	0.562500	0.309100
H141	H14	0.896400	0.461100	0.420200
H151	H15	0.520600	0.584600	0.396100
H161	H16	0.438100	0.598400	0.448400
H171	H17	0.333600	0.894600	0.204400
H181	H18	0.166200	0.871600	0.274300
H191	H19	0.323000	0.019700	0.297800
H201	H20	0.381500	0.177600	0.244100
H211	H21	0.451000	0.062500	0.190900
H221	H22	0.396400	0.961100	0.079800
H231	H23	0.020600	0.084600	0.103900
H241	H24	0.938100	0.098400	0.051600
H251	H25	0.166400	0.605400	0.704400
H261	H26	0.333800	0.628400	0.774300
H271	H27	0.177000	0.480300	0.797800
H281	H28	0.118500	0.322400	0.744100
H291	H29	0.049000	0.437500	0.690900
H301	H30	0.103600	0.538900	0.579800
H311	H31	0.479400	0.415400	0.603900
H321	H32	0.561900	0.401600	0.551600
C11	C1	0.942300	0.095100	0.806400
C21	C2	0.807800	0.936000	0.661400
C31	C3	0.764500	0.833300	0.827300
C41	C4	0.497700	0.831000	0.896500
C51	C5	0.744300	0.007100	0.966600
C61	C6	0.792700	0.217700	0.859900
C71	C7	0.733700	0.105000	0.830600
C81	C8	0.817400	0.077500	0.770400
C91	C9	0.744200	0.969000	0.730400
C101	C10	0.676500	0.878500	0.789500
C111	C11	0.597600	0.915500	0.848000
C121	C12	0.667100	0.018800	0.895700
C131	C13	0.557700	0.404900	0.306400
C141	C14	0.692200	0.564000	0.161400
C151	C15	0.735500	0.666700	0.327300
C161	C16	0.002300	0.669000	0.396500
C171	C17	0.755700	0.492900	0.466600
C181	C18	0.707300	0.282300	0.359900
C191	C19	0.766300	0.395000	0.330600
C201	C20	0.682600	0.422500	0.270400
C211	C21	0.755800	0.531000	0.230400
C221	C22	0.823500	0.621500	0.289500
C231	C23	0.902400	0.584500	0.348000
C241	C24	0.832900	0.481200	0.395700
C251	C25	0.057700	0.904900	0.193600
C261	C26	0.192200	0.064000	0.338600
C271	C27	0.235500	0.166700	0.172700
C281	C28	0.502300	0.169000	0.103500
C291	C29	0.255700	0.992900	0.033400
C301	C30	0.207300	0.782300	0.140100
C311	C31	0.266300	0.895000	0.169400
C321	C32	0.182600	0.922500	0.229600
C331	C33	0.255800	0.031000	0.269600
C341	C34	0.323500	0.121500	0.210500
C351	C35	0.402400	0.084500	0.152000
C361	C36	0.332900	0.981200	0.104300
C371	C37	0.442300	0.595100	0.693600
C381	C38	0.307800	0.436000	0.838600
C391	C39	0.264500	0.333300	0.672700
C401	C40	0.997700	0.331000	0.603500
C411	C41	0.244300	0.507100	0.533400
C421	C42	0.292700	0.717700	0.640100
C431	C43	0.233700	0.605000	0.669400
C441	C44	0.317400	0.577500	0.729600
C451	C45	0.244200	0.469000	0.769600
C461	C46	0.176500	0.378500	0.710500
C471	C47	0.097600	0.415500	0.652000
C481	C48	0.167100	0.518800	0.604300
O11	O1	0.883100	0.004300	0.615500
O21	O2	0.773400	0.841200	0.646900
O31	O3	0.876400	0.884600	0.817300
O41	O4	0.722400	0.744300	0.861200
O51	O5	0.473900	0.736300	0.885000
O61	O6	0.431000	0.863000	0.941000
O71	O7	0.766600	0.925700	0.971500
O81	O8	0.778500	0.078500	0.021400
O91	O9	0.756800	0.245000	0.925600
O101	O10	0.867600	0.282400	0.812500
O111	O11	0.958100	0.105400	0.882100
O121	O12	0.029600	0.105500	0.756900
O131	O13	0.017600	0.936600	0.940900
O141	O14	0.616900	0.495700	0.115500
O151	O15	0.726600	0.658800	0.146900
O161	O16	0.623600	0.615400	0.317300
O171	O17	0.777600	0.755700	0.361200
O181	O18	0.026100	0.763700	0.385000
O191	O19	0.069000	0.637000	0.441000
O201	O20	0.733400	0.574300	0.471500
O211	O21	0.721500	0.421500	0.521400
O221	O22	0.743200	0.255000	0.425600
O231	O23	0.632400	0.217600	0.312500
O241	O24	0.541900	0.394600	0.382100
O251	O25	0.470400	0.394500	0.256900
O261	O26	0.482400	0.563400	0.440900
O271	O27	0.116900	0.995700	0.384500
O281	O28	0.226600	0.158800	0.353100
O291	O29	0.123600	0.115400	0.182700
O301	O30	0.277600	0.255700	0.138800
O311	O31	0.526100	0.263700	0.115000
O321	O32	0.569000	0.137000	0.059000
O331	O33	0.233400	0.074300	0.028500
O341	O34	0.221500	0.921500	0.978600
O351	O35	0.243200	0.755000	0.074400
O361	O36	0.132400	0.717600	0.187500
O371	O37	0.041900	0.894600	0.117900
O381	O38	0.970400	0.894500	0.243100
O391	O39	0.982400	0.063400	0.059100
O401	O40	0.383100	0.504300	0.884500
O411	O41	0.273400	0.341200	0.853100
O421	O42	0.376400	0.384600	0.682700
O431	O43	0.222400	0.244300	0.638800
O441	O44	0.973900	0.236300	0.615000
O451	O45	0.931000	0.363000	0.559000
O461	O46	0.266600	0.425700	0.528500
O471	O47	0.278500	0.578500	0.478600
O481	O48	0.256800	0.745000	0.574400
O491	O49	0.367600	0.782400	0.687500
O501	O50	0.458100	0.605400	0.617900
O511	O51	0.529600	0.605500	0.743100
O521	O52	0.517600	0.436600	0.559100
