data_PASNAA01_clean_PM
_symmetry_space_group_name_H-M	'P1'
_cell_length_a	11.774900
_cell_length_b	13.786900
_cell_length_c	16.259000
_cell_angle_alpha	90.000000
_cell_angle_beta	90.000000
_cell_angle_gamma	112.611000
_symmetry_Int_Tables_number 1

loop_
_symmetry_equiv_pos_as_xyz
'x,y,z'

loop_
_atom_site_label
_atom_site_type_symbol
_atom_site_fract_x
_atom_site_fract_y
_atom_site_fract_z
Co11	Co1	0.262310	0.719930	0.548180
Co21	Co2	0.600770	0.598970	0.454110
Co31	Co3	0.551750	0.626920	0.130140
Co41	Co4	0.237690	0.780070	0.048180
Co51	Co5	0.899230	0.901030	0.954110
Co61	Co6	0.948250	0.873080	0.630140
Co71	Co7	0.737690	0.280070	0.451820
Co81	Co8	0.399230	0.401030	0.545890
Co91	Co9	0.448250	0.373080	0.869860
Co101	Co10	0.762310	0.219930	0.951820
Co111	Co11	0.100770	0.098970	0.045890
Co121	Co12	0.051750	0.126920	0.369860
H11	H1	0.524200	0.585000	0.603400
H21	H2	0.421700	0.581300	0.551700
H31	H3	0.101600	0.540500	0.420900
H41	H4	0.164200	0.606500	0.294700
H51	H5	0.332800	0.630100	0.224000
H61	H6	0.174200	0.480500	0.200800
H71	H7	0.115700	0.321200	0.255300
H81	H8	0.047300	0.439500	0.307600
H91	H9	0.975800	0.915000	0.103400
H101	H10	0.078300	0.918700	0.051700
H111	H11	0.398400	0.959500	0.920900
H121	H12	0.335800	0.893500	0.794700
H131	H13	0.167200	0.869900	0.724000
H141	H14	0.325800	0.019500	0.700800
H151	H15	0.384300	0.178800	0.755300
H161	H16	0.452700	0.060500	0.807600
H171	H17	0.475800	0.415000	0.396600
H181	H18	0.578300	0.418700	0.448300
H191	H19	0.898400	0.459500	0.579100
H201	H20	0.835800	0.393500	0.705300
H211	H21	0.667200	0.369900	0.776000
H221	H22	0.825800	0.519500	0.799200
H231	H23	0.884300	0.678800	0.744700
H241	H24	0.952700	0.560500	0.692400
H251	H25	0.024200	0.085000	0.896600
H261	H26	0.921700	0.081300	0.948300
H271	H27	0.601600	0.040500	0.079100
H281	H28	0.664200	0.106500	0.205300
H291	H29	0.832800	0.130100	0.276000
H301	H30	0.674200	0.980500	0.299200
H311	H31	0.615700	0.821200	0.244700
H321	H32	0.547300	0.939500	0.192400
C11	C1	0.245000	0.507800	0.466630
C21	C2	0.166100	0.519500	0.395490
C31	C3	0.233000	0.605500	0.330290
C41	C4	0.316100	0.577900	0.269750
C51	C5	0.242900	0.469100	0.229890
C61	C6	0.175100	0.378500	0.289500
C71	C7	0.096400	0.416500	0.347600
C81	C8	0.294300	0.719700	0.359600
C91	C9	0.441300	0.595400	0.306110
C101	C10	0.307100	0.435100	0.160870
C111	C11	0.263400	0.333200	0.326920
C121	C12	0.995700	0.331900	0.396200
C131	C13	0.255000	0.992200	0.966630
C141	C14	0.333900	0.980500	0.895490
C151	C15	0.267000	0.894500	0.830290
C161	C16	0.183900	0.922100	0.769750
C171	C17	0.257100	0.030900	0.729890
C181	C18	0.324900	0.121500	0.789500
C191	C19	0.403600	0.083500	0.847600
C201	C20	0.205700	0.780300	0.859600
C211	C21	0.058700	0.904600	0.806110
C221	C22	0.192900	0.064900	0.660870
C231	C23	0.236600	0.166800	0.826920
C241	C24	0.504300	0.168100	0.896200
C251	C25	0.755000	0.492200	0.533370
C261	C26	0.833900	0.480500	0.604510
C271	C27	0.767000	0.394500	0.669710
C281	C28	0.683900	0.422100	0.730250
C291	C29	0.757100	0.530900	0.770110
C301	C30	0.824900	0.621500	0.710500
C311	C31	0.903600	0.583500	0.652400
C321	C32	0.705700	0.280300	0.640400
C331	C33	0.558700	0.404600	0.693890
C341	C34	0.692900	0.564900	0.839130
C351	C35	0.736600	0.666800	0.673080
C361	C36	0.004300	0.668100	0.603800
C371	C37	0.745000	0.007800	0.033370
C381	C38	0.666100	0.019500	0.104510
C391	C39	0.733000	0.105500	0.169710
C401	C40	0.816100	0.077900	0.230250
C411	C41	0.742900	0.969100	0.270110
C421	C42	0.675100	0.878500	0.210500
C431	C43	0.596400	0.916500	0.152400
C441	C44	0.794300	0.219700	0.140400
C451	C45	0.941300	0.095400	0.193890
C461	C46	0.807100	0.935100	0.339130
C471	C47	0.763400	0.833200	0.173080
C481	C48	0.495700	0.831900	0.103800
O11	O1	0.267110	0.425920	0.471670
O21	O2	0.280330	0.579410	0.521660
O31	O3	0.257450	0.746650	0.426210
O41	O4	0.370590	0.783890	0.312300
O51	O5	0.456590	0.605770	0.382730
O61	O6	0.528900	0.605400	0.256500
O71	O7	0.382570	0.503770	0.114320
O81	O8	0.272550	0.338950	0.147360
O91	O9	0.376980	0.386020	0.316970
O101	O10	0.222980	0.244670	0.361510
O111	O11	0.973250	0.236150	0.385670
O121	O12	0.927470	0.364670	0.438760
O131	O13	0.482950	0.564210	0.559340
O141	O14	0.232890	0.074080	0.971670
O151	O15	0.219670	0.920590	0.021660
O161	O16	0.242550	0.753350	0.926210
O171	O17	0.129410	0.716110	0.812300
O181	O18	0.043410	0.894230	0.882730
O191	O19	0.971100	0.894600	0.756500
O201	O20	0.117430	0.996230	0.614320
O211	O21	0.227450	0.161050	0.647360
O221	O22	0.123020	0.113980	0.816970
O231	O23	0.277020	0.255330	0.861510
O241	O24	0.526750	0.263850	0.885670
O251	O25	0.572530	0.135330	0.938760
O261	O26	0.017050	0.935790	0.059340
O271	O27	0.732890	0.574080	0.528330
O281	O28	0.719670	0.420590	0.478340
O291	O29	0.742550	0.253350	0.573790
O301	O30	0.629410	0.216110	0.687700
O311	O31	0.543410	0.394230	0.617270
O321	O32	0.471100	0.394600	0.743500
O331	O33	0.617430	0.496230	0.885680
O341	O34	0.727450	0.661050	0.852640
O351	O35	0.623020	0.613980	0.683030
O361	O36	0.777020	0.755330	0.638490
O371	O37	0.026750	0.763850	0.614330
O381	O38	0.072530	0.635330	0.561240
O391	O39	0.517050	0.435790	0.440660
O401	O40	0.767110	0.925920	0.028330
O411	O41	0.780330	0.079410	0.978340
O421	O42	0.757450	0.246650	0.073790
O431	O43	0.870590	0.283890	0.187700
O441	O44	0.956590	0.105770	0.117270
O451	O45	0.028900	0.105400	0.243500
O461	O46	0.882570	0.003770	0.385680
O471	O47	0.772550	0.838950	0.352640
O481	O48	0.876980	0.886020	0.183030
O491	O49	0.722980	0.744670	0.138490
O501	O50	0.473250	0.736150	0.114330
O511	O51	0.427470	0.864670	0.061240
O521	O52	0.982950	0.064210	0.940660
