data_PATWOY_clean_PM
_symmetry_space_group_name_H-M	'P1'
_cell_length_a	9.471000
_cell_length_b	17.357900
_cell_length_c	19.683100
_cell_angle_alpha	76.227000
_cell_angle_beta	83.232000
_cell_angle_gamma	88.407000
_symmetry_Int_Tables_number 1

loop_
_symmetry_equiv_pos_as_xyz
'x,y,z'

loop_
_atom_site_label
_atom_site_type_symbol
_atom_site_fract_x
_atom_site_fract_y
_atom_site_fract_z
Zn11	Zn1	0.131340	0.953810	0.010470
O11	O1	0.813300	0.405700	0.910560
O21	O2	0.974200	0.885350	0.074290
O31	O3	0.947900	0.075200	0.073050
O41	O4	0.152900	0.011410	0.087190
C11	C1	0.204900	0.088500	0.190900
H11	H1	0.263900	0.046000	0.185600
O51	O5	0.771200	0.952220	0.060100
O61	O6	0.960800	0.507640	0.898180
N11	N1	0.326900	0.415730	0.395020
N21	N2	0.157800	0.408900	0.990840
N31	N3	0.704800	0.124380	0.984730
C21	C2	0.247300	0.226800	0.349400
H21	H2	0.256000	0.172600	0.367600
C31	C3	0.233500	0.134600	0.236200
H31	H3	0.310100	0.121800	0.262400
C41	C4	0.292300	0.279600	0.384900
H41	H4	0.332400	0.260600	0.426700
C51	C5	0.902700	0.454100	0.875900
C61	C6	0.617800	0.831200	0.159300
H51	H5	0.570900	0.879200	0.145400
C71	C7	0.050000	0.405800	0.546900
H61	H6	0.953700	0.394100	0.558600
C81	C8	0.029200	0.214500	0.207900
H71	H7	0.968300	0.255900	0.214200
C91	C9	0.087200	0.105900	0.153100
C101	C10	0.545100	0.767700	0.202900
H81	H8	0.449800	0.773600	0.218700
C111	C11	0.828800	0.752200	0.157700
H91	H9	0.925000	0.746900	0.143400
C121	C12	0.217800	0.389300	0.297300
H101	H10	0.206600	0.443600	0.280100
C131	C13	0.897100	0.395800	0.771000
H111	H11	0.824200	0.362300	0.796300
C141	C14	0.188700	0.255000	0.285900
C151	C15	0.755900	0.688400	0.200400
H121	H12	0.803100	0.640400	0.213900
C161	C16	0.998800	0.168000	0.163100
H131	H13	0.918200	0.178700	0.139600
C171	C17	0.173600	0.336000	0.260600
H141	H14	0.133800	0.355200	0.218800
C181	C18	0.762300	0.824700	0.135400
C191	C19	0.431100	0.627700	0.324500
H151	H15	0.407800	0.676900	0.333800
C201	C20	0.258200	0.415900	0.463000
C211	C21	0.336800	0.435100	0.512600
H161	H16	0.434500	0.442500	0.501900
C221	C22	0.060200	0.059300	0.100700
C231	C23	0.949400	0.389700	0.703800
H171	H17	0.911400	0.352100	0.684400
C241	C24	0.459500	0.154100	0.013200
H181	H18	0.368000	0.136000	0.031500
C251	C25	0.268100	0.420000	0.940800
H191	H19	0.272100	0.467100	0.906200
C261	C26	0.375000	0.366700	0.937100
H201	H20	0.450100	0.378000	0.901300
C271	C27	0.497700	0.481300	0.297600
H211	H21	0.520000	0.432200	0.287900
C281	C28	0.486300	0.235200	0.986900
C291	C29	0.257100	0.282900	0.040400
H221	H22	0.250400	0.236700	0.076100
C301	C30	0.623700	0.258400	0.959200
H231	H23	0.644900	0.311800	0.940700
C311	C31	0.148500	0.200600	0.243400
C321	C32	0.611200	0.693800	0.224100
C331	C33	0.394900	0.485900	0.354300
C341	C34	0.533900	0.622700	0.268900
C351	C35	0.114400	0.399900	0.481900
H241	H24	0.061000	0.385000	0.450400
C361	C36	0.107700	0.497900	0.694400
H251	H25	0.176000	0.533900	0.668200
C371	C37	0.125300	0.429100	0.595900
C381	C38	0.272100	0.443100	0.576700
H261	H26	0.326000	0.458100	0.608000
C391	C39	0.058600	0.439400	0.664800
C401	C40	0.952400	0.451100	0.801100
C411	C41	0.570700	0.101200	0.011800
H271	H27	0.552600	0.047400	0.030100
C421	C42	0.371000	0.295400	0.987200
C431	C43	0.278300	0.360700	0.359100
C441	C44	0.564500	0.547100	0.257300
H281	H28	0.633000	0.542100	0.220600
C451	C45	0.842100	0.892400	0.086000
C461	C46	0.057200	0.503200	0.761700
H291	H29	0.093000	0.541700	0.780800
C471	C47	0.363800	0.560600	0.365800
H301	H30	0.295400	0.565500	0.402600
C481	C48	0.729100	0.202200	0.959100
H311	H31	0.821000	0.218900	0.940400
C491	C49	0.154000	0.341600	0.038200
H321	H32	0.076700	0.332400	0.072800
Zn21	Zn2	0.868660	0.046190	0.989530
O71	O7	0.186700	0.594300	0.089440
O81	O8	0.025800	0.114650	0.925710
O91	O9	0.052100	0.924800	0.926950
O101	O10	0.847100	0.988590	0.912810
C501	C50	0.795100	0.911500	0.809100
H331	H33	0.736100	0.954000	0.814400
O111	O11	0.228800	0.047780	0.939900
O121	O12	0.039200	0.492360	0.101820
N41	N4	0.673100	0.584270	0.604980
N51	N5	0.842200	0.591100	0.009160
N61	N6	0.295200	0.875620	0.015270
C511	C51	0.752700	0.773200	0.650600
H341	H34	0.744000	0.827400	0.632400
C521	C52	0.766500	0.865400	0.763800
H351	H35	0.689900	0.878200	0.737600
C531	C53	0.707700	0.720400	0.615100
H361	H36	0.667600	0.739400	0.573300
C541	C54	0.097300	0.545900	0.124100
C551	C55	0.382200	0.168800	0.840700
H371	H37	0.429100	0.120800	0.854600
C561	C56	0.950000	0.594200	0.453100
H381	H38	0.046300	0.605900	0.441400
C571	C57	0.970800	0.785500	0.792100
H391	H39	0.031700	0.744100	0.785800
C581	C58	0.912800	0.894100	0.846900
C591	C59	0.454900	0.232300	0.797100
H401	H40	0.550200	0.226400	0.781300
C601	C60	0.171200	0.247800	0.842300
H411	H41	0.075000	0.253100	0.856600
C611	C61	0.782200	0.610700	0.702700
H421	H42	0.793400	0.556400	0.719900
C621	C62	0.102900	0.604200	0.229000
H431	H43	0.175800	0.637700	0.203700
C631	C63	0.811300	0.745000	0.714100
C641	C64	0.244100	0.311600	0.799600
H441	H44	0.196900	0.359600	0.786100
C651	C65	0.001200	0.832000	0.836900
H451	H45	0.081800	0.821300	0.860400
C661	C66	0.826400	0.664000	0.739400
H461	H46	0.866200	0.644800	0.781200
C671	C67	0.237700	0.175300	0.864600
C681	C68	0.568900	0.372300	0.675500
H471	H47	0.592200	0.323100	0.666200
C691	C69	0.741800	0.584100	0.537000
C701	C70	0.663200	0.564900	0.487400
H481	H48	0.565500	0.557500	0.498100
C711	C71	0.939800	0.940700	0.899300
C721	C72	0.050600	0.610300	0.296200
H491	H49	0.088600	0.647900	0.315600
C731	C73	0.540500	0.845900	0.986800
H501	H50	0.632000	0.864000	0.968500
C741	C74	0.731900	0.580000	0.059200
H511	H51	0.727900	0.532900	0.093800
C751	C75	0.625000	0.633300	0.062900
H521	H52	0.549900	0.622000	0.098700
C761	C76	0.502300	0.518700	0.702400
H531	H53	0.480000	0.567800	0.712100
C771	C77	0.513700	0.764800	0.013100
C781	C78	0.742900	0.717100	0.959600
H541	H54	0.749600	0.763300	0.923900
C791	C79	0.376300	0.741600	0.040800
H551	H55	0.355100	0.688200	0.059300
C801	C80	0.851500	0.799400	0.756600
C811	C81	0.388800	0.306200	0.775900
C821	C82	0.605100	0.514100	0.645700
C831	C83	0.466100	0.377300	0.731100
C841	C84	0.885600	0.600100	0.518100
H561	H56	0.939000	0.615000	0.549600
C851	C85	0.892300	0.502100	0.305600
H571	H57	0.824000	0.466100	0.331800
C861	C86	0.874700	0.570900	0.404100
C871	C87	0.727900	0.556900	0.423300
H581	H58	0.674000	0.541900	0.392000
C881	C88	0.941400	0.560600	0.335200
C891	C89	0.047600	0.548900	0.198900
C901	C90	0.429300	0.898800	0.988200
H591	H59	0.447400	0.952600	0.969900
C911	C91	0.629000	0.704600	0.012800
C921	C92	0.721700	0.639300	0.640900
C931	C93	0.435500	0.452900	0.742700
H601	H60	0.367000	0.457900	0.779400
C941	C94	0.157900	0.107600	0.914000
C951	C95	0.942800	0.496800	0.238300
H611	H61	0.907000	0.458300	0.219200
C961	C96	0.636200	0.439400	0.634200
H621	H62	0.704600	0.434500	0.597400
C971	C97	0.270900	0.797800	0.040900
H631	H63	0.179000	0.781100	0.059600
C981	C98	0.846000	0.658400	0.961800
H641	H64	0.923300	0.667600	0.927200
Zn31	Zn3	0.000000	0.500000	0.000000
