data_PAVKIH_charged_PM
_symmetry_space_group_name_H-M	'P1'
_cell_length_a	14.816800
_cell_length_b	24.039500
_cell_length_c	42.373400
_cell_angle_alpha	97.121000
_cell_angle_beta	90.000000
_cell_angle_gamma	90.000000
_symmetry_Int_Tables_number 1

loop_
_symmetry_equiv_pos_as_xyz
'x,y,z'

loop_
_atom_site_label
_atom_site_type_symbol
_atom_site_fract_x
_atom_site_fract_y
_atom_site_fract_z
Ag11	Ag1	0.388350	0.828730	0.731890
Ag21	Ag2	0.163210	0.668980	0.773440
Ag31	Ag3	0.223750	0.251710	0.502090
Ag41	Ag4	0.540450	0.463840	0.662980
Ag51	Ag5	0.497820	0.035320	0.336240
Ag61	Ag6	0.888350	0.171270	0.768110
Ag71	Ag7	0.663210	0.331020	0.726560
Ag81	Ag8	0.723750	0.748290	0.997910
Ag91	Ag9	0.040450	0.536160	0.837020
Ag101	Ag10	0.997820	0.964680	0.163760
Ag111	Ag11	0.611650	0.171270	0.268110
Ag121	Ag12	0.836790	0.331020	0.226560
Ag131	Ag13	0.776250	0.748290	0.497910
Ag141	Ag14	0.459550	0.536160	0.337020
Ag151	Ag15	0.502180	0.964680	0.663760
Ag161	Ag16	0.111650	0.828730	0.231890
Ag171	Ag17	0.336790	0.668980	0.273440
Ag181	Ag18	0.276250	0.251710	0.002090
Ag191	Ag19	0.959550	0.463840	0.162980
Ag201	Ag20	0.002180	0.035320	0.836240
Ag211	Ag21	0.500000	0.500000	0.500000
Ag221	Ag22	0.000000	0.500000	0.000000
Ag231	Ag23	0.500000	0.000000	0.500000
Ag241	Ag24	0.000000	0.000000	0.000000
H11	H1	0.268000	0.893900	0.785200
H21	H2	0.182200	0.977800	0.794600
H31	H3	0.249200	0.007800	0.705800
H41	H4	0.335200	0.926700	0.700400
H51	H5	0.256200	0.098100	0.745100
H61	H6	0.193400	0.125100	0.773700
H71	H7	0.160000	0.123800	0.737700
H81	H8	0.167100	0.797600	0.791400
H91	H9	0.077400	0.872700	0.813300
H101	H10	0.871400	0.760900	0.813400
H111	H11	0.972900	0.690000	0.796300
H121	H12	0.816500	0.892200	0.864200
H131	H13	0.899600	0.856200	0.874700
H141	H14	0.818500	0.825800	0.854400
H151	H15	0.100600	0.220800	0.442000
H161	H16	0.106800	0.170700	0.393000
H171	H17	0.339800	0.098800	0.417700
H181	H18	0.324800	0.144600	0.469500
H191	H19	0.180800	0.056200	0.332200
H201	H20	0.152100	0.041600	0.366600
H211	H21	0.110600	0.095500	0.353200
H221	H22	0.539700	0.388700	0.525600
H231	H23	0.616600	0.353900	0.566400
H241	H24	0.661300	0.511200	0.607200
H251	H25	0.594900	0.543600	0.563900
H261	H26	0.823800	0.424900	0.639400
H271	H27	0.781300	0.479600	0.627200
H281	H28	0.828800	0.432800	0.602500
H291	H29	0.559700	0.957500	0.432500
H301	H30	0.637300	0.990300	0.391400
H311	H31	0.594400	0.150200	0.430000
H321	H32	0.523600	0.112400	0.471400
H331	H33	0.786100	0.083400	0.354700
H341	H34	0.798600	0.072700	0.390900
H351	H35	0.753100	0.025600	0.365900
H361	H36	0.650700	0.638000	0.737900
H371	H37	0.594900	0.614500	0.786400
H381	H38	0.515800	0.528000	0.784300
H391	H39	0.902000	0.859700	0.760100
H401	H40	0.954800	0.888900	0.711600
H411	H41	0.033500	0.974300	0.714700
H421	H42	0.281100	0.604100	0.719200
H431	H43	0.363700	0.520200	0.708500
H441	H44	0.310900	0.490600	0.797500
H451	H45	0.215200	0.565900	0.803900
H461	H46	0.404700	0.365100	0.748700
H471	H47	0.310500	0.385900	0.735800
H481	H48	0.333000	0.396200	0.773000
H491	H49	0.380700	0.700000	0.709000
H501	H50	0.472300	0.627700	0.686900
H511	H51	0.675200	0.741200	0.686400
H521	H52	0.577200	0.807400	0.706900
H531	H53	0.729000	0.606400	0.634400
H541	H54	0.726300	0.673100	0.643000
H551	H55	0.644600	0.641200	0.623800
H561	H56	0.121300	0.284100	0.565100
H571	H57	0.145600	0.326500	0.615900
H581	H58	0.366100	0.401000	0.581000
H591	H59	0.335100	0.355500	0.532800
H601	H60	0.221800	0.444800	0.673400
H611	H61	0.150300	0.403500	0.654400
H621	H62	0.183500	0.458500	0.639900
H631	H63	0.356700	0.286500	0.621400
H641	H64	0.474900	0.228500	0.607300
H651	H65	0.623600	0.261800	0.611000
H661	H66	0.584600	0.237100	0.386000
H671	H67	0.442800	0.275100	0.387300
H681	H68	0.318700	0.212800	0.376500
H691	H69	0.768000	0.106100	0.714800
H701	H70	0.682200	0.022200	0.705400
H711	H71	0.749200	0.992200	0.794200
H721	H72	0.835200	0.073300	0.799600
H731	H73	0.756200	0.901900	0.754900
H741	H74	0.693400	0.874900	0.726300
H751	H75	0.660000	0.876200	0.762300
H761	H76	0.667100	0.202400	0.708600
H771	H77	0.577400	0.127300	0.686700
H781	H78	0.371400	0.239100	0.686600
H791	H79	0.472900	0.310000	0.703700
H801	H80	0.316500	0.107800	0.635800
H811	H81	0.399600	0.143800	0.625300
H821	H82	0.318500	0.174200	0.645600
H831	H83	0.600600	0.779200	0.058000
H841	H84	0.606800	0.829300	0.107000
H851	H85	0.839800	0.901200	0.082300
H861	H86	0.824800	0.855400	0.030500
H871	H87	0.680800	0.943800	0.167800
H881	H88	0.652100	0.958400	0.133400
H891	H89	0.610600	0.904500	0.146800
H901	H90	0.039700	0.611300	0.974400
H911	H91	0.116600	0.646100	0.933600
H921	H92	0.161300	0.488800	0.892800
H931	H93	0.094900	0.456400	0.936100
H941	H94	0.323800	0.575100	0.860600
H951	H95	0.281300	0.520400	0.872800
H961	H96	0.328800	0.567200	0.897500
H971	H97	0.059700	0.042500	0.067500
H981	H98	0.137300	0.009700	0.108600
H991	H99	0.094400	0.849800	0.070000
H1001	H100	0.023600	0.887600	0.028600
H1011	H101	0.286100	0.916600	0.145300
H1021	H102	0.298600	0.927300	0.109100
H1031	H103	0.253100	0.974400	0.134100
H1041	H104	0.150700	0.362000	0.762100
H1051	H105	0.094900	0.385500	0.713600
H1061	H106	0.015800	0.472000	0.715700
H1071	H107	0.402000	0.140300	0.739900
H1081	H108	0.454800	0.111100	0.788400
H1091	H109	0.533500	0.025700	0.785300
H1101	H110	0.781100	0.395900	0.780800
H1111	H111	0.863700	0.479800	0.791500
H1121	H112	0.810900	0.509400	0.702500
H1131	H113	0.715200	0.434100	0.696100
H1141	H114	0.904700	0.634900	0.751300
H1151	H115	0.810500	0.614100	0.764200
H1161	H116	0.833000	0.603800	0.727000
H1171	H117	0.880700	0.300000	0.791000
H1181	H118	0.972300	0.372300	0.813100
H1191	H119	0.175200	0.258800	0.813600
H1201	H120	0.077200	0.192600	0.793100
H1211	H121	0.229000	0.393600	0.865600
H1221	H122	0.226300	0.326900	0.857000
H1231	H123	0.144600	0.358800	0.876200
H1241	H124	0.621300	0.715900	0.934900
H1251	H125	0.645600	0.673500	0.884100
H1261	H126	0.866100	0.599000	0.919000
H1271	H127	0.835100	0.644500	0.967200
H1281	H128	0.721800	0.555200	0.826600
H1291	H129	0.650300	0.596500	0.845600
H1301	H130	0.683500	0.541500	0.860100
H1311	H131	0.856700	0.713500	0.878600
H1321	H132	0.974900	0.771500	0.892700
H1331	H133	0.123600	0.738200	0.889000
H1341	H134	0.084600	0.762900	0.114000
H1351	H135	0.942800	0.724900	0.112700
H1361	H136	0.818700	0.787200	0.123500
H1371	H137	0.732000	0.106100	0.214800
H1381	H138	0.817800	0.022200	0.205400
H1391	H139	0.750800	0.992200	0.294200
H1401	H140	0.664800	0.073300	0.299600
H1411	H141	0.743800	0.901900	0.254900
H1421	H142	0.806600	0.874900	0.226300
H1431	H143	0.840000	0.876200	0.262300
H1441	H144	0.832900	0.202400	0.208600
H1451	H145	0.922600	0.127300	0.186700
H1461	H146	0.128600	0.239100	0.186600
H1471	H147	0.027100	0.310000	0.203700
H1481	H148	0.183500	0.107800	0.135800
H1491	H149	0.100400	0.143800	0.125300
H1501	H150	0.181500	0.174200	0.145600
H1511	H151	0.899400	0.779200	0.558000
H1521	H152	0.893200	0.829300	0.607000
H1531	H153	0.660200	0.901200	0.582300
H1541	H154	0.675200	0.855400	0.530500
H1551	H155	0.819200	0.943800	0.667800
H1561	H156	0.847900	0.958400	0.633400
H1571	H157	0.889400	0.904500	0.646800
H1581	H158	0.460300	0.611300	0.474400
H1591	H159	0.383400	0.646100	0.433600
H1601	H160	0.338700	0.488800	0.392800
H1611	H161	0.405100	0.456400	0.436100
H1621	H162	0.176200	0.575100	0.360600
H1631	H163	0.218700	0.520400	0.372800
H1641	H164	0.171200	0.567200	0.397500
H1651	H165	0.440300	0.042500	0.567500
H1661	H166	0.362700	0.009700	0.608600
H1671	H167	0.405600	0.849800	0.570000
H1681	H168	0.476400	0.887600	0.528600
H1691	H169	0.213900	0.916600	0.645300
H1701	H170	0.201400	0.927300	0.609100
H1711	H171	0.246900	0.974400	0.634100
H1721	H172	0.349300	0.362000	0.262100
H1731	H173	0.405100	0.385500	0.213600
H1741	H174	0.484200	0.472000	0.215700
H1751	H175	0.098000	0.140300	0.239900
H1761	H176	0.045200	0.111100	0.288400
H1771	H177	0.966500	0.025700	0.285300
H1781	H178	0.718900	0.395900	0.280800
H1791	H179	0.636300	0.479800	0.291500
H1801	H180	0.689100	0.509400	0.202500
H1811	H181	0.784800	0.434100	0.196100
H1821	H182	0.595300	0.634900	0.251300
H1831	H183	0.689500	0.614100	0.264200
H1841	H184	0.667000	0.603800	0.227000
H1851	H185	0.619300	0.300000	0.291000
H1861	H186	0.527700	0.372300	0.313100
H1871	H187	0.324800	0.258800	0.313600
H1881	H188	0.422800	0.192600	0.293100
H1891	H189	0.271000	0.393600	0.365600
H1901	H190	0.273700	0.326900	0.357000
H1911	H191	0.355400	0.358800	0.376200
H1921	H192	0.878700	0.715900	0.434900
H1931	H193	0.854400	0.673500	0.384100
H1941	H194	0.633900	0.599000	0.419000
H1951	H195	0.664900	0.644500	0.467200
H1961	H196	0.778200	0.555200	0.326600
H1971	H197	0.849700	0.596500	0.345600
H1981	H198	0.816500	0.541500	0.360100
H1991	H199	0.643300	0.713500	0.378600
H2001	H200	0.525100	0.771500	0.392700
H2011	H201	0.376400	0.738200	0.389000
H2021	H202	0.415400	0.762900	0.614000
H2031	H203	0.557200	0.724900	0.612700
H2041	H204	0.681300	0.787200	0.623500
H2051	H205	0.232000	0.893900	0.285200
H2061	H206	0.317800	0.977800	0.294600
H2071	H207	0.250800	0.007800	0.205800
H2081	H208	0.164800	0.926700	0.200400
H2091	H209	0.243800	0.098100	0.245100
H2101	H210	0.306600	0.125100	0.273700
H2111	H211	0.340000	0.123800	0.237700
H2121	H212	0.332900	0.797600	0.291400
H2131	H213	0.422600	0.872700	0.313300
H2141	H214	0.628600	0.760900	0.313400
H2151	H215	0.527100	0.690000	0.296300
H2161	H216	0.683500	0.892200	0.364200
H2171	H217	0.600400	0.856200	0.374700
H2181	H218	0.681500	0.825800	0.354400
H2191	H219	0.399400	0.220800	0.942000
H2201	H220	0.393200	0.170700	0.893000
H2211	H221	0.160200	0.098800	0.917700
H2221	H222	0.175200	0.144600	0.969500
H2231	H223	0.319200	0.056200	0.832200
H2241	H224	0.347900	0.041600	0.866600
H2251	H225	0.389400	0.095500	0.853200
H2261	H226	0.960300	0.388700	0.025600
H2271	H227	0.883400	0.353900	0.066400
H2281	H228	0.838700	0.511200	0.107200
H2291	H229	0.905100	0.543600	0.063900
H2301	H230	0.676200	0.424900	0.139400
H2311	H231	0.718700	0.479600	0.127200
H2321	H232	0.671200	0.432800	0.102500
H2331	H233	0.940300	0.957500	0.932500
H2341	H234	0.862700	0.990300	0.891400
H2351	H235	0.905600	0.150200	0.930000
H2361	H236	0.976400	0.112400	0.971400
H2371	H237	0.713900	0.083400	0.854700
H2381	H238	0.701400	0.072700	0.890900
H2391	H239	0.746900	0.025600	0.865900
H2401	H240	0.849300	0.638000	0.237900
H2411	H241	0.905100	0.614500	0.286400
H2421	H242	0.984200	0.528000	0.284300
H2431	H243	0.598000	0.859700	0.260100
H2441	H244	0.545200	0.888900	0.211600
H2451	H245	0.466500	0.974300	0.214700
H2461	H246	0.218900	0.604100	0.219200
H2471	H247	0.136300	0.520200	0.208500
H2481	H248	0.189100	0.490600	0.297500
H2491	H249	0.284800	0.565900	0.303900
H2501	H250	0.095300	0.365100	0.248700
H2511	H251	0.189500	0.385900	0.235800
H2521	H252	0.167000	0.396200	0.273000
H2531	H253	0.119300	0.700000	0.209000
H2541	H254	0.027700	0.627700	0.186900
H2551	H255	0.824800	0.741200	0.186400
H2561	H256	0.922800	0.807400	0.206900
H2571	H257	0.771000	0.606400	0.134400
H2581	H258	0.773700	0.673100	0.143000
H2591	H259	0.855400	0.641200	0.123800
H2601	H260	0.378700	0.284100	0.065100
H2611	H261	0.354400	0.326500	0.115900
H2621	H262	0.133900	0.401000	0.081000
H2631	H263	0.164900	0.355500	0.032800
H2641	H264	0.278200	0.444800	0.173400
H2651	H265	0.349700	0.403500	0.154400
H2661	H266	0.316500	0.458500	0.139900
H2671	H267	0.143300	0.286500	0.121400
H2681	H268	0.025100	0.228500	0.107300
H2691	H269	0.876400	0.261800	0.111000
H2701	H270	0.915400	0.237100	0.886000
H2711	H271	0.057200	0.275100	0.887300
H2721	H272	0.181300	0.212800	0.876500
C11	C1	0.265000	0.918400	0.769300
C21	C2	0.212800	0.968000	0.775000
C31	C3	0.208200	0.002500	0.750100
C41	C4	0.252700	0.986000	0.723000
C51	C5	0.303900	0.936900	0.719800
C61	C6	0.193800	0.103500	0.752500
C71	C7	0.060700	0.050900	0.764500
C81	C8	0.106300	0.790500	0.796800
C91	C9	0.054000	0.835700	0.809400
C101	C10	0.963400	0.822800	0.815800
C111	C11	0.932900	0.769500	0.810000
C121	C12	0.992800	0.727900	0.799000
C131	C13	0.855400	0.859800	0.857800
C141	C14	0.902600	0.919400	0.819900
C151	C15	0.150000	0.196000	0.437200
C161	C16	0.154100	0.167900	0.407800
C171	C17	0.231700	0.133500	0.399300
C181	C18	0.291500	0.124500	0.422600
C191	C19	0.283200	0.152100	0.453500
C201	C20	0.164500	0.072100	0.353900
C211	C21	0.318900	0.103700	0.352300
C221	C22	0.566100	0.414000	0.542100
C231	C23	0.612600	0.393300	0.566200
C241	C24	0.654300	0.429500	0.590400
C251	C25	0.640600	0.485300	0.590000
C261	C26	0.597300	0.504400	0.564900
C271	C27	0.792000	0.439300	0.621800
C281	C28	0.680100	0.367300	0.631800
C291	C29	0.567200	0.996700	0.432400
C301	C30	0.611000	0.016300	0.407400
C311	C31	0.617300	0.071300	0.405300
C321	C32	0.587400	0.110900	0.430000
C331	C33	0.546200	0.086700	0.454300
C341	C34	0.759400	0.066000	0.372200
C351	C35	0.642700	0.133600	0.364300
C361	C36	0.605200	0.569400	0.709400
C371	C37	0.618200	0.604000	0.738200
C381	C38	0.585900	0.590800	0.767000
C391	C39	0.539000	0.540000	0.765300
C401	C40	0.525900	0.507300	0.736900
C411	C41	0.946300	0.930200	0.789000
C421	C42	0.932500	0.894400	0.760000
C431	C43	0.964300	0.911200	0.731400
C441	C44	0.010000	0.961400	0.733300
C451	C45	0.020800	0.991400	0.761400
C461	C46	0.285300	0.580400	0.735500
C471	C47	0.336700	0.529600	0.728800
C481	C48	0.345800	0.496800	0.750600
C491	C49	0.302500	0.512700	0.780600
C501	C50	0.249600	0.558700	0.785000
C511	C51	0.358500	0.394500	0.751600
C521	C52	0.481600	0.449400	0.735100
C531	C53	0.441600	0.708300	0.704300
C541	C54	0.495700	0.664700	0.691100
C551	C55	0.582500	0.675700	0.684400
C561	C56	0.614600	0.731700	0.690800
C571	C57	0.555900	0.769900	0.703200
C581	C58	0.689800	0.638900	0.640500
C591	C59	0.640000	0.579400	0.679200
C601	C60	0.173200	0.307300	0.568600
C611	C61	0.185800	0.333000	0.599300
C621	C62	0.260800	0.369700	0.605200
C631	C63	0.315600	0.376500	0.578600
C641	C64	0.296800	0.348900	0.549900
C651	C65	0.201700	0.428400	0.652300
C661	C66	0.361500	0.397200	0.648300
C671	C67	0.430000	0.355900	0.634400
C681	C68	0.416400	0.300800	0.623200
C691	C69	0.486200	0.266700	0.614700
C701	C70	0.573700	0.285800	0.616500
C711	C71	0.584300	0.343400	0.627200
C721	C72	0.550500	0.157100	0.368600
C731	C73	0.534500	0.213700	0.379600
C741	C74	0.451800	0.236000	0.381400
C751	C75	0.379000	0.199500	0.374400
C761	C76	0.396500	0.143500	0.364100
C771	C77	0.377800	0.603300	0.605600
C781	C78	0.341000	0.896800	0.394900
C791	C79	0.014000	0.293400	0.969100
C801	C80	0.765000	0.081600	0.730700
C811	C81	0.712800	0.032000	0.725000
C821	C82	0.708200	0.997500	0.749900
C831	C83	0.752700	0.014000	0.777000
C841	C84	0.803900	0.063100	0.780200
C851	C85	0.693800	0.896500	0.747500
C861	C86	0.560700	0.949100	0.735500
C871	C87	0.606300	0.209500	0.703200
C881	C88	0.554000	0.164300	0.690600
C891	C89	0.463400	0.177200	0.684200
C901	C90	0.432900	0.230500	0.690000
C911	C91	0.492800	0.272100	0.701000
C921	C92	0.355400	0.140200	0.642200
C931	C93	0.402600	0.080600	0.680100
C941	C94	0.650000	0.804000	0.062800
C951	C95	0.654100	0.832100	0.092200
C961	C96	0.731700	0.866500	0.100700
C971	C97	0.791500	0.875500	0.077400
C981	C98	0.783200	0.847900	0.046500
C991	C99	0.664500	0.927900	0.146100
C1001	C100	0.818900	0.896300	0.147700
C1011	C101	0.066100	0.586000	0.957900
C1021	C102	0.112600	0.606700	0.933800
C1031	C103	0.154300	0.570500	0.909600
C1041	C104	0.140600	0.514700	0.910000
C1051	C105	0.097300	0.495600	0.935100
C1061	C106	0.292000	0.560700	0.878200
C1071	C107	0.180100	0.632700	0.868200
C1081	C108	0.067200	0.003300	0.067600
C1091	C109	0.111000	0.983700	0.092600
C1101	C110	0.117300	0.928700	0.094700
C1111	C111	0.087400	0.889100	0.070000
C1121	C112	0.046200	0.913300	0.045700
C1131	C113	0.259400	0.934000	0.127800
C1141	C114	0.142700	0.866400	0.135700
C1151	C115	0.105200	0.430600	0.790600
C1161	C116	0.118200	0.396000	0.761800
C1171	C117	0.085900	0.409200	0.733000
C1181	C118	0.039000	0.460000	0.734700
C1191	C119	0.025900	0.492700	0.763100
C1201	C120	0.446300	0.069800	0.711000
C1211	C121	0.432500	0.105600	0.740000
C1221	C122	0.464300	0.088800	0.768600
C1231	C123	0.510000	0.038600	0.766700
C1241	C124	0.520800	0.008600	0.738600
C1251	C125	0.785300	0.419600	0.764500
C1261	C126	0.836700	0.470400	0.771200
C1271	C127	0.845800	0.503200	0.749400
C1281	C128	0.802500	0.487300	0.719400
C1291	C129	0.749600	0.441300	0.715000
C1301	C130	0.858500	0.605500	0.748400
C1311	C131	0.981600	0.550600	0.764900
C1321	C132	0.941600	0.291700	0.795700
C1331	C133	0.995700	0.335300	0.808900
C1341	C134	0.082500	0.324300	0.815600
C1351	C135	0.114600	0.268300	0.809200
C1361	C136	0.055900	0.230100	0.796800
C1371	C137	0.189800	0.361100	0.859500
C1381	C138	0.140000	0.420600	0.820800
C1391	C139	0.673200	0.692700	0.931400
C1401	C140	0.685800	0.667000	0.900700
C1411	C141	0.760800	0.630300	0.894800
C1421	C142	0.815600	0.623500	0.921400
C1431	C143	0.796800	0.651100	0.950100
C1441	C144	0.701700	0.571600	0.847700
C1451	C145	0.861500	0.602800	0.851700
C1461	C146	0.930000	0.644100	0.865600
C1471	C147	0.916400	0.699200	0.876800
C1481	C148	0.986200	0.733300	0.885300
C1491	C149	0.073700	0.714200	0.883500
C1501	C150	0.084300	0.656600	0.872800
C1511	C151	0.050500	0.842900	0.131400
C1521	C152	0.034500	0.786300	0.120400
C1531	C153	0.951800	0.764000	0.118600
C1541	C154	0.879000	0.800500	0.125600
C1551	C155	0.896500	0.856500	0.135900
C1561	C156	0.877800	0.396700	0.894400
C1571	C157	0.841000	0.103200	0.105100
C1581	C158	0.514000	0.706600	0.530900
C1591	C159	0.735000	0.081600	0.230700
C1601	C160	0.787200	0.032000	0.225000
C1611	C161	0.791800	0.997500	0.249900
C1621	C162	0.747300	0.014000	0.277000
C1631	C163	0.696100	0.063100	0.280200
C1641	C164	0.806200	0.896500	0.247500
C1651	C165	0.939300	0.949100	0.235500
C1661	C166	0.893700	0.209500	0.203200
C1671	C167	0.946000	0.164300	0.190600
C1681	C168	0.036600	0.177200	0.184200
C1691	C169	0.067100	0.230500	0.190000
C1701	C170	0.007200	0.272100	0.201000
C1711	C171	0.144600	0.140200	0.142200
C1721	C172	0.097400	0.080600	0.180100
C1731	C173	0.850000	0.804000	0.562800
C1741	C174	0.845900	0.832100	0.592200
C1751	C175	0.768300	0.866500	0.600700
C1761	C176	0.708500	0.875500	0.577400
C1771	C177	0.716800	0.847900	0.546500
C1781	C178	0.835500	0.927900	0.646100
C1791	C179	0.681100	0.896300	0.647700
C1801	C180	0.433900	0.586000	0.457900
C1811	C181	0.387400	0.606700	0.433800
C1821	C182	0.345700	0.570500	0.409600
C1831	C183	0.359400	0.514700	0.410000
C1841	C184	0.402700	0.495600	0.435100
C1851	C185	0.208000	0.560700	0.378200
C1861	C186	0.319900	0.632700	0.368200
C1871	C187	0.432800	0.003300	0.567600
C1881	C188	0.389000	0.983700	0.592600
C1891	C189	0.382700	0.928700	0.594700
C1901	C190	0.412600	0.889100	0.570000
C1911	C191	0.453800	0.913300	0.545700
C1921	C192	0.240600	0.934000	0.627800
C1931	C193	0.357300	0.866400	0.635700
C1941	C194	0.394800	0.430600	0.290600
C1951	C195	0.381800	0.396000	0.261800
C1961	C196	0.414100	0.409200	0.233000
C1971	C197	0.461000	0.460000	0.234700
C1981	C198	0.474100	0.492700	0.263100
C1991	C199	0.053700	0.069800	0.211000
C2001	C200	0.067500	0.105600	0.240000
C2011	C201	0.035700	0.088800	0.268600
C2021	C202	0.990000	0.038600	0.266700
C2031	C203	0.979200	0.008600	0.238600
C2041	C204	0.714700	0.419600	0.264500
C2051	C205	0.663300	0.470400	0.271200
C2061	C206	0.654200	0.503200	0.249400
C2071	C207	0.697500	0.487300	0.219400
C2081	C208	0.750400	0.441300	0.215000
C2091	C209	0.641500	0.605500	0.248400
C2101	C210	0.518400	0.550600	0.264900
C2111	C211	0.558400	0.291700	0.295700
C2121	C212	0.504300	0.335300	0.308900
C2131	C213	0.417500	0.324300	0.315600
C2141	C214	0.385400	0.268300	0.309200
C2151	C215	0.444100	0.230100	0.296800
C2161	C216	0.310200	0.361100	0.359500
C2171	C217	0.360000	0.420600	0.320800
C2181	C218	0.826800	0.692700	0.431400
C2191	C219	0.814200	0.667000	0.400700
C2201	C220	0.739200	0.630300	0.394800
C2211	C221	0.684400	0.623500	0.421400
C2221	C222	0.703200	0.651100	0.450100
C2231	C223	0.798300	0.571600	0.347700
C2241	C224	0.638500	0.602800	0.351700
C2251	C225	0.570000	0.644100	0.365600
C2261	C226	0.583600	0.699200	0.376800
C2271	C227	0.513800	0.733300	0.385300
C2281	C228	0.426300	0.714200	0.383500
C2291	C229	0.415700	0.656600	0.372800
C2301	C230	0.449500	0.842900	0.631400
C2311	C231	0.465500	0.786300	0.620400
C2321	C232	0.548200	0.764000	0.618600
C2331	C233	0.621000	0.800500	0.625600
C2341	C234	0.603500	0.856500	0.635900
C2351	C235	0.622200	0.396700	0.394400
C2361	C236	0.659000	0.103200	0.605100
C2371	C237	0.986000	0.706600	0.030900
C2381	C238	0.235000	0.918400	0.269300
C2391	C239	0.287200	0.968000	0.275000
C2401	C240	0.291800	0.002500	0.250100
C2411	C241	0.247300	0.986000	0.223000
C2421	C242	0.196100	0.936900	0.219800
C2431	C243	0.306200	0.103500	0.252500
C2441	C244	0.439300	0.050900	0.264500
C2451	C245	0.393700	0.790500	0.296800
C2461	C246	0.446000	0.835700	0.309400
C2471	C247	0.536600	0.822800	0.315800
C2481	C248	0.567100	0.769500	0.310000
C2491	C249	0.507200	0.727900	0.299000
C2501	C250	0.644600	0.859800	0.357800
C2511	C251	0.597400	0.919400	0.319900
C2521	C252	0.350000	0.196000	0.937200
C2531	C253	0.345900	0.167900	0.907800
C2541	C254	0.268300	0.133500	0.899300
C2551	C255	0.208500	0.124500	0.922600
C2561	C256	0.216800	0.152100	0.953500
C2571	C257	0.335500	0.072100	0.853900
C2581	C258	0.181100	0.103700	0.852300
C2591	C259	0.933900	0.414000	0.042100
C2601	C260	0.887400	0.393300	0.066200
C2611	C261	0.845700	0.429500	0.090400
C2621	C262	0.859400	0.485300	0.090000
C2631	C263	0.902700	0.504400	0.064900
C2641	C264	0.708000	0.439300	0.121800
C2651	C265	0.819900	0.367300	0.131800
C2661	C266	0.932800	0.996700	0.932400
C2671	C267	0.889000	0.016300	0.907400
C2681	C268	0.882700	0.071300	0.905300
C2691	C269	0.912600	0.110900	0.930000
C2701	C270	0.953800	0.086700	0.954300
C2711	C271	0.740600	0.066000	0.872200
C2721	C272	0.857300	0.133600	0.864300
C2731	C273	0.894800	0.569400	0.209400
C2741	C274	0.881800	0.604000	0.238200
C2751	C275	0.914100	0.590800	0.267000
C2761	C276	0.961000	0.540000	0.265300
C2771	C277	0.974100	0.507300	0.236900
C2781	C278	0.553700	0.930200	0.289000
C2791	C279	0.567500	0.894400	0.260000
C2801	C280	0.535700	0.911200	0.231400
C2811	C281	0.490000	0.961400	0.233300
C2821	C282	0.479200	0.991400	0.261400
C2831	C283	0.214700	0.580400	0.235500
C2841	C284	0.163300	0.529600	0.228800
C2851	C285	0.154200	0.496800	0.250600
C2861	C286	0.197500	0.512700	0.280600
C2871	C287	0.250400	0.558700	0.285000
C2881	C288	0.141500	0.394500	0.251600
C2891	C289	0.018400	0.449400	0.235100
C2901	C290	0.058400	0.708300	0.204300
C2911	C291	0.004300	0.664700	0.191100
C2921	C292	0.917500	0.675700	0.184400
C2931	C293	0.885400	0.731700	0.190800
C2941	C294	0.944100	0.769900	0.203200
C2951	C295	0.810200	0.638900	0.140500
C2961	C296	0.860000	0.579400	0.179200
C2971	C297	0.326800	0.307300	0.068600
C2981	C298	0.314200	0.333000	0.099300
C2991	C299	0.239200	0.369700	0.105200
C3001	C300	0.184400	0.376500	0.078600
C3011	C301	0.203200	0.348900	0.049900
C3021	C302	0.298300	0.428400	0.152300
C3031	C303	0.138500	0.397200	0.148300
C3041	C304	0.070000	0.355900	0.134400
C3051	C305	0.083600	0.300800	0.123200
C3061	C306	0.013800	0.266700	0.114700
C3071	C307	0.926300	0.285800	0.116500
C3081	C308	0.915700	0.343400	0.127200
C3091	C309	0.949500	0.157100	0.868600
C3101	C310	0.965500	0.213700	0.879600
C3111	C311	0.048200	0.236000	0.881400
C3121	C312	0.121000	0.199500	0.874400
C3131	C313	0.103500	0.143500	0.864100
C3141	C314	0.122200	0.603300	0.105600
C3151	C315	0.159000	0.896800	0.894900
C3161	C316	0.486000	0.293400	0.469100
S11	S1	0.383200	0.549470	0.632350
S21	S2	0.341000	0.951080	0.370110
S31	S3	0.098700	0.344040	0.962410
S41	S4	0.883200	0.450530	0.867650
S51	S5	0.841000	0.048920	0.129890
S61	S6	0.598700	0.655960	0.537590
S71	S7	0.616800	0.450530	0.367650
S81	S8	0.659000	0.048920	0.629890
S91	S9	0.901300	0.655960	0.037590
S101	S10	0.116800	0.549470	0.132350
S111	S11	0.159000	0.951080	0.870110
S121	S12	0.401300	0.344040	0.462410
N11	N1	0.311200	0.905200	0.741400
N21	N2	0.152600	0.050100	0.754100
N31	N3	0.077800	0.739000	0.792000
N41	N4	0.903200	0.867700	0.828100
N51	N5	0.212200	0.191700	0.461000
N61	N6	0.241000	0.106900	0.368400
N71	N7	0.557500	0.468900	0.541400
N81	N8	0.703300	0.409500	0.616300
N91	N9	0.534000	0.033200	0.457300
N101	N10	0.669000	0.091000	0.380000
N111	N11	0.561000	0.520900	0.709700
N121	N12	0.986800	0.979200	0.789100
N131	N13	0.244300	0.596300	0.762200
N141	N14	0.398900	0.448200	0.747500
N151	N15	0.469300	0.761400	0.711000
N161	N16	0.644200	0.632600	0.670700
N171	N17	0.226200	0.311200	0.543100
N181	N18	0.279100	0.394900	0.635200
N191	N19	0.519100	0.377700	0.636200
N201	N20	0.476100	0.121200	0.361700
N211	N21	0.811200	0.094800	0.758600
N221	N22	0.652600	0.949900	0.745900
N231	N23	0.577800	0.261000	0.708000
N241	N24	0.403200	0.132300	0.671900
N251	N25	0.712200	0.808300	0.039000
N261	N26	0.741000	0.893100	0.131600
N271	N27	0.057500	0.531100	0.958600
N281	N28	0.203300	0.590500	0.883700
N291	N29	0.034000	0.966800	0.042700
N301	N30	0.169000	0.909000	0.120000
N311	N31	0.061000	0.479100	0.790300
N321	N32	0.486800	0.020800	0.710900
N331	N33	0.744300	0.403700	0.737800
N341	N34	0.898900	0.551800	0.752500
N351	N35	0.969300	0.238600	0.789000
N361	N36	0.144200	0.367400	0.829300
N371	N37	0.726200	0.688800	0.956900
N381	N38	0.779100	0.605100	0.864800
N391	N39	0.019100	0.622300	0.863800
N401	N40	0.976100	0.878800	0.138300
N411	N41	0.688800	0.094800	0.258600
N421	N42	0.847400	0.949900	0.245900
N431	N43	0.922200	0.261000	0.208000
N441	N44	0.096800	0.132300	0.171900
N451	N45	0.787800	0.808300	0.539000
N461	N46	0.759000	0.893100	0.631600
N471	N47	0.442500	0.531100	0.458600
N481	N48	0.296700	0.590500	0.383700
N491	N49	0.466000	0.966800	0.542700
N501	N50	0.331000	0.909000	0.620000
N511	N51	0.439000	0.479100	0.290300
N521	N52	0.013200	0.020800	0.210900
N531	N53	0.755700	0.403700	0.237800
N541	N54	0.601100	0.551800	0.252500
N551	N55	0.530700	0.238600	0.289000
N561	N56	0.355800	0.367400	0.329300
N571	N57	0.773800	0.688800	0.456900
N581	N58	0.720900	0.605100	0.364800
N591	N59	0.480900	0.622300	0.363800
N601	N60	0.523900	0.878800	0.638300
N611	N61	0.188800	0.905200	0.241400
N621	N62	0.347400	0.050100	0.254100
N631	N63	0.422200	0.739000	0.292000
N641	N64	0.596800	0.867700	0.328100
N651	N65	0.287800	0.191700	0.961000
N661	N66	0.259000	0.106900	0.868400
N671	N67	0.942500	0.468900	0.041400
N681	N68	0.796700	0.409500	0.116300
N691	N69	0.966000	0.033200	0.957300
N701	N70	0.831000	0.091000	0.880000
N711	N71	0.939000	0.520900	0.209700
N721	N72	0.513200	0.979200	0.289100
N731	N73	0.255700	0.596300	0.262200
N741	N74	0.101100	0.448200	0.247500
N751	N75	0.030700	0.761400	0.211000
N761	N76	0.855800	0.632600	0.170700
N771	N77	0.273800	0.311200	0.043100
N781	N78	0.220900	0.394900	0.135200
N791	N79	0.980900	0.377700	0.136200
N801	N80	0.023900	0.121200	0.861700
O11	O1	0.024100	0.092700	0.774000
O21	O2	0.864000	0.957700	0.835090
O31	O3	0.331300	0.071100	0.328190
O41	O4	0.730400	0.346000	0.649800
O51	O5	0.692500	0.153600	0.343900
O61	O6	0.525200	0.405600	0.725000
O71	O7	0.680500	0.541100	0.661800
O81	O8	0.377600	0.428100	0.673100
O91	O9	0.478300	0.548100	0.640200
O101	O10	0.348700	0.500100	0.613300
O111	O11	0.327600	0.571300	0.658400
O121	O12	0.433300	0.953500	0.359900
O131	O13	0.313900	0.999000	0.390500
O141	O14	0.283900	0.930400	0.344600
O151	O15	0.177500	0.319000	0.972900
O161	O16	0.072800	0.393700	0.982200
O171	O17	0.096500	0.346700	0.929000
O181	O18	0.524100	0.907300	0.726000
O191	O19	0.364000	0.042300	0.664910
O201	O20	0.831300	0.928900	0.171810
O211	O21	0.230400	0.654000	0.850200
O221	O22	0.192500	0.846400	0.156100
O231	O23	0.025200	0.594400	0.775000
O241	O24	0.180500	0.458900	0.838200
O251	O25	0.877600	0.571900	0.826900
O261	O26	0.978300	0.451900	0.859800
O271	O27	0.848700	0.499900	0.886700
O281	O28	0.827600	0.428700	0.841600
O291	O29	0.933300	0.046500	0.140100
O301	O30	0.813900	0.001000	0.109500
O311	O31	0.783900	0.069600	0.155400
O321	O32	0.677500	0.681000	0.527100
O331	O33	0.572800	0.606300	0.517800
O341	O34	0.596500	0.653300	0.571000
O351	O35	0.975900	0.907300	0.226000
O361	O36	0.136000	0.042300	0.164910
O371	O37	0.668700	0.928900	0.671810
O381	O38	0.269600	0.654000	0.350200
O391	O39	0.307500	0.846400	0.656100
O401	O40	0.474800	0.594400	0.275000
O411	O41	0.319500	0.458900	0.338200
O421	O42	0.622400	0.571900	0.326900
O431	O43	0.521700	0.451900	0.359800
O441	O44	0.651300	0.499900	0.386700
O451	O45	0.672400	0.428700	0.341600
O461	O46	0.566700	0.046500	0.640100
O471	O47	0.686100	0.001000	0.609500
O481	O48	0.716100	0.069600	0.655400
O491	O49	0.822500	0.681000	0.027100
O501	O50	0.927200	0.606300	0.017800
O511	O51	0.903500	0.653300	0.071000
O521	O52	0.475900	0.092700	0.274000
O531	O53	0.636000	0.957700	0.335090
O541	O54	0.168700	0.071100	0.828190
O551	O55	0.769600	0.346000	0.149800
O561	O56	0.807500	0.153600	0.843900
O571	O57	0.974800	0.405600	0.225000
O581	O58	0.819500	0.541100	0.161800
O591	O59	0.122400	0.428100	0.173100
O601	O60	0.021700	0.548100	0.140200
O611	O61	0.151300	0.500100	0.113300
O621	O62	0.172400	0.571300	0.158400
O631	O63	0.066700	0.953500	0.859900
O641	O64	0.186100	0.999000	0.890500
O651	O65	0.216100	0.930400	0.844600
O661	O66	0.322500	0.319000	0.472900
O671	O67	0.427200	0.393700	0.482200
O681	O68	0.403500	0.346700	0.429000
F11	F1	0.418600	0.587200	0.577900
F21	F2	0.414700	0.650200	0.618300
F31	F3	0.290600	0.612600	0.597600
F41	F4	0.377400	0.849200	0.382700
F51	F5	0.260800	0.886800	0.406200
F61	F6	0.390900	0.913100	0.423000
F71	F7	0.001300	0.288700	0.999180
F81	F8	0.034000	0.243700	0.955400
F91	F9	0.939200	0.305300	0.956100
F101	F10	0.918600	0.412800	0.922100
F111	F11	0.914700	0.349800	0.881700
F121	F12	0.790600	0.387400	0.902400
F131	F13	0.877400	0.150800	0.117300
F141	F14	0.760800	0.113200	0.093800
F151	F15	0.890900	0.086900	0.077000
F161	F16	0.501300	0.711300	0.500820
F171	F17	0.534000	0.756300	0.544600
F181	F18	0.439200	0.694700	0.543900
F191	F19	0.581400	0.412800	0.422100
F201	F20	0.585300	0.349800	0.381700
F211	F21	0.709400	0.387400	0.402400
F221	F22	0.622600	0.150800	0.617300
F231	F23	0.739200	0.113200	0.593800
F241	F24	0.609100	0.086900	0.577000
F251	F25	0.998700	0.711300	0.000820
F261	F26	0.966000	0.756300	0.044600
F271	F27	0.060800	0.694700	0.043900
F281	F28	0.081400	0.587200	0.077900
F291	F29	0.085300	0.650200	0.118300
F301	F30	0.209400	0.612600	0.097600
F311	F31	0.122600	0.849200	0.882700
F321	F32	0.239200	0.886800	0.906200
F331	F33	0.109100	0.913100	0.923000
F341	F34	0.498700	0.288700	0.499180
F351	F35	0.466000	0.243700	0.455400
F361	F36	0.560800	0.305300	0.456100
C3171	C317	0.268700	0.137300	0.552400
S131	S13	0.378300	0.147750	0.539860
O691	O69	0.393700	0.099200	0.516400
O701	O70	0.367600	0.200000	0.526300
O711	O71	0.431500	0.149100	0.568500
F371	F37	0.208900	0.134500	0.531000
F381	F38	0.242600	0.177200	0.576600
F391	F39	0.263200	0.087500	0.568200
C3181	C318	0.901100	0.727200	0.696100
S141	S14	0.871300	0.779910	0.674710
O721	O72	0.817900	0.807600	0.700200
O731	O73	0.817000	0.755700	0.649500
O741	O74	0.951100	0.808900	0.667600
F401	F40	0.950200	0.743600	0.722300
F411	F41	0.835000	0.696300	0.703600
F421	F42	0.958800	0.692700	0.677500
C3191	C319	0.646000	0.771400	0.798700
S151	S15	0.675800	0.720960	0.822020
O751	O75	0.730000	0.747300	0.846500
O761	O76	0.599300	0.691500	0.829300
O771	O77	0.728400	0.693300	0.795300
F431	F43	0.603200	0.747000	0.772100
F441	F44	0.580400	0.802300	0.812300
F451	F45	0.711900	0.806200	0.794900
C3201	C320	0.768700	0.862700	0.947600
S161	S16	0.878300	0.852250	0.960140
O781	O78	0.893700	0.900800	0.983600
O791	O79	0.867600	0.800000	0.973700
O801	O80	0.931500	0.850900	0.931500
F461	F46	0.708900	0.865500	0.969000
F471	F47	0.742600	0.822800	0.923400
F481	F48	0.763200	0.912500	0.931800
C3211	C321	0.401100	0.272800	0.803900
S171	S17	0.371300	0.220090	0.825290
O811	O81	0.317900	0.192400	0.799800
O821	O82	0.317000	0.244300	0.850500
O831	O83	0.451100	0.191100	0.832400
F491	F49	0.450200	0.256400	0.777700
F501	F50	0.335000	0.303700	0.796400
F511	F51	0.458800	0.307300	0.822500
C3221	C322	0.146000	0.228600	0.701300
S181	S18	0.175800	0.279040	0.677980
O841	O84	0.230000	0.252700	0.653500
O851	O85	0.099300	0.308500	0.670700
O861	O86	0.228400	0.306700	0.704700
F521	F52	0.103200	0.253000	0.727900
F531	F53	0.080400	0.197700	0.687700
F541	F54	0.211900	0.193800	0.705100
C3231	C323	0.731300	0.862700	0.447600
S191	S19	0.621700	0.852250	0.460140
O871	O87	0.606300	0.900800	0.483600
O881	O88	0.632400	0.800000	0.473700
O891	O89	0.568500	0.850900	0.431500
F551	F55	0.791100	0.865500	0.469000
F561	F56	0.757400	0.822800	0.423400
F571	F57	0.736800	0.912500	0.431800
C3241	C324	0.098900	0.272800	0.303900
S201	S20	0.128700	0.220090	0.325290
O901	O90	0.182100	0.192400	0.299800
O911	O91	0.183000	0.244300	0.350500
O921	O92	0.048900	0.191100	0.332400
F581	F58	0.049800	0.256400	0.277700
F591	F59	0.165000	0.303700	0.296400
F601	F60	0.041200	0.307300	0.322500
C3251	C325	0.354000	0.228600	0.201300
S211	S21	0.324200	0.279040	0.177980
O931	O93	0.270000	0.252700	0.153500
O941	O94	0.400700	0.308500	0.170700
O951	O95	0.271600	0.306700	0.204700
F611	F61	0.396800	0.253000	0.227900
F621	F62	0.419600	0.197700	0.187700
F631	F63	0.288100	0.193800	0.205100
C3261	C326	0.231300	0.137300	0.052400
S221	S22	0.121700	0.147750	0.039860
O961	O96	0.106300	0.099200	0.016400
O971	O97	0.132400	0.200000	0.026300
O981	O98	0.068500	0.149100	0.068500
F641	F64	0.291100	0.134500	0.031000
F651	F65	0.257400	0.177200	0.076600
F661	F66	0.236800	0.087500	0.068200
C3271	C327	0.598900	0.727200	0.196100
S231	S23	0.628700	0.779910	0.174710
O991	O99	0.682100	0.807600	0.200200
O1001	O100	0.683000	0.755700	0.149500
O1011	O101	0.548900	0.808900	0.167600
F671	F67	0.549800	0.743600	0.222300
F681	F68	0.665000	0.696300	0.203600
F691	F69	0.541200	0.692700	0.177500
C3281	C328	0.854000	0.771400	0.298700
S241	S24	0.824200	0.720960	0.322020
O1021	O102	0.770000	0.747300	0.346500
O1031	O103	0.900700	0.691500	0.329300
O1041	O104	0.771600	0.693300	0.295300
F701	F70	0.896800	0.747000	0.272100
F711	F71	0.919600	0.802300	0.312300
F721	F72	0.788100	0.806200	0.294900
