data_PAXWOB_clean_PM
_symmetry_space_group_name_H-M	'P1'
_cell_length_a	28.528000
_cell_length_b	8.426000
_cell_length_c	16.159000
_cell_angle_alpha	90.000000
_cell_angle_beta	90.000000
_cell_angle_gamma	90.000000
_symmetry_Int_Tables_number 1

loop_
_symmetry_equiv_pos_as_xyz
'x,y,z'

loop_
_atom_site_label
_atom_site_type_symbol
_atom_site_fract_x
_atom_site_fract_y
_atom_site_fract_z
Zn11	Zn1	0.122610	0.258650	0.234050
O11	O1	0.053310	0.064900	0.433600
O21	O2	0.075470	0.244900	0.317100
O31	O3	0.104730	0.294500	0.462880
O41	O4	0.093820	0.823100	0.629410
O51	O5	0.078140	0.660500	0.501500
O61	O6	0.012820	0.814300	0.566380
P11	P1	0.065860	0.233370	0.408520
H11	H1	0.029100	0.323000	0.425000
P21	P2	0.058340	0.724800	0.581730
H21	H2	0.047600	0.599000	0.626000
Zn21	Zn2	0.122610	0.758650	0.734050
O71	O7	0.053310	0.564900	0.933600
O81	O8	0.075470	0.744900	0.817100
O91	O9	0.104730	0.794500	0.962880
O101	O10	0.093820	0.323100	0.129410
O111	O11	0.078140	0.160500	0.001500
O121	O12	0.012820	0.314300	0.066380
P31	P3	0.065860	0.733370	0.908520
H31	H3	0.029100	0.823000	0.925000
P41	P4	0.058340	0.224800	0.081730
H41	H4	0.047600	0.099000	0.126000
Zn31	Zn3	0.622610	0.258650	0.734050
O131	O13	0.553310	0.064900	0.933600
O141	O14	0.575470	0.244900	0.817100
O151	O15	0.604730	0.294500	0.962880
O161	O16	0.593820	0.823100	0.129410
O171	O17	0.578140	0.660500	0.001500
O181	O18	0.512820	0.814300	0.066380
P51	P5	0.565860	0.233370	0.908520
H51	H5	0.529100	0.323000	0.925000
P61	P6	0.558340	0.724800	0.081730
H61	H6	0.547600	0.599000	0.126000
Zn41	Zn4	0.622610	0.758650	0.234050
O191	O19	0.553310	0.564900	0.433600
O201	O20	0.575470	0.744900	0.317100
O211	O21	0.604730	0.794500	0.462880
O221	O22	0.593820	0.323100	0.629410
O231	O23	0.578140	0.160500	0.501500
O241	O24	0.512820	0.314300	0.566380
P71	P7	0.565860	0.733370	0.408520
H71	H7	0.529100	0.823000	0.425000
P81	P8	0.558340	0.224800	0.581730
H81	H8	0.547600	0.099000	0.626000
Zn51	Zn5	0.877390	0.741350	0.234050
O251	O25	0.946690	0.935100	0.433600
O261	O26	0.924530	0.755100	0.317100
O271	O27	0.895270	0.705500	0.462880
O281	O28	0.906180	0.176900	0.629410
O291	O29	0.921860	0.339500	0.501500
O301	O30	0.987180	0.185700	0.566380
P91	P9	0.934140	0.766630	0.408520
H91	H9	0.970900	0.677000	0.425000
P101	P10	0.941660	0.275200	0.581730
H101	H10	0.952400	0.401000	0.626000
Zn61	Zn6	0.877390	0.241350	0.734050
O311	O31	0.946690	0.435100	0.933600
O321	O32	0.924530	0.255100	0.817100
O331	O33	0.895270	0.205500	0.962880
O341	O34	0.906180	0.676900	0.129410
O351	O35	0.921860	0.839500	0.001500
O361	O36	0.987180	0.685700	0.066380
P111	P11	0.934140	0.266630	0.908520
H111	H11	0.970900	0.177000	0.925000
P121	P12	0.941660	0.775200	0.081730
H121	H12	0.952400	0.901000	0.126000
Zn71	Zn7	0.377390	0.741350	0.734050
O371	O37	0.446690	0.935100	0.933600
O381	O38	0.424530	0.755100	0.817100
O391	O39	0.395270	0.705500	0.962880
O401	O40	0.406180	0.176900	0.129410
O411	O41	0.421860	0.339500	0.001500
O421	O42	0.487180	0.185700	0.066380
P131	P13	0.434140	0.766630	0.908520
H131	H13	0.470900	0.677000	0.925000
P141	P14	0.441660	0.275200	0.081730
H141	H14	0.452400	0.401000	0.126000
Zn81	Zn8	0.377390	0.241350	0.234050
O431	O43	0.446690	0.435100	0.433600
O441	O44	0.424530	0.255100	0.317100
O451	O45	0.395270	0.205500	0.462880
O461	O46	0.406180	0.676900	0.629410
O471	O47	0.421860	0.839500	0.501500
O481	O48	0.487180	0.685700	0.566380
P151	P15	0.434140	0.266630	0.408520
H151	H15	0.470900	0.177000	0.425000
P161	P16	0.441660	0.775200	0.581730
H161	H16	0.452400	0.901000	0.626000
Zn91	Zn9	0.372610	0.991350	0.484050
O491	O49	0.303310	0.185100	0.683600
O501	O50	0.325470	0.005100	0.567100
O511	O51	0.354730	0.955500	0.712880
O521	O52	0.343820	0.426900	0.879410
O531	O53	0.328140	0.589500	0.751500
O541	O54	0.262820	0.435700	0.816380
P171	P17	0.315860	0.016630	0.658520
H171	H17	0.279100	0.927000	0.675000
P181	P18	0.308340	0.525200	0.831730
H181	H18	0.297600	0.651000	0.876000
Zn101	Zn10	0.372610	0.491350	0.984050
O551	O55	0.303310	0.685100	0.183600
O561	O56	0.325470	0.505100	0.067100
O571	O57	0.354730	0.455500	0.212880
O581	O58	0.343820	0.926900	0.379410
O591	O59	0.328140	0.089500	0.251500
O601	O60	0.262820	0.935700	0.316380
P191	P19	0.315860	0.516630	0.158520
H191	H19	0.279100	0.427000	0.175000
P201	P20	0.308340	0.025200	0.331730
H201	H20	0.297600	0.151000	0.376000
Zn111	Zn11	0.872610	0.991350	0.984050
O611	O61	0.803310	0.185100	0.183600
O621	O62	0.825470	0.005100	0.067100
O631	O63	0.854730	0.955500	0.212880
O641	O64	0.843820	0.426900	0.379410
O651	O65	0.828140	0.589500	0.251500
O661	O66	0.762820	0.435700	0.316380
P211	P21	0.815860	0.016630	0.158520
H211	H21	0.779100	0.927000	0.175000
P221	P22	0.808340	0.525200	0.331730
H221	H22	0.797600	0.651000	0.376000
Zn121	Zn12	0.872610	0.491350	0.484050
O671	O67	0.803310	0.685100	0.683600
O681	O68	0.825470	0.505100	0.567100
O691	O69	0.854730	0.455500	0.712880
O701	O70	0.843820	0.926900	0.879410
O711	O71	0.828140	0.089500	0.751500
O721	O72	0.762820	0.935700	0.816380
P231	P23	0.815860	0.516630	0.658520
H231	H23	0.779100	0.427000	0.675000
P241	P24	0.808340	0.025200	0.831730
H241	H24	0.797600	0.151000	0.876000
Zn131	Zn13	0.127390	0.508650	0.484050
O731	O73	0.196690	0.314900	0.683600
O741	O74	0.174530	0.494900	0.567100
O751	O75	0.145270	0.544500	0.712880
O761	O76	0.156180	0.073100	0.879410
O771	O77	0.171860	0.910500	0.751500
O781	O78	0.237180	0.064300	0.816380
P251	P25	0.184140	0.483370	0.658520
H251	H25	0.220900	0.573000	0.675000
P261	P26	0.191660	0.974800	0.831730
H261	H26	0.202400	0.849000	0.876000
Zn141	Zn14	0.127390	0.008650	0.984050
O791	O79	0.196690	0.814900	0.183600
O801	O80	0.174530	0.994900	0.067100
O811	O81	0.145270	0.044500	0.212880
O821	O82	0.156180	0.573100	0.379410
O831	O83	0.171860	0.410500	0.251500
O841	O84	0.237180	0.564300	0.316380
P271	P27	0.184140	0.983370	0.158520
H271	H27	0.220900	0.073000	0.175000
P281	P28	0.191660	0.474800	0.331730
H281	H28	0.202400	0.349000	0.376000
Zn151	Zn15	0.627390	0.508650	0.984050
O851	O85	0.696690	0.314900	0.183600
O861	O86	0.674530	0.494900	0.067100
O871	O87	0.645270	0.544500	0.212880
O881	O88	0.656180	0.073100	0.379410
O891	O89	0.671860	0.910500	0.251500
O901	O90	0.737180	0.064300	0.316380
P291	P29	0.684140	0.483370	0.158520
H291	H29	0.720900	0.573000	0.175000
P301	P30	0.691660	0.974800	0.331730
H301	H30	0.702400	0.849000	0.376000
Zn161	Zn16	0.627390	0.008650	0.484050
O911	O91	0.696690	0.814900	0.683600
O921	O92	0.674530	0.994900	0.567100
O931	O93	0.645270	0.044500	0.712880
O941	O94	0.656180	0.573100	0.879410
O951	O95	0.671860	0.410500	0.751500
O961	O96	0.737180	0.564300	0.816380
P311	P31	0.684140	0.983370	0.658520
H311	H31	0.720900	0.073000	0.675000
P321	P32	0.691660	0.474800	0.831730
H321	H32	0.702400	0.349000	0.876000
Zn171	Zn17	0.000000	0.000000	0.500180
Zn181	Zn18	0.000000	0.500000	0.000180
Zn191	Zn19	0.500000	0.000000	0.000180
Zn201	Zn20	0.500000	0.500000	0.500180
Zn211	Zn21	0.250000	0.250000	0.750180
Zn221	Zn22	0.250000	0.750000	0.250180
Zn231	Zn23	0.750000	0.250000	0.250180
Zn241	Zn24	0.750000	0.750000	0.750180
