data_PEBCAA_clean_PM
_symmetry_space_group_name_H-M	'P1'
_cell_length_a	9.366000
_cell_length_b	9.882000
_cell_length_c	19.183000
_cell_angle_alpha	85.406000
_cell_angle_beta	85.029000
_cell_angle_gamma	114.485000
_symmetry_Int_Tables_number 1

loop_
_symmetry_equiv_pos_as_xyz
'x,y,z'

loop_
_atom_site_label
_atom_site_type_symbol
_atom_site_fract_x
_atom_site_fract_y
_atom_site_fract_z
Zn11	Zn1	0.746000	0.459300	0.666780
Zn21	Zn2	0.360800	0.060300	0.818490
Zn31	Zn3	0.111700	0.125500	0.569790
Zn41	Zn4	0.667000	0.664900	0.944150
Zn51	Zn5	0.791400	0.886200	0.730170
P11	P1	0.390200	0.241100	0.674500
P21	P2	0.432700	0.350900	0.898800
P31	P3	0.001000	0.816000	0.840700
P41	P4	0.850100	0.191500	0.653700
P51	P5	0.479400	0.789300	0.849300
P61	P6	0.858000	0.778400	0.587300
O11	O1	0.864000	0.339800	0.674400
O21	O2	0.888500	0.635800	0.603000
O31	O3	0.538000	0.376000	0.638200
O41	O4	0.133000	0.970000	0.841700
O51	O5	0.441900	0.141000	0.721100
O61	O6	0.458300	0.210600	0.882200
O71	O7	0.421000	0.910000	0.856300
O81	O8	0.292000	0.162000	0.621500
O91	O9	0.958000	0.210000	0.587900
O101	O10	0.770500	0.760900	0.522100
O111	O11	0.019200	0.912100	0.573900
O121	O12	0.581100	0.458900	0.925600
O131	O13	0.292000	0.304000	0.957600
O141	O14	0.543000	0.769000	0.916600
O151	O15	0.890000	0.773000	0.907000
O161	O16	0.746600	0.784000	0.648800
O171	O17	0.875000	0.100000	0.715000
O181	O18	0.916000	0.798000	0.776700
O191	O19	0.588000	0.815000	0.785700
O201	O20	0.286000	0.298000	0.722000
O211	O21	0.398000	0.419000	0.832100
O221	O22	0.066000	0.693000	0.838000
O231	O23	0.675000	0.104000	0.634200
O241	O24	0.328000	0.643000	0.843300
H11	H1	0.329000	0.345000	0.764400
H21	H2	0.163000	0.675000	0.840000
H31	H3	0.592000	0.117000	0.665300
H41	H4	0.355000	0.556000	0.838900
Zn61	Zn6	0.254000	0.540700	0.333220
Zn71	Zn7	0.639200	0.939700	0.181510
Zn81	Zn8	0.888300	0.874500	0.430210
Zn91	Zn9	0.333000	0.335100	0.055850
Zn101	Zn10	0.208600	0.113800	0.269830
P71	P7	0.609800	0.758900	0.325500
P81	P8	0.567300	0.649100	0.101200
P91	P9	0.999000	0.184000	0.159300
P101	P10	0.149900	0.808500	0.346300
P111	P11	0.520600	0.210700	0.150700
P121	P12	0.142000	0.221600	0.412700
O251	O25	0.136000	0.660200	0.325600
O261	O26	0.111500	0.364200	0.397000
O271	O27	0.462000	0.624000	0.361800
O281	O28	0.867000	0.030000	0.158300
O291	O29	0.558100	0.859000	0.278900
O301	O30	0.541700	0.789400	0.117800
O311	O31	0.579000	0.090000	0.143700
O321	O32	0.708000	0.838000	0.378500
O331	O33	0.042000	0.790000	0.412100
O341	O34	0.229500	0.239100	0.477900
O351	O35	0.980800	0.087900	0.426100
O361	O36	0.418900	0.541100	0.074400
O371	O37	0.708000	0.696000	0.042400
O381	O38	0.457000	0.231000	0.083400
O391	O39	0.110000	0.227000	0.093000
O401	O40	0.253400	0.216000	0.351200
O411	O41	0.125000	0.900000	0.285000
O421	O42	0.084000	0.202000	0.223300
O431	O43	0.412000	0.185000	0.214300
O441	O44	0.714000	0.702000	0.278000
O451	O45	0.602000	0.581000	0.167900
O461	O46	0.934000	0.307000	0.162000
O471	O47	0.325000	0.896000	0.365800
O481	O48	0.672000	0.357000	0.156700
H51	H5	0.671000	0.655000	0.235600
H61	H6	0.837000	0.325000	0.160000
H71	H7	0.408000	0.883000	0.334700
H81	H8	0.645000	0.444000	0.161100
