data_PEBYEA_clean_PM
_symmetry_space_group_name_H-M	'P1'
_cell_length_a	12.130000
_cell_length_b	12.130000
_cell_length_c	30.555000
_cell_angle_alpha	90.000000
_cell_angle_beta	90.000000
_cell_angle_gamma	90.000000
_symmetry_Int_Tables_number 1

loop_
_symmetry_equiv_pos_as_xyz
'x,y,z'

loop_
_atom_site_label
_atom_site_type_symbol
_atom_site_fract_x
_atom_site_fract_y
_atom_site_fract_z
V11	V1	0.502700	0.769400	0.377100
V21	V2	0.565600	0.635000	0.272100
V31	V3	0.408000	0.858100	0.488000
V41	V4	0.764500	0.485900	0.301600
V51	V5	0.238900	0.012400	0.439500
V61	V6	0.003100	0.771100	0.363400
V71	V7	0.365200	0.060900	0.217800
V81	V8	0.911400	0.857600	0.253700
V91	V9	0.742200	0.014600	0.300000
V101	V10	0.259600	0.485000	0.440600
P11	P1	0.502400	0.606300	0.457100
P21	P2	0.752600	0.751200	0.329800
P31	P3	0.500200	0.891700	0.283400
P41	P4	0.250900	0.751200	0.412600
P51	P5	0.607000	0.992500	0.535800
P61	P6	0.752300	0.251000	0.246500
P71	P7	0.995700	0.892900	0.456800
O11	O1	0.501400	0.861700	0.415500
O21	O2	0.503000	0.640600	0.319700
O31	O3	0.744300	0.454300	0.352100
O41	O4	0.255800	0.038400	0.389400
O51	O5	0.619700	0.482500	0.274200
O61	O6	0.372400	0.010600	0.475500
O71	O7	0.003800	0.860000	0.325000
O81	O8	0.365400	0.999800	0.170900
O91	O9	0.239600	0.453800	0.392100
O101	O10	0.767400	0.047900	0.350200
O111	O11	0.510300	0.127700	0.225300
O121	O12	0.883100	0.015200	0.271300
O131	O13	0.549200	0.637300	0.411800
O141	O14	0.599100	0.552600	0.481800
O151	O15	0.460000	0.705700	0.483400
O161	O16	0.412400	0.520200	0.453800
O171	O17	0.657700	0.785700	0.358200
O181	O18	0.720200	0.651800	0.299700
O191	O19	0.850200	0.717400	0.356900
O201	O20	0.782400	0.846300	0.297100
O211	O21	0.448300	0.855200	0.326600
O221	O22	0.551800	0.793700	0.260000
O231	O23	0.405800	0.935800	0.254700
O241	O24	0.588100	0.982600	0.291200
O251	O25	0.347400	0.713700	0.384500
O261	O26	0.283800	0.848700	0.443200
O271	O27	0.156700	0.794500	0.385200
O281	O28	0.215200	0.650600	0.440700
O291	O29	0.560000	0.900300	0.507100
O301	O30	0.517200	0.081400	0.543800
O311	O31	0.647600	0.941400	0.578600
O321	O32	0.703500	0.040800	0.510900
O331	O33	0.800000	0.341200	0.277400
O341	O34	0.844500	0.203000	0.219800
O351	O35	0.654400	0.299900	0.221700
O361	O36	0.707100	0.160700	0.278000
O371	O37	0.086500	0.979100	0.455000
O381	O38	0.948000	0.865100	0.411800
O391	O39	0.037600	0.793100	0.483000
O401	O40	0.899600	0.944300	0.482900
K11	K1	0.410500	0.775100	0.180300
K21	K2	0.439200	0.290500	0.067200
K31	K3	0.072800	0.229800	0.061900
K41	K4	0.046300	0.709600	0.174000
V111	V11	0.497300	0.230600	0.877100
V121	V12	0.434400	0.365000	0.772100
V131	V13	0.592000	0.141900	0.988000
V141	V14	0.235500	0.514100	0.801600
V151	V15	0.761100	0.987600	0.939500
V161	V16	0.996900	0.228900	0.863400
V171	V17	0.634800	0.939100	0.717800
V181	V18	0.088600	0.142400	0.753700
V191	V19	0.257800	0.985400	0.800000
V201	V20	0.740400	0.515000	0.940600
P81	P8	0.497600	0.393700	0.957100
P91	P9	0.247400	0.248800	0.829800
P101	P10	0.499800	0.108300	0.783400
P111	P11	0.749100	0.248800	0.912600
P121	P12	0.393000	0.007500	0.035800
P131	P13	0.247700	0.749000	0.746500
P141	P14	0.004300	0.107100	0.956800
O411	O41	0.498600	0.138300	0.915500
O421	O42	0.497000	0.359400	0.819700
O431	O43	0.255700	0.545700	0.852100
O441	O44	0.744200	0.961600	0.889400
O451	O45	0.380300	0.517500	0.774200
O461	O46	0.627600	0.989400	0.975500
O471	O47	0.996200	0.140000	0.825000
O481	O48	0.634600	0.000200	0.670900
O491	O49	0.760400	0.546200	0.892100
O501	O50	0.232600	0.952100	0.850200
O511	O51	0.489700	0.872300	0.725300
O521	O52	0.116900	0.984800	0.771300
O531	O53	0.450800	0.362700	0.911800
O541	O54	0.400900	0.447400	0.981800
O551	O55	0.540000	0.294300	0.983400
O561	O56	0.587600	0.479800	0.953800
O571	O57	0.342300	0.214300	0.858200
O581	O58	0.279800	0.348200	0.799700
O591	O59	0.149800	0.282600	0.856900
O601	O60	0.217600	0.153700	0.797100
O611	O61	0.551700	0.144800	0.826600
O621	O62	0.448200	0.206300	0.760000
O631	O63	0.594200	0.064200	0.754700
O641	O64	0.411900	0.017400	0.791200
O651	O65	0.652600	0.286300	0.884500
O661	O66	0.716200	0.151300	0.943200
O671	O67	0.843300	0.205500	0.885200
O681	O68	0.784800	0.349400	0.940700
O691	O69	0.440000	0.099700	0.007100
O701	O70	0.482800	0.918600	0.043800
O711	O71	0.352400	0.058600	0.078600
O721	O72	0.296500	0.959200	0.010900
O731	O73	0.200000	0.658800	0.777400
O741	O74	0.155500	0.797000	0.719800
O751	O75	0.345600	0.700100	0.721700
O761	O76	0.292900	0.839300	0.778000
O771	O77	0.913500	0.020900	0.955000
O781	O78	0.052000	0.134900	0.911800
O791	O79	0.962400	0.206900	0.983000
O801	O80	0.100400	0.055700	0.982900
K51	K5	0.589500	0.224900	0.680300
K61	K6	0.560800	0.709500	0.567200
K71	K7	0.927200	0.770200	0.561900
K81	K8	0.953700	0.290400	0.674000
V211	V21	0.230600	0.502700	0.127100
V221	V22	0.365000	0.565600	0.022100
V231	V23	0.141900	0.408000	0.238000
V241	V24	0.514100	0.764500	0.051600
V251	V25	0.987600	0.238900	0.189500
V261	V26	0.228900	0.003100	0.113400
V271	V27	0.939100	0.365200	0.967800
V281	V28	0.142400	0.911400	0.003700
V291	V29	0.985400	0.742200	0.050000
V301	V30	0.515000	0.259600	0.190600
P151	P15	0.393700	0.502400	0.207100
P161	P16	0.248800	0.752600	0.079800
P171	P17	0.108300	0.500200	0.033400
P181	P18	0.248800	0.250900	0.162600
P191	P19	0.007500	0.607000	0.285800
P201	P20	0.749000	0.752300	0.996500
P211	P21	0.107100	0.995700	0.206800
O811	O81	0.138300	0.501400	0.165500
O821	O82	0.359400	0.503000	0.069700
O831	O83	0.545700	0.744300	0.102100
O841	O84	0.961600	0.255800	0.139400
O851	O85	0.517500	0.619700	0.024200
O861	O86	0.989400	0.372400	0.225500
O871	O87	0.140000	0.003800	0.075000
O881	O88	0.000200	0.365400	0.920900
O891	O89	0.546200	0.239600	0.142100
O901	O90	0.952100	0.767400	0.100200
O911	O91	0.872300	0.510300	0.975300
O921	O92	0.984800	0.883100	0.021300
O931	O93	0.362700	0.549200	0.161800
O941	O94	0.447400	0.599100	0.231800
O951	O95	0.294300	0.460000	0.233400
O961	O96	0.479800	0.412400	0.203800
O971	O97	0.214300	0.657700	0.108200
O981	O98	0.348200	0.720200	0.049700
O991	O99	0.282600	0.850200	0.106900
O1001	O100	0.153700	0.782400	0.047100
O1011	O101	0.144800	0.448300	0.076600
O1021	O102	0.206300	0.551800	0.010000
O1031	O103	0.064200	0.405800	0.004700
O1041	O104	0.017400	0.588100	0.041200
O1051	O105	0.286300	0.347400	0.134500
O1061	O106	0.151300	0.283800	0.193200
O1071	O107	0.205500	0.156700	0.135200
O1081	O108	0.349400	0.215200	0.190700
O1091	O109	0.099700	0.560000	0.257100
O1101	O110	0.918600	0.517200	0.293800
O1111	O111	0.058600	0.647600	0.328600
O1121	O112	0.959200	0.703500	0.260900
O1131	O113	0.658800	0.800000	0.027400
O1141	O114	0.797000	0.844500	0.969800
O1151	O115	0.700100	0.654400	0.971700
O1161	O116	0.839300	0.707100	0.028000
O1171	O117	0.020900	0.086500	0.205000
O1181	O118	0.134900	0.948000	0.161800
O1191	O119	0.206900	0.037600	0.233000
O1201	O120	0.055700	0.899600	0.232900
K91	K9	0.224900	0.410500	0.930300
K101	K10	0.709500	0.439200	0.817200
K111	K11	0.770200	0.072800	0.811900
K121	K12	0.290400	0.046300	0.924000
V311	V31	0.769400	0.497300	0.627100
V321	V32	0.635000	0.434400	0.522100
V331	V33	0.858100	0.592000	0.738000
V341	V34	0.485900	0.235500	0.551600
V351	V35	0.012400	0.761100	0.689500
V361	V36	0.771100	0.996900	0.613400
V371	V37	0.060900	0.634800	0.467800
V381	V38	0.857600	0.088600	0.503700
V391	V39	0.014600	0.257800	0.550000
V401	V40	0.485000	0.740400	0.690600
P221	P22	0.606300	0.497600	0.707100
P231	P23	0.751200	0.247400	0.579800
P241	P24	0.891700	0.499800	0.533400
P251	P25	0.751200	0.749100	0.662600
P261	P26	0.992500	0.393000	0.785800
P271	P27	0.251000	0.247700	0.496500
P281	P28	0.892900	0.004300	0.706800
O1211	O121	0.861700	0.498600	0.665500
O1221	O122	0.640600	0.497000	0.569700
O1231	O123	0.454300	0.255700	0.602100
O1241	O124	0.038400	0.744200	0.639400
O1251	O125	0.482500	0.380300	0.524200
O1261	O126	0.010600	0.627600	0.725500
O1271	O127	0.860000	0.996200	0.575000
O1281	O128	0.999800	0.634600	0.420900
O1291	O129	0.453800	0.760400	0.642100
O1301	O130	0.047900	0.232600	0.600200
O1311	O131	0.127700	0.489700	0.475300
O1321	O132	0.015200	0.116900	0.521300
O1331	O133	0.637300	0.450800	0.661800
O1341	O134	0.552600	0.400900	0.731800
O1351	O135	0.705700	0.540000	0.733400
O1361	O136	0.520200	0.587600	0.703800
O1371	O137	0.785700	0.342300	0.608200
O1381	O138	0.651800	0.279800	0.549700
O1391	O139	0.717400	0.149800	0.606900
O1401	O140	0.846300	0.217600	0.547100
O1411	O141	0.855200	0.551700	0.576600
O1421	O142	0.793700	0.448200	0.510000
O1431	O143	0.935800	0.594200	0.504700
O1441	O144	0.982600	0.411900	0.541200
O1451	O145	0.713700	0.652600	0.634500
O1461	O146	0.848700	0.716200	0.693200
O1471	O147	0.794500	0.843300	0.635200
O1481	O148	0.650600	0.784800	0.690700
O1491	O149	0.900300	0.440000	0.757100
O1501	O150	0.081400	0.482800	0.793800
O1511	O151	0.941400	0.352400	0.828600
O1521	O152	0.040800	0.296500	0.760900
O1531	O153	0.341200	0.200000	0.527400
O1541	O154	0.203000	0.155500	0.469800
O1551	O155	0.299900	0.345600	0.471700
O1561	O156	0.160700	0.292900	0.528000
O1571	O157	0.979100	0.913500	0.705000
O1581	O158	0.865100	0.052000	0.661800
O1591	O159	0.793100	0.962400	0.733000
O1601	O160	0.944300	0.100400	0.732900
K131	K13	0.775100	0.589500	0.430300
K141	K14	0.290500	0.560800	0.317200
K151	K15	0.229800	0.927200	0.311900
K161	K16	0.709600	0.953700	0.424000
