data_PEDMER_clean_PM
_symmetry_space_group_name_H-M	'P1'
_cell_length_a	10.022000
_cell_length_b	10.182000
_cell_length_c	10.619000
_cell_angle_alpha	72.983000
_cell_angle_beta	62.182000
_cell_angle_gamma	63.997000
_symmetry_Int_Tables_number 1

loop_
_symmetry_equiv_pos_as_xyz
'x,y,z'

loop_
_atom_site_label
_atom_site_type_symbol
_atom_site_fract_x
_atom_site_fract_y
_atom_site_fract_z
Cu11	Cu1	0.228770	0.499470	0.537420
Cu21	Cu2	0.429250	0.182110	0.801040
Cu31	Cu3	0.248640	0.143130	0.186300
Cu41	Cu4	0.771230	0.500530	0.462580
Cu51	Cu5	0.570750	0.817890	0.198960
Cu61	Cu6	0.751360	0.856870	0.813700
P11	P1	0.854540	0.542520	0.715950
P21	P2	0.592720	0.109210	0.007470
P31	P3	0.579440	0.485510	0.304510
P41	P4	0.145460	0.457480	0.284050
P51	P5	0.407280	0.890790	0.992530
P61	P6	0.420560	0.514490	0.695490
H11	H1	0.731000	0.312000	0.793000
H21	H2	0.547000	0.251000	0.217000
H31	H3	0.759000	0.542000	0.018000
H41	H4	0.269000	0.688000	0.207000
H51	H5	0.453000	0.749000	0.783000
H61	H6	0.241000	0.458000	0.982000
C11	C1	0.762500	0.444000	0.882300
C21	C2	0.722400	0.328100	0.882300
C31	C3	0.644200	0.255300	0.011400
C41	C4	0.602300	0.300000	0.140800
C51	C5	0.643500	0.413100	0.141800
C61	C6	0.725900	0.481400	0.012300
C71	C7	0.237500	0.556000	0.117700
C81	C8	0.277600	0.671900	0.117700
C91	C9	0.355800	0.744700	0.988600
C101	C10	0.397700	0.700000	0.859200
C111	C11	0.356500	0.586900	0.858200
C121	C12	0.274100	0.518600	0.987700
O11	O1	0.459000	0.417300	0.424100
O21	O2	0.833900	0.501800	0.603300
O31	O3	0.031600	0.489300	0.693800
O41	O4	0.733300	0.439700	0.329300
O51	O5	0.427300	0.173500	0.994700
O61	O6	0.721100	0.034700	0.873500
O71	O7	0.768800	0.706400	0.730600
O81	O8	0.499500	0.652800	0.281400
O91	O9	0.577500	0.013800	0.150300
O101	O10	0.541000	0.582700	0.575900
O111	O11	0.166100	0.498200	0.396700
O121	O12	0.968400	0.510700	0.306200
O131	O13	0.266700	0.560300	0.670700
O141	O14	0.572700	0.826500	0.005300
O151	O15	0.278900	0.965300	0.126500
O161	O16	0.231200	0.293600	0.269400
O171	O17	0.500500	0.347200	0.718600
O181	O18	0.422500	0.986200	0.849700
