data_PEFRUP_clean_PM
_symmetry_space_group_name_H-M	'P1'
_cell_length_a	15.187500
_cell_length_b	25.648700
_cell_length_c	17.037800
_cell_angle_alpha	97.910000
_cell_angle_beta	90.000000
_cell_angle_gamma	90.000000
_symmetry_Int_Tables_number 1

loop_
_symmetry_equiv_pos_as_xyz
'x,y,z'

loop_
_atom_site_label
_atom_site_type_symbol
_atom_site_fract_x
_atom_site_fract_y
_atom_site_fract_z
Gd11	Gd1	0.670760	0.750290	0.314980
Gd21	Gd2	0.204290	0.250380	0.463220
Gd31	Gd3	0.170760	0.249710	0.185020
Gd41	Gd4	0.704290	0.749620	0.036780
Gd51	Gd5	0.329240	0.249710	0.685020
Gd61	Gd6	0.795710	0.749620	0.536780
Gd71	Gd7	0.829240	0.750290	0.814980
Gd81	Gd8	0.295710	0.250380	0.963220
H11	H1	0.501200	0.615800	0.383000
H21	H2	0.659800	0.613100	0.571200
H31	H3	0.603400	0.531500	0.589300
H41	H4	0.564500	0.867100	0.391500
H51	H5	0.638900	0.911800	0.617100
H61	H6	0.566500	0.991400	0.616800
H71	H7	0.915300	0.639500	0.454900
H81	H8	0.842600	0.595200	0.228700
H91	H9	0.930100	0.520600	0.223900
H101	H10	0.145300	0.427400	0.450200
H111	H11	0.039600	0.371000	0.239300
H121	H12	0.974600	0.452100	0.232500
H131	H13	0.033500	0.093600	0.209800
H141	H14	0.142200	0.104200	0.426400
H151	H15	0.087500	0.021500	0.440400
H161	H16	0.976700	0.875600	0.465600
H171	H17	0.835600	0.877400	0.266500
H181	H18	0.907900	0.953400	0.243100
H191	H19	0.001200	0.384200	0.117000
H201	H20	0.159800	0.386900	0.928800
H211	H21	0.103400	0.468500	0.910700
H221	H22	0.064500	0.132900	0.108500
H231	H23	0.138900	0.088200	0.882900
H241	H24	0.066500	0.008600	0.883200
H251	H25	0.415300	0.360500	0.045100
H261	H26	0.342600	0.404800	0.271300
H271	H27	0.430100	0.479400	0.276100
H281	H28	0.645300	0.572600	0.049800
H291	H29	0.539600	0.629000	0.260700
H301	H30	0.474600	0.547900	0.267500
H311	H31	0.533500	0.906400	0.290200
H321	H32	0.642200	0.895800	0.073600
H331	H33	0.587500	0.978500	0.059600
H341	H34	0.476700	0.124400	0.034400
H351	H35	0.335600	0.122600	0.233500
H361	H36	0.407900	0.046600	0.256900
H371	H37	0.498800	0.384200	0.617000
H381	H38	0.340200	0.386900	0.428800
H391	H39	0.396600	0.468500	0.410700
H401	H40	0.435500	0.132900	0.608500
H411	H41	0.361100	0.088200	0.382900
H421	H42	0.433500	0.008600	0.383200
H431	H43	0.084700	0.360500	0.545100
H441	H44	0.157400	0.404800	0.771300
H451	H45	0.069900	0.479400	0.776100
H461	H46	0.854700	0.572600	0.549800
H471	H47	0.960400	0.629000	0.760700
H481	H48	0.025400	0.547900	0.767500
H491	H49	0.966500	0.906400	0.790200
H501	H50	0.857800	0.895800	0.573600
H511	H51	0.912500	0.978500	0.559600
H521	H52	0.023300	0.124400	0.534400
H531	H53	0.164400	0.122600	0.733500
H541	H54	0.092100	0.046600	0.756900
H551	H55	0.998800	0.615800	0.883000
H561	H56	0.840200	0.613100	0.071200
H571	H57	0.896600	0.531500	0.089300
H581	H58	0.935500	0.867100	0.891500
H591	H59	0.861100	0.911800	0.117100
H601	H60	0.933500	0.991400	0.116800
H611	H61	0.584700	0.639500	0.954900
H621	H62	0.657400	0.595200	0.728700
H631	H63	0.569900	0.520600	0.723900
H641	H64	0.354700	0.427400	0.950200
H651	H65	0.460400	0.371000	0.739300
H661	H66	0.525400	0.452100	0.732500
H671	H67	0.466500	0.093600	0.709800
H681	H68	0.357800	0.104200	0.926400
H691	H69	0.412500	0.021500	0.940400
H701	H70	0.523300	0.875600	0.965600
H711	H71	0.664400	0.877400	0.766500
H721	H72	0.592100	0.953400	0.743100
C11	C1	0.518500	0.524800	0.497000
C21	C2	0.521700	0.598900	0.424400
C31	C3	0.586100	0.622500	0.475300
C41	C4	0.616700	0.597300	0.537100
C51	C5	0.582900	0.548400	0.548000
C61	C6	0.627500	0.673500	0.461000
C71	C7	0.522200	0.977000	0.503900
C81	C8	0.564900	0.892000	0.436600
C91	C9	0.608900	0.881500	0.504300
C101	C10	0.609500	0.918800	0.571800
C111	C11	0.566100	0.966500	0.571600
C121	C12	0.660500	0.831700	0.503800
C131	C13	0.975100	0.535400	0.336500
C141	C14	0.918300	0.615700	0.408600
C151	C15	0.870300	0.624800	0.342300
C161	C16	0.874700	0.589100	0.273100
C171	C17	0.927100	0.544500	0.270200
C181	C18	0.815500	0.671500	0.343600
C191	C19	0.021000	0.488400	0.337200
C201	C20	0.111000	0.432400	0.406600
C211	C21	0.098900	0.391200	0.345400
C221	C22	0.047700	0.398600	0.280200
C231	C23	0.008800	0.447200	0.276100
C241	C24	0.132000	0.336700	0.348700
C251	C25	0.027700	0.008000	0.333500
C261	C26	0.044300	0.079100	0.256000
C271	C27	0.093300	0.107100	0.316700
C281	C28	0.109500	0.085500	0.385800
C291	C29	0.076700	0.036000	0.394200
C301	C30	0.124300	0.160600	0.305500
C311	C31	0.985600	0.960100	0.340300
C321	C32	0.962900	0.891200	0.421000
C331	C33	0.899000	0.869000	0.368400
C341	C34	0.878400	0.892300	0.301700
C351	C35	0.921700	0.937800	0.287700
C361	C36	0.846900	0.820700	0.383200
C371	C37	0.018500	0.475200	0.003000
C381	C38	0.021700	0.401100	0.075600
C391	C39	0.086100	0.377500	0.024700
C401	C40	0.116700	0.402700	0.962900
C411	C41	0.082900	0.451600	0.952000
C421	C42	0.127500	0.326500	0.039000
C431	C43	0.022200	0.023000	0.996100
C441	C44	0.064900	0.108000	0.063400
C451	C45	0.108900	0.118500	0.995700
C461	C46	0.109500	0.081200	0.928200
C471	C47	0.066100	0.033500	0.928400
C481	C48	0.160500	0.168300	0.996200
C491	C49	0.475100	0.464600	0.163500
C501	C50	0.418300	0.384300	0.091400
C511	C51	0.370300	0.375200	0.157700
C521	C52	0.374700	0.410900	0.226900
C531	C53	0.427100	0.455500	0.229800
C541	C54	0.315500	0.328500	0.156400
C551	C55	0.521000	0.511600	0.162800
C561	C56	0.611000	0.567600	0.093400
C571	C57	0.598900	0.608800	0.154600
C581	C58	0.547700	0.601400	0.219800
C591	C59	0.508800	0.552800	0.223900
C601	C60	0.632000	0.663300	0.151300
C611	C61	0.527700	0.992000	0.166500
C621	C62	0.544300	0.920900	0.244000
C631	C63	0.593300	0.892900	0.183300
C641	C64	0.609500	0.914500	0.114200
C651	C65	0.576700	0.964000	0.105800
C661	C66	0.624300	0.839400	0.194500
C671	C67	0.485600	0.039900	0.159700
C681	C68	0.462900	0.108800	0.079000
C691	C69	0.399000	0.131000	0.131600
C701	C70	0.378400	0.107700	0.198300
C711	C71	0.421700	0.062200	0.212300
C721	C72	0.346900	0.179300	0.116800
C731	C73	0.481500	0.475200	0.503000
C741	C74	0.478300	0.401100	0.575600
C751	C75	0.413900	0.377500	0.524700
C761	C76	0.383300	0.402700	0.462900
C771	C77	0.417100	0.451600	0.452000
C781	C78	0.372500	0.326500	0.539000
C791	C79	0.477800	0.023000	0.496100
C801	C80	0.435100	0.108000	0.563400
C811	C81	0.391100	0.118500	0.495700
C821	C82	0.390500	0.081200	0.428200
C831	C83	0.433900	0.033500	0.428400
C841	C84	0.339500	0.168300	0.496200
C851	C85	0.024900	0.464600	0.663500
C861	C86	0.081700	0.384300	0.591400
C871	C87	0.129700	0.375200	0.657700
C881	C88	0.125300	0.410900	0.726900
C891	C89	0.072900	0.455500	0.729800
C901	C90	0.184500	0.328500	0.656400
C911	C91	0.979000	0.511600	0.662800
C921	C92	0.889000	0.567600	0.593400
C931	C93	0.901100	0.608800	0.654600
C941	C94	0.952300	0.601400	0.719800
C951	C95	0.991200	0.552800	0.723900
C961	C96	0.868000	0.663300	0.651300
C971	C97	0.972300	0.992000	0.666500
C981	C98	0.955700	0.920900	0.744000
C991	C99	0.906700	0.892900	0.683300
C1001	C100	0.890500	0.914500	0.614200
C1011	C101	0.923300	0.964000	0.605800
C1021	C102	0.875700	0.839400	0.694500
C1031	C103	0.014400	0.039900	0.659700
C1041	C104	0.037100	0.108800	0.579000
C1051	C105	0.101000	0.131000	0.631600
C1061	C106	0.121600	0.107700	0.698300
C1071	C107	0.078300	0.062200	0.712300
C1081	C108	0.153100	0.179300	0.616800
C1091	C109	0.981500	0.524800	0.997000
C1101	C110	0.978300	0.598900	0.924400
C1111	C111	0.913900	0.622500	0.975300
C1121	C112	0.883300	0.597300	0.037100
C1131	C113	0.917100	0.548400	0.048000
C1141	C114	0.872500	0.673500	0.961000
C1151	C115	0.977800	0.977000	0.003900
C1161	C116	0.935100	0.892000	0.936600
C1171	C117	0.891100	0.881500	0.004300
C1181	C118	0.890500	0.918800	0.071800
C1191	C119	0.933900	0.966500	0.071600
C1201	C120	0.839500	0.831700	0.003800
C1211	C121	0.524900	0.535400	0.836500
C1221	C122	0.581700	0.615700	0.908600
C1231	C123	0.629700	0.624800	0.842300
C1241	C124	0.625300	0.589100	0.773100
C1251	C125	0.572900	0.544500	0.770200
C1261	C126	0.684500	0.671500	0.843600
C1271	C127	0.479000	0.488400	0.837200
C1281	C128	0.389000	0.432400	0.906600
C1291	C129	0.401100	0.391200	0.845400
C1301	C130	0.452300	0.398600	0.780200
C1311	C131	0.491200	0.447200	0.776100
C1321	C132	0.368000	0.336700	0.848700
C1331	C133	0.472300	0.008000	0.833500
C1341	C134	0.455700	0.079100	0.756000
C1351	C135	0.406700	0.107100	0.816700
C1361	C136	0.390500	0.085500	0.885800
C1371	C137	0.423300	0.036000	0.894200
C1381	C138	0.375700	0.160600	0.805500
C1391	C139	0.514400	0.960100	0.840300
C1401	C140	0.537100	0.891200	0.921000
C1411	C141	0.601000	0.869000	0.868400
C1421	C142	0.621600	0.892300	0.801700
C1431	C143	0.578300	0.937800	0.787700
C1441	C144	0.653100	0.820700	0.883200
N11	N1	0.487900	0.550100	0.435200
N21	N2	0.521600	0.939700	0.436500
N31	N3	0.970600	0.571000	0.405700
N41	N4	0.072100	0.481000	0.402500
N51	N5	0.011500	0.029600	0.264400
N61	N6	0.006200	0.936800	0.407000
N71	N7	0.987900	0.449900	0.064800
N81	N8	0.021600	0.060300	0.063500
N91	N9	0.470600	0.429000	0.094300
N101	N10	0.572100	0.519000	0.097500
N111	N11	0.511500	0.970400	0.235600
N121	N12	0.506200	0.063200	0.093000
N131	N13	0.512100	0.449900	0.564800
N141	N14	0.478400	0.060300	0.563500
N151	N15	0.029400	0.429000	0.594300
N161	N16	0.927900	0.519000	0.597500
N171	N17	0.988500	0.970400	0.735600
N181	N18	0.993800	0.063200	0.593000
N191	N19	0.012100	0.550100	0.935200
N201	N20	0.978400	0.939700	0.936500
N211	N21	0.529400	0.571000	0.905700
N221	N22	0.427900	0.481000	0.902500
N231	N23	0.488500	0.029600	0.764400
N241	N24	0.493800	0.936800	0.907000
O11	O1	0.660200	0.801800	0.440900
O21	O2	0.775500	0.679300	0.282300
O31	O3	0.802500	0.799300	0.329100
O41	O4	0.613500	0.685100	0.391500
O51	O5	0.114800	0.301300	0.295100
O61	O6	0.138200	0.172400	0.241000
O71	O7	0.176200	0.331200	0.410400
O81	O8	0.806100	0.701300	0.408100
O91	O9	0.662700	0.700800	0.515300
O101	O10	0.697000	0.822000	0.565200
O111	O11	0.851200	0.810800	0.452900
O121	O12	0.137700	0.191600	0.367000
O131	O13	0.160200	0.198200	0.059100
O141	O14	0.275500	0.320700	0.217700
O151	O15	0.302500	0.200700	0.170900
O161	O16	0.113500	0.314900	0.108500
O171	O17	0.614800	0.698700	0.204900
O181	O18	0.638200	0.827600	0.259000
O191	O19	0.676200	0.668800	0.089600
O201	O20	0.306100	0.298700	0.091900
O211	O21	0.162700	0.299200	0.984700
O221	O22	0.197000	0.178000	0.934800
O231	O23	0.351200	0.189200	0.047100
O241	O24	0.637700	0.808400	0.133000
O251	O25	0.339800	0.198200	0.559100
O261	O26	0.224500	0.320700	0.717700
O271	O27	0.197500	0.200700	0.670900
O281	O28	0.386500	0.314900	0.608500
O291	O29	0.885200	0.698700	0.704900
O301	O30	0.861800	0.827600	0.759000
O311	O31	0.823800	0.668800	0.589600
O321	O32	0.193900	0.298700	0.591900
O331	O33	0.337300	0.299200	0.484700
O341	O34	0.303000	0.178000	0.434800
O351	O35	0.148800	0.189200	0.547100
O361	O36	0.862300	0.808400	0.633000
O371	O37	0.839800	0.801800	0.940900
O381	O38	0.724500	0.679300	0.782300
O391	O39	0.697500	0.799300	0.829100
O401	O40	0.886500	0.685100	0.891500
O411	O41	0.385200	0.301300	0.795100
O421	O42	0.361800	0.172400	0.741000
O431	O43	0.323800	0.331200	0.910400
O441	O44	0.693900	0.701300	0.908100
O451	O45	0.837300	0.700800	0.015300
O461	O46	0.803000	0.822000	0.065200
O471	O47	0.648800	0.810800	0.952900
O481	O48	0.362300	0.191600	0.867000
