data_PEFSUQ_clean_PM
_symmetry_space_group_name_H-M	'P1'
_cell_length_a	12.771100
_cell_length_b	14.229000
_cell_length_c	16.003000
_cell_angle_alpha	106.640000
_cell_angle_beta	103.935000
_cell_angle_gamma	106.606000
_symmetry_Int_Tables_number 1

loop_
_symmetry_equiv_pos_as_xyz
'x,y,z'

loop_
_atom_site_label
_atom_site_type_symbol
_atom_site_fract_x
_atom_site_fract_y
_atom_site_fract_z
Cu11	Cu1	0.532930	0.133200	0.265290
Cu21	Cu2	0.726250	0.956890	0.052420
Cu31	Cu3	0.585670	0.773730	0.266050
Cu41	Cu4	0.691140	0.962340	0.490560
Cu51	Cu5	0.483260	0.109610	0.843380
Cu61	Cu6	0.788890	0.395410	0.143590
H11	H1	0.742700	0.895000	0.643900
H21	H2	0.415200	0.110900	0.069100
H31	H3	0.936500	0.528000	0.334500
H41	H4	0.312300	0.889800	0.733700
H51	H5	0.891100	0.183500	0.134300
H61	H6	0.529600	0.643400	0.371100
H71	H7	0.396400	0.868400	0.400200
H81	H8	0.816200	0.125400	0.279100
H91	H9	0.826300	0.845300	0.763100
H101	H10	0.938300	0.818400	0.756900
H111	H11	0.954500	0.932000	0.826500
H121	H12	0.939900	0.058700	0.491300
H131	H13	0.062000	0.116100	0.576100
H141	H14	0.031300	0.002000	0.499400
H151	H15	0.344800	0.140700	0.339900
H161	H16	0.255300	0.197200	0.318900
H171	H17	0.207800	0.071300	0.290100
H181	H18	0.274600	0.088700	0.930300
H191	H19	0.146100	0.017600	0.919600
H201	H20	0.184000	0.143000	0.948000
H211	H21	0.490500	0.335300	0.115600
H221	H22	0.778200	0.128400	0.907400
H231	H23	0.319500	0.224800	0.808100
H241	H24	0.208600	0.193300	0.718300
H251	H25	0.191500	0.192200	0.813900
H261	H26	0.140100	0.735400	0.647800
H271	H27	0.029300	0.752000	0.669600
H281	H28	0.046700	0.754300	0.574400
H291	H29	0.101200	0.636200	0.480900
H301	H30	0.215100	0.611400	0.477700
H311	H31	0.204400	0.716200	0.465200
H321	H32	0.979600	0.423700	0.056600
H331	H33	0.091200	0.529200	0.085500
H341	H34	0.108100	0.425800	0.096900
H351	H35	0.449200	0.943200	0.074500
H361	H36	0.891400	0.879600	0.320000
H371	H37	0.344400	0.774100	0.180900
H381	H38	0.223300	0.673800	0.136400
H391	H39	0.245800	0.772900	0.226700
H401	H40	0.437600	0.521600	0.427300
H411	H41	0.329200	0.543200	0.449800
H421	H42	0.307200	0.444800	0.359100
H431	H43	0.072100	0.335400	0.225600
H441	H44	0.169300	0.296100	0.270100
H451	H45	0.173100	0.330500	0.183700
H461	H46	0.873500	0.857400	0.977700
H471	H47	0.993100	0.897000	0.959100
H481	H48	0.993700	0.874800	0.051700
C11	C1	0.487300	0.867800	0.515500
C21	C2	0.452400	0.927200	0.460100
C31	C3	0.550800	0.022700	0.377200
C41	C4	0.672100	0.064400	0.371200
C51	C5	0.776900	0.174300	0.300600
C61	C6	0.729500	0.210200	0.223700
C71	C7	0.865100	0.274400	0.386300
C81	C8	0.907000	0.874400	0.765700
C91	C9	0.909800	0.917600	0.688800
C101	C10	0.996700	0.964600	0.661600
C111	C11	0.944800	0.995100	0.591600
C121	C12	0.999300	0.047600	0.534600
C131	C13	0.271900	0.133400	0.296000
C141	C14	0.283700	0.119300	0.201400
C151	C15	0.198500	0.106200	0.119200
C161	C16	0.253800	0.103200	0.055900
C171	C17	0.210900	0.086700	0.954600
C181	C18	0.636000	0.436600	0.231000
C191	C19	0.564000	0.396100	0.129900
C201	C20	0.533100	0.487800	0.111600
C211	C21	0.433600	0.455500	0.023800
C221	C22	0.422000	0.552000	0.004000
C231	C23	0.324000	0.404000	0.017000
C241	C24	0.590600	0.291100	0.993100
C251	C25	0.690100	0.263400	0.966100
C261	C26	0.716800	0.125200	0.853200
C271	C27	0.774100	0.164200	0.789300
C281	C28	0.886200	0.255800	0.834900
C291	C29	0.935000	0.295000	0.765000
C301	C30	0.983500	0.227000	0.890100
C311	C31	0.629700	0.010600	0.798900
C321	C32	0.237100	0.178600	0.773900
C331	C33	0.224700	0.067100	0.745800
C341	C34	0.119800	0.974700	0.695800
C351	C35	0.155300	0.890200	0.687300
C361	C36	0.086900	0.772800	0.640700
C371	C37	0.161100	0.642000	0.452100
C381	C38	0.104800	0.582100	0.349900
C391	C39	0.150600	0.567700	0.279900
C401	C40	0.056700	0.505000	0.198200
C411	C41	0.059100	0.467600	0.100800
C421	C42	0.531300	0.001800	0.990500
C431	C43	0.485900	0.916800	0.029000
C441	C44	0.394800	0.812200	0.947700
C451	C45	0.286800	0.771000	0.934000
C461	C46	0.220000	0.666000	0.847000
C471	C47	0.219500	0.806900	0.991800
C481	C48	0.594800	0.861000	0.139500
C491	C49	0.718900	0.863900	0.175900
C501	C50	0.826500	0.808000	0.290200
C511	C51	0.791100	0.773600	0.367500
C521	C52	0.866000	0.729000	0.236200
C531	C53	0.930000	0.761000	0.177000
C541	C54	0.944000	0.674000	0.110000
C551	C55	0.047000	0.851000	0.234000
C561	C56	0.282200	0.729300	0.194700
C571	C57	0.333700	0.678300	0.256900
C581	C58	0.277900	0.609100	0.293100
C591	C59	0.361000	0.587000	0.344700
C601	C60	0.358500	0.518000	0.400000
C611	C61	0.121900	0.296200	0.212100
C621	C62	0.045800	0.182500	0.145000
C631	C63	0.078900	0.100600	0.107300
C641	C64	0.974800	0.015800	0.057600
C651	C65	0.957200	0.901000	0.007000
C661	C66	0.456000	0.086000	0.574100
C671	C67	0.379000	0.987000	0.485000
C681	C68	0.382000	0.156000	0.587000
C691	C69	0.562000	0.149000	0.557000
N11	N1	0.811200	0.920000	0.638600
N21	N2	0.832400	0.967700	0.576900
N31	N3	0.548800	0.973600	0.432100
N41	N4	0.675300	0.118500	0.318900
N51	N5	0.382100	0.121400	0.186300
N61	N6	0.363400	0.111600	0.096700
N71	N7	0.987200	0.529300	0.305700
N81	N8	0.957500	0.479700	0.213600
N91	N9	0.628200	0.361100	0.074500
N101	N10	0.648500	0.184600	0.887500
N111	N11	0.316200	0.037800	0.766300
N121	N12	0.270600	0.929100	0.729700
N131	N13	0.885800	0.041900	0.063300
N141	N14	0.932000	0.145600	0.118400
N151	N15	0.585000	0.899800	0.075200
N161	N16	0.721700	0.815500	0.236500
N171	N17	0.448900	0.698700	0.289300
N181	N18	0.461800	0.643200	0.341600
O11	O1	0.412600	0.810300	0.534600
O21	O2	0.592800	0.876400	0.538700
O31	O3	0.752100	0.038600	0.413200
O41	O4	0.469900	0.043100	0.330100
O51	O5	0.620900	0.196100	0.197300
O61	O6	0.798400	0.253300	0.189600
O71	O7	0.588800	0.453300	0.292000
O81	O8	0.744900	0.455700	0.251200
O91	O9	0.793400	0.313300	0.023000
O101	O10	0.486600	0.240400	0.935600
O111	O11	0.519700	0.990900	0.778000
O121	O12	0.666500	0.937200	0.776800
O131	O13	0.464700	0.040200	0.958700
O141	O14	0.637200	0.026900	0.992800
O151	O15	0.793300	0.904300	0.147500
O161	O16	0.517700	0.824400	0.171700
O171	O17	0.690900	0.761900	0.367700
O181	O18	0.863700	0.757700	0.421600
