data_PEGQAV_clean_PM
_symmetry_space_group_name_H-M	'P1'
_cell_length_a	16.544100
_cell_length_b	16.544100
_cell_length_c	16.544100
_cell_angle_alpha	60.103600
_cell_angle_beta	75.476100
_cell_angle_gamma	104.524000
_symmetry_Int_Tables_number 1

loop_
_symmetry_equiv_pos_as_xyz
'x,y,z'

loop_
_atom_site_label
_atom_site_type_symbol
_atom_site_fract_x
_atom_site_fract_y
_atom_site_fract_z
Nd11	Nd1	0.639020	0.400790	0.615790
Nd21	Nd2	0.981840	0.852830	0.529450
Nd31	Nd3	0.860980	0.245190	0.238230
Nd41	Nd4	0.518160	0.988710	0.129010
Nd51	Nd5	0.983420	0.384210	0.754810
Nd61	Nd6	0.617720	0.470550	0.011290
Nd71	Nd7	0.516580	0.761770	0.599210
Nd81	Nd8	0.882280	0.870990	0.147170
Nd91	Nd9	0.360980	0.599210	0.384210
Nd101	Nd10	0.018160	0.147170	0.470550
Nd111	Nd11	0.139020	0.754810	0.761770
Nd121	Nd12	0.481840	0.011290	0.870990
Nd131	Nd13	0.016580	0.615790	0.245190
Nd141	Nd14	0.382280	0.529450	0.988710
Nd151	Nd15	0.483420	0.238230	0.400790
Nd161	Nd16	0.117720	0.129010	0.852830
H11	H1	0.760500	0.678500	0.550600
H21	H2	0.615500	0.514200	0.761900
H31	H3	0.739500	0.188900	0.082000
H41	H4	0.884500	0.122600	0.101300
H51	H5	0.770900	0.449400	0.811100
H61	H6	0.723900	0.238100	0.877400
H71	H7	0.729100	0.918000	0.321500
H81	H8	0.776100	0.898700	0.485800
H91	H9	0.239500	0.321500	0.449400
H101	H10	0.384500	0.485800	0.238100
H111	H11	0.260500	0.811100	0.918000
H121	H12	0.115500	0.877400	0.898700
H131	H13	0.229100	0.550600	0.188900
H141	H14	0.276100	0.761900	0.122600
H151	H15	0.270900	0.082000	0.678500
H161	H16	0.223900	0.101300	0.514200
C11	C1	0.796300	0.642900	0.565800
C21	C2	0.844700	0.524300	0.604000
C31	C3	0.908100	0.607700	0.593000
C41	C4	0.996800	0.632200	0.599800
C51	C5	0.838500	0.422600	0.630500
C61	C6	0.599600	0.444300	0.810100
C71	C7	0.567400	0.282700	0.877700
C81	C8	0.557500	0.300000	0.954700
C91	C9	0.535200	0.232500	0.065900
C101	C10	0.552700	0.196200	0.873900
C111	C11	0.703700	0.137900	0.153400
C121	C12	0.655300	0.051300	0.320400
C131	C13	0.591900	0.998900	0.300400
C141	C14	0.503200	0.903400	0.364600
C151	C15	0.661500	0.031000	0.415900
C161	C16	0.900400	0.090300	0.155300
C171	C17	0.932600	0.054900	0.284700
C181	C18	0.942500	0.987800	0.257500
C191	C19	0.964800	0.898900	0.302700
C201	C20	0.947300	0.073400	0.356500
C211	C21	0.791300	0.434200	0.862100
C221	C22	0.871700	0.396000	0.948700
C231	C23	0.799300	0.407000	0.001100
C241	C24	0.768000	0.400200	0.096600
C251	C25	0.946900	0.369500	0.969000
C261	C26	0.745600	0.189900	0.909700
C271	C27	0.839600	0.122300	0.945100
C281	C28	0.745300	0.045300	0.012200
C291	C29	0.701600	0.934100	0.101100
C301	C30	0.929900	0.126100	0.926600
C311	C31	0.708700	0.846600	0.357100
C321	C32	0.628300	0.679600	0.475700
C331	C33	0.700700	0.699600	0.392300
C341	C34	0.732000	0.635400	0.367800
C351	C35	0.553100	0.584100	0.577400
C361	C36	0.754400	0.844700	0.555700
C371	C37	0.660400	0.715300	0.717300
C381	C38	0.754700	0.742500	0.700000
C391	C39	0.798400	0.697300	0.767500
C401	C40	0.570100	0.643500	0.803800
C411	C41	0.203700	0.357100	0.434200
C421	C42	0.155300	0.475700	0.396000
C431	C43	0.091900	0.392300	0.407000
C441	C44	0.003200	0.367800	0.400200
C451	C45	0.161500	0.577400	0.369500
C461	C46	0.400400	0.555700	0.189900
C471	C47	0.432600	0.717300	0.122300
C481	C48	0.442500	0.700000	0.045300
C491	C49	0.464800	0.767500	0.934100
C501	C50	0.447300	0.803800	0.126100
C511	C51	0.296300	0.862100	0.846600
C521	C52	0.344700	0.948700	0.679600
C531	C53	0.408100	0.001100	0.699600
C541	C54	0.496800	0.096600	0.635400
C551	C55	0.338500	0.969000	0.584100
C561	C56	0.099600	0.909700	0.844700
C571	C57	0.067400	0.945100	0.715300
C581	C58	0.057500	0.012200	0.742500
C591	C59	0.035200	0.101100	0.697300
C601	C60	0.052700	0.926600	0.643500
C611	C61	0.208700	0.565800	0.137900
C621	C62	0.128300	0.604000	0.051300
C631	C63	0.200700	0.593000	0.998900
C641	C64	0.232000	0.599800	0.903400
C651	C65	0.053100	0.630500	0.031000
C661	C66	0.254400	0.810100	0.090300
C671	C67	0.160400	0.877700	0.054900
C681	C68	0.254700	0.954700	0.987800
C691	C69	0.298400	0.065900	0.898900
C701	C70	0.070100	0.873900	0.073400
C711	C71	0.291300	0.153400	0.642900
C721	C72	0.371700	0.320400	0.524300
C731	C73	0.299300	0.300400	0.607700
C741	C74	0.268000	0.364600	0.632200
C751	C75	0.446900	0.415900	0.422600
C761	C76	0.245600	0.155300	0.444300
C771	C77	0.339600	0.284700	0.282700
C781	C78	0.245300	0.257500	0.300000
C791	C79	0.201600	0.302700	0.232500
C801	C80	0.429900	0.356500	0.196200
N11	N1	0.875400	0.679800	0.569400
N21	N2	0.773700	0.548900	0.586400
N31	N3	0.596600	0.379900	0.783700
N41	N4	0.578400	0.402700	0.909100
N51	N5	0.624600	0.055200	0.195600
N61	N6	0.726300	0.139900	0.224800
N71	N7	0.903400	0.119700	0.216700
N81	N8	0.921600	0.012500	0.175700
N91	N9	0.750800	0.430600	0.944800
N101	N10	0.864700	0.413600	0.860100
N111	N11	0.836400	0.216300	0.880300
N121	N12	0.688200	0.090900	0.987500
N131	N13	0.749200	0.804400	0.320200
N141	N14	0.635300	0.775200	0.451100
N151	N15	0.663600	0.783300	0.620100
N161	N16	0.811800	0.824300	0.597300
N171	N17	0.124600	0.320200	0.430600
N181	N18	0.226300	0.451100	0.413600
N191	N19	0.403400	0.620100	0.216300
N201	N20	0.421600	0.597300	0.090900
N211	N21	0.375400	0.944800	0.804400
N221	N22	0.273700	0.860100	0.775200
N231	N23	0.096600	0.880300	0.783300
N241	N24	0.078400	0.987500	0.824300
N251	N25	0.249200	0.569400	0.055200
N261	N26	0.135300	0.586400	0.139900
N271	N27	0.163600	0.783700	0.119700
N281	N28	0.311800	0.909100	0.012500
N291	N29	0.250800	0.195600	0.679800
N301	N30	0.364700	0.224800	0.548900
N311	N31	0.336400	0.216700	0.379900
N321	N32	0.188200	0.175700	0.402700
O11	O1	0.042300	0.725200	0.566700
O21	O2	0.027300	0.565600	0.633300
O31	O3	0.892500	0.389800	0.663500
O41	O4	0.771800	0.370100	0.628300
O51	O5	0.546800	0.280300	0.106700
O61	O6	0.503800	0.134400	0.114800
O71	O7	0.516100	0.101400	0.956900
O81	O8	0.573200	0.212000	0.786600
O91	O9	0.457700	0.891000	0.317100
O101	O10	0.472700	0.839400	0.461700
O111	O11	0.607500	0.944000	0.502700
O121	O12	0.728200	0.099900	0.401700
O131	O13	0.953200	0.846500	0.266500
O141	O14	0.996200	0.881400	0.369400
O151	O15	0.983900	0.027000	0.414700
O161	O16	0.926800	0.140200	0.361200
O171	O17	0.708100	0.433300	0.109000
O181	O18	0.801100	0.366700	0.160600
O191	O19	0.946700	0.336500	0.056000
O201	O20	0.001600	0.371700	0.900100
O211	O21	0.613000	0.893300	0.153500
O221	O22	0.750800	0.885200	0.118600
O231	O23	0.941700	0.043100	0.973000
O241	O24	0.001400	0.213400	0.859800
O251	O25	0.791900	0.682900	0.274800
O261	O26	0.698900	0.538300	0.434400
O271	O27	0.553300	0.497300	0.610200
O281	O28	0.498400	0.598300	0.629900
O291	O29	0.887000	0.733500	0.719700
O301	O30	0.749200	0.630600	0.865600
O311	O31	0.558300	0.585300	0.898600
O321	O32	0.498600	0.638800	0.788000
O331	O33	0.957700	0.274800	0.433300
O341	O34	0.972700	0.434400	0.366700
O351	O35	0.107500	0.610200	0.336500
O361	O36	0.228200	0.629900	0.371700
O371	O37	0.453200	0.719700	0.893300
O381	O38	0.496200	0.865600	0.885200
O391	O39	0.483900	0.898600	0.043100
O401	O40	0.426800	0.788000	0.213400
O411	O41	0.542300	0.109000	0.682900
O421	O42	0.527300	0.160600	0.538300
O431	O43	0.392500	0.056000	0.497300
O441	O44	0.271800	0.900100	0.598300
O451	O45	0.046800	0.153500	0.733500
O461	O46	0.003800	0.118600	0.630600
O471	O47	0.016100	0.973000	0.585300
O481	O48	0.073200	0.859800	0.638800
O491	O49	0.291900	0.566700	0.891000
O501	O50	0.198900	0.633300	0.839400
O511	O51	0.053300	0.663500	0.944000
O521	O52	0.998400	0.628300	0.099900
O531	O53	0.387000	0.106700	0.846500
O541	O54	0.249200	0.114800	0.881400
O551	O55	0.058300	0.956900	0.027000
O561	O56	0.998600	0.786600	0.140200
O571	O57	0.208100	0.317100	0.725200
O581	O58	0.301100	0.461700	0.565600
O591	O59	0.446700	0.502700	0.389800
O601	O60	0.501600	0.401700	0.370100
O611	O61	0.113000	0.266500	0.280300
O621	O62	0.250800	0.369400	0.134400
O631	O63	0.441700	0.414700	0.101400
O641	O64	0.501400	0.361200	0.212000
