data_PEGQUP_clean_PM
_symmetry_space_group_name_H-M	'P1'
_cell_length_a	15.873000
_cell_length_b	16.306200
_cell_length_c	16.306200
_cell_angle_alpha	76.296700
_cell_angle_beta	60.875000
_cell_angle_gamma	60.875000
_symmetry_Int_Tables_number 1

loop_
_symmetry_equiv_pos_as_xyz
'x,y,z'

loop_
_atom_site_label
_atom_site_type_symbol
_atom_site_fract_x
_atom_site_fract_y
_atom_site_fract_z
Er11	Er1	0.735690	0.465310	0.880160
Er21	Er2	0.011110	0.112650	0.526250
Er31	Er3	0.581150	0.034690	0.619840
Er41	Er4	0.150010	0.387350	0.973750
Er51	Er5	0.615840	0.119840	0.965320
Er61	Er6	0.537360	0.473750	0.612650
Er71	Er7	0.201000	0.380160	0.534680
Er81	Er8	0.123760	0.026250	0.887350
Er91	Er9	0.264310	0.534690	0.119840
Er101	Er10	0.988890	0.887350	0.473750
Er111	Er11	0.418850	0.965310	0.380160
Er121	Er12	0.849990	0.612650	0.026250
Er131	Er13	0.384160	0.880160	0.034680
Er141	Er14	0.462640	0.526250	0.387350
Er151	Er15	0.799000	0.619840	0.465320
Er161	Er16	0.876240	0.973750	0.112650
H11	H1	0.804500	0.245900	0.756100
H21	H2	0.859100	0.216600	0.903600
H31	H3	0.306500	0.254100	0.743900
H41	H4	0.479300	0.283400	0.596400
H51	H5	0.560600	0.243900	0.745900
H61	H6	0.762700	0.096400	0.716600
H71	H7	0.050400	0.256100	0.754100
H81	H8	0.075700	0.403600	0.783400
H91	H9	0.195500	0.754100	0.243900
H101	H10	0.140900	0.783400	0.096400
H111	H11	0.693500	0.745900	0.256100
H121	H12	0.520700	0.716600	0.403600
H131	H13	0.439400	0.756100	0.254100
H141	H14	0.237300	0.903600	0.283400
H151	H15	0.949600	0.743900	0.245900
H161	H16	0.924300	0.596400	0.216600
C11	C1	0.850800	0.273400	0.719600
C21	C2	0.923900	0.366900	0.672900
C31	C3	0.983400	0.295600	0.607200
C41	C4	0.077800	0.274600	0.517000
C51	C5	0.936100	0.447700	0.680700
C61	C6	0.894200	0.240100	0.916700
C71	C7	0.932000	0.337500	0.944500
C81	C8	0.004600	0.245900	0.951300
C91	C9	0.100500	0.206200	0.968200
C101	C10	0.915100	0.431200	0.955600
C111	C11	0.343800	0.226600	0.780400
C121	C12	0.463700	0.133100	0.827100
C131	C13	0.386200	0.204400	0.892800
C141	C14	0.369400	0.225400	0.983000
C151	C15	0.564500	0.052300	0.819300
C161	C16	0.551000	0.259900	0.583300
C171	C17	0.714000	0.162500	0.555500
C181	C18	0.701800	0.254100	0.548700
C191	C19	0.774900	0.293800	0.531800
C201	C20	0.801900	0.068800	0.544400
C211	C21	0.570400	0.280400	0.773400
C221	C22	0.596800	0.327100	0.866900
C231	C23	0.590600	0.392800	0.795600
C241	C24	0.594800	0.483000	0.774600
C251	C25	0.616800	0.319300	0.947700
C261	C26	0.810900	0.083300	0.740100
C271	C27	0.876500	0.055500	0.837500
C281	C28	0.955900	0.048700	0.745900
C291	C29	0.068700	0.031800	0.706200
C301	C30	0.870700	0.044400	0.931200
C311	C31	0.124200	0.219600	0.726600
C321	C32	0.290800	0.172900	0.633100
C331	C33	0.279000	0.107200	0.704400
C341	C34	0.352400	0.017000	0.725400
C351	C35	0.383800	0.180700	0.552300
C361	C36	0.134300	0.416700	0.759900
C371	C37	0.269500	0.444500	0.662500
C381	C38	0.250500	0.451300	0.754100
C391	C39	0.306700	0.468200	0.793800
C401	C40	0.346300	0.455600	0.568800
C411	C41	0.149200	0.726600	0.280400
C421	C42	0.076100	0.633100	0.327100
C431	C43	0.016600	0.704400	0.392800
C441	C44	0.922200	0.725400	0.483000
C451	C45	0.063900	0.552300	0.319300
C461	C46	0.105800	0.759900	0.083300
C471	C47	0.068000	0.662500	0.055500
C481	C48	0.995400	0.754100	0.048700
C491	C49	0.899500	0.793800	0.031800
C501	C50	0.084900	0.568800	0.044400
C511	C51	0.656200	0.773400	0.219600
C521	C52	0.536300	0.866900	0.172900
C531	C53	0.613800	0.795600	0.107200
C541	C54	0.630600	0.774600	0.017000
C551	C55	0.435500	0.947700	0.180700
C561	C56	0.449000	0.740100	0.416700
C571	C57	0.286000	0.837500	0.444500
C581	C58	0.298200	0.745900	0.451300
C591	C59	0.225100	0.706200	0.468200
C601	C60	0.198100	0.931200	0.455600
C611	C61	0.429600	0.719600	0.226600
C621	C62	0.403200	0.672900	0.133100
C631	C63	0.409400	0.607200	0.204400
C641	C64	0.405200	0.517000	0.225400
C651	C65	0.383200	0.680700	0.052300
C661	C66	0.189100	0.916700	0.259900
C671	C67	0.123500	0.944500	0.162500
C681	C68	0.044100	0.951300	0.254100
C691	C69	0.931300	0.968200	0.293800
C701	C70	0.129300	0.955600	0.068800
C711	C71	0.875800	0.780400	0.273400
C721	C72	0.709200	0.827100	0.366900
C731	C73	0.721000	0.892800	0.295600
C741	C74	0.647600	0.983000	0.274600
C751	C75	0.616200	0.819300	0.447700
C761	C76	0.865700	0.583300	0.240100
C771	C77	0.730500	0.555500	0.337500
C781	C78	0.749500	0.548700	0.245900
C791	C79	0.693300	0.531800	0.206200
C801	C80	0.653700	0.544400	0.431200
N11	N1	0.935800	0.236400	0.638200
N21	N2	0.837600	0.353400	0.744400
N31	N3	0.863100	0.331900	0.919900
N41	N4	0.979000	0.184600	0.933400
N51	N5	0.310400	0.263600	0.861800
N61	N6	0.435400	0.146600	0.755600
N71	N7	0.614900	0.168100	0.580100
N81	N8	0.597000	0.315400	0.566600
N91	N9	0.574000	0.361800	0.736400
N101	N10	0.582000	0.255600	0.853400
N111	N11	0.783000	0.080100	0.831900
N121	N12	0.912400	0.066600	0.684600
N131	N13	0.172200	0.138200	0.763600
N141	N14	0.191000	0.244400	0.646600
N151	N15	0.195000	0.419900	0.668100
N161	N16	0.163600	0.433400	0.815400
N171	N17	0.064200	0.763600	0.361800
N181	N18	0.162400	0.646600	0.255600
N191	N19	0.136900	0.668100	0.080100
N201	N20	0.021000	0.815400	0.066600
N211	N21	0.689600	0.736400	0.138200
N221	N22	0.564600	0.853400	0.244400
N231	N23	0.385100	0.831900	0.419900
N241	N24	0.403000	0.684600	0.433400
N251	N25	0.426000	0.638200	0.263600
N261	N26	0.418000	0.744400	0.146600
N271	N27	0.217000	0.919900	0.168100
N281	N28	0.087600	0.933400	0.315400
N291	N29	0.827800	0.861800	0.236400
N301	N30	0.809000	0.755600	0.353400
N311	N31	0.805000	0.580100	0.331900
N321	N32	0.836400	0.566600	0.184600
O11	O1	0.104600	0.203700	0.471700
O21	O2	0.134100	0.319000	0.482800
O31	O3	0.020900	0.455800	0.627600
O41	O4	0.857600	0.505600	0.745600
O51	O5	0.155300	0.118400	0.956200
O61	O6	0.121000	0.257600	0.994400
O71	O7	0.964700	0.447100	0.987900
O81	O8	0.845800	0.499700	0.933100
O91	O9	0.280000	0.296300	0.028300
O101	O10	0.435900	0.181000	0.017200
O111	O11	0.604300	0.044200	0.872400
O121	O12	0.608800	0.994400	0.754400
O131	O13	0.729900	0.381600	0.543800
O141	O14	0.873000	0.242400	0.505600
O151	O15	0.899700	0.052900	0.512100
O161	O16	0.778600	0.000300	0.566900
O171	O17	0.576300	0.528300	0.703700
O181	O18	0.616900	0.517200	0.819000
O191	O19	0.648500	0.372400	0.955800
O201	O20	0.603200	0.254400	0.005600
O211	O21	0.111500	0.043800	0.618400
O221	O22	0.115400	0.005600	0.757600
O231	O23	0.952600	0.012100	0.947100
O241	O24	0.778900	0.066900	0.999700
O251	O25	0.308300	0.971700	0.796300
O261	O26	0.453100	0.982800	0.681000
O271	O27	0.476700	0.127600	0.544200
O281	O28	0.363200	0.245600	0.494400
O291	O29	0.273700	0.456200	0.881600
O301	O30	0.378600	0.494400	0.742400
O311	O31	0.411800	0.487900	0.552900
O321	O32	0.345500	0.433100	0.500300
O331	O33	0.895400	0.796300	0.528300
O341	O34	0.865900	0.681000	0.517200
O351	O35	0.979100	0.544200	0.372400
O361	O36	0.142400	0.494400	0.254400
O371	O37	0.844700	0.881600	0.043800
O381	O38	0.879000	0.742400	0.005600
O391	O39	0.035300	0.552900	0.012100
O401	O40	0.154200	0.500300	0.066900
O411	O41	0.720000	0.703700	0.971700
O421	O42	0.564100	0.819000	0.982800
O431	O43	0.395700	0.955800	0.127600
O441	O44	0.391200	0.005600	0.245600
O451	O45	0.270100	0.618400	0.456200
O461	O46	0.127000	0.757600	0.494400
O471	O47	0.100300	0.947100	0.487900
O481	O48	0.221400	0.999700	0.433100
O491	O49	0.423700	0.471700	0.296300
O501	O50	0.383100	0.482800	0.181000
O511	O51	0.351500	0.627600	0.044200
O521	O52	0.396800	0.745600	0.994400
O531	O53	0.888500	0.956200	0.381600
O541	O54	0.884600	0.994400	0.242400
O551	O55	0.047400	0.987900	0.052900
O561	O56	0.221100	0.933100	0.000300
O571	O57	0.691700	0.028300	0.203700
O581	O58	0.546900	0.017200	0.319000
O591	O59	0.523300	0.872400	0.455800
O601	O60	0.636800	0.754400	0.505600
O611	O61	0.726300	0.543800	0.118400
O621	O62	0.621400	0.505600	0.257600
O631	O63	0.588200	0.512100	0.447100
O641	O64	0.654500	0.566900	0.499700
