data_PEHQID_neutral_PM
_symmetry_space_group_name_H-M	'P1'
_cell_length_a	9.577400
_cell_length_b	9.718200
_cell_length_c	25.396000
_cell_angle_alpha	90.000000
_cell_angle_beta	90.000000
_cell_angle_gamma	119.522000
_symmetry_Int_Tables_number 1

loop_
_symmetry_equiv_pos_as_xyz
'x,y,z'

loop_
_atom_site_label
_atom_site_type_symbol
_atom_site_fract_x
_atom_site_fract_y
_atom_site_fract_z
Cd11	Cd1	0.935510	0.828700	0.392110
Cd21	Cd2	0.064490	0.171300	0.892110
Cd31	Cd3	0.893190	0.828700	0.107890
Cd41	Cd4	0.106810	0.171300	0.607890
Cd51	Cd5	0.232200	0.000000	0.500000
Cd61	Cd6	0.767800	0.000000	0.000000
H11	H1	0.190600	0.581000	0.479600
H21	H2	0.092800	0.406200	0.382200
H31	H3	0.989200	0.353400	0.433800
H41	H4	0.175400	0.309800	0.475600
H51	H5	0.364300	0.422200	0.380700
H61	H6	0.416300	0.360400	0.429400
H71	H7	0.457900	0.574800	0.476600
H81	H8	0.359300	0.679600	0.384500
H91	H9	0.411400	0.774200	0.437500
H101	H10	0.113300	0.033400	0.286200
H111	H11	0.164700	0.904200	0.294800
H121	H12	0.852600	0.992600	0.299900
H131	H13	0.707800	0.822400	0.289700
H141	H14	0.898900	0.600400	0.287300
H151	H15	0.735100	0.596600	0.296500
H161	H16	0.809400	0.419000	0.979600
H171	H17	0.907200	0.593800	0.882200
H181	H18	0.010800	0.646600	0.933800
H191	H19	0.824600	0.690200	0.975600
H201	H20	0.635700	0.577800	0.880700
H211	H21	0.583700	0.639600	0.929400
H221	H22	0.542100	0.425200	0.976600
H231	H23	0.640700	0.320400	0.884500
H241	H24	0.588600	0.225800	0.937500
H251	H25	0.886700	0.966600	0.786200
H261	H26	0.835300	0.095800	0.794800
H271	H27	0.147400	0.007400	0.799900
H281	H28	0.292200	0.177600	0.789700
H291	H29	0.101100	0.399600	0.787300
H301	H30	0.264900	0.403400	0.796500
H311	H31	0.390400	0.581000	0.020400
H321	H32	0.313400	0.406200	0.117800
H331	H33	0.364200	0.353400	0.066200
H341	H34	0.134400	0.309800	0.024400
H351	H35	0.057900	0.422200	0.119300
H361	H36	0.944100	0.360400	0.070600
H371	H37	0.116900	0.574800	0.023400
H381	H38	0.320300	0.679600	0.115500
H391	H39	0.362800	0.774200	0.062500
H401	H40	0.920100	0.033400	0.213800
H411	H41	0.739500	0.904200	0.205200
H421	H42	0.140000	0.992600	0.200100
H431	H43	0.114600	0.822400	0.210300
H441	H44	0.701500	0.600400	0.212700
H451	H45	0.861500	0.596600	0.203500
H461	H46	0.609600	0.419000	0.520400
H471	H47	0.686600	0.593800	0.617800
H481	H48	0.635800	0.646600	0.566200
H491	H49	0.865600	0.690200	0.524400
H501	H50	0.942100	0.577800	0.619300
H511	H51	0.055900	0.639600	0.570600
H521	H52	0.883100	0.425200	0.523400
H531	H53	0.679700	0.320400	0.615500
H541	H54	0.637200	0.225800	0.562500
H551	H55	0.079900	0.966600	0.713800
H561	H56	0.260500	0.095800	0.705200
H571	H57	0.860000	0.007400	0.700100
H581	H58	0.885400	0.177600	0.710300
H591	H59	0.298500	0.399600	0.712700
H601	H60	0.138500	0.403400	0.703500
C11	C1	0.085200	0.667000	0.422200
C21	C2	0.189900	0.583200	0.441000
C31	C3	0.098200	0.406200	0.420300
C41	C4	0.180000	0.319200	0.437100
C51	C5	0.362800	0.418600	0.418900
C61	C6	0.458700	0.580800	0.438000
C71	C7	0.358500	0.668800	0.422500
C81	C8	0.091800	0.158000	0.413300
C91	C9	0.616300	0.660400	0.423100
C101	C10	0.084100	0.924400	0.279200
C111	C11	0.819800	0.893600	0.281600
C121	C12	0.839100	0.654600	0.279600
C131	C13	0.914800	0.333000	0.922200
C141	C14	0.810100	0.416800	0.941000
C151	C15	0.901800	0.593800	0.920300
C161	C16	0.820000	0.680800	0.937100
C171	C17	0.637200	0.581400	0.918900
C181	C18	0.541300	0.419200	0.938000
C191	C19	0.641500	0.331200	0.922500
C201	C20	0.908200	0.842000	0.913300
C211	C21	0.383700	0.339600	0.923100
C221	C22	0.915900	0.075600	0.779200
C231	C23	0.180200	0.106400	0.781600
C241	C24	0.160900	0.345400	0.779600
C251	C25	0.581800	0.667000	0.077800
C261	C26	0.393300	0.583200	0.059000
C271	C27	0.308000	0.406200	0.079700
C281	C28	0.139200	0.319200	0.062900
C291	C29	0.055800	0.418600	0.081100
C301	C30	0.122100	0.580800	0.062000
C311	C31	0.310300	0.668800	0.077500
C321	C32	0.066200	0.158000	0.086700
C331	C33	0.044100	0.660400	0.076900
C341	C34	0.840300	0.924400	0.220800
C351	C35	0.073800	0.893600	0.218400
C361	C36	0.815500	0.654600	0.220400
C371	C37	0.418200	0.333000	0.577800
C381	C38	0.606700	0.416800	0.559000
C391	C39	0.692000	0.593800	0.579700
C401	C40	0.860800	0.680800	0.562900
C411	C41	0.944200	0.581400	0.581100
C421	C42	0.877900	0.419200	0.562000
C431	C43	0.689700	0.331200	0.577500
C441	C44	0.933800	0.842000	0.586700
C451	C45	0.955900	0.339600	0.576900
C461	C46	0.159700	0.075600	0.720800
C471	C47	0.926200	0.106400	0.718400
C481	C48	0.184500	0.345400	0.720400
N11	N1	0.926500	0.817800	0.301600
N21	N2	0.073500	0.182200	0.801600
N31	N3	0.891300	0.817800	0.198400
N41	N4	0.108700	0.182200	0.698400
O11	O1	0.087200	0.759400	0.461700
O21	O2	0.066400	0.678600	0.377000
O31	O3	0.109300	0.045000	0.433200
O41	O4	0.005300	0.146400	0.380800
O51	O5	0.711000	0.784400	0.438000
O61	O6	0.667400	0.606800	0.390900
O71	O7	0.380400	0.906800	0.542800
O81	O8	0.912800	0.240600	0.961700
O91	O9	0.933600	0.321400	0.877000
O101	O10	0.890700	0.955000	0.933200
O111	O11	0.994700	0.853600	0.880800
O121	O12	0.289000	0.215600	0.938000
O131	O13	0.332600	0.393200	0.890900
O141	O14	0.619600	0.093200	0.042800
O151	O15	0.672200	0.759400	0.038300
O161	O16	0.612200	0.678600	0.123000
O171	O17	0.935700	0.045000	0.066800
O181	O18	0.141100	0.146400	0.119200
O191	O19	0.073400	0.784400	0.062000
O201	O20	0.939400	0.606800	0.109100
O211	O21	0.526400	0.906800	0.957200
O221	O22	0.327800	0.240600	0.538300
O231	O23	0.387800	0.321400	0.623000
O241	O24	0.064300	0.955000	0.566800
O251	O25	0.858900	0.853600	0.619200
O261	O26	0.926600	0.215600	0.562000
O271	O27	0.060600	0.393200	0.609100
O281	O28	0.473600	0.093200	0.457200
