data_PEHTON_clean_PM
_symmetry_space_group_name_H-M	'P1'
_cell_length_a	9.209100
_cell_length_b	22.753200
_cell_length_c	23.090200
_cell_angle_alpha	90.000000
_cell_angle_beta	90.000000
_cell_angle_gamma	90.000000
_symmetry_Int_Tables_number 1

loop_
_symmetry_equiv_pos_as_xyz
'x,y,z'

loop_
_atom_site_label
_atom_site_type_symbol
_atom_site_fract_x
_atom_site_fract_y
_atom_site_fract_z
Cu11	Cu1	0.388840	0.032820	0.532640
N11	N1	0.491300	0.051800	0.602700
N21	N2	0.259900	0.005700	0.987800
C11	C1	0.550600	0.010100	0.635600
H11	H1	0.550900	0.971600	0.622200
C21	C2	0.611800	0.022200	0.688900
H21	H2	0.652300	0.991600	0.710200
C31	C3	0.614300	0.076600	0.710800
C41	C4	0.557200	0.119800	0.675900
H31	H3	0.559600	0.158700	0.688200
C51	C5	0.496500	0.106100	0.623200
H41	H4	0.457400	0.136400	0.600900
C61	C6	0.663800	0.088700	0.771300
H51	H5	0.689600	0.129800	0.775000
H61	H6	0.749400	0.065400	0.779700
C71	C7	0.544100	0.073700	0.814200
H71	H7	0.461500	0.099100	0.806800
H81	H8	0.513100	0.033500	0.807500
C81	C8	0.587000	0.079900	0.876800
H91	H9	0.601500	0.121200	0.885700
H101	H10	0.678100	0.059600	0.883300
C91	C9	0.278300	0.063000	0.983500
H111	H11	0.217900	0.087300	0.005100
C101	C10	0.380800	0.088600	0.949100
H121	H12	0.388700	0.129300	0.947900
C111	C11	0.471700	0.054800	0.916500
C121	C12	0.452700	0.994300	0.920800
H131	H13	0.511600	0.969200	0.899400
C131	C13	0.349300	0.971800	0.955900
H141	H14	0.339500	0.931100	0.958200
Cu21	Cu2	0.111160	0.967180	0.032640
N31	N3	0.008700	0.948200	0.102700
N41	N4	0.240100	0.994300	0.487800
C141	C14	0.949400	0.989900	0.135600
H151	H15	0.949100	0.028400	0.122200
C151	C15	0.888200	0.977800	0.188900
H161	H16	0.847700	0.008400	0.210200
C161	C16	0.885700	0.923400	0.210800
C171	C17	0.942800	0.880200	0.175900
H171	H17	0.940400	0.841300	0.188200
C181	C18	0.003500	0.893900	0.123200
H181	H18	0.042600	0.863600	0.100900
C191	C19	0.836200	0.911300	0.271300
H191	H19	0.810400	0.870200	0.275000
H201	H20	0.750600	0.934600	0.279700
C201	C20	0.955900	0.926300	0.314200
H211	H21	0.038500	0.900900	0.306800
H221	H22	0.986900	0.966500	0.307500
C211	C21	0.913000	0.920100	0.376800
H231	H23	0.898500	0.878800	0.385700
H241	H24	0.821900	0.940400	0.383300
C221	C22	0.221700	0.937000	0.483500
H251	H25	0.282100	0.912700	0.505100
C231	C23	0.119200	0.911400	0.449100
H261	H26	0.111300	0.870700	0.447900
C241	C24	0.028300	0.945200	0.416500
C251	C25	0.047300	0.005700	0.420800
H271	H27	0.988400	0.030800	0.399400
C261	C26	0.150700	0.028200	0.455900
H281	H28	0.160500	0.068900	0.458200
Cu31	Cu3	0.611160	0.532820	0.467360
N51	N5	0.508700	0.551800	0.397300
N61	N6	0.740100	0.505700	0.012200
C271	C27	0.449400	0.510100	0.364400
H291	H29	0.449100	0.471600	0.377800
C281	C28	0.388200	0.522200	0.311100
H301	H30	0.347700	0.491600	0.289800
C291	C29	0.385700	0.576600	0.289200
C301	C30	0.442800	0.619800	0.324100
H311	H31	0.440400	0.658700	0.311800
C311	C31	0.503500	0.606100	0.376800
H321	H32	0.542600	0.636400	0.399100
C321	C32	0.336200	0.588700	0.228700
H331	H33	0.310400	0.629800	0.225000
H341	H34	0.250600	0.565400	0.220300
C331	C33	0.455900	0.573700	0.185800
H351	H35	0.538500	0.599100	0.193200
H361	H36	0.486900	0.533500	0.192500
C341	C34	0.413000	0.579900	0.123200
H371	H37	0.398500	0.621200	0.114300
H381	H38	0.321900	0.559600	0.116700
C351	C35	0.721700	0.563000	0.016500
H391	H39	0.782100	0.587300	0.994900
C361	C36	0.619200	0.588600	0.050900
H401	H40	0.611300	0.629300	0.052100
C371	C37	0.528300	0.554800	0.083500
C381	C38	0.547300	0.494300	0.079200
H411	H41	0.488400	0.469200	0.100600
C391	C39	0.650700	0.471800	0.044100
H421	H42	0.660500	0.431100	0.041800
Cu41	Cu4	0.888840	0.467180	0.967360
N71	N7	0.991300	0.448200	0.897300
N81	N8	0.759900	0.494300	0.512200
C401	C40	0.050600	0.489900	0.864400
H431	H43	0.050900	0.528400	0.877800
C411	C41	0.111800	0.477800	0.811100
H441	H44	0.152300	0.508400	0.789800
C421	C42	0.114300	0.423400	0.789200
C431	C43	0.057200	0.380200	0.824100
H451	H45	0.059600	0.341300	0.811800
C441	C44	0.996500	0.393900	0.876800
H461	H46	0.957400	0.363600	0.899100
C451	C45	0.163800	0.411300	0.728700
H471	H47	0.189600	0.370200	0.725000
H481	H48	0.249400	0.434600	0.720300
C461	C46	0.044100	0.426300	0.685800
H491	H49	0.961500	0.400900	0.693200
H501	H50	0.013100	0.466500	0.692500
C471	C47	0.087000	0.420100	0.623200
H511	H51	0.101500	0.378800	0.614300
H521	H52	0.178100	0.440400	0.616700
C481	C48	0.778300	0.437000	0.516500
H531	H53	0.717900	0.412700	0.494900
C491	C49	0.880800	0.411400	0.550900
H541	H54	0.888700	0.370700	0.552100
C501	C50	0.971700	0.445200	0.583500
C511	C51	0.952700	0.505700	0.579200
H551	H55	0.011600	0.530800	0.600600
C521	C52	0.849300	0.528200	0.544100
H561	H56	0.839500	0.568900	0.541800
Cu51	Cu5	0.611160	0.967180	0.467360
N91	N9	0.508700	0.948200	0.397300
N101	N10	0.740100	0.994300	0.012200
C531	C53	0.449400	0.989900	0.364400
H571	H57	0.449100	0.028400	0.377800
C541	C54	0.388200	0.977800	0.311100
H581	H58	0.347700	0.008400	0.289800
C551	C55	0.385700	0.923400	0.289200
C561	C56	0.442800	0.880200	0.324100
H591	H59	0.440400	0.841300	0.311800
C571	C57	0.503500	0.893900	0.376800
H601	H60	0.542600	0.863600	0.399100
C581	C58	0.336200	0.911300	0.228700
H611	H61	0.310400	0.870200	0.225000
H621	H62	0.250600	0.934600	0.220300
C591	C59	0.455900	0.926300	0.185800
H631	H63	0.538500	0.900900	0.193200
H641	H64	0.486900	0.966500	0.192500
C601	C60	0.413000	0.920100	0.123200
H651	H65	0.398500	0.878800	0.114300
H661	H66	0.321900	0.940400	0.116700
C611	C61	0.721700	0.937000	0.016500
H671	H67	0.782100	0.912700	0.994900
C621	C62	0.619200	0.911400	0.050900
H681	H68	0.611300	0.870700	0.052100
C631	C63	0.528300	0.945200	0.083500
C641	C64	0.547300	0.005700	0.079200
H691	H69	0.488400	0.030800	0.100600
C651	C65	0.650700	0.028200	0.044100
H701	H70	0.660500	0.068900	0.041800
Cu61	Cu6	0.888840	0.032820	0.967360
N111	N11	0.991300	0.051800	0.897300
N121	N12	0.759900	0.005700	0.512200
C661	C66	0.050600	0.010100	0.864400
H711	H71	0.050900	0.971600	0.877800
C671	C67	0.111800	0.022200	0.811100
H721	H72	0.152300	0.991600	0.789800
C681	C68	0.114300	0.076600	0.789200
C691	C69	0.057200	0.119800	0.824100
H731	H73	0.059600	0.158700	0.811800
C701	C70	0.996500	0.106100	0.876800
H741	H74	0.957400	0.136400	0.899100
C711	C71	0.163800	0.088700	0.728700
H751	H75	0.189600	0.129800	0.725000
H761	H76	0.249400	0.065400	0.720300
C721	C72	0.044100	0.073700	0.685800
H771	H77	0.961500	0.099100	0.693200
H781	H78	0.013100	0.033500	0.692500
C731	C73	0.087000	0.079900	0.623200
H791	H79	0.101500	0.121200	0.614300
H801	H80	0.178100	0.059600	0.616700
C741	C74	0.778300	0.063000	0.516500
H811	H81	0.717900	0.087300	0.494900
C751	C75	0.880800	0.088600	0.550900
H821	H82	0.888700	0.129300	0.552100
C761	C76	0.971700	0.054800	0.583500
C771	C77	0.952700	0.994300	0.579200
H831	H83	0.011600	0.969200	0.600600
C781	C78	0.849300	0.971800	0.544100
H841	H84	0.839500	0.931100	0.541800
Cu71	Cu7	0.388840	0.467180	0.532640
N131	N13	0.491300	0.448200	0.602700
N141	N14	0.259900	0.494300	0.987800
C791	C79	0.550600	0.489900	0.635600
H851	H85	0.550900	0.528400	0.622200
C801	C80	0.611800	0.477800	0.688900
H861	H86	0.652300	0.508400	0.710200
C811	C81	0.614300	0.423400	0.710800
C821	C82	0.557200	0.380200	0.675900
H871	H87	0.559600	0.341300	0.688200
C831	C83	0.496500	0.393900	0.623200
H881	H88	0.457400	0.363600	0.600900
C841	C84	0.663800	0.411300	0.771300
H891	H89	0.689600	0.370200	0.775000
H901	H90	0.749400	0.434600	0.779700
C851	C85	0.544100	0.426300	0.814200
H911	H91	0.461500	0.400900	0.806800
H921	H92	0.513100	0.466500	0.807500
C861	C86	0.587000	0.420100	0.876800
H931	H93	0.601500	0.378800	0.885700
H941	H94	0.678100	0.440400	0.883300
C871	C87	0.278300	0.437000	0.983500
H951	H95	0.217900	0.412700	0.005100
C881	C88	0.380800	0.411400	0.949100
H961	H96	0.388700	0.370700	0.947900
C891	C89	0.471700	0.445200	0.916500
C901	C90	0.452700	0.505700	0.920800
H971	H97	0.511600	0.530800	0.899400
C911	C91	0.349300	0.528200	0.955900
H981	H98	0.339500	0.568900	0.958200
Cu81	Cu8	0.111160	0.532820	0.032640
N151	N15	0.008700	0.551800	0.102700
N161	N16	0.240100	0.505700	0.487800
C921	C92	0.949400	0.510100	0.135600
H991	H99	0.949100	0.471600	0.122200
C931	C93	0.888200	0.522200	0.188900
H1001	H100	0.847700	0.491600	0.210200
C941	C94	0.885700	0.576600	0.210800
C951	C95	0.942800	0.619800	0.175900
H1011	H101	0.940400	0.658700	0.188200
C961	C96	0.003500	0.606100	0.123200
H1021	H102	0.042600	0.636400	0.100900
C971	C97	0.836200	0.588700	0.271300
H1031	H103	0.810400	0.629800	0.275000
H1041	H104	0.750600	0.565400	0.279700
C981	C98	0.955900	0.573700	0.314200
H1051	H105	0.038500	0.599100	0.306800
H1061	H106	0.986900	0.533500	0.307500
C991	C99	0.913000	0.579900	0.376800
H1071	H107	0.898500	0.621200	0.385700
H1081	H108	0.821900	0.559600	0.383300
C1001	C100	0.221700	0.563000	0.483500
H1091	H109	0.282100	0.587300	0.505100
C1011	C101	0.119200	0.588600	0.449100
H1101	H110	0.111300	0.629300	0.447900
C1021	C102	0.028300	0.554800	0.416500
C1031	C103	0.047300	0.494300	0.420800
H1111	H111	0.988400	0.469200	0.399400
C1041	C104	0.150700	0.471800	0.455900
H1121	H112	0.160500	0.431100	0.458200
O11	O1	0.462600	0.097200	0.462700
O21	O2	0.307300	0.151300	0.511900
C1051	C105	0.464000	0.197800	0.446000
C1061	C106	0.557700	0.196100	0.401200
H1131	H113	0.590400	0.160600	0.386100
C1071	C107	0.405500	0.144200	0.476600
O31	O3	0.462600	0.402800	0.462700
O41	O4	0.307300	0.348700	0.511900
C1081	C108	0.464000	0.302200	0.446000
C1091	C109	0.557700	0.303900	0.401200
H1141	H114	0.590400	0.339400	0.386100
C1101	C110	0.405500	0.355800	0.476600
Cu91	Cu9	0.264820	0.250000	0.527340
O51	O5	0.348200	0.250000	0.699100
O61	O6	0.383200	0.250000	0.603800
O71	O7	0.084200	0.250000	0.473800
O81	O8	0.843200	0.250000	0.476000
N171	N17	0.107500	0.250000	0.583300
N181	N18	0.417200	0.250000	0.467200
C1111	C111	0.139400	0.250000	0.640200
C1121	C112	0.024000	0.250000	0.681200
H1151	H115	0.041900	0.250000	0.720900
C1131	C113	0.888000	0.250000	0.659700
H1161	H116	0.811300	0.250000	0.686000
C1141	C114	0.855000	0.250000	0.604000
H1171	H117	0.758900	0.250000	0.591400
C1151	C115	0.973000	0.250000	0.564100
C1161	C116	0.294000	0.250000	0.649500
C1171	C117	0.958000	0.250000	0.499700
C1181	C118	0.603900	0.250000	0.378100
H1181	H118	0.667100	0.250000	0.346700
O91	O9	0.037400	0.902800	0.962700
O101	O10	0.192700	0.848700	0.011900
C1191	C119	0.036000	0.802200	0.946000
C1201	C120	0.942300	0.803900	0.901200
H1191	H119	0.909600	0.839400	0.886100
C1211	C121	0.094500	0.855800	0.976600
O111	O11	0.037400	0.597200	0.962700
O121	O12	0.192700	0.651300	0.011900
C1221	C122	0.036000	0.697800	0.946000
C1231	C123	0.942300	0.696100	0.901200
H1201	H120	0.909600	0.660600	0.886100
C1241	C124	0.094500	0.644200	0.976600
Cu101	Cu10	0.235180	0.750000	0.027340
O131	O13	0.151800	0.750000	0.199100
O141	O14	0.116800	0.750000	0.103800
O151	O15	0.415800	0.750000	0.973800
O161	O16	0.656800	0.750000	0.976000
N191	N19	0.392500	0.750000	0.083300
N201	N20	0.082800	0.750000	0.967200
C1251	C125	0.360600	0.750000	0.140200
C1261	C126	0.476000	0.750000	0.181200
H1211	H121	0.458100	0.750000	0.220900
C1271	C127	0.612000	0.750000	0.159700
H1221	H122	0.688700	0.750000	0.186000
C1281	C128	0.645000	0.750000	0.104000
H1231	H123	0.741100	0.750000	0.091400
C1291	C129	0.527000	0.750000	0.064100
C1301	C130	0.206000	0.750000	0.149500
C1311	C131	0.542000	0.750000	0.999700
C1321	C132	0.896100	0.750000	0.878100
H1241	H124	0.832900	0.750000	0.846700
O171	O17	0.537400	0.597200	0.537300
O181	O18	0.692700	0.651300	0.488100
C1331	C133	0.536000	0.697800	0.554000
C1341	C134	0.442300	0.696100	0.598800
H1251	H125	0.409600	0.660600	0.613900
C1351	C135	0.594500	0.644200	0.523400
O191	O19	0.537400	0.902800	0.537300
O201	O20	0.692700	0.848700	0.488100
C1361	C136	0.536000	0.802200	0.554000
C1371	C137	0.442300	0.803900	0.598800
H1261	H126	0.409600	0.839400	0.613900
C1381	C138	0.594500	0.855800	0.523400
Cu111	Cu11	0.735180	0.750000	0.472660
O211	O21	0.651800	0.750000	0.300900
O221	O22	0.616800	0.750000	0.396200
O231	O23	0.915800	0.750000	0.526200
O241	O24	0.156800	0.750000	0.524000
N211	N21	0.892500	0.750000	0.416700
N221	N22	0.582800	0.750000	0.532800
C1391	C139	0.860600	0.750000	0.359800
C1401	C140	0.976000	0.750000	0.318800
H1271	H127	0.958100	0.750000	0.279100
C1411	C141	0.112000	0.750000	0.340300
H1281	H128	0.188700	0.750000	0.314000
C1421	C142	0.145000	0.750000	0.396000
H1291	H129	0.241100	0.750000	0.408600
C1431	C143	0.027000	0.750000	0.435900
C1441	C144	0.706000	0.750000	0.350500
C1451	C145	0.042000	0.750000	0.500300
C1461	C146	0.396100	0.750000	0.621900
H1301	H130	0.332900	0.750000	0.653300
O251	O25	0.962600	0.402800	0.037300
O261	O26	0.807300	0.348700	0.988100
C1471	C147	0.964000	0.302200	0.054000
C1481	C148	0.057700	0.303900	0.098800
H1311	H131	0.090400	0.339400	0.113900
C1491	C149	0.905500	0.355800	0.023400
O271	O27	0.962600	0.097200	0.037300
O281	O28	0.807300	0.151300	0.988100
C1501	C150	0.964000	0.197800	0.054000
C1511	C151	0.057700	0.196100	0.098800
H1321	H132	0.090400	0.160600	0.113900
C1521	C152	0.905500	0.144200	0.023400
Cu121	Cu12	0.764820	0.250000	0.972660
O291	O29	0.848200	0.250000	0.800900
O301	O30	0.883200	0.250000	0.896200
O311	O31	0.584200	0.250000	0.026200
O321	O32	0.343200	0.250000	0.024000
N231	N23	0.607500	0.250000	0.916700
N241	N24	0.917200	0.250000	0.032800
C1531	C153	0.639400	0.250000	0.859800
C1541	C154	0.524000	0.250000	0.818800
H1331	H133	0.541900	0.250000	0.779100
C1551	C155	0.388000	0.250000	0.840300
H1341	H134	0.311300	0.250000	0.814000
C1561	C156	0.355000	0.250000	0.896000
H1351	H135	0.258900	0.250000	0.908600
C1571	C157	0.473000	0.250000	0.935900
C1581	C158	0.794000	0.250000	0.850500
C1591	C159	0.458000	0.250000	0.000300
C1601	C160	0.103900	0.250000	0.121900
H1361	H136	0.167100	0.250000	0.153300
