data_PEJFIU_clean_PM
_symmetry_space_group_name_H-M	'P1'
_cell_length_a	10.807000
_cell_length_b	14.066000
_cell_length_c	13.084000
_cell_angle_alpha	90.000000
_cell_angle_beta	96.342000
_cell_angle_gamma	90.000000
_symmetry_Int_Tables_number 1

loop_
_symmetry_equiv_pos_as_xyz
'x,y,z'

loop_
_atom_site_label
_atom_site_type_symbol
_atom_site_fract_x
_atom_site_fract_y
_atom_site_fract_z
Ga11	Ga1	0.131200	0.383050	0.939000
Ga21	Ga2	0.150870	0.233570	0.366370
P11	P1	0.133560	0.226130	0.122940
O11	O1	0.970000	0.391400	0.986100
P21	P2	0.832580	0.402750	0.983330
O21	O2	0.052400	0.283300	0.829500
O31	O3	0.065700	0.472200	0.821900
O41	O4	0.175000	0.304000	0.054600
O51	O5	0.215300	0.137900	0.121500
O61	O6	0.142200	0.269200	0.232400
O71	O7	0.996800	0.194500	0.093500
O81	O8	0.784200	0.341600	0.070000
O91	O9	0.793600	0.505700	0.992900
O101	O10	0.763100	0.365300	0.880500
Ga31	Ga3	0.631200	0.883050	0.939000
Ga41	Ga4	0.650870	0.733570	0.366370
P31	P3	0.633560	0.726130	0.122940
O111	O11	0.470000	0.891400	0.986100
P41	P4	0.332580	0.902750	0.983330
O121	O12	0.552400	0.783300	0.829500
O131	O13	0.565700	0.972200	0.821900
O141	O14	0.675000	0.804000	0.054600
O151	O15	0.715300	0.637900	0.121500
O161	O16	0.642200	0.769200	0.232400
O171	O17	0.496800	0.694500	0.093500
O181	O18	0.284200	0.841600	0.070000
O191	O19	0.293600	0.005700	0.992900
O201	O20	0.263100	0.865300	0.880500
Ga51	Ga5	0.868800	0.383050	0.561000
Ga61	Ga6	0.849130	0.233570	0.133630
P51	P5	0.866440	0.226130	0.377060
O211	O21	0.030000	0.391400	0.513900
P61	P6	0.167420	0.402750	0.516670
O221	O22	0.947600	0.283300	0.670500
O231	O23	0.934300	0.472200	0.678100
O241	O24	0.825000	0.304000	0.445400
O251	O25	0.784700	0.137900	0.378500
O261	O26	0.857800	0.269200	0.267600
O271	O27	0.003200	0.194500	0.406500
O281	O28	0.215800	0.341600	0.430000
O291	O29	0.206400	0.505700	0.507100
O301	O30	0.236900	0.365300	0.619500
Ga71	Ga7	0.368800	0.883050	0.561000
Ga81	Ga8	0.349130	0.733570	0.133630
P71	P7	0.366440	0.726130	0.377060
O311	O31	0.530000	0.891400	0.513900
P81	P8	0.667420	0.902750	0.516670
O321	O32	0.447600	0.783300	0.670500
O331	O33	0.434300	0.972200	0.678100
O341	O34	0.325000	0.804000	0.445400
O351	O35	0.284700	0.637900	0.378500
O361	O36	0.357800	0.769200	0.267600
O371	O37	0.503200	0.694500	0.406500
O381	O38	0.715800	0.841600	0.430000
O391	O39	0.706400	0.005700	0.507100
O401	O40	0.736900	0.865300	0.619500
Ga91	Ga9	0.868800	0.616950	0.061000
Ga101	Ga10	0.849130	0.766430	0.633630
P91	P9	0.866440	0.773870	0.877060
O411	O41	0.030000	0.608600	0.013900
P101	P10	0.167420	0.597250	0.016670
O421	O42	0.947600	0.716700	0.170500
O431	O43	0.934300	0.527800	0.178100
O441	O44	0.825000	0.696000	0.945400
O451	O45	0.784700	0.862100	0.878500
O461	O46	0.857800	0.730800	0.767600
O471	O47	0.003200	0.805500	0.906500
O481	O48	0.215800	0.658400	0.930000
O491	O49	0.206400	0.494300	0.007100
O501	O50	0.236900	0.634700	0.119500
Ga111	Ga11	0.368800	0.116950	0.061000
Ga121	Ga12	0.349130	0.266430	0.633630
P111	P11	0.366440	0.273870	0.877060
O511	O51	0.530000	0.108600	0.013900
P121	P12	0.667420	0.097250	0.016670
O521	O52	0.447600	0.216700	0.170500
O531	O53	0.434300	0.027800	0.178100
O541	O54	0.325000	0.196000	0.945400
O551	O55	0.284700	0.362100	0.878500
O561	O56	0.357800	0.230800	0.767600
O571	O57	0.503200	0.305500	0.906500
O581	O58	0.715800	0.158400	0.930000
O591	O59	0.706400	0.994300	0.007100
O601	O60	0.736900	0.134700	0.119500
Ga131	Ga13	0.131200	0.616950	0.439000
Ga141	Ga14	0.150870	0.766430	0.866370
P131	P13	0.133560	0.773870	0.622940
O611	O61	0.970000	0.608600	0.486100
P141	P14	0.832580	0.597250	0.483330
O621	O62	0.052400	0.716700	0.329500
O631	O63	0.065700	0.527800	0.321900
O641	O64	0.175000	0.696000	0.554600
O651	O65	0.215300	0.862100	0.621500
O661	O66	0.142200	0.730800	0.732400
O671	O67	0.996800	0.805500	0.593500
O681	O68	0.784200	0.658400	0.570000
O691	O69	0.793600	0.494300	0.492900
O701	O70	0.763100	0.634700	0.380500
Ga151	Ga15	0.631200	0.116950	0.439000
Ga161	Ga16	0.650870	0.266430	0.866370
P151	P15	0.633560	0.273870	0.622940
O711	O71	0.470000	0.108600	0.486100
P161	P16	0.332580	0.097250	0.483330
O721	O72	0.552400	0.216700	0.329500
O731	O73	0.565700	0.027800	0.321900
O741	O74	0.675000	0.196000	0.554600
O751	O75	0.715300	0.362100	0.621500
O761	O76	0.642200	0.230800	0.732400
O771	O77	0.496800	0.305500	0.593500
O781	O78	0.284200	0.158400	0.570000
O791	O79	0.293600	0.994300	0.492900
O801	O80	0.263100	0.134700	0.380500
C11	C1	0.000000	0.322400	0.750000
C21	C2	0.000000	0.432100	0.750000
C31	C3	0.500000	0.822400	0.750000
C41	C4	0.500000	0.932100	0.750000
C51	C5	0.000000	0.677600	0.250000
C61	C6	0.000000	0.567900	0.250000
C71	C7	0.500000	0.177600	0.250000
C81	C8	0.500000	0.067900	0.250000
