data_PEJNUP_clean_PM
_symmetry_space_group_name_H-M	'P1'
_cell_length_a	16.965000
_cell_length_b	15.517100
_cell_length_c	14.072600
_cell_angle_alpha	90.000000
_cell_angle_beta	108.119000
_cell_angle_gamma	90.000000
_symmetry_Int_Tables_number 1

loop_
_symmetry_equiv_pos_as_xyz
'x,y,z'

loop_
_atom_site_label
_atom_site_type_symbol
_atom_site_fract_x
_atom_site_fract_y
_atom_site_fract_z
Zn11	Zn1	0.512250	0.704370	0.636360
O11	O1	0.480600	0.319300	0.493300
O21	O2	0.498800	0.194700	0.567700
O31	O3	0.510100	0.584800	0.676200
O41	O4	0.405400	0.754000	0.624900
O51	O5	0.395400	0.766300	0.777900
O61	O6	0.055600	0.883600	0.362800
O71	O7	0.170900	0.840700	0.331600
O81	O8	0.065800	0.978500	0.687500
O91	O9	0.153800	0.922700	0.825100
C11	C1	0.497300	0.406900	0.664100
H11	H1	0.496300	0.437000	0.606500
C21	C2	0.495900	0.318300	0.662000
C31	C3	0.491200	0.272300	0.568500
C41	C4	0.133900	0.891800	0.563100
H21	H2	0.083300	0.919600	0.536000
C51	C5	0.170000	0.854600	0.499900
C61	C6	0.245600	0.816400	0.539600
H31	H3	0.270900	0.791400	0.496500
C71	C7	0.286800	0.813600	0.643000
C81	C8	0.243800	0.850200	0.705500
H41	H4	0.267000	0.846900	0.774600
C91	C9	0.168400	0.890600	0.665200
C101	C10	0.367900	0.774600	0.685000
C111	C11	0.131300	0.859800	0.391100
C121	C12	0.129600	0.934300	0.733500
Zn21	Zn2	0.487750	0.704370	0.863640
O101	O10	0.519400	0.319300	0.006700
O111	O11	0.501200	0.194700	0.932300
O121	O12	0.489900	0.584800	0.823800
O131	O13	0.594600	0.754000	0.875100
O141	O14	0.604600	0.766300	0.722100
O151	O15	0.944400	0.883600	0.137200
O161	O16	0.829100	0.840700	0.168400
O171	O17	0.934200	0.978500	0.812500
O181	O18	0.846200	0.922700	0.674900
C131	C13	0.502700	0.406900	0.835900
H51	H5	0.503700	0.437000	0.893500
C141	C14	0.504100	0.318300	0.838000
C151	C15	0.508800	0.272300	0.931500
C161	C16	0.866100	0.891800	0.936900
H61	H6	0.916700	0.919600	0.964000
C171	C17	0.830000	0.854600	0.000100
C181	C18	0.754400	0.816400	0.960400
H71	H7	0.729100	0.791400	0.003500
C191	C19	0.713200	0.813600	0.857000
C201	C20	0.756200	0.850200	0.794500
H81	H8	0.733000	0.846900	0.725400
C211	C21	0.831600	0.890600	0.834800
C221	C22	0.632100	0.774600	0.815000
C231	C23	0.868700	0.859800	0.108900
C241	C24	0.870400	0.934300	0.766500
Zn31	Zn3	0.487750	0.295630	0.363640
O191	O19	0.519400	0.680700	0.506700
O201	O20	0.501200	0.805300	0.432300
O211	O21	0.489900	0.415200	0.323800
O221	O22	0.594600	0.246000	0.375100
O231	O23	0.604600	0.233700	0.222100
O241	O24	0.944400	0.116400	0.637200
O251	O25	0.829100	0.159300	0.668400
O261	O26	0.934200	0.021500	0.312500
O271	O27	0.846200	0.077300	0.174900
C251	C25	0.502700	0.593100	0.335900
H91	H9	0.503700	0.563000	0.393500
C261	C26	0.504100	0.681700	0.338000
C271	C27	0.508800	0.727700	0.431500
C281	C28	0.866100	0.108200	0.436900
H101	H10	0.916700	0.080400	0.464000
C291	C29	0.830000	0.145400	0.500100
C301	C30	0.754400	0.183600	0.460400
H111	H11	0.729100	0.208600	0.503500
C311	C31	0.713200	0.186400	0.357000
C321	C32	0.756200	0.149800	0.294500
H121	H12	0.733000	0.153100	0.225400
C331	C33	0.831600	0.109400	0.334800
C341	C34	0.632100	0.225400	0.315000
C351	C35	0.868700	0.140200	0.608900
C361	C36	0.870400	0.065700	0.266500
Zn41	Zn4	0.512250	0.295630	0.136360
O281	O28	0.480600	0.680700	0.993300
O291	O29	0.498800	0.805300	0.067700
O301	O30	0.510100	0.415200	0.176200
O311	O31	0.405400	0.246000	0.124900
O321	O32	0.395400	0.233700	0.277900
O331	O33	0.055600	0.116400	0.862800
O341	O34	0.170900	0.159300	0.831600
O351	O35	0.065800	0.021500	0.187500
O361	O36	0.153800	0.077300	0.325100
C371	C37	0.497300	0.593100	0.164100
H131	H13	0.496300	0.563000	0.106500
C381	C38	0.495900	0.681700	0.162000
C391	C39	0.491200	0.727700	0.068500
C401	C40	0.133900	0.108200	0.063100
H141	H14	0.083300	0.080400	0.036000
C411	C41	0.170000	0.145400	0.999900
C421	C42	0.245600	0.183600	0.039600
H151	H15	0.270900	0.208600	0.996500
C431	C43	0.286800	0.186400	0.143000
C441	C44	0.243800	0.149800	0.205500
H161	H16	0.267000	0.153100	0.274600
C451	C45	0.168400	0.109400	0.165200
C461	C46	0.367900	0.225400	0.185000
C471	C47	0.131300	0.140200	0.891100
C481	C48	0.129600	0.065700	0.233500
Zn51	Zn5	0.000000	0.956500	0.250000
Zn61	Zn6	0.000000	0.043500	0.750000
C491	C49	0.500000	0.274000	0.750000
H171	H17	0.500000	0.214000	0.750000
C501	C50	0.500000	0.452600	0.750000
C511	C51	0.500000	0.548400	0.750000
C521	C52	0.500000	0.726000	0.250000
H181	H18	0.500000	0.786000	0.250000
C531	C53	0.500000	0.547400	0.250000
C541	C54	0.500000	0.451600	0.250000
