data_PEJRED_clean_PM
_symmetry_space_group_name_H-M	'P1'
_cell_length_a	9.038400
_cell_length_b	16.340700
_cell_length_c	18.505000
_cell_angle_alpha	73.394000
_cell_angle_beta	76.394000
_cell_angle_gamma	86.298000
_symmetry_Int_Tables_number 1

loop_
_symmetry_equiv_pos_as_xyz
'x,y,z'

loop_
_atom_site_label
_atom_site_type_symbol
_atom_site_fract_x
_atom_site_fract_y
_atom_site_fract_z
Co11	Co1	0.745330	0.032660	0.177120
Co21	Co2	0.847880	0.279390	0.608760
Co31	Co3	0.254670	0.967340	0.822880
Co41	Co4	0.152120	0.720610	0.391240
H11	H1	0.869600	0.461000	0.025500
H21	H2	0.692600	0.475800	0.044200
H31	H3	0.843000	0.282500	0.152900
H41	H4	0.878000	0.320800	0.216100
H51	H5	0.918900	0.503800	0.130600
H61	H6	0.819900	0.469200	0.215300
H71	H7	0.583200	0.327100	0.174300
H81	H8	0.536600	0.421500	0.174600
H91	H9	0.919100	0.601000	0.202000
H101	H10	0.747700	0.242400	0.972800
H111	H11	0.760500	0.245600	0.848300
H121	H12	0.771100	0.501400	0.788300
H131	H13	0.759100	0.499400	0.912400
H141	H14	0.017900	0.213100	0.225100
H151	H15	0.217300	0.118700	0.245900
H161	H16	0.497600	0.271700	0.064500
H171	H17	0.298200	0.363700	0.042100
H181	H18	0.937100	0.186400	0.047500
H191	H19	0.088100	0.953900	0.120000
H201	H20	0.205800	0.185600	0.983800
H211	H21	0.295900	0.909800	0.025700
H221	H22	0.458400	0.136900	0.011800
H231	H23	0.916400	0.728900	0.233800
H241	H24	0.548700	0.802200	0.149000
H251	H25	0.539800	0.672400	0.125500
H261	H26	0.125700	0.293400	0.359100
H271	H27	0.664400	0.175100	0.274100
H281	H28	0.770900	0.175900	0.381900
H291	H29	0.912100	0.968800	0.317000
H301	H30	0.620100	0.965900	0.602600
H311	H31	0.341500	0.318500	0.253500
H321	H32	0.580500	0.365800	0.397500
H331	H33	0.364100	0.348700	0.498600
H341	H34	0.756400	0.126700	0.561500
H351	H35	0.467200	0.271700	0.647400
H361	H36	0.322800	0.172700	0.613300
H371	H37	0.404300	0.137100	0.460600
H381	H38	0.130400	0.539000	0.974500
H391	H39	0.307400	0.524200	0.955800
H401	H40	0.157000	0.717500	0.847100
H411	H41	0.122000	0.679200	0.783900
H421	H42	0.081100	0.496200	0.869400
H431	H43	0.180100	0.530800	0.784700
H441	H44	0.416800	0.672900	0.825700
H451	H45	0.463400	0.578500	0.825400
H461	H46	0.080900	0.399000	0.798000
H471	H47	0.252300	0.757600	0.027200
H481	H48	0.239500	0.754400	0.151700
H491	H49	0.228900	0.498600	0.211700
H501	H50	0.240900	0.500600	0.087600
H511	H51	0.982100	0.786900	0.774900
H521	H52	0.782700	0.881300	0.754100
H531	H53	0.502400	0.728300	0.935500
H541	H54	0.701800	0.636300	0.957900
H551	H55	0.062900	0.813600	0.952500
H561	H56	0.911900	0.046100	0.880000
H571	H57	0.794200	0.814400	0.016200
H581	H58	0.704100	0.090200	0.974300
H591	H59	0.541600	0.863100	0.988200
H601	H60	0.083600	0.271100	0.766200
H611	H61	0.451300	0.197800	0.851000
H621	H62	0.460200	0.327600	0.874500
H631	H63	0.874300	0.706600	0.640900
H641	H64	0.335600	0.824900	0.725900
H651	H65	0.229100	0.824100	0.618100
H661	H66	0.087900	0.031200	0.683000
H671	H67	0.379900	0.034100	0.397400
H681	H68	0.658500	0.681500	0.746500
H691	H69	0.419500	0.634200	0.602500
H701	H70	0.635900	0.651300	0.501400
H711	H71	0.243600	0.873300	0.438500
H721	H72	0.532800	0.728300	0.352600
H731	H73	0.677200	0.827300	0.386700
H741	H74	0.595700	0.862900	0.539400
C11	C1	0.769300	0.407700	0.139700
C21	C2	0.772500	0.434500	0.054600
C31	C3	0.877300	0.333200	0.161600
C41	C4	0.818000	0.484700	0.160900
C51	C5	0.610600	0.377000	0.186900
C61	C6	0.481200	0.344600	0.318100
C71	C7	0.723800	0.623500	0.163700
C81	C8	0.842200	0.640700	0.193200
C91	C9	0.755200	0.368700	0.955400
C101	C10	0.753900	0.294600	0.935100
C111	C11	0.761300	0.296400	0.861300
C121	C12	0.770100	0.373700	0.804300
C131	C13	0.783500	0.376800	0.722000
C141	C14	0.767700	0.449300	0.825900
C151	C15	0.760500	0.448700	0.899000
C161	C16	0.137700	0.297900	0.131700
C171	C17	0.113900	0.224900	0.192300
C181	C18	0.234100	0.168100	0.204700
C191	C19	0.378000	0.184700	0.156300
C201	C20	0.401100	0.258800	0.096500
C211	C21	0.281600	0.314600	0.083500
C221	C22	0.504300	0.123800	0.173400
C231	C23	0.000600	0.139100	0.054100
C241	C24	0.082300	0.011400	0.094100
C251	C25	0.149400	0.139300	0.018600
C261	C26	0.353800	0.029000	0.020600
C271	C27	0.378000	0.946200	0.015000
C281	C28	0.475000	0.081800	0.006700
C291	C29	0.756900	0.868500	0.197500
C301	C30	0.740200	0.780200	0.190400
C311	C31	0.843300	0.718800	0.209400
C321	C32	0.623200	0.761600	0.160100
C331	C33	0.617300	0.683900	0.146600
C341	C34	0.089500	0.298800	0.506200
C351	C35	0.232400	0.317800	0.439600
C361	C36	0.218700	0.308700	0.364900
C371	C37	0.515100	0.060200	0.537200
C381	C38	0.947100	0.942400	0.469600
C391	C39	0.007800	0.912300	0.533900
C401	C40	0.938100	0.029000	0.437100
C411	C41	0.728800	0.133700	0.296100
C421	C42	0.785200	0.134100	0.355800
C431	C43	0.863300	0.020200	0.319200
C441	C44	0.572000	0.979700	0.561500
C451	C45	0.346100	0.323000	0.301900
C461	C46	0.487900	0.352400	0.389900
C471	C47	0.359600	0.340600	0.451400
C481	C48	0.663500	0.151400	0.577700
C491	C49	0.510100	0.229700	0.624000
C501	C50	0.428000	0.174900	0.606100
C511	C51	0.442700	0.082300	0.476400
C521	C52	0.230700	0.592300	0.860300
C531	C53	0.227500	0.565500	0.945400
C541	C54	0.122700	0.666800	0.838400
C551	C55	0.182000	0.515300	0.839100
C561	C56	0.389400	0.623000	0.813100
C571	C57	0.518800	0.655400	0.681900
C581	C58	0.276200	0.376500	0.836300
C591	C59	0.157800	0.359300	0.806800
C601	C60	0.244800	0.631300	0.044600
C611	C61	0.246100	0.705400	0.064900
C621	C62	0.238700	0.703600	0.138700
C631	C63	0.229900	0.626300	0.195700
C641	C64	0.216500	0.623200	0.278000
C651	C65	0.232300	0.550700	0.174100
C661	C66	0.239500	0.551300	0.101000
C671	C67	0.862300	0.702100	0.868300
C681	C68	0.886100	0.775100	0.807700
C691	C69	0.765900	0.831900	0.795300
C701	C70	0.622000	0.815300	0.843700
C711	C71	0.598900	0.741200	0.903500
C721	C72	0.718400	0.685400	0.916500
C731	C73	0.495700	0.876200	0.826600
C741	C74	0.999400	0.860900	0.945900
C751	C75	0.917700	0.988600	0.905900
C761	C76	0.850600	0.860700	0.981400
C771	C77	0.646200	0.971000	0.979400
C781	C78	0.622000	0.053800	0.985000
C791	C79	0.525000	0.918200	0.993300
C801	C80	0.243100	0.131500	0.802500
C811	C81	0.259800	0.219800	0.809600
C821	C82	0.156700	0.281200	0.790600
C831	C83	0.376800	0.238400	0.839900
C841	C84	0.382700	0.316100	0.853400
C851	C85	0.910500	0.701200	0.493800
C861	C86	0.767600	0.682200	0.560400
C871	C87	0.781300	0.691300	0.635100
C881	C88	0.484900	0.939800	0.462800
C891	C89	0.052900	0.057600	0.530400
C901	C90	0.992200	0.087700	0.466100
C911	C91	0.061900	0.971000	0.562900
C921	C92	0.271200	0.866300	0.703900
C931	C93	0.214800	0.865900	0.644200
C941	C94	0.136700	0.979800	0.680800
C951	C95	0.428000	0.020300	0.438500
C961	C96	0.653900	0.677000	0.698100
C971	C97	0.512100	0.647600	0.610100
C981	C98	0.640400	0.659400	0.548600
C991	C99	0.336500	0.848600	0.422300
C1001	C100	0.489900	0.770300	0.376000
C1011	C101	0.572000	0.825100	0.393900
C1021	C102	0.557300	0.917700	0.523600
N11	N1	0.956000	0.058500	0.101700
N21	N2	0.200300	0.058300	0.043700
N31	N3	0.867900	0.061800	0.371400
N41	N4	0.779500	0.062800	0.271400
N51	N5	0.539200	0.121500	0.573500
N61	N6	0.657700	0.216700	0.604700
N71	N7	0.044000	0.941500	0.898300
N81	N8	0.799700	0.941700	0.956300
N91	N9	0.132100	0.938200	0.628600
N101	N10	0.220500	0.937200	0.728600
N111	N11	0.460800	0.878500	0.426500
N121	N12	0.342300	0.783300	0.395300
O11	O1	0.028000	0.355900	0.115100
O21	O2	0.750100	0.360800	0.031600
O31	O3	0.710400	0.549900	0.144600
O41	O4	0.610200	0.356600	0.265300
O51	O5	0.796700	0.448200	0.673100
O61	O6	0.637100	0.140900	0.127300
O71	O7	0.480200	0.058000	0.228100
O81	O8	0.668800	0.925900	0.167600
O91	O9	0.855300	0.884500	0.228500
O101	O10	0.085900	0.318900	0.564200
O111	O11	0.972500	0.269400	0.497200
O121	O12	0.784400	0.305600	0.707500
O131	O13	0.972000	0.644100	0.884900
O141	O14	0.249900	0.639200	0.968400
O151	O15	0.289600	0.450100	0.855400
O161	O16	0.389800	0.643400	0.734700
O171	O17	0.203300	0.551800	0.326900
O181	O18	0.362900	0.859100	0.872700
O191	O19	0.519800	0.942000	0.771900
O201	O20	0.331200	0.074100	0.832400
O211	O21	0.144700	0.115500	0.771500
O221	O22	0.914100	0.681100	0.435800
O231	O23	0.027500	0.730600	0.502800
O241	O24	0.215600	0.694400	0.292500
