data_PEKWAF_clean_PM
_symmetry_space_group_name_H-M	'P1'
_cell_length_a	7.119000
_cell_length_b	14.105100
_cell_length_c	17.698000
_cell_angle_alpha	90.000000
_cell_angle_beta	90.000000
_cell_angle_gamma	90.000000
_symmetry_Int_Tables_number 1

loop_
_symmetry_equiv_pos_as_xyz
'x,y,z'

loop_
_atom_site_label
_atom_site_type_symbol
_atom_site_fract_x
_atom_site_fract_y
_atom_site_fract_z
O11	O1	0.826100	0.230200	0.887800
C11	C1	0.832500	0.045000	0.984100
H11	H1	0.718800	0.074700	0.973500
O21	O2	0.326100	0.730200	0.887800
C21	C2	0.332500	0.545000	0.984100
H21	H2	0.218800	0.574700	0.973500
O31	O3	0.173900	0.769800	0.387800
C31	C3	0.167500	0.955000	0.484100
H31	H3	0.281200	0.925300	0.473500
O41	O4	0.673900	0.269800	0.387800
C41	C4	0.667500	0.455000	0.484100
H41	H4	0.781200	0.425300	0.473500
O51	O5	0.173900	0.230200	0.612200
C51	C5	0.167500	0.045000	0.515900
H51	H5	0.281200	0.074700	0.526500
O61	O6	0.673900	0.730200	0.612200
C61	C6	0.667500	0.545000	0.515900
H61	H6	0.781200	0.574700	0.526500
O71	O7	0.826100	0.769800	0.112200
C71	C7	0.832500	0.955000	0.015900
H71	H7	0.718800	0.925300	0.026500
O81	O8	0.326100	0.269800	0.112200
C81	C8	0.332500	0.455000	0.015900
H81	H8	0.218800	0.425300	0.026500
O91	O9	0.173900	0.769800	0.112200
C91	C9	0.167500	0.955000	0.015900
H91	H9	0.281200	0.925300	0.026500
O101	O10	0.673900	0.269800	0.112200
C101	C10	0.667500	0.455000	0.015900
H101	H10	0.781200	0.425300	0.026500
O111	O11	0.826100	0.230200	0.612200
C111	C11	0.832500	0.045000	0.515900
H111	H11	0.718800	0.074700	0.526500
O121	O12	0.326100	0.730200	0.612200
C121	C12	0.332500	0.545000	0.515900
H121	H12	0.218800	0.574700	0.526500
O131	O13	0.826100	0.769800	0.387800
C131	C13	0.832500	0.955000	0.484100
H131	H13	0.718800	0.925300	0.473500
O141	O14	0.326100	0.269800	0.387800
C141	C14	0.332500	0.455000	0.484100
H141	H14	0.218800	0.425300	0.473500
O151	O15	0.173900	0.230200	0.887800
C151	C15	0.167500	0.045000	0.984100
H151	H15	0.281200	0.074700	0.973500
O161	O16	0.673900	0.730200	0.887800
C161	C16	0.667500	0.545000	0.984100
H161	H16	0.781200	0.574700	0.973500
U11	U1	0.500000	0.230000	0.865010
U21	U2	0.000000	0.730000	0.865010
U31	U3	0.500000	0.770000	0.365010
U41	U4	0.000000	0.270000	0.365010
U51	U5	0.500000	0.230000	0.634990
U61	U6	0.000000	0.730000	0.634990
U71	U7	0.500000	0.770000	0.134990
U81	U8	0.000000	0.270000	0.134990
Sr11	Sr1	0.000000	0.275110	0.750000
Sr21	Sr2	0.500000	0.775110	0.750000
Sr31	Sr3	0.000000	0.724890	0.250000
Sr41	Sr4	0.500000	0.224890	0.250000
P11	P1	0.000000	0.212400	0.936220
O171	O17	0.000000	0.274400	0.006700
C171	C17	0.000000	0.091400	0.967800
P21	P2	0.500000	0.712400	0.936220
O181	O18	0.500000	0.774400	0.006700
C181	C18	0.500000	0.591400	0.967800
P31	P3	0.000000	0.787600	0.436220
O191	O19	0.000000	0.725600	0.506700
C191	C19	0.000000	0.908600	0.467800
P41	P4	0.500000	0.287600	0.436220
O201	O20	0.500000	0.225600	0.506700
C201	C20	0.500000	0.408600	0.467800
P51	P5	0.000000	0.212400	0.563780
O211	O21	0.000000	0.274400	0.493300
C211	C21	0.000000	0.091400	0.532200
P61	P6	0.500000	0.712400	0.563780
O221	O22	0.500000	0.774400	0.493300
C221	C22	0.500000	0.591400	0.532200
P71	P7	0.000000	0.787600	0.063780
O231	O23	0.000000	0.725600	0.993300
C231	C23	0.000000	0.908600	0.032200
P81	P8	0.500000	0.287600	0.063780
O241	O24	0.500000	0.225600	0.993300
C241	C24	0.500000	0.408600	0.032200
O251	O25	0.671600	0.233500	0.750000
O261	O26	0.171600	0.733500	0.750000
O271	O27	0.328400	0.766500	0.250000
O281	O28	0.828400	0.266500	0.250000
O291	O29	0.328400	0.233500	0.750000
O301	O30	0.828400	0.733500	0.750000
O311	O31	0.671600	0.766500	0.250000
O321	O32	0.171600	0.266500	0.250000
