data_PELNEA01_clean_PM
_symmetry_space_group_name_H-M	'P1'
_cell_length_a	8.931700
_cell_length_b	12.157900
_cell_length_c	16.914800
_cell_angle_alpha	90.000000
_cell_angle_beta	90.000000
_cell_angle_gamma	108.877000
_symmetry_Int_Tables_number 1

loop_
_symmetry_equiv_pos_as_xyz
'x,y,z'

loop_
_atom_site_label
_atom_site_type_symbol
_atom_site_fract_x
_atom_site_fract_y
_atom_site_fract_z
La11	La1	0.929960	0.951330	0.616350
La21	La2	0.570040	0.048670	0.116350
La31	La3	0.070040	0.048670	0.383650
La41	La4	0.429960	0.951330	0.883650
H11	H1	0.598600	0.648200	0.808200
H21	H2	0.407600	0.473200	0.775600
H31	H3	0.624000	0.469500	0.568800
H41	H4	0.816500	0.644500	0.601900
H51	H5	0.378900	0.365000	0.536900
H61	H6	0.470500	0.284500	0.570000
H71	H7	0.824100	0.813100	0.833400
H81	H8	0.911800	0.721200	0.821100
H91	H9	0.377200	0.857000	0.491300
H101	H10	0.244900	0.793700	0.430500
H111	H11	0.199000	0.503000	0.579000
H121	H12	0.009000	0.661000	0.427000
H131	H13	0.901400	0.351800	0.308200
H141	H14	0.092400	0.526800	0.275600
H151	H15	0.876000	0.530500	0.068800
H161	H16	0.683500	0.355500	0.101900
H171	H17	0.121100	0.635000	0.036900
H181	H18	0.029500	0.715500	0.070000
H191	H19	0.675900	0.186900	0.333400
H201	H20	0.588200	0.278800	0.321100
H211	H21	0.122800	0.143000	0.991300
H221	H22	0.255100	0.206300	0.930500
H231	H23	0.301000	0.497000	0.079000
H241	H24	0.491000	0.339000	0.927000
H251	H25	0.401400	0.351800	0.191800
H261	H26	0.592400	0.526800	0.224400
H271	H27	0.376000	0.530500	0.431200
H281	H28	0.183500	0.355500	0.398100
H291	H29	0.621100	0.635000	0.463100
H301	H30	0.529500	0.715500	0.430000
H311	H31	0.175900	0.186900	0.166600
H321	H32	0.088200	0.278800	0.178900
H331	H33	0.622800	0.143000	0.508700
H341	H34	0.755100	0.206300	0.569500
H351	H35	0.801000	0.497000	0.421000
H361	H36	0.991000	0.339000	0.573000
H371	H37	0.098600	0.648200	0.691800
H381	H38	0.907600	0.473200	0.724400
H391	H39	0.124000	0.469500	0.931200
H401	H40	0.316500	0.644500	0.898100
H411	H41	0.878900	0.365000	0.963100
H421	H42	0.970500	0.284500	0.930000
H431	H43	0.324100	0.813100	0.666600
H441	H44	0.411800	0.721200	0.678900
H451	H45	0.877200	0.857000	0.008700
H461	H46	0.744900	0.793700	0.069500
H471	H47	0.699000	0.503000	0.921000
H481	H48	0.509000	0.661000	0.073000
C11	C1	0.722800	0.663590	0.706830
C21	C2	0.602900	0.612800	0.759950
C31	C3	0.488900	0.508100	0.740250
C41	C4	0.495400	0.455500	0.668560
C51	C5	0.618100	0.505600	0.616620
C61	C6	0.733200	0.610600	0.636350
C71	C7	0.375500	0.305900	0.576020
C81	C8	0.232000	0.200100	0.560750
C91	C9	0.898100	0.791500	0.799910
C101	C10	0.054700	0.887800	0.798480
C111	C11	0.157300	0.853700	0.526960
C121	C12	0.270600	0.802800	0.486400
C131	C13	0.130800	0.600300	0.507300
C141	C14	0.120600	0.501200	0.550300
C151	C15	0.007800	0.598200	0.456600
C161	C16	0.777200	0.336410	0.206830
C171	C17	0.897100	0.387200	0.259950
C181	C18	0.011100	0.491900	0.240250
C191	C19	0.004600	0.544500	0.168560
C201	C20	0.881900	0.494400	0.116620
C211	C21	0.766800	0.389400	0.136350
C221	C22	0.124500	0.694100	0.076020
C231	C23	0.268000	0.799900	0.060750
C241	C24	0.601900	0.208500	0.299910
C251	C25	0.445300	0.112200	0.298480
C261	C26	0.342700	0.146300	0.026960
C271	C27	0.229400	0.197200	0.986400
C281	C28	0.369200	0.399700	0.007300
C291	C29	0.379400	0.498800	0.050300
C301	C30	0.492200	0.401800	0.956600
C311	C31	0.277200	0.336410	0.293170
C321	C32	0.397100	0.387200	0.240050
C331	C33	0.511100	0.491900	0.259750
C341	C34	0.504600	0.544500	0.331440
C351	C35	0.381900	0.494400	0.383380
C361	C36	0.266800	0.389400	0.363650
C371	C37	0.624500	0.694100	0.423980
C381	C38	0.768000	0.799900	0.439250
C391	C39	0.101900	0.208500	0.200090
C401	C40	0.945300	0.112200	0.201520
C411	C41	0.842700	0.146300	0.473040
C421	C42	0.729400	0.197200	0.513600
C431	C43	0.869200	0.399700	0.492700
C441	C44	0.879400	0.498800	0.449700
C451	C45	0.992200	0.401800	0.543400
C461	C46	0.222800	0.663590	0.793170
C471	C47	0.102900	0.612800	0.740050
C481	C48	0.988900	0.508100	0.759750
C491	C49	0.995400	0.455500	0.831440
C501	C50	0.118100	0.505600	0.883380
C511	C51	0.233200	0.610600	0.863650
C521	C52	0.875500	0.305900	0.923980
C531	C53	0.732000	0.200100	0.939250
C541	C54	0.398100	0.791500	0.700090
C551	C55	0.554700	0.887800	0.701520
C561	C56	0.657300	0.853700	0.973040
C571	C57	0.770600	0.802800	0.013600
C581	C58	0.630800	0.600300	0.992700
C591	C59	0.620600	0.501200	0.949700
C601	C60	0.507800	0.598200	0.043400
O11	O1	0.837900	0.771330	0.720730
O21	O2	0.133800	0.939780	0.494270
O31	O3	0.096700	0.814600	0.591430
O41	O4	0.266700	0.693340	0.517890
O51	O5	0.089800	0.951930	0.738370
O61	O6	0.373900	0.352620	0.652500
O71	O7	0.160800	0.138950	0.616980
O81	O8	0.201700	0.182760	0.488990
O91	O9	0.139300	0.899330	0.858470
O101	O10	0.662100	0.228670	0.220730
O111	O11	0.366200	0.060220	0.994270
O121	O12	0.403300	0.185400	0.091430
O131	O13	0.233300	0.306660	0.017890
O141	O14	0.410200	0.048070	0.238370
O151	O15	0.126100	0.647380	0.152500
O161	O16	0.339200	0.861050	0.116980
O171	O17	0.298300	0.817240	0.988990
O181	O18	0.360700	0.100670	0.358470
O191	O19	0.162100	0.228670	0.279270
O201	O20	0.866200	0.060220	0.505730
O211	O21	0.903300	0.185400	0.408570
O221	O22	0.733300	0.306660	0.482110
O231	O23	0.910200	0.048070	0.261630
O241	O24	0.626100	0.647380	0.347500
O251	O25	0.839200	0.861050	0.383020
O261	O26	0.798300	0.817240	0.511010
O271	O27	0.860700	0.100670	0.141530
O281	O28	0.337900	0.771330	0.779270
O291	O29	0.633800	0.939780	0.005730
O301	O30	0.596700	0.814600	0.908570
O311	O31	0.766700	0.693340	0.982110
O321	O32	0.589800	0.951930	0.761630
O331	O33	0.873900	0.352620	0.847500
O341	O34	0.660800	0.138950	0.883020
O351	O35	0.701700	0.182760	0.011010
O361	O36	0.639300	0.899330	0.641530
