data_PELQII_clean_PM
_symmetry_space_group_name_H-M	'P1'
_cell_length_a	18.453800
_cell_length_b	25.344200
_cell_length_c	37.783000
_cell_angle_alpha	90.000000
_cell_angle_beta	90.000000
_cell_angle_gamma	90.000000
_symmetry_Int_Tables_number 1

loop_
_symmetry_equiv_pos_as_xyz
'x,y,z'

loop_
_atom_site_label
_atom_site_type_symbol
_atom_site_fract_x
_atom_site_fract_y
_atom_site_fract_z
Cd11	Cd1	0.526860	0.867320	0.273950
Cd21	Cd2	0.385500	0.877090	0.200820
Cd31	Cd3	0.973140	0.132680	0.773950
Cd41	Cd4	0.114500	0.122910	0.700820
Cd51	Cd5	0.473140	0.367320	0.226050
Cd61	Cd6	0.614500	0.377090	0.299180
Cd71	Cd7	0.026860	0.632680	0.726050
Cd81	Cd8	0.885500	0.622910	0.799180
H11	H1	0.149500	0.521800	0.632700
H21	H2	0.211000	0.518000	0.579700
H31	H3	0.333500	0.642700	0.613900
H41	H4	0.258900	0.641000	0.666700
H51	H5	0.698500	0.280600	0.417900
H61	H6	0.626300	0.354100	0.420900
H71	H7	0.708900	0.393900	0.514300
H81	H8	0.781800	0.315000	0.509200
H91	H9	0.447500	0.840400	0.345500
H101	H10	0.428400	0.774400	0.388200
H111	H11	0.589100	0.692000	0.343400
H121	H12	0.607800	0.762200	0.304900
H131	H13	0.307500	0.500100	0.547000
H141	H14	0.377600	0.493500	0.497100
H151	H15	0.444100	0.641700	0.512100
H161	H16	0.369800	0.649700	0.559600
H171	H17	0.539100	0.516800	0.523000
H181	H18	0.617900	0.445400	0.521500
H191	H19	0.586700	0.432000	0.416700
H201	H20	0.507900	0.503400	0.418100
H211	H21	0.586200	0.590600	0.438200
H221	H22	0.604200	0.659400	0.399500
H231	H23	0.389400	0.695200	0.405100
H241	H24	0.373000	0.625000	0.445600
H251	H25	0.632900	0.961800	0.224500
H261	H26	0.716800	0.028200	0.213700
H271	H27	0.599400	0.079900	0.132100
H281	H28	0.504200	0.018300	0.145000
H291	H29	0.592100	0.157700	0.184300
H301	H30	0.562500	0.231100	0.218000
H311	H31	0.768200	0.265900	0.230400
H321	H32	0.802200	0.189700	0.196600
H331	H33	0.677100	0.466300	0.188100
H341	H34	0.749900	0.535300	0.169100
H351	H35	0.579200	0.600500	0.119700
H361	H36	0.506400	0.531500	0.138700
H371	H37	0.786300	0.657600	0.194700
H381	H38	0.763000	0.726600	0.235700
H391	H39	0.589500	0.769700	0.177700
H401	H40	0.619700	0.708300	0.134400
H411	H41	0.339800	0.963900	0.142600
H421	H42	0.262000	0.979500	0.097300
H431	H43	0.147700	0.851600	0.125700
H441	H44	0.236500	0.836000	0.168700
H451	H45	0.993400	0.652200	0.867400
H461	H46	0.019800	0.712400	0.907000
H471	H47	0.888200	0.813200	0.854600
H481	H48	0.855900	0.742100	0.820400
H491	H49	0.847900	0.228000	0.899800
H501	H50	0.915800	0.153200	0.907300
H511	H51	0.811800	0.131600	0.999400
H521	H52	0.759100	0.214500	0.989800
H531	H53	0.190700	0.994600	0.056700
H541	H54	0.114900	0.004600	0.007900
H551	H55	0.033900	0.859800	0.024300
H561	H56	0.106600	0.847600	0.071900
H571	H57	0.070700	0.786400	0.928600
H581	H58	0.104600	0.859600	0.960000
H591	H59	0.908000	0.922700	0.942600
H601	H60	0.881700	0.857400	0.903400
H611	H61	0.945500	0.994200	0.023400
H621	H62	0.877400	0.071400	0.012700
H631	H63	0.956300	0.075800	0.914100
H641	H64	0.030300	0.002400	0.926900
H651	H65	0.350500	0.478200	0.132700
H661	H66	0.289000	0.482000	0.079700
H671	H67	0.166500	0.357300	0.113900
H681	H68	0.241100	0.359000	0.166700
H691	H69	0.801500	0.719400	0.917900
H701	H70	0.873700	0.645900	0.920900
H711	H71	0.791100	0.606100	0.014300
H721	H72	0.718200	0.685000	0.009200
H731	H73	0.052500	0.159600	0.845500
H741	H74	0.071600	0.225600	0.888200
H751	H75	0.910900	0.308000	0.843400
H761	H76	0.892200	0.237800	0.804900
H771	H77	0.192500	0.499900	0.047000
H781	H78	0.122400	0.506500	0.997100
H791	H79	0.055900	0.358300	0.012100
H801	H80	0.130200	0.350300	0.059600
H811	H81	0.960900	0.483200	0.023000
H821	H82	0.882100	0.554600	0.021500
H831	H83	0.913300	0.568000	0.916700
H841	H84	0.992100	0.496600	0.918100
H851	H85	0.913800	0.409400	0.938200
H861	H86	0.895800	0.340600	0.899500
H871	H87	0.110600	0.304800	0.905100
H881	H88	0.127000	0.375000	0.945600
H891	H89	0.867100	0.038200	0.724500
H901	H90	0.783200	0.971800	0.713700
H911	H91	0.900600	0.920100	0.632100
H921	H92	0.995800	0.981700	0.645000
H931	H93	0.907900	0.842300	0.684300
H941	H94	0.937500	0.768900	0.718000
H951	H95	0.731800	0.734100	0.730400
H961	H96	0.697800	0.810300	0.696600
H971	H97	0.822900	0.533700	0.688100
H981	H98	0.750100	0.464700	0.669100
H991	H99	0.920800	0.399500	0.619700
H1001	H100	0.993600	0.468500	0.638700
H1011	H101	0.713700	0.342400	0.694700
H1021	H102	0.737000	0.273400	0.735700
H1031	H103	0.910500	0.230300	0.677700
H1041	H104	0.880300	0.291700	0.634400
H1051	H105	0.160200	0.036100	0.642600
H1061	H106	0.238000	0.020500	0.597300
H1071	H107	0.352300	0.148400	0.625700
H1081	H108	0.263500	0.164000	0.668700
H1091	H109	0.506600	0.347800	0.367400
H1101	H110	0.480200	0.287600	0.407000
H1111	H111	0.611800	0.186800	0.354600
H1121	H112	0.644100	0.257900	0.320400
H1131	H113	0.652100	0.772000	0.399800
H1141	H114	0.584200	0.846800	0.407300
H1151	H115	0.688200	0.868400	0.499400
H1161	H116	0.740900	0.785500	0.489800
H1171	H117	0.309300	0.005400	0.556700
H1181	H118	0.385100	0.995400	0.507900
H1191	H119	0.466100	0.140200	0.524300
H1201	H120	0.393400	0.152400	0.571900
H1211	H121	0.429300	0.213600	0.428600
H1221	H122	0.395400	0.140400	0.460000
H1231	H123	0.592000	0.077300	0.442600
H1241	H124	0.618300	0.142600	0.403400
H1251	H125	0.554500	0.005800	0.523400
H1261	H126	0.622600	0.928600	0.512700
H1271	H127	0.543700	0.924200	0.414100
H1281	H128	0.469700	0.997600	0.426900
H1291	H129	0.850500	0.021800	0.867300
H1301	H130	0.789000	0.018000	0.920300
H1311	H131	0.666500	0.142700	0.886100
H1321	H132	0.741100	0.141000	0.833300
H1331	H133	0.301500	0.780600	0.082100
H1341	H134	0.373700	0.854100	0.079100
H1351	H135	0.291100	0.893900	0.985700
H1361	H136	0.218200	0.815000	0.990800
H1371	H137	0.552500	0.340400	0.154500
H1381	H138	0.571600	0.274400	0.111800
H1391	H139	0.410900	0.192000	0.156600
H1401	H140	0.392200	0.262200	0.195100
H1411	H141	0.692500	0.000100	0.953000
H1421	H142	0.622400	0.993500	0.002900
H1431	H143	0.555900	0.141700	0.987900
H1441	H144	0.630200	0.149700	0.940400
H1451	H145	0.460900	0.016800	0.977000
H1461	H146	0.382100	0.945400	0.978500
H1471	H147	0.413300	0.932000	0.083300
H1481	H148	0.492100	0.003400	0.081900
H1491	H149	0.413800	0.090600	0.061800
H1501	H150	0.395800	0.159400	0.100500
H1511	H151	0.610600	0.195200	0.094900
H1521	H152	0.627000	0.125000	0.054400
H1531	H153	0.367100	0.461800	0.275500
H1541	H154	0.283200	0.528200	0.286300
H1551	H155	0.400600	0.579900	0.367900
H1561	H156	0.495800	0.518300	0.355000
H1571	H157	0.407900	0.657700	0.315700
H1581	H158	0.437500	0.731100	0.282000
H1591	H159	0.231800	0.765900	0.269600
H1601	H160	0.197800	0.689700	0.303400
H1611	H161	0.322900	0.966300	0.311900
H1621	H162	0.250100	0.035300	0.330900
H1631	H163	0.420800	0.100500	0.380300
H1641	H164	0.493600	0.031500	0.361300
H1651	H165	0.213700	0.157600	0.305300
H1661	H166	0.237000	0.226600	0.264300
H1671	H167	0.410500	0.269700	0.322300
H1681	H168	0.380300	0.208300	0.365600
H1691	H169	0.660200	0.463900	0.357400
H1701	H170	0.738000	0.479500	0.402700
H1711	H171	0.852300	0.351600	0.374300
H1721	H172	0.763500	0.336000	0.331300
H1731	H173	0.006600	0.152200	0.632600
H1741	H174	0.980200	0.212400	0.593000
H1751	H175	0.111800	0.313200	0.645400
H1761	H176	0.144100	0.242100	0.679600
H1771	H177	0.152100	0.728000	0.600200
H1781	H178	0.084200	0.653200	0.592700
H1791	H179	0.188200	0.631600	0.500600
H1801	H180	0.240900	0.714500	0.510200
H1811	H181	0.809300	0.494600	0.443300
H1821	H182	0.885100	0.504600	0.492100
H1831	H183	0.966100	0.359800	0.475700
H1841	H184	0.893400	0.347600	0.428100
H1851	H185	0.929300	0.286400	0.571400
H1861	H186	0.895400	0.359600	0.540000
H1871	H187	0.092000	0.422700	0.557400
H1881	H188	0.118300	0.357400	0.596600
H1891	H189	0.054500	0.494200	0.476600
H1901	H190	0.122600	0.571400	0.487300
H1911	H191	0.043700	0.575800	0.585900
H1921	H192	0.969700	0.502400	0.573100
H1931	H193	0.649500	0.978200	0.367300
H1941	H194	0.711000	0.982000	0.420300
H1951	H195	0.833500	0.857300	0.386100
H1961	H196	0.758900	0.859000	0.333300
H1971	H197	0.198500	0.219400	0.582100
H1981	H198	0.126300	0.145900	0.579100
H1991	H199	0.208900	0.106100	0.485700
H2001	H200	0.281800	0.185000	0.490800
H2011	H201	0.947500	0.659600	0.654500
H2021	H202	0.928400	0.725600	0.611800
H2031	H203	0.089100	0.808000	0.656600
H2041	H204	0.107800	0.737800	0.695100
H2051	H205	0.807500	0.999900	0.453000
H2061	H206	0.877600	0.006500	0.502900
H2071	H207	0.944100	0.858300	0.487900
H2081	H208	0.869800	0.850300	0.440400
H2091	H209	0.039100	0.983200	0.477000
H2101	H210	0.117900	0.054600	0.478500
H2111	H211	0.086700	0.068000	0.583300
H2121	H212	0.007900	0.996600	0.581900
H2131	H213	0.086200	0.909400	0.561800
H2141	H214	0.104200	0.840600	0.600500
H2151	H215	0.889400	0.804800	0.594900
H2161	H216	0.873000	0.875000	0.554400
H2171	H217	0.132900	0.538200	0.775500
H2181	H218	0.216800	0.471800	0.786300
H2191	H219	0.099400	0.420100	0.867900
H2201	H220	0.004200	0.481700	0.855000
H2211	H221	0.092100	0.342300	0.815700
H2221	H222	0.062500	0.268900	0.782000
H2231	H223	0.268200	0.234100	0.769600
H2241	H224	0.302200	0.310300	0.803400
H2251	H225	0.177100	0.033700	0.811900
H2261	H226	0.249900	0.964700	0.830900
H2271	H227	0.079200	0.899500	0.880300
H2281	H228	0.006400	0.968500	0.861300
H2291	H229	0.286300	0.842400	0.805300
H2301	H230	0.263000	0.773400	0.764300
H2311	H231	0.089500	0.730300	0.822300
H2321	H232	0.119700	0.791700	0.865600
H2331	H233	0.839800	0.536100	0.857400
H2341	H234	0.762000	0.520500	0.902700
H2351	H235	0.647700	0.648400	0.874300
H2361	H236	0.736500	0.664000	0.831300
H2371	H237	0.493400	0.847800	0.132600
H2381	H238	0.519800	0.787600	0.093000
H2391	H239	0.388200	0.686800	0.145400
H2401	H240	0.355900	0.757900	0.179600
H2411	H241	0.347900	0.272000	0.100200
H2421	H242	0.415800	0.346800	0.092700
H2431	H243	0.311800	0.368400	0.000600
H2441	H244	0.259100	0.285500	0.010200
H2451	H245	0.690700	0.505400	0.943300
H2461	H246	0.614900	0.495400	0.992100
H2471	H247	0.533900	0.640200	0.975700
H2481	H248	0.606600	0.652400	0.928100
H2491	H249	0.570700	0.713600	0.071400
H2501	H250	0.604600	0.640400	0.040000
H2511	H251	0.408000	0.577300	0.057400
H2521	H252	0.381700	0.642600	0.096600
H2531	H253	0.445500	0.505800	0.976600
H2541	H254	0.377400	0.428600	0.987300
H2551	H255	0.456300	0.424200	0.085900
H2561	H256	0.530300	0.497600	0.073100
C11	C1	0.185700	0.546500	0.628280
C21	C2	0.223900	0.542900	0.596650
C31	C3	0.285000	0.579000	0.590280
C41	C4	0.297200	0.617500	0.616580
C51	C5	0.250300	0.616700	0.648740
C61	C6	0.700600	0.302400	0.437660
C71	C7	0.657600	0.347300	0.439600
C81	C8	0.658400	0.384500	0.469020
C91	C9	0.704400	0.372300	0.494520
C101	C10	0.749100	0.323300	0.491300
C111	C11	0.476300	0.810300	0.344860
C121	C12	0.464300	0.770400	0.371120
C131	C13	0.506200	0.727300	0.370350
C141	C14	0.560400	0.722000	0.344640
C151	C15	0.569400	0.764100	0.320810
C161	C16	0.327200	0.576000	0.558250
C171	C17	0.333500	0.529400	0.539440
C181	C18	0.377000	0.524800	0.509930
C191	C19	0.419600	0.566900	0.499400
C201	C20	0.415600	0.613100	0.518720
C211	C21	0.371100	0.617900	0.547210
C221	C22	0.548700	0.499800	0.501700
C231	C23	0.595900	0.457100	0.500800
C241	C24	0.610100	0.431700	0.468940
C251	C25	0.577200	0.449000	0.437970
C261	C26	0.530000	0.491700	0.438870
C271	C27	0.515700	0.517100	0.470730
C281	C28	0.547600	0.612100	0.431830
C291	C29	0.557800	0.652500	0.408000
C301	C30	0.499100	0.684000	0.396140
C311	C31	0.428600	0.674100	0.411520
C321	C32	0.418600	0.632400	0.436380
C331	C33	0.478800	0.603400	0.446400
C341	C34	0.507200	0.940700	0.193750
C351	C35	0.563800	0.982500	0.185040
C361	C36	0.625500	0.985800	0.206240
C371	C37	0.675600	0.025300	0.199710
C381	C38	0.664100	0.059600	0.172870
C391	C39	0.603600	0.056800	0.151150
C401	C40	0.547500	0.019000	0.157610
C411	C41	0.698400	0.164700	0.189590
C421	C42	0.628700	0.178100	0.194280
C431	C43	0.611100	0.223100	0.214200
C441	C44	0.661400	0.254400	0.227830
C451	C45	0.732700	0.243400	0.221560
C461	C46	0.753900	0.197200	0.201410
C471	C47	0.642400	0.300300	0.249170
C481	C48	0.538300	0.448400	0.176840
C491	C49	0.584500	0.492100	0.165320
C501	C50	0.657500	0.493200	0.174430
C511	C51	0.701100	0.534500	0.163030
C521	C52	0.671800	0.574800	0.142520
C531	C53	0.598800	0.573600	0.133420
C541	C54	0.555200	0.532300	0.144820
C551	C55	0.705700	0.678000	0.161320
C561	C56	0.748300	0.681200	0.191070
C571	C57	0.732700	0.721700	0.216320
C581	C58	0.670800	0.754400	0.211670
C591	C59	0.629800	0.748200	0.181040
C601	C60	0.646800	0.710900	0.155120
C611	C61	0.649600	0.795800	0.236810
C621	C62	0.300700	0.941200	0.139520
C631	C63	0.255400	0.949900	0.111500
C641	C64	0.200300	0.915100	0.104140
C651	C65	0.187800	0.873600	0.127870
C661	C66	0.239300	0.866600	0.155270
C671	C67	0.970700	0.684900	0.865210
C681	C68	0.988200	0.720700	0.888600
C691	C69	0.958600	0.773000	0.885800
C701	C70	0.909300	0.780400	0.858530
C711	C71	0.892300	0.737400	0.837110
C721	C72	0.842900	0.208400	0.920500
C731	C73	0.882800	0.163400	0.924500
C741	C74	0.873300	0.133500	0.954620
C751	C75	0.822900	0.151100	0.979300
C761	C76	0.789000	0.200500	0.972340
C771	C77	0.155500	0.918900	0.071020
C781	C78	0.159100	0.967700	0.050240
C791	C79	0.114800	0.973300	0.020670
C801	C80	0.069700	0.931200	0.010140
C811	C81	0.066400	0.886300	0.030560
C821	C82	0.108700	0.879200	0.059560
C831	C83	0.973700	0.813900	0.910870
C841	C84	0.039300	0.815000	0.930090
C851	C85	0.058000	0.857100	0.950770
C861	C86	0.006700	0.896600	0.958020
C871	C87	0.941300	0.895600	0.939180
C881	C88	0.925000	0.856300	0.915990
C891	C89	0.988600	0.989900	0.975400
C901	C90	0.947500	0.010600	0.001410
C911	C91	0.907200	0.057500	0.995210
C921	C92	0.913200	0.082800	0.961940
C931	C93	0.955100	0.060700	0.936550
C941	C94	0.997500	0.015000	0.943500
C951	C95	0.314300	0.453500	0.128280
C961	C96	0.276100	0.457100	0.096650
C971	C97	0.215000	0.421000	0.090280
C981	C98	0.202800	0.382500	0.116580
C991	C99	0.249700	0.383300	0.148740
C1001	C100	0.799400	0.697600	0.937660
C1011	C101	0.842400	0.652700	0.939600
C1021	C102	0.841600	0.615500	0.969020
C1031	C103	0.795600	0.627700	0.994520
C1041	C104	0.750900	0.676700	0.991300
C1051	C105	0.023700	0.189700	0.844860
C1061	C106	0.035700	0.229600	0.871120
C1071	C107	0.993800	0.272700	0.870350
C1081	C108	0.939600	0.278000	0.844640
C1091	C109	0.930600	0.235900	0.820810
C1101	C110	0.172800	0.424000	0.058250
C1111	C111	0.166500	0.470600	0.039440
C1121	C112	0.123000	0.475200	0.009930
C1131	C113	0.080400	0.433100	0.999400
C1141	C114	0.084400	0.386900	0.018720
C1151	C115	0.128900	0.382100	0.047210
C1161	C116	0.951300	0.500200	0.001700
C1171	C117	0.904100	0.542900	0.000800
C1181	C118	0.889900	0.568300	0.968940
C1191	C119	0.922800	0.551000	0.937970
C1201	C120	0.970000	0.508300	0.938870
C1211	C121	0.984300	0.482900	0.970730
C1221	C122	0.952400	0.387900	0.931830
C1231	C123	0.942200	0.347500	0.908000
C1241	C124	0.000900	0.316000	0.896140
C1251	C125	0.071400	0.325900	0.911520
C1261	C126	0.081400	0.367600	0.936380
C1271	C127	0.021200	0.396600	0.946400
C1281	C128	0.992800	0.059300	0.693750
C1291	C129	0.936200	0.017500	0.685040
C1301	C130	0.874500	0.014200	0.706240
C1311	C131	0.824400	0.974700	0.699710
C1321	C132	0.835900	0.940400	0.672870
C1331	C133	0.896400	0.943200	0.651150
C1341	C134	0.952500	0.981000	0.657610
C1351	C135	0.801600	0.835300	0.689590
C1361	C136	0.871300	0.821900	0.694280
C1371	C137	0.888900	0.776900	0.714200
C1381	C138	0.838600	0.745600	0.727830
C1391	C139	0.767300	0.756600	0.721560
C1401	C140	0.746100	0.802800	0.701410
C1411	C141	0.857600	0.699700	0.749170
C1421	C142	0.961700	0.551600	0.676840
C1431	C143	0.915500	0.507900	0.665320
C1441	C144	0.842500	0.506800	0.674430
C1451	C145	0.798900	0.465500	0.663030
C1461	C146	0.828200	0.425200	0.642520
C1471	C147	0.901200	0.426400	0.633420
C1481	C148	0.944800	0.467700	0.644820
C1491	C149	0.794300	0.322000	0.661320
C1501	C150	0.751700	0.318800	0.691070
C1511	C151	0.767300	0.278300	0.716320
C1521	C152	0.829200	0.245600	0.711670
C1531	C153	0.870200	0.251800	0.681040
C1541	C154	0.853200	0.289100	0.655120
C1551	C155	0.850400	0.204200	0.736810
C1561	C156	0.199300	0.058800	0.639520
C1571	C157	0.244600	0.050100	0.611500
C1581	C158	0.299700	0.084900	0.604140
C1591	C159	0.312200	0.126400	0.627870
C1601	C160	0.260700	0.133400	0.655270
C1611	C161	0.529300	0.315100	0.365210
C1621	C162	0.511800	0.279300	0.388600
C1631	C163	0.541400	0.227000	0.385800
C1641	C164	0.590700	0.219600	0.358530
C1651	C165	0.607700	0.262600	0.337110
C1661	C166	0.657100	0.791600	0.420500
C1671	C167	0.617200	0.836600	0.424500
C1681	C168	0.626700	0.866500	0.454620
C1691	C169	0.677100	0.848900	0.479300
C1701	C170	0.711000	0.799500	0.472340
C1711	C171	0.344500	0.081100	0.571020
C1721	C172	0.340900	0.032300	0.550240
C1731	C173	0.385200	0.026700	0.520670
C1741	C174	0.430300	0.068800	0.510140
C1751	C175	0.433600	0.113700	0.530560
C1761	C176	0.391300	0.120800	0.559560
C1771	C177	0.526300	0.186100	0.410870
C1781	C178	0.460700	0.185000	0.430090
C1791	C179	0.442000	0.142900	0.450770
C1801	C180	0.493300	0.103400	0.458020
C1811	C181	0.558700	0.104400	0.439180
C1821	C182	0.575000	0.143700	0.415990
C1831	C183	0.511400	0.010100	0.475400
C1841	C184	0.552500	0.989400	0.501410
C1851	C185	0.592800	0.942500	0.495210
C1861	C186	0.586800	0.917200	0.461940
C1871	C187	0.544900	0.939300	0.436550
C1881	C188	0.502500	0.985000	0.443500
C1891	C189	0.814300	0.046500	0.871720
C1901	C190	0.776100	0.042900	0.903350
C1911	C191	0.715000	0.079000	0.909720
C1921	C192	0.702800	0.117500	0.883420
C1931	C193	0.749700	0.116700	0.851260
C1941	C194	0.299400	0.802400	0.062340
C1951	C195	0.342400	0.847300	0.060400
C1961	C196	0.341600	0.884500	0.030980
C1971	C197	0.295600	0.872300	0.005480
C1981	C198	0.250900	0.823300	0.008700
C1991	C199	0.523700	0.310300	0.155140
C2001	C200	0.535700	0.270400	0.128880
C2011	C201	0.493800	0.227300	0.129650
C2021	C202	0.439600	0.222000	0.155360
C2031	C203	0.430600	0.264100	0.179190
C2041	C204	0.672800	0.076000	0.941750
C2051	C205	0.666500	0.029400	0.960560
C2061	C206	0.623000	0.024800	0.990070
C2071	C207	0.580400	0.066900	0.000600
C2081	C208	0.584400	0.113100	0.981280
C2091	C209	0.628900	0.117900	0.952790
C2101	C210	0.451300	0.999800	0.998300
C2111	C211	0.404100	0.957100	0.999200
C2121	C212	0.389900	0.931700	0.031060
C2131	C213	0.422800	0.949000	0.062030
C2141	C214	0.470000	0.991700	0.061130
C2151	C215	0.484300	0.017100	0.029270
C2161	C216	0.452400	0.112100	0.068170
C2171	C217	0.442200	0.152500	0.092000
C2181	C218	0.500900	0.184000	0.103860
C2191	C219	0.571400	0.174100	0.088480
C2201	C220	0.581400	0.132400	0.063620
C2211	C221	0.521200	0.103400	0.053600
C2221	C222	0.492800	0.440700	0.306250
C2231	C223	0.436200	0.482500	0.314960
C2241	C224	0.374500	0.485800	0.293760
C2251	C225	0.324400	0.525300	0.300290
C2261	C226	0.335900	0.559600	0.327130
C2271	C227	0.396400	0.556800	0.348850
C2281	C228	0.452500	0.519000	0.342390
C2291	C229	0.301600	0.664700	0.310410
C2301	C230	0.371300	0.678100	0.305720
C2311	C231	0.388900	0.723100	0.285800
C2321	C232	0.338600	0.754400	0.272170
C2331	C233	0.267300	0.743400	0.278440
C2341	C234	0.246100	0.697200	0.298590
C2351	C235	0.357600	0.800300	0.250830
C2361	C236	0.461700	0.948400	0.323160
C2371	C237	0.415500	0.992100	0.334680
C2381	C238	0.342500	0.993200	0.325570
C2391	C239	0.298900	0.034500	0.336970
C2401	C240	0.328200	0.074800	0.357480
C2411	C241	0.401200	0.073600	0.366580
C2421	C242	0.444800	0.032300	0.355180
C2431	C243	0.294300	0.178000	0.338680
C2441	C244	0.251700	0.181200	0.308930
C2451	C245	0.267300	0.221700	0.283680
C2461	C246	0.329200	0.254400	0.288330
C2471	C247	0.370200	0.248200	0.318960
C2481	C248	0.353200	0.210900	0.344880
C2491	C249	0.350400	0.295800	0.263190
C2501	C250	0.699300	0.441200	0.360480
C2511	C251	0.744600	0.449900	0.388500
C2521	C252	0.799700	0.415100	0.395860
C2531	C253	0.812200	0.373600	0.372130
C2541	C254	0.760700	0.366600	0.344730
C2551	C255	0.029300	0.184900	0.634790
C2561	C256	0.011800	0.220700	0.611400
C2571	C257	0.041400	0.273000	0.614200
C2581	C258	0.090700	0.280400	0.641470
C2591	C259	0.107700	0.237400	0.662890
C2601	C260	0.157100	0.708400	0.579500
C2611	C261	0.117200	0.663400	0.575500
C2621	C262	0.126700	0.633500	0.545380
C2631	C263	0.177100	0.651100	0.520700
C2641	C264	0.211000	0.700500	0.527660
C2651	C265	0.844500	0.418900	0.428980
C2661	C266	0.840900	0.467700	0.449760
C2671	C267	0.885200	0.473300	0.479330
C2681	C268	0.930300	0.431200	0.489860
C2691	C269	0.933600	0.386300	0.469440
C2701	C270	0.891300	0.379200	0.440440
C2711	C271	0.026300	0.313900	0.589130
C2721	C272	0.960700	0.315000	0.569910
C2731	C273	0.942000	0.357100	0.549230
C2741	C274	0.993300	0.396600	0.541980
C2751	C275	0.058700	0.395600	0.560820
C2761	C276	0.075000	0.356300	0.584010
C2771	C277	0.011400	0.489900	0.524600
C2781	C278	0.052500	0.510600	0.498590
C2791	C279	0.092800	0.557500	0.504790
C2801	C280	0.086800	0.582800	0.538060
C2811	C281	0.044900	0.560700	0.563450
C2821	C282	0.002500	0.515000	0.556500
C2831	C283	0.685700	0.953500	0.371720
C2841	C284	0.723900	0.957100	0.403350
C2851	C285	0.785000	0.921000	0.409720
C2861	C286	0.797200	0.882500	0.383420
C2871	C287	0.750300	0.883300	0.351260
C2881	C288	0.200600	0.197600	0.562340
C2891	C289	0.157600	0.152700	0.560400
C2901	C290	0.158400	0.115500	0.530980
C2911	C291	0.204400	0.127700	0.505480
C2921	C292	0.249100	0.176700	0.508700
C2931	C293	0.976300	0.689700	0.655140
C2941	C294	0.964300	0.729600	0.628880
C2951	C295	0.006200	0.772700	0.629650
C2961	C296	0.060400	0.778000	0.655360
C2971	C297	0.069400	0.735900	0.679190
C2981	C298	0.827200	0.924000	0.441750
C2991	C299	0.833500	0.970600	0.460560
C3001	C300	0.877000	0.975200	0.490070
C3011	C301	0.919600	0.933100	0.500600
C3021	C302	0.915600	0.886900	0.481280
C3031	C303	0.871100	0.882100	0.452790
C3041	C304	0.048700	0.000200	0.498300
C3051	C305	0.095900	0.042900	0.499200
C3061	C306	0.110100	0.068300	0.531060
C3071	C307	0.077200	0.051000	0.562030
C3081	C308	0.030000	0.008300	0.561130
C3091	C309	0.015700	0.982900	0.529270
C3101	C310	0.047600	0.887900	0.568170
C3111	C311	0.057800	0.847500	0.592000
C3121	C312	0.999100	0.816000	0.603860
C3131	C313	0.928600	0.825900	0.588480
C3141	C314	0.918600	0.867600	0.563620
C3151	C315	0.978800	0.896600	0.553600
C3161	C316	0.007200	0.559300	0.806250
C3171	C317	0.063800	0.517500	0.814960
C3181	C318	0.125500	0.514200	0.793760
C3191	C319	0.175600	0.474700	0.800290
C3201	C320	0.164100	0.440400	0.827130
C3211	C321	0.103600	0.443200	0.848850
C3221	C322	0.047500	0.481000	0.842390
C3231	C323	0.198400	0.335300	0.810410
C3241	C324	0.128700	0.321900	0.805720
C3251	C325	0.111100	0.276900	0.785800
C3261	C326	0.161400	0.245600	0.772170
C3271	C327	0.232700	0.256600	0.778440
C3281	C328	0.253900	0.302800	0.798590
C3291	C329	0.142400	0.199700	0.750830
C3301	C330	0.038300	0.051600	0.823160
C3311	C331	0.084500	0.007900	0.834680
C3321	C332	0.157500	0.006800	0.825570
C3331	C333	0.201100	0.965500	0.836970
C3341	C334	0.171800	0.925200	0.857480
C3351	C335	0.098800	0.926400	0.866580
C3361	C336	0.055200	0.967700	0.855180
C3371	C337	0.205700	0.822000	0.838680
C3381	C338	0.248300	0.818800	0.808930
C3391	C339	0.232700	0.778300	0.783680
C3401	C340	0.170800	0.745600	0.788330
C3411	C341	0.129800	0.751800	0.818960
C3421	C342	0.146800	0.789100	0.844880
C3431	C343	0.149600	0.704200	0.763190
C3441	C344	0.800700	0.558800	0.860480
C3451	C345	0.755400	0.550100	0.888500
C3461	C346	0.700300	0.584900	0.895860
C3471	C347	0.687800	0.626400	0.872130
C3481	C348	0.739300	0.633400	0.844730
C3491	C349	0.470700	0.815100	0.134790
C3501	C350	0.488200	0.779300	0.111400
C3511	C351	0.458600	0.727000	0.114200
C3521	C352	0.409300	0.719600	0.141470
C3531	C353	0.392300	0.762600	0.162890
C3541	C354	0.342900	0.291600	0.079500
C3551	C355	0.382800	0.336600	0.075500
C3561	C356	0.373300	0.366500	0.045380
C3571	C357	0.322900	0.348900	0.020700
C3581	C358	0.289000	0.299500	0.027660
C3591	C359	0.655500	0.581100	0.928980
C3601	C360	0.659100	0.532300	0.949760
C3611	C361	0.614800	0.526700	0.979330
C3621	C362	0.569700	0.568800	0.989860
C3631	C363	0.566400	0.613700	0.969440
C3641	C364	0.608700	0.620800	0.940440
C3651	C365	0.473700	0.686100	0.089130
C3661	C366	0.539300	0.685000	0.069910
C3671	C367	0.558000	0.642900	0.049230
C3681	C368	0.506700	0.603400	0.041980
C3691	C369	0.441300	0.604400	0.060820
C3701	C370	0.425000	0.643700	0.084010
C3711	C371	0.488600	0.510100	0.024600
C3721	C372	0.447500	0.489400	0.998590
C3731	C373	0.407200	0.442500	0.004790
C3741	C374	0.413200	0.417200	0.038060
C3751	C375	0.455100	0.439300	0.063450
C3761	C376	0.497500	0.485000	0.056500
S11	S1	0.727350	0.110330	0.164080
S21	S2	0.727390	0.629330	0.130680
S31	S3	0.772650	0.889670	0.664080
S41	S4	0.772610	0.370670	0.630680
S51	S5	0.272650	0.610330	0.335920
S61	S6	0.272610	0.129330	0.369320
S71	S7	0.227350	0.389670	0.835920
S81	S8	0.227390	0.870670	0.869320
N11	N1	0.198400	0.583300	0.652370
N21	N2	0.743300	0.291200	0.463580
N31	N3	0.526900	0.806430	0.319460
N41	N4	0.467500	0.561600	0.471250
N51	N5	0.291600	0.901200	0.163150
N61	N6	0.923500	0.690110	0.838440
N71	N7	0.796500	0.225400	0.945510
N81	N8	0.023000	0.940600	0.980660
N91	N9	0.301600	0.416700	0.152370
N101	N10	0.756700	0.708800	0.963580
N111	N11	0.973100	0.193570	0.819460
N121	N12	0.032500	0.438400	0.971250
N131	N13	0.208400	0.098800	0.663150
N141	N14	0.576500	0.309890	0.338440
N151	N15	0.703500	0.774600	0.445510
N161	N16	0.477000	0.059400	0.480660
N171	N17	0.801600	0.083300	0.847630
N181	N18	0.256700	0.791200	0.036420
N191	N19	0.473100	0.306430	0.180540
N201	N20	0.532500	0.061600	0.028750
N211	N21	0.708400	0.401200	0.336850
N221	N22	0.076500	0.190110	0.661560
N231	N23	0.203500	0.725400	0.554490
N241	N24	0.977000	0.440600	0.519340
N251	N25	0.698400	0.916700	0.347630
N261	N26	0.243300	0.208800	0.536420
N271	N27	0.026900	0.693570	0.680540
N281	N28	0.967500	0.938400	0.528750
N291	N29	0.791600	0.598800	0.836850
N301	N30	0.423500	0.809890	0.161560
N311	N31	0.296500	0.274600	0.054490
N321	N32	0.523000	0.559400	0.019340
O11	O1	0.508900	0.916270	0.220570
O21	O2	0.457200	0.935440	0.169600
O31	O3	0.689500	0.315730	0.270600
O41	O4	0.579500	0.318870	0.249320
O51	O5	0.585400	0.809660	0.238520
O61	O6	0.703400	0.807600	0.256540
O71	O7	0.477800	0.442970	0.162660
O81	O8	0.556900	0.419630	0.203290
O91	O9	0.721000	0.123950	0.126690
O101	O10	0.793500	0.093920	0.178220
O111	O11	0.801400	0.613250	0.134980
O121	O12	0.703700	0.646780	0.096900
O131	O13	0.991100	0.083730	0.720570
O141	O14	0.042800	0.064560	0.669600
O151	O15	0.810500	0.684270	0.770600
O161	O16	0.920500	0.681130	0.749320
O171	O17	0.914600	0.190340	0.738520
O181	O18	0.796600	0.192400	0.756540
O191	O19	0.022200	0.557030	0.662660
O201	O20	0.943100	0.580370	0.703290
O211	O21	0.779000	0.876050	0.626690
O221	O22	0.706500	0.906080	0.678220
O231	O23	0.698600	0.386750	0.634980
O241	O24	0.796300	0.353220	0.596900
O251	O25	0.491100	0.416270	0.279430
O261	O26	0.542800	0.435440	0.330400
O271	O27	0.310500	0.815730	0.229400
O281	O28	0.420500	0.818870	0.250680
O291	O29	0.414600	0.309660	0.261480
O301	O30	0.296600	0.307600	0.243460
O311	O31	0.522200	0.942970	0.337340
O321	O32	0.443100	0.919630	0.296710
O331	O33	0.279000	0.623950	0.373310
O341	O34	0.206500	0.593920	0.321780
O351	O35	0.198600	0.113250	0.365020
O361	O36	0.296300	0.146780	0.403100
O371	O37	0.008900	0.583730	0.779430
O381	O38	0.957200	0.564560	0.830400
O391	O39	0.189500	0.184270	0.729400
O401	O40	0.079500	0.181130	0.750680
O411	O41	0.085400	0.690340	0.761480
O421	O42	0.203400	0.692400	0.743460
O431	O43	0.977800	0.057030	0.837340
O441	O44	0.056900	0.080370	0.796710
O451	O45	0.221000	0.376050	0.873310
O461	O46	0.293500	0.406080	0.821780
O471	O47	0.301400	0.886750	0.865020
O481	O48	0.203700	0.853220	0.903100
