data_PELRIJ_clean_PM
_symmetry_space_group_name_H-M	'P1'
_cell_length_a	32.365000
_cell_length_b	32.365000
_cell_length_c	32.365000
_cell_angle_alpha	90.000000
_cell_angle_beta	90.000000
_cell_angle_gamma	90.000000
_symmetry_Int_Tables_number 1

loop_
_symmetry_equiv_pos_as_xyz
'x,y,z'

loop_
_atom_site_label
_atom_site_type_symbol
_atom_site_fract_x
_atom_site_fract_y
_atom_site_fract_z
Cu11	Cu1	0.459580	0.250000	0.750000
Cu21	Cu2	0.040420	0.250000	0.750000
Cu31	Cu3	0.750000	0.459580	0.250000
Cu41	Cu4	0.750000	0.040420	0.250000
Cu51	Cu5	0.250000	0.750000	0.459580
Cu61	Cu6	0.250000	0.750000	0.040420
Cu71	Cu7	0.750000	0.540420	0.250000
Cu81	Cu8	0.750000	0.959580	0.250000
Cu91	Cu9	0.540420	0.250000	0.750000
Cu101	Cu10	0.959580	0.250000	0.750000
Cu111	Cu11	0.250000	0.750000	0.959580
Cu121	Cu12	0.250000	0.750000	0.540420
H11	H1	0.514100	0.386000	0.528900
H21	H2	0.430400	0.321600	0.647300
H31	H3	0.430000	0.363900	0.588600
H41	H4	0.555200	0.361000	0.585700
H51	H5	0.555600	0.318700	0.644300
H61	H6	0.519000	0.418500	0.478900
H71	H7	0.985900	0.114000	0.528900
H81	H8	0.069600	0.178400	0.647300
H91	H9	0.070000	0.136100	0.588600
H101	H10	0.944800	0.139000	0.585700
H111	H11	0.944400	0.181300	0.644300
H121	H12	0.981000	0.081500	0.478900
H131	H13	0.985900	0.386000	0.971100
H141	H14	0.069600	0.321600	0.852700
H151	H15	0.070000	0.363900	0.911400
H161	H16	0.944800	0.361000	0.914300
H171	H17	0.944400	0.318700	0.855700
H181	H18	0.981000	0.418500	0.021100
H191	H19	0.514100	0.114000	0.971100
H201	H20	0.430400	0.178400	0.852700
H211	H21	0.430000	0.136100	0.911400
H221	H22	0.555200	0.139000	0.914300
H231	H23	0.555600	0.181300	0.855700
H241	H24	0.519000	0.081500	0.021100
H251	H25	0.528900	0.514100	0.386000
H261	H26	0.647300	0.430400	0.321600
H271	H27	0.588600	0.430000	0.363900
H281	H28	0.585700	0.555200	0.361000
H291	H29	0.644300	0.555600	0.318700
H301	H30	0.478900	0.519000	0.418500
H311	H31	0.528900	0.985900	0.114000
H321	H32	0.647300	0.069600	0.178400
H331	H33	0.588600	0.070000	0.136100
H341	H34	0.585700	0.944800	0.139000
H351	H35	0.644300	0.944400	0.181300
H361	H36	0.478900	0.981000	0.081500
H371	H37	0.971100	0.985900	0.386000
H381	H38	0.852700	0.069600	0.321600
H391	H39	0.911400	0.070000	0.363900
H401	H40	0.914300	0.944800	0.361000
H411	H41	0.855700	0.944400	0.318700
H421	H42	0.021100	0.981000	0.418500
H431	H43	0.971100	0.514100	0.114000
H441	H44	0.852700	0.430400	0.178400
H451	H45	0.911400	0.430000	0.136100
H461	H46	0.914300	0.555200	0.139000
H471	H47	0.855700	0.555600	0.181300
H481	H48	0.021100	0.519000	0.081500
H491	H49	0.386000	0.528900	0.514100
H501	H50	0.321600	0.647300	0.430400
H511	H51	0.363900	0.588600	0.430000
H521	H52	0.361000	0.585700	0.555200
H531	H53	0.318700	0.644300	0.555600
H541	H54	0.418500	0.478900	0.519000
H551	H55	0.114000	0.528900	0.985900
H561	H56	0.178400	0.647300	0.069600
H571	H57	0.136100	0.588600	0.070000
H581	H58	0.139000	0.585700	0.944800
H591	H59	0.181300	0.644300	0.944400
H601	H60	0.081500	0.478900	0.981000
H611	H61	0.386000	0.971100	0.985900
H621	H62	0.321600	0.852700	0.069600
H631	H63	0.363900	0.911400	0.070000
H641	H64	0.361000	0.914300	0.944800
H651	H65	0.318700	0.855700	0.944400
H661	H66	0.418500	0.021100	0.981000
H671	H67	0.114000	0.971100	0.514100
H681	H68	0.178400	0.852700	0.430400
H691	H69	0.136100	0.911400	0.430000
H701	H70	0.139000	0.914300	0.555200
H711	H71	0.181300	0.855700	0.555600
H721	H72	0.081500	0.021100	0.519000
H731	H73	0.614000	0.485900	0.028900
H741	H74	0.678400	0.569600	0.147300
H751	H75	0.636100	0.570000	0.088600
H761	H76	0.639000	0.444800	0.085700
H771	H77	0.681300	0.444400	0.144300
H781	H78	0.581500	0.481000	0.978900
H791	H79	0.886000	0.014100	0.028900
H801	H80	0.821600	0.930400	0.147300
H811	H81	0.863900	0.930000	0.088600
H821	H82	0.861000	0.055200	0.085700
H831	H83	0.818700	0.055600	0.144300
H841	H84	0.918500	0.019000	0.978900
H851	H85	0.614000	0.014100	0.471100
H861	H86	0.678400	0.930400	0.352700
H871	H87	0.636100	0.930000	0.411400
H881	H88	0.639000	0.055200	0.414300
H891	H89	0.681300	0.055600	0.355700
H901	H90	0.581500	0.019000	0.521100
H911	H91	0.886000	0.485900	0.471100
H921	H92	0.821600	0.569600	0.352700
H931	H93	0.863900	0.570000	0.411400
H941	H94	0.861000	0.444800	0.414300
H951	H95	0.818700	0.444400	0.355700
H961	H96	0.918500	0.481000	0.521100
H971	H97	0.485900	0.471100	0.886000
H981	H98	0.569600	0.352700	0.821600
H991	H99	0.570000	0.411400	0.863900
H1001	H100	0.444800	0.414300	0.861000
H1011	H101	0.444400	0.355700	0.818700
H1021	H102	0.481000	0.521100	0.918500
H1031	H103	0.014100	0.471100	0.614000
H1041	H104	0.930400	0.352700	0.678400
H1051	H105	0.930000	0.411400	0.636100
H1061	H106	0.055200	0.414300	0.639000
H1071	H107	0.055600	0.355700	0.681300
H1081	H108	0.019000	0.521100	0.581500
H1091	H109	0.014100	0.028900	0.886000
H1101	H110	0.930400	0.147300	0.821600
H1111	H111	0.930000	0.088600	0.863900
H1121	H112	0.055200	0.085700	0.861000
H1131	H113	0.055600	0.144300	0.818700
H1141	H114	0.019000	0.978900	0.918500
H1151	H115	0.485900	0.028900	0.614000
H1161	H116	0.569600	0.147300	0.678400
H1171	H117	0.570000	0.088600	0.636100
H1181	H118	0.444800	0.085700	0.639000
H1191	H119	0.444400	0.144300	0.681300
H1201	H120	0.481000	0.978900	0.581500
H1211	H121	0.471100	0.614000	0.014100
H1221	H122	0.352700	0.678400	0.930400
H1231	H123	0.411400	0.636100	0.930000
H1241	H124	0.414300	0.639000	0.055200
H1251	H125	0.355700	0.681300	0.055600
H1261	H126	0.521100	0.581500	0.019000
H1271	H127	0.471100	0.886000	0.485900
H1281	H128	0.352700	0.821600	0.569600
H1291	H129	0.411400	0.863900	0.570000
H1301	H130	0.414300	0.861000	0.444800
H1311	H131	0.355700	0.818700	0.444400
H1321	H132	0.521100	0.918500	0.481000
H1331	H133	0.028900	0.614000	0.485900
H1341	H134	0.147300	0.678400	0.569600
H1351	H135	0.088600	0.636100	0.570000
H1361	H136	0.085700	0.639000	0.444800
H1371	H137	0.144300	0.681300	0.444400
H1381	H138	0.978900	0.581500	0.481000
H1391	H139	0.028900	0.886000	0.014100
H1401	H140	0.147300	0.821600	0.930400
H1411	H141	0.088600	0.863900	0.930000
H1421	H142	0.085700	0.861000	0.055200
H1431	H143	0.144300	0.818700	0.055600
H1441	H144	0.978900	0.918500	0.019000
C11	C1	0.497900	0.290000	0.690070
C21	C2	0.493000	0.316150	0.651300
C31	C3	0.455700	0.329560	0.634760
C41	C4	0.455500	0.354690	0.599930
C51	C5	0.492500	0.366410	0.581650
C61	C6	0.529800	0.353000	0.598190
C71	C7	0.530100	0.327870	0.633020
C81	C8	0.465500	0.416900	0.538500
C91	C9	0.467400	0.443400	0.502800
C101	C10	0.499200	0.439900	0.475600
C111	C11	0.002100	0.210000	0.690070
C121	C12	0.007000	0.183850	0.651300
C131	C13	0.044300	0.170440	0.634760
C141	C14	0.044500	0.145310	0.599930
C151	C15	0.007500	0.133590	0.581650
C161	C16	0.970200	0.147000	0.598190
C171	C17	0.969900	0.172130	0.633020
C181	C18	0.034500	0.083100	0.538500
C191	C19	0.032600	0.056600	0.502800
C201	C20	0.000800	0.060100	0.475600
C211	C21	0.002100	0.290000	0.809930
C221	C22	0.007000	0.316150	0.848700
C231	C23	0.044300	0.329560	0.865240
C241	C24	0.044500	0.354690	0.900070
C251	C25	0.007500	0.366410	0.918350
C261	C26	0.970200	0.353000	0.901810
C271	C27	0.969900	0.327870	0.866980
C281	C28	0.034500	0.416900	0.961500
C291	C29	0.032600	0.443400	0.997200
C301	C30	0.000800	0.439900	0.024400
C311	C31	0.497900	0.210000	0.809930
C321	C32	0.493000	0.183850	0.848700
C331	C33	0.455700	0.170440	0.865240
C341	C34	0.455500	0.145310	0.900070
C351	C35	0.492500	0.133590	0.918350
C361	C36	0.529800	0.147000	0.901810
C371	C37	0.530100	0.172130	0.866980
C381	C38	0.465500	0.083100	0.961500
C391	C39	0.467400	0.056600	0.997200
C401	C40	0.499200	0.060100	0.024400
C411	C41	0.690070	0.497900	0.290000
C421	C42	0.651300	0.493000	0.316150
C431	C43	0.634760	0.455700	0.329560
C441	C44	0.599930	0.455500	0.354690
C451	C45	0.581650	0.492500	0.366410
C461	C46	0.598190	0.529800	0.353000
C471	C47	0.633020	0.530100	0.327870
C481	C48	0.538500	0.465500	0.416900
C491	C49	0.502800	0.467400	0.443400
C501	C50	0.475600	0.499200	0.439900
C511	C51	0.690070	0.002100	0.210000
C521	C52	0.651300	0.007000	0.183850
C531	C53	0.634760	0.044300	0.170440
C541	C54	0.599930	0.044500	0.145310
C551	C55	0.581650	0.007500	0.133590
C561	C56	0.598190	0.970200	0.147000
C571	C57	0.633020	0.969900	0.172130
C581	C58	0.538500	0.034500	0.083100
C591	C59	0.502800	0.032600	0.056600
C601	C60	0.475600	0.000800	0.060100
C611	C61	0.809930	0.002100	0.290000
C621	C62	0.848700	0.007000	0.316150
C631	C63	0.865240	0.044300	0.329560
C641	C64	0.900070	0.044500	0.354690
C651	C65	0.918350	0.007500	0.366410
C661	C66	0.901810	0.970200	0.353000
C671	C67	0.866980	0.969900	0.327870
C681	C68	0.961500	0.034500	0.416900
C691	C69	0.997200	0.032600	0.443400
C701	C70	0.024400	0.000800	0.439900
C711	C71	0.809930	0.497900	0.210000
C721	C72	0.848700	0.493000	0.183850
C731	C73	0.865240	0.455700	0.170440
C741	C74	0.900070	0.455500	0.145310
C751	C75	0.918350	0.492500	0.133590
C761	C76	0.901810	0.529800	0.147000
C771	C77	0.866980	0.530100	0.172130
C781	C78	0.961500	0.465500	0.083100
C791	C79	0.997200	0.467400	0.056600
C801	C80	0.024400	0.499200	0.060100
C811	C81	0.290000	0.690070	0.497900
C821	C82	0.316150	0.651300	0.493000
C831	C83	0.329560	0.634760	0.455700
C841	C84	0.354690	0.599930	0.455500
C851	C85	0.366410	0.581650	0.492500
C861	C86	0.353000	0.598190	0.529800
C871	C87	0.327870	0.633020	0.530100
C881	C88	0.416900	0.538500	0.465500
C891	C89	0.443400	0.502800	0.467400
C901	C90	0.439900	0.475600	0.499200
C911	C91	0.210000	0.690070	0.002100
C921	C92	0.183850	0.651300	0.007000
C931	C93	0.170440	0.634760	0.044300
C941	C94	0.145310	0.599930	0.044500
C951	C95	0.133590	0.581650	0.007500
C961	C96	0.147000	0.598190	0.970200
C971	C97	0.172130	0.633020	0.969900
C981	C98	0.083100	0.538500	0.034500
C991	C99	0.056600	0.502800	0.032600
C1001	C100	0.060100	0.475600	0.000800
C1011	C101	0.290000	0.809930	0.002100
C1021	C102	0.316150	0.848700	0.007000
C1031	C103	0.329560	0.865240	0.044300
C1041	C104	0.354690	0.900070	0.044500
C1051	C105	0.366410	0.918350	0.007500
C1061	C106	0.353000	0.901810	0.970200
C1071	C107	0.327870	0.866980	0.969900
C1081	C108	0.416900	0.961500	0.034500
C1091	C109	0.443400	0.997200	0.032600
C1101	C110	0.439900	0.024400	0.000800
C1111	C111	0.210000	0.809930	0.497900
C1121	C112	0.183850	0.848700	0.493000
C1131	C113	0.170440	0.865240	0.455700
C1141	C114	0.145310	0.900070	0.455500
C1151	C115	0.133590	0.918350	0.492500
C1161	C116	0.147000	0.901810	0.529800
C1171	C117	0.172130	0.866980	0.530100
C1181	C118	0.083100	0.961500	0.465500
C1191	C119	0.056600	0.997200	0.467400
C1201	C120	0.060100	0.024400	0.499200
C1211	C121	0.710000	0.502100	0.190070
C1221	C122	0.683850	0.507000	0.151300
C1231	C123	0.670440	0.544300	0.134760
C1241	C124	0.645310	0.544500	0.099930
C1251	C125	0.633590	0.507500	0.081650
C1261	C126	0.647000	0.470200	0.098190
C1271	C127	0.672130	0.469900	0.133020
C1281	C128	0.583100	0.534500	0.038500
C1291	C129	0.556600	0.532600	0.002800
C1301	C130	0.560100	0.500800	0.975600
C1311	C131	0.790000	0.997900	0.190070
C1321	C132	0.816150	0.993000	0.151300
C1331	C133	0.829560	0.955700	0.134760
C1341	C134	0.854690	0.955500	0.099930
C1351	C135	0.866410	0.992500	0.081650
C1361	C136	0.853000	0.029800	0.098190
C1371	C137	0.827870	0.030100	0.133020
C1381	C138	0.916900	0.965500	0.038500
C1391	C139	0.943400	0.967400	0.002800
C1401	C140	0.939900	0.999200	0.975600
C1411	C141	0.710000	0.997900	0.309930
C1421	C142	0.683850	0.993000	0.348700
C1431	C143	0.670440	0.955700	0.365240
C1441	C144	0.645310	0.955500	0.400070
C1451	C145	0.633590	0.992500	0.418350
C1461	C146	0.647000	0.029800	0.401810
C1471	C147	0.672130	0.030100	0.366980
C1481	C148	0.583100	0.965500	0.461500
C1491	C149	0.556600	0.967400	0.497200
C1501	C150	0.560100	0.999200	0.524400
C1511	C151	0.790000	0.502100	0.309930
C1521	C152	0.816150	0.507000	0.348700
C1531	C153	0.829560	0.544300	0.365240
C1541	C154	0.854690	0.544500	0.400070
C1551	C155	0.866410	0.507500	0.418350
C1561	C156	0.853000	0.470200	0.401810
C1571	C157	0.827870	0.469900	0.366980
C1581	C158	0.916900	0.534500	0.461500
C1591	C159	0.943400	0.532600	0.497200
C1601	C160	0.939900	0.500800	0.524400
C1611	C161	0.502100	0.309930	0.790000
C1621	C162	0.507000	0.348700	0.816150
C1631	C163	0.544300	0.365240	0.829560
C1641	C164	0.544500	0.400070	0.854690
C1651	C165	0.507500	0.418350	0.866410
C1661	C166	0.470200	0.401810	0.853000
C1671	C167	0.469900	0.366980	0.827870
C1681	C168	0.534500	0.461500	0.916900
C1691	C169	0.532600	0.497200	0.943400
C1701	C170	0.500800	0.524400	0.939900
C1711	C171	0.997900	0.309930	0.710000
C1721	C172	0.993000	0.348700	0.683850
C1731	C173	0.955700	0.365240	0.670440
C1741	C174	0.955500	0.400070	0.645310
C1751	C175	0.992500	0.418350	0.633590
C1761	C176	0.029800	0.401810	0.647000
C1771	C177	0.030100	0.366980	0.672130
C1781	C178	0.965500	0.461500	0.583100
C1791	C179	0.967400	0.497200	0.556600
C1801	C180	0.999200	0.524400	0.560100
C1811	C181	0.997900	0.190070	0.790000
C1821	C182	0.993000	0.151300	0.816150
C1831	C183	0.955700	0.134760	0.829560
C1841	C184	0.955500	0.099930	0.854690
C1851	C185	0.992500	0.081650	0.866410
C1861	C186	0.029800	0.098190	0.853000
C1871	C187	0.030100	0.133020	0.827870
C1881	C188	0.965500	0.038500	0.916900
C1891	C189	0.967400	0.002800	0.943400
C1901	C190	0.999200	0.975600	0.939900
C1911	C191	0.502100	0.190070	0.710000
C1921	C192	0.507000	0.151300	0.683850
C1931	C193	0.544300	0.134760	0.670440
C1941	C194	0.544500	0.099930	0.645310
C1951	C195	0.507500	0.081650	0.633590
C1961	C196	0.470200	0.098190	0.647000
C1971	C197	0.469900	0.133020	0.672130
C1981	C198	0.534500	0.038500	0.583100
C1991	C199	0.532600	0.002800	0.556600
C2001	C200	0.500800	0.975600	0.560100
C2011	C201	0.309930	0.710000	0.997900
C2021	C202	0.348700	0.683850	0.993000
C2031	C203	0.365240	0.670440	0.955700
C2041	C204	0.400070	0.645310	0.955500
C2051	C205	0.418350	0.633590	0.992500
C2061	C206	0.401810	0.647000	0.029800
C2071	C207	0.366980	0.672130	0.030100
C2081	C208	0.461500	0.583100	0.965500
C2091	C209	0.497200	0.556600	0.967400
C2101	C210	0.524400	0.560100	0.999200
C2111	C211	0.309930	0.790000	0.502100
C2121	C212	0.348700	0.816150	0.507000
C2131	C213	0.365240	0.829560	0.544300
C2141	C214	0.400070	0.854690	0.544500
C2151	C215	0.418350	0.866410	0.507500
C2161	C216	0.401810	0.853000	0.470200
C2171	C217	0.366980	0.827870	0.469900
C2181	C218	0.461500	0.916900	0.534500
C2191	C219	0.497200	0.943400	0.532600
C2201	C220	0.524400	0.939900	0.500800
C2211	C221	0.190070	0.710000	0.502100
C2221	C222	0.151300	0.683850	0.507000
C2231	C223	0.134760	0.670440	0.544300
C2241	C224	0.099930	0.645310	0.544500
C2251	C225	0.081650	0.633590	0.507500
C2261	C226	0.098190	0.647000	0.470200
C2271	C227	0.133020	0.672130	0.469900
C2281	C228	0.038500	0.583100	0.534500
C2291	C229	0.002800	0.556600	0.532600
C2301	C230	0.975600	0.560100	0.500800
C2311	C231	0.190070	0.790000	0.997900
C2321	C232	0.151300	0.816150	0.993000
C2331	C233	0.134760	0.829560	0.955700
C2341	C234	0.099930	0.854690	0.955500
C2351	C235	0.081650	0.866410	0.992500
C2361	C236	0.098190	0.853000	0.029800
C2371	C237	0.133020	0.827870	0.030100
C2381	C238	0.038500	0.916900	0.965500
C2391	C239	0.002800	0.943400	0.967400
C2401	C240	0.975600	0.939900	0.999200
N11	N1	0.493700	0.389600	0.546500
N21	N2	0.006300	0.110400	0.546500
N31	N3	0.006300	0.389600	0.953500
N41	N4	0.493700	0.110400	0.953500
N51	N5	0.546500	0.493700	0.389600
N61	N6	0.546500	0.006300	0.110400
N71	N7	0.953500	0.006300	0.389600
N81	N8	0.953500	0.493700	0.110400
N91	N9	0.389600	0.546500	0.493700
N101	N10	0.110400	0.546500	0.006300
N111	N11	0.389600	0.953500	0.006300
N121	N12	0.110400	0.953500	0.493700
N131	N13	0.610400	0.506300	0.046500
N141	N14	0.889600	0.993700	0.046500
N151	N15	0.610400	0.993700	0.453500
N161	N16	0.889600	0.506300	0.453500
N171	N17	0.506300	0.453500	0.889600
N181	N18	0.993700	0.453500	0.610400
N191	N19	0.993700	0.046500	0.889600
N201	N20	0.506300	0.046500	0.610400
N211	N21	0.453500	0.610400	0.993700
N221	N22	0.453500	0.889600	0.506300
N231	N23	0.046500	0.610400	0.506300
N241	N24	0.046500	0.889600	0.993700
O11	O1	0.463640	0.284270	0.703280
O21	O2	0.533900	0.284600	0.700500
O31	O3	0.433100	0.425600	0.555400
O41	O4	0.036360	0.215730	0.703280
O51	O5	0.966100	0.215400	0.700500
O61	O6	0.066900	0.074400	0.555400
O71	O7	0.036360	0.284270	0.796720
O81	O8	0.966100	0.284600	0.799500
O91	O9	0.066900	0.425600	0.944600
O101	O10	0.463640	0.215730	0.796720
O111	O11	0.533900	0.215400	0.799500
O121	O12	0.433100	0.074400	0.944600
O131	O13	0.703280	0.463640	0.284270
O141	O14	0.700500	0.533900	0.284600
O151	O15	0.555400	0.433100	0.425600
O161	O16	0.703280	0.036360	0.215730
O171	O17	0.700500	0.966100	0.215400
O181	O18	0.555400	0.066900	0.074400
O191	O19	0.796720	0.036360	0.284270
O201	O20	0.799500	0.966100	0.284600
O211	O21	0.944600	0.066900	0.425600
O221	O22	0.796720	0.463640	0.215730
O231	O23	0.799500	0.533900	0.215400
O241	O24	0.944600	0.433100	0.074400
O251	O25	0.284270	0.703280	0.463640
O261	O26	0.284600	0.700500	0.533900
O271	O27	0.425600	0.555400	0.433100
O281	O28	0.215730	0.703280	0.036360
O291	O29	0.215400	0.700500	0.966100
O301	O30	0.074400	0.555400	0.066900
O311	O31	0.284270	0.796720	0.036360
O321	O32	0.284600	0.799500	0.966100
O331	O33	0.425600	0.944600	0.066900
O341	O34	0.215730	0.796720	0.463640
O351	O35	0.215400	0.799500	0.533900
O361	O36	0.074400	0.944600	0.433100
O371	O37	0.715730	0.536360	0.203280
O381	O38	0.715400	0.466100	0.200500
O391	O39	0.574400	0.566900	0.055400
O401	O40	0.784270	0.963640	0.203280
O411	O41	0.784600	0.033900	0.200500
O421	O42	0.925600	0.933100	0.055400
O431	O43	0.715730	0.963640	0.296720
O441	O44	0.715400	0.033900	0.299500
O451	O45	0.574400	0.933100	0.444600
O461	O46	0.784270	0.536360	0.296720
O471	O47	0.784600	0.466100	0.299500
O481	O48	0.925600	0.566900	0.444600
O491	O49	0.536360	0.296720	0.784270
O501	O50	0.466100	0.299500	0.784600
O511	O51	0.566900	0.444600	0.925600
O521	O52	0.963640	0.296720	0.715730
O531	O53	0.033900	0.299500	0.715400
O541	O54	0.933100	0.444600	0.574400
O551	O55	0.963640	0.203280	0.784270
O561	O56	0.033900	0.200500	0.784600
O571	O57	0.933100	0.055400	0.925600
O581	O58	0.536360	0.203280	0.715730
O591	O59	0.466100	0.200500	0.715400
O601	O60	0.566900	0.055400	0.574400
O611	O61	0.296720	0.715730	0.963640
O621	O62	0.299500	0.715400	0.033900
O631	O63	0.444600	0.574400	0.933100
O641	O64	0.296720	0.784270	0.536360
O651	O65	0.299500	0.784600	0.466100
O661	O66	0.444600	0.925600	0.566900
O671	O67	0.203280	0.715730	0.536360
O681	O68	0.200500	0.715400	0.466100
O691	O69	0.055400	0.574400	0.566900
O701	O70	0.203280	0.784270	0.963640
O711	O71	0.200500	0.784600	0.033900
O721	O72	0.055400	0.925600	0.933100
Cu131	Cu13	0.250000	0.459580	0.750000
Cu141	Cu14	0.250000	0.040420	0.750000
Cu151	Cu15	0.459580	0.750000	0.250000
Cu161	Cu16	0.040420	0.750000	0.250000
Cu171	Cu17	0.750000	0.250000	0.040420
Cu181	Cu18	0.750000	0.250000	0.459580
Cu191	Cu19	0.540420	0.750000	0.250000
Cu201	Cu20	0.959580	0.750000	0.250000
Cu211	Cu21	0.250000	0.540420	0.750000
Cu221	Cu22	0.250000	0.959580	0.750000
Cu231	Cu23	0.750000	0.250000	0.540420
Cu241	Cu24	0.750000	0.250000	0.959580
H1451	H145	0.386000	0.514100	0.971100
H1461	H146	0.321600	0.430400	0.852700
H1471	H147	0.363900	0.430000	0.911400
H1481	H148	0.361000	0.555200	0.914300
H1491	H149	0.318700	0.555600	0.855700
H1501	H150	0.418500	0.519000	0.021100
H1511	H151	0.114000	0.985900	0.971100
H1521	H152	0.178400	0.069600	0.852700
H1531	H153	0.136100	0.070000	0.911400
H1541	H154	0.139000	0.944800	0.914300
H1551	H155	0.181300	0.944400	0.855700
H1561	H156	0.081500	0.981000	0.021100
H1571	H157	0.386000	0.985900	0.528900
H1581	H158	0.321600	0.069600	0.647300
H1591	H159	0.363900	0.070000	0.588600
H1601	H160	0.361000	0.944800	0.585700
H1611	H161	0.318700	0.944400	0.644300
H1621	H162	0.418500	0.981000	0.478900
H1631	H163	0.114000	0.514100	0.528900
H1641	H164	0.178400	0.430400	0.647300
H1651	H165	0.136100	0.430000	0.588600
H1661	H166	0.139000	0.555200	0.585700
H1671	H167	0.181300	0.555600	0.644300
H1681	H168	0.081500	0.519000	0.478900
H1691	H169	0.514100	0.528900	0.114000
H1701	H170	0.430400	0.647300	0.178400
H1711	H171	0.430000	0.588600	0.136100
H1721	H172	0.555200	0.585700	0.139000
H1731	H173	0.555600	0.644300	0.181300
H1741	H174	0.519000	0.478900	0.081500
H1751	H175	0.985900	0.528900	0.386000
H1761	H176	0.069600	0.647300	0.321600
H1771	H177	0.070000	0.588600	0.363900
H1781	H178	0.944800	0.585700	0.361000
H1791	H179	0.944400	0.644300	0.318700
H1801	H180	0.981000	0.478900	0.418500
H1811	H181	0.985900	0.971100	0.114000
H1821	H182	0.069600	0.852700	0.178400
H1831	H183	0.070000	0.911400	0.136100
H1841	H184	0.944800	0.914300	0.139000
H1851	H185	0.944400	0.855700	0.181300
H1861	H186	0.981000	0.021100	0.081500
H1871	H187	0.514100	0.971100	0.386000
H1881	H188	0.430400	0.852700	0.321600
H1891	H189	0.430000	0.911400	0.363900
H1901	H190	0.555200	0.914300	0.361000
H1911	H191	0.555600	0.855700	0.318700
H1921	H192	0.519000	0.021100	0.418500
H1931	H193	0.528900	0.386000	0.985900
H1941	H194	0.647300	0.321600	0.069600
H1951	H195	0.588600	0.363900	0.070000
H1961	H196	0.585700	0.361000	0.944800
H1971	H197	0.644300	0.318700	0.944400
H1981	H198	0.478900	0.418500	0.981000
H1991	H199	0.528900	0.114000	0.514100
H2001	H200	0.647300	0.178400	0.430400
H2011	H201	0.588600	0.136100	0.430000
H2021	H202	0.585700	0.139000	0.555200
H2031	H203	0.644300	0.181300	0.555600
H2041	H204	0.478900	0.081500	0.519000
H2051	H205	0.971100	0.386000	0.514100
H2061	H206	0.852700	0.321600	0.430400
H2071	H207	0.911400	0.363900	0.430000
H2081	H208	0.914300	0.361000	0.555200
H2091	H209	0.855700	0.318700	0.555600
H2101	H210	0.021100	0.418500	0.519000
H2111	H211	0.971100	0.114000	0.985900
H2121	H212	0.852700	0.178400	0.069600
H2131	H213	0.911400	0.136100	0.070000
H2141	H214	0.914300	0.139000	0.944800
H2151	H215	0.855700	0.181300	0.944400
H2161	H216	0.021100	0.081500	0.981000
H2171	H217	0.485900	0.614000	0.471100
H2181	H218	0.569600	0.678400	0.352700
H2191	H219	0.570000	0.636100	0.411400
H2201	H220	0.444800	0.639000	0.414300
H2211	H221	0.444400	0.681300	0.355700
H2221	H222	0.481000	0.581500	0.521100
H2231	H223	0.014100	0.886000	0.471100
H2241	H224	0.930400	0.821600	0.352700
H2251	H225	0.930000	0.863900	0.411400
H2261	H226	0.055200	0.861000	0.414300
H2271	H227	0.055600	0.818700	0.355700
H2281	H228	0.019000	0.918500	0.521100
H2291	H229	0.014100	0.614000	0.028900
H2301	H230	0.930400	0.678400	0.147300
H2311	H231	0.930000	0.636100	0.088600
H2321	H232	0.055200	0.639000	0.085700
H2331	H233	0.055600	0.681300	0.144300
H2341	H234	0.019000	0.581500	0.978900
H2351	H235	0.485900	0.886000	0.028900
H2361	H236	0.569600	0.821600	0.147300
H2371	H237	0.570000	0.863900	0.088600
H2381	H238	0.444800	0.861000	0.085700
H2391	H239	0.444400	0.818700	0.144300
H2401	H240	0.481000	0.918500	0.978900
H2411	H241	0.471100	0.485900	0.614000
H2421	H242	0.352700	0.569600	0.678400
H2431	H243	0.411400	0.570000	0.636100
H2441	H244	0.414300	0.444800	0.639000
H2451	H245	0.355700	0.444400	0.681300
H2461	H246	0.521100	0.481000	0.581500
H2471	H247	0.471100	0.014100	0.886000
H2481	H248	0.352700	0.930400	0.821600
H2491	H249	0.411400	0.930000	0.863900
H2501	H250	0.414300	0.055200	0.861000
H2511	H251	0.355700	0.055600	0.818700
H2521	H252	0.521100	0.019000	0.918500
H2531	H253	0.028900	0.014100	0.614000
H2541	H254	0.147300	0.930400	0.678400
H2551	H255	0.088600	0.930000	0.636100
H2561	H256	0.085700	0.055200	0.639000
H2571	H257	0.144300	0.055600	0.681300
H2581	H258	0.978900	0.019000	0.581500
H2591	H259	0.028900	0.485900	0.886000
H2601	H260	0.147300	0.569600	0.821600
H2611	H261	0.088600	0.570000	0.863900
H2621	H262	0.085700	0.444800	0.861000
H2631	H263	0.144300	0.444400	0.818700
H2641	H264	0.978900	0.481000	0.918500
H2651	H265	0.614000	0.471100	0.485900
H2661	H266	0.678400	0.352700	0.569600
H2671	H267	0.636100	0.411400	0.570000
H2681	H268	0.639000	0.414300	0.444800
H2691	H269	0.681300	0.355700	0.444400
H2701	H270	0.581500	0.521100	0.481000
H2711	H271	0.886000	0.471100	0.014100
H2721	H272	0.821600	0.352700	0.930400
H2731	H273	0.863900	0.411400	0.930000
H2741	H274	0.861000	0.414300	0.055200
H2751	H275	0.818700	0.355700	0.055600
H2761	H276	0.918500	0.521100	0.019000
H2771	H277	0.614000	0.028900	0.014100
H2781	H278	0.678400	0.147300	0.930400
H2791	H279	0.636100	0.088600	0.930000
H2801	H280	0.639000	0.085700	0.055200
H2811	H281	0.681300	0.144300	0.055600
H2821	H282	0.581500	0.978900	0.019000
H2831	H283	0.886000	0.028900	0.485900
H2841	H284	0.821600	0.147300	0.569600
H2851	H285	0.863900	0.088600	0.570000
H2861	H286	0.861000	0.085700	0.444800
H2871	H287	0.818700	0.144300	0.444400
H2881	H288	0.918500	0.978900	0.481000
C2411	C241	0.290000	0.497900	0.809930
C2421	C242	0.316150	0.493000	0.848700
C2431	C243	0.329560	0.455700	0.865240
C2441	C244	0.354690	0.455500	0.900070
C2451	C245	0.366410	0.492500	0.918350
C2461	C246	0.353000	0.529800	0.901810
C2471	C247	0.327870	0.530100	0.866980
C2481	C248	0.416900	0.465500	0.961500
C2491	C249	0.443400	0.467400	0.997200
C2501	C250	0.439900	0.499200	0.024400
C2511	C251	0.210000	0.002100	0.809930
C2521	C252	0.183850	0.007000	0.848700
C2531	C253	0.170440	0.044300	0.865240
C2541	C254	0.145310	0.044500	0.900070
C2551	C255	0.133590	0.007500	0.918350
C2561	C256	0.147000	0.970200	0.901810
C2571	C257	0.172130	0.969900	0.866980
C2581	C258	0.083100	0.034500	0.961500
C2591	C259	0.056600	0.032600	0.997200
C2601	C260	0.060100	0.000800	0.024400
C2611	C261	0.290000	0.002100	0.690070
C2621	C262	0.316150	0.007000	0.651300
C2631	C263	0.329560	0.044300	0.634760
C2641	C264	0.354690	0.044500	0.599930
C2651	C265	0.366410	0.007500	0.581650
C2661	C266	0.353000	0.970200	0.598190
C2671	C267	0.327870	0.969900	0.633020
C2681	C268	0.416900	0.034500	0.538500
C2691	C269	0.443400	0.032600	0.502800
C2701	C270	0.439900	0.000800	0.475600
C2711	C271	0.210000	0.497900	0.690070
C2721	C272	0.183850	0.493000	0.651300
C2731	C273	0.170440	0.455700	0.634760
C2741	C274	0.145310	0.455500	0.599930
C2751	C275	0.133590	0.492500	0.581650
C2761	C276	0.147000	0.529800	0.598190
C2771	C277	0.172130	0.530100	0.633020
C2781	C278	0.083100	0.465500	0.538500
C2791	C279	0.056600	0.467400	0.502800
C2801	C280	0.060100	0.499200	0.475600
C2811	C281	0.497900	0.690070	0.210000
C2821	C282	0.493000	0.651300	0.183850
C2831	C283	0.455700	0.634760	0.170440
C2841	C284	0.455500	0.599930	0.145310
C2851	C285	0.492500	0.581650	0.133590
C2861	C286	0.529800	0.598190	0.147000
C2871	C287	0.530100	0.633020	0.172130
C2881	C288	0.465500	0.538500	0.083100
C2891	C289	0.467400	0.502800	0.056600
C2901	C290	0.499200	0.475600	0.060100
C2911	C291	0.002100	0.690070	0.290000
C2921	C292	0.007000	0.651300	0.316150
C2931	C293	0.044300	0.634760	0.329560
C2941	C294	0.044500	0.599930	0.354690
C2951	C295	0.007500	0.581650	0.366410
C2961	C296	0.970200	0.598190	0.353000
C2971	C297	0.969900	0.633020	0.327870
C2981	C298	0.034500	0.538500	0.416900
C2991	C299	0.032600	0.502800	0.443400
C3001	C300	0.000800	0.475600	0.439900
C3011	C301	0.002100	0.809930	0.210000
C3021	C302	0.007000	0.848700	0.183850
C3031	C303	0.044300	0.865240	0.170440
C3041	C304	0.044500	0.900070	0.145310
C3051	C305	0.007500	0.918350	0.133590
C3061	C306	0.970200	0.901810	0.147000
C3071	C307	0.969900	0.866980	0.172130
C3081	C308	0.034500	0.961500	0.083100
C3091	C309	0.032600	0.997200	0.056600
C3101	C310	0.000800	0.024400	0.060100
C3111	C311	0.497900	0.809930	0.290000
C3121	C312	0.493000	0.848700	0.316150
C3131	C313	0.455700	0.865240	0.329560
C3141	C314	0.455500	0.900070	0.354690
C3151	C315	0.492500	0.918350	0.366410
C3161	C316	0.529800	0.901810	0.353000
C3171	C317	0.530100	0.866980	0.327870
C3181	C318	0.465500	0.961500	0.416900
C3191	C319	0.467400	0.997200	0.443400
C3201	C320	0.499200	0.024400	0.439900
C3211	C321	0.690070	0.290000	0.002100
C3221	C322	0.651300	0.316150	0.007000
C3231	C323	0.634760	0.329560	0.044300
C3241	C324	0.599930	0.354690	0.044500
C3251	C325	0.581650	0.366410	0.007500
C3261	C326	0.598190	0.353000	0.970200
C3271	C327	0.633020	0.327870	0.969900
C3281	C328	0.538500	0.416900	0.034500
C3291	C329	0.502800	0.443400	0.032600
C3301	C330	0.475600	0.439900	0.000800
C3311	C331	0.690070	0.210000	0.497900
C3321	C332	0.651300	0.183850	0.493000
C3331	C333	0.634760	0.170440	0.455700
C3341	C334	0.599930	0.145310	0.455500
C3351	C335	0.581650	0.133590	0.492500
C3361	C336	0.598190	0.147000	0.529800
C3371	C337	0.633020	0.172130	0.530100
C3381	C338	0.538500	0.083100	0.465500
C3391	C339	0.502800	0.056600	0.467400
C3401	C340	0.475600	0.060100	0.499200
C3411	C341	0.809930	0.290000	0.497900
C3421	C342	0.848700	0.316150	0.493000
C3431	C343	0.865240	0.329560	0.455700
C3441	C344	0.900070	0.354690	0.455500
C3451	C345	0.918350	0.366410	0.492500
C3461	C346	0.901810	0.353000	0.529800
C3471	C347	0.866980	0.327870	0.530100
C3481	C348	0.961500	0.416900	0.465500
C3491	C349	0.997200	0.443400	0.467400
C3501	C350	0.024400	0.439900	0.499200
C3511	C351	0.809930	0.210000	0.002100
C3521	C352	0.848700	0.183850	0.007000
C3531	C353	0.865240	0.170440	0.044300
C3541	C354	0.900070	0.145310	0.044500
C3551	C355	0.918350	0.133590	0.007500
C3561	C356	0.901810	0.147000	0.970200
C3571	C357	0.866980	0.172130	0.969900
C3581	C358	0.961500	0.083100	0.034500
C3591	C359	0.997200	0.056600	0.032600
C3601	C360	0.024400	0.060100	0.000800
C3611	C361	0.502100	0.710000	0.309930
C3621	C362	0.507000	0.683850	0.348700
C3631	C363	0.544300	0.670440	0.365240
C3641	C364	0.544500	0.645310	0.400070
C3651	C365	0.507500	0.633590	0.418350
C3661	C366	0.470200	0.647000	0.401810
C3671	C367	0.469900	0.672130	0.366980
C3681	C368	0.534500	0.583100	0.461500
C3691	C369	0.532600	0.556600	0.497200
C3701	C370	0.500800	0.560100	0.524400
C3711	C371	0.997900	0.790000	0.309930
C3721	C372	0.993000	0.816150	0.348700
C3731	C373	0.955700	0.829560	0.365240
C3741	C374	0.955500	0.854690	0.400070
C3751	C375	0.992500	0.866410	0.418350
C3761	C376	0.029800	0.853000	0.401810
C3771	C377	0.030100	0.827870	0.366980
C3781	C378	0.965500	0.916900	0.461500
C3791	C379	0.967400	0.943400	0.497200
C3801	C380	0.999200	0.939900	0.524400
C3811	C381	0.997900	0.710000	0.190070
C3821	C382	0.993000	0.683850	0.151300
C3831	C383	0.955700	0.670440	0.134760
C3841	C384	0.955500	0.645310	0.099930
C3851	C385	0.992500	0.633590	0.081650
C3861	C386	0.029800	0.647000	0.098190
C3871	C387	0.030100	0.672130	0.133020
C3881	C388	0.965500	0.583100	0.038500
C3891	C389	0.967400	0.556600	0.002800
C3901	C390	0.999200	0.560100	0.975600
C3911	C391	0.502100	0.790000	0.190070
C3921	C392	0.507000	0.816150	0.151300
C3931	C393	0.544300	0.829560	0.134760
C3941	C394	0.544500	0.854690	0.099930
C3951	C395	0.507500	0.866410	0.081650
C3961	C396	0.470200	0.853000	0.098190
C3971	C397	0.469900	0.827870	0.133020
C3981	C398	0.534500	0.916900	0.038500
C3991	C399	0.532600	0.943400	0.002800
C4001	C400	0.500800	0.939900	0.975600
C4011	C401	0.309930	0.502100	0.710000
C4021	C402	0.348700	0.507000	0.683850
C4031	C403	0.365240	0.544300	0.670440
C4041	C404	0.400070	0.544500	0.645310
C4051	C405	0.418350	0.507500	0.633590
C4061	C406	0.401810	0.470200	0.647000
C4071	C407	0.366980	0.469900	0.672130
C4081	C408	0.461500	0.534500	0.583100
C4091	C409	0.497200	0.532600	0.556600
C4101	C410	0.524400	0.500800	0.560100
C4111	C411	0.309930	0.997900	0.790000
C4121	C412	0.348700	0.993000	0.816150
C4131	C413	0.365240	0.955700	0.829560
C4141	C414	0.400070	0.955500	0.854690
C4151	C415	0.418350	0.992500	0.866410
C4161	C416	0.401810	0.029800	0.853000
C4171	C417	0.366980	0.030100	0.827870
C4181	C418	0.461500	0.965500	0.916900
C4191	C419	0.497200	0.967400	0.943400
C4201	C420	0.524400	0.999200	0.939900
C4211	C421	0.190070	0.997900	0.710000
C4221	C422	0.151300	0.993000	0.683850
C4231	C423	0.134760	0.955700	0.670440
C4241	C424	0.099930	0.955500	0.645310
C4251	C425	0.081650	0.992500	0.633590
C4261	C426	0.098190	0.029800	0.647000
C4271	C427	0.133020	0.030100	0.672130
C4281	C428	0.038500	0.965500	0.583100
C4291	C429	0.002800	0.967400	0.556600
C4301	C430	0.975600	0.999200	0.560100
C4311	C431	0.190070	0.502100	0.790000
C4321	C432	0.151300	0.507000	0.816150
C4331	C433	0.134760	0.544300	0.829560
C4341	C434	0.099930	0.544500	0.854690
C4351	C435	0.081650	0.507500	0.866410
C4361	C436	0.098190	0.470200	0.853000
C4371	C437	0.133020	0.469900	0.827870
C4381	C438	0.038500	0.534500	0.916900
C4391	C439	0.002800	0.532600	0.943400
C4401	C440	0.975600	0.500800	0.939900
C4411	C441	0.710000	0.309930	0.502100
C4421	C442	0.683850	0.348700	0.507000
C4431	C443	0.670440	0.365240	0.544300
C4441	C444	0.645310	0.400070	0.544500
C4451	C445	0.633590	0.418350	0.507500
C4461	C446	0.647000	0.401810	0.470200
C4471	C447	0.672130	0.366980	0.469900
C4481	C448	0.583100	0.461500	0.534500
C4491	C449	0.556600	0.497200	0.532600
C4501	C450	0.560100	0.524400	0.500800
C4511	C451	0.790000	0.309930	0.997900
C4521	C452	0.816150	0.348700	0.993000
C4531	C453	0.829560	0.365240	0.955700
C4541	C454	0.854690	0.400070	0.955500
C4551	C455	0.866410	0.418350	0.992500
C4561	C456	0.853000	0.401810	0.029800
C4571	C457	0.827870	0.366980	0.030100
C4581	C458	0.916900	0.461500	0.965500
C4591	C459	0.943400	0.497200	0.967400
C4601	C460	0.939900	0.524400	0.999200
C4611	C461	0.710000	0.190070	0.997900
C4621	C462	0.683850	0.151300	0.993000
C4631	C463	0.670440	0.134760	0.955700
C4641	C464	0.645310	0.099930	0.955500
C4651	C465	0.633590	0.081650	0.992500
C4661	C466	0.647000	0.098190	0.029800
C4671	C467	0.672130	0.133020	0.030100
C4681	C468	0.583100	0.038500	0.965500
C4691	C469	0.556600	0.002800	0.967400
C4701	C470	0.560100	0.975600	0.999200
C4711	C471	0.790000	0.190070	0.502100
C4721	C472	0.816150	0.151300	0.507000
C4731	C473	0.829560	0.134760	0.544300
C4741	C474	0.854690	0.099930	0.544500
C4751	C475	0.866410	0.081650	0.507500
C4761	C476	0.853000	0.098190	0.470200
C4771	C477	0.827870	0.133020	0.469900
C4781	C478	0.916900	0.038500	0.534500
C4791	C479	0.943400	0.002800	0.532600
C4801	C480	0.939900	0.975600	0.500800
N251	N25	0.389600	0.493700	0.953500
N261	N26	0.110400	0.006300	0.953500
N271	N27	0.389600	0.006300	0.546500
N281	N28	0.110400	0.493700	0.546500
N291	N29	0.493700	0.546500	0.110400
N301	N30	0.006300	0.546500	0.389600
N311	N31	0.006300	0.953500	0.110400
N321	N32	0.493700	0.953500	0.389600
N331	N33	0.546500	0.389600	0.006300
N341	N34	0.546500	0.110400	0.493700
N351	N35	0.953500	0.389600	0.493700
N361	N36	0.953500	0.110400	0.006300
N371	N37	0.506300	0.610400	0.453500
N381	N38	0.993700	0.889600	0.453500
N391	N39	0.993700	0.610400	0.046500
N401	N40	0.506300	0.889600	0.046500
N411	N41	0.453500	0.506300	0.610400
N421	N42	0.453500	0.993700	0.889600
N431	N43	0.046500	0.993700	0.610400
N441	N44	0.046500	0.506300	0.889600
N451	N45	0.610400	0.453500	0.506300
N461	N46	0.889600	0.453500	0.993700
N471	N47	0.610400	0.046500	0.993700
N481	N48	0.889600	0.046500	0.506300
O731	O73	0.284270	0.463640	0.796720
O741	O74	0.284600	0.533900	0.799500
O751	O75	0.425600	0.433100	0.944600
O761	O76	0.215730	0.036360	0.796720
O771	O77	0.215400	0.966100	0.799500
O781	O78	0.074400	0.066900	0.944600
O791	O79	0.284270	0.036360	0.703280
O801	O80	0.284600	0.966100	0.700500
O811	O81	0.425600	0.066900	0.555400
O821	O82	0.215730	0.463640	0.703280
O831	O83	0.215400	0.533900	0.700500
O841	O84	0.074400	0.433100	0.555400
O851	O85	0.463640	0.703280	0.215730
O861	O86	0.533900	0.700500	0.215400
O871	O87	0.433100	0.555400	0.074400
O881	O88	0.036360	0.703280	0.284270
O891	O89	0.966100	0.700500	0.284600
O901	O90	0.066900	0.555400	0.425600
O911	O91	0.036360	0.796720	0.215730
O921	O92	0.966100	0.799500	0.215400
O931	O93	0.066900	0.944600	0.074400
O941	O94	0.463640	0.796720	0.284270
O951	O95	0.533900	0.799500	0.284600
O961	O96	0.433100	0.944600	0.425600
O971	O97	0.703280	0.284270	0.036360
O981	O98	0.700500	0.284600	0.966100
O991	O99	0.555400	0.425600	0.066900
O1001	O100	0.703280	0.215730	0.463640
O1011	O101	0.700500	0.215400	0.533900
O1021	O102	0.555400	0.074400	0.433100
O1031	O103	0.796720	0.284270	0.463640
O1041	O104	0.799500	0.284600	0.533900
O1051	O105	0.944600	0.425600	0.433100
O1061	O106	0.796720	0.215730	0.036360
O1071	O107	0.799500	0.215400	0.966100
O1081	O108	0.944600	0.074400	0.066900
O1091	O109	0.536360	0.715730	0.296720
O1101	O110	0.466100	0.715400	0.299500
O1111	O111	0.566900	0.574400	0.444600
O1121	O112	0.963640	0.784270	0.296720
O1131	O113	0.033900	0.784600	0.299500
O1141	O114	0.933100	0.925600	0.444600
O1151	O115	0.963640	0.715730	0.203280
O1161	O116	0.033900	0.715400	0.200500
O1171	O117	0.933100	0.574400	0.055400
O1181	O118	0.536360	0.784270	0.203280
O1191	O119	0.466100	0.784600	0.200500
O1201	O120	0.566900	0.925600	0.055400
O1211	O121	0.296720	0.536360	0.715730
O1221	O122	0.299500	0.466100	0.715400
O1231	O123	0.444600	0.566900	0.574400
O1241	O124	0.296720	0.963640	0.784270
O1251	O125	0.299500	0.033900	0.784600
O1261	O126	0.444600	0.933100	0.925600
O1271	O127	0.203280	0.963640	0.715730
O1281	O128	0.200500	0.033900	0.715400
O1291	O129	0.055400	0.933100	0.574400
O1301	O130	0.203280	0.536360	0.784270
O1311	O131	0.200500	0.466100	0.784600
O1321	O132	0.055400	0.566900	0.925600
O1331	O133	0.715730	0.296720	0.536360
O1341	O134	0.715400	0.299500	0.466100
O1351	O135	0.574400	0.444600	0.566900
O1361	O136	0.784270	0.296720	0.963640
O1371	O137	0.784600	0.299500	0.033900
O1381	O138	0.925600	0.444600	0.933100
O1391	O139	0.715730	0.203280	0.963640
O1401	O140	0.715400	0.200500	0.033900
O1411	O141	0.574400	0.055400	0.933100
O1421	O142	0.784270	0.203280	0.536360
O1431	O143	0.784600	0.200500	0.466100
O1441	O144	0.925600	0.055400	0.566900
