data_PENXUC_clean_PM
_symmetry_space_group_name_H-M	'P1'
_cell_length_a	7.560900
_cell_length_b	14.189000
_cell_length_c	11.174000
_cell_angle_alpha	90.000000
_cell_angle_beta	99.040000
_cell_angle_gamma	90.000000
_symmetry_Int_Tables_number 1

loop_
_symmetry_equiv_pos_as_xyz
'x,y,z'

loop_
_atom_site_label
_atom_site_type_symbol
_atom_site_fract_x
_atom_site_fract_y
_atom_site_fract_z
P11	P1	0.780900	0.198730	0.580660
P21	P2	0.727870	0.801820	0.557160
F11	F1	0.316400	0.158690	0.768490
F21	F2	0.241200	0.327940	0.761300
O11	O1	0.636800	0.194140	0.662670
O21	O2	0.968900	0.211660	0.652130
O31	O3	0.583000	0.797240	0.637480
O41	O4	0.743400	0.277780	0.486040
O51	O5	0.914400	0.781120	0.626170
O61	O6	0.688300	0.732240	0.451550
C11	C1	0.770200	0.089300	0.502100
H11	H1	0.661200	0.088700	0.443300
H21	H2	0.870000	0.086700	0.457300
C21	C2	0.729800	0.916800	0.492100
H31	H3	0.612900	0.928000	0.444700
H41	H4	0.816000	0.916500	0.436300
C31	C3	0.773800	0.000000	0.578500
H51	H5	0.891300	0.991600	0.626500
H61	H6	0.686300	0.004300	0.633100
V11	V1	0.088050	0.202910	0.822500
V21	V2	0.446660	0.268460	0.714240
P31	P3	0.719100	0.698730	0.919340
P41	P4	0.772130	0.301820	0.942840
F31	F3	0.183600	0.658690	0.731510
F41	F4	0.258800	0.827940	0.738700
O71	O7	0.863200	0.694140	0.837330
O81	O8	0.531100	0.711660	0.847870
O91	O9	0.917000	0.297240	0.862520
O101	O10	0.756600	0.777780	0.013960
O111	O11	0.585600	0.281120	0.873830
O121	O12	0.811700	0.232240	0.048450
C41	C4	0.729800	0.589300	0.997900
H71	H7	0.838800	0.588700	0.056700
H81	H8	0.630000	0.586700	0.042700
C51	C5	0.770200	0.416800	0.007900
H91	H9	0.887100	0.428000	0.055300
H101	H10	0.684000	0.416500	0.063700
C61	C6	0.726200	0.500000	0.921500
H111	H11	0.608700	0.491600	0.873500
H121	H12	0.813700	0.504300	0.866900
V31	V3	0.411950	0.702910	0.677500
V41	V4	0.053340	0.768460	0.785760
P51	P5	0.219100	0.801270	0.419340
P61	P6	0.272130	0.198180	0.442840
F51	F5	0.683600	0.841310	0.231510
F61	F6	0.758800	0.672060	0.238700
O131	O13	0.363200	0.805860	0.337330
O141	O14	0.031100	0.788340	0.347870
O151	O15	0.417000	0.202760	0.362520
O161	O16	0.256600	0.722220	0.513960
O171	O17	0.085600	0.218880	0.373830
O181	O18	0.311700	0.267760	0.548450
C71	C7	0.229800	0.910700	0.497900
H131	H13	0.338800	0.911300	0.556700
H141	H14	0.130000	0.913300	0.542700
C81	C8	0.270200	0.083200	0.507900
H151	H15	0.387100	0.072000	0.555300
H161	H16	0.184000	0.083500	0.563700
C91	C9	0.226200	0.000000	0.421500
H171	H17	0.108700	0.008400	0.373500
H181	H18	0.313700	0.995700	0.366900
V51	V5	0.911950	0.797090	0.177500
V61	V6	0.553340	0.731540	0.285760
P71	P7	0.280900	0.301270	0.080660
P81	P8	0.227870	0.698180	0.057160
F71	F7	0.816400	0.341310	0.268490
F81	F8	0.741200	0.172060	0.261300
O191	O19	0.136800	0.305860	0.162670
O201	O20	0.468900	0.288340	0.152130
O211	O21	0.083000	0.702760	0.137480
O221	O22	0.243400	0.222220	0.986040
O231	O23	0.414400	0.718880	0.126170
O241	O24	0.188300	0.767760	0.951550
C101	C10	0.270200	0.410700	0.002100
H191	H19	0.161200	0.411300	0.943300
H201	H20	0.370000	0.413300	0.957300
C111	C11	0.229800	0.583200	0.992100
H211	H21	0.112900	0.572000	0.944700
H221	H22	0.316000	0.583500	0.936300
C121	C12	0.273800	0.500000	0.078500
H231	H23	0.391300	0.508400	0.126500
H241	H24	0.186300	0.495700	0.133100
V71	V7	0.588050	0.297090	0.322500
V81	V8	0.946660	0.231540	0.214240
