data_PEPBAO_clean_PM
_symmetry_space_group_name_H-M	'P1'
_cell_length_a	9.553300
_cell_length_b	9.994700
_cell_length_c	23.886600
_cell_angle_alpha	90.000000
_cell_angle_beta	90.000000
_cell_angle_gamma	90.000000
_symmetry_Int_Tables_number 1

loop_
_symmetry_equiv_pos_as_xyz
'x,y,z'

loop_
_atom_site_label
_atom_site_type_symbol
_atom_site_fract_x
_atom_site_fract_y
_atom_site_fract_z
Zn11	Zn1	0.825280	0.625510	0.488060
Zn21	Zn2	0.325280	0.874490	0.511940
Zn31	Zn3	0.174720	0.374490	0.988060
Zn41	Zn4	0.674720	0.125510	0.011940
Zn51	Zn5	0.174720	0.374490	0.511940
Zn61	Zn6	0.674720	0.125510	0.488060
Zn71	Zn7	0.825280	0.625510	0.011940
Zn81	Zn8	0.325280	0.874490	0.988060
P11	P1	0.112690	0.654180	0.561290
P21	P2	0.612690	0.845820	0.438710
P31	P3	0.887310	0.345820	0.061290
P41	P4	0.387310	0.154180	0.938710
P51	P5	0.887310	0.345820	0.438710
P61	P6	0.387310	0.154180	0.561290
P71	P7	0.112690	0.654180	0.938710
P81	P8	0.612690	0.845820	0.061290
H11	H1	0.068600	0.702800	0.608600
H21	H2	0.531800	0.624600	0.539600
H31	H3	0.419700	0.531700	0.616200
H41	H4	0.776600	0.334000	0.653100
H51	H5	0.878700	0.429400	0.575500
H61	H6	0.419500	0.386400	0.696600
H71	H7	0.535600	0.271000	0.698200
H81	H8	0.568600	0.797200	0.391400
H91	H9	0.031800	0.875400	0.460400
H101	H10	0.919700	0.968300	0.383800
H111	H11	0.276600	0.166000	0.346900
H121	H12	0.378700	0.070600	0.424500
H131	H13	0.919500	0.113600	0.303400
H141	H14	0.035600	0.229000	0.301800
H151	H15	0.931400	0.297200	0.108600
H161	H16	0.468200	0.375400	0.039600
H171	H17	0.580300	0.468300	0.116200
H181	H18	0.223400	0.666000	0.153100
H191	H19	0.121300	0.570600	0.075500
H201	H20	0.580500	0.613600	0.196600
H211	H21	0.464400	0.729000	0.198200
H221	H22	0.431400	0.202800	0.891400
H231	H23	0.968200	0.124600	0.960400
H241	H24	0.080300	0.031700	0.883800
H251	H25	0.723400	0.834000	0.846900
H261	H26	0.621300	0.929400	0.924500
H271	H27	0.080500	0.886400	0.803400
H281	H28	0.964400	0.771000	0.801800
H291	H29	0.931400	0.297200	0.391400
H301	H30	0.468200	0.375400	0.460400
H311	H31	0.580300	0.468300	0.383800
H321	H32	0.223400	0.666000	0.346900
H331	H33	0.121300	0.570600	0.424500
H341	H34	0.580500	0.613600	0.303400
H351	H35	0.464400	0.729000	0.301800
H361	H36	0.431400	0.202800	0.608600
H371	H37	0.968200	0.124600	0.539600
H381	H38	0.080300	0.031700	0.616200
H391	H39	0.723400	0.834000	0.653100
H401	H40	0.621300	0.929400	0.575500
H411	H41	0.080500	0.886400	0.696600
H421	H42	0.964400	0.771000	0.698200
H431	H43	0.068600	0.702800	0.891400
H441	H44	0.531800	0.624600	0.960400
H451	H45	0.419700	0.531700	0.883800
H461	H46	0.776600	0.334000	0.846900
H471	H47	0.878700	0.429400	0.924500
H481	H48	0.419500	0.386400	0.803400
H491	H49	0.535600	0.271000	0.801800
H501	H50	0.568600	0.797200	0.108600
H511	H51	0.031800	0.875400	0.039600
H521	H52	0.919700	0.968300	0.116200
H531	H53	0.276600	0.166000	0.153100
H541	H54	0.378700	0.070600	0.075500
H551	H55	0.919500	0.113600	0.196600
H561	H56	0.035600	0.229000	0.198200
H571	H57	0.687200	0.417200	0.750000
H581	H58	0.566800	0.528800	0.750000
H591	H59	0.187200	0.082800	0.250000
H601	H60	0.066800	0.971200	0.250000
H611	H61	0.312800	0.582800	0.250000
H621	H62	0.433200	0.471200	0.250000
H631	H63	0.812800	0.917200	0.750000
H641	H64	0.933200	0.028800	0.750000
C11	C1	0.582400	0.565700	0.563400
C21	C2	0.515000	0.510600	0.609130
C31	C3	0.586300	0.424600	0.644840
C41	C4	0.724200	0.394600	0.630670
C51	C5	0.784800	0.452100	0.584440
C61	C6	0.521500	0.369100	0.697230
C71	C7	0.082400	0.934300	0.436600
C81	C8	0.015000	0.989400	0.390870
C91	C9	0.086300	0.075400	0.355160
C101	C10	0.224200	0.105400	0.369330
C111	C11	0.284800	0.047900	0.415560
C121	C12	0.021500	0.130900	0.302770
C131	C13	0.417600	0.434300	0.063400
C141	C14	0.485000	0.489400	0.109130
C151	C15	0.413700	0.575400	0.144840
C161	C16	0.275800	0.605400	0.130670
C171	C17	0.215200	0.547900	0.084440
C181	C18	0.478500	0.630900	0.197230
C191	C19	0.917600	0.065700	0.936600
C201	C20	0.985000	0.010600	0.890870
C211	C21	0.913700	0.924600	0.855160
C221	C22	0.775800	0.894600	0.869330
C231	C23	0.715200	0.952100	0.915560
C241	C24	0.978500	0.869100	0.802770
C251	C25	0.417600	0.434300	0.436600
C261	C26	0.485000	0.489400	0.390870
C271	C27	0.413700	0.575400	0.355160
C281	C28	0.275800	0.605400	0.369330
C291	C29	0.215200	0.547900	0.415560
C301	C30	0.478500	0.630900	0.302770
C311	C31	0.917600	0.065700	0.563400
C321	C32	0.985000	0.010600	0.609130
C331	C33	0.913700	0.924600	0.644840
C341	C34	0.775800	0.894600	0.630670
C351	C35	0.715200	0.952100	0.584440
C361	C36	0.978500	0.869100	0.697230
C371	C37	0.582400	0.565700	0.936600
C381	C38	0.515000	0.510600	0.890870
C391	C39	0.586300	0.424600	0.855160
C401	C40	0.724200	0.394600	0.869330
C411	C41	0.784800	0.452100	0.915560
C421	C42	0.521500	0.369100	0.802770
C431	C43	0.082400	0.934300	0.063400
C441	C44	0.015000	0.989400	0.109130
C451	C45	0.086300	0.075400	0.144840
C461	C46	0.224200	0.105400	0.130670
C471	C47	0.284800	0.047900	0.084440
C481	C48	0.021500	0.130900	0.197230
C491	C49	0.584600	0.431200	0.750000
C501	C50	0.084600	0.068800	0.250000
C511	C51	0.415400	0.568800	0.250000
C521	C52	0.915400	0.931200	0.750000
N11	N1	0.717100	0.538800	0.551380
N21	N2	0.217100	0.961200	0.448620
N31	N3	0.282900	0.461200	0.051380
N41	N4	0.782900	0.038800	0.948620
N51	N5	0.282900	0.461200	0.448620
N61	N6	0.782900	0.038800	0.551380
N71	N7	0.717100	0.538800	0.948620
N81	N8	0.217100	0.961200	0.051380
O11	O1	0.002310	0.687510	0.518390
O21	O2	0.131700	0.504500	0.570400
O31	O3	0.249800	0.722190	0.549100
O41	O4	0.502310	0.812490	0.481610
O51	O5	0.631700	0.995500	0.429600
O61	O6	0.749800	0.777810	0.450900
O71	O7	0.997690	0.312490	0.018390
O81	O8	0.868300	0.495500	0.070400
O91	O9	0.750200	0.277810	0.049100
O101	O10	0.497690	0.187510	0.981610
O111	O11	0.368300	0.004500	0.929600
O121	O12	0.250200	0.222190	0.950900
O131	O13	0.997690	0.312490	0.481610
O141	O14	0.868300	0.495500	0.429600
O151	O15	0.750200	0.277810	0.450900
O161	O16	0.497690	0.187510	0.518390
O171	O17	0.368300	0.004500	0.570400
O181	O18	0.250200	0.222190	0.549100
O191	O19	0.002310	0.687510	0.981610
O201	O20	0.131700	0.504500	0.929600
O211	O21	0.249800	0.722190	0.950900
O221	O22	0.502310	0.812490	0.018390
O231	O23	0.631700	0.995500	0.070400
O241	O24	0.749800	0.777810	0.049100
