data_PEQRUZ_clean_PM
_symmetry_space_group_name_H-M	'P1'
_cell_length_a	13.329700
_cell_length_b	16.321300
_cell_length_c	16.321300
_cell_angle_alpha	80.401000
_cell_angle_beta	65.898700
_cell_angle_gamma	65.898700
_symmetry_Int_Tables_number 1

loop_
_symmetry_equiv_pos_as_xyz
'x,y,z'

loop_
_atom_site_label
_atom_site_type_symbol
_atom_site_fract_x
_atom_site_fract_y
_atom_site_fract_z
Na11	Na1	0.393790	0.930400	0.092480
Na21	Na2	0.416670	0.069600	0.907520
Na31	Na3	0.736270	0.407520	0.430400
Na41	Na4	0.574190	0.592480	0.569600
Na51	Na5	0.916670	0.907520	0.069600
Na61	Na6	0.893790	0.092480	0.930400
Na71	Na7	0.074190	0.569600	0.592480
Na81	Na8	0.236270	0.430400	0.407520
Co11	Co1	0.637020	0.000000	0.000000
Co21	Co2	0.887020	0.500000	0.500000
Co31	Co3	0.137020	0.000000	0.000000
Co41	Co4	0.387020	0.500000	0.500000
H11	H1	0.641100	0.730400	0.160200
H21	H2	0.675600	0.623300	0.268900
H31	H3	0.790100	0.746900	0.435500
H41	H4	0.801900	0.881900	0.436100
H51	H5	0.767100	0.988900	0.328900
H61	H6	0.708100	0.965300	0.225500
H71	H7	0.531700	0.269600	0.839800
H81	H8	0.567800	0.376700	0.731100
H91	H9	0.972500	0.253100	0.564500
H101	H10	0.119900	0.118100	0.563900
H111	H11	0.084900	0.011100	0.671100
H121	H12	0.898900	0.034700	0.774500
H131	H13	0.051300	0.339800	0.230400
H141	H14	0.194500	0.231100	0.123300
H151	H15	0.475600	0.064500	0.246900
H161	H16	0.488000	0.063900	0.381900
H171	H17	0.346000	0.171100	0.488900
H181	H18	0.183600	0.274500	0.465300
H191	H19	0.621500	0.660200	0.769600
H201	H20	0.548900	0.768900	0.876700
H211	H21	0.787000	0.935500	0.753100
H221	H22	0.933800	0.936100	0.618100
H231	H23	0.006000	0.828900	0.511100
H241	H24	0.923400	0.725500	0.534700
H251	H25	0.031700	0.839800	0.269600
H261	H26	0.067800	0.731100	0.376700
H271	H27	0.472500	0.564500	0.253100
H281	H28	0.619900	0.563900	0.118100
H291	H29	0.584900	0.671100	0.011100
H301	H30	0.398900	0.774500	0.034700
H311	H31	0.141100	0.160200	0.730400
H321	H32	0.175600	0.268900	0.623300
H331	H33	0.290100	0.435500	0.746900
H341	H34	0.301900	0.436100	0.881900
H351	H35	0.267100	0.328900	0.988900
H361	H36	0.208100	0.225500	0.965300
H371	H37	0.121500	0.769600	0.660200
H381	H38	0.048900	0.876700	0.768900
H391	H39	0.287000	0.753100	0.935500
H401	H40	0.433800	0.618100	0.936100
H411	H41	0.506000	0.511100	0.828900
H421	H42	0.423400	0.534700	0.725500
H431	H43	0.551300	0.230400	0.339800
H441	H44	0.694500	0.123300	0.231100
H451	H45	0.975600	0.246900	0.064500
H461	H46	0.988000	0.381900	0.063900
H471	H47	0.846000	0.488900	0.171100
H481	H48	0.683600	0.465300	0.274500
C11	C1	0.661290	0.882160	0.121460
C21	C2	0.682490	0.818630	0.197390
C31	C3	0.666600	0.740760	0.201240
C41	C4	0.688400	0.675690	0.266710
C51	C5	0.727720	0.687650	0.326710
C61	C6	0.740540	0.770290	0.327430
C71	C7	0.773600	0.789770	0.392630
C81	C8	0.781400	0.870100	0.392500
C91	C9	0.759120	0.934990	0.328770
C101	C10	0.725880	0.920240	0.266400
C111	C11	0.717700	0.837420	0.262180
C121	C12	0.753000	0.609910	0.391490
C131	C13	0.664910	0.117840	0.878540
C141	C14	0.698510	0.181370	0.802610
C151	C15	0.608600	0.259240	0.798760
C161	C16	0.630800	0.324310	0.733290
C171	C17	0.742080	0.312350	0.673290
C181	C18	0.838260	0.229710	0.672570
C191	C19	0.956000	0.210230	0.607370
C201	C20	0.044000	0.129900	0.607500
C211	C21	0.022880	0.065010	0.671230
C221	C22	0.912520	0.079760	0.733600
C231	C23	0.817300	0.162580	0.737820
C241	C24	0.754400	0.390090	0.608510
C251	C25	0.032750	0.378540	0.382160
C261	C26	0.129880	0.302610	0.318630
C271	C27	0.117840	0.298760	0.240760
C281	C28	0.205110	0.233290	0.175690
C291	C29	0.304430	0.173290	0.187650
C301	C30	0.317970	0.172570	0.270290
C311	C31	0.416230	0.107370	0.289770
C321	C32	0.423900	0.107500	0.370100
C331	C33	0.337890	0.171230	0.434990
C341	C34	0.242280	0.233600	0.420240
C351	C35	0.229880	0.237820	0.337420
C361	C36	0.394490	0.108510	0.109910
C371	C37	0.793450	0.621460	0.617840
C381	C38	0.751120	0.697390	0.681370
C391	C39	0.657360	0.701240	0.759240
C401	C40	0.614090	0.766710	0.824310
C411	C41	0.665370	0.826710	0.812350
C421	C42	0.760830	0.827430	0.729710
C431	C43	0.813370	0.892630	0.710230
C441	C44	0.901500	0.892500	0.629900
C451	C45	0.944110	0.828770	0.565010
C461	C46	0.896120	0.766400	0.579760
C471	C47	0.805120	0.762180	0.662580
C481	C48	0.612910	0.891490	0.890090
C491	C49	0.164910	0.878540	0.117840
C501	C50	0.198510	0.802610	0.181370
C511	C51	0.108600	0.798760	0.259240
C521	C52	0.130800	0.733290	0.324310
C531	C53	0.242080	0.673290	0.312350
C541	C54	0.338260	0.672570	0.229710
C551	C55	0.456000	0.607370	0.210230
C561	C56	0.544000	0.607500	0.129900
C571	C57	0.522880	0.671230	0.065010
C581	C58	0.412520	0.733600	0.079760
C591	C59	0.317300	0.737820	0.162580
C601	C60	0.254400	0.608510	0.390090
C611	C61	0.161290	0.121460	0.882160
C621	C62	0.182490	0.197390	0.818630
C631	C63	0.166600	0.201240	0.740760
C641	C64	0.188400	0.266710	0.675690
C651	C65	0.227720	0.326710	0.687650
C661	C66	0.240540	0.327430	0.770290
C671	C67	0.273600	0.392630	0.789770
C681	C68	0.281400	0.392500	0.870100
C691	C69	0.259120	0.328770	0.934990
C701	C70	0.225880	0.266400	0.920240
C711	C71	0.217700	0.262180	0.837420
C721	C72	0.253000	0.391490	0.609910
C731	C73	0.293450	0.617840	0.621460
C741	C74	0.251120	0.681370	0.697390
C751	C75	0.157360	0.759240	0.701240
C761	C76	0.114090	0.824310	0.766710
C771	C77	0.165370	0.812350	0.826710
C781	C78	0.260830	0.729710	0.827430
C791	C79	0.313370	0.710230	0.892630
C801	C80	0.401500	0.629900	0.892500
C811	C81	0.444110	0.565010	0.828770
C821	C82	0.396120	0.579760	0.766400
C831	C83	0.305120	0.662580	0.762180
C841	C84	0.112910	0.890090	0.891490
C851	C85	0.532750	0.382160	0.378540
C861	C86	0.629880	0.318630	0.302610
C871	C87	0.617840	0.240760	0.298760
C881	C88	0.705110	0.175690	0.233290
C891	C89	0.804430	0.187650	0.173290
C901	C90	0.817970	0.270290	0.172570
C911	C91	0.916230	0.289770	0.107370
C921	C92	0.923900	0.370100	0.107500
C931	C93	0.837890	0.434990	0.171230
C941	C94	0.742280	0.420240	0.233600
C951	C95	0.729880	0.337420	0.237820
C961	C96	0.894490	0.109910	0.108510
O11	O1	0.579030	0.889490	0.100050
O21	O2	0.727550	0.926200	0.081800
O31	O3	0.837830	0.596640	0.415500
O41	O4	0.690240	0.565130	0.415990
O51	O5	0.568570	0.110510	0.899950
O61	O6	0.735550	0.073800	0.918200
O71	O7	0.849970	0.403360	0.584500
O81	O8	0.671360	0.434870	0.584010
O91	O9	0.929080	0.399950	0.389490
O101	O10	0.059350	0.418200	0.426200
O111	O11	0.503330	0.084500	0.096640
O121	O12	0.356230	0.084010	0.065130
O131	O13	0.718520	0.600050	0.610510
O141	O14	0.903750	0.581800	0.573800
O151	O15	0.684470	0.915500	0.903360
O161	O16	0.505370	0.915990	0.934870
O171	O17	0.068570	0.899950	0.110510
O181	O18	0.235550	0.918200	0.073800
O191	O19	0.349970	0.584500	0.403360
O201	O20	0.171360	0.584010	0.434870
O211	O21	0.079030	0.100050	0.889490
O221	O22	0.227550	0.081800	0.926200
O231	O23	0.337830	0.415500	0.596640
O241	O24	0.190240	0.415990	0.565130
O251	O25	0.218520	0.610510	0.600050
O261	O26	0.403750	0.573800	0.581800
O271	O27	0.184470	0.903360	0.915500
O281	O28	0.005370	0.934870	0.915990
O291	O29	0.429080	0.389490	0.399950
O301	O30	0.559350	0.426200	0.418200
O311	O31	0.003330	0.096640	0.084500
O321	O32	0.856230	0.065130	0.084010
