data_PERSEM_clean_PM
_symmetry_space_group_name_H-M	'P1'
_cell_length_a	6.305700
_cell_length_b	8.352900
_cell_length_c	9.106400
_cell_angle_alpha	98.200000
_cell_angle_beta	91.280000
_cell_angle_gamma	103.200000
_symmetry_Int_Tables_number 1

loop_
_symmetry_equiv_pos_as_xyz
'x,y,z'

loop_
_atom_site_label
_atom_site_type_symbol
_atom_site_fract_x
_atom_site_fract_y
_atom_site_fract_z
U11	U1	0.500000	0.500000	0.000000
Zn11	Zn1	0.000000	0.500000	0.500000
H11	H1	0.593000	0.958000	0.255000
H21	H2	0.407000	0.042000	0.745000
C11	C1	0.132200	0.291200	0.229600
C21	C2	0.060300	0.136800	0.112700
C31	C3	0.773500	0.269000	0.018400
C41	C4	0.349700	0.020700	0.219000
C51	C5	0.171300	0.009200	0.103100
C61	C6	0.888300	0.127800	0.010400
C71	C7	0.867800	0.708800	0.770400
C81	C8	0.939700	0.863200	0.887300
C91	C9	0.226500	0.731000	0.981600
C101	C10	0.650300	0.979300	0.781000
C111	C11	0.828700	0.990800	0.896900
C121	C12	0.111700	0.872200	0.989600
O11	O1	0.351800	0.099500	0.342500
O21	O2	0.020000	0.299100	0.340650
O31	O3	0.495100	0.939400	0.175300
O41	O4	0.292600	0.401820	0.205540
O51	O5	0.645700	0.290200	0.118660
O61	O6	0.807200	0.365400	0.922940
O71	O7	0.648200	0.900500	0.657500
O81	O8	0.980000	0.700900	0.659350
O91	O9	0.504900	0.060600	0.824700
O101	O10	0.707400	0.598180	0.794460
O111	O11	0.354300	0.709800	0.881340
O121	O12	0.192800	0.634600	0.077060
