data_PEVFON_clean_PM
_symmetry_space_group_name_H-M	'P1'
_cell_length_a	16.994800
_cell_length_b	16.994800
_cell_length_c	16.994800
_cell_angle_alpha	90.000000
_cell_angle_beta	90.000000
_cell_angle_gamma	90.000000
_symmetry_Int_Tables_number 1

loop_
_symmetry_equiv_pos_as_xyz
'x,y,z'

loop_
_atom_site_label
_atom_site_type_symbol
_atom_site_fract_x
_atom_site_fract_y
_atom_site_fract_z
C11	C1	0.370270	0.900480	0.687760
N11	N1	0.412280	0.971710	0.681070
H11	H1	0.385700	0.864100	0.728400
H21	H2	0.431200	0.121800	0.634100
C21	C2	0.870270	0.400480	0.187760
N21	N2	0.912280	0.471710	0.181070
H31	H3	0.885700	0.364100	0.228400
H41	H4	0.931200	0.621800	0.134100
C31	C3	0.629730	0.099520	0.687760
N31	N3	0.587720	0.028290	0.681070
H51	H5	0.614300	0.135900	0.728400
H61	H6	0.568800	0.878200	0.634100
C41	C4	0.129730	0.599520	0.187760
N41	N4	0.087720	0.528290	0.181070
H71	H7	0.114300	0.635900	0.228400
H81	H8	0.068800	0.378200	0.134100
C51	C5	0.629730	0.900480	0.312240
N51	N5	0.587720	0.971710	0.318930
H91	H9	0.614300	0.864100	0.271600
H101	H10	0.568800	0.121800	0.365900
C61	C6	0.129730	0.400480	0.812240
N61	N6	0.087720	0.471710	0.818930
H111	H11	0.114300	0.364100	0.771600
H121	H12	0.068800	0.621800	0.865900
C71	C7	0.370270	0.099520	0.312240
N71	N7	0.412280	0.028290	0.318930
H131	H13	0.385700	0.135900	0.271600
H141	H14	0.431200	0.878200	0.365900
C81	C8	0.870270	0.599520	0.812240
N81	N8	0.912280	0.528290	0.818930
H151	H15	0.885700	0.635900	0.771600
H161	H16	0.931200	0.378200	0.865900
C91	C9	0.687760	0.370270	0.900480
N91	N9	0.681070	0.412280	0.971710
H171	H17	0.728400	0.385700	0.864100
H181	H18	0.634100	0.431200	0.121800
C101	C10	0.187760	0.870270	0.400480
N101	N10	0.181070	0.912280	0.471710
H191	H19	0.228400	0.885700	0.364100
H201	H20	0.134100	0.931200	0.621800
C111	C11	0.687760	0.629730	0.099520
N111	N11	0.681070	0.587720	0.028290
H211	H21	0.728400	0.614300	0.135900
H221	H22	0.634100	0.568800	0.878200
C121	C12	0.187760	0.129730	0.599520
N121	N12	0.181070	0.087720	0.528290
H231	H23	0.228400	0.114300	0.635900
H241	H24	0.134100	0.068800	0.378200
C131	C13	0.312240	0.629730	0.900480
N131	N13	0.318930	0.587720	0.971710
H251	H25	0.271600	0.614300	0.864100
H261	H26	0.365900	0.568800	0.121800
C141	C14	0.812240	0.129730	0.400480
N141	N14	0.818930	0.087720	0.471710
H271	H27	0.771600	0.114300	0.364100
H281	H28	0.865900	0.068800	0.621800
C151	C15	0.312240	0.370270	0.099520
N151	N15	0.318930	0.412280	0.028290
H291	H29	0.271600	0.385700	0.135900
H301	H30	0.365900	0.431200	0.878200
C161	C16	0.812240	0.870270	0.599520
N161	N16	0.818930	0.912280	0.528290
H311	H31	0.771600	0.885700	0.635900
H321	H32	0.865900	0.931200	0.378200
C171	C17	0.900480	0.687760	0.370270
N171	N17	0.971710	0.681070	0.412280
H331	H33	0.864100	0.728400	0.385700
H341	H34	0.121800	0.634100	0.431200
C181	C18	0.400480	0.187760	0.870270
N181	N18	0.471710	0.181070	0.912280
H351	H35	0.364100	0.228400	0.885700
H361	H36	0.621800	0.134100	0.931200
C191	C19	0.099520	0.687760	0.629730
N191	N19	0.028290	0.681070	0.587720
H371	H37	0.135900	0.728400	0.614300
H381	H38	0.878200	0.634100	0.568800
C201	C20	0.599520	0.187760	0.129730
N201	N20	0.528290	0.181070	0.087720
H391	H39	0.635900	0.228400	0.114300
H401	H40	0.378200	0.134100	0.068800
C211	C21	0.900480	0.312240	0.629730
N211	N21	0.971710	0.318930	0.587720
H411	H41	0.864100	0.271600	0.614300
H421	H42	0.121800	0.365900	0.568800
C221	C22	0.400480	0.812240	0.129730
N221	N22	0.471710	0.818930	0.087720
H431	H43	0.364100	0.771600	0.114300
H441	H44	0.621800	0.865900	0.068800
C231	C23	0.099520	0.312240	0.370270
N231	N23	0.028290	0.318930	0.412280
H451	H45	0.135900	0.271600	0.385700
H461	H46	0.878200	0.365900	0.431200
C241	C24	0.599520	0.812240	0.870270
N241	N24	0.528290	0.818930	0.912280
H471	H47	0.635900	0.771600	0.885700
H481	H48	0.378200	0.865900	0.931200
C251	C25	0.900480	0.370270	0.687760
N251	N25	0.971710	0.412280	0.681070
H491	H49	0.864100	0.385700	0.728400
H501	H50	0.121800	0.431200	0.634100
C261	C26	0.400480	0.870270	0.187760
N261	N26	0.471710	0.912280	0.181070
H511	H51	0.364100	0.885700	0.228400
H521	H52	0.621800	0.931200	0.134100
C271	C27	0.099520	0.629730	0.687760
N271	N27	0.028290	0.587720	0.681070
H531	H53	0.135900	0.614300	0.728400
H541	H54	0.878200	0.568800	0.634100
C281	C28	0.599520	0.129730	0.187760
N281	N28	0.528290	0.087720	0.181070
H551	H55	0.635900	0.114300	0.228400
H561	H56	0.378200	0.068800	0.134100
C291	C29	0.900480	0.629730	0.312240
N291	N29	0.971710	0.587720	0.318930
H571	H57	0.864100	0.614300	0.271600
H581	H58	0.121800	0.568800	0.365900
C301	C30	0.400480	0.129730	0.812240
N301	N30	0.471710	0.087720	0.818930
H591	H59	0.364100	0.114300	0.771600
H601	H60	0.621800	0.068800	0.865900
C311	C31	0.099520	0.370270	0.312240
N311	N31	0.028290	0.412280	0.318930
H611	H61	0.135900	0.385700	0.271600
H621	H62	0.878200	0.431200	0.365900
C321	C32	0.599520	0.870270	0.812240
N321	N32	0.528290	0.912280	0.818930
H631	H63	0.635900	0.885700	0.771600
H641	H64	0.378200	0.931200	0.865900
C331	C33	0.370270	0.687760	0.900480
N331	N33	0.412280	0.681070	0.971710
H651	H65	0.385700	0.728400	0.864100
H661	H66	0.431200	0.634100	0.121800
C341	C34	0.870270	0.187760	0.400480
N341	N34	0.912280	0.181070	0.471710
H671	H67	0.885700	0.228400	0.364100
H681	H68	0.931200	0.134100	0.621800
C351	C35	0.629730	0.687760	0.099520
N351	N35	0.587720	0.681070	0.028290
H691	H69	0.614300	0.728400	0.135900
H701	H70	0.568800	0.634100	0.878200
C361	C36	0.129730	0.187760	0.599520
N361	N36	0.087720	0.181070	0.528290
H711	H71	0.114300	0.228400	0.635900
H721	H72	0.068800	0.134100	0.378200
C371	C37	0.629730	0.312240	0.900480
N371	N37	0.587720	0.318930	0.971710
H731	H73	0.614300	0.271600	0.864100
H741	H74	0.568800	0.365900	0.121800
C381	C38	0.129730	0.812240	0.400480
N381	N38	0.087720	0.818930	0.471710
H751	H75	0.114300	0.771600	0.364100
H761	H76	0.068800	0.865900	0.621800
C391	C39	0.370270	0.312240	0.099520
N391	N39	0.412280	0.318930	0.028290
H771	H77	0.385700	0.271600	0.135900
H781	H78	0.431200	0.365900	0.878200
C401	C40	0.870270	0.812240	0.599520
N401	N40	0.912280	0.818930	0.528290
H791	H79	0.885700	0.771600	0.635900
H801	H80	0.931200	0.865900	0.378200
C411	C41	0.687760	0.900480	0.370270
N411	N41	0.681070	0.971710	0.412280
H811	H81	0.728400	0.864100	0.385700
H821	H82	0.634100	0.121800	0.431200
C421	C42	0.187760	0.400480	0.870270
N421	N42	0.181070	0.471710	0.912280
H831	H83	0.228400	0.364100	0.885700
H841	H84	0.134100	0.621800	0.931200
C431	C43	0.687760	0.099520	0.629730
N431	N43	0.681070	0.028290	0.587720
H851	H85	0.728400	0.135900	0.614300
H861	H86	0.634100	0.878200	0.568800
C441	C44	0.187760	0.599520	0.129730
N441	N44	0.181070	0.528290	0.087720
H871	H87	0.228400	0.635900	0.114300
H881	H88	0.134100	0.378200	0.068800
C451	C45	0.312240	0.900480	0.629730
N451	N45	0.318930	0.971710	0.587720
H891	H89	0.271600	0.864100	0.614300
H901	H90	0.365900	0.121800	0.568800
C461	C46	0.812240	0.400480	0.129730
N461	N46	0.818930	0.471710	0.087720
H911	H91	0.771600	0.364100	0.114300
H921	H92	0.865900	0.621800	0.068800
C471	C47	0.312240	0.099520	0.370270
N471	N47	0.318930	0.028290	0.412280
H931	H93	0.271600	0.135900	0.385700
H941	H94	0.365900	0.878200	0.431200
C481	C48	0.812240	0.599520	0.870270
N481	N48	0.818930	0.528290	0.912280
H951	H95	0.771600	0.635900	0.885700
H961	H96	0.865900	0.378200	0.931200
Zn11	Zn1	0.500000	0.000000	0.750000
Zn21	Zn2	0.500000	0.000000	0.250000
Zn31	Zn3	0.750000	0.500000	0.000000
Zn41	Zn4	0.250000	0.500000	0.000000
Zn51	Zn5	0.000000	0.750000	0.500000
Zn61	Zn6	0.000000	0.250000	0.500000
Zn71	Zn7	0.000000	0.500000	0.750000
Zn81	Zn8	0.000000	0.500000	0.250000
Zn91	Zn9	0.500000	0.750000	0.000000
Zn101	Zn10	0.500000	0.250000	0.000000
Zn111	Zn11	0.750000	0.000000	0.500000
Zn121	Zn12	0.250000	0.000000	0.500000
C491	C49	0.380790	0.015100	0.619210
C501	C50	0.408640	0.092370	0.591360
H971	H97	0.448030	0.084100	0.551970
C511	C51	0.880790	0.515100	0.119210
C521	C52	0.908640	0.592370	0.091360
H981	H98	0.948030	0.584100	0.051970
C531	C53	0.619210	0.984900	0.619210
C541	C54	0.591360	0.907630	0.591360
H991	H99	0.551970	0.915900	0.551970
C551	C55	0.119210	0.484900	0.119210
C561	C56	0.091360	0.407630	0.091360
H1001	H100	0.051970	0.415900	0.051970
C571	C57	0.619210	0.015100	0.380790
C581	C58	0.591360	0.092370	0.408640
H1011	H101	0.551970	0.084100	0.448030
C591	C59	0.119210	0.515100	0.880790
C601	C60	0.091360	0.592370	0.908640
H1021	H102	0.051970	0.584100	0.948030
C611	C61	0.380790	0.984900	0.380790
C621	C62	0.408640	0.907630	0.408640
H1031	H103	0.448030	0.915900	0.448030
C631	C63	0.880790	0.484900	0.880790
C641	C64	0.908640	0.407630	0.908640
H1041	H104	0.948030	0.415900	0.948030
C651	C65	0.619210	0.380790	0.015100
C661	C66	0.591360	0.408640	0.092370
H1051	H105	0.551970	0.448030	0.084100
C671	C67	0.119210	0.880790	0.515100
C681	C68	0.091360	0.908640	0.592370
H1061	H106	0.051970	0.948030	0.584100
C691	C69	0.619210	0.619210	0.984900
C701	C70	0.591360	0.591360	0.907630
H1071	H107	0.551970	0.551970	0.915900
C711	C71	0.119210	0.119210	0.484900
C721	C72	0.091360	0.091360	0.407630
H1081	H108	0.051970	0.051970	0.415900
C731	C73	0.380790	0.619210	0.015100
C741	C74	0.408640	0.591360	0.092370
H1091	H109	0.448030	0.551970	0.084100
C751	C75	0.880790	0.119210	0.515100
C761	C76	0.908640	0.091360	0.592370
H1101	H110	0.948030	0.051970	0.584100
C771	C77	0.380790	0.380790	0.984900
C781	C78	0.408640	0.408640	0.907630
H1111	H111	0.448030	0.448030	0.915900
C791	C79	0.880790	0.880790	0.484900
C801	C80	0.908640	0.908640	0.407630
H1121	H112	0.948030	0.948030	0.415900
C811	C81	0.015100	0.619210	0.380790
C821	C82	0.092370	0.591360	0.408640
H1131	H113	0.084100	0.551970	0.448030
C831	C83	0.515100	0.119210	0.880790
C841	C84	0.592370	0.091360	0.908640
H1141	H114	0.584100	0.051970	0.948030
C851	C85	0.984900	0.619210	0.619210
C861	C86	0.907630	0.591360	0.591360
H1151	H115	0.915900	0.551970	0.551970
C871	C87	0.484900	0.119210	0.119210
C881	C88	0.407630	0.091360	0.091360
H1161	H116	0.415900	0.051970	0.051970
C891	C89	0.015100	0.380790	0.619210
C901	C90	0.092370	0.408640	0.591360
H1171	H117	0.084100	0.448030	0.551970
C911	C91	0.515100	0.880790	0.119210
C921	C92	0.592370	0.908640	0.091360
H1181	H118	0.584100	0.948030	0.051970
C931	C93	0.984900	0.380790	0.380790
C941	C94	0.907630	0.408640	0.408640
H1191	H119	0.915900	0.448030	0.448030
C951	C95	0.484900	0.880790	0.880790
C961	C96	0.407630	0.908640	0.908640
H1201	H120	0.415900	0.948030	0.948030
