data_PEVQOY_clean_h_PM
_symmetry_space_group_name_H-M	'P1'
_cell_length_a	25.543000
_cell_length_b	25.543000
_cell_length_c	25.543000
_cell_angle_alpha	90.000000
_cell_angle_beta	90.000000
_cell_angle_gamma	90.000000
_symmetry_Int_Tables_number 1

loop_
_symmetry_equiv_pos_as_xyz
'x,y,z'

loop_
_atom_site_label
_atom_site_type_symbol
_atom_site_fract_x
_atom_site_fract_y
_atom_site_fract_z
Zn11	Zn1	0.793680	0.706320	0.293680
Zn21	Zn2	0.793680	0.206320	0.793680
Zn31	Zn3	0.206320	0.293680	0.293680
Zn41	Zn4	0.206320	0.793680	0.793680
Zn51	Zn5	0.206320	0.706320	0.706320
Zn61	Zn6	0.206320	0.206320	0.206320
Zn71	Zn7	0.793680	0.293680	0.706320
Zn81	Zn8	0.793680	0.793680	0.206320
Zn91	Zn9	0.293680	0.793680	0.706320
Zn101	Zn10	0.293680	0.206320	0.293680
Zn111	Zn11	0.706320	0.206320	0.706320
Zn121	Zn12	0.706320	0.793680	0.293680
Zn131	Zn13	0.706320	0.293680	0.793680
Zn141	Zn14	0.293680	0.293680	0.206320
Zn151	Zn15	0.706320	0.706320	0.206320
Zn161	Zn16	0.293680	0.706320	0.793680
Zn171	Zn17	0.706320	0.793680	0.706320
Zn181	Zn18	0.293680	0.206320	0.706320
Zn191	Zn19	0.706320	0.206320	0.293680
Zn201	Zn20	0.293680	0.793680	0.293680
Zn211	Zn21	0.793680	0.293680	0.293680
Zn221	Zn22	0.793680	0.793680	0.793680
Zn231	Zn23	0.206320	0.293680	0.706320
Zn241	Zn24	0.206320	0.793680	0.206320
Zn251	Zn25	0.206320	0.706320	0.293680
Zn261	Zn26	0.206320	0.206320	0.793680
Zn271	Zn27	0.793680	0.706320	0.706320
Zn281	Zn28	0.793680	0.206320	0.206320
Zn291	Zn29	0.293680	0.706320	0.206320
Zn301	Zn30	0.293680	0.293680	0.793680
Zn311	Zn31	0.706320	0.706320	0.793680
Zn321	Zn32	0.706320	0.293680	0.206320
O331	O33	0.782400	0.634300	0.282400
C341	C34	0.722300	0.523800	0.222300
O351	O35	0.782400	0.134300	0.782400
C361	C36	0.722300	0.023800	0.722300
O371	O37	0.217600	0.365700	0.282400
C381	C38	0.277700	0.476200	0.222300
O391	O39	0.217600	0.865700	0.782400
C401	C40	0.277700	0.976200	0.722300
O411	O41	0.717600	0.365700	0.782400
C421	C42	0.777700	0.476200	0.722300
O431	O43	0.217600	0.634300	0.717600
C441	C44	0.277700	0.523800	0.777700
O451	O45	0.217600	0.134300	0.217600
C461	C46	0.277700	0.023800	0.277700
O471	O47	0.717600	0.134300	0.717600
C481	C48	0.777700	0.023800	0.777700
O491	O49	0.782400	0.365700	0.717600
C501	C50	0.722300	0.476200	0.777700
O511	O51	0.782400	0.865700	0.217600
C521	C52	0.722300	0.976200	0.277700
O531	O53	0.282400	0.782400	0.634300
C541	C54	0.222300	0.722300	0.523800
O551	O55	0.282400	0.282400	0.134300
C561	C56	0.222300	0.222300	0.023800
O571	O57	0.782400	0.782400	0.134300
C581	C58	0.722300	0.722300	0.023800
O591	O59	0.282400	0.217600	0.365700
C601	C60	0.222300	0.277700	0.476200
O611	O61	0.282400	0.717600	0.865700
C621	C62	0.222300	0.777700	0.976200
O631	O63	0.782400	0.717600	0.365700
C641	C64	0.722300	0.777700	0.476200
O651	O65	0.717600	0.217600	0.634300
C661	C66	0.777700	0.277700	0.523800
O671	O67	0.717600	0.717600	0.134300
C681	C68	0.777700	0.777700	0.023800
O691	O69	0.717600	0.782400	0.365700
C701	C70	0.777700	0.722300	0.476200
O711	O71	0.717600	0.282400	0.865700
C721	C72	0.777700	0.222300	0.976200
O731	O73	0.634300	0.282400	0.782400
C741	C74	0.523800	0.222300	0.722300
O751	O75	0.134300	0.282400	0.282400
C761	C76	0.023800	0.222300	0.222300
O771	O77	0.134300	0.782400	0.782400
C781	C78	0.023800	0.722300	0.722300
O791	O79	0.365700	0.282400	0.217600
C801	C80	0.476200	0.222300	0.277700
O811	O81	0.365700	0.782400	0.717600
C821	C82	0.476200	0.722300	0.777700
O831	O83	0.865700	0.282400	0.717600
C841	C84	0.976200	0.222300	0.777700
O851	O85	0.634300	0.717600	0.217600
C861	C86	0.523800	0.777700	0.277700
O871	O87	0.134300	0.717600	0.717600
C881	C88	0.023800	0.777700	0.777700
O891	O89	0.365700	0.717600	0.782400
C901	C90	0.476200	0.777700	0.722300
O911	O91	0.865700	0.717600	0.282400
C921	C92	0.976200	0.777700	0.222300
O931	O93	0.634300	0.782400	0.717600
C941	C94	0.523800	0.722300	0.777700
O951	O95	0.134300	0.782400	0.217600
C961	C96	0.023800	0.722300	0.277700
O971	O97	0.365700	0.217600	0.717600
C981	C98	0.476200	0.277700	0.777700
O991	O99	0.865700	0.217600	0.217600
C1001	C100	0.976200	0.277700	0.277700
O1011	O101	0.865700	0.717600	0.717600
C1021	C102	0.976200	0.777700	0.777700
O1031	O103	0.634300	0.217600	0.282400
C1041	C104	0.523800	0.277700	0.222300
O1051	O105	0.634300	0.717600	0.782400
C1061	C106	0.523800	0.777700	0.722300
O1071	O107	0.134300	0.217600	0.782400
C1081	C108	0.023800	0.277700	0.722300
O1091	O109	0.365700	0.782400	0.282400
C1101	C110	0.476200	0.722300	0.222300
O1111	O111	0.865700	0.782400	0.782400
C1121	C112	0.976200	0.722300	0.722300
O1131	O113	0.782400	0.282400	0.365700
C1141	C114	0.722300	0.222300	0.476200
O1151	O115	0.782400	0.782400	0.865700
C1161	C116	0.722300	0.722300	0.976200
O1171	O117	0.217600	0.282400	0.634300
C1181	C118	0.277700	0.222300	0.523800
O1191	O119	0.217600	0.782400	0.134300
C1201	C120	0.277700	0.722300	0.023800
O1211	O121	0.717600	0.782400	0.634300
C1221	C122	0.777700	0.722300	0.523800
O1231	O123	0.217600	0.717600	0.365700
C1241	C124	0.277700	0.777700	0.476200
O1251	O125	0.217600	0.217600	0.865700
C1261	C126	0.277700	0.277700	0.976200
O1271	O127	0.717600	0.717600	0.865700
C1281	C128	0.777700	0.777700	0.976200
O1291	O129	0.782400	0.717600	0.634300
C1301	C130	0.722300	0.777700	0.523800
O1311	O131	0.782400	0.217600	0.134300
C1321	C132	0.722300	0.277700	0.023800
O1331	O133	0.282400	0.634300	0.217600
C1341	C134	0.222300	0.523800	0.277700
O1351	O135	0.282400	0.134300	0.717600
C1361	C136	0.222300	0.023800	0.777700
O1371	O137	0.782400	0.634300	0.717600
C1381	C138	0.722300	0.523800	0.777700
O1391	O139	0.282400	0.365700	0.782400
C1401	C140	0.222300	0.476200	0.722300
O1411	O141	0.282400	0.865700	0.282400
C1421	C142	0.222300	0.976200	0.222300
O1431	O143	0.782400	0.865700	0.782400
C1441	C144	0.722300	0.976200	0.722300
O1451	O145	0.717600	0.634300	0.782400
C1461	C146	0.777700	0.523800	0.722300
O1471	O147	0.717600	0.134300	0.282400
C1481	C148	0.777700	0.023800	0.222300
O1491	O149	0.717600	0.365700	0.217600
C1501	C150	0.777700	0.476200	0.277700
O1511	O151	0.717600	0.865700	0.717600
C1521	C152	0.777700	0.976200	0.777700
O1531	O153	0.217600	0.365700	0.717600
C1541	C154	0.277700	0.476200	0.777700
O1551	O155	0.217600	0.865700	0.217600
C1561	C156	0.277700	0.976200	0.277700
O1571	O157	0.782400	0.134300	0.217600
C1581	C158	0.722300	0.023800	0.277700
O1591	O159	0.782400	0.365700	0.282400
C1601	C160	0.722300	0.476200	0.222300
O1611	O161	0.217600	0.634300	0.282400
C1621	C162	0.277700	0.523800	0.222300
O1631	O163	0.217600	0.134300	0.782400
C1641	C164	0.277700	0.023800	0.722300
O1651	O165	0.717600	0.217600	0.365700
C1661	C166	0.777700	0.277700	0.476200
O1671	O167	0.717600	0.282400	0.134300
C1681	C168	0.777700	0.222300	0.023800
O1691	O169	0.282400	0.782400	0.365700
C1701	C170	0.222300	0.722300	0.476200
O1711	O171	0.282400	0.282400	0.865700
C1721	C172	0.222300	0.222300	0.976200
O1731	O173	0.282400	0.217600	0.634300
C1741	C174	0.222300	0.277700	0.523800
O1751	O175	0.282400	0.717600	0.134300
C1761	C176	0.222300	0.777700	0.023800
O1771	O177	0.365700	0.717600	0.217600
C1781	C178	0.476200	0.777700	0.277700
O1791	O179	0.134300	0.717600	0.282400
C1801	C180	0.023800	0.777700	0.222300
O1811	O181	0.365700	0.282400	0.782400
C1821	C182	0.476200	0.222300	0.722300
O1831	O183	0.865700	0.282400	0.282400
C1841	C184	0.976200	0.222300	0.222300
O1851	O185	0.634300	0.282400	0.217600
C1861	C186	0.523800	0.222300	0.277700
O1871	O187	0.134300	0.282400	0.717600
C1881	C188	0.023800	0.222300	0.777700
O1891	O189	0.365700	0.217600	0.282400
C1901	C190	0.476200	0.277700	0.222300
O1911	O191	0.865700	0.217600	0.782400
C1921	C192	0.976200	0.277700	0.722300
O1931	O193	0.634300	0.782400	0.282400
C1941	C194	0.523800	0.722300	0.222300
O1951	O195	0.865700	0.782400	0.217600
C1961	C196	0.976200	0.722300	0.277700
O1971	O197	0.634300	0.217600	0.717600
C1981	C198	0.523800	0.277700	0.777700
O1991	O199	0.134300	0.217600	0.217600
C2001	C200	0.023800	0.277700	0.277700
O2011	O201	0.217600	0.717600	0.634300
C2021	C202	0.277700	0.777700	0.523800
O2031	O203	0.217600	0.217600	0.134300
C2041	C204	0.277700	0.277700	0.023800
O2051	O205	0.782400	0.217600	0.865700
C2061	C206	0.722300	0.277700	0.976200
O2071	O207	0.782400	0.282400	0.634300
C2081	C208	0.722300	0.222300	0.523800
O2091	O209	0.217600	0.282400	0.365700
C2101	C210	0.277700	0.222300	0.476200
O2111	O211	0.217600	0.782400	0.865700
C2121	C212	0.277700	0.722300	0.976200
O2131	O213	0.717600	0.865700	0.282400
C2141	C214	0.777700	0.976200	0.222300
O2151	O215	0.717600	0.634300	0.217600
C2161	C216	0.777700	0.523800	0.277700
O2171	O217	0.282400	0.365700	0.217600
C2181	C218	0.222300	0.476200	0.277700
O2191	O219	0.282400	0.865700	0.717600
C2201	C220	0.222300	0.976200	0.777700
O2211	O221	0.282400	0.634300	0.782400
C2221	C222	0.222300	0.523800	0.722300
O2231	O223	0.282400	0.134300	0.282400
C2241	C224	0.222300	0.023800	0.222300
O2251	O225	0.750000	0.750000	0.250000
O2261	O226	0.250000	0.250000	0.250000
O2271	O227	0.250000	0.750000	0.750000
O2281	O228	0.750000	0.250000	0.750000
O2291	O229	0.750000	0.750000	0.750000
O2301	O230	0.250000	0.250000	0.750000
O2311	O231	0.750000	0.250000	0.250000
O2321	O232	0.250000	0.750000	0.250000
C2331	C233	0.750000	0.612600	0.250000
C2341	C234	0.750000	0.555200	0.250000
C2351	C235	0.750000	0.112600	0.750000
C2361	C236	0.750000	0.055200	0.750000
C2371	C237	0.250000	0.387400	0.250000
C2381	C238	0.250000	0.444800	0.250000
C2391	C239	0.250000	0.887400	0.750000
C2401	C240	0.250000	0.944800	0.750000
C2411	C241	0.250000	0.612600	0.750000
C2421	C242	0.250000	0.555200	0.750000
C2431	C243	0.250000	0.112600	0.250000
C2441	C244	0.250000	0.055200	0.250000
C2451	C245	0.750000	0.387400	0.750000
C2461	C246	0.750000	0.444800	0.750000
C2471	C247	0.750000	0.887400	0.250000
C2481	C248	0.750000	0.944800	0.250000
C2491	C249	0.250000	0.750000	0.612600
C2501	C250	0.250000	0.750000	0.555200
C2511	C251	0.250000	0.250000	0.112600
C2521	C252	0.250000	0.250000	0.055200
C2531	C253	0.250000	0.250000	0.387400
C2541	C254	0.250000	0.250000	0.444800
C2551	C255	0.250000	0.750000	0.887400
C2561	C256	0.250000	0.750000	0.944800
C2571	C257	0.750000	0.250000	0.612600
C2581	C258	0.750000	0.250000	0.555200
C2591	C259	0.750000	0.750000	0.112600
C2601	C260	0.750000	0.750000	0.055200
C2611	C261	0.750000	0.750000	0.387400
C2621	C262	0.750000	0.750000	0.444800
C2631	C263	0.750000	0.250000	0.887400
C2641	C264	0.750000	0.250000	0.944800
C2651	C265	0.612600	0.250000	0.750000
C2661	C266	0.555200	0.250000	0.750000
C2671	C267	0.112600	0.250000	0.250000
C2681	C268	0.055200	0.250000	0.250000
C2691	C269	0.387400	0.250000	0.250000
C2701	C270	0.444800	0.250000	0.250000
C2711	C271	0.887400	0.250000	0.750000
C2721	C272	0.944800	0.250000	0.750000
C2731	C273	0.612600	0.750000	0.250000
C2741	C274	0.555200	0.750000	0.250000
C2751	C275	0.112600	0.750000	0.750000
C2761	C276	0.055200	0.750000	0.750000
C2771	C277	0.387400	0.750000	0.750000
C2781	C278	0.444800	0.750000	0.750000
C2791	C279	0.887400	0.750000	0.250000
C2801	C280	0.944800	0.750000	0.250000
C2811	C281	0.612600	0.750000	0.750000
C2821	C282	0.555200	0.750000	0.750000
C2831	C283	0.112600	0.750000	0.250000
C2841	C284	0.055200	0.750000	0.250000
C2851	C285	0.387400	0.250000	0.750000
C2861	C286	0.444800	0.250000	0.750000
C2871	C287	0.887400	0.250000	0.250000
C2881	C288	0.944800	0.250000	0.250000
C2891	C289	0.612600	0.250000	0.250000
C2901	C290	0.555200	0.250000	0.250000
C2911	C291	0.112600	0.250000	0.750000
C2921	C292	0.055200	0.250000	0.750000
C2931	C293	0.387400	0.750000	0.250000
C2941	C294	0.444800	0.750000	0.250000
C2951	C295	0.887400	0.750000	0.750000
C2961	C296	0.944800	0.750000	0.750000
C2971	C297	0.750000	0.250000	0.387400
C2981	C298	0.750000	0.250000	0.444800
C2991	C299	0.750000	0.750000	0.887400
C3001	C300	0.750000	0.750000	0.944800
C3011	C301	0.250000	0.250000	0.612600
C3021	C302	0.250000	0.250000	0.555200
C3031	C303	0.250000	0.750000	0.112600
C3041	C304	0.250000	0.750000	0.055200
C3051	C305	0.250000	0.750000	0.387400
C3061	C306	0.250000	0.750000	0.444800
C3071	C307	0.250000	0.250000	0.887400
C3081	C308	0.250000	0.250000	0.944800
C3091	C309	0.750000	0.750000	0.612600
C3101	C310	0.750000	0.750000	0.555200
C3111	C311	0.750000	0.250000	0.112600
C3121	C312	0.750000	0.250000	0.055200
C3131	C313	0.250000	0.612600	0.250000
C3141	C314	0.250000	0.555200	0.250000
C3151	C315	0.250000	0.112600	0.750000
C3161	C316	0.250000	0.055200	0.750000
C3171	C317	0.250000	0.387400	0.750000
C3181	C318	0.250000	0.444800	0.750000
C3191	C319	0.250000	0.887400	0.250000
C3201	C320	0.250000	0.944800	0.250000
C3211	C321	0.750000	0.612600	0.750000
C3221	C322	0.750000	0.555200	0.750000
C3231	C323	0.750000	0.112600	0.250000
C3241	C324	0.750000	0.055200	0.250000
C3251	C325	0.750000	0.387400	0.250000
C3261	C326	0.750000	0.444800	0.250000
C3271	C327	0.750000	0.887400	0.750000
C3281	C328	0.750000	0.944800	0.750000
H3291	H329	0.692890	0.540000	0.192890
H3301	H330	0.692890	0.040000	0.692890
H3311	H331	0.307110	0.460000	0.192890
H3321	H332	0.307110	0.960000	0.692890
H3331	H333	0.807110	0.460000	0.692890
H3341	H334	0.307110	0.540000	0.807110
H3351	H335	0.307110	0.040000	0.307110
H3361	H336	0.807110	0.040000	0.807110
H3371	H337	0.692890	0.460000	0.807110
H3381	H338	0.692890	0.960000	0.307110
H3391	H339	0.192890	0.692890	0.540000
H3401	H340	0.192890	0.192890	0.040000
H3411	H341	0.692890	0.692890	0.040000
H3421	H342	0.192890	0.307110	0.460000
H3431	H343	0.192890	0.807110	0.960000
H3441	H344	0.692890	0.807110	0.460000
H3451	H345	0.807110	0.307110	0.540000
H3461	H346	0.807110	0.807110	0.040000
H3471	H347	0.807110	0.692890	0.460000
H3481	H348	0.807110	0.192890	0.960000
H3491	H349	0.540000	0.192890	0.692890
H3501	H350	0.040000	0.192890	0.192890
H3511	H351	0.040000	0.692890	0.692890
H3521	H352	0.460000	0.192890	0.307110
H3531	H353	0.460000	0.692890	0.807110
H3541	H354	0.960000	0.192890	0.807110
H3551	H355	0.540000	0.807110	0.307110
H3561	H356	0.040000	0.807110	0.807110
H3571	H357	0.460000	0.807110	0.692890
H3581	H358	0.960000	0.807110	0.192890
H3591	H359	0.540000	0.692890	0.807110
H3601	H360	0.040000	0.692890	0.307110
H3611	H361	0.460000	0.307110	0.807110
H3621	H362	0.960000	0.307110	0.307110
H3631	H363	0.960000	0.807110	0.807110
H3641	H364	0.540000	0.307110	0.192890
H3651	H365	0.540000	0.807110	0.692890
H3661	H366	0.040000	0.307110	0.692890
H3671	H367	0.460000	0.692890	0.192890
H3681	H368	0.960000	0.692890	0.692890
H3691	H369	0.692890	0.192890	0.460000
H3701	H370	0.692890	0.692890	0.960000
H3711	H371	0.307110	0.192890	0.540000
H3721	H372	0.307110	0.692890	0.040000
H3731	H373	0.807110	0.692890	0.540000
H3741	H374	0.307110	0.807110	0.460000
H3751	H375	0.307110	0.307110	0.960000
H3761	H376	0.807110	0.807110	0.960000
H3771	H377	0.692890	0.807110	0.540000
H3781	H378	0.692890	0.307110	0.040000
H3791	H379	0.192890	0.540000	0.307110
H3801	H380	0.192890	0.040000	0.807110
H3811	H381	0.692890	0.540000	0.807110
H3821	H382	0.192890	0.460000	0.692890
H3831	H383	0.192890	0.960000	0.192890
H3841	H384	0.692890	0.960000	0.692890
H3851	H385	0.807110	0.540000	0.692890
H3861	H386	0.807110	0.040000	0.192890
H3871	H387	0.807110	0.460000	0.307110
H3881	H388	0.807110	0.960000	0.807110
H3891	H389	0.307110	0.460000	0.807110
H3901	H390	0.307110	0.960000	0.307110
H3911	H391	0.692890	0.040000	0.307110
H3921	H392	0.692890	0.460000	0.192890
H3931	H393	0.307110	0.540000	0.192890
H3941	H394	0.307110	0.040000	0.692890
H3951	H395	0.807110	0.307110	0.460000
H3961	H396	0.807110	0.192890	0.040000
H3971	H397	0.192890	0.692890	0.460000
H3981	H398	0.192890	0.192890	0.960000
H3991	H399	0.192890	0.307110	0.540000
H4001	H400	0.192890	0.807110	0.040000
H4011	H401	0.460000	0.807110	0.307110
H4021	H402	0.040000	0.807110	0.192890
H4031	H403	0.460000	0.192890	0.692890
H4041	H404	0.960000	0.192890	0.192890
H4051	H405	0.540000	0.192890	0.307110
H4061	H406	0.040000	0.192890	0.807110
H4071	H407	0.460000	0.307110	0.192890
H4081	H408	0.960000	0.307110	0.692890
H4091	H409	0.540000	0.692890	0.192890
H4101	H410	0.960000	0.692890	0.307110
H4111	H411	0.540000	0.307110	0.807110
H4121	H412	0.040000	0.307110	0.307110
H4131	H413	0.307110	0.807110	0.540000
H4141	H414	0.307110	0.307110	0.040000
H4151	H415	0.692890	0.307110	0.960000
H4161	H416	0.692890	0.192890	0.540000
H4171	H417	0.307110	0.192890	0.460000
H4181	H418	0.307110	0.692890	0.960000
H4191	H419	0.807110	0.960000	0.192890
H4201	H420	0.807110	0.540000	0.307110
H4211	H421	0.192890	0.460000	0.307110
H4221	H422	0.192890	0.960000	0.807110
H4231	H423	0.192890	0.540000	0.692890
H4241	H424	0.192890	0.040000	0.192890
