data_PEVZAT_clean_PM
_symmetry_space_group_name_H-M	'P1'
_cell_length_a	7.316700
_cell_length_b	9.620200
_cell_length_c	11.395700
_cell_angle_alpha	96.914300
_cell_angle_beta	90.000000
_cell_angle_gamma	112.351000
_symmetry_Int_Tables_number 1

loop_
_symmetry_equiv_pos_as_xyz
'x,y,z'

loop_
_atom_site_label
_atom_site_type_symbol
_atom_site_fract_x
_atom_site_fract_y
_atom_site_fract_z
Co11	Co1	0.941340	0.502300	0.996500
Co21	Co2	0.439040	0.497700	0.003500
H11	H1	0.934100	0.293800	0.768500
H21	H2	0.928000	0.286400	0.564400
H31	H3	0.950000	0.716600	0.608200
H41	H4	0.944100	0.709200	0.811300
H51	H5	0.126300	0.718400	0.229400
H61	H6	0.128500	0.723800	0.432900
H71	H7	0.755000	0.282400	0.385800
H81	H8	0.766000	0.289200	0.183200
H91	H9	0.326200	0.997000	0.102000
H101	H10	0.578000	0.978000	0.193700
H111	H11	0.640300	0.706200	0.231500
H121	H12	0.641600	0.713600	0.435600
H131	H13	0.233400	0.283400	0.391800
H141	H14	0.234900	0.290800	0.188700
H151	H15	0.407900	0.281600	0.770600
H161	H16	0.404700	0.276200	0.567100
H171	H17	0.472600	0.717600	0.614200
H181	H18	0.476800	0.710800	0.816800
H191	H19	0.329200	0.003000	0.898000
H201	H20	0.600000	0.022000	0.806300
C11	C1	0.936030	0.380260	0.735400
C21	C2	0.934760	0.375520	0.613400
C31	C3	0.943440	0.502880	0.563400
C41	C4	0.946220	0.628240	0.639100
C51	C5	0.943440	0.623080	0.760500
C61	C6	0.049780	0.628760	0.261800
C71	C7	0.052400	0.632800	0.383600
C81	C8	0.943210	0.503220	0.433600
C91	C9	0.833340	0.373480	0.355900
C101	C10	0.839620	0.378840	0.234800
C111	C11	0.338040	0.790080	0.032000
C121	C12	0.425310	0.965220	0.058300
C131	C13	0.555770	0.619740	0.264600
C141	C14	0.559240	0.624480	0.386600
C151	C15	0.440560	0.497120	0.436600
C161	C16	0.317980	0.371760	0.360900
C171	C17	0.320360	0.376920	0.239500
C181	C18	0.421020	0.371240	0.738200
C191	C19	0.419600	0.367200	0.616400
C201	C20	0.439990	0.496780	0.566400
C211	C21	0.459860	0.626520	0.644100
C221	C22	0.460780	0.621160	0.765200
C231	C23	0.547960	0.209920	0.968000
C241	C24	0.460090	0.034780	0.941700
N11	N1	0.939710	0.501820	0.809160
N21	N2	0.944500	0.504400	0.187080
N31	N3	0.437890	0.498180	0.190840
N41	N4	0.440100	0.495600	0.812920
O11	O1	0.152160	0.730120	0.009700
O21	O2	0.455120	0.725240	0.035000
O31	O3	0.601070	0.017540	0.130700
O41	O4	0.422040	0.269880	0.990300
O51	O5	0.729880	0.274760	0.965000
O61	O6	0.583530	0.982460	0.869300
F11	F1	0.141900	0.405400	0.990200
F21	F2	0.736500	0.594600	0.009800
