data_PEWFII01_clean_PM
_symmetry_space_group_name_H-M	'P1'
_cell_length_a	7.116200
_cell_length_b	7.235300
_cell_length_c	9.213900
_cell_angle_alpha	95.361000
_cell_angle_beta	91.219000
_cell_angle_gamma	114.929000
_symmetry_Int_Tables_number 1

loop_
_symmetry_equiv_pos_as_xyz
'x,y,z'

loop_
_atom_site_label
_atom_site_type_symbol
_atom_site_fract_x
_atom_site_fract_y
_atom_site_fract_z
O11	O1	0.777700	0.015300	0.354100
O21	O2	0.239600	0.099500	0.378000
O31	O3	0.415700	0.983200	0.234300
O41	O4	0.989500	0.336700	0.313700
C11	C1	0.271100	0.040100	0.250800
C21	C2	0.132300	0.024100	0.122200
C31	C3	0.172400	0.958500	0.984500
H11	H1	0.288500	0.931600	0.973900
C41	C4	0.958400	0.067600	0.137500
C51	C5	0.906300	0.144900	0.282500
O51	O5	0.222300	0.984700	0.645900
O61	O6	0.760400	0.900500	0.622000
O71	O7	0.584300	0.016800	0.765700
O81	O8	0.010500	0.663300	0.686300
C61	C6	0.728900	0.959900	0.749200
C71	C7	0.867700	0.975900	0.877800
C81	C8	0.827600	0.041500	0.015500
H21	H2	0.711500	0.068400	0.026100
C91	C9	0.041600	0.932400	0.862500
C101	C10	0.093700	0.855100	0.717500
U11	U1	0.500000	0.000000	0.500000
Cu11	Cu1	0.000000	0.500000	0.500000
