data_PEWFII_clean_PM
_symmetry_space_group_name_H-M	'P1'
_cell_length_a	7.107000
_cell_length_b	7.223400
_cell_length_c	9.205000
_cell_angle_alpha	95.377000
_cell_angle_beta	91.256000
_cell_angle_gamma	114.893000
_symmetry_Int_Tables_number 1

loop_
_symmetry_equiv_pos_as_xyz
'x,y,z'

loop_
_atom_site_label
_atom_site_type_symbol
_atom_site_fract_x
_atom_site_fract_y
_atom_site_fract_z
U11	U1	0.500000	0.500000	0.500000
Cu11	Cu1	0.000000	0.000000	0.500000
H11	H1	0.288600	0.431400	0.973200
H21	H2	0.711400	0.568600	0.026800
C11	C1	0.041400	0.432800	0.862390
C21	C2	0.093800	0.355100	0.718160
C31	C3	0.867800	0.475300	0.877640
C41	C4	0.172500	0.458500	0.983970
C51	C5	0.729900	0.460900	0.748620
C61	C6	0.958600	0.567200	0.137610
C71	C7	0.906200	0.644900	0.281840
C81	C8	0.132200	0.524700	0.122360
C91	C9	0.827500	0.541500	0.016030
C101	C10	0.270100	0.539100	0.251380
O11	O1	0.222100	0.485180	0.646320
O21	O2	0.760300	0.400700	0.622120
O31	O3	0.010200	0.163130	0.686250
O41	O4	0.584300	0.517300	0.765750
O51	O5	0.777900	0.514820	0.353680
O61	O6	0.239700	0.599300	0.377880
O71	O7	0.989800	0.836870	0.313750
O81	O8	0.415700	0.482700	0.234250
