data_PEWXUL_clean_PM
_symmetry_space_group_name_H-M	'P1'
_cell_length_a	8.632000
_cell_length_b	13.520400
_cell_length_c	13.520400
_cell_angle_alpha	95.335700
_cell_angle_beta	96.975800
_cell_angle_gamma	96.975800
_symmetry_Int_Tables_number 1

loop_
_symmetry_equiv_pos_as_xyz
'x,y,z'

loop_
_atom_site_label
_atom_site_type_symbol
_atom_site_fract_x
_atom_site_fract_y
_atom_site_fract_z
Ni11	Ni1	0.750000	0.677310	0.322690
H11	H1	0.508700	0.602000	0.133800
H21	H2	0.487300	0.601300	0.960500
H31	H3	0.926500	0.756000	0.996000
H41	H4	0.936400	0.751300	0.167700
H51	H5	0.612100	0.708500	0.822300
H61	H6	0.666300	0.603100	0.817700
H71	H7	0.675000	0.812900	0.500100
H81	H8	0.707500	0.829800	0.676000
H91	H9	0.920800	0.578600	0.671400
H101	H10	0.899400	0.573200	0.498200
H111	H11	0.865800	0.779700	0.833300
H121	H12	0.919900	0.674300	0.828500
H131	H13	0.991300	0.866200	0.398000
H141	H14	0.012700	0.039500	0.398700
H151	H15	0.573500	0.004000	0.244000
H161	H16	0.563600	0.832300	0.248700
H171	H17	0.887900	0.177700	0.291500
H181	H18	0.833700	0.182300	0.396900
H191	H19	0.825000	0.499900	0.187100
H201	H20	0.792500	0.324000	0.170200
H211	H21	0.579200	0.328600	0.421400
H221	H22	0.600600	0.501800	0.426800
H231	H23	0.634200	0.166700	0.220300
H241	H24	0.580100	0.171500	0.325700
C11	C1	0.595500	0.633100	0.104900
C21	C2	0.583600	0.632600	0.002600
C31	C3	0.706200	0.677000	0.958800
C41	C4	0.838800	0.722800	0.022600
C51	C5	0.844500	0.719600	0.124800
C61	C6	0.695200	0.674200	0.845800
C71	C7	0.855400	0.625500	0.534500
C81	C8	0.869300	0.629100	0.638300
C91	C9	0.815800	0.704500	0.693100
C101	C10	0.744900	0.773800	0.640200
C111	C11	0.728300	0.764200	0.535600
C121	C12	0.833500	0.712200	0.805800
C131	C13	0.384600	0.653500	0.345100
C141	C14	0.904500	0.895100	0.366900
C151	C15	0.916400	0.997400	0.367400
C161	C16	0.793800	0.041200	0.323000
C171	C17	0.661200	0.977400	0.277200
C181	C18	0.655500	0.875200	0.280400
C191	C19	0.804800	0.154200	0.325800
C201	C20	0.644600	0.465500	0.374500
C211	C21	0.630700	0.361700	0.370900
C221	C22	0.684200	0.306900	0.295500
C231	C23	0.755100	0.359800	0.226200
C241	C24	0.771700	0.464400	0.235800
C251	C25	0.666500	0.194200	0.287800
C261	C26	0.115400	0.654900	0.346500
N11	N1	0.725500	0.674600	0.166400
N21	N2	0.783100	0.691000	0.482800
N31	N3	0.509800	0.669700	0.328300
N41	N4	0.774500	0.833600	0.325400
N51	N5	0.716900	0.517200	0.309000
N61	N6	0.990200	0.671700	0.330300
N71	N7	0.250000	0.625600	0.374400
Ni21	Ni2	0.250000	0.322690	0.677310
H251	H25	0.491300	0.398000	0.866200
H261	H26	0.512700	0.398700	0.039500
H271	H27	0.073500	0.244000	0.004000
H281	H28	0.063600	0.248700	0.832300
H291	H29	0.387900	0.291500	0.177700
H301	H30	0.333700	0.396900	0.182300
H311	H31	0.325000	0.187100	0.499900
H321	H32	0.292500	0.170200	0.324000
H331	H33	0.079200	0.421400	0.328600
H341	H34	0.100600	0.426800	0.501800
H351	H35	0.134200	0.220300	0.166700
H361	H36	0.080100	0.325700	0.171500
H371	H37	0.008700	0.133800	0.602000
H381	H38	0.987300	0.960500	0.601300
H391	H39	0.426500	0.996000	0.756000
H401	H40	0.436400	0.167700	0.751300
H411	H41	0.112100	0.822300	0.708500
H421	H42	0.166300	0.817700	0.603100
H431	H43	0.175000	0.500100	0.812900
H441	H44	0.207500	0.676000	0.829800
H451	H45	0.420800	0.671400	0.578600
H461	H46	0.399400	0.498200	0.573200
H471	H47	0.365800	0.833300	0.779700
H481	H48	0.419900	0.828500	0.674300
C271	C27	0.404500	0.366900	0.895100
C281	C28	0.416400	0.367400	0.997400
C291	C29	0.293800	0.323000	0.041200
C301	C30	0.161200	0.277200	0.977400
C311	C31	0.155500	0.280400	0.875200
C321	C32	0.304800	0.325800	0.154200
C331	C33	0.144600	0.374500	0.465500
C341	C34	0.130700	0.370900	0.361700
C351	C35	0.184200	0.295500	0.306900
C361	C36	0.255100	0.226200	0.359800
C371	C37	0.271700	0.235800	0.464400
C381	C38	0.166500	0.287800	0.194200
C391	C39	0.615400	0.346500	0.654900
C401	C40	0.095500	0.104900	0.633100
C411	C41	0.083600	0.002600	0.632600
C421	C42	0.206200	0.958800	0.677000
C431	C43	0.338800	0.022600	0.722800
C441	C44	0.344500	0.124800	0.719600
C451	C45	0.195200	0.845800	0.674200
C461	C46	0.355400	0.534500	0.625500
C471	C47	0.369300	0.638300	0.629100
C481	C48	0.315800	0.693100	0.704500
C491	C49	0.244900	0.640200	0.773800
C501	C50	0.228300	0.535600	0.764200
C511	C51	0.333500	0.805800	0.712200
C521	C52	0.884600	0.345100	0.653500
N81	N8	0.274500	0.325400	0.833600
N91	N9	0.216900	0.309000	0.517200
N101	N10	0.490200	0.330300	0.671700
N111	N11	0.225500	0.166400	0.674600
N121	N12	0.283100	0.482800	0.691000
N131	N13	0.009800	0.328300	0.669700
N141	N14	0.750000	0.374400	0.625600
