data_PEXFAA_clean_PM
_symmetry_space_group_name_H-M	'P1'
_cell_length_a	12.537000
_cell_length_b	14.977000
_cell_length_c	15.404000
_cell_angle_alpha	90.000000
_cell_angle_beta	90.000000
_cell_angle_gamma	90.000000
_symmetry_Int_Tables_number 1

loop_
_symmetry_equiv_pos_as_xyz
'x,y,z'

loop_
_atom_site_label
_atom_site_type_symbol
_atom_site_fract_x
_atom_site_fract_y
_atom_site_fract_z
Mg11	Mg1	0.996160	0.530210	0.949900
Mg21	Mg2	0.799410	0.675430	0.835460
C11	C1	0.906800	0.336100	0.718900
H11	H1	0.958100	0.322600	0.761400
C21	C2	0.816500	0.300100	0.586000
H21	H2	0.805900	0.261200	0.538800
C31	C3	0.890600	0.278200	0.649800
O11	O1	0.941900	0.461900	0.850700
O21	O2	0.805100	0.543900	0.803900
C41	C4	0.847700	0.413500	0.725200
C51	C5	0.867000	0.478800	0.799300
C61	C6	0.757900	0.378600	0.591200
C71	C7	0.773800	0.435100	0.661900
H31	H3	0.734000	0.488200	0.666600
C81	C8	0.134700	0.444600	0.042800
O31	O3	0.107900	0.520500	0.067500
C91	C9	0.956400	0.194000	0.642900
O41	O4	0.093800	0.422200	0.977600
O51	O5	0.038900	0.189900	0.688100
O61	O6	0.923800	0.134900	0.591400
C101	C10	0.674900	0.403100	0.525800
O71	O7	0.658700	0.352500	0.463400
O81	O8	0.622100	0.473400	0.536500
C111	C11	0.195700	0.399200	0.083500
H41	H4	0.249800	0.436800	0.109700
H51	H5	0.229500	0.356400	0.045000
H61	H6	0.157200	0.367600	0.128600
Mg31	Mg3	0.503840	0.469790	0.449900
Mg41	Mg4	0.700590	0.324570	0.335460
C121	C12	0.593200	0.663900	0.218900
H71	H7	0.541900	0.677400	0.261400
C131	C13	0.683500	0.699900	0.086000
H81	H8	0.694100	0.738800	0.038800
C141	C14	0.609400	0.721800	0.149800
O91	O9	0.558100	0.538100	0.350700
O101	O10	0.694900	0.456100	0.303900
C151	C15	0.652300	0.586500	0.225200
C161	C16	0.633000	0.521200	0.299300
C171	C17	0.742100	0.621400	0.091200
C181	C18	0.726200	0.564900	0.161900
H91	H9	0.766000	0.511800	0.166600
C191	C19	0.365300	0.555400	0.542800
O111	O11	0.392100	0.479500	0.567500
C201	C20	0.543600	0.806000	0.142900
O121	O12	0.406200	0.577800	0.477600
O131	O13	0.461100	0.810100	0.188100
O141	O14	0.576200	0.865100	0.091400
C211	C21	0.825100	0.596900	0.025800
O151	O15	0.841300	0.647500	0.963400
O161	O16	0.877900	0.526600	0.036500
C221	C22	0.304300	0.600800	0.583500
H101	H10	0.250200	0.563200	0.609700
H111	H11	0.270500	0.643600	0.545000
H121	H12	0.342800	0.632400	0.628600
Mg51	Mg5	0.003840	0.030210	0.550100
Mg61	Mg6	0.200590	0.175430	0.664540
C231	C23	0.093200	0.836100	0.781100
H131	H13	0.041900	0.822600	0.738600
C241	C24	0.183500	0.800100	0.914000
H141	H14	0.194100	0.761200	0.961200
C251	C25	0.109400	0.778200	0.850200
O171	O17	0.058100	0.961900	0.649300
O181	O18	0.194900	0.043900	0.696100
C261	C26	0.152300	0.913500	0.774800
C271	C27	0.133000	0.978800	0.700700
C281	C28	0.242100	0.878600	0.908800
C291	C29	0.226200	0.935100	0.838100
H151	H15	0.266000	0.988200	0.833400
C301	C30	0.865300	0.944600	0.457200
O191	O19	0.892100	0.020500	0.432500
C311	C31	0.043600	0.694000	0.857100
O201	O20	0.906200	0.922200	0.522400
O211	O21	0.961100	0.689900	0.811900
O221	O22	0.076200	0.634900	0.908600
C321	C32	0.325100	0.903100	0.974200
O231	O23	0.341300	0.852500	0.036600
O241	O24	0.377900	0.973400	0.963500
C331	C33	0.804300	0.899200	0.416500
H161	H16	0.750200	0.936800	0.390300
H171	H17	0.770500	0.856400	0.455000
H181	H18	0.842800	0.867600	0.371400
Mg71	Mg7	0.496160	0.969790	0.050100
Mg81	Mg8	0.299410	0.824570	0.164540
C341	C34	0.406800	0.163900	0.281100
H191	H19	0.458100	0.177400	0.238600
C351	C35	0.316500	0.199900	0.414000
H201	H20	0.305900	0.238800	0.461200
C361	C36	0.390600	0.221800	0.350200
O251	O25	0.441900	0.038100	0.149300
O261	O26	0.305100	0.956100	0.196100
C371	C37	0.347700	0.086500	0.274800
C381	C38	0.367000	0.021200	0.200700
C391	C39	0.257900	0.121400	0.408800
C401	C40	0.273800	0.064900	0.338100
H211	H21	0.234000	0.011800	0.333400
C411	C41	0.634700	0.055400	0.957200
O271	O27	0.607900	0.979500	0.932500
C421	C42	0.456400	0.306000	0.357100
O281	O28	0.593800	0.077800	0.022400
O291	O29	0.538900	0.310100	0.311900
O301	O30	0.423800	0.365100	0.408600
C431	C43	0.174900	0.096900	0.474200
O311	O31	0.158700	0.147500	0.536600
O321	O32	0.122100	0.026600	0.463500
C441	C44	0.695700	0.100800	0.916500
H221	H22	0.749800	0.063200	0.890300
H231	H23	0.729500	0.143600	0.955000
H241	H24	0.657200	0.132400	0.871400
