data_PEYPAM_SL_PM
_symmetry_space_group_name_H-M	'P1'
_cell_length_a	19.507800
_cell_length_b	19.507800
_cell_length_c	13.815000
_cell_angle_alpha	90.000000
_cell_angle_beta	90.000000
_cell_angle_gamma	90.000000
_symmetry_Int_Tables_number 1

loop_
_symmetry_equiv_pos_as_xyz
'x,y,z'

loop_
_atom_site_label
_atom_site_type_symbol
_atom_site_fract_x
_atom_site_fract_y
_atom_site_fract_z
Zn11	Zn1	0.987400	0.470070	0.371550
H21	H2	0.928400	0.161700	0.582700
H31	H3	0.913100	0.271300	0.632300
H41	H4	0.676200	0.410600	0.386200
H51	H5	0.671400	0.492200	0.398700
H61	H6	0.078240	0.314680	0.282880
H71	H7	0.735000	0.484000	0.971900
H81	H8	0.839100	0.478800	0.037600
C91	C9	0.956300	0.390600	0.562300
C101	C10	0.887800	0.479900	0.216800
C111	C11	0.966300	0.112100	0.409700
C121	C12	0.973000	0.241500	0.385700
C131	C13	0.959300	0.183300	0.442600
C141	C14	0.970400	0.306500	0.423100
C151	C15	0.938300	0.198200	0.539400
C161	C16	0.952100	0.320800	0.518700
C171	C17	0.932400	0.264000	0.570100
C181	C18	0.814600	0.477800	0.178800
C191	C19	0.692200	0.470000	0.196100
C201	C20	0.685300	0.455000	0.354000
C211	C21	0.679700	0.476300	0.099500
C221	C22	0.609800	0.480200	0.057100
C231	C23	0.758900	0.470200	0.238000
C241	C24	0.020200	0.315400	0.273300
C251	C25	0.739400	0.480300	0.040200
C261	C26	0.800800	0.479000	0.080100
O271	O27	0.963440	0.443090	0.507800
O281	O28	0.987000	0.353410	0.352200
O291	O29	0.898240	0.470100	0.302800
O301	O30	0.931750	0.492700	0.154200
O311	O31	0.557710	0.467990	0.110200
O321	O32	0.957000	0.068240	0.470600
O331	O33	0.989900	0.244760	0.290100
O341	O34	0.754930	0.460700	0.332600
O351	O35	0.602900	0.491500	0.969900
O361	O36	0.646930	0.459400	0.267200
O371	O37	0.978300	0.101450	0.320900
O381	O38	0.947100	0.398100	0.648700
H391	H39	0.494570	0.839260	0.549080
Zn401	Zn40	0.012600	0.529930	0.871550
H411	H41	0.071600	0.838300	0.082700
H421	H42	0.086900	0.728700	0.132300
H431	H43	0.323800	0.589400	0.886200
H441	H44	0.328600	0.507800	0.898700
H451	H45	0.921760	0.685320	0.782880
H461	H46	0.265000	0.516000	0.471900
H471	H47	0.160900	0.521200	0.537600
C481	C48	0.043700	0.609400	0.062300
C491	C49	0.112200	0.520100	0.716800
C501	C50	0.033700	0.887900	0.909700
C511	C51	0.027000	0.758500	0.885700
C521	C52	0.040700	0.816700	0.942600
C531	C53	0.029600	0.693500	0.923100
C541	C54	0.061700	0.801800	0.039400
C551	C55	0.047900	0.679200	0.018700
C561	C56	0.067600	0.736000	0.070100
C571	C57	0.185400	0.522200	0.678800
C581	C58	0.307800	0.530000	0.696100
C591	C59	0.314700	0.545000	0.854000
C601	C60	0.320300	0.523700	0.599500
C611	C61	0.390200	0.519800	0.557100
C621	C62	0.241100	0.529800	0.738000
C631	C63	0.979800	0.684600	0.773300
C641	C64	0.260600	0.519700	0.540200
C651	C65	0.199200	0.521000	0.580100
O661	O66	0.036560	0.556910	0.007800
O671	O67	0.013000	0.646590	0.852200
O681	O68	0.101760	0.529900	0.802800
O691	O69	0.068250	0.507300	0.654200
O701	O70	0.442290	0.532010	0.610200
O711	O71	0.043000	0.931760	0.970600
O721	O72	0.010100	0.755240	0.790100
O731	O73	0.245070	0.539300	0.832600
O741	O74	0.397100	0.508500	0.469900
O751	O75	0.353070	0.540600	0.767200
O761	O76	0.021700	0.898550	0.820900
O771	O77	0.052900	0.601900	0.148700
H781	H78	0.505430	0.160740	0.049080
Zn791	Zn79	0.029930	0.487400	0.121550
H801	H80	0.338300	0.428400	0.332700
H811	H81	0.228700	0.413100	0.382300
H821	H82	0.089400	0.176200	0.136200
H831	H83	0.007800	0.171400	0.148700
H841	H84	0.185320	0.578240	0.032880
H851	H85	0.016000	0.235000	0.721900
H861	H86	0.021200	0.339100	0.787600
C871	C87	0.109400	0.456300	0.312300
C881	C88	0.020100	0.387800	0.966800
C891	C89	0.387900	0.466300	0.159700
C901	C90	0.258500	0.473000	0.135700
C911	C91	0.316700	0.459300	0.192600
C921	C92	0.193500	0.470400	0.173100
C931	C93	0.301800	0.438300	0.289400
C941	C94	0.179200	0.452100	0.268700
C951	C95	0.236000	0.432400	0.320100
C961	C96	0.022200	0.314600	0.928800
C971	C97	0.030000	0.192200	0.946100
C981	C98	0.045000	0.185300	0.104000
C991	C99	0.023700	0.179700	0.849500
C1001	C100	0.019800	0.109800	0.807100
C1011	C101	0.029800	0.258900	0.988000
C1021	C102	0.184600	0.520200	0.023300
C1031	C103	0.019700	0.239400	0.790200
C1041	C104	0.021000	0.300800	0.830100
O1051	O105	0.056910	0.463440	0.257800
O1061	O106	0.146590	0.487000	0.102200
O1071	O107	0.029900	0.398240	0.052800
O1081	O108	0.007300	0.431750	0.904200
O1091	O109	0.032010	0.057710	0.860200
O1101	O110	0.431760	0.457000	0.220600
O1111	O111	0.255240	0.489900	0.040100
O1121	O112	0.039300	0.254930	0.082600
O1131	O113	0.008500	0.102900	0.719900
O1141	O114	0.040600	0.146930	0.017200
O1151	O115	0.398550	0.478300	0.070900
O1161	O116	0.101900	0.447100	0.398700
H1171	H117	0.660740	0.994570	0.299080
Zn1181	Zn118	0.970070	0.512600	0.621550
H1191	H119	0.661700	0.571600	0.832700
H1201	H120	0.771300	0.586900	0.882300
H1211	H121	0.910600	0.823800	0.636200
H1221	H122	0.992200	0.828600	0.648700
H1231	H123	0.814680	0.421760	0.532880
H1241	H124	0.984000	0.765000	0.221900
H1251	H125	0.978800	0.660900	0.287600
C1261	C126	0.890600	0.543700	0.812300
C1271	C127	0.979900	0.612200	0.466800
C1281	C128	0.612100	0.533700	0.659700
C1291	C129	0.741500	0.527000	0.635700
C1301	C130	0.683300	0.540700	0.692600
C1311	C131	0.806500	0.529600	0.673100
C1321	C132	0.698200	0.561700	0.789400
C1331	C133	0.820800	0.547900	0.768700
C1341	C134	0.764000	0.567600	0.820100
C1351	C135	0.977800	0.685400	0.428800
C1361	C136	0.970000	0.807800	0.446100
C1371	C137	0.955000	0.814700	0.604000
C1381	C138	0.976300	0.820300	0.349500
C1391	C139	0.980200	0.890200	0.307100
C1401	C140	0.970200	0.741100	0.488000
C1411	C141	0.815400	0.479800	0.523300
C1421	C142	0.980300	0.760600	0.290200
C1431	C143	0.979000	0.699200	0.330100
O1441	O144	0.943090	0.536560	0.757800
O1451	O145	0.853410	0.513000	0.602200
O1461	O146	0.970100	0.601760	0.552800
O1471	O147	0.992700	0.568250	0.404200
O1481	O148	0.967990	0.942290	0.360200
O1491	O149	0.568240	0.543000	0.720600
O1501	O150	0.744760	0.510100	0.540100
O1511	O151	0.960700	0.745070	0.582600
O1521	O152	0.991500	0.897100	0.219900
O1531	O153	0.959400	0.853070	0.517200
O1541	O154	0.601450	0.521700	0.570900
O1551	O155	0.898100	0.552900	0.898700
H1561	H156	0.339260	0.005430	0.799080
Zn1571	Zn157	0.512600	0.970070	0.378450
H1581	H158	0.571600	0.661700	0.167300
H1591	H159	0.586900	0.771300	0.117700
H1601	H160	0.823800	0.910600	0.363800
H1611	H161	0.828600	0.992200	0.351300
H1621	H162	0.421760	0.814680	0.467120
H1631	H163	0.765000	0.984000	0.778100
H1641	H164	0.660900	0.978800	0.712400
C1651	C165	0.543700	0.890600	0.187700
C1661	C166	0.612200	0.979900	0.533200
C1671	C167	0.533700	0.612100	0.340300
C1681	C168	0.527000	0.741500	0.364300
C1691	C169	0.540700	0.683300	0.307400
C1701	C170	0.529600	0.806500	0.326900
C1711	C171	0.561700	0.698200	0.210600
C1721	C172	0.547900	0.820800	0.231300
C1731	C173	0.567600	0.764000	0.179900
C1741	C174	0.685400	0.977800	0.571200
C1751	C175	0.807800	0.970000	0.553900
C1761	C176	0.814700	0.955000	0.396000
C1771	C177	0.820300	0.976300	0.650500
C1781	C178	0.890200	0.980200	0.692900
C1791	C179	0.741100	0.970200	0.512000
C1801	C180	0.479800	0.815400	0.476700
C1811	C181	0.760600	0.980300	0.709800
C1821	C182	0.699200	0.979000	0.669900
O1831	O183	0.536560	0.943090	0.242200
O1841	O184	0.513000	0.853410	0.397800
O1851	O185	0.601760	0.970100	0.447200
O1861	O186	0.568250	0.992700	0.595800
O1871	O187	0.942290	0.967990	0.639800
O1881	O188	0.543000	0.568240	0.279400
O1891	O189	0.510100	0.744760	0.459900
O1901	O190	0.745070	0.960700	0.417400
O1911	O191	0.897100	0.991500	0.780100
O1921	O192	0.853070	0.959400	0.482800
O1931	O193	0.521700	0.601450	0.429100
O1941	O194	0.552900	0.898100	0.101300
H1951	H195	0.005430	0.339260	0.200920
Zn1961	Zn196	0.487400	0.029930	0.878450
H1971	H197	0.428400	0.338300	0.667300
H1981	H198	0.413100	0.228700	0.617700
H1991	H199	0.176200	0.089400	0.863800
H2001	H200	0.171400	0.007800	0.851300
H2011	H201	0.578240	0.185320	0.967120
H2021	H202	0.235000	0.016000	0.278100
H2031	H203	0.339100	0.021200	0.212400
C2041	C204	0.456300	0.109400	0.687700
C2051	C205	0.387800	0.020100	0.033200
C2061	C206	0.466300	0.387900	0.840300
C2071	C207	0.473000	0.258500	0.864300
C2081	C208	0.459300	0.316700	0.807400
C2091	C209	0.470400	0.193500	0.826900
C2101	C210	0.438300	0.301800	0.710600
C2111	C211	0.452100	0.179200	0.731300
C2121	C212	0.432400	0.236000	0.679900
C2131	C213	0.314600	0.022200	0.071200
C2141	C214	0.192200	0.030000	0.053900
C2151	C215	0.185300	0.045000	0.896000
C2161	C216	0.179700	0.023700	0.150500
C2171	C217	0.109800	0.019800	0.192900
C2181	C218	0.258900	0.029800	0.012000
C2191	C219	0.520200	0.184600	0.976700
C2201	C220	0.239400	0.019700	0.209800
C2211	C221	0.300800	0.021000	0.169900
O2221	O222	0.463440	0.056910	0.742200
O2231	O223	0.487000	0.146590	0.897800
O2241	O224	0.398240	0.029900	0.947200
O2251	O225	0.431750	0.007300	0.095800
O2261	O226	0.057710	0.032010	0.139800
O2271	O227	0.457000	0.431760	0.779400
O2281	O228	0.489900	0.255240	0.959900
O2291	O229	0.254930	0.039300	0.917400
O2301	O230	0.102900	0.008500	0.280100
O2311	O231	0.146930	0.040600	0.982800
O2321	O232	0.478300	0.398550	0.929100
O2331	O233	0.447100	0.101900	0.601300
H2341	H234	0.994570	0.660740	0.700920
Zn2351	Zn235	0.470070	0.987400	0.628450
H2361	H236	0.161700	0.928400	0.417300
H2371	H237	0.271300	0.913100	0.367700
H2381	H238	0.410600	0.676200	0.613800
H2391	H239	0.492200	0.671400	0.601300
H2401	H240	0.314680	0.078240	0.717120
H2411	H241	0.484000	0.735000	0.028100
H2421	H242	0.478800	0.839100	0.962400
C2431	C243	0.390600	0.956300	0.437700
C2441	C244	0.479900	0.887800	0.783200
C2451	C245	0.112100	0.966300	0.590300
C2461	C246	0.241500	0.973000	0.614300
C2471	C247	0.183300	0.959300	0.557400
C2481	C248	0.306500	0.970400	0.576900
C2491	C249	0.198200	0.938300	0.460600
C2501	C250	0.320800	0.952100	0.481300
C2511	C251	0.264000	0.932400	0.429900
C2521	C252	0.477800	0.814600	0.821200
C2531	C253	0.470000	0.692200	0.803900
C2541	C254	0.455000	0.685300	0.646000
C2551	C255	0.476300	0.679700	0.900500
C2561	C256	0.480200	0.609800	0.942900
C2571	C257	0.470200	0.758900	0.762000
C2581	C258	0.315400	0.020200	0.726700
C2591	C259	0.480300	0.739400	0.959800
C2601	C260	0.479000	0.800800	0.919900
O2611	O261	0.443090	0.963440	0.492200
O2621	O262	0.353410	0.987000	0.647800
O2631	O263	0.470100	0.898240	0.697200
O2641	O264	0.492700	0.931750	0.845800
O2651	O265	0.467990	0.557710	0.889800
O2661	O266	0.068240	0.957000	0.529400
O2671	O267	0.244760	0.989900	0.709900
O2681	O268	0.460700	0.754930	0.667400
O2691	O269	0.491500	0.602900	0.030100
O2701	O270	0.459400	0.646930	0.732800
O2711	O271	0.101450	0.978300	0.679100
O2721	O272	0.398100	0.947100	0.351300
H2731	H273	0.839260	0.494570	0.450920
Zn2741	Zn274	0.529930	0.012600	0.128450
H2751	H275	0.838300	0.071600	0.917300
H2761	H276	0.728700	0.086900	0.867700
H2771	H277	0.589400	0.323800	0.113800
H2781	H278	0.507800	0.328600	0.101300
H2791	H279	0.685320	0.921760	0.217120
H2801	H280	0.516000	0.265000	0.528100
H2811	H281	0.521200	0.160900	0.462400
C2821	C282	0.609400	0.043700	0.937700
C2831	C283	0.520100	0.112200	0.283200
C2841	C284	0.887900	0.033700	0.090300
C2851	C285	0.758500	0.027000	0.114300
C2861	C286	0.816700	0.040700	0.057400
C2871	C287	0.693500	0.029600	0.076900
C2881	C288	0.801800	0.061700	0.960600
C2891	C289	0.679200	0.047900	0.981300
C2901	C290	0.736000	0.067600	0.929900
C2911	C291	0.522200	0.185400	0.321200
C2921	C292	0.530000	0.307800	0.303900
C2931	C293	0.545000	0.314700	0.146000
C2941	C294	0.523700	0.320300	0.400500
C2951	C295	0.519800	0.390200	0.442900
C2961	C296	0.529800	0.241100	0.262000
C2971	C297	0.684600	0.979800	0.226700
C2981	C298	0.519700	0.260600	0.459800
C2991	C299	0.521000	0.199200	0.419900
O3001	O300	0.556910	0.036560	0.992200
O3011	O301	0.646590	0.013000	0.147800
O3021	O302	0.529900	0.101760	0.197200
O3031	O303	0.507300	0.068250	0.345800
O3041	O304	0.532010	0.442290	0.389800
O3051	O305	0.931760	0.043000	0.029400
O3061	O306	0.755240	0.010100	0.209900
O3071	O307	0.539300	0.245070	0.167400
O3081	O308	0.508500	0.397100	0.530100
O3091	O309	0.540600	0.353070	0.232800
O3101	O310	0.898550	0.021700	0.179100
O3111	O311	0.601900	0.052900	0.851300
H3121	H312	0.160740	0.505430	0.950920
Zn3131	Zn313	0.486310	0.486310	0.000000
Zn3141	Zn314	0.513690	0.513690	0.500000
Zn3151	Zn315	0.013690	0.986310	0.750000
Zn3161	Zn316	0.986310	0.013690	0.250000
Zn3171	Zn317	0.529860	0.470140	0.250000
Zn3181	Zn318	0.470140	0.529860	0.750000
Zn3191	Zn319	0.029860	0.029860	0.000000
Zn3201	Zn320	0.970140	0.970140	0.500000
