data_PEYSIW_clean_PM
_symmetry_space_group_name_H-M	'P1'
_cell_length_a	8.630000
_cell_length_b	13.533000
_cell_length_c	13.533000
_cell_angle_alpha	93.413400
_cell_angle_beta	97.036000
_cell_angle_gamma	97.036000
_symmetry_Int_Tables_number 1

loop_
_symmetry_equiv_pos_as_xyz
'x,y,z'

loop_
_atom_site_label
_atom_site_type_symbol
_atom_site_fract_x
_atom_site_fract_y
_atom_site_fract_z
Ni11	Ni1	0.750000	0.677100	0.322900
H11	H1	0.944300	0.745600	0.160400
H21	H2	0.924300	0.735000	0.980600
H31	H3	0.467500	0.601700	0.961500
H41	H4	0.504600	0.605900	0.140700
H51	H5	0.596400	0.695800	0.821800
H61	H6	0.666800	0.595800	0.822400
H71	H7	0.673500	0.814600	0.490000
H81	H8	0.701400	0.829200	0.672600
H91	H9	0.921700	0.572500	0.666100
H101	H10	0.884500	0.558700	0.497100
H111	H11	0.833000	0.779900	0.834500
H121	H12	0.908400	0.681900	0.842500
H131	H13	0.555700	0.839600	0.254400
H141	H14	0.575700	0.019400	0.265000
H151	H15	0.032500	0.038500	0.398300
H161	H16	0.995400	0.859300	0.394100
H171	H17	0.903600	0.178200	0.304200
H181	H18	0.833200	0.177600	0.404200
H191	H19	0.826500	0.510000	0.185400
H201	H20	0.798600	0.327400	0.170800
H211	H21	0.578300	0.333900	0.427500
H221	H22	0.615500	0.502900	0.441300
H231	H23	0.667000	0.165500	0.220100
H241	H24	0.591600	0.157500	0.318100
C11	C1	0.838000	0.713000	0.123000
C21	C2	0.832000	0.711100	0.014900
C31	C3	0.696000	0.669000	0.959000
C41	C4	0.574000	0.628000	0.004000
C51	C5	0.588000	0.636100	0.105900
C61	C6	0.688000	0.662000	0.850000
C71	C7	0.726000	0.764000	0.530000
C81	C8	0.741000	0.771000	0.639000
C91	C9	0.810000	0.697000	0.689000
C101	C10	0.865000	0.624000	0.636000
C111	C11	0.852000	0.620000	0.536000
C121	C12	0.816000	0.714000	0.806000
C131	C13	0.109000	0.656100	0.345900
C141	C14	0.662000	0.877000	0.287000
C151	C15	0.668000	0.985100	0.288900
C161	C16	0.804000	0.041000	0.331000
C171	C17	0.926000	0.996000	0.372000
C181	C18	0.912000	0.894100	0.363900
C191	C19	0.812000	0.150000	0.338000
C201	C20	0.774000	0.470000	0.236000
C211	C21	0.759000	0.361000	0.229000
C221	C22	0.690000	0.311000	0.303000
C231	C23	0.635000	0.364000	0.376000
C241	C24	0.648000	0.464000	0.380000
C251	C25	0.684000	0.194000	0.286000
C261	C26	0.391000	0.654100	0.343900
N11	N1	0.720000	0.674500	0.165700
N21	N2	0.779000	0.688000	0.483800
N31	N3	0.988000	0.671800	0.330400
N41	N4	0.780000	0.834300	0.325500
N51	N5	0.721000	0.516200	0.312000
N61	N6	0.512000	0.669600	0.328200
N71	N7	0.250000	0.624000	0.376000
Ni21	Ni2	0.250000	0.322900	0.677100
H251	H25	0.055700	0.254400	0.839600
H261	H26	0.075700	0.265000	0.019400
H271	H27	0.532500	0.398300	0.038500
H281	H28	0.495400	0.394100	0.859300
H291	H29	0.403600	0.304200	0.178200
H301	H30	0.333200	0.404200	0.177600
H311	H31	0.326500	0.185400	0.510000
H321	H32	0.298600	0.170800	0.327400
H331	H33	0.078300	0.427500	0.333900
H341	H34	0.115500	0.441300	0.502900
H351	H35	0.167000	0.220100	0.165500
H361	H36	0.091600	0.318100	0.157500
H371	H37	0.444300	0.160400	0.745600
H381	H38	0.424300	0.980600	0.735000
H391	H39	0.967500	0.961500	0.601700
H401	H40	0.004600	0.140700	0.605900
H411	H41	0.096400	0.821800	0.695800
H421	H42	0.166800	0.822400	0.595800
H431	H43	0.173500	0.490000	0.814600
H441	H44	0.201400	0.672600	0.829200
H451	H45	0.421700	0.666100	0.572500
H461	H46	0.384500	0.497100	0.558700
H471	H47	0.333000	0.834500	0.779900
H481	H48	0.408400	0.842500	0.681900
C271	C27	0.162000	0.287000	0.877000
C281	C28	0.168000	0.288900	0.985100
C291	C29	0.304000	0.331000	0.041000
C301	C30	0.426000	0.372000	0.996000
C311	C31	0.412000	0.363900	0.894100
C321	C32	0.312000	0.338000	0.150000
C331	C33	0.274000	0.236000	0.470000
C341	C34	0.259000	0.229000	0.361000
C351	C35	0.190000	0.303000	0.311000
C361	C36	0.135000	0.376000	0.364000
C371	C37	0.148000	0.380000	0.464000
C381	C38	0.184000	0.286000	0.194000
C391	C39	0.891000	0.343900	0.654100
C401	C40	0.338000	0.123000	0.713000
C411	C41	0.332000	0.014900	0.711100
C421	C42	0.196000	0.959000	0.669000
C431	C43	0.074000	0.004000	0.628000
C441	C44	0.088000	0.105900	0.636100
C451	C45	0.188000	0.850000	0.662000
C461	C46	0.226000	0.530000	0.764000
C471	C47	0.241000	0.639000	0.771000
C481	C48	0.310000	0.689000	0.697000
C491	C49	0.365000	0.636000	0.624000
C501	C50	0.352000	0.536000	0.620000
C511	C51	0.316000	0.806000	0.714000
C521	C52	0.609000	0.345900	0.656100
N81	N8	0.280000	0.325500	0.834300
N91	N9	0.221000	0.312000	0.516200
N101	N10	0.012000	0.328200	0.669600
N111	N11	0.220000	0.165700	0.674500
N121	N12	0.279000	0.483800	0.688000
N131	N13	0.488000	0.330400	0.671800
N141	N14	0.750000	0.376000	0.624000
