data_PICTIG_clean_PM
_symmetry_space_group_name_H-M	'P1'
_cell_length_a	9.766900
_cell_length_b	17.360500
_cell_length_c	18.226000
_cell_angle_alpha	93.533100
_cell_angle_beta	90.000000
_cell_angle_gamma	106.338000
_symmetry_Int_Tables_number 1

loop_
_symmetry_equiv_pos_as_xyz
'x,y,z'

loop_
_atom_site_label
_atom_site_type_symbol
_atom_site_fract_x
_atom_site_fract_y
_atom_site_fract_z
Zn11	Zn1	0.148310	0.694400	0.516180
Zn21	Zn2	0.453910	0.305600	0.983820
Zn31	Zn3	0.851690	0.305600	0.483820
Zn41	Zn4	0.546090	0.694400	0.016180
Zn51	Zn5	0.000000	0.500000	0.500000
Zn61	Zn6	0.500000	0.500000	0.000000
H11	H1	0.537600	0.578800	0.608900
H21	H2	0.856000	0.501400	0.720200
H31	H3	0.313100	0.498600	0.421500
H41	H4	0.801000	0.742200	0.817000
H51	H5	0.751600	0.507400	0.832000
H61	H6	0.910800	0.736800	0.705900
H71	H7	0.321900	0.950400	0.581600
H81	H8	0.560900	0.913000	0.413800
H91	H9	0.958800	0.421200	0.891100
H101	H10	0.354600	0.498600	0.779800
H111	H11	0.814500	0.501400	0.078500
H121	H12	0.058800	0.257800	0.683000
H131	H13	0.244200	0.492600	0.668000
H141	H14	0.174000	0.263200	0.794100
H151	H15	0.371500	0.049600	0.918400
H161	H16	0.647900	0.087000	0.086200
H171	H17	0.462400	0.421200	0.391100
H181	H18	0.144000	0.498600	0.279800
H191	H19	0.686900	0.501400	0.578500
H201	H20	0.199000	0.257800	0.183000
H211	H21	0.248400	0.492600	0.168000
H221	H22	0.089200	0.263200	0.294100
H231	H23	0.678100	0.049600	0.418400
H241	H24	0.439100	0.087000	0.586200
H251	H25	0.041200	0.578800	0.108900
H261	H26	0.645400	0.501400	0.220200
H271	H27	0.185500	0.498600	0.921500
H281	H28	0.941200	0.742200	0.317000
H291	H29	0.755800	0.507400	0.332000
H301	H30	0.826000	0.736800	0.205900
H311	H31	0.628500	0.950400	0.081600
H321	H32	0.352100	0.913000	0.913800
C11	C1	0.346600	0.831000	0.490400
C21	C2	0.522790	0.547180	0.564900
C31	C3	0.411250	0.547900	0.518400
C41	C4	0.764940	0.626080	0.836100
C51	C5	0.845530	0.550060	0.739800
C61	C6	0.894370	0.619140	0.700700
C71	C7	0.692010	0.628420	0.907900
C81	C8	0.388540	0.499280	0.452900
C91	C9	0.812590	0.693580	0.797800
C101	C10	0.964480	0.614760	0.627900
C111	C11	0.782680	0.553560	0.806300
C121	C12	0.877700	0.690200	0.730800
C131	C13	0.316830	0.600660	0.538100
C141	C14	0.427820	0.917640	0.495600
C151	C15	0.393380	0.970160	0.548200
C161	C16	0.534980	0.947560	0.448500
C171	C17	0.515600	0.169000	0.009600
C181	C18	0.975610	0.452820	0.935100
C191	C19	0.863350	0.452100	0.981600
C201	C20	0.138860	0.373920	0.663900
C211	C21	0.295470	0.449940	0.760200
C221	C22	0.275230	0.380860	0.799300
C231	C23	0.063590	0.371580	0.592100
C241	C24	0.889260	0.500720	0.047100
C251	C25	0.119010	0.306420	0.702200
C261	C26	0.349720	0.385240	0.872100
C271	C27	0.229120	0.446440	0.693700
C281	C28	0.187500	0.309800	0.769200
C291	C29	0.716170	0.399340	0.961900
C301	C30	0.510180	0.082360	0.004400
C311	C31	0.423220	0.029840	0.951800
C321	C32	0.587420	0.052440	0.051500
C331	C33	0.653400	0.169000	0.509600
C341	C34	0.477210	0.452820	0.435100
C351	C35	0.588750	0.452100	0.481600
C361	C36	0.235060	0.373920	0.163900
C371	C37	0.154470	0.449940	0.260200
C381	C38	0.105630	0.380860	0.299300
C391	C39	0.307990	0.371580	0.092100
C401	C40	0.611460	0.500720	0.547100
C411	C41	0.187410	0.306420	0.202200
C421	C42	0.035520	0.385240	0.372100
C431	C43	0.217320	0.446440	0.193700
C441	C44	0.122300	0.309800	0.269200
C451	C45	0.683170	0.399340	0.461900
C461	C46	0.572180	0.082360	0.504400
C471	C47	0.606620	0.029840	0.451800
C481	C48	0.465020	0.052440	0.551500
C491	C49	0.484400	0.831000	0.990400
C501	C50	0.024390	0.547180	0.064900
C511	C51	0.136650	0.547900	0.018400
C521	C52	0.861140	0.626080	0.336100
C531	C53	0.704530	0.550060	0.239800
C541	C54	0.724770	0.619140	0.200700
C551	C55	0.936410	0.628420	0.407900
C561	C56	0.110740	0.499280	0.952900
C571	C57	0.880990	0.693580	0.297800
C581	C58	0.650280	0.614760	0.127900
C591	C59	0.770880	0.553560	0.306300
C601	C60	0.812500	0.690200	0.230800
C611	C61	0.283830	0.600660	0.038100
C621	C62	0.489820	0.917640	0.995600
C631	C63	0.576780	0.970160	0.048200
C641	C64	0.412580	0.947560	0.948500
O11	O1	0.021890	0.680980	0.600450
O21	O2	0.963660	0.546920	0.600880
O31	O3	0.667610	0.568020	0.944830
O41	O4	0.345900	0.649600	0.591800
O51	O5	0.658670	0.691740	0.925980
O61	O6	0.209670	0.595740	0.494360
O71	O7	0.252840	0.807280	0.537000
O81	O8	0.373700	0.785400	0.441900
O91	O9	0.340910	0.319020	0.899550
O101	O10	0.416740	0.453080	0.899120
O111	O11	0.099590	0.431980	0.555170
O121	O12	0.696300	0.350400	0.908200
O131	O13	0.966930	0.308260	0.574020
O141	O14	0.613930	0.404260	0.005640
O151	O15	0.445560	0.192720	0.963000
O161	O16	0.588300	0.214600	0.058100
O171	O17	0.978110	0.319020	0.399550
O181	O18	0.036340	0.453080	0.399120
O191	O19	0.332390	0.431980	0.055170
O201	O20	0.654100	0.350400	0.408200
O211	O21	0.341330	0.308260	0.074020
O221	O22	0.790330	0.404260	0.505640
O231	O23	0.747160	0.192720	0.463000
O241	O24	0.626300	0.214600	0.558100
O251	O25	0.659090	0.680980	0.100450
O261	O26	0.583260	0.546920	0.100880
O271	O27	0.900410	0.568020	0.444830
O281	O28	0.303700	0.649600	0.091800
O291	O29	0.033070	0.691740	0.425980
O301	O30	0.386070	0.595740	0.994360
O311	O31	0.554440	0.807280	0.037000
O321	O32	0.411700	0.785400	0.941900
