data_PIJJEZ_clean_PM
_symmetry_space_group_name_H-M	'P1'
_cell_length_a	26.587900
_cell_length_b	26.587900
_cell_length_c	67.331000
_cell_angle_alpha	90.000000
_cell_angle_beta	90.000000
_cell_angle_gamma	120.000000
_symmetry_Int_Tables_number 1

loop_
_symmetry_equiv_pos_as_xyz
'x,y,z'

loop_
_atom_site_label
_atom_site_type_symbol
_atom_site_fract_x
_atom_site_fract_y
_atom_site_fract_z
Cd11	Cd1	0.814270	0.670950	0.614260
O11	O1	0.748200	0.644100	0.588100
O21	O2	0.831000	0.648800	0.582330
C11	C1	0.782100	0.638800	0.576910
C21	C2	0.794400	0.606400	0.522350
C31	C3	0.807700	0.623800	0.542100
H11	H1	0.845500	0.637700	0.546600
C41	C4	0.709900	0.601100	0.548970
H21	H2	0.681600	0.598300	0.557700
C51	C5	0.696500	0.585000	0.529160
H31	H3	0.658900	0.572700	0.524800
C61	C6	0.765700	0.621000	0.555330
C71	C7	0.836700	0.604300	0.509270
C81	C8	0.820200	0.581300	0.490340
C91	C9	0.721300	0.567700	0.495360
C101	C10	0.666000	0.551200	0.487920
H41	H4	0.638900	0.553000	0.496200
C111	C11	0.737000	0.586400	0.515630
C121	C12	0.762300	0.563800	0.482440
C131	C13	0.858500	0.571500	0.478580
H51	H5	0.847700	0.556600	0.465800
C141	C14	0.650500	0.532000	0.468180
C151	C15	0.745400	0.545400	0.462690
H61	H6	0.771800	0.544000	0.454000
C161	C16	0.690900	0.529600	0.456140
H71	H7	0.680800	0.516700	0.443100
C171	C17	0.912500	0.584000	0.486070
C181	C18	0.929900	0.610000	0.504450
H81	H8	0.966600	0.620200	0.509300
C191	C19	0.893300	0.620600	0.515590
H91	H9	0.906200	0.639300	0.527800
O31	O3	0.780100	0.580300	0.622590
C201	C20	0.784500	0.557300	0.638230
C211	C21	0.948600	0.566200	0.474270
O41	O4	0.800500	0.578400	0.655070
C221	C22	0.590500	0.513500	0.460940
C231	C23	0.764600	0.493500	0.637450
O51	O5	0.556300	0.521100	0.471820
O61	O6	0.992980	0.569430	0.481750
O71	O7	0.933500	0.549900	0.456270
O81	O8	0.576400	0.490800	0.444030
C241	C24	0.686400	0.393200	0.636250
C251	C25	0.726300	0.374400	0.635770
C261	C26	0.707000	0.454000	0.636640
H101	H10	0.680400	0.467000	0.636300
C271	C27	0.785700	0.415000	0.637100
H111	H11	0.812800	0.402600	0.637500
C281	C28	0.804100	0.474700	0.637800
H121	H12	0.843500	0.501700	0.638500
Cd21	Cd2	0.480940	0.004280	0.947600
O91	O9	0.414870	0.977430	0.921430
O101	O10	0.497670	0.982130	0.915660
C291	C29	0.448770	0.972130	0.910240
C301	C30	0.461070	0.939730	0.855680
C311	C31	0.474370	0.957130	0.875430
H131	H13	0.512170	0.971030	0.879930
C321	C32	0.376570	0.934430	0.882300
H141	H14	0.348270	0.931630	0.891030
C331	C33	0.363170	0.918330	0.862490
H151	H15	0.325570	0.906030	0.858130
C341	C34	0.432370	0.954330	0.888660
C351	C35	0.503370	0.937630	0.842600
C361	C36	0.486870	0.914630	0.823670
C371	C37	0.387970	0.901030	0.828690
C381	C38	0.332670	0.884530	0.821250
H161	H16	0.305570	0.886330	0.829530
C391	C39	0.403670	0.919730	0.848960
C401	C40	0.428970	0.897130	0.815770
C411	C41	0.525170	0.904830	0.811910
H171	H17	0.514370	0.889930	0.799130
C421	C42	0.317170	0.865330	0.801510
C431	C43	0.412070	0.878730	0.796020
H181	H18	0.438470	0.877330	0.787330
C441	C44	0.357570	0.862930	0.789470
H191	H19	0.347470	0.850030	0.776430
C451	C45	0.579170	0.917330	0.819400
C461	C46	0.596570	0.943330	0.837780
H201	H20	0.633270	0.953530	0.842630
C471	C47	0.559970	0.953930	0.848920
H211	H21	0.572870	0.972630	0.861130
O111	O11	0.446770	0.913630	0.955920
C481	C48	0.451170	0.890630	0.971560
C491	C49	0.615270	0.899530	0.807600
O121	O12	0.467170	0.911730	0.988400
C501	C50	0.257170	0.846830	0.794270
C511	C51	0.431270	0.826830	0.970780
O131	O13	0.222970	0.854430	0.805150
O141	O14	0.659650	0.902760	0.815080
O151	O15	0.600170	0.883230	0.789600
O161	O16	0.243070	0.824130	0.777360
C521	C52	0.353070	0.726530	0.969580
C531	C53	0.392970	0.707730	0.969100
C541	C54	0.373670	0.787330	0.969970
H221	H22	0.347070	0.800330	0.969630
C551	C55	0.452370	0.748330	0.970430
H231	H23	0.479470	0.735930	0.970830
C561	C56	0.470770	0.808030	0.971130
H241	H24	0.510170	0.835030	0.971830
Cd31	Cd3	0.147600	0.337620	0.280930
O171	O17	0.081530	0.310770	0.254770
O181	O18	0.164330	0.315470	0.249000
C571	C57	0.115430	0.305470	0.243580
C581	C58	0.127730	0.273070	0.189020
C591	C59	0.141030	0.290470	0.208770
H251	H25	0.178830	0.304370	0.213270
C601	C60	0.043230	0.267770	0.215640
H261	H26	0.014930	0.264970	0.224370
C611	C61	0.029830	0.251670	0.195830
H271	H27	0.992230	0.239370	0.191470
C621	C62	0.099030	0.287670	0.222000
C631	C63	0.170030	0.270970	0.175940
C641	C64	0.153530	0.247970	0.157010
C651	C65	0.054630	0.234370	0.162030
C661	C66	0.999330	0.217870	0.154590
H281	H28	0.972230	0.219670	0.162870
C671	C67	0.070330	0.253070	0.182300
C681	C68	0.095630	0.230470	0.149110
C691	C69	0.191830	0.238170	0.145250
H291	H29	0.181030	0.223270	0.132470
C701	C70	0.983830	0.198670	0.134850
C711	C71	0.078730	0.212070	0.129360
H301	H30	0.105130	0.210670	0.120670
C721	C72	0.024230	0.196270	0.122810
H311	H31	0.014130	0.183370	0.109770
C731	C73	0.245830	0.250670	0.152740
C741	C74	0.263230	0.276670	0.171120
H321	H32	0.299930	0.286870	0.175970
C751	C75	0.226630	0.287270	0.182260
H331	H33	0.239530	0.305970	0.194470
O191	O19	0.113430	0.246970	0.289260
C761	C76	0.117830	0.223970	0.304900
C771	C77	0.281930	0.232870	0.140940
O201	O20	0.133830	0.245070	0.321740
C781	C78	0.923830	0.180170	0.127610
C791	C79	0.097930	0.160170	0.304120
O211	O21	0.889630	0.187770	0.138490
O221	O22	0.326310	0.236100	0.148420
O231	O23	0.266830	0.216570	0.122940
O241	O24	0.909730	0.157470	0.110700
C801	C80	0.019730	0.059870	0.302920
C811	C81	0.059630	0.041070	0.302440
C821	C82	0.040330	0.120670	0.303310
H341	H34	0.013730	0.133670	0.302970
C831	C83	0.119030	0.081670	0.303770
H351	H35	0.146130	0.069270	0.304170
C841	C84	0.137430	0.141370	0.304470
H361	H36	0.176830	0.168370	0.305170
Cd41	Cd4	0.329050	0.143320	0.614260
O251	O25	0.355900	0.104100	0.588100
O261	O26	0.351200	0.182200	0.582330
C851	C85	0.361200	0.143300	0.576910
C861	C86	0.393600	0.188000	0.522350
C871	C87	0.376200	0.183900	0.542100
H371	H37	0.362300	0.207800	0.546600
C881	C88	0.398900	0.108800	0.548970
H381	H38	0.401700	0.083300	0.557700
C891	C89	0.415000	0.111500	0.529160
H391	H39	0.427300	0.086200	0.524800
C901	C90	0.379000	0.144700	0.555330
C911	C91	0.395700	0.232400	0.509270
C921	C92	0.418700	0.238900	0.490340
C931	C93	0.432300	0.153600	0.495360
C941	C94	0.448800	0.114800	0.487920
H401	H40	0.447000	0.085900	0.496200
C951	C95	0.413600	0.150600	0.515630
C961	C96	0.436200	0.198500	0.482440
C971	C97	0.428500	0.287000	0.478580
H411	H41	0.443400	0.291100	0.465800
C981	C98	0.468000	0.118500	0.468180
C991	C99	0.454600	0.200000	0.462690
H421	H42	0.456000	0.227800	0.454000
C1001	C100	0.470400	0.161300	0.456140
H431	H43	0.483300	0.164100	0.443100
C1011	C101	0.416000	0.328500	0.486070
C1021	C102	0.390000	0.319900	0.504450
H441	H44	0.379800	0.346400	0.509300
C1031	C103	0.379400	0.272700	0.515590
H451	H45	0.360700	0.266900	0.527800
O271	O27	0.419700	0.199800	0.622590
C1041	C104	0.442700	0.227200	0.638230
C1051	C105	0.433800	0.382400	0.474270
O281	O28	0.421600	0.222100	0.655070
C1061	C106	0.486500	0.077000	0.460940
C1071	C107	0.506500	0.271100	0.637450
O291	O29	0.478900	0.035200	0.471820
O301	O30	0.430570	0.423550	0.481750
O311	O31	0.450100	0.383600	0.456270
O321	O32	0.509200	0.085600	0.444030
C1081	C108	0.606800	0.293200	0.636250
C1091	C109	0.625600	0.351900	0.635770
C1101	C110	0.546000	0.253000	0.636640
H461	H46	0.533000	0.213400	0.636300
C1111	C111	0.585000	0.370700	0.637100
H471	H47	0.597400	0.410200	0.637500
C1121	C112	0.525300	0.329400	0.637800
H481	H48	0.498300	0.341800	0.638500
Cd51	Cd5	0.995720	0.476650	0.947600
O331	O33	0.022570	0.437430	0.921430
O341	O34	0.017870	0.515530	0.915660
C1131	C113	0.027870	0.476630	0.910240
C1141	C114	0.060270	0.521330	0.855680
C1151	C115	0.042870	0.517230	0.875430
H491	H49	0.028970	0.541130	0.879930
C1161	C116	0.065570	0.442130	0.882300
H501	H50	0.068370	0.416630	0.891030
C1171	C117	0.081670	0.444830	0.862490
H511	H51	0.093970	0.419530	0.858130
C1181	C118	0.045670	0.478030	0.888660
C1191	C119	0.062370	0.565730	0.842600
C1201	C120	0.085370	0.572230	0.823670
C1211	C121	0.098970	0.486930	0.828690
C1221	C122	0.115470	0.448130	0.821250
H521	H52	0.113670	0.419230	0.829530
C1231	C123	0.080270	0.483930	0.848960
C1241	C124	0.102870	0.531830	0.815770
C1251	C125	0.095170	0.620330	0.811910
H531	H53	0.110070	0.624430	0.799130
C1261	C126	0.134670	0.451830	0.801510
C1271	C127	0.121270	0.533330	0.796020
H541	H54	0.122670	0.561130	0.787330
C1281	C128	0.137070	0.494630	0.789470
H551	H55	0.149970	0.497430	0.776430
C1291	C129	0.082670	0.661830	0.819400
C1301	C130	0.056670	0.653230	0.837780
H561	H56	0.046470	0.679730	0.842630
C1311	C131	0.046070	0.606030	0.848920
H571	H57	0.027370	0.600230	0.861130
O351	O35	0.086370	0.533130	0.955920
C1321	C132	0.109370	0.560530	0.971560
C1331	C133	0.100470	0.715730	0.807600
O361	O36	0.088270	0.555430	0.988400
C1341	C134	0.153170	0.410330	0.794270
C1351	C135	0.173170	0.604430	0.970780
O371	O37	0.145570	0.368530	0.805150
O381	O38	0.097240	0.756880	0.815080
O391	O39	0.116770	0.716930	0.789600
O401	O40	0.175870	0.418930	0.777360
C1361	C136	0.273470	0.626530	0.969580
C1371	C137	0.292270	0.685230	0.969100
C1381	C138	0.212670	0.586330	0.969970
H581	H58	0.199670	0.546730	0.969630
C1391	C139	0.251670	0.704030	0.970430
H591	H59	0.264070	0.743530	0.970830
C1401	C140	0.191970	0.662730	0.971130
H601	H60	0.164970	0.675130	0.971830
Cd61	Cd6	0.662380	0.809990	0.280930
O411	O41	0.689230	0.770770	0.254770
O421	O42	0.684530	0.848870	0.249000
C1411	C141	0.694530	0.809970	0.243580
C1421	C142	0.726930	0.854670	0.189020
C1431	C143	0.709530	0.850570	0.208770
H611	H61	0.695630	0.874470	0.213270
C1441	C144	0.732230	0.775470	0.215640
H621	H62	0.735030	0.749970	0.224370
C1451	C145	0.748330	0.778170	0.195830
H631	H63	0.760630	0.752870	0.191470
C1461	C146	0.712330	0.811370	0.222000
C1471	C147	0.729030	0.899070	0.175940
C1481	C148	0.752030	0.905570	0.157010
C1491	C149	0.765630	0.820270	0.162030
C1501	C150	0.782130	0.781470	0.154590
H641	H64	0.780330	0.752570	0.162870
C1511	C151	0.746930	0.817270	0.182300
C1521	C152	0.769530	0.865170	0.149110
C1531	C153	0.761830	0.953670	0.145250
H651	H65	0.776730	0.957770	0.132470
C1541	C154	0.801330	0.785170	0.134850
C1551	C155	0.787930	0.866670	0.129360
H661	H66	0.789330	0.894470	0.120670
C1561	C156	0.803730	0.827970	0.122810
H671	H67	0.816630	0.830770	0.109770
C1571	C157	0.749330	0.995170	0.152740
C1581	C158	0.723330	0.986570	0.171120
H681	H68	0.713130	0.013070	0.175970
C1591	C159	0.712730	0.939370	0.182260
H691	H69	0.694030	0.933570	0.194470
O431	O43	0.753030	0.866470	0.289260
C1601	C160	0.776030	0.893870	0.304900
C1611	C161	0.767130	0.049070	0.140940
O441	O44	0.754930	0.888770	0.321740
C1621	C162	0.819830	0.743670	0.127610
C1631	C163	0.839830	0.937770	0.304120
O451	O45	0.812230	0.701870	0.138490
O461	O46	0.763900	0.090220	0.148420
O471	O47	0.783430	0.050270	0.122940
O481	O48	0.842530	0.752270	0.110700
C1641	C164	0.940130	0.959870	0.302920
C1651	C165	0.958930	0.018570	0.302440
C1661	C166	0.879330	0.919670	0.303310
H701	H70	0.866330	0.880070	0.302970
C1671	C167	0.918330	0.037370	0.303770
H711	H71	0.930730	0.076870	0.304170
C1681	C168	0.858630	0.996070	0.304470
H721	H72	0.831630	0.008470	0.305170
Cd71	Cd7	0.856680	0.185730	0.614260
O491	O49	0.895900	0.251800	0.588100
O501	O50	0.817800	0.169000	0.582330
C1691	C169	0.856700	0.217900	0.576910
C1701	C170	0.812000	0.205600	0.522350
C1711	C171	0.816100	0.192300	0.542100
H731	H73	0.792200	0.154500	0.546600
C1721	C172	0.891200	0.290100	0.548970
H741	H74	0.916700	0.318400	0.557700
C1731	C173	0.888500	0.303500	0.529160
H751	H75	0.913800	0.341100	0.524800
C1741	C174	0.855300	0.234300	0.555330
C1751	C175	0.767600	0.163300	0.509270
C1761	C176	0.761100	0.179800	0.490340
C1771	C177	0.846400	0.278700	0.495360
C1781	C178	0.885200	0.334000	0.487920
H761	H76	0.914100	0.361100	0.496200
C1791	C179	0.849400	0.263000	0.515630
C1801	C180	0.801500	0.237700	0.482440
C1811	C181	0.713000	0.141500	0.478580
H771	H77	0.708900	0.152300	0.465800
C1821	C182	0.881500	0.349500	0.468180
C1831	C183	0.800000	0.254600	0.462690
H781	H78	0.772200	0.228200	0.454000
C1841	C184	0.838700	0.309100	0.456140
H791	H79	0.835900	0.319200	0.443100
C1851	C185	0.671500	0.087500	0.486070
C1861	C186	0.680100	0.070100	0.504450
H801	H80	0.653600	0.033400	0.509300
C1871	C187	0.727300	0.106700	0.515590
H811	H81	0.733100	0.093800	0.527800
O511	O51	0.800200	0.219900	0.622590
C1881	C188	0.772800	0.215500	0.638230
C1891	C189	0.617600	0.051400	0.474270
O521	O52	0.777900	0.199500	0.655070
C1901	C190	0.923000	0.409500	0.460940
C1911	C191	0.728900	0.235400	0.637450
O531	O53	0.964800	0.443700	0.471820
O541	O54	0.576450	0.007020	0.481750
O551	O55	0.616400	0.066500	0.456270
O561	O56	0.914400	0.423600	0.444030
C1921	C192	0.706800	0.313600	0.636250
C1931	C193	0.648100	0.273700	0.635770
C1941	C194	0.747000	0.293000	0.636640
H821	H82	0.786600	0.319600	0.636300
C1951	C195	0.629300	0.214300	0.637100
H831	H83	0.589800	0.187200	0.637500
C1961	C196	0.670600	0.195900	0.637800
H841	H84	0.658200	0.156500	0.638500
Cd81	Cd8	0.523350	0.519060	0.947600
O571	O57	0.562570	0.585130	0.921430
O581	O58	0.484470	0.502330	0.915660
C1971	C197	0.523370	0.551230	0.910240
C1981	C198	0.478670	0.538930	0.855680
C1991	C199	0.482770	0.525630	0.875430
H851	H85	0.458870	0.487830	0.879930
C2001	C200	0.557870	0.623430	0.882300
H861	H86	0.583370	0.651730	0.891030
C2011	C201	0.555170	0.636830	0.862490
H871	H87	0.580470	0.674430	0.858130
C2021	C202	0.521970	0.567630	0.888660
C2031	C203	0.434270	0.496630	0.842600
C2041	C204	0.427770	0.513130	0.823670
C2051	C205	0.513070	0.612030	0.828690
C2061	C206	0.551870	0.667330	0.821250
H881	H88	0.580770	0.694430	0.829530
C2071	C207	0.516070	0.596330	0.848960
C2081	C208	0.468170	0.571030	0.815770
C2091	C209	0.379670	0.474830	0.811910
H891	H89	0.375570	0.485630	0.799130
C2101	C210	0.548170	0.682830	0.801510
C2111	C211	0.466670	0.587930	0.796020
H901	H90	0.438870	0.561530	0.787330
C2121	C212	0.505370	0.642430	0.789470
H911	H91	0.502570	0.652530	0.776430
C2131	C213	0.338170	0.420830	0.819400
C2141	C214	0.346770	0.403430	0.837780
H921	H92	0.320270	0.366730	0.842630
C2151	C215	0.393970	0.440030	0.848920
H931	H93	0.399770	0.427130	0.861130
O591	O59	0.466870	0.553230	0.955920
C2161	C216	0.439470	0.548830	0.971560
C2171	C217	0.284270	0.384730	0.807600
O601	O60	0.444570	0.532830	0.988400
C2181	C218	0.589670	0.742830	0.794270
C2191	C219	0.395570	0.568730	0.970780
O611	O61	0.631470	0.777030	0.805150
O621	O62	0.243120	0.340350	0.815080
O631	O63	0.283070	0.399830	0.789600
O641	O64	0.581070	0.756930	0.777360
C2201	C220	0.373470	0.646930	0.969580
C2211	C221	0.314770	0.607030	0.969100
C2221	C222	0.413670	0.626330	0.969970
H941	H94	0.453270	0.652930	0.969630
C2231	C223	0.295970	0.547630	0.970430
H951	H95	0.256470	0.520530	0.970830
C2241	C224	0.337270	0.529230	0.971130
H961	H96	0.324870	0.489830	0.971830
Cd91	Cd9	0.190010	0.852400	0.280930
O651	O65	0.229230	0.918470	0.254770
O661	O66	0.151130	0.835670	0.249000
C2251	C225	0.190030	0.884570	0.243580
C2261	C226	0.145330	0.872270	0.189020
C2271	C227	0.149430	0.858970	0.208770
H971	H97	0.125530	0.821170	0.213270
C2281	C228	0.224530	0.956770	0.215640
H981	H98	0.250030	0.985070	0.224370
C2291	C229	0.221830	0.970170	0.195830
H991	H99	0.247130	0.007770	0.191470
C2301	C230	0.188630	0.900970	0.222000
C2311	C231	0.100930	0.829970	0.175940
C2321	C232	0.094430	0.846470	0.157010
C2331	C233	0.179730	0.945370	0.162030
C2341	C234	0.218530	0.000670	0.154590
H1001	H100	0.247430	0.027770	0.162870
C2351	C235	0.182730	0.929670	0.182300
C2361	C236	0.134830	0.904370	0.149110
C2371	C237	0.046330	0.808170	0.145250
H1011	H101	0.042230	0.818970	0.132470
C2381	C238	0.214830	0.016170	0.134850
C2391	C239	0.133330	0.921270	0.129360
H1021	H102	0.105530	0.894870	0.120670
C2401	C240	0.172030	0.975770	0.122810
H1031	H103	0.169230	0.985870	0.109770
C2411	C241	0.004830	0.754170	0.152740
C2421	C242	0.013430	0.736770	0.171120
H1041	H104	0.986930	0.700070	0.175970
C2431	C243	0.060630	0.773370	0.182260
H1051	H105	0.066430	0.760470	0.194470
O671	O67	0.133530	0.886570	0.289260
C2441	C244	0.106130	0.882170	0.304900
C2451	C245	0.950930	0.718070	0.140940
O681	O68	0.111230	0.866170	0.321740
C2461	C246	0.256330	0.076170	0.127610
C2471	C247	0.062230	0.902070	0.304120
O691	O69	0.298130	0.110370	0.138490
O701	O70	0.909780	0.673690	0.148420
O711	O71	0.949730	0.733170	0.122940
O721	O72	0.247730	0.090270	0.110700
C2481	C248	0.040130	0.980270	0.302920
C2491	C249	0.981430	0.940370	0.302440
C2501	C250	0.080330	0.959670	0.303310
H1061	H106	0.119930	0.986270	0.302970
C2511	C251	0.962630	0.880970	0.303770
H1071	H107	0.923130	0.853870	0.304170
C2521	C252	0.003930	0.862570	0.304470
H1081	H108	0.991530	0.823170	0.305170
Cd101	Cd10	0.670950	0.814270	0.885740
O731	O73	0.644100	0.748200	0.911900
O741	O74	0.648800	0.831000	0.917670
C2531	C253	0.638800	0.782100	0.923090
C2541	C254	0.606400	0.794400	0.977650
C2551	C255	0.623800	0.807700	0.957900
H1091	H109	0.637700	0.845500	0.953400
C2561	C256	0.601100	0.709900	0.951030
H1101	H110	0.598300	0.681600	0.942300
C2571	C257	0.585000	0.696500	0.970840
H1111	H111	0.572700	0.658900	0.975200
C2581	C258	0.621000	0.765700	0.944670
C2591	C259	0.604300	0.836700	0.990730
C2601	C260	0.581300	0.820200	0.009660
C2611	C261	0.567700	0.721300	0.004640
C2621	C262	0.551200	0.666000	0.012080
H1121	H112	0.553000	0.638900	0.003800
C2631	C263	0.586400	0.737000	0.984370
C2641	C264	0.563800	0.762300	0.017560
C2651	C265	0.571500	0.858500	0.021420
H1131	H113	0.556600	0.847700	0.034200
C2661	C266	0.532000	0.650500	0.031820
C2671	C267	0.545400	0.745400	0.037310
H1141	H114	0.544000	0.771800	0.046000
C2681	C268	0.529600	0.690900	0.043860
H1151	H115	0.516700	0.680800	0.056900
C2691	C269	0.584000	0.912500	0.013930
C2701	C270	0.610000	0.929900	0.995550
H1161	H116	0.620200	0.966600	0.990700
C2711	C271	0.620600	0.893300	0.984410
H1171	H117	0.639300	0.906200	0.972200
O751	O75	0.580300	0.780100	0.877410
C2721	C272	0.557300	0.784500	0.861770
C2731	C273	0.566200	0.948600	0.025730
O761	O76	0.578400	0.800500	0.844930
C2741	C274	0.513500	0.590500	0.039060
C2751	C275	0.493500	0.764600	0.862550
O771	O77	0.521100	0.556300	0.028180
O781	O78	0.569430	0.992980	0.018250
O791	O79	0.549900	0.933500	0.043730
O801	O80	0.490800	0.576400	0.055970
C2761	C276	0.393200	0.686400	0.863750
C2771	C277	0.374400	0.726300	0.864230
C2781	C278	0.454000	0.707000	0.863360
H1181	H118	0.467000	0.680400	0.863700
C2791	C279	0.415000	0.785700	0.862900
H1191	H119	0.402600	0.812800	0.862500
C2801	C280	0.474700	0.804100	0.862200
H1201	H120	0.501700	0.843500	0.861500
Cd111	Cd11	0.337620	0.147600	0.219070
O811	O81	0.310770	0.081530	0.245230
O821	O82	0.315470	0.164330	0.251000
C2811	C281	0.305470	0.115430	0.256420
C2821	C282	0.273070	0.127730	0.310980
C2831	C283	0.290470	0.141030	0.291230
H1211	H121	0.304370	0.178830	0.286730
C2841	C284	0.267770	0.043230	0.284360
H1221	H122	0.264970	0.014930	0.275630
C2851	C285	0.251670	0.029830	0.304170
H1231	H123	0.239370	0.992230	0.308530
C2861	C286	0.287670	0.099030	0.278000
C2871	C287	0.270970	0.170030	0.324060
C2881	C288	0.247970	0.153530	0.342990
C2891	C289	0.234370	0.054630	0.337970
C2901	C290	0.217870	0.999330	0.345410
H1241	H124	0.219670	0.972230	0.337130
C2911	C291	0.253070	0.070330	0.317700
C2921	C292	0.230470	0.095630	0.350890
C2931	C293	0.238170	0.191830	0.354750
H1251	H125	0.223270	0.181030	0.367530
C2941	C294	0.198670	0.983830	0.365150
C2951	C295	0.212070	0.078730	0.370640
H1261	H126	0.210670	0.105130	0.379330
C2961	C296	0.196270	0.024230	0.377190
H1271	H127	0.183370	0.014130	0.390230
C2971	C297	0.250670	0.245830	0.347260
C2981	C298	0.276670	0.263230	0.328880
H1281	H128	0.286870	0.299930	0.324030
C2991	C299	0.287270	0.226630	0.317740
H1291	H129	0.305970	0.239530	0.305530
O831	O83	0.246970	0.113430	0.210740
C3001	C300	0.223970	0.117830	0.195100
C3011	C301	0.232870	0.281930	0.359060
O841	O84	0.245070	0.133830	0.178260
C3021	C302	0.180170	0.923830	0.372390
C3031	C303	0.160170	0.097930	0.195880
O851	O85	0.187770	0.889630	0.361510
O861	O86	0.236100	0.326310	0.351580
O871	O87	0.216570	0.266830	0.377060
O881	O88	0.157470	0.909730	0.389300
C3041	C304	0.059870	0.019730	0.197080
C3051	C305	0.041070	0.059630	0.197560
C3061	C306	0.120670	0.040330	0.196690
H1301	H130	0.133670	0.013730	0.197030
C3071	C307	0.081670	0.119030	0.196230
H1311	H131	0.069270	0.146130	0.195830
C3081	C308	0.141370	0.137430	0.195530
H1321	H132	0.168370	0.176830	0.194830
Cd121	Cd12	0.004280	0.480940	0.552400
O891	O89	0.977430	0.414870	0.578570
O901	O90	0.982130	0.497670	0.584340
C3091	C309	0.972130	0.448770	0.589760
C3101	C310	0.939730	0.461070	0.644320
C3111	C311	0.957130	0.474370	0.624570
H1331	H133	0.971030	0.512170	0.620070
C3121	C312	0.934430	0.376570	0.617700
H1341	H134	0.931630	0.348270	0.608970
C3131	C313	0.918330	0.363170	0.637510
H1351	H135	0.906030	0.325570	0.641870
C3141	C314	0.954330	0.432370	0.611340
C3151	C315	0.937630	0.503370	0.657400
C3161	C316	0.914630	0.486870	0.676330
C3171	C317	0.901030	0.387970	0.671310
C3181	C318	0.884530	0.332670	0.678750
H1361	H136	0.886330	0.305570	0.670470
C3191	C319	0.919730	0.403670	0.651040
C3201	C320	0.897130	0.428970	0.684230
C3211	C321	0.904830	0.525170	0.688090
H1371	H137	0.889930	0.514370	0.700870
C3221	C322	0.865330	0.317170	0.698490
C3231	C323	0.878730	0.412070	0.703980
H1381	H138	0.877330	0.438470	0.712670
C3241	C324	0.862930	0.357570	0.710530
H1391	H139	0.850030	0.347470	0.723570
C3251	C325	0.917330	0.579170	0.680600
C3261	C326	0.943330	0.596570	0.662220
H1401	H140	0.953530	0.633270	0.657370
C3271	C327	0.953930	0.559970	0.651080
H1411	H141	0.972630	0.572870	0.638870
O911	O91	0.913630	0.446770	0.544080
C3281	C328	0.890630	0.451170	0.528440
C3291	C329	0.899530	0.615270	0.692400
O921	O92	0.911730	0.467170	0.511600
C3301	C330	0.846830	0.257170	0.705730
C3311	C331	0.826830	0.431270	0.529220
O931	O93	0.854430	0.222970	0.694850
O941	O94	0.902760	0.659650	0.684920
O951	O95	0.883230	0.600170	0.710400
O961	O96	0.824130	0.243070	0.722640
C3321	C332	0.726530	0.353070	0.530420
C3331	C333	0.707730	0.392970	0.530900
C3341	C334	0.787330	0.373670	0.530030
H1421	H142	0.800330	0.347070	0.530370
C3351	C335	0.748330	0.452370	0.529570
H1431	H143	0.735930	0.479470	0.529170
C3361	C336	0.808030	0.470770	0.528870
H1441	H144	0.835030	0.510170	0.528170
Cd131	Cd13	0.143320	0.329050	0.885740
O971	O97	0.104100	0.355900	0.911900
O981	O98	0.182200	0.351200	0.917670
C3371	C337	0.143300	0.361200	0.923090
C3381	C338	0.188000	0.393600	0.977650
C3391	C339	0.183900	0.376200	0.957900
H1451	H145	0.207800	0.362300	0.953400
C3401	C340	0.108800	0.398900	0.951030
H1461	H146	0.083300	0.401700	0.942300
C3411	C341	0.111500	0.415000	0.970840
H1471	H147	0.086200	0.427300	0.975200
C3421	C342	0.144700	0.379000	0.944670
C3431	C343	0.232400	0.395700	0.990730
C3441	C344	0.238900	0.418700	0.009660
C3451	C345	0.153600	0.432300	0.004640
C3461	C346	0.114800	0.448800	0.012080
H1481	H148	0.085900	0.447000	0.003800
C3471	C347	0.150600	0.413600	0.984370
C3481	C348	0.198500	0.436200	0.017560
C3491	C349	0.287000	0.428500	0.021420
H1491	H149	0.291100	0.443400	0.034200
C3501	C350	0.118500	0.468000	0.031820
C3511	C351	0.200000	0.454600	0.037310
H1501	H150	0.227800	0.456000	0.046000
C3521	C352	0.161300	0.470400	0.043860
H1511	H151	0.164100	0.483300	0.056900
C3531	C353	0.328500	0.416000	0.013930
C3541	C354	0.319900	0.390000	0.995550
H1521	H152	0.346400	0.379800	0.990700
C3551	C355	0.272700	0.379400	0.984410
H1531	H153	0.266900	0.360700	0.972200
O991	O99	0.199800	0.419700	0.877410
C3561	C356	0.227200	0.442700	0.861770
C3571	C357	0.382400	0.433800	0.025730
O1001	O100	0.222100	0.421600	0.844930
C3581	C358	0.077000	0.486500	0.039060
C3591	C359	0.271100	0.506500	0.862550
O1011	O101	0.035200	0.478900	0.028180
O1021	O102	0.423550	0.430570	0.018250
O1031	O103	0.383600	0.450100	0.043730
O1041	O104	0.085600	0.509200	0.055970
C3601	C360	0.293200	0.606800	0.863750
C3611	C361	0.351900	0.625600	0.864230
C3621	C362	0.253000	0.546000	0.863360
H1541	H154	0.213400	0.533000	0.863700
C3631	C363	0.370700	0.585000	0.862900
H1551	H155	0.410200	0.597400	0.862500
C3641	C364	0.329400	0.525300	0.862200
H1561	H156	0.341800	0.498300	0.861500
Cd141	Cd14	0.809990	0.662380	0.219070
O1051	O105	0.770770	0.689230	0.245230
O1061	O106	0.848870	0.684530	0.251000
C3651	C365	0.809970	0.694530	0.256420
C3661	C366	0.854670	0.726930	0.310980
C3671	C367	0.850570	0.709530	0.291230
H1571	H157	0.874470	0.695630	0.286730
C3681	C368	0.775470	0.732230	0.284360
H1581	H158	0.749970	0.735030	0.275630
C3691	C369	0.778170	0.748330	0.304170
H1591	H159	0.752870	0.760630	0.308530
C3701	C370	0.811370	0.712330	0.278000
C3711	C371	0.899070	0.729030	0.324060
C3721	C372	0.905570	0.752030	0.342990
C3731	C373	0.820270	0.765630	0.337970
C3741	C374	0.781470	0.782130	0.345410
H1601	H160	0.752570	0.780330	0.337130
C3751	C375	0.817270	0.746930	0.317700
C3761	C376	0.865170	0.769530	0.350890
C3771	C377	0.953670	0.761830	0.354750
H1611	H161	0.957770	0.776730	0.367530
C3781	C378	0.785170	0.801330	0.365150
C3791	C379	0.866670	0.787930	0.370640
H1621	H162	0.894470	0.789330	0.379330
C3801	C380	0.827970	0.803730	0.377190
H1631	H163	0.830770	0.816630	0.390230
C3811	C381	0.995170	0.749330	0.347260
C3821	C382	0.986570	0.723330	0.328880
H1641	H164	0.013070	0.713130	0.324030
C3831	C383	0.939370	0.712730	0.317740
H1651	H165	0.933570	0.694030	0.305530
O1071	O107	0.866470	0.753030	0.210740
C3841	C384	0.893870	0.776030	0.195100
C3851	C385	0.049070	0.767130	0.359060
O1081	O108	0.888770	0.754930	0.178260
C3861	C386	0.743670	0.819830	0.372390
C3871	C387	0.937770	0.839830	0.195880
O1091	O109	0.701870	0.812230	0.361510
O1101	O110	0.090220	0.763900	0.351580
O1111	O111	0.050270	0.783430	0.377060
O1121	O112	0.752270	0.842530	0.389300
C3881	C388	0.959870	0.940130	0.197080
C3891	C389	0.018570	0.958930	0.197560
C3901	C390	0.919670	0.879330	0.196690
H1661	H166	0.880070	0.866330	0.197030
C3911	C391	0.037370	0.918330	0.196230
H1671	H167	0.076870	0.930730	0.195830
C3921	C392	0.996070	0.858630	0.195530
H1681	H168	0.008470	0.831630	0.194830
Cd151	Cd15	0.476650	0.995720	0.552400
O1131	O113	0.437430	0.022570	0.578570
O1141	O114	0.515530	0.017870	0.584340
C3931	C393	0.476630	0.027870	0.589760
C3941	C394	0.521330	0.060270	0.644320
C3951	C395	0.517230	0.042870	0.624570
H1691	H169	0.541130	0.028970	0.620070
C3961	C396	0.442130	0.065570	0.617700
H1701	H170	0.416630	0.068370	0.608970
C3971	C397	0.444830	0.081670	0.637510
H1711	H171	0.419530	0.093970	0.641870
C3981	C398	0.478030	0.045670	0.611340
C3991	C399	0.565730	0.062370	0.657400
C4001	C400	0.572230	0.085370	0.676330
C4011	C401	0.486930	0.098970	0.671310
C4021	C402	0.448130	0.115470	0.678750
H1721	H172	0.419230	0.113670	0.670470
C4031	C403	0.483930	0.080270	0.651040
C4041	C404	0.531830	0.102870	0.684230
C4051	C405	0.620330	0.095170	0.688090
H1731	H173	0.624430	0.110070	0.700870
C4061	C406	0.451830	0.134670	0.698490
C4071	C407	0.533330	0.121270	0.703980
H1741	H174	0.561130	0.122670	0.712670
C4081	C408	0.494630	0.137070	0.710530
H1751	H175	0.497430	0.149970	0.723570
C4091	C409	0.661830	0.082670	0.680600
C4101	C410	0.653230	0.056670	0.662220
H1761	H176	0.679730	0.046470	0.657370
C4111	C411	0.606030	0.046070	0.651080
H1771	H177	0.600230	0.027370	0.638870
O1151	O115	0.533130	0.086370	0.544080
C4121	C412	0.560530	0.109370	0.528440
C4131	C413	0.715730	0.100470	0.692400
O1161	O116	0.555430	0.088270	0.511600
C4141	C414	0.410330	0.153170	0.705730
C4151	C415	0.604430	0.173170	0.529220
O1171	O117	0.368530	0.145570	0.694850
O1181	O118	0.756880	0.097240	0.684920
O1191	O119	0.716930	0.116770	0.710400
O1201	O120	0.418930	0.175870	0.722640
C4161	C416	0.626530	0.273470	0.530420
C4171	C417	0.685230	0.292270	0.530900
C4181	C418	0.586330	0.212670	0.530030
H1781	H178	0.546730	0.199670	0.530370
C4191	C419	0.704030	0.251670	0.529570
H1791	H179	0.743530	0.264070	0.529170
C4201	C420	0.662730	0.191970	0.528870
H1801	H180	0.675130	0.164970	0.528170
Cd161	Cd16	0.185730	0.856680	0.885740
O1211	O121	0.251800	0.895900	0.911900
O1221	O122	0.169000	0.817800	0.917670
C4211	C421	0.217900	0.856700	0.923090
C4221	C422	0.205600	0.812000	0.977650
C4231	C423	0.192300	0.816100	0.957900
H1811	H181	0.154500	0.792200	0.953400
C4241	C424	0.290100	0.891200	0.951030
H1821	H182	0.318400	0.916700	0.942300
C4251	C425	0.303500	0.888500	0.970840
H1831	H183	0.341100	0.913800	0.975200
C4261	C426	0.234300	0.855300	0.944670
C4271	C427	0.163300	0.767600	0.990730
C4281	C428	0.179800	0.761100	0.009660
C4291	C429	0.278700	0.846400	0.004640
C4301	C430	0.334000	0.885200	0.012080
H1841	H184	0.361100	0.914100	0.003800
C4311	C431	0.263000	0.849400	0.984370
C4321	C432	0.237700	0.801500	0.017560
C4331	C433	0.141500	0.713000	0.021420
H1851	H185	0.152300	0.708900	0.034200
C4341	C434	0.349500	0.881500	0.031820
C4351	C435	0.254600	0.800000	0.037310
H1861	H186	0.228200	0.772200	0.046000
C4361	C436	0.309100	0.838700	0.043860
H1871	H187	0.319200	0.835900	0.056900
C4371	C437	0.087500	0.671500	0.013930
C4381	C438	0.070100	0.680100	0.995550
H1881	H188	0.033400	0.653600	0.990700
C4391	C439	0.106700	0.727300	0.984410
H1891	H189	0.093800	0.733100	0.972200
O1231	O123	0.219900	0.800200	0.877410
C4401	C440	0.215500	0.772800	0.861770
C4411	C441	0.051400	0.617600	0.025730
O1241	O124	0.199500	0.777900	0.844930
C4421	C442	0.409500	0.923000	0.039060
C4431	C443	0.235400	0.728900	0.862550
O1251	O125	0.443700	0.964800	0.028180
O1261	O126	0.007020	0.576450	0.018250
O1271	O127	0.066500	0.616400	0.043730
O1281	O128	0.423600	0.914400	0.055970
C4441	C444	0.313600	0.706800	0.863750
C4451	C445	0.273700	0.648100	0.864230
C4461	C446	0.293000	0.747000	0.863360
H1901	H190	0.319600	0.786600	0.863700
C4471	C447	0.214300	0.629300	0.862900
H1911	H191	0.187200	0.589800	0.862500
C4481	C448	0.195900	0.670600	0.862200
H1921	H192	0.156500	0.658200	0.861500
Cd171	Cd17	0.852400	0.190010	0.219070
O1291	O129	0.918470	0.229230	0.245230
O1301	O130	0.835670	0.151130	0.251000
C4491	C449	0.884570	0.190030	0.256420
C4501	C450	0.872270	0.145330	0.310980
C4511	C451	0.858970	0.149430	0.291230
H1931	H193	0.821170	0.125530	0.286730
C4521	C452	0.956770	0.224530	0.284360
H1941	H194	0.985070	0.250030	0.275630
C4531	C453	0.970170	0.221830	0.304170
H1951	H195	0.007770	0.247130	0.308530
C4541	C454	0.900970	0.188630	0.278000
C4551	C455	0.829970	0.100930	0.324060
C4561	C456	0.846470	0.094430	0.342990
C4571	C457	0.945370	0.179730	0.337970
C4581	C458	0.000670	0.218530	0.345410
H1961	H196	0.027770	0.247430	0.337130
C4591	C459	0.929670	0.182730	0.317700
C4601	C460	0.904370	0.134830	0.350890
C4611	C461	0.808170	0.046330	0.354750
H1971	H197	0.818970	0.042230	0.367530
C4621	C462	0.016170	0.214830	0.365150
C4631	C463	0.921270	0.133330	0.370640
H1981	H198	0.894870	0.105530	0.379330
C4641	C464	0.975770	0.172030	0.377190
H1991	H199	0.985870	0.169230	0.390230
C4651	C465	0.754170	0.004830	0.347260
C4661	C466	0.736770	0.013430	0.328880
H2001	H200	0.700070	0.986930	0.324030
C4671	C467	0.773370	0.060630	0.317740
H2011	H201	0.760470	0.066430	0.305530
O1311	O131	0.886570	0.133530	0.210740
C4681	C468	0.882170	0.106130	0.195100
C4691	C469	0.718070	0.950930	0.359060
O1321	O132	0.866170	0.111230	0.178260
C4701	C470	0.076170	0.256330	0.372390
C4711	C471	0.902070	0.062230	0.195880
O1331	O133	0.110370	0.298130	0.361510
O1341	O134	0.673690	0.909780	0.351580
O1351	O135	0.733170	0.949730	0.377060
O1361	O136	0.090270	0.247730	0.389300
C4721	C472	0.980270	0.040130	0.197080
C4731	C473	0.940370	0.981430	0.197560
C4741	C474	0.959670	0.080330	0.196690
H2021	H202	0.986270	0.119930	0.197030
C4751	C475	0.880970	0.962630	0.196230
H2031	H203	0.853870	0.923130	0.195830
C4761	C476	0.862570	0.003930	0.195530
H2041	H204	0.823170	0.991530	0.194830
Cd181	Cd18	0.519060	0.523350	0.552400
O1371	O137	0.585130	0.562570	0.578570
O1381	O138	0.502330	0.484470	0.584340
C4771	C477	0.551230	0.523370	0.589760
C4781	C478	0.538930	0.478670	0.644320
C4791	C479	0.525630	0.482770	0.624570
H2051	H205	0.487830	0.458870	0.620070
C4801	C480	0.623430	0.557870	0.617700
H2061	H206	0.651730	0.583370	0.608970
C4811	C481	0.636830	0.555170	0.637510
H2071	H207	0.674430	0.580470	0.641870
C4821	C482	0.567630	0.521970	0.611340
C4831	C483	0.496630	0.434270	0.657400
C4841	C484	0.513130	0.427770	0.676330
C4851	C485	0.612030	0.513070	0.671310
C4861	C486	0.667330	0.551870	0.678750
H2081	H208	0.694430	0.580770	0.670470
C4871	C487	0.596330	0.516070	0.651040
C4881	C488	0.571030	0.468170	0.684230
C4891	C489	0.474830	0.379670	0.688090
H2091	H209	0.485630	0.375570	0.700870
C4901	C490	0.682830	0.548170	0.698490
C4911	C491	0.587930	0.466670	0.703980
H2101	H210	0.561530	0.438870	0.712670
C4921	C492	0.642430	0.505370	0.710530
H2111	H211	0.652530	0.502570	0.723570
C4931	C493	0.420830	0.338170	0.680600
C4941	C494	0.403430	0.346770	0.662220
H2121	H212	0.366730	0.320270	0.657370
C4951	C495	0.440030	0.393970	0.651080
H2131	H213	0.427130	0.399770	0.638870
O1391	O139	0.553230	0.466870	0.544080
C4961	C496	0.548830	0.439470	0.528440
C4971	C497	0.384730	0.284270	0.692400
O1401	O140	0.532830	0.444570	0.511600
C4981	C498	0.742830	0.589670	0.705730
C4991	C499	0.568730	0.395570	0.529220
O1411	O141	0.777030	0.631470	0.694850
O1421	O142	0.340350	0.243120	0.684920
O1431	O143	0.399830	0.283070	0.710400
O1441	O144	0.756930	0.581070	0.722640
C5001	C500	0.646930	0.373470	0.530420
C5011	C501	0.607030	0.314770	0.530900
C5021	C502	0.626330	0.413670	0.530030
H2141	H214	0.652930	0.453270	0.530370
C5031	C503	0.547630	0.295970	0.529570
H2151	H215	0.520530	0.256470	0.529170
C5041	C504	0.529230	0.337270	0.528870
H2161	H216	0.489830	0.324870	0.528170
Cd191	Cd19	0.185730	0.329050	0.385740
O1451	O145	0.251800	0.355900	0.411900
O1461	O146	0.169000	0.351200	0.417670
C5051	C505	0.217900	0.361200	0.423090
C5061	C506	0.205600	0.393600	0.477650
C5071	C507	0.192300	0.376200	0.457900
H2171	H217	0.154500	0.362300	0.453400
C5081	C508	0.290100	0.398900	0.451030
H2181	H218	0.318400	0.401700	0.442300
C5091	C509	0.303500	0.415000	0.470840
H2191	H219	0.341100	0.427300	0.475200
C5101	C510	0.234300	0.379000	0.444670
C5111	C511	0.163300	0.395700	0.490730
C5121	C512	0.179800	0.418700	0.509660
C5131	C513	0.278700	0.432300	0.504640
C5141	C514	0.334000	0.448800	0.512080
H2201	H220	0.361100	0.447000	0.503800
C5151	C515	0.263000	0.413600	0.484370
C5161	C516	0.237700	0.436200	0.517560
C5171	C517	0.141500	0.428500	0.521420
H2211	H221	0.152300	0.443400	0.534200
C5181	C518	0.349500	0.468000	0.531820
C5191	C519	0.254600	0.454600	0.537310
H2221	H222	0.228200	0.456000	0.546000
C5201	C520	0.309100	0.470400	0.543860
H2231	H223	0.319200	0.483300	0.556900
C5211	C521	0.087500	0.416000	0.513930
C5221	C522	0.070100	0.390000	0.495550
H2241	H224	0.033400	0.379800	0.490700
C5231	C523	0.106700	0.379400	0.484410
H2251	H225	0.093800	0.360700	0.472200
O1471	O147	0.219900	0.419700	0.377410
C5241	C524	0.215500	0.442700	0.361770
C5251	C525	0.051400	0.433800	0.525730
O1481	O148	0.199500	0.421600	0.344930
C5261	C526	0.409500	0.486500	0.539060
C5271	C527	0.235400	0.506500	0.362550
O1491	O149	0.443700	0.478900	0.528180
O1501	O150	0.007020	0.430570	0.518250
O1511	O151	0.066500	0.450100	0.543730
O1521	O152	0.423600	0.509200	0.555970
C5281	C528	0.313600	0.606800	0.363750
C5291	C529	0.273700	0.625600	0.364230
C5301	C530	0.293000	0.546000	0.363360
H2261	H226	0.319600	0.533000	0.363700
C5311	C531	0.214300	0.585000	0.362900
H2271	H227	0.187200	0.597400	0.362500
C5321	C532	0.195900	0.525300	0.362200
H2281	H228	0.156500	0.498300	0.361500
Cd201	Cd20	0.852400	0.662380	0.719070
O1531	O153	0.918470	0.689230	0.745230
O1541	O154	0.835670	0.684530	0.751000
C5331	C533	0.884570	0.694530	0.756420
C5341	C534	0.872270	0.726930	0.810980
C5351	C535	0.858970	0.709530	0.791230
H2291	H229	0.821170	0.695630	0.786730
C5361	C536	0.956770	0.732230	0.784360
H2301	H230	0.985070	0.735030	0.775630
C5371	C537	0.970170	0.748330	0.804170
H2311	H231	0.007770	0.760630	0.808530
C5381	C538	0.900970	0.712330	0.778000
C5391	C539	0.829970	0.729030	0.824060
C5401	C540	0.846470	0.752030	0.842990
C5411	C541	0.945370	0.765630	0.837970
C5421	C542	0.000670	0.782130	0.845410
H2321	H232	0.027770	0.780330	0.837130
C5431	C543	0.929670	0.746930	0.817700
C5441	C544	0.904370	0.769530	0.850890
C5451	C545	0.808170	0.761830	0.854750
H2331	H233	0.818970	0.776730	0.867530
C5461	C546	0.016170	0.801330	0.865150
C5471	C547	0.921270	0.787930	0.870640
H2341	H234	0.894870	0.789330	0.879330
C5481	C548	0.975770	0.803730	0.877190
H2351	H235	0.985870	0.816630	0.890230
C5491	C549	0.754170	0.749330	0.847260
C5501	C550	0.736770	0.723330	0.828880
H2361	H236	0.700070	0.713130	0.824030
C5511	C551	0.773370	0.712730	0.817740
H2371	H237	0.760470	0.694030	0.805530
O1551	O155	0.886570	0.753030	0.710740
C5521	C552	0.882170	0.776030	0.695100
C5531	C553	0.718070	0.767130	0.859060
O1561	O156	0.866170	0.754930	0.678260
C5541	C554	0.076170	0.819830	0.872390
C5551	C555	0.902070	0.839830	0.695880
O1571	O157	0.110370	0.812230	0.861510
O1581	O158	0.673690	0.763900	0.851580
O1591	O159	0.733170	0.783430	0.877060
O1601	O160	0.090270	0.842530	0.889300
C5561	C556	0.980270	0.940130	0.697080
C5571	C557	0.940370	0.958930	0.697560
C5581	C558	0.959670	0.879330	0.696690
H2381	H238	0.986270	0.866330	0.697030
C5591	C559	0.880970	0.918330	0.696230
H2391	H239	0.853870	0.930730	0.695830
C5601	C560	0.862570	0.858630	0.695530
H2401	H240	0.823170	0.831630	0.694830
Cd211	Cd21	0.519060	0.995720	0.052400
O1611	O161	0.585130	0.022570	0.078570
O1621	O162	0.502330	0.017870	0.084340
C5611	C561	0.551230	0.027870	0.089760
C5621	C562	0.538930	0.060270	0.144320
C5631	C563	0.525630	0.042870	0.124570
H2411	H241	0.487830	0.028970	0.120070
C5641	C564	0.623430	0.065570	0.117700
H2421	H242	0.651730	0.068370	0.108970
C5651	C565	0.636830	0.081670	0.137510
H2431	H243	0.674430	0.093970	0.141870
C5661	C566	0.567630	0.045670	0.111340
C5671	C567	0.496630	0.062370	0.157400
C5681	C568	0.513130	0.085370	0.176330
C5691	C569	0.612030	0.098970	0.171310
C5701	C570	0.667330	0.115470	0.178750
H2441	H244	0.694430	0.113670	0.170470
C5711	C571	0.596330	0.080270	0.151040
C5721	C572	0.571030	0.102870	0.184230
C5731	C573	0.474830	0.095170	0.188090
H2451	H245	0.485630	0.110070	0.200870
C5741	C574	0.682830	0.134670	0.198490
C5751	C575	0.587930	0.121270	0.203980
H2461	H246	0.561530	0.122670	0.212670
C5761	C576	0.642430	0.137070	0.210530
H2471	H247	0.652530	0.149970	0.223570
C5771	C577	0.420830	0.082670	0.180600
C5781	C578	0.403430	0.056670	0.162220
H2481	H248	0.366730	0.046470	0.157370
C5791	C579	0.440030	0.046070	0.151080
H2491	H249	0.427130	0.027370	0.138870
O1631	O163	0.553230	0.086370	0.044080
C5801	C580	0.548830	0.109370	0.028440
C5811	C581	0.384730	0.100470	0.192400
O1641	O164	0.532830	0.088270	0.011600
C5821	C582	0.742830	0.153170	0.205730
C5831	C583	0.568730	0.173170	0.029220
O1651	O165	0.777030	0.145570	0.194850
O1661	O166	0.340350	0.097240	0.184920
O1671	O167	0.399830	0.116770	0.210400
O1681	O168	0.756930	0.175870	0.222640
C5841	C584	0.646930	0.273470	0.030420
C5851	C585	0.607030	0.292270	0.030900
C5861	C586	0.626330	0.212670	0.030030
H2501	H250	0.652930	0.199670	0.030370
C5871	C587	0.547630	0.251670	0.029570
H2511	H251	0.520530	0.264070	0.029170
C5881	C588	0.529230	0.191970	0.028870
H2521	H252	0.489830	0.164970	0.028170
Cd221	Cd22	0.670950	0.856680	0.385740
O1691	O169	0.644100	0.895900	0.411900
O1701	O170	0.648800	0.817800	0.417670
C5891	C589	0.638800	0.856700	0.423090
C5901	C590	0.606400	0.812000	0.477650
C5911	C591	0.623800	0.816100	0.457900
H2531	H253	0.637700	0.792200	0.453400
C5921	C592	0.601100	0.891200	0.451030
H2541	H254	0.598300	0.916700	0.442300
C5931	C593	0.585000	0.888500	0.470840
H2551	H255	0.572700	0.913800	0.475200
C5941	C594	0.621000	0.855300	0.444670
C5951	C595	0.604300	0.767600	0.490730
C5961	C596	0.581300	0.761100	0.509660
C5971	C597	0.567700	0.846400	0.504640
C5981	C598	0.551200	0.885200	0.512080
H2561	H256	0.553000	0.914100	0.503800
C5991	C599	0.586400	0.849400	0.484370
C6001	C600	0.563800	0.801500	0.517560
C6011	C601	0.571500	0.713000	0.521420
H2571	H257	0.556600	0.708900	0.534200
C6021	C602	0.532000	0.881500	0.531820
C6031	C603	0.545400	0.800000	0.537310
H2581	H258	0.544000	0.772200	0.546000
C6041	C604	0.529600	0.838700	0.543860
H2591	H259	0.516700	0.835900	0.556900
C6051	C605	0.584000	0.671500	0.513930
C6061	C606	0.610000	0.680100	0.495550
H2601	H260	0.620200	0.653600	0.490700
C6071	C607	0.620600	0.727300	0.484410
H2611	H261	0.639300	0.733100	0.472200
O1711	O171	0.580300	0.800200	0.377410
C6081	C608	0.557300	0.772800	0.361770
C6091	C609	0.566200	0.617600	0.525730
O1721	O172	0.578400	0.777900	0.344930
C6101	C610	0.513500	0.923000	0.539060
C6111	C611	0.493500	0.728900	0.362550
O1731	O173	0.521100	0.964800	0.528180
O1741	O174	0.569430	0.576450	0.518250
O1751	O175	0.549900	0.616400	0.543730
O1761	O176	0.490800	0.914400	0.555970
C6121	C612	0.393200	0.706800	0.363750
C6131	C613	0.374400	0.648100	0.364230
C6141	C614	0.454000	0.747000	0.363360
H2621	H262	0.467000	0.786600	0.363700
C6151	C615	0.415000	0.629300	0.362900
H2631	H263	0.402600	0.589800	0.362500
C6161	C616	0.474700	0.670600	0.362200
H2641	H264	0.501700	0.658200	0.361500
Cd231	Cd23	0.337620	0.190010	0.719070
O1771	O177	0.310770	0.229230	0.745230
O1781	O178	0.315470	0.151130	0.751000
C6171	C617	0.305470	0.190030	0.756420
C6181	C618	0.273070	0.145330	0.810980
C6191	C619	0.290470	0.149430	0.791230
H2651	H265	0.304370	0.125530	0.786730
C6201	C620	0.267770	0.224530	0.784360
H2661	H266	0.264970	0.250030	0.775630
C6211	C621	0.251670	0.221830	0.804170
H2671	H267	0.239370	0.247130	0.808530
C6221	C622	0.287670	0.188630	0.778000
C6231	C623	0.270970	0.100930	0.824060
C6241	C624	0.247970	0.094430	0.842990
C6251	C625	0.234370	0.179730	0.837970
C6261	C626	0.217870	0.218530	0.845410
H2681	H268	0.219670	0.247430	0.837130
C6271	C627	0.253070	0.182730	0.817700
C6281	C628	0.230470	0.134830	0.850890
C6291	C629	0.238170	0.046330	0.854750
H2691	H269	0.223270	0.042230	0.867530
C6301	C630	0.198670	0.214830	0.865150
C6311	C631	0.212070	0.133330	0.870640
H2701	H270	0.210670	0.105530	0.879330
C6321	C632	0.196270	0.172030	0.877190
H2711	H271	0.183370	0.169230	0.890230
C6331	C633	0.250670	0.004830	0.847260
C6341	C634	0.276670	0.013430	0.828880
H2721	H272	0.286870	0.986930	0.824030
C6351	C635	0.287270	0.060630	0.817740
H2731	H273	0.305970	0.066430	0.805530
O1791	O179	0.246970	0.133530	0.710740
C6361	C636	0.223970	0.106130	0.695100
C6371	C637	0.232870	0.950930	0.859060
O1801	O180	0.245070	0.111230	0.678260
C6381	C638	0.180170	0.256330	0.872390
C6391	C639	0.160170	0.062230	0.695880
O1811	O181	0.187770	0.298130	0.861510
O1821	O182	0.236100	0.909780	0.851580
O1831	O183	0.216570	0.949730	0.877060
O1841	O184	0.157470	0.247730	0.889300
C6401	C640	0.059870	0.040130	0.697080
C6411	C641	0.041070	0.981430	0.697560
C6421	C642	0.120670	0.080330	0.696690
H2741	H274	0.133670	0.119930	0.697030
C6431	C643	0.081670	0.962630	0.696230
H2751	H275	0.069270	0.923130	0.695830
C6441	C644	0.141370	0.003930	0.695530
H2761	H276	0.168370	0.991530	0.694830
Cd241	Cd24	0.004280	0.523350	0.052400
O1851	O185	0.977430	0.562570	0.078570
O1861	O186	0.982130	0.484470	0.084340
C6451	C645	0.972130	0.523370	0.089760
C6461	C646	0.939730	0.478670	0.144320
C6471	C647	0.957130	0.482770	0.124570
H2771	H277	0.971030	0.458870	0.120070
C6481	C648	0.934430	0.557870	0.117700
H2781	H278	0.931630	0.583370	0.108970
C6491	C649	0.918330	0.555170	0.137510
H2791	H279	0.906030	0.580470	0.141870
C6501	C650	0.954330	0.521970	0.111340
C6511	C651	0.937630	0.434270	0.157400
C6521	C652	0.914630	0.427770	0.176330
C6531	C653	0.901030	0.513070	0.171310
C6541	C654	0.884530	0.551870	0.178750
H2801	H280	0.886330	0.580770	0.170470
C6551	C655	0.919730	0.516070	0.151040
C6561	C656	0.897130	0.468170	0.184230
C6571	C657	0.904830	0.379670	0.188090
H2811	H281	0.889930	0.375570	0.200870
C6581	C658	0.865330	0.548170	0.198490
C6591	C659	0.878730	0.466670	0.203980
H2821	H282	0.877330	0.438870	0.212670
C6601	C660	0.862930	0.505370	0.210530
H2831	H283	0.850030	0.502570	0.223570
C6611	C661	0.917330	0.338170	0.180600
C6621	C662	0.943330	0.346770	0.162220
H2841	H284	0.953530	0.320270	0.157370
C6631	C663	0.953930	0.393970	0.151080
H2851	H285	0.972630	0.399770	0.138870
O1871	O187	0.913630	0.466870	0.044080
C6641	C664	0.890630	0.439470	0.028440
C6651	C665	0.899530	0.284270	0.192400
O1881	O188	0.911730	0.444570	0.011600
C6661	C666	0.846830	0.589670	0.205730
C6671	C667	0.826830	0.395570	0.029220
O1891	O189	0.854430	0.631470	0.194850
O1901	O190	0.902760	0.243120	0.184920
O1911	O191	0.883230	0.283070	0.210400
O1921	O192	0.824130	0.581070	0.222640
C6681	C668	0.726530	0.373470	0.030420
C6691	C669	0.707730	0.314770	0.030900
C6701	C670	0.787330	0.413670	0.030030
H2861	H286	0.800330	0.453270	0.030370
C6711	C671	0.748330	0.295970	0.029570
H2871	H287	0.735930	0.256470	0.029170
C6721	C672	0.808030	0.337270	0.028870
H2881	H288	0.835030	0.324870	0.028170
Cd251	Cd25	0.143320	0.814270	0.385740
O1931	O193	0.104100	0.748200	0.411900
O1941	O194	0.182200	0.831000	0.417670
C6731	C673	0.143300	0.782100	0.423090
C6741	C674	0.188000	0.794400	0.477650
C6751	C675	0.183900	0.807700	0.457900
H2891	H289	0.207800	0.845500	0.453400
C6761	C676	0.108800	0.709900	0.451030
H2901	H290	0.083300	0.681600	0.442300
C6771	C677	0.111500	0.696500	0.470840
H2911	H291	0.086200	0.658900	0.475200
C6781	C678	0.144700	0.765700	0.444670
C6791	C679	0.232400	0.836700	0.490730
C6801	C680	0.238900	0.820200	0.509660
C6811	C681	0.153600	0.721300	0.504640
C6821	C682	0.114800	0.666000	0.512080
H2921	H292	0.085900	0.638900	0.503800
C6831	C683	0.150600	0.737000	0.484370
C6841	C684	0.198500	0.762300	0.517560
C6851	C685	0.287000	0.858500	0.521420
H2931	H293	0.291100	0.847700	0.534200
C6861	C686	0.118500	0.650500	0.531820
C6871	C687	0.200000	0.745400	0.537310
H2941	H294	0.227800	0.771800	0.546000
C6881	C688	0.161300	0.690900	0.543860
H2951	H295	0.164100	0.680800	0.556900
C6891	C689	0.328500	0.912500	0.513930
C6901	C690	0.319900	0.929900	0.495550
H2961	H296	0.346400	0.966600	0.490700
C6911	C691	0.272700	0.893300	0.484410
H2971	H297	0.266900	0.906200	0.472200
O1951	O195	0.199800	0.780100	0.377410
C6921	C692	0.227200	0.784500	0.361770
C6931	C693	0.382400	0.948600	0.525730
O1961	O196	0.222100	0.800500	0.344930
C6941	C694	0.077000	0.590500	0.539060
C6951	C695	0.271100	0.764600	0.362550
O1971	O197	0.035200	0.556300	0.528180
O1981	O198	0.423550	0.992980	0.518250
O1991	O199	0.383600	0.933500	0.543730
O2001	O200	0.085600	0.576400	0.555970
C6961	C696	0.293200	0.686400	0.363750
C6971	C697	0.351900	0.726300	0.364230
C6981	C698	0.253000	0.707000	0.363360
H2981	H298	0.213400	0.680400	0.363700
C6991	C699	0.370700	0.785700	0.362900
H2991	H299	0.410200	0.812800	0.362500
C7001	C700	0.329400	0.804100	0.362200
H3001	H300	0.341800	0.843500	0.361500
Cd261	Cd26	0.809990	0.147600	0.719070
O2011	O201	0.770770	0.081530	0.745230
O2021	O202	0.848870	0.164330	0.751000
C7011	C701	0.809970	0.115430	0.756420
C7021	C702	0.854670	0.127730	0.810980
C7031	C703	0.850570	0.141030	0.791230
H3011	H301	0.874470	0.178830	0.786730
C7041	C704	0.775470	0.043230	0.784360
H3021	H302	0.749970	0.014930	0.775630
C7051	C705	0.778170	0.029830	0.804170
H3031	H303	0.752870	0.992230	0.808530
C7061	C706	0.811370	0.099030	0.778000
C7071	C707	0.899070	0.170030	0.824060
C7081	C708	0.905570	0.153530	0.842990
C7091	C709	0.820270	0.054630	0.837970
C7101	C710	0.781470	0.999330	0.845410
H3041	H304	0.752570	0.972230	0.837130
C7111	C711	0.817270	0.070330	0.817700
C7121	C712	0.865170	0.095630	0.850890
C7131	C713	0.953670	0.191830	0.854750
H3051	H305	0.957770	0.181030	0.867530
C7141	C714	0.785170	0.983830	0.865150
C7151	C715	0.866670	0.078730	0.870640
H3061	H306	0.894470	0.105130	0.879330
C7161	C716	0.827970	0.024230	0.877190
H3071	H307	0.830770	0.014130	0.890230
C7171	C717	0.995170	0.245830	0.847260
C7181	C718	0.986570	0.263230	0.828880
H3081	H308	0.013070	0.299930	0.824030
C7191	C719	0.939370	0.226630	0.817740
H3091	H309	0.933570	0.239530	0.805530
O2031	O203	0.866470	0.113430	0.710740
C7201	C720	0.893870	0.117830	0.695100
C7211	C721	0.049070	0.281930	0.859060
O2041	O204	0.888770	0.133830	0.678260
C7221	C722	0.743670	0.923830	0.872390
C7231	C723	0.937770	0.097930	0.695880
O2051	O205	0.701870	0.889630	0.861510
O2061	O206	0.090220	0.326310	0.851580
O2071	O207	0.050270	0.266830	0.877060
O2081	O208	0.752270	0.909730	0.889300
C7241	C724	0.959870	0.019730	0.697080
C7251	C725	0.018570	0.059630	0.697560
C7261	C726	0.919670	0.040330	0.696690
H3101	H310	0.880070	0.013730	0.697030
C7271	C727	0.037370	0.119030	0.696230
H3111	H311	0.076870	0.146130	0.695830
C7281	C728	0.996070	0.137430	0.695530
H3121	H312	0.008470	0.176830	0.694830
Cd271	Cd27	0.476650	0.480940	0.052400
O2091	O209	0.437430	0.414870	0.078570
O2101	O210	0.515530	0.497670	0.084340
C7291	C729	0.476630	0.448770	0.089760
C7301	C730	0.521330	0.461070	0.144320
C7311	C731	0.517230	0.474370	0.124570
H3131	H313	0.541130	0.512170	0.120070
C7321	C732	0.442130	0.376570	0.117700
H3141	H314	0.416630	0.348270	0.108970
C7331	C733	0.444830	0.363170	0.137510
H3151	H315	0.419530	0.325570	0.141870
C7341	C734	0.478030	0.432370	0.111340
C7351	C735	0.565730	0.503370	0.157400
C7361	C736	0.572230	0.486870	0.176330
C7371	C737	0.486930	0.387970	0.171310
C7381	C738	0.448130	0.332670	0.178750
H3161	H316	0.419230	0.305570	0.170470
C7391	C739	0.483930	0.403670	0.151040
C7401	C740	0.531830	0.428970	0.184230
C7411	C741	0.620330	0.525170	0.188090
H3171	H317	0.624430	0.514370	0.200870
C7421	C742	0.451830	0.317170	0.198490
C7431	C743	0.533330	0.412070	0.203980
H3181	H318	0.561130	0.438470	0.212670
C7441	C744	0.494630	0.357570	0.210530
H3191	H319	0.497430	0.347470	0.223570
C7451	C745	0.661830	0.579170	0.180600
C7461	C746	0.653230	0.596570	0.162220
H3201	H320	0.679730	0.633270	0.157370
C7471	C747	0.606030	0.559970	0.151080
H3211	H321	0.600230	0.572870	0.138870
O2111	O211	0.533130	0.446770	0.044080
C7481	C748	0.560530	0.451170	0.028440
C7491	C749	0.715730	0.615270	0.192400
O2121	O212	0.555430	0.467170	0.011600
C7501	C750	0.410330	0.257170	0.205730
C7511	C751	0.604430	0.431270	0.029220
O2131	O213	0.368530	0.222970	0.194850
O2141	O214	0.756880	0.659650	0.184920
O2151	O215	0.716930	0.600170	0.210400
O2161	O216	0.418930	0.243070	0.222640
C7521	C752	0.626530	0.353070	0.030420
C7531	C753	0.685230	0.392970	0.030900
C7541	C754	0.586330	0.373670	0.030030
H3221	H322	0.546730	0.347070	0.030370
C7551	C755	0.704030	0.452370	0.029570
H3231	H323	0.743530	0.479470	0.029170
C7561	C756	0.662730	0.470770	0.028870
H3241	H324	0.675130	0.510170	0.028170
Cd281	Cd28	0.329050	0.185730	0.114260
O2171	O217	0.355900	0.251800	0.088100
O2181	O218	0.351200	0.169000	0.082330
C7571	C757	0.361200	0.217900	0.076910
C7581	C758	0.393600	0.205600	0.022350
C7591	C759	0.376200	0.192300	0.042100
H3251	H325	0.362300	0.154500	0.046600
C7601	C760	0.398900	0.290100	0.048970
H3261	H326	0.401700	0.318400	0.057700
C7611	C761	0.415000	0.303500	0.029160
H3271	H327	0.427300	0.341100	0.024800
C7621	C762	0.379000	0.234300	0.055330
C7631	C763	0.395700	0.163300	0.009270
C7641	C764	0.418700	0.179800	0.990340
C7651	C765	0.432300	0.278700	0.995360
C7661	C766	0.448800	0.334000	0.987920
H3281	H328	0.447000	0.361100	0.996200
C7671	C767	0.413600	0.263000	0.015630
C7681	C768	0.436200	0.237700	0.982440
C7691	C769	0.428500	0.141500	0.978580
H3291	H329	0.443400	0.152300	0.965800
C7701	C770	0.468000	0.349500	0.968180
C7711	C771	0.454600	0.254600	0.962690
H3301	H330	0.456000	0.228200	0.954000
C7721	C772	0.470400	0.309100	0.956140
H3311	H331	0.483300	0.319200	0.943100
C7731	C773	0.416000	0.087500	0.986070
C7741	C774	0.390000	0.070100	0.004450
H3321	H332	0.379800	0.033400	0.009300
C7751	C775	0.379400	0.106700	0.015590
H3331	H333	0.360700	0.093800	0.027800
O2191	O219	0.419700	0.219900	0.122590
C7761	C776	0.442700	0.215500	0.138230
C7771	C777	0.433800	0.051400	0.974270
O2201	O220	0.421600	0.199500	0.155070
C7781	C778	0.486500	0.409500	0.960940
C7791	C779	0.506500	0.235400	0.137450
O2211	O221	0.478900	0.443700	0.971820
O2221	O222	0.430570	0.007020	0.981750
O2231	O223	0.450100	0.066500	0.956270
O2241	O224	0.509200	0.423600	0.944030
C7801	C780	0.606800	0.313600	0.136250
C7811	C781	0.625600	0.273700	0.135770
C7821	C782	0.546000	0.293000	0.136640
H3341	H334	0.533000	0.319600	0.136300
C7831	C783	0.585000	0.214300	0.137100
H3351	H335	0.597400	0.187200	0.137500
C7841	C784	0.525300	0.195900	0.137800
H3361	H336	0.498300	0.156500	0.138500
Cd291	Cd29	0.995720	0.519060	0.447600
O2251	O225	0.022570	0.585130	0.421430
O2261	O226	0.017870	0.502330	0.415660
C7851	C785	0.027870	0.551230	0.410240
C7861	C786	0.060270	0.538930	0.355680
C7871	C787	0.042870	0.525630	0.375430
H3371	H337	0.028970	0.487830	0.379930
C7881	C788	0.065570	0.623430	0.382300
H3381	H338	0.068370	0.651730	0.391030
C7891	C789	0.081670	0.636830	0.362490
H3391	H339	0.093970	0.674430	0.358130
C7901	C790	0.045670	0.567630	0.388660
C7911	C791	0.062370	0.496630	0.342600
C7921	C792	0.085370	0.513130	0.323670
C7931	C793	0.098970	0.612030	0.328690
C7941	C794	0.115470	0.667330	0.321250
H3401	H340	0.113670	0.694430	0.329530
C7951	C795	0.080270	0.596330	0.348960
C7961	C796	0.102870	0.571030	0.315770
C7971	C797	0.095170	0.474830	0.311910
H3411	H341	0.110070	0.485630	0.299130
C7981	C798	0.134670	0.682830	0.301510
C7991	C799	0.121270	0.587930	0.296020
H3421	H342	0.122670	0.561530	0.287330
C8001	C800	0.137070	0.642430	0.289470
H3431	H343	0.149970	0.652530	0.276430
C8011	C801	0.082670	0.420830	0.319400
C8021	C802	0.056670	0.403430	0.337780
H3441	H344	0.046470	0.366730	0.342630
C8031	C803	0.046070	0.440030	0.348920
H3451	H345	0.027370	0.427130	0.361130
O2271	O227	0.086370	0.553230	0.455920
C8041	C804	0.109370	0.548830	0.471560
C8051	C805	0.100470	0.384730	0.307600
O2281	O228	0.088270	0.532830	0.488400
C8061	C806	0.153170	0.742830	0.294270
C8071	C807	0.173170	0.568730	0.470780
O2291	O229	0.145570	0.777030	0.305150
O2301	O230	0.097240	0.340350	0.315080
O2311	O231	0.116770	0.399830	0.289600
O2321	O232	0.175870	0.756930	0.277360
C8081	C808	0.273470	0.646930	0.469580
C8091	C809	0.292270	0.607030	0.469100
C8101	C810	0.212670	0.626330	0.469970
H3461	H346	0.199670	0.652930	0.469630
C8111	C811	0.251670	0.547630	0.470430
H3471	H347	0.264070	0.520530	0.470830
C8121	C812	0.191970	0.529230	0.471130
H3481	H348	0.164970	0.489830	0.471830
Cd301	Cd30	0.662380	0.852400	0.780930
O2331	O233	0.689230	0.918470	0.754770
O2341	O234	0.684530	0.835670	0.749000
C8131	C813	0.694530	0.884570	0.743580
C8141	C814	0.726930	0.872270	0.689020
C8151	C815	0.709530	0.858970	0.708770
H3491	H349	0.695630	0.821170	0.713270
C8161	C816	0.732230	0.956770	0.715640
H3501	H350	0.735030	0.985070	0.724370
C8171	C817	0.748330	0.970170	0.695830
H3511	H351	0.760630	0.007770	0.691470
C8181	C818	0.712330	0.900970	0.722000
C8191	C819	0.729030	0.829970	0.675940
C8201	C820	0.752030	0.846470	0.657010
C8211	C821	0.765630	0.945370	0.662030
C8221	C822	0.782130	0.000670	0.654590
H3521	H352	0.780330	0.027770	0.662870
C8231	C823	0.746930	0.929670	0.682300
C8241	C824	0.769530	0.904370	0.649110
C8251	C825	0.761830	0.808170	0.645250
H3531	H353	0.776730	0.818970	0.632470
C8261	C826	0.801330	0.016170	0.634850
C8271	C827	0.787930	0.921270	0.629360
H3541	H354	0.789330	0.894870	0.620670
C8281	C828	0.803730	0.975770	0.622810
H3551	H355	0.816630	0.985870	0.609770
C8291	C829	0.749330	0.754170	0.652740
C8301	C830	0.723330	0.736770	0.671120
H3561	H356	0.713130	0.700070	0.675970
C8311	C831	0.712730	0.773370	0.682260
H3571	H357	0.694030	0.760470	0.694470
O2351	O235	0.753030	0.886570	0.789260
C8321	C832	0.776030	0.882170	0.804900
C8331	C833	0.767130	0.718070	0.640940
O2361	O236	0.754930	0.866170	0.821740
C8341	C834	0.819830	0.076170	0.627610
C8351	C835	0.839830	0.902070	0.804120
O2371	O237	0.812230	0.110370	0.638490
O2381	O238	0.763900	0.673690	0.648420
O2391	O239	0.783430	0.733170	0.622940
O2401	O240	0.842530	0.090270	0.610700
C8361	C836	0.940130	0.980270	0.802920
C8371	C837	0.958930	0.940370	0.802440
C8381	C838	0.879330	0.959670	0.803310
H3581	H358	0.866330	0.986270	0.802970
C8391	C839	0.918330	0.880970	0.803770
H3591	H359	0.930730	0.853870	0.804170
C8401	C840	0.858630	0.862570	0.804470
H3601	H360	0.831630	0.823170	0.805170
Cd311	Cd31	0.856680	0.670950	0.114260
O2411	O241	0.895900	0.644100	0.088100
O2421	O242	0.817800	0.648800	0.082330
C8411	C841	0.856700	0.638800	0.076910
C8421	C842	0.812000	0.606400	0.022350
C8431	C843	0.816100	0.623800	0.042100
H3611	H361	0.792200	0.637700	0.046600
C8441	C844	0.891200	0.601100	0.048970
H3621	H362	0.916700	0.598300	0.057700
C8451	C845	0.888500	0.585000	0.029160
H3631	H363	0.913800	0.572700	0.024800
C8461	C846	0.855300	0.621000	0.055330
C8471	C847	0.767600	0.604300	0.009270
C8481	C848	0.761100	0.581300	0.990340
C8491	C849	0.846400	0.567700	0.995360
C8501	C850	0.885200	0.551200	0.987920
H3641	H364	0.914100	0.553000	0.996200
C8511	C851	0.849400	0.586400	0.015630
C8521	C852	0.801500	0.563800	0.982440
C8531	C853	0.713000	0.571500	0.978580
H3651	H365	0.708900	0.556600	0.965800
C8541	C854	0.881500	0.532000	0.968180
C8551	C855	0.800000	0.545400	0.962690
H3661	H366	0.772200	0.544000	0.954000
C8561	C856	0.838700	0.529600	0.956140
H3671	H367	0.835900	0.516700	0.943100
C8571	C857	0.671500	0.584000	0.986070
C8581	C858	0.680100	0.610000	0.004450
H3681	H368	0.653600	0.620200	0.009300
C8591	C859	0.727300	0.620600	0.015590
H3691	H369	0.733100	0.639300	0.027800
O2431	O243	0.800200	0.580300	0.122590
C8601	C860	0.772800	0.557300	0.138230
C8611	C861	0.617600	0.566200	0.974270
O2441	O244	0.777900	0.578400	0.155070
C8621	C862	0.923000	0.513500	0.960940
C8631	C863	0.728900	0.493500	0.137450
O2451	O245	0.964800	0.521100	0.971820
O2461	O246	0.576450	0.569430	0.981750
O2471	O247	0.616400	0.549900	0.956270
O2481	O248	0.914400	0.490800	0.944030
C8641	C864	0.706800	0.393200	0.136250
C8651	C865	0.648100	0.374400	0.135770
C8661	C866	0.747000	0.454000	0.136640
H3701	H370	0.786600	0.467000	0.136300
C8671	C867	0.629300	0.415000	0.137100
H3711	H371	0.589800	0.402600	0.137500
C8681	C868	0.670600	0.474700	0.137800
H3721	H372	0.658200	0.501700	0.138500
Cd321	Cd32	0.523350	0.004280	0.447600
O2491	O249	0.562570	0.977430	0.421430
O2501	O250	0.484470	0.982130	0.415660
C8691	C869	0.523370	0.972130	0.410240
C8701	C870	0.478670	0.939730	0.355680
C8711	C871	0.482770	0.957130	0.375430
H3731	H373	0.458870	0.971030	0.379930
C8721	C872	0.557870	0.934430	0.382300
H3741	H374	0.583370	0.931630	0.391030
C8731	C873	0.555170	0.918330	0.362490
H3751	H375	0.580470	0.906030	0.358130
C8741	C874	0.521970	0.954330	0.388660
C8751	C875	0.434270	0.937630	0.342600
C8761	C876	0.427770	0.914630	0.323670
C8771	C877	0.513070	0.901030	0.328690
C8781	C878	0.551870	0.884530	0.321250
H3761	H376	0.580770	0.886330	0.329530
C8791	C879	0.516070	0.919730	0.348960
C8801	C880	0.468170	0.897130	0.315770
C8811	C881	0.379670	0.904830	0.311910
H3771	H377	0.375570	0.889930	0.299130
C8821	C882	0.548170	0.865330	0.301510
C8831	C883	0.466670	0.878730	0.296020
H3781	H378	0.438870	0.877330	0.287330
C8841	C884	0.505370	0.862930	0.289470
H3791	H379	0.502570	0.850030	0.276430
C8851	C885	0.338170	0.917330	0.319400
C8861	C886	0.346770	0.943330	0.337780
H3801	H380	0.320270	0.953530	0.342630
C8871	C887	0.393970	0.953930	0.348920
H3811	H381	0.399770	0.972630	0.361130
O2511	O251	0.466870	0.913630	0.455920
C8881	C888	0.439470	0.890630	0.471560
C8891	C889	0.284270	0.899530	0.307600
O2521	O252	0.444570	0.911730	0.488400
C8901	C890	0.589670	0.846830	0.294270
C8911	C891	0.395570	0.826830	0.470780
O2531	O253	0.631470	0.854430	0.305150
O2541	O254	0.243120	0.902760	0.315080
O2551	O255	0.283070	0.883230	0.289600
O2561	O256	0.581070	0.824130	0.277360
C8921	C892	0.373470	0.726530	0.469580
C8931	C893	0.314770	0.707730	0.469100
C8941	C894	0.413670	0.787330	0.469970
H3821	H382	0.453270	0.800330	0.469630
C8951	C895	0.295970	0.748330	0.470430
H3831	H383	0.256470	0.735930	0.470830
C8961	C896	0.337270	0.808030	0.471130
H3841	H384	0.324870	0.835030	0.471830
Cd331	Cd33	0.190010	0.337620	0.780930
O2571	O257	0.229230	0.310770	0.754770
O2581	O258	0.151130	0.315470	0.749000
C8971	C897	0.190030	0.305470	0.743580
C8981	C898	0.145330	0.273070	0.689020
C8991	C899	0.149430	0.290470	0.708770
H3851	H385	0.125530	0.304370	0.713270
C9001	C900	0.224530	0.267770	0.715640
H3861	H386	0.250030	0.264970	0.724370
C9011	C901	0.221830	0.251670	0.695830
H3871	H387	0.247130	0.239370	0.691470
C9021	C902	0.188630	0.287670	0.722000
C9031	C903	0.100930	0.270970	0.675940
C9041	C904	0.094430	0.247970	0.657010
C9051	C905	0.179730	0.234370	0.662030
C9061	C906	0.218530	0.217870	0.654590
H3881	H388	0.247430	0.219670	0.662870
C9071	C907	0.182730	0.253070	0.682300
C9081	C908	0.134830	0.230470	0.649110
C9091	C909	0.046330	0.238170	0.645250
H3891	H389	0.042230	0.223270	0.632470
C9101	C910	0.214830	0.198670	0.634850
C9111	C911	0.133330	0.212070	0.629360
H3901	H390	0.105530	0.210670	0.620670
C9121	C912	0.172030	0.196270	0.622810
H3911	H391	0.169230	0.183370	0.609770
C9131	C913	0.004830	0.250670	0.652740
C9141	C914	0.013430	0.276670	0.671120
H3921	H392	0.986930	0.286870	0.675970
C9151	C915	0.060630	0.287270	0.682260
H3931	H393	0.066430	0.305970	0.694470
O2591	O259	0.133530	0.246970	0.789260
C9161	C916	0.106130	0.223970	0.804900
C9171	C917	0.950930	0.232870	0.640940
O2601	O260	0.111230	0.245070	0.821740
C9181	C918	0.256330	0.180170	0.627610
C9191	C919	0.062230	0.160170	0.804120
O2611	O261	0.298130	0.187770	0.638490
O2621	O262	0.909780	0.236100	0.648420
O2631	O263	0.949730	0.216570	0.622940
O2641	O264	0.247730	0.157470	0.610700
C9201	C920	0.040130	0.059870	0.802920
C9211	C921	0.981430	0.041070	0.802440
C9221	C922	0.080330	0.120670	0.803310
H3941	H394	0.119930	0.133670	0.802970
C9231	C923	0.962630	0.081670	0.803770
H3951	H395	0.923130	0.069270	0.804170
C9241	C924	0.003930	0.141370	0.804470
H3961	H396	0.991530	0.168370	0.805170
Cd341	Cd34	0.814270	0.143320	0.114260
O2651	O265	0.748200	0.104100	0.088100
O2661	O266	0.831000	0.182200	0.082330
C9251	C925	0.782100	0.143300	0.076910
C9261	C926	0.794400	0.188000	0.022350
C9271	C927	0.807700	0.183900	0.042100
H3971	H397	0.845500	0.207800	0.046600
C9281	C928	0.709900	0.108800	0.048970
H3981	H398	0.681600	0.083300	0.057700
C9291	C929	0.696500	0.111500	0.029160
H3991	H399	0.658900	0.086200	0.024800
C9301	C930	0.765700	0.144700	0.055330
C9311	C931	0.836700	0.232400	0.009270
C9321	C932	0.820200	0.238900	0.990340
C9331	C933	0.721300	0.153600	0.995360
C9341	C934	0.666000	0.114800	0.987920
H4001	H400	0.638900	0.085900	0.996200
C9351	C935	0.737000	0.150600	0.015630
C9361	C936	0.762300	0.198500	0.982440
C9371	C937	0.858500	0.287000	0.978580
H4011	H401	0.847700	0.291100	0.965800
C9381	C938	0.650500	0.118500	0.968180
C9391	C939	0.745400	0.200000	0.962690
H4021	H402	0.771800	0.227800	0.954000
C9401	C940	0.690900	0.161300	0.956140
H4031	H403	0.680800	0.164100	0.943100
C9411	C941	0.912500	0.328500	0.986070
C9421	C942	0.929900	0.319900	0.004450
H4041	H404	0.966600	0.346400	0.009300
C9431	C943	0.893300	0.272700	0.015590
H4051	H405	0.906200	0.266900	0.027800
O2671	O267	0.780100	0.199800	0.122590
C9441	C944	0.784500	0.227200	0.138230
C9451	C945	0.948600	0.382400	0.974270
O2681	O268	0.800500	0.222100	0.155070
C9461	C946	0.590500	0.077000	0.960940
C9471	C947	0.764600	0.271100	0.137450
O2691	O269	0.556300	0.035200	0.971820
O2701	O270	0.992980	0.423550	0.981750
O2711	O271	0.933500	0.383600	0.956270
O2721	O272	0.576400	0.085600	0.944030
C9481	C948	0.686400	0.293200	0.136250
C9491	C949	0.726300	0.351900	0.135770
C9501	C950	0.707000	0.253000	0.136640
H4061	H406	0.680400	0.213400	0.136300
C9511	C951	0.785700	0.370700	0.137100
H4071	H407	0.812800	0.410200	0.137500
C9521	C952	0.804100	0.329400	0.137800
H4081	H408	0.843500	0.341800	0.138500
Cd351	Cd35	0.480940	0.476650	0.447600
O2731	O273	0.414870	0.437430	0.421430
O2741	O274	0.497670	0.515530	0.415660
C9531	C953	0.448770	0.476630	0.410240
C9541	C954	0.461070	0.521330	0.355680
C9551	C955	0.474370	0.517230	0.375430
H4091	H409	0.512170	0.541130	0.379930
C9561	C956	0.376570	0.442130	0.382300
H4101	H410	0.348270	0.416630	0.391030
C9571	C957	0.363170	0.444830	0.362490
H4111	H411	0.325570	0.419530	0.358130
C9581	C958	0.432370	0.478030	0.388660
C9591	C959	0.503370	0.565730	0.342600
C9601	C960	0.486870	0.572230	0.323670
C9611	C961	0.387970	0.486930	0.328690
C9621	C962	0.332670	0.448130	0.321250
H4121	H412	0.305570	0.419230	0.329530
C9631	C963	0.403670	0.483930	0.348960
C9641	C964	0.428970	0.531830	0.315770
C9651	C965	0.525170	0.620330	0.311910
H4131	H413	0.514370	0.624430	0.299130
C9661	C966	0.317170	0.451830	0.301510
C9671	C967	0.412070	0.533330	0.296020
H4141	H414	0.438470	0.561130	0.287330
C9681	C968	0.357570	0.494630	0.289470
H4151	H415	0.347470	0.497430	0.276430
C9691	C969	0.579170	0.661830	0.319400
C9701	C970	0.596570	0.653230	0.337780
H4161	H416	0.633270	0.679730	0.342630
C9711	C971	0.559970	0.606030	0.348920
H4171	H417	0.572870	0.600230	0.361130
O2751	O275	0.446770	0.533130	0.455920
C9721	C972	0.451170	0.560530	0.471560
C9731	C973	0.615270	0.715730	0.307600
O2761	O276	0.467170	0.555430	0.488400
C9741	C974	0.257170	0.410330	0.294270
C9751	C975	0.431270	0.604430	0.470780
O2771	O277	0.222970	0.368530	0.305150
O2781	O278	0.659650	0.756880	0.315080
O2791	O279	0.600170	0.716930	0.289600
O2801	O280	0.243070	0.418930	0.277360
C9761	C976	0.353070	0.626530	0.469580
C9771	C977	0.392970	0.685230	0.469100
C9781	C978	0.373670	0.586330	0.469970
H4181	H418	0.347070	0.546730	0.469630
C9791	C979	0.452370	0.704030	0.470430
H4191	H419	0.479470	0.743530	0.470830
C9801	C980	0.470770	0.662730	0.471130
H4201	H420	0.510170	0.675130	0.471830
Cd361	Cd36	0.147600	0.809990	0.780930
O2811	O281	0.081530	0.770770	0.754770
O2821	O282	0.164330	0.848870	0.749000
C9811	C981	0.115430	0.809970	0.743580
C9821	C982	0.127730	0.854670	0.689020
C9831	C983	0.141030	0.850570	0.708770
H4211	H421	0.178830	0.874470	0.713270
C9841	C984	0.043230	0.775470	0.715640
H4221	H422	0.014930	0.749970	0.724370
C9851	C985	0.029830	0.778170	0.695830
H4231	H423	0.992230	0.752870	0.691470
C9861	C986	0.099030	0.811370	0.722000
C9871	C987	0.170030	0.899070	0.675940
C9881	C988	0.153530	0.905570	0.657010
C9891	C989	0.054630	0.820270	0.662030
C9901	C990	0.999330	0.781470	0.654590
H4241	H424	0.972230	0.752570	0.662870
C9911	C991	0.070330	0.817270	0.682300
C9921	C992	0.095630	0.865170	0.649110
C9931	C993	0.191830	0.953670	0.645250
H4251	H425	0.181030	0.957770	0.632470
C9941	C994	0.983830	0.785170	0.634850
C9951	C995	0.078730	0.866670	0.629360
H4261	H426	0.105130	0.894470	0.620670
C9961	C996	0.024230	0.827970	0.622810
H4271	H427	0.014130	0.830770	0.609770
C9971	C997	0.245830	0.995170	0.652740
C9981	C998	0.263230	0.986570	0.671120
H4281	H428	0.299930	0.013070	0.675970
C9991	C999	0.226630	0.939370	0.682260
H4291	H429	0.239530	0.933570	0.694470
O2831	O283	0.113430	0.866470	0.789260
C10001	C1000	0.117830	0.893870	0.804900
C10011	C1001	0.281930	0.049070	0.640940
O2841	O284	0.133830	0.888770	0.821740
C10021	C1002	0.923830	0.743670	0.627610
C10031	C1003	0.097930	0.937770	0.804120
O2851	O285	0.889630	0.701870	0.638490
O2861	O286	0.326310	0.090220	0.648420
O2871	O287	0.266830	0.050270	0.622940
O2881	O288	0.909730	0.752270	0.610700
C10041	C1004	0.019730	0.959870	0.802920
C10051	C1005	0.059630	0.018570	0.802440
C10061	C1006	0.040330	0.919670	0.803310
H4301	H430	0.013730	0.880070	0.802970
C10071	C1007	0.119030	0.037370	0.803770
H4311	H431	0.146130	0.076870	0.804170
C10081	C1008	0.137430	0.996070	0.804470
H4321	H432	0.176830	0.008470	0.805170
Cd371	Cd37	0.833330	0.666670	0.666670
Cd381	Cd38	0.500000	0.000000	0.000000
Cd391	Cd39	0.333330	0.166670	0.666670
Cd401	Cd40	0.000000	0.500000	0.000000
Cd411	Cd41	0.833330	0.166670	0.666670
Cd421	Cd42	0.500000	0.500000	0.000000
Cd431	Cd43	0.666670	0.833330	0.833330
Cd441	Cd44	0.166670	0.333330	0.833330
Cd451	Cd45	0.166670	0.833330	0.833330
Cd461	Cd46	0.166670	0.333330	0.333330
Cd471	Cd47	0.666670	0.833330	0.333330
Cd481	Cd48	0.166670	0.833330	0.333330
Cd491	Cd49	0.333330	0.166670	0.166670
Cd501	Cd50	0.000000	0.500000	0.500000
Cd511	Cd51	0.833330	0.666670	0.166670
Cd521	Cd52	0.500000	0.000000	0.500000
Cd531	Cd53	0.833330	0.166670	0.166670
Cd541	Cd54	0.500000	0.500000	0.500000
