data_PIJROR_clean_PM
_symmetry_space_group_name_H-M	'P1'
_cell_length_a	8.172000
_cell_length_b	14.196900
_cell_length_c	14.196900
_cell_angle_alpha	110.241000
_cell_angle_beta	91.047600
_cell_angle_gamma	88.952400
_symmetry_Int_Tables_number 1

loop_
_symmetry_equiv_pos_as_xyz
'x,y,z'

loop_
_atom_site_label
_atom_site_type_symbol
_atom_site_fract_x
_atom_site_fract_y
_atom_site_fract_z
Ce11	Ce1	0.398880	0.914470	0.052430
Ce21	Ce2	0.898880	0.947570	0.085530
H11	H1	0.902600	0.299300	0.866900
H21	H2	0.972500	0.104900	0.585300
H31	H3	0.122900	0.391400	0.660400
H41	H4	0.940700	0.650000	0.047200
H51	H5	0.874500	0.471800	0.962000
H61	H6	0.617800	0.912200	0.700200
H71	H7	0.770200	0.008500	0.616700
H81	H8	0.350800	0.266000	0.341200
H91	H9	0.270700	0.344100	0.517500
H101	H10	0.402600	0.133100	0.700700
H111	H11	0.472500	0.414700	0.895100
H121	H12	0.622900	0.339600	0.608600
H131	H13	0.440700	0.952800	0.350000
H141	H14	0.374500	0.038000	0.528200
H151	H15	0.117800	0.299800	0.087800
H161	H16	0.270200	0.383300	0.991500
H171	H17	0.850800	0.658800	0.734000
H181	H18	0.770700	0.482500	0.655900
C11	C1	0.017400	0.361800	0.776200
C21	C2	0.941200	0.285700	0.800700
C31	C3	0.921200	0.189900	0.728700
C41	C4	0.982400	0.170600	0.633400
C51	C5	0.057800	0.243800	0.605800
C61	C6	0.073300	0.340000	0.678200
C71	C7	0.033600	0.464200	0.851200
C81	C8	0.101700	0.641300	0.935700
C91	C9	0.988700	0.608800	0.986000
C101	C10	0.950700	0.506900	0.937100
C111	C11	0.173600	0.744500	0.963900
C121	C12	0.834800	0.112700	0.754300
C131	C13	0.686900	0.013100	0.839500
C141	C14	0.676400	0.971500	0.735300
C151	C15	0.762600	0.027500	0.687500
C161	C16	0.609800	0.977600	0.912000
C171	C17	0.127100	0.222900	0.504500
C181	C18	0.204700	0.145800	0.328400
C191	C19	0.277700	0.236500	0.373900
C201	C20	0.232400	0.280800	0.474600
C211	C21	0.241100	0.074900	0.226300
C221	C22	0.517400	0.223800	0.638200
C231	C23	0.441200	0.199300	0.714300
C241	C24	0.421200	0.271300	0.810100
C251	C25	0.482400	0.366600	0.829400
C261	C26	0.557800	0.394200	0.756200
C271	C27	0.573300	0.321800	0.660000
C281	C28	0.533600	0.148800	0.535800
C291	C29	0.601700	0.064300	0.358700
C301	C30	0.488700	0.014000	0.391200
C311	C31	0.450700	0.062900	0.493100
C321	C32	0.673600	0.036100	0.255500
C331	C33	0.334800	0.245700	0.887300
C341	C34	0.186900	0.160500	0.986900
C351	C35	0.176400	0.264700	0.028500
C361	C36	0.262600	0.312500	0.972500
C371	C37	0.109800	0.088000	0.022400
C381	C38	0.627100	0.495500	0.777100
C391	C39	0.704700	0.671600	0.854200
C401	C40	0.777700	0.626100	0.763500
C411	C41	0.732400	0.525400	0.719200
C421	C42	0.741100	0.773700	0.925100
S11	S1	0.166200	0.547990	0.829730
S21	S2	0.803100	0.120460	0.876000
S31	S3	0.080300	0.114700	0.407040
S41	S4	0.666200	0.170270	0.452010
S51	S5	0.303100	0.124000	0.879540
S61	S6	0.580300	0.592960	0.885300
O11	O1	0.110400	0.814600	0.036400
O21	O2	0.295800	0.758600	0.918200
O31	O3	0.495400	0.915800	0.884800
O41	O4	0.658200	0.011700	0.005300
O51	O5	0.349400	0.094800	0.174000
O61	O6	0.163900	0.990900	0.192700
O71	O7	0.610400	0.963600	0.185400
O81	O8	0.795800	0.081800	0.241400
O91	O9	0.995400	0.115200	0.084200
O101	O10	0.158200	0.994700	0.988300
O111	O11	0.849400	0.826000	0.905200
O121	O12	0.663900	0.807300	0.009100
