data_PITPEP_clean_PM
_symmetry_space_group_name_H-M	'P1'
_cell_length_a	12.398100
_cell_length_b	20.786800
_cell_length_c	20.786800
_cell_angle_alpha	63.850800
_cell_angle_beta	78.532500
_cell_angle_gamma	101.468000
_symmetry_Int_Tables_number 1

loop_
_symmetry_equiv_pos_as_xyz
'x,y,z'

loop_
_atom_site_label
_atom_site_type_symbol
_atom_site_fract_x
_atom_site_fract_y
_atom_site_fract_z
Al11	Al1	0.940160	0.394260	0.337490
Al21	Al2	0.277650	0.337490	0.268250
Al31	Al3	0.454100	0.731750	0.605740
Al41	Al4	0.545900	0.268250	0.394260
Al51	Al5	0.722350	0.662510	0.731750
Al61	Al6	0.059840	0.605740	0.662510
P11	P1	0.863100	0.663140	0.583260
P21	P2	0.172250	0.474390	0.194160
P31	P3	0.998080	0.482140	0.607410
P41	P4	0.366410	0.194160	0.331450
P51	P5	0.001920	0.517860	0.392590
P61	P6	0.484060	0.089550	0.517860
P71	P7	0.827750	0.525610	0.805840
P81	P8	0.394510	0.392590	0.089550
P91	P9	0.302140	0.668550	0.525610
P101	P10	0.515940	0.910450	0.482140
P111	P11	0.199960	0.753600	0.663140
P121	P12	0.553640	0.416740	0.246400
P131	P13	0.605490	0.607410	0.910450
P141	P14	0.136900	0.336860	0.416740
P151	P15	0.446360	0.583260	0.753600
P161	P16	0.697860	0.331450	0.474390
P171	P17	0.800040	0.246400	0.336860
P181	P18	0.633590	0.805840	0.668550
H11	H1	0.896000	0.216400	0.481500
H21	H2	0.229000	0.577100	0.211700
H31	H3	0.428500	0.681800	0.953100
H41	H4	0.882700	0.366600	0.710600
H51	H5	0.320400	0.697900	0.783600
H61	H6	0.618000	0.265400	0.605500
H71	H7	0.836800	0.568400	0.577800
H81	H8	0.817400	0.031000	0.312800
H91	H9	0.428100	0.483400	0.730000
H101	H10	0.224900	0.469500	0.100200
H111	H11	0.637100	0.989100	0.708200
H121	H12	0.104000	0.783600	0.518500
H131	H13	0.762900	0.578400	0.103500
H141	H14	0.777400	0.029600	0.390000
H151	H15	0.184500	0.318100	0.578400
H161	H16	0.182600	0.969000	0.687200
H171	H17	0.381600	0.953100	0.365100
H181	H18	0.413100	0.718300	0.819000
H191	H19	0.651900	0.211200	0.577100
H201	H20	0.345300	0.708200	0.302700
H211	H21	0.252200	0.419600	0.970400
H221	H22	0.283600	0.711700	0.852000
H231	H23	0.268400	0.853800	0.568400
H241	H24	0.643800	0.940400	0.368600
H251	H25	0.133600	0.896500	0.681900
H261	H26	0.987600	0.631400	0.309000
H271	H27	0.594900	0.991300	0.499300
H281	H28	0.689600	0.367400	0.620200
H291	H29	0.382000	0.734600	0.394500
H301	H30	0.396400	0.490600	0.008700
H311	H31	0.593300	0.710600	0.922800
H321	H32	0.850500	0.740100	0.465700
H331	H33	0.622500	0.518500	0.697900
H341	H34	0.094200	0.499300	0.509400
H351	H35	0.944700	0.786600	0.483400
H361	H36	0.325100	0.100200	0.430300
H371	H37	0.352000	0.697300	0.010900
H381	H38	0.406700	0.289400	0.077200
H391	H39	0.841900	0.270000	0.213400
H401	H40	0.253300	0.634900	0.318200
H411	H41	0.232100	0.819000	0.462700
H421	H42	0.055300	0.213400	0.516600
H431	H43	0.012400	0.368600	0.691000
H441	H44	0.677800	0.987600	0.632600
H451	H45	0.362900	0.010900	0.291800
H461	H46	0.483900	0.077200	0.633400
H471	H47	0.516100	0.922800	0.366600
H481	H48	0.746700	0.365100	0.681800
H491	H49	0.237100	0.421600	0.896500
H501	H50	0.296600	0.309000	0.059600
H511	H51	0.135600	0.852000	0.436300
H521	H52	0.222600	0.970400	0.610000
H531	H53	0.305200	0.537300	0.281700
H541	H54	0.832600	0.610000	0.419600
H551	H55	0.316200	0.465700	0.794200
H561	H56	0.440700	0.211700	0.211200
H571	H57	0.679600	0.302100	0.216400
H581	H58	0.618400	0.046900	0.634900
H591	H59	0.559300	0.788300	0.788800
H601	H60	0.869800	0.687200	0.343800
H611	H61	0.428100	0.563700	0.288300
H621	H62	0.866400	0.103500	0.318100
H631	H63	0.889600	0.205800	0.259900
H641	H64	0.149500	0.259900	0.534300
H651	H65	0.158100	0.730000	0.786600
H661	H66	0.815500	0.681900	0.421600
H671	H67	0.864400	0.148000	0.563700
H681	H68	0.244600	0.569700	0.530500
H691	H69	0.571500	0.318200	0.046900
H701	H70	0.310400	0.632600	0.379800
H711	H71	0.905800	0.500700	0.490600
H721	H72	0.414600	0.577800	0.853800
H731	H73	0.654700	0.291800	0.697300
H741	H74	0.223500	0.605500	0.129100
H751	H75	0.731600	0.146200	0.431600
H761	H76	0.703400	0.691000	0.940400
H771	H77	0.690200	0.379800	0.987600
H781	H78	0.377500	0.481500	0.302100
H791	H79	0.348100	0.788800	0.422900
H801	H80	0.694800	0.462700	0.718300
H811	H81	0.586900	0.281700	0.181000
H821	H82	0.585400	0.422200	0.146200
H831	H83	0.747800	0.580400	0.029600
H841	H84	0.771000	0.422900	0.788300
H851	H85	0.213600	0.343800	0.969000
H861	H86	0.755400	0.430300	0.469500
H871	H87	0.775100	0.530500	0.899800
H881	H88	0.571900	0.516600	0.270000
H891	H89	0.648000	0.302700	0.989100
H901	H90	0.767900	0.181000	0.537300
H911	H91	0.117300	0.633400	0.289400
H921	H92	0.356200	0.059600	0.631400
H931	H93	0.110400	0.794200	0.740100
H941	H94	0.786400	0.656200	0.031000
H951	H95	0.322200	0.012400	0.367400
H961	H96	0.571900	0.436300	0.711700
H971	H97	0.716400	0.288300	0.148000
H981	H98	0.647400	0.870900	0.734600
H991	H99	0.309800	0.620200	0.012400
H1001	H100	0.405100	0.008700	0.500700
H1011	H101	0.683800	0.534300	0.205800
H1021	H102	0.130200	0.312800	0.656200
H1031	H103	0.603600	0.509400	0.991300
H1041	H104	0.352600	0.129100	0.265400
H1051	H105	0.674900	0.899800	0.569700
H1061	H106	0.163200	0.431600	0.422200
H1071	H107	0.167400	0.390000	0.580400
H1081	H108	0.776500	0.394500	0.870900
C11	C1	0.583810	0.832150	0.738420
C21	C2	0.429250	0.050610	0.618660
C31	C3	0.284110	0.835540	0.726210
C41	C4	0.074100	0.664570	0.369470
C51	C5	0.344820	0.726910	0.806550
C61	C6	0.322230	0.738420	0.429430
C71	C7	0.790570	0.273380	0.588670
C81	C8	0.925900	0.335430	0.630530
C91	C9	0.380540	0.003890	0.336870
C101	C10	0.551430	0.561750	0.164460
C111	C11	0.739060	0.603780	0.060300
C121	C12	0.260940	0.396220	0.939700
C131	C13	0.282590	0.663130	0.340760
C141	C14	0.438020	0.561840	0.189780
C151	C15	0.570750	0.949390	0.381340
C161	C16	0.378640	0.330730	0.050610
C171	C17	0.751660	0.429430	0.832150
C181	C18	0.379240	0.588670	0.137950
C191	C19	0.989680	0.273790	0.561750
C201	C20	0.209430	0.726620	0.411330
C211	C21	0.914600	0.738450	0.485950
C221	C22	0.848630	0.193450	0.533460
C231	C23	0.561980	0.438160	0.810220
C241	C24	0.382090	0.533460	0.273090
C251	C25	0.655180	0.273090	0.193450
C261	C26	0.176150	0.775600	0.738450
C271	C27	0.482810	0.862050	0.726620
C281	C28	0.619460	0.996110	0.663130
C291	C29	0.561050	0.374990	0.940340
C301	C30	0.416190	0.167850	0.261580
C311	C31	0.717410	0.336870	0.659240
C321	C32	0.823850	0.224400	0.261550
C331	C33	0.517190	0.137950	0.273380
C341	C34	0.621360	0.669270	0.949390
C351	C35	0.985400	0.684680	0.402180
C361	C36	0.300720	0.913140	0.684680
C371	C37	0.501390	0.940340	0.684670
C381	C38	0.498610	0.059660	0.315330
C391	C39	0.590470	0.034040	0.335430
C401	C40	0.556430	0.630530	0.034040
C411	C41	0.014600	0.315320	0.597820
C421	C42	0.699280	0.086860	0.315320
C431	C43	0.876180	0.248380	0.561840
C441	C44	0.409530	0.965960	0.664570
C451	C45	0.715890	0.164460	0.273790
C461	C46	0.438950	0.625010	0.059660
C471	C47	0.047910	0.618660	0.330730
C481	C48	0.135280	0.335920	0.603780
C491	C49	0.248340	0.570570	0.167850
C501	C50	0.612420	0.597820	0.086860
C511	C51	0.376650	0.659240	0.003890
C521	C52	0.799360	0.060300	0.335920
C531	C53	0.677770	0.261580	0.570570
C541	C54	0.813940	0.315330	0.625010
C551	C55	0.599450	0.514050	0.224400
C561	C56	0.952090	0.381340	0.669270
C571	C57	0.372200	0.810220	0.751620
C581	C58	0.387580	0.402180	0.913140
C591	C59	0.864720	0.664080	0.396220
C601	C60	0.443570	0.369470	0.965960
C611	C61	0.617910	0.466540	0.726910
C621	C62	0.085400	0.261550	0.514050
C631	C63	0.620760	0.411330	0.862050
C641	C64	0.623350	0.340760	0.996110
C651	C65	0.123820	0.751620	0.438160
C661	C66	0.010320	0.726210	0.438250
C671	C67	0.200640	0.939700	0.664080
C681	C68	0.151370	0.806550	0.466540
C691	C69	0.627800	0.189780	0.248380
C701	C70	0.448570	0.438250	0.835540
C711	C71	0.400550	0.485950	0.775600
C721	C72	0.186060	0.684670	0.374990
O11	O1	0.574530	0.613100	0.738710
O21	O2	0.497040	0.171600	0.480480
O31	O3	0.374790	0.580170	0.826200
O41	O4	0.223690	0.318110	0.371440
O51	O5	0.022480	0.519520	0.652080
O61	O6	0.166170	0.475570	0.119560
O71	O7	0.238720	0.424900	0.231340
O81	O8	0.654950	0.543870	0.952720
O91	O9	0.313240	0.738710	0.648190
O101	O10	0.776310	0.681890	0.628560
O111	O11	0.048320	0.451340	0.241280
O121	O12	0.794620	0.593630	0.580170
O131	O13	0.289600	0.241280	0.307380
O141	O14	0.761280	0.575100	0.768660
O151	O15	0.186180	0.656240	0.575100
O161	O16	0.475580	0.572230	0.925790
O171	O17	0.625210	0.419830	0.173800
O181	O18	0.690600	0.404870	0.475570
O191	O19	0.686760	0.261290	0.351810
O201	O20	0.345050	0.456130	0.047280
O211	O21	0.038570	0.351810	0.386900
O221	O22	0.961430	0.648190	0.613100
O231	O23	0.888920	0.496590	0.456130
O241	O24	0.309400	0.595130	0.524430
O251	O25	0.607670	0.952720	0.503410
O261	O26	0.096650	0.498020	0.427770
O271	O27	0.392330	0.047280	0.496590
O281	O28	0.200990	0.826200	0.593630
O291	O29	0.524420	0.427770	0.074210
O301	O30	0.470060	0.231340	0.343760
O311	O31	0.714270	0.880440	0.595130
O321	O32	0.596980	0.307380	0.451340
O331	O33	0.502960	0.828400	0.519520
O341	O34	0.325440	0.347920	0.171600
O351	O35	0.951680	0.548660	0.758720
O361	O36	0.595130	0.371440	0.310450
O371	O37	0.111080	0.503410	0.543870
O381	O38	0.598630	0.074210	0.498020
O391	O39	0.401370	0.925790	0.501980
O401	O40	0.529940	0.768660	0.656240
O411	O41	0.674560	0.652080	0.828400
O421	O42	0.094420	0.689550	0.681890
O431	O43	0.404870	0.628560	0.689550
O441	O44	0.285730	0.119560	0.404870
O451	O45	0.403020	0.692620	0.548660
O461	O46	0.833830	0.524430	0.880440
O471	O47	0.903350	0.501980	0.572230
O481	O48	0.710400	0.758720	0.692620
O491	O49	0.813820	0.343760	0.424900
O501	O50	0.425470	0.386900	0.261290
O511	O51	0.977520	0.480480	0.347920
O521	O52	0.205380	0.406370	0.419830
O531	O53	0.799010	0.173800	0.406370
O541	O54	0.905580	0.310450	0.318110
