data_PIZHOX_clean_PM
_symmetry_space_group_name_H-M	'P1'
_cell_length_a	13.066200
_cell_length_b	14.765900
_cell_length_c	15.392500
_cell_angle_alpha	90.000000
_cell_angle_beta	90.296000
_cell_angle_gamma	90.000000
_symmetry_Int_Tables_number 1

loop_
_symmetry_equiv_pos_as_xyz
'x,y,z'

loop_
_atom_site_label
_atom_site_type_symbol
_atom_site_fract_x
_atom_site_fract_y
_atom_site_fract_z
Cu11	Cu1	0.512540	0.286000	0.908760
N11	N1	0.594550	0.403180	0.047540
N21	N2	0.602080	0.322370	0.010590
N31	N3	0.665410	0.270220	0.056520
N41	N4	0.652910	0.406710	0.118140
N51	N5	0.408780	0.374530	0.951200
N61	N6	0.324140	0.348560	0.965950
N71	N7	0.242400	0.324600	0.982400
N81	N8	0.425110	0.502250	0.114460
N91	N9	0.370290	0.431720	0.141630
N101	N10	0.414360	0.571960	0.167790
N111	N11	0.351490	0.548320	0.232140
N121	N12	0.120800	0.292610	0.353660
N131	N13	0.912300	0.248920	0.314840
C11	C1	0.695250	0.324030	0.122140
C21	C2	0.768200	0.296870	0.189700
C31	C3	0.806600	0.209060	0.193660
H11	H1	0.784600	0.164500	0.153200
C41	C4	0.802700	0.359210	0.250600
H21	H2	0.777000	0.419400	0.250400
C51	C5	0.326300	0.461800	0.213770
C61	C6	0.255700	0.405100	0.263710
C71	C7	0.210100	0.330070	0.223870
H31	H3	0.224700	0.316200	0.165000
C81	C8	0.144400	0.276780	0.270140
H41	H4	0.114100	0.226200	0.241900
C91	C9	0.164800	0.364150	0.392370
H51	H5	0.149300	0.376000	0.451500
C101	C10	0.231800	0.421470	0.350000
H61	H6	0.261200	0.471600	0.379700
C111	C11	0.874500	0.332950	0.311240
H71	H7	0.898100	0.376300	0.352300
C121	C12	0.877200	0.187880	0.257420
H81	H8	0.902100	0.127500	0.260800
Cu21	Cu2	0.987460	0.786000	0.591240
N141	N14	0.905450	0.903180	0.452460
N151	N15	0.897920	0.822370	0.489410
N161	N16	0.834590	0.770220	0.443480
N171	N17	0.847090	0.906710	0.381860
N181	N18	0.091220	0.874530	0.548800
N191	N19	0.175860	0.848560	0.534050
N201	N20	0.257600	0.824600	0.517600
N211	N21	0.074890	0.002250	0.385540
N221	N22	0.129710	0.931720	0.358370
N231	N23	0.085640	0.071960	0.332210
N241	N24	0.148510	0.048320	0.267860
N251	N25	0.379200	0.792610	0.146340
N261	N26	0.587700	0.748920	0.185160
C131	C13	0.804750	0.824030	0.377860
C141	C14	0.731800	0.796870	0.310300
C151	C15	0.693400	0.709060	0.306340
H91	H9	0.715400	0.664500	0.346800
C161	C16	0.697300	0.859210	0.249400
H101	H10	0.723000	0.919400	0.249600
C171	C17	0.173700	0.961800	0.286230
C181	C18	0.244300	0.905100	0.236290
C191	C19	0.289900	0.830070	0.276130
H111	H11	0.275300	0.816200	0.335000
C201	C20	0.355600	0.776780	0.229860
H121	H12	0.385900	0.726200	0.258100
C211	C21	0.335200	0.864150	0.107630
H131	H13	0.350700	0.876000	0.048500
C221	C22	0.268200	0.921470	0.150000
H141	H14	0.238800	0.971600	0.120300
C231	C23	0.625500	0.832950	0.188760
H151	H15	0.601900	0.876300	0.147700
C241	C24	0.622800	0.687880	0.242580
H161	H16	0.597900	0.627500	0.239200
Cu31	Cu3	0.487460	0.714000	0.091240
N271	N27	0.405450	0.596820	0.952460
N281	N28	0.397920	0.677630	0.989410
N291	N29	0.334590	0.729780	0.943480
N301	N30	0.347090	0.593290	0.881860
N311	N31	0.591220	0.625470	0.048800
N321	N32	0.675860	0.651440	0.034050
N331	N33	0.757600	0.675400	0.017600
N341	N34	0.574890	0.497750	0.885540
N351	N35	0.629710	0.568280	0.858370
N361	N36	0.585640	0.428040	0.832210
N371	N37	0.648510	0.451680	0.767860
N381	N38	0.879200	0.707390	0.646340
N391	N39	0.087700	0.751080	0.685160
C251	C25	0.304750	0.675970	0.877860
C261	C26	0.231800	0.703130	0.810300
C271	C27	0.193400	0.790940	0.806340
H171	H17	0.215400	0.835500	0.846800
C281	C28	0.197300	0.640790	0.749400
H181	H18	0.223000	0.580600	0.749600
C291	C29	0.673700	0.538200	0.786230
C301	C30	0.744300	0.594900	0.736290
C311	C31	0.789900	0.669930	0.776130
H191	H19	0.775300	0.683800	0.835000
C321	C32	0.855600	0.723220	0.729860
H201	H20	0.885900	0.773800	0.758100
C331	C33	0.835200	0.635850	0.607630
H211	H21	0.850700	0.624000	0.548500
C341	C34	0.768200	0.578530	0.650000
H221	H22	0.738800	0.528400	0.620300
C351	C35	0.125500	0.667050	0.688760
H231	H23	0.101900	0.623700	0.647700
C361	C36	0.122800	0.812120	0.742580
H241	H24	0.097900	0.872500	0.739200
Cu41	Cu4	0.012540	0.214000	0.408760
N401	N40	0.094550	0.096820	0.547540
N411	N41	0.102080	0.177630	0.510590
N421	N42	0.165410	0.229780	0.556520
N431	N43	0.152910	0.093290	0.618140
N441	N44	0.908780	0.125470	0.451200
N451	N45	0.824140	0.151440	0.465950
N461	N46	0.742400	0.175400	0.482400
N471	N47	0.925110	0.997750	0.614460
N481	N48	0.870290	0.068280	0.641630
N491	N49	0.914360	0.928040	0.667790
N501	N50	0.851490	0.951680	0.732140
N511	N51	0.620800	0.207390	0.853660
N521	N52	0.412300	0.251080	0.814840
C371	C37	0.195250	0.175970	0.622140
C381	C38	0.268200	0.203130	0.689700
C391	C39	0.306600	0.290940	0.693660
H251	H25	0.284600	0.335500	0.653200
C401	C40	0.302700	0.140790	0.750600
H261	H26	0.277000	0.080600	0.750400
C411	C41	0.826300	0.038200	0.713770
C421	C42	0.755700	0.094900	0.763710
C431	C43	0.710100	0.169930	0.723870
H271	H27	0.724700	0.183800	0.665000
C441	C44	0.644400	0.223220	0.770140
H281	H28	0.614100	0.273800	0.741900
C451	C45	0.664800	0.135850	0.892370
H291	H29	0.649300	0.124000	0.951500
C461	C46	0.731800	0.078530	0.850000
H301	H30	0.761200	0.028400	0.879700
C471	C47	0.374500	0.167050	0.811240
H311	H31	0.398100	0.123700	0.852300
C481	C48	0.377200	0.312120	0.757420
H321	H32	0.402100	0.372500	0.760800
Cu51	Cu5	0.500000	0.500000	0.000000
Cu61	Cu6	0.000000	0.000000	0.500000
