data_PIZPIX_clean_h_PM
_symmetry_space_group_name_H-M	'P1'
_cell_length_a	8.478000
_cell_length_b	9.695000
_cell_length_c	17.243000
_cell_angle_alpha	90.000000
_cell_angle_beta	90.000000
_cell_angle_gamma	112.280000
_symmetry_Int_Tables_number 1

loop_
_symmetry_equiv_pos_as_xyz
'x,y,z'

loop_
_atom_site_label
_atom_site_type_symbol
_atom_site_fract_x
_atom_site_fract_y
_atom_site_fract_z
Er11	Er1	0.843300	0.023500	0.257400
Er21	Er2	0.156700	0.476500	0.757400
Er31	Er3	0.156700	0.976500	0.742600
Er41	Er4	0.843300	0.523500	0.242600
C11	C1	0.904400	0.024300	0.097900
C21	C2	0.945700	0.030100	0.014500
C31	C3	0.562500	0.199400	0.288600
C41	C4	0.376700	0.103100	0.301100
C51	C5	0.312300	0.960600	0.283100
C61	C6	0.128800	0.367000	0.213300
C71	C7	0.095600	0.475700	0.597900
C81	C8	0.054300	0.469900	0.514500
C91	C9	0.437500	0.300600	0.788600
C101	C10	0.623300	0.396900	0.801100
C111	C11	0.687700	0.539400	0.783100
C121	C12	0.871200	0.133000	0.713300
C131	C13	0.095600	0.975700	0.902100
C141	C14	0.054300	0.969900	0.985500
C151	C15	0.437500	0.800600	0.711400
C161	C16	0.623300	0.896900	0.698900
C171	C17	0.687700	0.039400	0.716900
C181	C18	0.871200	0.633000	0.786700
C191	C19	0.904400	0.524300	0.402100
C201	C20	0.945700	0.530100	0.485500
C211	C21	0.562500	0.699400	0.211400
C221	C22	0.376700	0.603100	0.198900
C231	C23	0.312300	0.460600	0.216900
C241	C24	0.128800	0.867000	0.286700
O11	O1	0.963100	0.954500	0.145100
O21	O2	0.814000	0.090700	0.121700
O31	O3	0.664400	0.137400	0.269900
O41	O4	0.602000	0.336900	0.296500
O51	O5	0.024600	0.424400	0.192400
O61	O6	0.082600	0.231400	0.231600
O71	O7	0.036900	0.545500	0.645100
O81	O8	0.186000	0.409300	0.621700
O91	O9	0.335600	0.362600	0.769900
O101	O10	0.398000	0.163100	0.796500
O111	O11	0.975400	0.075600	0.692400
O121	O12	0.917400	0.268600	0.731600
O131	O13	0.036900	0.045500	0.854900
O141	O14	0.186000	0.909300	0.878300
O151	O15	0.335600	0.862600	0.730100
O161	O16	0.398000	0.663100	0.703500
O171	O17	0.975400	0.575600	0.807600
O181	O18	0.917400	0.768600	0.768400
O191	O19	0.963100	0.454500	0.354900
O201	O20	0.814000	0.590700	0.378300
O211	O21	0.664400	0.637400	0.230100
O221	O22	0.602000	0.836900	0.203500
O231	O23	0.024600	0.924400	0.307600
O241	O24	0.082600	0.731400	0.268400
H11	H1	0.885810	0.086430	0.972150
H21	H2	0.286910	0.153510	0.326980
H31	H3	0.399830	0.902580	0.263350
H41	H4	0.114190	0.413570	0.472150
H51	H5	0.713090	0.346490	0.826980
H61	H6	0.600170	0.597420	0.763350
H71	H7	0.114190	0.913570	0.027850
H81	H8	0.713090	0.846490	0.673020
H91	H9	0.592670	0.089990	0.736170
H101	H10	0.883200	0.587410	0.525970
H111	H11	0.286910	0.653510	0.173020
H121	H12	0.399830	0.402580	0.236650
