data_PIZRUN_clean_PM
_symmetry_space_group_name_H-M	'P1'
_cell_length_a	13.041000
_cell_length_b	14.411000
_cell_length_c	16.307000
_cell_angle_alpha	90.000000
_cell_angle_beta	90.000000
_cell_angle_gamma	90.000000
_symmetry_Int_Tables_number 1

loop_
_symmetry_equiv_pos_as_xyz
'x,y,z'

loop_
_atom_site_label
_atom_site_type_symbol
_atom_site_fract_x
_atom_site_fract_y
_atom_site_fract_z
Cu11	Cu1	0.790090	0.794490	0.839670
Cu21	Cu2	0.059820	0.536980	0.914020
Cu31	Cu3	0.209910	0.294490	0.660330
Cu41	Cu4	0.440180	0.463020	0.414020
Cu51	Cu5	0.940180	0.036980	0.585980
Cu61	Cu6	0.709910	0.205510	0.339670
Cu71	Cu7	0.559820	0.963020	0.085980
Cu81	Cu8	0.290090	0.705510	0.160330
H11	H1	0.999100	0.344900	0.901100
H21	H2	0.191400	0.388500	0.238600
H31	H3	0.499100	0.155100	0.098900
H41	H4	0.216500	0.601700	0.467000
H51	H5	0.156700	0.492200	0.229800
H61	H6	0.083600	0.764400	0.136900
H71	H7	0.526700	0.831300	0.328400
H81	H8	0.939600	0.918000	0.975800
H91	H9	0.979600	0.328800	0.304300
H101	H10	0.148700	0.260700	0.444800
H111	H11	0.435000	0.215100	0.037300
H121	H12	0.046400	0.254500	0.938700
H131	H13	0.502500	0.654400	0.973000
H141	H14	0.579200	0.082600	0.738100
H151	H15	0.584500	0.914100	0.370300
H161	H16	0.377600	0.464800	0.593500
H171	H17	0.228300	0.365000	0.833800
H181	H18	0.002500	0.845600	0.027000
H191	H19	0.932400	0.691900	0.409400
H201	H20	0.453600	0.745500	0.438700
H211	H21	0.634700	0.862000	0.296100
H221	H22	0.065000	0.784900	0.537300
H231	H23	0.728300	0.135000	0.166200
H241	H24	0.478000	0.769400	0.828000
H251	H25	0.044400	0.027800	0.784300
H261	H26	0.691400	0.111500	0.761400
H271	H27	0.424200	0.588500	0.929000
H281	H28	0.916400	0.264400	0.363100
H291	H29	0.500900	0.655100	0.401100
H301	H30	0.479600	0.171200	0.695700
H311	H31	0.851300	0.760700	0.055200
H321	H32	0.877600	0.035200	0.406500
H331	H33	0.084500	0.585900	0.629700
H341	H34	0.141600	0.677800	0.500800
H351	H35	0.079200	0.417400	0.261900
H361	H36	0.648700	0.239300	0.555200
H371	H37	0.997500	0.345600	0.473000
H381	H38	0.401500	0.418200	0.971600
H391	H39	0.920800	0.917400	0.238100
H401	H40	0.420800	0.582600	0.761900
H411	H41	0.716500	0.898300	0.533000
H421	H42	0.416400	0.235600	0.636900
H431	H43	0.808600	0.888500	0.261400
H441	H44	0.283500	0.398300	0.967000
H451	H45	0.544400	0.472200	0.215700
H461	H46	0.622400	0.964800	0.906500
H471	H47	0.455600	0.972200	0.284300
H481	H48	0.343300	0.507800	0.729800
H491	H49	0.843300	0.992200	0.270200
H501	H50	0.520400	0.671200	0.804300
H511	H51	0.978000	0.730600	0.172000
H521	H52	0.598500	0.918200	0.528400
H531	H53	0.365300	0.362000	0.203900
H541	H54	0.473300	0.331300	0.171600
H551	H55	0.560400	0.082000	0.475800
H561	H56	0.432400	0.808100	0.590600
H571	H57	0.858400	0.177800	0.999200
H581	H58	0.902600	0.727600	0.322100
H591	H59	0.915500	0.085900	0.870300
H601	H60	0.067600	0.191900	0.090600
H611	H61	0.026700	0.668700	0.671600
H621	H62	0.402600	0.772400	0.677900
H631	H63	0.583600	0.735600	0.863100
H641	H64	0.783500	0.101700	0.033000
H651	H65	0.955600	0.527800	0.715700
H661	H66	0.439600	0.582000	0.024200
H671	H67	0.567600	0.308100	0.909400
H681	H68	0.060400	0.418000	0.524200
H691	H69	0.656700	0.007800	0.770200
H701	H70	0.935000	0.284900	0.962700
H711	H71	0.075800	0.411500	0.429000
H721	H72	0.575800	0.088500	0.571000
H731	H73	0.097400	0.227600	0.177900
H741	H74	0.901500	0.081800	0.028400
H751	H75	0.522000	0.269400	0.672000
H761	H76	0.000900	0.844900	0.598900
H771	H77	0.022000	0.230600	0.328000
H781	H78	0.020400	0.828800	0.195700
H791	H79	0.358400	0.322200	0.000800
H801	H80	0.641600	0.822200	0.499200
H811	H81	0.308600	0.611500	0.738600
H821	H82	0.271700	0.635000	0.333800
H831	H83	0.565000	0.715100	0.462700
H841	H84	0.497500	0.154400	0.527000
H851	H85	0.546400	0.245500	0.061300
H861	H86	0.098500	0.581800	0.471600
H871	H87	0.351300	0.739300	0.944800
H881	H88	0.122400	0.535200	0.093500
H891	H89	0.973300	0.168700	0.828400
H901	H90	0.415500	0.414100	0.129700
H911	H91	0.771700	0.865000	0.666200
H921	H92	0.953600	0.754500	0.561300
H931	H93	0.597400	0.272400	0.822100
H941	H94	0.865300	0.138000	0.796100
H951	H95	0.134700	0.638000	0.703900
H961	H96	0.924200	0.911500	0.071000
C11	C1	0.588700	0.034100	0.245600
C21	C2	0.456000	0.638600	0.518400
C31	C3	0.562900	0.167200	0.900700
C41	C4	0.852700	0.804700	0.009300
C51	C5	0.572000	0.315900	0.421200
C61	C6	0.038800	0.765800	0.183700
C71	C7	0.101000	0.410000	0.138300
C81	C8	0.251000	0.354500	0.498100
C91	C9	0.363800	0.332900	0.875100
C101	C10	0.044000	0.361400	0.018400
C111	C11	0.147300	0.304700	0.490700
C121	C12	0.636200	0.832900	0.624900
C131	C13	0.092100	0.724800	0.255500
C141	C14	0.062300	0.376700	0.478000
C151	C15	0.364800	0.571300	0.725000
C161	C16	0.950800	0.735800	0.366800
C171	C17	0.056900	0.711000	0.335800
C181	C18	0.428800	0.383300	0.180900
C191	C19	0.751000	0.145500	0.501900
C201	C20	0.411300	0.534100	0.254400
C211	C21	0.502500	0.193400	0.050900
C221	C22	0.443100	0.289000	0.835800
C231	C23	0.571200	0.883300	0.319100
C241	C24	0.956000	0.861400	0.481600
C251	C25	0.649400	0.871500	0.538300
C261	C26	0.911300	0.965900	0.745600
C271	C27	0.135200	0.428700	0.225000
C281	C28	0.850600	0.128500	0.038300
C291	C29	0.997500	0.806600	0.550900
C301	C30	0.352700	0.695300	0.990700
C311	C31	0.549200	0.264200	0.866800
C321	C32	0.136200	0.667100	0.375100
C331	C33	0.943100	0.211000	0.164200
C341	C34	0.961200	0.265800	0.316300
C351	C35	0.072000	0.184100	0.578800
C361	C36	0.538800	0.734200	0.816300
C371	C37	0.088700	0.465900	0.754400
C381	C38	0.461200	0.234200	0.683700
C391	C39	0.450800	0.764200	0.633200
C401	C40	0.562300	0.123300	0.522000
C411	C41	0.567100	0.343700	0.331000
C421	C42	0.002500	0.306600	0.949100
C431	C43	0.437700	0.623300	0.978000
C441	C44	0.071200	0.616700	0.680900
C451	C45	0.520100	0.950800	0.260000
C461	C46	0.635200	0.071300	0.775000
C471	C47	0.049200	0.235800	0.133200
C481	C48	0.432900	0.843700	0.169000
C491	C49	0.350600	0.371500	0.961700
C501	C50	0.149400	0.628500	0.461700
C511	C51	0.544000	0.138600	0.981600
C521	C52	0.556900	0.789000	0.664200
C531	C53	0.907900	0.224800	0.244500
C541	C54	0.067100	0.156300	0.669000
C551	C55	0.062900	0.332800	0.099300
C561	C56	0.932900	0.656300	0.831000
C571	C57	0.407900	0.275200	0.755500
C581	C58	0.399000	0.590000	0.638300
C591	C59	0.749000	0.854500	0.001900
C601	C60	0.479900	0.450800	0.240000
C611	C61	0.863800	0.167100	0.124900
C621	C62	0.592100	0.775200	0.744500
C631	C63	0.437100	0.667200	0.599300
C641	C64	0.497500	0.693400	0.449100
C651	C65	0.937700	0.876700	0.022000
C661	C66	0.928800	0.116700	0.819100
C671	C67	0.428000	0.815900	0.078800
C681	C68	0.647300	0.195300	0.509300
C691	C69	0.937100	0.832800	0.400700
C701	C70	0.899000	0.910000	0.361700
C711	C71	0.864800	0.928700	0.275000
C721	C72	0.928000	0.684100	0.921200
C731	C73	0.601000	0.090000	0.861700
C741	C74	0.249000	0.645500	0.998100
C751	C75	0.979900	0.049200	0.760000
C761	C76	0.020100	0.549200	0.740000
N11	N1	0.630700	0.244500	0.432200
N21	N2	0.811300	0.193300	0.251600
N31	N3	0.430700	0.549000	0.509300
N41	N4	0.369300	0.744500	0.067800
N51	N5	0.498200	0.908200	0.181500
N61	N6	0.713200	0.840800	0.677900
N71	N7	0.102600	0.479600	0.083000
N81	N8	0.397400	0.520400	0.583000
N91	N9	0.602600	0.020400	0.917000
N101	N10	0.998200	0.591800	0.818500
N111	N11	0.286800	0.340800	0.822100
N121	N12	0.069300	0.451000	0.009300
N131	N13	0.130700	0.255500	0.567800
N141	N14	0.213200	0.659200	0.322100
N151	N15	0.188700	0.693300	0.248400
N161	N16	0.001800	0.091800	0.681500
N171	N17	0.897400	0.979600	0.417000
N181	N18	0.688700	0.806700	0.751600
N191	N19	0.311300	0.306700	0.748400
N201	N20	0.501800	0.408200	0.318500
N211	N21	0.786800	0.159200	0.177900
N221	N22	0.869300	0.755500	0.932200
N231	N23	0.930700	0.951000	0.490700
N241	N24	0.569300	0.049000	0.990700
O11	O1	0.626300	0.302800	0.280200
O21	O2	0.113500	0.448900	0.829300
O31	O3	0.620800	0.078500	0.304600
O41	O4	0.379200	0.578500	0.195400
O51	O5	0.709100	0.857300	0.928700
O61	O6	0.979300	0.637300	0.973400
O71	O7	0.479300	0.862700	0.026600
O81	O8	0.373700	0.802800	0.219800
O91	O9	0.212300	0.607600	0.937500
O101	O10	0.712300	0.892400	0.062500
O111	O11	0.120800	0.421500	0.695400
O121	O12	0.020700	0.137300	0.526600
O131	O13	0.613500	0.051100	0.170700
O141	O14	0.886500	0.948900	0.670700
O151	O15	0.386500	0.551100	0.329300
O161	O16	0.520700	0.362700	0.473400
O171	O17	0.787700	0.107600	0.562500
O181	O18	0.126300	0.197200	0.719800
O191	O19	0.790900	0.142700	0.428700
O201	O20	0.879200	0.921500	0.804600
O211	O21	0.873700	0.697200	0.780200
O221	O22	0.287700	0.392400	0.437500
O231	O23	0.290900	0.357300	0.571300
O241	O24	0.209100	0.642700	0.071300
