data_PIZSAU_clean_PM
_symmetry_space_group_name_H-M	'P1'
_cell_length_a	13.504000
_cell_length_b	14.375000
_cell_length_c	16.193000
_cell_angle_alpha	90.000000
_cell_angle_beta	90.000000
_cell_angle_gamma	90.000000
_symmetry_Int_Tables_number 1

loop_
_symmetry_equiv_pos_as_xyz
'x,y,z'

loop_
_atom_site_label
_atom_site_type_symbol
_atom_site_fract_x
_atom_site_fract_y
_atom_site_fract_z
Cu11	Cu1	0.700840	0.793240	0.163930
Cu21	Cu2	0.299160	0.293240	0.336070
Cu31	Cu3	0.430300	0.548700	0.085170
Cu41	Cu4	0.200840	0.706760	0.836070
Cu51	Cu5	0.569700	0.048700	0.414830
Cu61	Cu6	0.930300	0.951300	0.914830
Cu71	Cu7	0.069700	0.451300	0.585170
Cu81	Cu8	0.799160	0.206760	0.663930
H11	H1	0.211700	0.399200	0.028900
H21	H2	0.093800	0.408400	0.024300
H31	H3	0.566200	0.925300	0.021200
H41	H4	0.553800	0.353900	0.700700
H51	H5	0.160200	0.354200	0.788400
H61	H6	0.373100	0.545300	0.904800
H71	H7	0.126900	0.454700	0.404800
H81	H8	0.023500	0.953100	0.709300
H91	H9	0.536500	0.765800	0.439500
H101	H10	0.072200	0.197700	0.962000
H111	H11	0.822300	0.099700	0.243700
H121	H12	0.339800	0.645800	0.288400
H131	H13	0.568200	0.934300	0.766500
H141	H14	0.353300	0.685600	0.494900
H151	H15	0.493700	0.758400	0.831000
H161	H16	0.914300	0.295100	0.138100
H171	H17	0.885000	0.712000	0.139600
H181	H18	0.006300	0.241600	0.331000
H191	H19	0.584300	0.913600	0.924100
H201	H20	0.427800	0.802300	0.462000
H211	H21	0.646600	0.759900	0.946400
H221	H22	0.146700	0.314400	0.994900
H231	H23	0.725900	0.864800	0.338900
H241	H24	0.353400	0.259900	0.553600
H251	H25	0.495700	0.859900	0.399200
H261	H26	0.084300	0.586400	0.075900
H271	H27	0.572200	0.302300	0.038000
H281	H28	0.931800	0.065700	0.266500
H291	H29	0.946200	0.646100	0.200700
H301	H30	0.497700	0.351700	0.530400
H311	H31	0.915700	0.086400	0.424100
H321	H32	0.036500	0.734200	0.560500
H331	H33	0.853400	0.240100	0.446400
H341	H34	0.502300	0.851700	0.969600
H351	H35	0.053800	0.146100	0.299300
H361	H36	0.853300	0.814400	0.505100
H371	H37	0.993700	0.741600	0.169000
H381	H38	0.066200	0.574700	0.978800
H391	H39	0.647800	0.007200	0.732100
H401	H40	0.414300	0.204900	0.861900
H411	H41	0.559700	0.184800	0.172200
H421	H42	0.626900	0.045300	0.595200
H431	H43	0.004300	0.140100	0.899200
H441	H44	0.322300	0.400300	0.756300
H451	H45	0.385900	0.597200	0.368600
H461	H46	0.146600	0.740100	0.053600
H471	H47	0.852200	0.992800	0.232100
H481	H48	0.085700	0.795100	0.361900
H491	H49	0.352200	0.507200	0.767900
H501	H50	0.885900	0.902800	0.631400
H511	H51	0.385000	0.788000	0.860400
H521	H52	0.433800	0.425300	0.478800
H531	H53	0.476500	0.046900	0.209300
H541	H54	0.147800	0.492800	0.267900
H551	H55	0.002300	0.648300	0.030400
H561	H56	0.523500	0.546900	0.290700
H571	H57	0.068200	0.565700	0.233500
H581	H58	0.995700	0.640100	0.600800
H591	H59	0.933800	0.074700	0.521200
H601	H60	0.274100	0.364800	0.161100
H611	H61	0.614100	0.097200	0.131400
H621	H62	0.177700	0.599700	0.256300
H631	H63	0.615000	0.288000	0.639600
H641	H64	0.711700	0.100800	0.971100
H651	H65	0.774100	0.135200	0.838900
H661	H66	0.288300	0.600800	0.528900
H671	H67	0.997700	0.148300	0.469600
H681	H68	0.504300	0.359900	0.100800
H691	H69	0.440300	0.684800	0.327800
H701	H70	0.225900	0.635200	0.661100
H711	H71	0.940300	0.815200	0.672200
H721	H72	0.927800	0.697700	0.538000
H731	H73	0.446200	0.853900	0.799300
H741	H74	0.788300	0.899200	0.471100
H751	H75	0.463500	0.265800	0.060500
H761	H76	0.114100	0.402800	0.868600
H771	H77	0.406200	0.591600	0.524300
H781	H78	0.839800	0.854200	0.711600
H791	H79	0.059700	0.315200	0.827800
H801	H80	0.506300	0.258400	0.669000
H811	H81	0.963500	0.234200	0.939500
H821	H82	0.660200	0.145800	0.211600
H831	H83	0.646700	0.185600	0.005100
H841	H84	0.677700	0.900300	0.743700
H851	H85	0.431800	0.434300	0.733500
H861	H86	0.906200	0.908400	0.475700
H871	H87	0.115000	0.212000	0.360400
H881	H88	0.415700	0.413600	0.575900
H891	H89	0.585700	0.704900	0.638100
H901	H90	0.976500	0.453100	0.790700
H911	H91	0.873100	0.954700	0.095200
H921	H92	0.593800	0.091600	0.975700
C11	C1	0.962500	0.124500	0.019500
C21	C2	0.448600	0.345700	0.898100
C31	C3	0.004200	0.178800	0.949000
C41	C4	0.908700	0.077100	0.142300
C51	C5	0.640500	0.173300	0.877700
C61	C6	0.929700	0.776700	0.336300
C71	C7	0.495800	0.821200	0.449000
C81	C8	0.039400	0.436000	0.761900
C91	C9	0.098500	0.371400	0.816500
C101	C10	0.995800	0.678800	0.551000
C111	C11	0.389000	0.740200	0.742600
C121	C12	0.091300	0.577100	0.357700
C131	C13	0.855000	0.193800	0.492400
C141	C14	0.533300	0.748900	0.635100
C151	C15	0.401000	0.474700	0.244000
C161	C16	0.355000	0.306200	0.507600
C171	C17	0.067500	0.619200	0.024700
C181	C18	0.099000	0.525300	0.744000
C191	C19	0.599000	0.974700	0.256000
C201	C20	0.901000	0.025300	0.756000
C211	C21	0.941000	0.306900	0.581200
C221	C22	0.948100	0.335400	0.670500
C231	C23	0.567900	0.289200	0.685600
C241	C24	0.859500	0.826700	0.377700
C251	C25	0.966700	0.251100	0.135100
C261	C26	0.567500	0.880800	0.975300
C271	C27	0.745700	0.852500	0.002000
C281	C28	0.462500	0.375500	0.980500
C291	C29	0.948600	0.154300	0.101900
C301	C30	0.359500	0.673300	0.622300
C311	C31	0.067900	0.210800	0.314400
C321	C32	0.466700	0.248900	0.864900
C331	C33	0.648900	0.134300	0.965300
C341	C34	0.460600	0.564000	0.261900
C351	C35	0.441000	0.193100	0.418800
C361	C36	0.559000	0.693100	0.081200
C371	C37	0.059000	0.806900	0.918800
C381	C38	0.570300	0.223300	0.836300
C391	C39	0.037500	0.624500	0.480500
C401	C40	0.611000	0.240200	0.757400
C411	C41	0.537500	0.875500	0.519500
C421	C42	0.448100	0.164600	0.329500
C431	C43	0.504200	0.321200	0.051000
C441	C44	0.375900	0.442900	0.771400
C451	C45	0.432100	0.789200	0.814400
C461	C46	0.645000	0.806200	0.992400
C471	C47	0.145000	0.693800	0.007600
C481	C48	0.539400	0.064000	0.238100
C491	C49	0.051400	0.654300	0.398100
C501	C50	0.624100	0.942900	0.728600
C511	C51	0.051900	0.835400	0.829500
C521	C52	0.408700	0.422900	0.857700
C531	C53	0.960600	0.936000	0.738100
C541	C54	0.351100	0.634300	0.534700
C551	C55	0.598500	0.128600	0.183500
C561	C56	0.070300	0.276700	0.163700
C571	C57	0.551900	0.664600	0.170500
C581	C58	0.875900	0.057100	0.228600
C591	C59	0.754300	0.147500	0.502000
C601	C60	0.432500	0.380800	0.524700
C611	C61	0.901500	0.871400	0.683500
C621	C62	0.111000	0.259800	0.242600
C631	C63	0.401500	0.628600	0.316500
C641	C64	0.033300	0.751100	0.364900
C651	C65	0.551400	0.845700	0.601900
C661	C66	0.851100	0.865700	0.465300
C671	C67	0.140500	0.326700	0.122300
C681	C68	0.245700	0.647500	0.998000
C691	C69	0.889000	0.759800	0.257400
C701	C70	0.429700	0.723300	0.663700
C711	C71	0.591300	0.922900	0.642300
C721	C72	0.124100	0.557100	0.271400
C731	C73	0.932500	0.119200	0.475300
C741	C74	0.254300	0.352500	0.498000
C751	C75	0.932100	0.710800	0.185600
C761	C76	0.148900	0.365700	0.034700
N11	N1	0.516000	0.104400	0.317200
N21	N2	0.122200	0.739800	0.929600
N31	N3	0.798500	0.796700	0.252600
N41	N4	0.433200	0.463000	0.989300
N51	N5	0.622200	0.760200	0.070400
N61	N6	0.933200	0.037000	0.010700
N71	N7	0.298500	0.703300	0.747400
N81	N8	0.101200	0.509800	0.414800
N91	N9	0.718700	0.163900	0.825800
N101	N10	0.984000	0.895600	0.817200
N111	N11	0.701500	0.203300	0.752600
N121	N12	0.218700	0.336100	0.174200
N131	N13	0.484000	0.604400	0.182800
N141	N14	0.898800	0.009800	0.085200
N151	N15	0.377800	0.260200	0.429600
N161	N16	0.066800	0.537000	0.489300
N171	N17	0.601200	0.990200	0.585200
N181	N18	0.877800	0.239800	0.570400
N191	N19	0.566800	0.963000	0.510700
N201	N20	0.398800	0.490200	0.914800
N211	N21	0.781300	0.836100	0.325800
N221	N22	0.281300	0.663900	0.674200
N231	N23	0.201500	0.296700	0.247400
N241	N24	0.016000	0.395600	0.682800
O11	O1	0.127800	0.572800	0.803100
O21	O2	0.121600	0.542400	0.668600
O31	O3	0.110700	0.798400	0.776400
O41	O4	0.378400	0.457600	0.168600
O51	O5	0.389300	0.201600	0.276400
O61	O6	0.717500	0.110400	0.441400
O71	O7	0.217500	0.389600	0.558600
O81	O8	0.007600	0.850000	0.971600
O91	O9	0.507600	0.650000	0.028400
O101	O10	0.284800	0.649400	0.924800
O111	O11	0.372200	0.427200	0.303100
O121	O12	0.872200	0.072800	0.696900
O131	O13	0.215200	0.350600	0.424800
O141	O14	0.782500	0.889600	0.941400
O151	O15	0.992400	0.350000	0.528400
O161	O16	0.610700	0.701600	0.223600
O171	O17	0.878400	0.042400	0.831400
O181	O18	0.621600	0.957600	0.331400
O191	O19	0.715200	0.149400	0.575200
O201	O20	0.282500	0.610400	0.058600
O211	O21	0.627800	0.927200	0.196900
O221	O22	0.492400	0.150000	0.471600
O231	O23	0.784800	0.850600	0.075200
O241	O24	0.889300	0.298400	0.723600
