data_POBMOJ01_clean_PM
_symmetry_space_group_name_H-M	'P1'
_cell_length_a	22.711800
_cell_length_b	22.711800
_cell_length_c	22.711800
_cell_angle_alpha	109.471000
_cell_angle_beta	109.471000
_cell_angle_gamma	109.471000
_symmetry_Int_Tables_number 1

loop_
_symmetry_equiv_pos_as_xyz
'x,y,z'

loop_
_atom_site_label
_atom_site_type_symbol
_atom_site_fract_x
_atom_site_fract_y
_atom_site_fract_z
Yb11	Yb1	0.897100	0.500000	0.397100
Yb21	Yb2	0.102900	0.500000	0.602900
Yb31	Yb3	0.397100	0.897100	0.500000
Yb41	Yb4	0.602900	0.102900	0.500000
Yb51	Yb5	0.500000	0.602900	0.102900
Yb61	Yb6	0.500000	0.397100	0.897100
Yb71	Yb7	0.500000	0.102900	0.602900
Yb81	Yb8	0.500000	0.897100	0.397100
Yb91	Yb9	0.102900	0.602900	0.500000
Yb101	Yb10	0.897100	0.397100	0.500000
Yb111	Yb11	0.397100	0.500000	0.897100
Yb121	Yb12	0.602900	0.500000	0.102900
H11	H1	0.746000	0.551000	0.443400
H21	H2	0.673100	0.586200	0.479300
H31	H3	0.107600	0.302600	0.556600
H41	H4	0.106900	0.193800	0.520700
H51	H5	0.892400	0.449000	0.195000
H61	H6	0.893100	0.413800	0.086900
H71	H7	0.254000	0.697400	0.805000
H81	H8	0.326900	0.806200	0.913100
H91	H9	0.195000	0.892400	0.449000
H101	H10	0.086900	0.893100	0.413800
H111	H11	0.805000	0.254000	0.697400
H121	H12	0.913100	0.326900	0.806200
H131	H13	0.443400	0.746000	0.551000
H141	H14	0.479300	0.673100	0.586200
H151	H15	0.556600	0.107600	0.302600
H161	H16	0.520700	0.106900	0.193800
H171	H17	0.302600	0.556600	0.107600
H181	H18	0.193800	0.520700	0.106900
H191	H19	0.551000	0.443400	0.746000
H201	H20	0.586200	0.479300	0.673100
H211	H21	0.697400	0.805000	0.254000
H221	H22	0.806200	0.913100	0.326900
H231	H23	0.449000	0.195000	0.892400
H241	H24	0.413800	0.086900	0.893100
H251	H25	0.449000	0.254000	0.556600
H261	H26	0.413800	0.326900	0.520700
H271	H27	0.697400	0.892400	0.443400
H281	H28	0.806200	0.893100	0.479300
H291	H29	0.551000	0.107600	0.805000
H301	H30	0.586200	0.106900	0.913100
H311	H31	0.302600	0.746000	0.195000
H321	H32	0.193800	0.673100	0.086900
H331	H33	0.107600	0.805000	0.551000
H341	H34	0.106900	0.913100	0.586200
H351	H35	0.746000	0.195000	0.302600
H361	H36	0.673100	0.086900	0.193800
H371	H37	0.254000	0.556600	0.449000
H381	H38	0.326900	0.520700	0.413800
H391	H39	0.892400	0.443400	0.697400
H401	H40	0.893100	0.479300	0.806200
H411	H41	0.443400	0.697400	0.892400
H421	H42	0.479300	0.806200	0.893100
H431	H43	0.556600	0.449000	0.254000
H441	H44	0.520700	0.413800	0.326900
H451	H45	0.195000	0.302600	0.746000
H461	H46	0.086900	0.193800	0.673100
H471	H47	0.805000	0.551000	0.107600
H481	H48	0.913100	0.586200	0.106900
H491	H49	0.254000	0.449000	0.556600
H501	H50	0.326900	0.413800	0.520700
H511	H51	0.892400	0.697400	0.443400
H521	H52	0.893100	0.806200	0.479300
H531	H53	0.107600	0.551000	0.805000
H541	H54	0.106900	0.586200	0.913100
H551	H55	0.746000	0.302600	0.195000
H561	H56	0.673100	0.193800	0.086900
H571	H57	0.805000	0.107600	0.551000
H581	H58	0.913100	0.106900	0.586200
H591	H59	0.195000	0.746000	0.302600
H601	H60	0.086900	0.673100	0.193800
H611	H61	0.556600	0.254000	0.449000
H621	H62	0.520700	0.326900	0.413800
H631	H63	0.443400	0.892400	0.697400
H641	H64	0.479300	0.893100	0.806200
H651	H65	0.697400	0.443400	0.892400
H661	H66	0.806200	0.479300	0.893100
H671	H67	0.449000	0.556600	0.254000
H681	H68	0.413800	0.520700	0.326900
H691	H69	0.302600	0.195000	0.746000
H701	H70	0.193800	0.086900	0.673100
H711	H71	0.551000	0.805000	0.107600
H721	H72	0.586200	0.913100	0.106900
H731	H73	0.551000	0.746000	0.443400
H741	H74	0.586200	0.673100	0.479300
H751	H75	0.302600	0.107600	0.556600
H761	H76	0.193800	0.106900	0.520700
H771	H77	0.449000	0.892400	0.195000
H781	H78	0.413800	0.893100	0.086900
H791	H79	0.697400	0.254000	0.805000
H801	H80	0.806200	0.326900	0.913100
H811	H81	0.892400	0.195000	0.449000
H821	H82	0.893100	0.086900	0.413800
H831	H83	0.254000	0.805000	0.697400
H841	H84	0.326900	0.913100	0.806200
H851	H85	0.746000	0.443400	0.551000
H861	H86	0.673100	0.479300	0.586200
H871	H87	0.107600	0.556600	0.302600
H881	H88	0.106900	0.520700	0.193800
H891	H89	0.556600	0.302600	0.107600
H901	H90	0.520700	0.193800	0.106900
H911	H91	0.443400	0.551000	0.746000
H921	H92	0.479300	0.586200	0.673100
H931	H93	0.805000	0.697400	0.254000
H941	H94	0.913100	0.806200	0.326900
H951	H95	0.195000	0.449000	0.892400
H961	H96	0.086900	0.413800	0.893100
C11	C1	0.732600	0.537300	0.473700
C21	C2	0.688000	0.557200	0.494200
C31	C3	0.063600	0.258900	0.526300
C41	C4	0.063000	0.193800	0.505800
C51	C5	0.936400	0.462700	0.195300
C61	C6	0.937000	0.442800	0.130800
C71	C7	0.267400	0.741100	0.804700
C81	C8	0.312000	0.806200	0.869200
C91	C9	0.195300	0.936400	0.462700
C101	C10	0.130800	0.937000	0.442800
C111	C11	0.804700	0.267400	0.741100
C121	C12	0.869200	0.312000	0.806200
C131	C13	0.473700	0.732600	0.537300
C141	C14	0.494200	0.688000	0.557200
C151	C15	0.526300	0.063600	0.258900
C161	C16	0.505800	0.063000	0.193800
C171	C17	0.258900	0.526300	0.063600
C181	C18	0.193800	0.505800	0.063000
C191	C19	0.537300	0.473700	0.732600
C201	C20	0.557200	0.494200	0.688000
C211	C21	0.741100	0.804700	0.267400
C221	C22	0.806200	0.869200	0.312000
C231	C23	0.462700	0.195300	0.936400
C241	C24	0.442800	0.130800	0.937000
C251	C25	0.462700	0.267400	0.526300
C261	C26	0.442800	0.312000	0.505800
C271	C27	0.741100	0.936400	0.473700
C281	C28	0.806200	0.937000	0.494200
C291	C29	0.537300	0.063600	0.804700
C301	C30	0.557200	0.063000	0.869200
C311	C31	0.258900	0.732600	0.195300
C321	C32	0.193800	0.688000	0.130800
C331	C33	0.063600	0.804700	0.537300
C341	C34	0.063000	0.869200	0.557200
C351	C35	0.732600	0.195300	0.258900
C361	C36	0.688000	0.130800	0.193800
C371	C37	0.267400	0.526300	0.462700
C381	C38	0.312000	0.505800	0.442800
C391	C39	0.936400	0.473700	0.741100
C401	C40	0.937000	0.494200	0.806200
C411	C41	0.473700	0.741100	0.936400
C421	C42	0.494200	0.806200	0.937000
C431	C43	0.526300	0.462700	0.267400
C441	C44	0.505800	0.442800	0.312000
C451	C45	0.195300	0.258900	0.732600
C461	C46	0.130800	0.193800	0.688000
C471	C47	0.804700	0.537300	0.063600
C481	C48	0.869200	0.557200	0.063000
C491	C49	0.267400	0.462700	0.526300
C501	C50	0.312000	0.442800	0.505800
C511	C51	0.936400	0.741100	0.473700
C521	C52	0.937000	0.806200	0.494200
C531	C53	0.063600	0.537300	0.804700
C541	C54	0.063000	0.557200	0.869200
C551	C55	0.732600	0.258900	0.195300
C561	C56	0.688000	0.193800	0.130800
C571	C57	0.804700	0.063600	0.537300
C581	C58	0.869200	0.063000	0.557200
C591	C59	0.195300	0.732600	0.258900
C601	C60	0.130800	0.688000	0.193800
C611	C61	0.526300	0.267400	0.462700
C621	C62	0.505800	0.312000	0.442800
C631	C63	0.473700	0.936400	0.741100
C641	C64	0.494200	0.937000	0.806200
C651	C65	0.741100	0.473700	0.936400
C661	C66	0.806200	0.494200	0.937000
C671	C67	0.462700	0.526300	0.267400
C681	C68	0.442800	0.505800	0.312000
C691	C69	0.258900	0.195300	0.732600
C701	C70	0.193800	0.130800	0.688000
C711	C71	0.537300	0.804700	0.063600
C721	C72	0.557200	0.869200	0.063000
C731	C73	0.537300	0.732600	0.473700
C741	C74	0.557200	0.688000	0.494200
C751	C75	0.258900	0.063600	0.526300
C761	C76	0.193800	0.063000	0.505800
C771	C77	0.462700	0.936400	0.195300
C781	C78	0.442800	0.937000	0.130800
C791	C79	0.741100	0.267400	0.804700
C801	C80	0.806200	0.312000	0.869200
C811	C81	0.936400	0.195300	0.462700
C821	C82	0.937000	0.130800	0.442800
C831	C83	0.267400	0.804700	0.741100
C841	C84	0.312000	0.869200	0.806200
C851	C85	0.732600	0.473700	0.537300
C861	C86	0.688000	0.494200	0.557200
C871	C87	0.063600	0.526300	0.258900
C881	C88	0.063000	0.505800	0.193800
C891	C89	0.526300	0.258900	0.063600
C901	C90	0.505800	0.193800	0.063000
C911	C91	0.473700	0.537300	0.732600
C921	C92	0.494200	0.557200	0.688000
C931	C93	0.804700	0.741100	0.267400
C941	C94	0.869200	0.806200	0.312000
C951	C95	0.195300	0.462700	0.936400
C961	C96	0.130800	0.442800	0.937000
C971	C97	0.665400	0.535400	0.535400
C981	C98	0.613600	0.554500	0.554500
C991	C99	0.799400	0.472900	0.472900
C1001	C100	0.756800	0.497600	0.497600
C1011	C101	0.000000	0.130000	0.464600
C1021	C102	0.000000	0.059100	0.445500
C1031	C103	0.000000	0.326500	0.527100
C1041	C104	0.000000	0.259200	0.502400
C1051	C105	0.000000	0.464600	0.130000
C1061	C106	0.000000	0.445500	0.059100
C1071	C107	0.000000	0.527100	0.326500
C1081	C108	0.000000	0.502400	0.259200
C1091	C109	0.334600	0.870000	0.870000
C1101	C110	0.386400	0.940900	0.940900
C1111	C111	0.200600	0.673500	0.673500
C1121	C112	0.243200	0.740800	0.740800
C1131	C113	0.130000	0.000000	0.464600
C1141	C114	0.059100	0.000000	0.445500
C1151	C115	0.326500	0.000000	0.527100
C1161	C116	0.259200	0.000000	0.502400
C1171	C117	0.870000	0.334600	0.870000
C1181	C118	0.940900	0.386400	0.940900
C1191	C119	0.673500	0.200600	0.673500
C1201	C120	0.740800	0.243200	0.740800
C1211	C121	0.535400	0.665400	0.535400
C1221	C122	0.554500	0.613600	0.554500
C1231	C123	0.472900	0.799400	0.472900
C1241	C124	0.497600	0.756800	0.497600
C1251	C125	0.464600	0.000000	0.130000
C1261	C126	0.445500	0.000000	0.059100
C1271	C127	0.527100	0.000000	0.326500
C1281	C128	0.502400	0.000000	0.259200
C1291	C129	0.130000	0.464600	0.000000
C1301	C130	0.059100	0.445500	0.000000
C1311	C131	0.326500	0.527100	0.000000
C1321	C132	0.259200	0.502400	0.000000
C1331	C133	0.535400	0.535400	0.665400
C1341	C134	0.554500	0.554500	0.613600
C1351	C135	0.472900	0.472900	0.799400
C1361	C136	0.497600	0.497600	0.756800
C1371	C137	0.870000	0.870000	0.334600
C1381	C138	0.940900	0.940900	0.386400
C1391	C139	0.673500	0.673500	0.200600
C1401	C140	0.740800	0.740800	0.243200
C1411	C141	0.464600	0.130000	0.000000
C1421	C142	0.445500	0.059100	0.000000
C1431	C143	0.527100	0.326500	0.000000
C1441	C144	0.502400	0.259200	0.000000
C1451	C145	0.464600	0.334600	0.464600
C1461	C146	0.445500	0.386400	0.445500
C1471	C147	0.527100	0.200600	0.527100
C1481	C148	0.502400	0.243200	0.502400
C1491	C149	0.870000	0.000000	0.535400
C1501	C150	0.940900	0.000000	0.554500
C1511	C151	0.673500	0.000000	0.472900
C1521	C152	0.740800	0.000000	0.497600
C1531	C153	0.535400	0.000000	0.870000
C1541	C154	0.554500	0.000000	0.940900
C1551	C155	0.472900	0.000000	0.673500
C1561	C156	0.497600	0.000000	0.740800
C1571	C157	0.130000	0.665400	0.130000
C1581	C158	0.059100	0.613600	0.059100
C1591	C159	0.326500	0.799400	0.326500
C1601	C160	0.259200	0.756800	0.259200
C1611	C161	0.000000	0.870000	0.535400
C1621	C162	0.000000	0.940900	0.554500
C1631	C163	0.000000	0.673500	0.472900
C1641	C164	0.000000	0.740800	0.497600
C1651	C165	0.665400	0.130000	0.130000
C1661	C166	0.613600	0.059100	0.059100
C1671	C167	0.799400	0.326500	0.326500
C1681	C168	0.756800	0.259200	0.259200
C1691	C169	0.334600	0.464600	0.464600
C1701	C170	0.386400	0.445500	0.445500
C1711	C171	0.200600	0.527100	0.527100
C1721	C172	0.243200	0.502400	0.502400
C1731	C173	0.000000	0.535400	0.870000
C1741	C174	0.000000	0.554500	0.940900
C1751	C175	0.000000	0.472900	0.673500
C1761	C176	0.000000	0.497600	0.740800
C1771	C177	0.535400	0.870000	0.000000
C1781	C178	0.554500	0.940900	0.000000
C1791	C179	0.472900	0.673500	0.000000
C1801	C180	0.497600	0.740800	0.000000
C1811	C181	0.464600	0.464600	0.334600
C1821	C182	0.445500	0.445500	0.386400
C1831	C183	0.527100	0.527100	0.200600
C1841	C184	0.502400	0.502400	0.243200
C1851	C185	0.130000	0.130000	0.665400
C1861	C186	0.059100	0.059100	0.613600
C1871	C187	0.326500	0.326500	0.799400
C1881	C188	0.259200	0.259200	0.756800
C1891	C189	0.870000	0.535400	0.000000
C1901	C190	0.940900	0.554500	0.000000
C1911	C191	0.673500	0.472900	0.000000
C1921	C192	0.740800	0.497600	0.000000
N11	N1	0.598600	0.598600	0.534000
N21	N2	0.064600	0.064600	0.466000
N31	N3	0.935400	0.401400	0.000000
N41	N4	0.401400	0.935400	0.000000
N51	N5	0.000000	0.935400	0.401400
N61	N6	0.000000	0.401400	0.935400
N71	N7	0.534000	0.598600	0.598600
N81	N8	0.466000	0.064600	0.064600
N91	N9	0.064600	0.466000	0.064600
N101	N10	0.598600	0.534000	0.598600
N111	N11	0.935400	0.000000	0.401400
N121	N12	0.401400	0.000000	0.935400
N131	N13	0.401400	0.401400	0.466000
N141	N14	0.935400	0.935400	0.534000
N151	N15	0.598600	0.064600	0.000000
N161	N16	0.064600	0.598600	0.000000
N171	N17	0.064600	0.000000	0.598600
N181	N18	0.598600	0.000000	0.064600
N191	N19	0.401400	0.466000	0.401400
N201	N20	0.935400	0.534000	0.935400
N211	N21	0.534000	0.935400	0.935400
N221	N22	0.466000	0.401400	0.401400
N231	N23	0.000000	0.064600	0.598600
N241	N24	0.000000	0.598600	0.064600
O11	O1	0.817900	0.495200	0.433500
O21	O2	0.061700	0.384400	0.566500
O31	O3	0.938300	0.504800	0.322700
O41	O4	0.182100	0.615600	0.677300
O51	O5	0.322700	0.938300	0.504800
O61	O6	0.677300	0.182100	0.615600
O71	O7	0.433500	0.817900	0.495200
O81	O8	0.566500	0.061700	0.384400
O91	O9	0.384400	0.566500	0.061700
O101	O10	0.495200	0.433500	0.817900
O111	O11	0.615600	0.677300	0.182100
O121	O12	0.504800	0.322700	0.938300
O131	O13	0.504800	0.182100	0.566500
O141	O14	0.615600	0.938300	0.433500
O151	O15	0.495200	0.061700	0.677300
O161	O16	0.384400	0.817900	0.322700
O171	O17	0.061700	0.677300	0.495200
O181	O18	0.817900	0.322700	0.384400
O191	O19	0.182100	0.566500	0.504800
O201	O20	0.938300	0.433500	0.615600
O211	O21	0.433500	0.615600	0.938300
O221	O22	0.566500	0.504800	0.182100
O231	O23	0.322700	0.384400	0.817900
O241	O24	0.677300	0.495200	0.061700
O251	O25	0.182100	0.504800	0.566500
O261	O26	0.938300	0.615600	0.433500
O271	O27	0.061700	0.495200	0.677300
O281	O28	0.817900	0.384400	0.322700
O291	O29	0.677300	0.061700	0.495200
O301	O30	0.322700	0.817900	0.384400
O311	O31	0.566500	0.182100	0.504800
O321	O32	0.433500	0.938300	0.615600
O331	O33	0.615600	0.433500	0.938300
O341	O34	0.504800	0.566500	0.182100
O351	O35	0.384400	0.322700	0.817900
O361	O36	0.495200	0.677300	0.061700
O371	O37	0.495200	0.817900	0.433500
O381	O38	0.384400	0.061700	0.566500
O391	O39	0.504800	0.938300	0.322700
O401	O40	0.615600	0.182100	0.677300
O411	O41	0.938300	0.322700	0.504800
O421	O42	0.182100	0.677300	0.615600
O431	O43	0.817900	0.433500	0.495200
O441	O44	0.061700	0.566500	0.384400
O451	O45	0.566500	0.384400	0.061700
O461	O46	0.433500	0.495200	0.817900
O471	O47	0.677300	0.615600	0.182100
O481	O48	0.322700	0.504800	0.938300
O491	O49	0.000000	0.500000	0.500000
O501	O50	0.500000	0.000000	0.500000
O511	O51	0.500000	0.500000	0.000000
