data_POBVIN_clean_PM
_symmetry_space_group_name_H-M	'P1'
_cell_length_a	30.458900
_cell_length_b	30.458900
_cell_length_c	44.287000
_cell_angle_alpha	90.000000
_cell_angle_beta	90.000000
_cell_angle_gamma	90.000000
_symmetry_Int_Tables_number 1

loop_
_symmetry_equiv_pos_as_xyz
'x,y,z'

loop_
_atom_site_label
_atom_site_type_symbol
_atom_site_fract_x
_atom_site_fract_y
_atom_site_fract_z
Zn11	Zn1	0.021660	0.244790	0.130050
Zn21	Zn2	0.012550	0.150810	0.173140
C11	C1	0.780400	0.250000	0.096000
H11	H1	0.793000	0.236600	0.112800
C21	C2	0.789500	0.242100	0.067600
C31	C3	0.824300	0.208800	0.051600
C41	C4	0.832700	0.195400	0.019600
C51	C5	0.862500	0.164200	0.015200
H21	H2	0.878500	0.147400	0.028900
O11	O1	0.794000	0.066400	0.116000
O21	O2	0.846500	0.064500	0.148900
O31	O3	0.968700	0.167100	0.144000
O41	O4	0.973500	0.222600	0.112300
C61	C6	0.951500	0.193200	0.120600
C71	C7	0.911100	0.172700	0.111700
C81	C8	0.889000	0.137500	0.123300
H31	H3	0.902400	0.122100	0.138900
C91	C9	0.849500	0.123300	0.113900
C101	C10	0.826900	0.088200	0.126600
C111	C11	0.825800	0.146700	0.092100
H41	H4	0.797200	0.138700	0.087300
C121	C12	0.845600	0.182000	0.077900
C131	C13	0.886400	0.196500	0.089700
H51	H5	0.897700	0.223000	0.082700
O51	O5	0.032800	0.298200	0.110600
O61	O6	0.093700	0.292300	0.140900
C141	C14	0.070200	0.314200	0.121200
C151	C15	0.089400	0.358300	0.112800
C161	C16	0.066100	0.380400	0.092100
H61	H6	0.039400	0.368900	0.085700
C171	C17	0.043100	0.410300	0.249500
C181	C18	0.082300	0.387500	0.252000
H71	H7	0.086200	0.357200	0.253300
C191	C19	0.004300	0.266500	0.223000
C201	C20	0.002600	0.312800	0.226000
H81	H8	0.003400	0.328600	0.208000
O71	O7	0.005200	0.266900	0.167300
O81	O8	0.013800	0.196800	0.197200
C211	C21	0.012400	0.242000	0.189800
Zn31	Zn3	0.521660	0.744790	0.630050
Zn41	Zn4	0.512550	0.650810	0.673140
C221	C22	0.280400	0.750000	0.596000
H91	H9	0.293000	0.736600	0.612800
C231	C23	0.289500	0.742100	0.567600
C241	C24	0.324300	0.708800	0.551600
C251	C25	0.332700	0.695400	0.519600
C261	C26	0.362500	0.664200	0.515200
H101	H10	0.378500	0.647400	0.528900
O91	O9	0.294000	0.566400	0.616000
O101	O10	0.346500	0.564500	0.648900
O111	O11	0.468700	0.667100	0.644000
O121	O12	0.473500	0.722600	0.612300
C271	C27	0.451500	0.693200	0.620600
C281	C28	0.411100	0.672700	0.611700
C291	C29	0.389000	0.637500	0.623300
H111	H11	0.402400	0.622100	0.638900
C301	C30	0.349500	0.623300	0.613900
C311	C31	0.326900	0.588200	0.626600
C321	C32	0.325800	0.646700	0.592100
H121	H12	0.297200	0.638700	0.587300
C331	C33	0.345600	0.682000	0.577900
C341	C34	0.386400	0.696500	0.589700
H131	H13	0.397700	0.723000	0.582700
O131	O13	0.532800	0.798200	0.610600
O141	O14	0.593700	0.792300	0.640900
C351	C35	0.570200	0.814200	0.621200
C361	C36	0.589400	0.858300	0.612800
C371	C37	0.566100	0.880400	0.592100
H141	H14	0.539400	0.868900	0.585700
C381	C38	0.543100	0.910300	0.749500
C391	C39	0.582300	0.887500	0.752000
H151	H15	0.586200	0.857200	0.753300
C401	C40	0.504300	0.766500	0.723000
C411	C41	0.502600	0.812800	0.726000
H161	H16	0.503400	0.828600	0.708000
O151	O15	0.505200	0.766900	0.667300
O161	O16	0.513800	0.696800	0.697200
C421	C42	0.512400	0.742000	0.689800
Zn51	Zn5	0.978340	0.755210	0.130050
Zn61	Zn6	0.987450	0.849190	0.173140
C431	C43	0.219600	0.750000	0.096000
H171	H17	0.207000	0.763400	0.112800
C441	C44	0.210500	0.757900	0.067600
C451	C45	0.175700	0.791200	0.051600
C461	C46	0.167300	0.804600	0.019600
C471	C47	0.137500	0.835800	0.015200
H181	H18	0.121500	0.852600	0.028900
O171	O17	0.206000	0.933600	0.116000
O181	O18	0.153500	0.935500	0.148900
O191	O19	0.031300	0.832900	0.144000
O201	O20	0.026500	0.777400	0.112300
C481	C48	0.048500	0.806800	0.120600
C491	C49	0.088900	0.827300	0.111700
C501	C50	0.111000	0.862500	0.123300
H191	H19	0.097600	0.877900	0.138900
C511	C51	0.150500	0.876700	0.113900
C521	C52	0.173100	0.911800	0.126600
C531	C53	0.174200	0.853300	0.092100
H201	H20	0.202800	0.861300	0.087300
C541	C54	0.154400	0.818000	0.077900
C551	C55	0.113600	0.803500	0.089700
H211	H21	0.102300	0.777000	0.082700
O211	O21	0.967200	0.701800	0.110600
O221	O22	0.906300	0.707700	0.140900
C561	C56	0.929800	0.685800	0.121200
C571	C57	0.910600	0.641700	0.112800
C581	C58	0.933900	0.619600	0.092100
H221	H22	0.960600	0.631100	0.085700
C591	C59	0.956900	0.589700	0.249500
C601	C60	0.917700	0.612500	0.252000
H231	H23	0.913800	0.642800	0.253300
C611	C61	0.995700	0.733500	0.223000
C621	C62	0.997400	0.687200	0.226000
H241	H24	0.996600	0.671400	0.208000
O231	O23	0.994800	0.733100	0.167300
O241	O24	0.986200	0.803200	0.197200
C631	C63	0.987600	0.758000	0.189800
Zn71	Zn7	0.478340	0.255210	0.630050
Zn81	Zn8	0.487450	0.349190	0.673140
C641	C64	0.719600	0.250000	0.596000
H251	H25	0.707000	0.263400	0.612800
C651	C65	0.710500	0.257900	0.567600
C661	C66	0.675700	0.291200	0.551600
C671	C67	0.667300	0.304600	0.519600
C681	C68	0.637500	0.335800	0.515200
H261	H26	0.621500	0.352600	0.528900
O251	O25	0.706000	0.433600	0.616000
O261	O26	0.653500	0.435500	0.648900
O271	O27	0.531300	0.332900	0.644000
O281	O28	0.526500	0.277400	0.612300
C691	C69	0.548500	0.306800	0.620600
C701	C70	0.588900	0.327300	0.611700
C711	C71	0.611000	0.362500	0.623300
H271	H27	0.597600	0.377900	0.638900
C721	C72	0.650500	0.376700	0.613900
C731	C73	0.673100	0.411800	0.626600
C741	C74	0.674200	0.353300	0.592100
H281	H28	0.702800	0.361300	0.587300
C751	C75	0.654400	0.318000	0.577900
C761	C76	0.613600	0.303500	0.589700
H291	H29	0.602300	0.277000	0.582700
O291	O29	0.467200	0.201800	0.610600
O301	O30	0.406300	0.207700	0.640900
C771	C77	0.429800	0.185800	0.621200
C781	C78	0.410600	0.141700	0.612800
C791	C79	0.433900	0.119600	0.592100
H301	H30	0.460600	0.131100	0.585700
C801	C80	0.456900	0.089700	0.749500
C811	C81	0.417700	0.112500	0.752000
H311	H31	0.413800	0.142800	0.753300
C821	C82	0.495700	0.233500	0.723000
C831	C83	0.497400	0.187200	0.726000
H321	H32	0.496600	0.171400	0.708000
O311	O31	0.494800	0.233100	0.667300
O321	O32	0.486200	0.303200	0.697200
C841	C84	0.487600	0.258000	0.689800
Zn91	Zn9	0.755210	0.021660	0.130050
Zn101	Zn10	0.849190	0.012550	0.173140
C851	C85	0.750000	0.780400	0.096000
H331	H33	0.763400	0.793000	0.112800
C861	C86	0.757900	0.789500	0.067600
C871	C87	0.791200	0.824300	0.051600
C881	C88	0.804600	0.832700	0.019600
C891	C89	0.835800	0.862500	0.015200
H341	H34	0.852600	0.878500	0.028900
O331	O33	0.933600	0.794000	0.116000
O341	O34	0.935500	0.846500	0.148900
O351	O35	0.832900	0.968700	0.144000
O361	O36	0.777400	0.973500	0.112300
C901	C90	0.806800	0.951500	0.120600
C911	C91	0.827300	0.911100	0.111700
C921	C92	0.862500	0.889000	0.123300
H351	H35	0.877900	0.902400	0.138900
C931	C93	0.876700	0.849500	0.113900
C941	C94	0.911800	0.826900	0.126600
C951	C95	0.853300	0.825800	0.092100
H361	H36	0.861300	0.797200	0.087300
C961	C96	0.818000	0.845600	0.077900
C971	C97	0.803500	0.886400	0.089700
H371	H37	0.777000	0.897700	0.082700
O371	O37	0.701800	0.032800	0.110600
O381	O38	0.707700	0.093700	0.140900
C981	C98	0.685800	0.070200	0.121200
C991	C99	0.641700	0.089400	0.112800
C1001	C100	0.619600	0.066100	0.092100
H381	H38	0.631100	0.039400	0.085700
C1011	C101	0.589700	0.043100	0.249500
C1021	C102	0.612500	0.082300	0.252000
H391	H39	0.642800	0.086200	0.253300
C1031	C103	0.733500	0.004300	0.223000
C1041	C104	0.687200	0.002600	0.226000
H401	H40	0.671400	0.003400	0.208000
O391	O39	0.733100	0.005200	0.167300
O401	O40	0.803200	0.013800	0.197200
C1051	C105	0.758000	0.012400	0.189800
Zn111	Zn11	0.255210	0.521660	0.630050
Zn121	Zn12	0.349190	0.512550	0.673140
C1061	C106	0.250000	0.280400	0.596000
H411	H41	0.263400	0.293000	0.612800
C1071	C107	0.257900	0.289500	0.567600
C1081	C108	0.291200	0.324300	0.551600
C1091	C109	0.304600	0.332700	0.519600
C1101	C110	0.335800	0.362500	0.515200
H421	H42	0.352600	0.378500	0.528900
O411	O41	0.433600	0.294000	0.616000
O421	O42	0.435500	0.346500	0.648900
O431	O43	0.332900	0.468700	0.644000
O441	O44	0.277400	0.473500	0.612300
C1111	C111	0.306800	0.451500	0.620600
C1121	C112	0.327300	0.411100	0.611700
C1131	C113	0.362500	0.389000	0.623300
H431	H43	0.377900	0.402400	0.638900
C1141	C114	0.376700	0.349500	0.613900
C1151	C115	0.411800	0.326900	0.626600
C1161	C116	0.353300	0.325800	0.592100
H441	H44	0.361300	0.297200	0.587300
C1171	C117	0.318000	0.345600	0.577900
C1181	C118	0.303500	0.386400	0.589700
H451	H45	0.277000	0.397700	0.582700
O451	O45	0.201800	0.532800	0.610600
O461	O46	0.207700	0.593700	0.640900
C1191	C119	0.185800	0.570200	0.621200
C1201	C120	0.141700	0.589400	0.612800
C1211	C121	0.119600	0.566100	0.592100
H461	H46	0.131100	0.539400	0.585700
C1221	C122	0.089700	0.543100	0.749500
C1231	C123	0.112500	0.582300	0.752000
H471	H47	0.142800	0.586200	0.753300
C1241	C124	0.233500	0.504300	0.723000
C1251	C125	0.187200	0.502600	0.726000
H481	H48	0.171400	0.503400	0.708000
O471	O47	0.233100	0.505200	0.667300
O481	O48	0.303200	0.513800	0.697200
C1261	C126	0.258000	0.512400	0.689800
Zn131	Zn13	0.244790	0.978340	0.130050
Zn141	Zn14	0.150810	0.987450	0.173140
C1271	C127	0.250000	0.219600	0.096000
H491	H49	0.236600	0.207000	0.112800
C1281	C128	0.242100	0.210500	0.067600
C1291	C129	0.208800	0.175700	0.051600
C1301	C130	0.195400	0.167300	0.019600
C1311	C131	0.164200	0.137500	0.015200
H501	H50	0.147400	0.121500	0.028900
O491	O49	0.066400	0.206000	0.116000
O501	O50	0.064500	0.153500	0.148900
O511	O51	0.167100	0.031300	0.144000
O521	O52	0.222600	0.026500	0.112300
C1321	C132	0.193200	0.048500	0.120600
C1331	C133	0.172700	0.088900	0.111700
C1341	C134	0.137500	0.111000	0.123300
H511	H51	0.122100	0.097600	0.138900
C1351	C135	0.123300	0.150500	0.113900
C1361	C136	0.088200	0.173100	0.126600
C1371	C137	0.146700	0.174200	0.092100
H521	H52	0.138700	0.202800	0.087300
C1381	C138	0.182000	0.154400	0.077900
C1391	C139	0.196500	0.113600	0.089700
H531	H53	0.223000	0.102300	0.082700
O531	O53	0.298200	0.967200	0.110600
O541	O54	0.292300	0.906300	0.140900
C1401	C140	0.314200	0.929800	0.121200
C1411	C141	0.358300	0.910600	0.112800
C1421	C142	0.380400	0.933900	0.092100
H541	H54	0.368900	0.960600	0.085700
C1431	C143	0.410300	0.956900	0.249500
C1441	C144	0.387500	0.917700	0.252000
H551	H55	0.357200	0.913800	0.253300
C1451	C145	0.266500	0.995700	0.223000
C1461	C146	0.312800	0.997400	0.226000
H561	H56	0.328600	0.996600	0.208000
O551	O55	0.266900	0.994800	0.167300
O561	O56	0.196800	0.986200	0.197200
C1471	C147	0.242000	0.987600	0.189800
Zn151	Zn15	0.744790	0.478340	0.630050
Zn161	Zn16	0.650810	0.487450	0.673140
C1481	C148	0.750000	0.719600	0.596000
H571	H57	0.736600	0.707000	0.612800
C1491	C149	0.742100	0.710500	0.567600
C1501	C150	0.708800	0.675700	0.551600
C1511	C151	0.695400	0.667300	0.519600
C1521	C152	0.664200	0.637500	0.515200
H581	H58	0.647400	0.621500	0.528900
O571	O57	0.566400	0.706000	0.616000
O581	O58	0.564500	0.653500	0.648900
O591	O59	0.667100	0.531300	0.644000
O601	O60	0.722600	0.526500	0.612300
C1531	C153	0.693200	0.548500	0.620600
C1541	C154	0.672700	0.588900	0.611700
C1551	C155	0.637500	0.611000	0.623300
H591	H59	0.622100	0.597600	0.638900
C1561	C156	0.623300	0.650500	0.613900
C1571	C157	0.588200	0.673100	0.626600
C1581	C158	0.646700	0.674200	0.592100
H601	H60	0.638700	0.702800	0.587300
C1591	C159	0.682000	0.654400	0.577900
C1601	C160	0.696500	0.613600	0.589700
H611	H61	0.723000	0.602300	0.582700
O611	O61	0.798200	0.467200	0.610600
O621	O62	0.792300	0.406300	0.640900
C1611	C161	0.814200	0.429800	0.621200
C1621	C162	0.858300	0.410600	0.612800
C1631	C163	0.880400	0.433900	0.592100
H621	H62	0.868900	0.460600	0.585700
C1641	C164	0.910300	0.456900	0.749500
C1651	C165	0.887500	0.417700	0.752000
H631	H63	0.857200	0.413800	0.753300
C1661	C166	0.766500	0.495700	0.723000
C1671	C167	0.812800	0.497400	0.726000
H641	H64	0.828600	0.496600	0.708000
O631	O63	0.766900	0.494800	0.667300
O641	O64	0.696800	0.486200	0.697200
C1681	C168	0.742000	0.487600	0.689800
Zn171	Zn17	0.978340	0.244790	0.369950
Zn181	Zn18	0.987450	0.150810	0.326860
C1691	C169	0.219600	0.250000	0.404000
H651	H65	0.207000	0.236600	0.387200
C1701	C170	0.210500	0.242100	0.432400
C1711	C171	0.175700	0.208800	0.448400
C1721	C172	0.167300	0.195400	0.480400
C1731	C173	0.137500	0.164200	0.484800
H661	H66	0.121500	0.147400	0.471100
O651	O65	0.206000	0.066400	0.384000
O661	O66	0.153500	0.064500	0.351100
O671	O67	0.031300	0.167100	0.356000
O681	O68	0.026500	0.222600	0.387700
C1741	C174	0.048500	0.193200	0.379400
C1751	C175	0.088900	0.172700	0.388300
C1761	C176	0.111000	0.137500	0.376700
H671	H67	0.097600	0.122100	0.361100
C1771	C177	0.150500	0.123300	0.386100
C1781	C178	0.173100	0.088200	0.373400
C1791	C179	0.174200	0.146700	0.407900
H681	H68	0.202800	0.138700	0.412700
C1801	C180	0.154400	0.182000	0.422100
C1811	C181	0.113600	0.196500	0.410300
H691	H69	0.102300	0.223000	0.417300
O691	O69	0.967200	0.298200	0.389400
O701	O70	0.906300	0.292300	0.359100
C1821	C182	0.929800	0.314200	0.378800
C1831	C183	0.910600	0.358300	0.387200
C1841	C184	0.933900	0.380400	0.407900
H701	H70	0.960600	0.368900	0.414300
C1851	C185	0.956900	0.410300	0.250500
C1861	C186	0.917700	0.387500	0.248000
H711	H71	0.913800	0.357200	0.246700
C1871	C187	0.995700	0.266500	0.277000
C1881	C188	0.997400	0.312800	0.274000
H721	H72	0.996600	0.328600	0.292000
O711	O71	0.994800	0.266900	0.332700
O721	O72	0.986200	0.196800	0.302800
C1891	C189	0.987600	0.242000	0.310200
Zn191	Zn19	0.478340	0.744790	0.869950
Zn201	Zn20	0.487450	0.650810	0.826860
C1901	C190	0.719600	0.750000	0.904000
H731	H73	0.707000	0.736600	0.887200
C1911	C191	0.710500	0.742100	0.932400
C1921	C192	0.675700	0.708800	0.948400
C1931	C193	0.667300	0.695400	0.980400
C1941	C194	0.637500	0.664200	0.984800
H741	H74	0.621500	0.647400	0.971100
O731	O73	0.706000	0.566400	0.884000
O741	O74	0.653500	0.564500	0.851100
O751	O75	0.531300	0.667100	0.856000
O761	O76	0.526500	0.722600	0.887700
C1951	C195	0.548500	0.693200	0.879400
C1961	C196	0.588900	0.672700	0.888300
C1971	C197	0.611000	0.637500	0.876700
H751	H75	0.597600	0.622100	0.861100
C1981	C198	0.650500	0.623300	0.886100
C1991	C199	0.673100	0.588200	0.873400
C2001	C200	0.674200	0.646700	0.907900
H761	H76	0.702800	0.638700	0.912700
C2011	C201	0.654400	0.682000	0.922100
C2021	C202	0.613600	0.696500	0.910300
H771	H77	0.602300	0.723000	0.917300
O771	O77	0.467200	0.798200	0.889400
O781	O78	0.406300	0.792300	0.859100
C2031	C203	0.429800	0.814200	0.878800
C2041	C204	0.410600	0.858300	0.887200
C2051	C205	0.433900	0.880400	0.907900
H781	H78	0.460600	0.868900	0.914300
C2061	C206	0.456900	0.910300	0.750500
C2071	C207	0.417700	0.887500	0.748000
H791	H79	0.413800	0.857200	0.746700
C2081	C208	0.495700	0.766500	0.777000
C2091	C209	0.497400	0.812800	0.774000
H801	H80	0.496600	0.828600	0.792000
O791	O79	0.494800	0.766900	0.832700
O801	O80	0.486200	0.696800	0.802800
C2101	C210	0.487600	0.742000	0.810200
Zn211	Zn21	0.021660	0.755210	0.369950
Zn221	Zn22	0.012550	0.849190	0.326860
C2111	C211	0.780400	0.750000	0.404000
H811	H81	0.793000	0.763400	0.387200
C2121	C212	0.789500	0.757900	0.432400
C2131	C213	0.824300	0.791200	0.448400
C2141	C214	0.832700	0.804600	0.480400
C2151	C215	0.862500	0.835800	0.484800
H821	H82	0.878500	0.852600	0.471100
O811	O81	0.794000	0.933600	0.384000
O821	O82	0.846500	0.935500	0.351100
O831	O83	0.968700	0.832900	0.356000
O841	O84	0.973500	0.777400	0.387700
C2161	C216	0.951500	0.806800	0.379400
C2171	C217	0.911100	0.827300	0.388300
C2181	C218	0.889000	0.862500	0.376700
H831	H83	0.902400	0.877900	0.361100
C2191	C219	0.849500	0.876700	0.386100
C2201	C220	0.826900	0.911800	0.373400
C2211	C221	0.825800	0.853300	0.407900
H841	H84	0.797200	0.861300	0.412700
C2221	C222	0.845600	0.818000	0.422100
C2231	C223	0.886400	0.803500	0.410300
H851	H85	0.897700	0.777000	0.417300
O851	O85	0.032800	0.701800	0.389400
O861	O86	0.093700	0.707700	0.359100
C2241	C224	0.070200	0.685800	0.378800
C2251	C225	0.089400	0.641700	0.387200
C2261	C226	0.066100	0.619600	0.407900
H861	H86	0.039400	0.631100	0.414300
C2271	C227	0.043100	0.589700	0.250500
C2281	C228	0.082300	0.612500	0.248000
H871	H87	0.086200	0.642800	0.246700
C2291	C229	0.004300	0.733500	0.277000
C2301	C230	0.002600	0.687200	0.274000
H881	H88	0.003400	0.671400	0.292000
O871	O87	0.005200	0.733100	0.332700
O881	O88	0.013800	0.803200	0.302800
C2311	C231	0.012400	0.758000	0.310200
Zn231	Zn23	0.521660	0.255210	0.869950
Zn241	Zn24	0.512550	0.349190	0.826860
C2321	C232	0.280400	0.250000	0.904000
H891	H89	0.293000	0.263400	0.887200
C2331	C233	0.289500	0.257900	0.932400
C2341	C234	0.324300	0.291200	0.948400
C2351	C235	0.332700	0.304600	0.980400
C2361	C236	0.362500	0.335800	0.984800
H901	H90	0.378500	0.352600	0.971100
O891	O89	0.294000	0.433600	0.884000
O901	O90	0.346500	0.435500	0.851100
O911	O91	0.468700	0.332900	0.856000
O921	O92	0.473500	0.277400	0.887700
C2371	C237	0.451500	0.306800	0.879400
C2381	C238	0.411100	0.327300	0.888300
C2391	C239	0.389000	0.362500	0.876700
H911	H91	0.402400	0.377900	0.861100
C2401	C240	0.349500	0.376700	0.886100
C2411	C241	0.326900	0.411800	0.873400
C2421	C242	0.325800	0.353300	0.907900
H921	H92	0.297200	0.361300	0.912700
C2431	C243	0.345600	0.318000	0.922100
C2441	C244	0.386400	0.303500	0.910300
H931	H93	0.397700	0.277000	0.917300
O931	O93	0.532800	0.201800	0.889400
O941	O94	0.593700	0.207700	0.859100
C2451	C245	0.570200	0.185800	0.878800
C2461	C246	0.589400	0.141700	0.887200
C2471	C247	0.566100	0.119600	0.907900
H941	H94	0.539400	0.131100	0.914300
C2481	C248	0.543100	0.089700	0.750500
C2491	C249	0.582300	0.112500	0.748000
H951	H95	0.586200	0.142800	0.746700
C2501	C250	0.504300	0.233500	0.777000
C2511	C251	0.502600	0.187200	0.774000
H961	H96	0.503400	0.171400	0.792000
O951	O95	0.505200	0.233100	0.832700
O961	O96	0.513800	0.303200	0.802800
C2521	C252	0.512400	0.258000	0.810200
Zn251	Zn25	0.244790	0.021660	0.369950
Zn261	Zn26	0.150810	0.012550	0.326860
C2531	C253	0.250000	0.780400	0.404000
H971	H97	0.236600	0.793000	0.387200
C2541	C254	0.242100	0.789500	0.432400
C2551	C255	0.208800	0.824300	0.448400
C2561	C256	0.195400	0.832700	0.480400
C2571	C257	0.164200	0.862500	0.484800
H981	H98	0.147400	0.878500	0.471100
O971	O97	0.066400	0.794000	0.384000
O981	O98	0.064500	0.846500	0.351100
O991	O99	0.167100	0.968700	0.356000
O1001	O100	0.222600	0.973500	0.387700
C2581	C258	0.193200	0.951500	0.379400
C2591	C259	0.172700	0.911100	0.388300
C2601	C260	0.137500	0.889000	0.376700
H991	H99	0.122100	0.902400	0.361100
C2611	C261	0.123300	0.849500	0.386100
C2621	C262	0.088200	0.826900	0.373400
C2631	C263	0.146700	0.825800	0.407900
H1001	H100	0.138700	0.797200	0.412700
C2641	C264	0.182000	0.845600	0.422100
C2651	C265	0.196500	0.886400	0.410300
H1011	H101	0.223000	0.897700	0.417300
O1011	O101	0.298200	0.032800	0.389400
O1021	O102	0.292300	0.093700	0.359100
C2661	C266	0.314200	0.070200	0.378800
C2671	C267	0.358300	0.089400	0.387200
C2681	C268	0.380400	0.066100	0.407900
H1021	H102	0.368900	0.039400	0.414300
C2691	C269	0.410300	0.043100	0.250500
C2701	C270	0.387500	0.082300	0.248000
H1031	H103	0.357200	0.086200	0.246700
C2711	C271	0.266500	0.004300	0.277000
C2721	C272	0.312800	0.002600	0.274000
H1041	H104	0.328600	0.003400	0.292000
O1031	O103	0.266900	0.005200	0.332700
O1041	O104	0.196800	0.013800	0.302800
C2731	C273	0.242000	0.012400	0.310200
Zn271	Zn27	0.744790	0.521660	0.869950
Zn281	Zn28	0.650810	0.512550	0.826860
C2741	C274	0.750000	0.280400	0.904000
H1051	H105	0.736600	0.293000	0.887200
C2751	C275	0.742100	0.289500	0.932400
C2761	C276	0.708800	0.324300	0.948400
C2771	C277	0.695400	0.332700	0.980400
C2781	C278	0.664200	0.362500	0.984800
H1061	H106	0.647400	0.378500	0.971100
O1051	O105	0.566400	0.294000	0.884000
O1061	O106	0.564500	0.346500	0.851100
O1071	O107	0.667100	0.468700	0.856000
O1081	O108	0.722600	0.473500	0.887700
C2791	C279	0.693200	0.451500	0.879400
C2801	C280	0.672700	0.411100	0.888300
C2811	C281	0.637500	0.389000	0.876700
H1071	H107	0.622100	0.402400	0.861100
C2821	C282	0.623300	0.349500	0.886100
C2831	C283	0.588200	0.326900	0.873400
C2841	C284	0.646700	0.325800	0.907900
H1081	H108	0.638700	0.297200	0.912700
C2851	C285	0.682000	0.345600	0.922100
C2861	C286	0.696500	0.386400	0.910300
H1091	H109	0.723000	0.397700	0.917300
O1091	O109	0.798200	0.532800	0.889400
O1101	O110	0.792300	0.593700	0.859100
C2871	C287	0.814200	0.570200	0.878800
C2881	C288	0.858300	0.589400	0.887200
C2891	C289	0.880400	0.566100	0.907900
H1101	H110	0.868900	0.539400	0.914300
C2901	C290	0.910300	0.543100	0.750500
C2911	C291	0.887500	0.582300	0.748000
H1111	H111	0.857200	0.586200	0.746700
C2921	C292	0.766500	0.504300	0.777000
C2931	C293	0.812800	0.502600	0.774000
H1121	H112	0.828600	0.503400	0.792000
O1111	O111	0.766900	0.505200	0.832700
O1121	O112	0.696800	0.513800	0.802800
C2941	C294	0.742000	0.512400	0.810200
Zn291	Zn29	0.755210	0.978340	0.369950
Zn301	Zn30	0.849190	0.987450	0.326860
C2951	C295	0.750000	0.219600	0.404000
H1131	H113	0.763400	0.207000	0.387200
C2961	C296	0.757900	0.210500	0.432400
C2971	C297	0.791200	0.175700	0.448400
C2981	C298	0.804600	0.167300	0.480400
C2991	C299	0.835800	0.137500	0.484800
H1141	H114	0.852600	0.121500	0.471100
O1131	O113	0.933600	0.206000	0.384000
O1141	O114	0.935500	0.153500	0.351100
O1151	O115	0.832900	0.031300	0.356000
O1161	O116	0.777400	0.026500	0.387700
C3001	C300	0.806800	0.048500	0.379400
C3011	C301	0.827300	0.088900	0.388300
C3021	C302	0.862500	0.111000	0.376700
H1151	H115	0.877900	0.097600	0.361100
C3031	C303	0.876700	0.150500	0.386100
C3041	C304	0.911800	0.173100	0.373400
C3051	C305	0.853300	0.174200	0.407900
H1161	H116	0.861300	0.202800	0.412700
C3061	C306	0.818000	0.154400	0.422100
C3071	C307	0.803500	0.113600	0.410300
H1171	H117	0.777000	0.102300	0.417300
O1171	O117	0.701800	0.967200	0.389400
O1181	O118	0.707700	0.906300	0.359100
C3081	C308	0.685800	0.929800	0.378800
C3091	C309	0.641700	0.910600	0.387200
C3101	C310	0.619600	0.933900	0.407900
H1181	H118	0.631100	0.960600	0.414300
C3111	C311	0.589700	0.956900	0.250500
C3121	C312	0.612500	0.917700	0.248000
H1191	H119	0.642800	0.913800	0.246700
C3131	C313	0.733500	0.995700	0.277000
C3141	C314	0.687200	0.997400	0.274000
H1201	H120	0.671400	0.996600	0.292000
O1191	O119	0.733100	0.994800	0.332700
O1201	O120	0.803200	0.986200	0.302800
C3151	C315	0.758000	0.987600	0.310200
Zn311	Zn31	0.255210	0.478340	0.869950
Zn321	Zn32	0.349190	0.487450	0.826860
C3161	C316	0.250000	0.719600	0.904000
H1211	H121	0.263400	0.707000	0.887200
C3171	C317	0.257900	0.710500	0.932400
C3181	C318	0.291200	0.675700	0.948400
C3191	C319	0.304600	0.667300	0.980400
C3201	C320	0.335800	0.637500	0.984800
H1221	H122	0.352600	0.621500	0.971100
O1211	O121	0.433600	0.706000	0.884000
O1221	O122	0.435500	0.653500	0.851100
O1231	O123	0.332900	0.531300	0.856000
O1241	O124	0.277400	0.526500	0.887700
C3211	C321	0.306800	0.548500	0.879400
C3221	C322	0.327300	0.588900	0.888300
C3231	C323	0.362500	0.611000	0.876700
H1231	H123	0.377900	0.597600	0.861100
C3241	C324	0.376700	0.650500	0.886100
C3251	C325	0.411800	0.673100	0.873400
C3261	C326	0.353300	0.674200	0.907900
H1241	H124	0.361300	0.702800	0.912700
C3271	C327	0.318000	0.654400	0.922100
C3281	C328	0.303500	0.613600	0.910300
H1251	H125	0.277000	0.602300	0.917300
O1251	O125	0.201800	0.467200	0.889400
O1261	O126	0.207700	0.406300	0.859100
C3291	C329	0.185800	0.429800	0.878800
C3301	C330	0.141700	0.410600	0.887200
C3311	C331	0.119600	0.433900	0.907900
H1261	H126	0.131100	0.460600	0.914300
C3321	C332	0.089700	0.456900	0.750500
C3331	C333	0.112500	0.417700	0.748000
H1271	H127	0.142800	0.413800	0.746700
C3341	C334	0.233500	0.495700	0.777000
C3351	C335	0.187200	0.497400	0.774000
H1281	H128	0.171400	0.496600	0.792000
O1271	O127	0.233100	0.494800	0.832700
O1281	O128	0.303200	0.486200	0.802800
C3361	C336	0.258000	0.487600	0.810200
Zn331	Zn33	0.978340	0.755210	0.869950
Zn341	Zn34	0.987450	0.849190	0.826860
C3371	C337	0.219600	0.750000	0.904000
H1291	H129	0.207000	0.763400	0.887200
C3381	C338	0.210500	0.757900	0.932400
C3391	C339	0.175700	0.791200	0.948400
C3401	C340	0.167300	0.804600	0.980400
C3411	C341	0.137500	0.835800	0.984800
H1301	H130	0.121500	0.852600	0.971100
O1291	O129	0.206000	0.933600	0.884000
O1301	O130	0.153500	0.935500	0.851100
O1311	O131	0.031300	0.832900	0.856000
O1321	O132	0.026500	0.777400	0.887700
C3421	C342	0.048500	0.806800	0.879400
C3431	C343	0.088900	0.827300	0.888300
C3441	C344	0.111000	0.862500	0.876700
H1311	H131	0.097600	0.877900	0.861100
C3451	C345	0.150500	0.876700	0.886100
C3461	C346	0.173100	0.911800	0.873400
C3471	C347	0.174200	0.853300	0.907900
H1321	H132	0.202800	0.861300	0.912700
C3481	C348	0.154400	0.818000	0.922100
C3491	C349	0.113600	0.803500	0.910300
H1331	H133	0.102300	0.777000	0.917300
O1331	O133	0.967200	0.701800	0.889400
O1341	O134	0.906300	0.707700	0.859100
C3501	C350	0.929800	0.685800	0.878800
C3511	C351	0.910600	0.641700	0.887200
C3521	C352	0.933900	0.619600	0.907900
H1341	H134	0.960600	0.631100	0.914300
C3531	C353	0.956900	0.589700	0.750500
C3541	C354	0.917700	0.612500	0.748000
H1351	H135	0.913800	0.642800	0.746700
C3551	C355	0.995700	0.733500	0.777000
C3561	C356	0.997400	0.687200	0.774000
H1361	H136	0.996600	0.671400	0.792000
O1351	O135	0.994800	0.733100	0.832700
O1361	O136	0.986200	0.803200	0.802800
C3571	C357	0.987600	0.758000	0.810200
Zn351	Zn35	0.478340	0.255210	0.369950
Zn361	Zn36	0.487450	0.349190	0.326860
C3581	C358	0.719600	0.250000	0.404000
H1371	H137	0.707000	0.263400	0.387200
C3591	C359	0.710500	0.257900	0.432400
C3601	C360	0.675700	0.291200	0.448400
C3611	C361	0.667300	0.304600	0.480400
C3621	C362	0.637500	0.335800	0.484800
H1381	H138	0.621500	0.352600	0.471100
O1371	O137	0.706000	0.433600	0.384000
O1381	O138	0.653500	0.435500	0.351100
O1391	O139	0.531300	0.332900	0.356000
O1401	O140	0.526500	0.277400	0.387700
C3631	C363	0.548500	0.306800	0.379400
C3641	C364	0.588900	0.327300	0.388300
C3651	C365	0.611000	0.362500	0.376700
H1391	H139	0.597600	0.377900	0.361100
C3661	C366	0.650500	0.376700	0.386100
C3671	C367	0.673100	0.411800	0.373400
C3681	C368	0.674200	0.353300	0.407900
H1401	H140	0.702800	0.361300	0.412700
C3691	C369	0.654400	0.318000	0.422100
C3701	C370	0.613600	0.303500	0.410300
H1411	H141	0.602300	0.277000	0.417300
O1411	O141	0.467200	0.201800	0.389400
O1421	O142	0.406300	0.207700	0.359100
C3711	C371	0.429800	0.185800	0.378800
C3721	C372	0.410600	0.141700	0.387200
C3731	C373	0.433900	0.119600	0.407900
H1421	H142	0.460600	0.131100	0.414300
C3741	C374	0.456900	0.089700	0.250500
C3751	C375	0.417700	0.112500	0.248000
H1431	H143	0.413800	0.142800	0.246700
C3761	C376	0.495700	0.233500	0.277000
C3771	C377	0.497400	0.187200	0.274000
H1441	H144	0.496600	0.171400	0.292000
O1431	O143	0.494800	0.233100	0.332700
O1441	O144	0.486200	0.303200	0.302800
C3781	C378	0.487600	0.258000	0.310200
Zn371	Zn37	0.021660	0.244790	0.869950
Zn381	Zn38	0.012550	0.150810	0.826860
C3791	C379	0.780400	0.250000	0.904000
H1451	H145	0.793000	0.236600	0.887200
C3801	C380	0.789500	0.242100	0.932400
C3811	C381	0.824300	0.208800	0.948400
C3821	C382	0.832700	0.195400	0.980400
C3831	C383	0.862500	0.164200	0.984800
H1461	H146	0.878500	0.147400	0.971100
O1451	O145	0.794000	0.066400	0.884000
O1461	O146	0.846500	0.064500	0.851100
O1471	O147	0.968700	0.167100	0.856000
O1481	O148	0.973500	0.222600	0.887700
C3841	C384	0.951500	0.193200	0.879400
C3851	C385	0.911100	0.172700	0.888300
C3861	C386	0.889000	0.137500	0.876700
H1471	H147	0.902400	0.122100	0.861100
C3871	C387	0.849500	0.123300	0.886100
C3881	C388	0.826900	0.088200	0.873400
C3891	C389	0.825800	0.146700	0.907900
H1481	H148	0.797200	0.138700	0.912700
C3901	C390	0.845600	0.182000	0.922100
C3911	C391	0.886400	0.196500	0.910300
H1491	H149	0.897700	0.223000	0.917300
O1491	O149	0.032800	0.298200	0.889400
O1501	O150	0.093700	0.292300	0.859100
C3921	C392	0.070200	0.314200	0.878800
C3931	C393	0.089400	0.358300	0.887200
C3941	C394	0.066100	0.380400	0.907900
H1501	H150	0.039400	0.368900	0.914300
C3951	C395	0.043100	0.410300	0.750500
C3961	C396	0.082300	0.387500	0.748000
H1511	H151	0.086200	0.357200	0.746700
C3971	C397	0.004300	0.266500	0.777000
C3981	C398	0.002600	0.312800	0.774000
H1521	H152	0.003400	0.328600	0.792000
O1511	O151	0.005200	0.266900	0.832700
O1521	O152	0.013800	0.196800	0.802800
C3991	C399	0.012400	0.242000	0.810200
Zn391	Zn39	0.521660	0.744790	0.369950
Zn401	Zn40	0.512550	0.650810	0.326860
C4001	C400	0.280400	0.750000	0.404000
H1531	H153	0.293000	0.736600	0.387200
C4011	C401	0.289500	0.742100	0.432400
C4021	C402	0.324300	0.708800	0.448400
C4031	C403	0.332700	0.695400	0.480400
C4041	C404	0.362500	0.664200	0.484800
H1541	H154	0.378500	0.647400	0.471100
O1531	O153	0.294000	0.566400	0.384000
O1541	O154	0.346500	0.564500	0.351100
O1551	O155	0.468700	0.667100	0.356000
O1561	O156	0.473500	0.722600	0.387700
C4051	C405	0.451500	0.693200	0.379400
C4061	C406	0.411100	0.672700	0.388300
C4071	C407	0.389000	0.637500	0.376700
H1551	H155	0.402400	0.622100	0.361100
C4081	C408	0.349500	0.623300	0.386100
C4091	C409	0.326900	0.588200	0.373400
C4101	C410	0.325800	0.646700	0.407900
H1561	H156	0.297200	0.638700	0.412700
C4111	C411	0.345600	0.682000	0.422100
C4121	C412	0.386400	0.696500	0.410300
H1571	H157	0.397700	0.723000	0.417300
O1571	O157	0.532800	0.798200	0.389400
O1581	O158	0.593700	0.792300	0.359100
C4131	C413	0.570200	0.814200	0.378800
C4141	C414	0.589400	0.858300	0.387200
C4151	C415	0.566100	0.880400	0.407900
H1581	H158	0.539400	0.868900	0.414300
C4161	C416	0.543100	0.910300	0.250500
C4171	C417	0.582300	0.887500	0.248000
H1591	H159	0.586200	0.857200	0.246700
C4181	C418	0.504300	0.766500	0.277000
C4191	C419	0.502600	0.812800	0.274000
H1601	H160	0.503400	0.828600	0.292000
O1591	O159	0.505200	0.766900	0.332700
O1601	O160	0.513800	0.696800	0.302800
C4201	C420	0.512400	0.742000	0.310200
Zn411	Zn41	0.244790	0.978340	0.869950
Zn421	Zn42	0.150810	0.987450	0.826860
C4211	C421	0.250000	0.219600	0.904000
H1611	H161	0.236600	0.207000	0.887200
C4221	C422	0.242100	0.210500	0.932400
C4231	C423	0.208800	0.175700	0.948400
C4241	C424	0.195400	0.167300	0.980400
C4251	C425	0.164200	0.137500	0.984800
H1621	H162	0.147400	0.121500	0.971100
O1611	O161	0.066400	0.206000	0.884000
O1621	O162	0.064500	0.153500	0.851100
O1631	O163	0.167100	0.031300	0.856000
O1641	O164	0.222600	0.026500	0.887700
C4261	C426	0.193200	0.048500	0.879400
C4271	C427	0.172700	0.088900	0.888300
C4281	C428	0.137500	0.111000	0.876700
H1631	H163	0.122100	0.097600	0.861100
C4291	C429	0.123300	0.150500	0.886100
C4301	C430	0.088200	0.173100	0.873400
C4311	C431	0.146700	0.174200	0.907900
H1641	H164	0.138700	0.202800	0.912700
C4321	C432	0.182000	0.154400	0.922100
C4331	C433	0.196500	0.113600	0.910300
H1651	H165	0.223000	0.102300	0.917300
O1651	O165	0.298200	0.967200	0.889400
O1661	O166	0.292300	0.906300	0.859100
C4341	C434	0.314200	0.929800	0.878800
C4351	C435	0.358300	0.910600	0.887200
C4361	C436	0.380400	0.933900	0.907900
H1661	H166	0.368900	0.960600	0.914300
C4371	C437	0.410300	0.956900	0.750500
C4381	C438	0.387500	0.917700	0.748000
H1671	H167	0.357200	0.913800	0.746700
C4391	C439	0.266500	0.995700	0.777000
C4401	C440	0.312800	0.997400	0.774000
H1681	H168	0.328600	0.996600	0.792000
O1671	O167	0.266900	0.994800	0.832700
O1681	O168	0.196800	0.986200	0.802800
C4411	C441	0.242000	0.987600	0.810200
Zn431	Zn43	0.744790	0.478340	0.369950
Zn441	Zn44	0.650810	0.487450	0.326860
C4421	C442	0.750000	0.719600	0.404000
H1691	H169	0.736600	0.707000	0.387200
C4431	C443	0.742100	0.710500	0.432400
C4441	C444	0.708800	0.675700	0.448400
C4451	C445	0.695400	0.667300	0.480400
C4461	C446	0.664200	0.637500	0.484800
H1701	H170	0.647400	0.621500	0.471100
O1691	O169	0.566400	0.706000	0.384000
O1701	O170	0.564500	0.653500	0.351100
O1711	O171	0.667100	0.531300	0.356000
O1721	O172	0.722600	0.526500	0.387700
C4471	C447	0.693200	0.548500	0.379400
C4481	C448	0.672700	0.588900	0.388300
C4491	C449	0.637500	0.611000	0.376700
H1711	H171	0.622100	0.597600	0.361100
C4501	C450	0.623300	0.650500	0.386100
C4511	C451	0.588200	0.673100	0.373400
C4521	C452	0.646700	0.674200	0.407900
H1721	H172	0.638700	0.702800	0.412700
C4531	C453	0.682000	0.654400	0.422100
C4541	C454	0.696500	0.613600	0.410300
H1731	H173	0.723000	0.602300	0.417300
O1731	O173	0.798200	0.467200	0.389400
O1741	O174	0.792300	0.406300	0.359100
C4551	C455	0.814200	0.429800	0.378800
C4561	C456	0.858300	0.410600	0.387200
C4571	C457	0.880400	0.433900	0.407900
H1741	H174	0.868900	0.460600	0.414300
C4581	C458	0.910300	0.456900	0.250500
C4591	C459	0.887500	0.417700	0.248000
H1751	H175	0.857200	0.413800	0.246700
C4601	C460	0.766500	0.495700	0.277000
C4611	C461	0.812800	0.497400	0.274000
H1761	H176	0.828600	0.496600	0.292000
O1751	O175	0.766900	0.494800	0.332700
O1761	O176	0.696800	0.486200	0.302800
C4621	C462	0.742000	0.487600	0.310200
Zn451	Zn45	0.755210	0.021660	0.869950
Zn461	Zn46	0.849190	0.012550	0.826860
C4631	C463	0.750000	0.780400	0.904000
H1771	H177	0.763400	0.793000	0.887200
C4641	C464	0.757900	0.789500	0.932400
C4651	C465	0.791200	0.824300	0.948400
C4661	C466	0.804600	0.832700	0.980400
C4671	C467	0.835800	0.862500	0.984800
H1781	H178	0.852600	0.878500	0.971100
O1771	O177	0.933600	0.794000	0.884000
O1781	O178	0.935500	0.846500	0.851100
O1791	O179	0.832900	0.968700	0.856000
O1801	O180	0.777400	0.973500	0.887700
C4681	C468	0.806800	0.951500	0.879400
C4691	C469	0.827300	0.911100	0.888300
C4701	C470	0.862500	0.889000	0.876700
H1791	H179	0.877900	0.902400	0.861100
C4711	C471	0.876700	0.849500	0.886100
C4721	C472	0.911800	0.826900	0.873400
C4731	C473	0.853300	0.825800	0.907900
H1801	H180	0.861300	0.797200	0.912700
C4741	C474	0.818000	0.845600	0.922100
C4751	C475	0.803500	0.886400	0.910300
H1811	H181	0.777000	0.897700	0.917300
O1811	O181	0.701800	0.032800	0.889400
O1821	O182	0.707700	0.093700	0.859100
C4761	C476	0.685800	0.070200	0.878800
C4771	C477	0.641700	0.089400	0.887200
C4781	C478	0.619600	0.066100	0.907900
H1821	H182	0.631100	0.039400	0.914300
C4791	C479	0.589700	0.043100	0.750500
C4801	C480	0.612500	0.082300	0.748000
H1831	H183	0.642800	0.086200	0.746700
C4811	C481	0.733500	0.004300	0.777000
C4821	C482	0.687200	0.002600	0.774000
H1841	H184	0.671400	0.003400	0.792000
O1831	O183	0.733100	0.005200	0.832700
O1841	O184	0.803200	0.013800	0.802800
C4831	C483	0.758000	0.012400	0.810200
Zn471	Zn47	0.255210	0.521660	0.369950
Zn481	Zn48	0.349190	0.512550	0.326860
C4841	C484	0.250000	0.280400	0.404000
H1851	H185	0.263400	0.293000	0.387200
C4851	C485	0.257900	0.289500	0.432400
C4861	C486	0.291200	0.324300	0.448400
C4871	C487	0.304600	0.332700	0.480400
C4881	C488	0.335800	0.362500	0.484800
H1861	H186	0.352600	0.378500	0.471100
O1851	O185	0.433600	0.294000	0.384000
O1861	O186	0.435500	0.346500	0.351100
O1871	O187	0.332900	0.468700	0.356000
O1881	O188	0.277400	0.473500	0.387700
C4891	C489	0.306800	0.451500	0.379400
C4901	C490	0.327300	0.411100	0.388300
C4911	C491	0.362500	0.389000	0.376700
H1871	H187	0.377900	0.402400	0.361100
C4921	C492	0.376700	0.349500	0.386100
C4931	C493	0.411800	0.326900	0.373400
C4941	C494	0.353300	0.325800	0.407900
H1881	H188	0.361300	0.297200	0.412700
C4951	C495	0.318000	0.345600	0.422100
C4961	C496	0.303500	0.386400	0.410300
H1891	H189	0.277000	0.397700	0.417300
O1891	O189	0.201800	0.532800	0.389400
O1901	O190	0.207700	0.593700	0.359100
C4971	C497	0.185800	0.570200	0.378800
C4981	C498	0.141700	0.589400	0.387200
C4991	C499	0.119600	0.566100	0.407900
H1901	H190	0.131100	0.539400	0.414300
C5001	C500	0.089700	0.543100	0.250500
C5011	C501	0.112500	0.582300	0.248000
H1911	H191	0.142800	0.586200	0.246700
C5021	C502	0.233500	0.504300	0.277000
C5031	C503	0.187200	0.502600	0.274000
H1921	H192	0.171400	0.503400	0.292000
O1911	O191	0.233100	0.505200	0.332700
O1921	O192	0.303200	0.513800	0.302800
C5041	C504	0.258000	0.512400	0.310200
Zn491	Zn49	0.021660	0.755210	0.630050
Zn501	Zn50	0.012550	0.849190	0.673140
C5051	C505	0.780400	0.750000	0.596000
H1931	H193	0.793000	0.763400	0.612800
C5061	C506	0.789500	0.757900	0.567600
C5071	C507	0.824300	0.791200	0.551600
C5081	C508	0.832700	0.804600	0.519600
C5091	C509	0.862500	0.835800	0.515200
H1941	H194	0.878500	0.852600	0.528900
O1931	O193	0.794000	0.933600	0.616000
O1941	O194	0.846500	0.935500	0.648900
O1951	O195	0.968700	0.832900	0.644000
O1961	O196	0.973500	0.777400	0.612300
C5101	C510	0.951500	0.806800	0.620600
C5111	C511	0.911100	0.827300	0.611700
C5121	C512	0.889000	0.862500	0.623300
H1951	H195	0.902400	0.877900	0.638900
C5131	C513	0.849500	0.876700	0.613900
C5141	C514	0.826900	0.911800	0.626600
C5151	C515	0.825800	0.853300	0.592100
H1961	H196	0.797200	0.861300	0.587300
C5161	C516	0.845600	0.818000	0.577900
C5171	C517	0.886400	0.803500	0.589700
H1971	H197	0.897700	0.777000	0.582700
O1971	O197	0.032800	0.701800	0.610600
O1981	O198	0.093700	0.707700	0.640900
C5181	C518	0.070200	0.685800	0.621200
C5191	C519	0.089400	0.641700	0.612800
C5201	C520	0.066100	0.619600	0.592100
H1981	H198	0.039400	0.631100	0.585700
C5211	C521	0.043100	0.589700	0.749500
C5221	C522	0.082300	0.612500	0.752000
H1991	H199	0.086200	0.642800	0.753300
C5231	C523	0.004300	0.733500	0.723000
C5241	C524	0.002600	0.687200	0.726000
H2001	H200	0.003400	0.671400	0.708000
O1991	O199	0.005200	0.733100	0.667300
O2001	O200	0.013800	0.803200	0.697200
C5251	C525	0.012400	0.758000	0.689800
Zn511	Zn51	0.521660	0.255210	0.130050
Zn521	Zn52	0.512550	0.349190	0.173140
C5261	C526	0.280400	0.250000	0.096000
H2011	H201	0.293000	0.263400	0.112800
C5271	C527	0.289500	0.257900	0.067600
C5281	C528	0.324300	0.291200	0.051600
C5291	C529	0.332700	0.304600	0.019600
C5301	C530	0.362500	0.335800	0.015200
H2021	H202	0.378500	0.352600	0.028900
O2011	O201	0.294000	0.433600	0.116000
O2021	O202	0.346500	0.435500	0.148900
O2031	O203	0.468700	0.332900	0.144000
O2041	O204	0.473500	0.277400	0.112300
C5311	C531	0.451500	0.306800	0.120600
C5321	C532	0.411100	0.327300	0.111700
C5331	C533	0.389000	0.362500	0.123300
H2031	H203	0.402400	0.377900	0.138900
C5341	C534	0.349500	0.376700	0.113900
C5351	C535	0.326900	0.411800	0.126600
C5361	C536	0.325800	0.353300	0.092100
H2041	H204	0.297200	0.361300	0.087300
C5371	C537	0.345600	0.318000	0.077900
C5381	C538	0.386400	0.303500	0.089700
H2051	H205	0.397700	0.277000	0.082700
O2051	O205	0.532800	0.201800	0.110600
O2061	O206	0.593700	0.207700	0.140900
C5391	C539	0.570200	0.185800	0.121200
C5401	C540	0.589400	0.141700	0.112800
C5411	C541	0.566100	0.119600	0.092100
H2061	H206	0.539400	0.131100	0.085700
C5421	C542	0.543100	0.089700	0.249500
C5431	C543	0.582300	0.112500	0.252000
H2071	H207	0.586200	0.142800	0.253300
C5441	C544	0.504300	0.233500	0.223000
C5451	C545	0.502600	0.187200	0.226000
H2081	H208	0.503400	0.171400	0.208000
O2071	O207	0.505200	0.233100	0.167300
O2081	O208	0.513800	0.303200	0.197200
C5461	C546	0.512400	0.258000	0.189800
Zn531	Zn53	0.978340	0.244790	0.630050
Zn541	Zn54	0.987450	0.150810	0.673140
C5471	C547	0.219600	0.250000	0.596000
H2091	H209	0.207000	0.236600	0.612800
C5481	C548	0.210500	0.242100	0.567600
C5491	C549	0.175700	0.208800	0.551600
C5501	C550	0.167300	0.195400	0.519600
C5511	C551	0.137500	0.164200	0.515200
H2101	H210	0.121500	0.147400	0.528900
O2091	O209	0.206000	0.066400	0.616000
O2101	O210	0.153500	0.064500	0.648900
O2111	O211	0.031300	0.167100	0.644000
O2121	O212	0.026500	0.222600	0.612300
C5521	C552	0.048500	0.193200	0.620600
C5531	C553	0.088900	0.172700	0.611700
C5541	C554	0.111000	0.137500	0.623300
H2111	H211	0.097600	0.122100	0.638900
C5551	C555	0.150500	0.123300	0.613900
C5561	C556	0.173100	0.088200	0.626600
C5571	C557	0.174200	0.146700	0.592100
H2121	H212	0.202800	0.138700	0.587300
C5581	C558	0.154400	0.182000	0.577900
C5591	C559	0.113600	0.196500	0.589700
H2131	H213	0.102300	0.223000	0.582700
O2131	O213	0.967200	0.298200	0.610600
O2141	O214	0.906300	0.292300	0.640900
C5601	C560	0.929800	0.314200	0.621200
C5611	C561	0.910600	0.358300	0.612800
C5621	C562	0.933900	0.380400	0.592100
H2141	H214	0.960600	0.368900	0.585700
C5631	C563	0.956900	0.410300	0.749500
C5641	C564	0.917700	0.387500	0.752000
H2151	H215	0.913800	0.357200	0.753300
C5651	C565	0.995700	0.266500	0.723000
C5661	C566	0.997400	0.312800	0.726000
H2161	H216	0.996600	0.328600	0.708000
O2151	O215	0.994800	0.266900	0.667300
O2161	O216	0.986200	0.196800	0.697200
C5671	C567	0.987600	0.242000	0.689800
Zn551	Zn55	0.478340	0.744790	0.130050
Zn561	Zn56	0.487450	0.650810	0.173140
C5681	C568	0.719600	0.750000	0.096000
H2171	H217	0.707000	0.736600	0.112800
C5691	C569	0.710500	0.742100	0.067600
C5701	C570	0.675700	0.708800	0.051600
C5711	C571	0.667300	0.695400	0.019600
C5721	C572	0.637500	0.664200	0.015200
H2181	H218	0.621500	0.647400	0.028900
O2171	O217	0.706000	0.566400	0.116000
O2181	O218	0.653500	0.564500	0.148900
O2191	O219	0.531300	0.667100	0.144000
O2201	O220	0.526500	0.722600	0.112300
C5731	C573	0.548500	0.693200	0.120600
C5741	C574	0.588900	0.672700	0.111700
C5751	C575	0.611000	0.637500	0.123300
H2191	H219	0.597600	0.622100	0.138900
C5761	C576	0.650500	0.623300	0.113900
C5771	C577	0.673100	0.588200	0.126600
C5781	C578	0.674200	0.646700	0.092100
H2201	H220	0.702800	0.638700	0.087300
C5791	C579	0.654400	0.682000	0.077900
C5801	C580	0.613600	0.696500	0.089700
H2211	H221	0.602300	0.723000	0.082700
O2211	O221	0.467200	0.798200	0.110600
O2221	O222	0.406300	0.792300	0.140900
C5811	C581	0.429800	0.814200	0.121200
C5821	C582	0.410600	0.858300	0.112800
C5831	C583	0.433900	0.880400	0.092100
H2221	H222	0.460600	0.868900	0.085700
C5841	C584	0.456900	0.910300	0.249500
C5851	C585	0.417700	0.887500	0.252000
H2231	H223	0.413800	0.857200	0.253300
C5861	C586	0.495700	0.766500	0.223000
C5871	C587	0.497400	0.812800	0.226000
H2241	H224	0.496600	0.828600	0.208000
O2231	O223	0.494800	0.766900	0.167300
O2241	O224	0.486200	0.696800	0.197200
C5881	C588	0.487600	0.742000	0.189800
Zn571	Zn57	0.755210	0.978340	0.630050
Zn581	Zn58	0.849190	0.987450	0.673140
C5891	C589	0.750000	0.219600	0.596000
H2251	H225	0.763400	0.207000	0.612800
C5901	C590	0.757900	0.210500	0.567600
C5911	C591	0.791200	0.175700	0.551600
C5921	C592	0.804600	0.167300	0.519600
C5931	C593	0.835800	0.137500	0.515200
H2261	H226	0.852600	0.121500	0.528900
O2251	O225	0.933600	0.206000	0.616000
O2261	O226	0.935500	0.153500	0.648900
O2271	O227	0.832900	0.031300	0.644000
O2281	O228	0.777400	0.026500	0.612300
C5941	C594	0.806800	0.048500	0.620600
C5951	C595	0.827300	0.088900	0.611700
C5961	C596	0.862500	0.111000	0.623300
H2271	H227	0.877900	0.097600	0.638900
C5971	C597	0.876700	0.150500	0.613900
C5981	C598	0.911800	0.173100	0.626600
C5991	C599	0.853300	0.174200	0.592100
H2281	H228	0.861300	0.202800	0.587300
C6001	C600	0.818000	0.154400	0.577900
C6011	C601	0.803500	0.113600	0.589700
H2291	H229	0.777000	0.102300	0.582700
O2291	O229	0.701800	0.967200	0.610600
O2301	O230	0.707700	0.906300	0.640900
C6021	C602	0.685800	0.929800	0.621200
C6031	C603	0.641700	0.910600	0.612800
C6041	C604	0.619600	0.933900	0.592100
H2301	H230	0.631100	0.960600	0.585700
C6051	C605	0.589700	0.956900	0.749500
C6061	C606	0.612500	0.917700	0.752000
H2311	H231	0.642800	0.913800	0.753300
C6071	C607	0.733500	0.995700	0.723000
C6081	C608	0.687200	0.997400	0.726000
H2321	H232	0.671400	0.996600	0.708000
O2311	O231	0.733100	0.994800	0.667300
O2321	O232	0.803200	0.986200	0.697200
C6091	C609	0.758000	0.987600	0.689800
Zn591	Zn59	0.255210	0.478340	0.130050
Zn601	Zn60	0.349190	0.487450	0.173140
C6101	C610	0.250000	0.719600	0.096000
H2331	H233	0.263400	0.707000	0.112800
C6111	C611	0.257900	0.710500	0.067600
C6121	C612	0.291200	0.675700	0.051600
C6131	C613	0.304600	0.667300	0.019600
C6141	C614	0.335800	0.637500	0.015200
H2341	H234	0.352600	0.621500	0.028900
O2331	O233	0.433600	0.706000	0.116000
O2341	O234	0.435500	0.653500	0.148900
O2351	O235	0.332900	0.531300	0.144000
O2361	O236	0.277400	0.526500	0.112300
C6151	C615	0.306800	0.548500	0.120600
C6161	C616	0.327300	0.588900	0.111700
C6171	C617	0.362500	0.611000	0.123300
H2351	H235	0.377900	0.597600	0.138900
C6181	C618	0.376700	0.650500	0.113900
C6191	C619	0.411800	0.673100	0.126600
C6201	C620	0.353300	0.674200	0.092100
H2361	H236	0.361300	0.702800	0.087300
C6211	C621	0.318000	0.654400	0.077900
C6221	C622	0.303500	0.613600	0.089700
H2371	H237	0.277000	0.602300	0.082700
O2371	O237	0.201800	0.467200	0.110600
O2381	O238	0.207700	0.406300	0.140900
C6231	C623	0.185800	0.429800	0.121200
C6241	C624	0.141700	0.410600	0.112800
C6251	C625	0.119600	0.433900	0.092100
H2381	H238	0.131100	0.460600	0.085700
C6261	C626	0.089700	0.456900	0.249500
C6271	C627	0.112500	0.417700	0.252000
H2391	H239	0.142800	0.413800	0.253300
C6281	C628	0.233500	0.495700	0.223000
C6291	C629	0.187200	0.497400	0.226000
H2401	H240	0.171400	0.496600	0.208000
O2391	O239	0.233100	0.494800	0.167300
O2401	O240	0.303200	0.486200	0.197200
C6301	C630	0.258000	0.487600	0.189800
Zn611	Zn61	0.244790	0.021660	0.630050
Zn621	Zn62	0.150810	0.012550	0.673140
C6311	C631	0.250000	0.780400	0.596000
H2411	H241	0.236600	0.793000	0.612800
C6321	C632	0.242100	0.789500	0.567600
C6331	C633	0.208800	0.824300	0.551600
C6341	C634	0.195400	0.832700	0.519600
C6351	C635	0.164200	0.862500	0.515200
H2421	H242	0.147400	0.878500	0.528900
O2411	O241	0.066400	0.794000	0.616000
O2421	O242	0.064500	0.846500	0.648900
O2431	O243	0.167100	0.968700	0.644000
O2441	O244	0.222600	0.973500	0.612300
C6361	C636	0.193200	0.951500	0.620600
C6371	C637	0.172700	0.911100	0.611700
C6381	C638	0.137500	0.889000	0.623300
H2431	H243	0.122100	0.902400	0.638900
C6391	C639	0.123300	0.849500	0.613900
C6401	C640	0.088200	0.826900	0.626600
C6411	C641	0.146700	0.825800	0.592100
H2441	H244	0.138700	0.797200	0.587300
C6421	C642	0.182000	0.845600	0.577900
C6431	C643	0.196500	0.886400	0.589700
H2451	H245	0.223000	0.897700	0.582700
O2451	O245	0.298200	0.032800	0.610600
O2461	O246	0.292300	0.093700	0.640900
C6441	C644	0.314200	0.070200	0.621200
C6451	C645	0.358300	0.089400	0.612800
C6461	C646	0.380400	0.066100	0.592100
H2461	H246	0.368900	0.039400	0.585700
C6471	C647	0.410300	0.043100	0.749500
C6481	C648	0.387500	0.082300	0.752000
H2471	H247	0.357200	0.086200	0.753300
C6491	C649	0.266500	0.004300	0.723000
C6501	C650	0.312800	0.002600	0.726000
H2481	H248	0.328600	0.003400	0.708000
O2471	O247	0.266900	0.005200	0.667300
O2481	O248	0.196800	0.013800	0.697200
C6511	C651	0.242000	0.012400	0.689800
Zn631	Zn63	0.744790	0.521660	0.130050
Zn641	Zn64	0.650810	0.512550	0.173140
C6521	C652	0.750000	0.280400	0.096000
H2491	H249	0.736600	0.293000	0.112800
C6531	C653	0.742100	0.289500	0.067600
C6541	C654	0.708800	0.324300	0.051600
C6551	C655	0.695400	0.332700	0.019600
C6561	C656	0.664200	0.362500	0.015200
H2501	H250	0.647400	0.378500	0.028900
O2491	O249	0.566400	0.294000	0.116000
O2501	O250	0.564500	0.346500	0.148900
O2511	O251	0.667100	0.468700	0.144000
O2521	O252	0.722600	0.473500	0.112300
C6571	C657	0.693200	0.451500	0.120600
C6581	C658	0.672700	0.411100	0.111700
C6591	C659	0.637500	0.389000	0.123300
H2511	H251	0.622100	0.402400	0.138900
C6601	C660	0.623300	0.349500	0.113900
C6611	C661	0.588200	0.326900	0.126600
C6621	C662	0.646700	0.325800	0.092100
H2521	H252	0.638700	0.297200	0.087300
C6631	C663	0.682000	0.345600	0.077900
C6641	C664	0.696500	0.386400	0.089700
H2531	H253	0.723000	0.397700	0.082700
O2531	O253	0.798200	0.532800	0.110600
O2541	O254	0.792300	0.593700	0.140900
C6651	C665	0.814200	0.570200	0.121200
C6661	C666	0.858300	0.589400	0.112800
C6671	C667	0.880400	0.566100	0.092100
H2541	H254	0.868900	0.539400	0.085700
C6681	C668	0.910300	0.543100	0.249500
C6691	C669	0.887500	0.582300	0.252000
H2551	H255	0.857200	0.586200	0.253300
C6701	C670	0.766500	0.504300	0.223000
C6711	C671	0.812800	0.502600	0.226000
H2561	H256	0.828600	0.503400	0.208000
O2551	O255	0.766900	0.505200	0.167300
O2561	O256	0.696800	0.513800	0.197200
C6721	C672	0.742000	0.512400	0.189800
Mn11	Mn1	0.767690	0.267690	0.000000
Cl11	Cl1	0.710100	0.210100	0.000000
Cl21	Cl2	0.820300	0.320300	0.000000
Cl31	Cl3	0.946900	0.446900	0.000000
Mn21	Mn2	0.232310	0.732310	0.000000
Cl41	Cl4	0.289900	0.789900	0.000000
Cl51	Cl5	0.179700	0.679700	0.000000
Cl61	Cl6	0.053100	0.553100	0.000000
Mn31	Mn3	0.732310	0.767690	0.000000
Cl71	Cl7	0.789900	0.710100	0.000000
Cl81	Cl8	0.679700	0.820300	0.000000
Cl91	Cl9	0.553100	0.946900	0.000000
Mn41	Mn4	0.232310	0.267690	0.500000
Cl101	Cl10	0.289900	0.210100	0.500000
Cl111	Cl11	0.179700	0.320300	0.500000
Cl121	Cl12	0.053100	0.446900	0.500000
Mn51	Mn5	0.267690	0.232310	0.000000
Cl131	Cl13	0.210100	0.289900	0.000000
Cl141	Cl14	0.320300	0.179700	0.000000
Cl151	Cl15	0.446900	0.053100	0.000000
Mn61	Mn6	0.767690	0.732310	0.500000
Cl161	Cl16	0.710100	0.789900	0.500000
Cl171	Cl17	0.820300	0.679700	0.500000
Cl181	Cl18	0.946900	0.553100	0.500000
Mn71	Mn7	0.267690	0.767690	0.500000
Cl191	Cl19	0.210100	0.710100	0.500000
Cl201	Cl20	0.320300	0.820300	0.500000
Cl211	Cl21	0.446900	0.946900	0.500000
Mn81	Mn8	0.732310	0.232310	0.500000
Cl221	Cl22	0.789900	0.289900	0.500000
Cl231	Cl23	0.679700	0.179700	0.500000
Cl241	Cl24	0.553100	0.053100	0.500000
N11	N1	0.812000	0.217300	0.000000
N21	N2	0.312000	0.717300	0.500000
N31	N3	0.188000	0.782700	0.000000
N41	N4	0.688000	0.282700	0.500000
N51	N5	0.782700	0.812000	0.000000
N61	N6	0.282700	0.312000	0.500000
N71	N7	0.217300	0.188000	0.000000
N81	N8	0.717300	0.688000	0.500000
N91	N9	0.188000	0.217300	0.500000
N101	N10	0.688000	0.717300	0.000000
N111	N11	0.812000	0.782700	0.500000
N121	N12	0.312000	0.282700	0.000000
N131	N13	0.217300	0.812000	0.500000
N141	N14	0.717300	0.312000	0.000000
N151	N15	0.782700	0.188000	0.500000
N161	N16	0.282700	0.688000	0.000000
N171	N17	0.765600	0.265600	0.043900
N181	N18	0.234400	0.734400	0.043900
N191	N19	0.734400	0.765600	0.043900
N201	N20	0.234400	0.265600	0.543900
N211	N21	0.265600	0.234400	0.043900
N221	N22	0.234400	0.265600	0.456100
N231	N23	0.765600	0.734400	0.456100
N241	N24	0.265600	0.765600	0.456100
N251	N25	0.734400	0.234400	0.456100
N261	N26	0.234400	0.734400	0.956100
N271	N27	0.765600	0.265600	0.956100
N281	N28	0.265600	0.234400	0.956100
N291	N29	0.734400	0.765600	0.956100
N301	N30	0.765600	0.734400	0.543900
N311	N31	0.734400	0.234400	0.543900
N321	N32	0.265600	0.765600	0.543900
Mn91	Mn9	0.000000	0.500000	0.000000
Mn101	Mn10	0.500000	0.000000	0.500000
Mn111	Mn11	0.500000	0.000000	0.000000
Mn121	Mn12	0.000000	0.500000	0.500000
N331	N33	0.046700	0.453300	0.000000
N341	N34	0.953300	0.546700	0.000000
N351	N35	0.453300	0.046700	0.500000
N361	N36	0.546700	0.046700	0.000000
N371	N37	0.453300	0.953300	0.000000
N381	N38	0.953300	0.453300	0.500000
N391	N39	0.046700	0.546700	0.500000
N401	N40	0.546700	0.953300	0.500000
N411	N41	0.000000	0.500000	0.032700
Cl251	Cl25	0.000000	0.500000	0.198500
N421	N42	0.500000	0.000000	0.032700
Cl261	Cl26	0.500000	0.000000	0.198500
N431	N43	0.000000	0.500000	0.467300
Cl271	Cl27	0.000000	0.500000	0.301500
N441	N44	0.500000	0.000000	0.467300
Cl281	Cl28	0.500000	0.000000	0.301500
N451	N45	0.000000	0.500000	0.967300
Cl291	Cl29	0.000000	0.500000	0.801500
N461	N46	0.500000	0.000000	0.967300
Cl301	Cl30	0.500000	0.000000	0.801500
N471	N47	0.000000	0.500000	0.532700
Cl311	Cl31	0.000000	0.500000	0.698500
N481	N48	0.500000	0.000000	0.532700
Cl321	Cl32	0.500000	0.000000	0.698500
C6731	C673	0.098300	0.401700	0.014300
H2571	H257	0.115700	0.384300	0.026800
C6741	C674	0.065300	0.434700	0.024200
C6751	C675	0.054400	0.445600	0.055100
C6761	C676	0.021200	0.478800	0.061600
C6771	C677	0.014800	0.485200	0.093600
H2581	H258	0.028600	0.471400	0.109800
C6781	C678	0.124600	0.375400	0.125100
H2591	H259	0.137100	0.362900	0.142100
C6791	C679	0.080500	0.419500	0.080100
N491	N49	0.047300	0.452700	0.250900
C6801	C680	0.901700	0.598300	0.014300
H2601	H260	0.884300	0.615700	0.026800
C6811	C681	0.934700	0.565300	0.024200
C6821	C682	0.945600	0.554400	0.055100
C6831	C683	0.978800	0.521200	0.061600
C6841	C684	0.985200	0.514800	0.093600
H2611	H261	0.971400	0.528600	0.109800
C6851	C685	0.875400	0.624600	0.125100
H2621	H262	0.862900	0.637100	0.142100
C6861	C686	0.919500	0.580500	0.080100
N501	N50	0.952700	0.547300	0.250900
C6871	C687	0.401700	0.098300	0.514300
H2631	H263	0.384300	0.115700	0.526800
C6881	C688	0.434700	0.065300	0.524200
C6891	C689	0.445600	0.054400	0.555100
C6901	C690	0.478800	0.021200	0.561600
C6911	C691	0.485200	0.014800	0.593600
H2641	H264	0.471400	0.028600	0.609800
C6921	C692	0.375400	0.124600	0.625100
H2651	H265	0.362900	0.137100	0.642100
C6931	C693	0.419500	0.080500	0.580100
N511	N51	0.452700	0.047300	0.750900
C6941	C694	0.598300	0.098300	0.014300
H2661	H266	0.615700	0.115700	0.026800
C6951	C695	0.565300	0.065300	0.024200
C6961	C696	0.554400	0.054400	0.055100
C6971	C697	0.521200	0.021200	0.061600
C6981	C698	0.514800	0.014800	0.093600
H2671	H267	0.528600	0.028600	0.109800
C6991	C699	0.624600	0.124600	0.125100
H2681	H268	0.637100	0.137100	0.142100
C7001	C700	0.580500	0.080500	0.080100
N521	N52	0.547300	0.047300	0.250900
C7011	C701	0.401700	0.901700	0.014300
H2691	H269	0.384300	0.884300	0.026800
C7021	C702	0.434700	0.934700	0.024200
C7031	C703	0.445600	0.945600	0.055100
C7041	C704	0.478800	0.978800	0.061600
C7051	C705	0.485200	0.985200	0.093600
H2701	H270	0.471400	0.971400	0.109800
C7061	C706	0.375400	0.875400	0.125100
H2711	H271	0.362900	0.862900	0.142100
C7071	C707	0.419500	0.919500	0.080100
N531	N53	0.452700	0.952700	0.250900
C7081	C708	0.901700	0.401700	0.485700
H2721	H272	0.884300	0.384300	0.473200
C7091	C709	0.934700	0.434700	0.475800
C7101	C710	0.945600	0.445600	0.444900
C7111	C711	0.978800	0.478800	0.438400
C7121	C712	0.985200	0.485200	0.406400
H2731	H273	0.971400	0.471400	0.390200
C7131	C713	0.875400	0.375400	0.374900
H2741	H274	0.862900	0.362900	0.357900
C7141	C714	0.919500	0.419500	0.419900
N541	N54	0.952700	0.452700	0.249100
C7151	C715	0.098300	0.598300	0.485700
H2751	H275	0.115700	0.615700	0.473200
C7161	C716	0.065300	0.565300	0.475800
C7171	C717	0.054400	0.554400	0.444900
C7181	C718	0.021200	0.521200	0.438400
C7191	C719	0.014800	0.514800	0.406400
H2761	H276	0.028600	0.528600	0.390200
C7201	C720	0.124600	0.624600	0.374900
H2771	H277	0.137100	0.637100	0.357900
C7211	C721	0.080500	0.580500	0.419900
N551	N55	0.047300	0.547300	0.249100
C7221	C722	0.401700	0.098300	0.485700
H2781	H278	0.384300	0.115700	0.473200
C7231	C723	0.434700	0.065300	0.475800
C7241	C724	0.445600	0.054400	0.444900
C7251	C725	0.478800	0.021200	0.438400
C7261	C726	0.485200	0.014800	0.406400
H2791	H279	0.471400	0.028600	0.390200
C7271	C727	0.375400	0.124600	0.374900
H2801	H280	0.362900	0.137100	0.357900
C7281	C728	0.419500	0.080500	0.419900
N561	N56	0.452700	0.047300	0.249100
C7291	C729	0.598300	0.901700	0.485700
H2811	H281	0.615700	0.884300	0.473200
C7301	C730	0.565300	0.934700	0.475800
C7311	C731	0.554400	0.945600	0.444900
C7321	C732	0.521200	0.978800	0.438400
C7331	C733	0.514800	0.985200	0.406400
H2821	H282	0.528600	0.971400	0.390200
C7341	C734	0.624600	0.875400	0.374900
H2831	H283	0.637100	0.862900	0.357900
C7351	C735	0.580500	0.919500	0.419900
N571	N57	0.547300	0.952700	0.249100
C7361	C736	0.901700	0.598300	0.985700
H2841	H284	0.884300	0.615700	0.973200
C7371	C737	0.934700	0.565300	0.975800
C7381	C738	0.945600	0.554400	0.944900
C7391	C739	0.978800	0.521200	0.938400
C7401	C740	0.985200	0.514800	0.906400
H2851	H285	0.971400	0.528600	0.890200
C7411	C741	0.875400	0.624600	0.874900
H2861	H286	0.862900	0.637100	0.857900
C7421	C742	0.919500	0.580500	0.919900
N581	N58	0.952700	0.547300	0.749100
C7431	C743	0.098300	0.401700	0.985700
H2871	H287	0.115700	0.384300	0.973200
C7441	C744	0.065300	0.434700	0.975800
C7451	C745	0.054400	0.445600	0.944900
C7461	C746	0.021200	0.478800	0.938400
C7471	C747	0.014800	0.485200	0.906400
H2881	H288	0.028600	0.471400	0.890200
C7481	C748	0.124600	0.375400	0.874900
H2891	H289	0.137100	0.362900	0.857900
C7491	C749	0.080500	0.419500	0.919900
N591	N59	0.047300	0.452700	0.749100
C7501	C750	0.401700	0.901700	0.985700
H2901	H290	0.384300	0.884300	0.973200
C7511	C751	0.434700	0.934700	0.975800
C7521	C752	0.445600	0.945600	0.944900
C7531	C753	0.478800	0.978800	0.938400
C7541	C754	0.485200	0.985200	0.906400
H2911	H291	0.471400	0.971400	0.890200
C7551	C755	0.375400	0.875400	0.874900
H2921	H292	0.362900	0.862900	0.857900
C7561	C756	0.419500	0.919500	0.919900
N601	N60	0.452700	0.952700	0.749100
C7571	C757	0.598300	0.098300	0.985700
H2931	H293	0.615700	0.115700	0.973200
C7581	C758	0.565300	0.065300	0.975800
C7591	C759	0.554400	0.054400	0.944900
C7601	C760	0.521200	0.021200	0.938400
C7611	C761	0.514800	0.014800	0.906400
H2941	H294	0.528600	0.028600	0.890200
C7621	C762	0.624600	0.124600	0.874900
H2951	H295	0.637100	0.137100	0.857900
C7631	C763	0.580500	0.080500	0.919900
N611	N61	0.547300	0.047300	0.749100
C7641	C764	0.098300	0.598300	0.514300
H2961	H296	0.115700	0.615700	0.526800
C7651	C765	0.065300	0.565300	0.524200
C7661	C766	0.054400	0.554400	0.555100
C7671	C767	0.021200	0.521200	0.561600
C7681	C768	0.014800	0.514800	0.593600
H2971	H297	0.028600	0.528600	0.609800
C7691	C769	0.124600	0.624600	0.625100
H2981	H298	0.137100	0.637100	0.642100
C7701	C770	0.080500	0.580500	0.580100
N621	N62	0.047300	0.547300	0.750900
C7711	C771	0.901700	0.401700	0.514300
H2991	H299	0.884300	0.384300	0.526800
C7721	C772	0.934700	0.434700	0.524200
C7731	C773	0.945600	0.445600	0.555100
C7741	C774	0.978800	0.478800	0.561600
C7751	C775	0.985200	0.485200	0.593600
H3001	H300	0.971400	0.471400	0.609800
C7761	C776	0.875400	0.375400	0.625100
H3011	H301	0.862900	0.362900	0.642100
C7771	C777	0.919500	0.419500	0.580100
N631	N63	0.952700	0.452700	0.750900
C7781	C778	0.598300	0.901700	0.514300
H3021	H302	0.615700	0.884300	0.526800
C7791	C779	0.565300	0.934700	0.524200
C7801	C780	0.554400	0.945600	0.555100
C7811	C781	0.521200	0.978800	0.561600
C7821	C782	0.514800	0.985200	0.593600
H3031	H303	0.528600	0.971400	0.609800
C7831	C783	0.624600	0.875400	0.625100
H3041	H304	0.637100	0.862900	0.642100
C7841	C784	0.580500	0.919500	0.580100
N641	N64	0.547300	0.952700	0.750900
Mn131	Mn13	0.000000	0.500000	0.250000
Mn141	Mn14	0.500000	0.000000	0.250000
Mn151	Mn15	0.000000	0.500000	0.750000
Mn161	Mn16	0.500000	0.000000	0.750000
C7851	C785	0.000000	0.387200	0.250000
C7861	C786	0.000000	0.245200	0.250000
H3051	H305	0.000000	0.214700	0.250000
C7871	C787	0.000000	0.335800	0.250000
C7881	C788	0.500000	0.887200	0.750000
C7891	C789	0.500000	0.745200	0.750000
H3061	H306	0.500000	0.714700	0.750000
C7901	C790	0.500000	0.835800	0.750000
C7911	C791	0.000000	0.612800	0.250000
C7921	C792	0.000000	0.754800	0.250000
H3071	H307	0.000000	0.785300	0.250000
C7931	C793	0.000000	0.664200	0.250000
C7941	C794	0.500000	0.112800	0.750000
C7951	C795	0.500000	0.254800	0.750000
H3081	H308	0.500000	0.285300	0.750000
C7961	C796	0.500000	0.164200	0.750000
C7971	C797	0.612800	0.000000	0.250000
C7981	C798	0.754800	0.000000	0.250000
H3091	H309	0.785300	0.000000	0.250000
C7991	C799	0.664200	0.000000	0.250000
C8001	C800	0.112800	0.500000	0.750000
C8011	C801	0.254800	0.500000	0.750000
H3101	H310	0.285300	0.500000	0.750000
C8021	C802	0.164200	0.500000	0.750000
C8031	C803	0.387200	0.000000	0.250000
C8041	C804	0.245200	0.000000	0.250000
H3111	H311	0.214700	0.000000	0.250000
C8051	C805	0.335800	0.000000	0.250000
C8061	C806	0.887200	0.500000	0.750000
C8071	C807	0.745200	0.500000	0.750000
H3121	H312	0.714700	0.500000	0.750000
C8081	C808	0.835800	0.500000	0.750000
C8091	C809	0.000000	0.612800	0.750000
C8101	C810	0.000000	0.754800	0.750000
H3131	H313	0.000000	0.785300	0.750000
C8111	C811	0.000000	0.664200	0.750000
C8121	C812	0.500000	0.112800	0.250000
C8131	C813	0.500000	0.254800	0.250000
H3141	H314	0.500000	0.285300	0.250000
C8141	C814	0.500000	0.164200	0.250000
C8151	C815	0.000000	0.387200	0.750000
C8161	C816	0.000000	0.245200	0.750000
H3151	H315	0.000000	0.214700	0.750000
C8171	C817	0.000000	0.335800	0.750000
C8181	C818	0.500000	0.887200	0.250000
C8191	C819	0.500000	0.745200	0.250000
H3161	H316	0.500000	0.714700	0.250000
C8201	C820	0.500000	0.835800	0.250000
C8211	C821	0.387200	0.000000	0.750000
C8221	C822	0.245200	0.000000	0.750000
H3171	H317	0.214700	0.000000	0.750000
C8231	C823	0.335800	0.000000	0.750000
C8241	C824	0.887200	0.500000	0.250000
C8251	C825	0.745200	0.500000	0.250000
H3181	H318	0.714700	0.500000	0.250000
C8261	C826	0.835800	0.500000	0.250000
C8271	C827	0.612800	0.000000	0.750000
C8281	C828	0.754800	0.000000	0.750000
H3191	H319	0.785300	0.000000	0.750000
C8291	C829	0.664200	0.000000	0.750000
C8301	C830	0.112800	0.500000	0.250000
C8311	C831	0.254800	0.500000	0.250000
H3201	H320	0.285300	0.500000	0.250000
C8321	C832	0.164200	0.500000	0.250000
