data_POCPAZ_clean_PM
_symmetry_space_group_name_H-M	'P1'
_cell_length_a	13.542200
_cell_length_b	21.157300
_cell_length_c	24.011200
_cell_angle_alpha	90.000000
_cell_angle_beta	90.000000
_cell_angle_gamma	90.000000
_symmetry_Int_Tables_number 1

loop_
_symmetry_equiv_pos_as_xyz
'x,y,z'

loop_
_atom_site_label
_atom_site_type_symbol
_atom_site_fract_x
_atom_site_fract_y
_atom_site_fract_z
Co11	Co1	0.362700	0.031430	0.198400
Co21	Co2	0.366360	0.180470	0.124070
Co31	Co3	0.637300	0.968570	0.698400
Co41	Co4	0.633640	0.819530	0.624070
Co51	Co5	0.137300	0.531430	0.198400
Co61	Co6	0.133640	0.680470	0.124070
Co71	Co7	0.862700	0.468570	0.698400
Co81	Co8	0.866360	0.319530	0.624070
H11	H1	0.492200	0.090200	0.136800
H21	H2	0.485000	0.126500	0.193300
H31	H3	0.112100	0.970100	0.105300
H41	H4	0.928700	0.005000	0.976900
H51	H5	0.150000	0.126500	0.013100
H61	H6	0.142500	0.092600	0.312300
H71	H7	0.919400	0.214500	0.340200
H81	H8	0.104000	0.240800	0.210800
H91	H9	0.735000	0.992400	0.808400
H101	H10	0.790800	0.068900	0.866700
H111	H11	0.742500	0.193900	0.746000
H121	H12	0.686600	0.113900	0.690500
H131	H13	0.870700	0.192000	0.859400
H141	H14	0.786200	0.234800	0.835500
H151	H15	0.774700	0.222200	0.934500
H161	H16	0.755100	0.149800	0.925500
H171	H17	0.630600	0.247000	0.889700
H181	H18	0.612200	0.175600	0.875600
H191	H19	0.016000	0.554500	0.754700
H201	H20	0.104800	0.565300	0.835000
H211	H21	0.017200	0.390200	0.875600
H221	H22	0.932000	0.386500	0.795800
H231	H23	0.096300	0.508800	0.944800
H241	H24	0.193900	0.505500	0.909900
H251	H25	0.096500	0.399100	0.956000
H261	H26	0.189000	0.392900	0.917100
H271	H27	0.191700	0.455400	0.018300
H281	H28	0.283700	0.443900	0.980200
H291	H29	0.441600	0.099100	0.023400
H301	H30	0.528300	0.109400	0.942800
H311	H31	0.618100	0.278900	0.993000
H321	H32	0.529400	0.265900	0.072700
H331	H33	0.285900	0.216200	0.007500
H341	H34	0.245300	0.305000	0.958600
H351	H35	0.237500	0.401600	0.099900
H361	H36	0.289500	0.313100	0.144600
H371	H37	0.507800	0.909800	0.636800
H381	H38	0.515000	0.873500	0.693300
H391	H39	0.887900	0.029900	0.605300
H401	H40	0.071300	0.995000	0.476900
H411	H41	0.850000	0.873500	0.513100
H421	H42	0.857500	0.907400	0.812300
H431	H43	0.080600	0.785500	0.840200
H441	H44	0.896000	0.759200	0.710800
H451	H45	0.265000	0.007600	0.308400
H461	H46	0.209200	0.931100	0.366700
H471	H47	0.257500	0.806100	0.246000
H481	H48	0.313400	0.886100	0.190500
H491	H49	0.129300	0.808000	0.359400
H501	H50	0.213800	0.765200	0.335500
H511	H51	0.225300	0.777800	0.434500
H521	H52	0.244900	0.850200	0.425500
H531	H53	0.369400	0.753000	0.389700
H541	H54	0.387800	0.824400	0.375600
H551	H55	0.984000	0.445500	0.254700
H561	H56	0.895200	0.434700	0.335000
H571	H57	0.982800	0.609800	0.375600
H581	H58	0.068000	0.613500	0.295800
H591	H59	0.903700	0.491200	0.444800
H601	H60	0.806100	0.494500	0.409900
H611	H61	0.903500	0.600900	0.456000
H621	H62	0.811000	0.607100	0.417100
H631	H63	0.808300	0.544600	0.518300
H641	H64	0.716300	0.556100	0.480200
H651	H65	0.558400	0.900900	0.523400
H661	H66	0.471700	0.890600	0.442800
H671	H67	0.381900	0.721100	0.493000
H681	H68	0.470600	0.734100	0.572700
H691	H69	0.714100	0.783800	0.507500
H701	H70	0.754700	0.695000	0.458600
H711	H71	0.762500	0.598400	0.599900
H721	H72	0.710500	0.686900	0.644600
H731	H73	0.007800	0.590200	0.136800
H741	H74	0.015000	0.626500	0.193300
H751	H75	0.387900	0.470100	0.105300
H761	H76	0.571300	0.505000	0.976900
H771	H77	0.350000	0.626500	0.013100
H781	H78	0.357500	0.592600	0.312300
H791	H79	0.580600	0.714500	0.340200
H801	H80	0.396000	0.740800	0.210800
H811	H81	0.765000	0.492400	0.808400
H821	H82	0.709200	0.568900	0.866700
H831	H83	0.757500	0.693900	0.746000
H841	H84	0.813400	0.613900	0.690500
H851	H85	0.629300	0.692000	0.859400
H861	H86	0.713800	0.734800	0.835500
H871	H87	0.725300	0.722200	0.934500
H881	H88	0.744900	0.649800	0.925500
H891	H89	0.869400	0.747000	0.889700
H901	H90	0.887800	0.675600	0.875600
H911	H91	0.484000	0.054500	0.754700
H921	H92	0.395200	0.065300	0.835000
H931	H93	0.482800	0.890200	0.875600
H941	H94	0.568000	0.886500	0.795800
H951	H95	0.403700	0.008800	0.944800
H961	H96	0.306100	0.005500	0.909900
H971	H97	0.403500	0.899100	0.956000
H981	H98	0.311000	0.892900	0.917100
H991	H99	0.308300	0.955400	0.018300
H1001	H100	0.216300	0.943900	0.980200
H1011	H101	0.058400	0.599100	0.023400
H1021	H102	0.971700	0.609400	0.942800
H1031	H103	0.881900	0.778900	0.993000
H1041	H104	0.970600	0.765900	0.072700
H1051	H105	0.214100	0.716200	0.007500
H1061	H106	0.254700	0.805000	0.958600
H1071	H107	0.262500	0.901600	0.099900
H1081	H108	0.210500	0.813100	0.144600
H1091	H109	0.992200	0.409800	0.636800
H1101	H110	0.985000	0.373500	0.693300
H1111	H111	0.612100	0.529900	0.605300
H1121	H112	0.428700	0.495000	0.476900
H1131	H113	0.650000	0.373500	0.513100
H1141	H114	0.642500	0.407400	0.812300
H1151	H115	0.419400	0.285500	0.840200
H1161	H116	0.604000	0.259200	0.710800
H1171	H117	0.235000	0.507600	0.308400
H1181	H118	0.290800	0.431100	0.366700
H1191	H119	0.242500	0.306100	0.246000
H1201	H120	0.186600	0.386100	0.190500
H1211	H121	0.370700	0.308000	0.359400
H1221	H122	0.286200	0.265200	0.335500
H1231	H123	0.274700	0.277800	0.434500
H1241	H124	0.255100	0.350200	0.425500
H1251	H125	0.130600	0.253000	0.389700
H1261	H126	0.112200	0.324400	0.375600
H1271	H127	0.516000	0.945500	0.254700
H1281	H128	0.604800	0.934700	0.335000
H1291	H129	0.517200	0.109800	0.375600
H1301	H130	0.432000	0.113500	0.295800
H1311	H131	0.596300	0.991200	0.444800
H1321	H132	0.693900	0.994500	0.409900
H1331	H133	0.596500	0.100900	0.456000
H1341	H134	0.689000	0.107100	0.417100
H1351	H135	0.691700	0.044600	0.518300
H1361	H136	0.783700	0.056100	0.480200
H1371	H137	0.941600	0.400900	0.523400
H1381	H138	0.028300	0.390600	0.442800
H1391	H139	0.118100	0.221100	0.493000
H1401	H140	0.029400	0.234100	0.572700
H1411	H141	0.785900	0.283800	0.507500
H1421	H142	0.745300	0.195000	0.458600
H1431	H143	0.737500	0.098400	0.599900
H1441	H144	0.789500	0.186900	0.644600
C11	C1	0.236600	0.066500	0.096100
C21	C2	0.145800	0.050800	0.064000
C31	C3	0.093400	0.996000	0.075800
C41	C4	0.012700	0.980600	0.042800
C51	C5	0.981900	0.016900	0.999100
C61	C6	0.033300	0.071900	0.989700
C71	C7	0.115900	0.089400	0.021100
C81	C8	0.230900	0.146200	0.224500
C91	C9	0.139000	0.164500	0.256800
C101	C10	0.108400	0.129000	0.302100
C111	C11	0.027700	0.148000	0.331700
C121	C12	0.973500	0.201700	0.319100
C131	C13	0.005900	0.235000	0.272800
C141	C14	0.085700	0.217300	0.241800
C151	C15	0.736800	0.033800	0.795500
C161	C16	0.769400	0.079400	0.831100
C171	C17	0.770200	0.141600	0.813300
C181	C18	0.740700	0.152900	0.759900
C191	C19	0.708400	0.104500	0.726300
C201	C20	0.800100	0.194400	0.852900
C211	C21	0.746000	0.191400	0.909300
C221	C22	0.639400	0.204200	0.903300
C231	C23	0.015900	0.521300	0.780100
C241	C24	0.070500	0.528000	0.828000
C251	C25	0.073500	0.478200	0.865800
C261	C26	0.018400	0.424900	0.851700
C271	C27	0.967000	0.423200	0.803900
C281	C28	0.132800	0.483500	0.918100
C291	C29	0.157300	0.419600	0.944700
C301	C30	0.221600	0.425800	0.992500
C311	C31	0.476600	0.136300	0.017300
C321	C32	0.528900	0.142200	0.968500
C331	C33	0.582400	0.196500	0.957100
C341	C34	0.581700	0.242100	0.998000
C351	C35	0.528200	0.233900	0.046100
C361	C36	0.280300	0.254500	0.026400
C371	C37	0.254800	0.307700	0.996800
C381	C38	0.243300	0.365100	0.023400
C391	C39	0.251500	0.365200	0.079600
C401	C40	0.280600	0.311200	0.106200
C411	C41	0.763400	0.933500	0.596100
C421	C42	0.854200	0.949200	0.564000
C431	C43	0.906600	0.004000	0.575800
C441	C44	0.987300	0.019400	0.542800
C451	C45	0.018100	0.983100	0.499100
C461	C46	0.966700	0.928100	0.489700
C471	C47	0.884100	0.910600	0.521100
C481	C48	0.769100	0.853800	0.724500
C491	C49	0.861000	0.835500	0.756800
C501	C50	0.891600	0.871000	0.802100
C511	C51	0.972300	0.852000	0.831700
C521	C52	0.026500	0.798300	0.819100
C531	C53	0.994100	0.765000	0.772800
C541	C54	0.914300	0.782700	0.741800
C551	C55	0.263200	0.966200	0.295500
C561	C56	0.230600	0.920600	0.331100
C571	C57	0.229800	0.858400	0.313300
C581	C58	0.259300	0.847100	0.259900
C591	C59	0.291600	0.895500	0.226300
C601	C60	0.199900	0.805600	0.352900
C611	C61	0.254000	0.808600	0.409300
C621	C62	0.360600	0.795800	0.403300
C631	C63	0.984100	0.478700	0.280100
C641	C64	0.929500	0.472000	0.328000
C651	C65	0.926500	0.521800	0.365800
C661	C66	0.981600	0.575100	0.351700
C671	C67	0.033000	0.576800	0.303900
C681	C68	0.867200	0.516500	0.418100
C691	C69	0.842700	0.580400	0.444700
C701	C70	0.778400	0.574200	0.492500
C711	C71	0.523400	0.863700	0.517300
C721	C72	0.471100	0.857800	0.468500
C731	C73	0.417600	0.803500	0.457100
C741	C74	0.418300	0.757900	0.498000
C751	C75	0.471800	0.766100	0.546100
C761	C76	0.719700	0.745500	0.526400
C771	C77	0.745200	0.692300	0.496800
C781	C78	0.756700	0.634900	0.523400
C791	C79	0.748500	0.634800	0.579600
C801	C80	0.719400	0.688800	0.606200
C811	C81	0.263400	0.566500	0.096100
C821	C82	0.354200	0.550800	0.064000
C831	C83	0.406600	0.496000	0.075800
C841	C84	0.487300	0.480600	0.042800
C851	C85	0.518100	0.516900	0.999100
C861	C86	0.466700	0.571900	0.989700
C871	C87	0.384100	0.589400	0.021100
C881	C88	0.269100	0.646200	0.224500
C891	C89	0.361000	0.664500	0.256800
C901	C90	0.391600	0.629000	0.302100
C911	C91	0.472300	0.648000	0.331700
C921	C92	0.526500	0.701700	0.319100
C931	C93	0.494100	0.735000	0.272800
C941	C94	0.414300	0.717300	0.241800
C951	C95	0.763200	0.533800	0.795500
C961	C96	0.730600	0.579400	0.831100
C971	C97	0.729800	0.641600	0.813300
C981	C98	0.759300	0.652900	0.759900
C991	C99	0.791600	0.604500	0.726300
C1001	C100	0.699900	0.694400	0.852900
C1011	C101	0.754000	0.691400	0.909300
C1021	C102	0.860600	0.704200	0.903300
C1031	C103	0.484100	0.021300	0.780100
C1041	C104	0.429500	0.028000	0.828000
C1051	C105	0.426500	0.978200	0.865800
C1061	C106	0.481600	0.924900	0.851700
C1071	C107	0.533000	0.923200	0.803900
C1081	C108	0.367200	0.983500	0.918100
C1091	C109	0.342700	0.919600	0.944700
C1101	C110	0.278400	0.925800	0.992500
C1111	C111	0.023400	0.636300	0.017300
C1121	C112	0.971100	0.642200	0.968500
C1131	C113	0.917600	0.696500	0.957100
C1141	C114	0.918300	0.742100	0.998000
C1151	C115	0.971800	0.733900	0.046100
C1161	C116	0.219700	0.754500	0.026400
C1171	C117	0.245200	0.807700	0.996800
C1181	C118	0.256700	0.865100	0.023400
C1191	C119	0.248500	0.865200	0.079600
C1201	C120	0.219400	0.811200	0.106200
C1211	C121	0.736600	0.433500	0.596100
C1221	C122	0.645800	0.449200	0.564000
C1231	C123	0.593400	0.504000	0.575800
C1241	C124	0.512700	0.519400	0.542800
C1251	C125	0.481900	0.483100	0.499100
C1261	C126	0.533300	0.428100	0.489700
C1271	C127	0.615900	0.410600	0.521100
C1281	C128	0.730900	0.353800	0.724500
C1291	C129	0.639000	0.335500	0.756800
C1301	C130	0.608400	0.371000	0.802100
C1311	C131	0.527700	0.352000	0.831700
C1321	C132	0.473500	0.298300	0.819100
C1331	C133	0.505900	0.265000	0.772800
C1341	C134	0.585700	0.282700	0.741800
C1351	C135	0.236800	0.466200	0.295500
C1361	C136	0.269400	0.420600	0.331100
C1371	C137	0.270200	0.358400	0.313300
C1381	C138	0.240700	0.347100	0.259900
C1391	C139	0.208400	0.395500	0.226300
C1401	C140	0.300100	0.305600	0.352900
C1411	C141	0.246000	0.308600	0.409300
C1421	C142	0.139400	0.295800	0.403300
C1431	C143	0.515900	0.978700	0.280100
C1441	C144	0.570500	0.972000	0.328000
C1451	C145	0.573500	0.021800	0.365800
C1461	C146	0.518400	0.075100	0.351700
C1471	C147	0.467000	0.076800	0.303900
C1481	C148	0.632800	0.016500	0.418100
C1491	C149	0.657300	0.080400	0.444700
C1501	C150	0.721600	0.074200	0.492500
C1511	C151	0.976600	0.363700	0.517300
C1521	C152	0.028900	0.357800	0.468500
C1531	C153	0.082400	0.303500	0.457100
C1541	C154	0.081700	0.257900	0.498000
C1551	C155	0.028200	0.266100	0.546100
C1561	C156	0.780300	0.245500	0.526400
C1571	C157	0.754800	0.192300	0.496800
C1581	C158	0.743300	0.134900	0.523400
C1591	C159	0.751500	0.134800	0.579600
C1601	C160	0.780600	0.188800	0.606200
N11	N1	0.960300	0.920200	0.053100
N21	N2	0.003500	0.113300	0.943800
N31	N3	0.995700	0.109300	0.379500
N41	N4	0.952900	0.294200	0.259600
N51	N5	0.707300	0.044500	0.743240
N61	N6	0.962800	0.470000	0.767600
N71	N7	0.473400	0.181300	0.056600
N81	N8	0.297100	0.255800	0.080860
N91	N9	0.039700	0.079800	0.553100
N101	N10	0.996500	0.886700	0.443800
N111	N11	0.004300	0.890700	0.879500
N121	N12	0.047100	0.705800	0.759600
N131	N13	0.292700	0.955500	0.243240
N141	N14	0.037200	0.530000	0.267600
N151	N15	0.526600	0.818700	0.556600
N161	N16	0.702900	0.744200	0.580860
N171	N17	0.539700	0.420200	0.053100
N181	N18	0.496500	0.613300	0.943800
N191	N19	0.504300	0.609300	0.379500
N201	N20	0.547100	0.794200	0.259600
N211	N21	0.792700	0.544500	0.743240
N221	N22	0.537200	0.970000	0.767600
N231	N23	0.026600	0.681300	0.056600
N241	N24	0.202900	0.755800	0.080860
N251	N25	0.460300	0.579800	0.553100
N261	N26	0.503500	0.386700	0.443800
N271	N27	0.495700	0.390700	0.879500
N281	N28	0.452900	0.205800	0.759600
N291	N29	0.207300	0.455500	0.243240
N301	N30	0.462800	0.030000	0.267600
N311	N31	0.973400	0.318700	0.556600
N321	N32	0.797100	0.244200	0.580860
O11	O1	0.446200	0.107720	0.163660
O21	O2	0.260500	0.029220	0.134460
O31	O3	0.282300	0.115080	0.081180
O41	O4	0.899400	0.903400	0.018600
O51	O5	0.980300	0.891000	0.094900
O61	O6	0.942600	0.092900	0.911700
O71	O7	0.041400	0.165000	0.939700
O81	O8	0.273400	0.096160	0.239250
O91	O9	0.257400	0.182780	0.186660
O101	O10	0.933400	0.130600	0.410100
O111	O11	0.033200	0.058700	0.386500
O121	O12	0.889100	0.313200	0.290500
O131	O13	0.979100	0.322500	0.218400
O141	O14	0.553800	0.892280	0.663660
O151	O15	0.739500	0.970780	0.634460
O161	O16	0.717700	0.884920	0.581180
O171	O17	0.100600	0.096600	0.518600
O181	O18	0.019700	0.109000	0.594900
O191	O19	0.057400	0.907100	0.411700
O201	O20	0.958600	0.835000	0.439700
O211	O21	0.726600	0.903840	0.739250
O221	O22	0.742600	0.817220	0.686660
O231	O23	0.066600	0.869400	0.910100
O241	O24	0.966800	0.941300	0.886500
O251	O25	0.110900	0.686800	0.790500
O261	O26	0.020900	0.677500	0.718400
O271	O27	0.053800	0.607720	0.163660
O281	O28	0.239500	0.529220	0.134460
O291	O29	0.217700	0.615080	0.081180
O301	O30	0.600600	0.403400	0.018600
O311	O31	0.519700	0.391000	0.094900
O321	O32	0.557400	0.592900	0.911700
O331	O33	0.458600	0.665000	0.939700
O341	O34	0.226600	0.596160	0.239250
O351	O35	0.242600	0.682780	0.186660
O361	O36	0.566600	0.630600	0.410100
O371	O37	0.466800	0.558700	0.386500
O381	O38	0.610900	0.813200	0.290500
O391	O39	0.520900	0.822500	0.218400
O401	O40	0.946200	0.392280	0.663660
O411	O41	0.760500	0.470780	0.634460
O421	O42	0.782300	0.384920	0.581180
O431	O43	0.399400	0.596600	0.518600
O441	O44	0.480300	0.609000	0.594900
O451	O45	0.442600	0.407100	0.411700
O461	O46	0.541400	0.335000	0.439700
O471	O47	0.773400	0.403840	0.739250
O481	O48	0.757400	0.317220	0.686660
O491	O49	0.433400	0.369400	0.910100
O501	O50	0.533200	0.441300	0.886500
O511	O51	0.389100	0.186800	0.790500
O521	O52	0.479100	0.177500	0.718400
