data_PODKOK_clean_PM
_symmetry_space_group_name_H-M	'P1'
_cell_length_a	34.685300
_cell_length_b	34.685300
_cell_length_c	35.269600
_cell_angle_alpha	119.453000
_cell_angle_beta	119.453000
_cell_angle_gamma	90.000000
_symmetry_Int_Tables_number 1

loop_
_symmetry_equiv_pos_as_xyz
'x,y,z'

loop_
_atom_site_label
_atom_site_type_symbol
_atom_site_fract_x
_atom_site_fract_y
_atom_site_fract_z
Cu11	Cu1	0.933390	0.216730	0.000000
Cu21	Cu2	0.743470	0.960420	0.774380
Cu31	Cu3	0.088620	0.709790	0.000000
Cu41	Cu4	0.911380	0.290210	0.000000
Cu51	Cu5	0.030910	0.813960	0.774380
Cu61	Cu6	0.216730	0.066610	0.000000
Cu71	Cu7	0.751840	0.658230	0.701040
Cu81	Cu8	0.813960	0.743470	0.774380
Cu91	Cu9	0.050800	0.957190	0.298960
Cu101	Cu10	0.290210	0.088620	0.000000
Cu111	Cu11	0.709790	0.911380	0.000000
Cu121	Cu12	0.066610	0.783270	0.000000
Cu131	Cu13	0.039580	0.969090	0.225620
Cu141	Cu14	0.658230	0.949200	0.701040
Cu151	Cu15	0.960420	0.030910	0.774380
Cu161	Cu16	0.783270	0.933390	0.000000
Cu171	Cu17	0.957190	0.248160	0.298960
Cu181	Cu18	0.248160	0.341770	0.298960
Cu191	Cu19	0.186040	0.256530	0.225620
Cu201	Cu20	0.969090	0.186040	0.225620
Cu211	Cu21	0.949200	0.042810	0.701040
Cu221	Cu22	0.341770	0.050800	0.298960
Cu231	Cu23	0.042810	0.751840	0.701040
Cu241	Cu24	0.256530	0.039580	0.225620
H11	H1	0.290300	0.667800	0.246200
H21	H2	0.791200	0.537000	0.782400
H31	H3	0.720500	0.943200	0.225600
H41	H4	0.388600	0.201600	0.406400
H51	H5	0.818500	0.984400	0.718000
H61	H6	0.402800	0.030100	0.212800
H71	H7	0.904800	0.774700	0.367800
H81	H8	0.225300	0.537000	0.632200
H91	H9	0.332200	0.044100	0.753800
H101	H10	0.406900	0.095200	0.632200
H111	H11	0.033900	0.231200	0.487800
H121	H12	0.709700	0.332200	0.753800
H131	H13	0.413300	0.677300	0.270600
H141	H14	0.406900	0.021700	0.693200
H151	H15	0.156200	0.925600	0.865800
H161	H16	0.469300	0.073700	0.861400
H171	H17	0.955900	0.578400	0.246200
H181	H18	0.591100	0.289000	0.635000
H191	H19	0.201600	0.017800	0.406400
H201	H20	0.473000	0.724600	0.443000
H211	H21	0.256600	0.033900	0.487800
H221	H22	0.589100	0.280900	0.177400
H231	H23	0.279500	0.056800	0.774400
H241	H24	0.598100	0.420700	0.710600
H251	H25	0.671500	0.406900	0.693200
H261	H26	0.190000	0.817300	0.787200
H271	H27	0.052300	0.386600	0.099600
H281	H28	0.887500	0.710100	0.289400
H291	H29	0.328100	0.907400	0.238800
H301	H30	0.112500	0.289900	0.710600
H311	H31	0.331400	0.328100	0.238800
H321	H32	0.092600	0.089300	0.761200
H331	H33	0.956100	0.654000	0.365000
H341	H34	0.711000	0.956100	0.365000
H351	H35	0.322700	0.142700	0.729400
H361	H36	0.969900	0.190000	0.787200
H371	H37	0.100500	0.266400	0.282000
H381	H38	0.546100	0.743400	0.512200
H391	H39	0.505100	0.282400	0.225600
H401	H40	0.588300	0.896500	0.177400
H411	H41	0.593300	0.413300	0.270600
H421	H42	0.597200	0.969900	0.787200
H431	H43	0.286300	0.671500	0.693200
H441	H44	0.386600	0.047300	0.099600
H451	H45	0.047300	0.713000	0.099600
H461	H46	0.586700	0.322700	0.729400
H471	H47	0.073700	0.392100	0.861400
H481	H48	0.008400	0.729300	0.270600
H491	H49	0.091800	0.350100	0.404200
H501	H50	0.030100	0.810000	0.212800
H511	H51	0.654000	0.408900	0.365000
H521	H52	0.463000	0.593100	0.367800
H531	H53	0.894200	0.345900	0.124200
H541	H54	0.717600	0.279500	0.774400
H551	H55	0.280900	0.588300	0.177400
H561	H56	0.768800	0.546100	0.512200
H571	H57	0.181500	0.015600	0.282000
H581	H58	0.668600	0.671900	0.761200
H591	H59	0.406700	0.586700	0.729400
H601	H60	0.724600	0.970000	0.443000
H611	H61	0.943200	0.505100	0.225600
H621	H62	0.287000	0.947700	0.900400
H631	H63	0.212300	0.530700	0.138600
H641	H64	0.907400	0.910700	0.238800
H651	H65	0.734200	0.843900	0.249600
H661	H66	0.245400	0.791200	0.782400
H671	H67	0.737800	0.458700	0.729400
H681	H68	0.458700	0.991600	0.729400
H691	H69	0.537000	0.406900	0.632200
H701	H70	0.817300	0.597200	0.787200
H711	H71	0.262200	0.541300	0.270600
H721	H72	0.008800	0.754600	0.217600
H731	H73	0.978300	0.713700	0.306800
H741	H74	0.915800	0.424800	0.187400
H751	H75	0.795200	0.611400	0.593600
H761	H76	0.054100	0.091800	0.404200
H771	H77	0.312400	0.054100	0.404200
H781	H78	0.044100	0.421600	0.753800
H791	H79	0.729300	0.262200	0.270600
H801	H80	0.982200	0.795200	0.593600
H811	H81	0.593100	0.978300	0.306800
H821	H82	0.270700	0.737800	0.729400
H831	H83	0.515400	0.405700	0.249600
H841	H84	0.421600	0.709700	0.753800
H851	H85	0.230000	0.778300	0.124200
H861	H86	0.105800	0.654100	0.875800
H871	H87	0.713000	0.052300	0.099600
H881	H88	0.593100	0.904800	0.367800
H891	H89	0.810000	0.182700	0.212800
H901	H90	0.089300	0.668600	0.761200
H911	H91	0.952700	0.287000	0.900400
H921	H92	0.947700	0.613400	0.900400
H931	H93	0.401900	0.579300	0.289400
H941	H94	0.743400	0.966100	0.512200
H951	H95	0.345900	0.230000	0.124200
H961	H96	0.890800	0.923800	0.125000
H971	H97	0.910700	0.331400	0.238800
H981	H98	0.578400	0.290300	0.246200
H991	H99	0.346000	0.591100	0.635000
H1001	H100	0.237400	0.084200	0.812600
H1011	H101	0.925600	0.709600	0.865800
H1021	H102	0.945900	0.908200	0.595800
H1031	H103	0.770000	0.221700	0.875800
H1041	H104	0.021700	0.286300	0.693200
H1051	H105	0.966100	0.768800	0.512200
H1061	H106	0.017800	0.204800	0.406400
H1071	H107	0.420700	0.112500	0.710600
H1081	H108	0.677300	0.857300	0.270600
H1091	H109	0.076200	0.765800	0.875000
H1101	H110	0.103500	0.410900	0.822600
H1111	H111	0.059800	0.843800	0.134200
H1121	H112	0.649900	0.687600	0.595800
H1131	H113	0.074400	0.290400	0.134200
H1141	H114	0.613400	0.952700	0.900400
H1151	H115	0.142700	0.406700	0.729400
H1161	H116	0.896500	0.589100	0.177400
H1171	H117	0.718400	0.473000	0.443000
H1181	H118	0.084200	0.575200	0.812600
H1191	H119	0.015600	0.100500	0.282000
H1201	H120	0.984400	0.899500	0.718000
H1211	H121	0.484600	0.594300	0.750400
H1221	H122	0.774700	0.463000	0.367800
H1231	H123	0.234200	0.201200	0.125000
H1241	H124	0.579300	0.887500	0.289400
H1251	H125	0.728400	0.237400	0.812600
H1261	H126	0.043900	0.346000	0.635000
H1271	H127	0.607900	0.212300	0.138600
H1281	H128	0.156100	0.484600	0.750400
H1291	H129	0.282400	0.720500	0.225600
H1301	H130	0.231200	0.453900	0.487800
H1311	H131	0.710100	0.401900	0.289400
H1321	H132	0.527000	0.275400	0.557000
H1331	H133	0.221700	0.105800	0.875800
H1341	H134	0.798400	0.982200	0.593600
H1351	H135	0.719100	0.411700	0.822600
H1361	H136	0.733600	0.818500	0.718000
H1371	H137	0.289900	0.598100	0.710600
H1381	H138	0.410900	0.719100	0.822600
H1391	H139	0.798800	0.109200	0.875000
H1401	H140	0.940200	0.156200	0.865800
H1411	H141	0.266400	0.181500	0.282000
H1421	H142	0.671900	0.092600	0.761200
H1431	H143	0.923800	0.234200	0.125000
H1441	H144	0.265800	0.156100	0.750400
H1451	H145	0.667800	0.955900	0.246200
H1461	H146	0.843900	0.515400	0.249600
H1471	H147	0.405700	0.734200	0.249600
H1481	H148	0.713700	0.328500	0.306800
H1491	H149	0.463000	0.008800	0.217600
H1501	H150	0.926300	0.607900	0.138600
H1511	H151	0.408900	0.711000	0.365000
H1521	H152	0.857300	0.593300	0.270600
H1531	H153	0.109200	0.076200	0.875000
H1541	H154	0.182700	0.402800	0.212800
H1551	H155	0.424800	0.271600	0.187400
H1561	H156	0.275400	0.030000	0.557000
H1571	H157	0.575200	0.728400	0.812600
H1581	H158	0.843800	0.074400	0.134200
H1591	H159	0.537000	0.991200	0.782400
H1601	H160	0.056800	0.494900	0.774400
H1611	H161	0.594300	0.265800	0.750400
H1621	H162	0.970000	0.718400	0.443000
H1631	H163	0.687600	0.945900	0.595800
H1641	H164	0.778300	0.894200	0.124200
H1651	H165	0.611400	0.798400	0.593600
H1661	H166	0.030000	0.281600	0.557000
H1671	H167	0.541300	0.008400	0.270600
H1681	H168	0.290400	0.059800	0.134200
H1691	H169	0.530700	0.926300	0.138600
H1701	H170	0.908200	0.649900	0.595800
H1711	H171	0.899500	0.733600	0.718000
H1721	H172	0.494900	0.717600	0.774400
H1731	H173	0.208800	0.463000	0.217600
H1741	H174	0.762600	0.915800	0.187400
H1751	H175	0.787700	0.469300	0.861400
H1761	H176	0.765800	0.798800	0.875000
H1771	H177	0.991200	0.245400	0.782400
H1781	H178	0.350100	0.312400	0.404200
H1791	H179	0.095200	0.225300	0.632200
H1801	H180	0.411700	0.103500	0.822600
H1811	H181	0.392100	0.787700	0.861400
H1821	H182	0.281600	0.527000	0.557000
H1831	H183	0.289000	0.043900	0.635000
H1841	H184	0.991600	0.270700	0.729400
H1851	H185	0.201200	0.890800	0.125000
H1861	H186	0.709600	0.940200	0.865800
H1871	H187	0.754600	0.208800	0.217600
H1881	H188	0.654100	0.770000	0.875800
H1891	H189	0.271600	0.762600	0.187400
H1901	H190	0.453900	0.256600	0.487800
H1911	H191	0.328500	0.593100	0.306800
H1921	H192	0.204800	0.388600	0.406400
C11	C1	0.797930	0.979770	0.684800
C21	C2	0.165860	0.867560	0.820000
C31	C3	0.039420	0.041900	0.310540
C41	C4	0.813800	0.500500	0.817000
C51	C5	0.542600	0.656000	0.768400
C61	C6	0.418800	0.032600	0.728600
C71	C7	0.913100	0.748200	0.366600
C81	C8	0.225800	0.112400	0.768400
C91	C9	0.480870	0.327170	0.539740
C101	C10	0.333600	0.093300	0.741200
C111	C11	0.328900	0.765800	0.797200
C121	C12	0.112320	0.090650	0.792680
C131	C13	0.163010	0.328820	0.213040
C141	C14	0.632490	0.786340	0.611100
C151	C15	0.130090	0.993100	0.309640
C161	C16	0.471000	0.617900	0.749600
C171	C17	0.097690	0.576390	0.795180
C181	C18	0.250260	0.034750	0.339400
C191	C19	0.466100	0.008900	0.192400
C201	C20	0.544500	0.937000	0.174200
C211	C21	0.892530	0.656120	0.612900
C221	C22	0.932200	0.747800	0.408800
C231	C23	0.381600	0.086900	0.633400
C241	C24	0.328820	0.050030	0.213040
C251	C25	0.113130	0.294970	0.315200
C261	C26	0.034750	0.089140	0.339400
C271	C27	0.067800	0.252200	0.591200
C281	C28	0.286380	0.043060	0.494720
C291	C29	0.333940	0.054890	0.110120
C301	C30	0.875500	0.575200	0.261400
C311	C31	0.902310	0.423610	0.204820
C321	C32	0.004050	0.304880	0.069840
C331	C33	0.617900	0.278600	0.749600
C341	C34	0.735200	0.896400	0.241400
C351	C35	0.175240	0.367510	0.388900
C361	C36	0.584200	0.390200	0.679400
C371	C37	0.055900	0.321500	0.635400
C381	C38	0.798640	0.913710	0.072000
C391	C39	0.949970	0.115780	0.786960
C401	C40	0.951400	0.715900	0.410600
C411	C41	0.184010	0.012510	0.339060
C421	C42	0.777370	0.122320	0.859540
C431	C43	0.319640	0.297970	0.207320
C441	C44	0.765800	0.468300	0.797200
C451	C45	0.743360	0.072560	0.118320
C461	C46	0.762800	0.455500	0.825800
C471	C47	0.680360	0.702030	0.792680
C481	C48	0.252200	0.523400	0.591200
C491	C49	0.251800	0.546500	0.633400
C501	C50	0.965250	0.910860	0.660600
C511	C51	0.713400	0.926000	0.236800
C521	C52	0.074000	0.476600	0.763200
C531	C53	0.453500	0.618400	0.366600
C541	C54	0.089140	0.304650	0.339400
C551	C55	0.810920	0.899950	0.139700
C561	C56	0.776180	0.055230	0.110120
C571	C57	0.540800	0.305300	0.589400
C581	C58	0.264800	0.103600	0.758600
C591	C59	0.067900	0.434000	0.753000
C601	C60	0.033840	0.755500	0.155480
C611	C61	0.457400	0.344000	0.231600
C621	C62	0.702030	0.112320	0.792680
C631	C63	0.328780	0.239750	0.139700
C641	C64	0.031400	0.328900	0.797200
C651	C65	0.012510	0.155050	0.339060
C661	C66	0.327170	0.058870	0.539740
C671	C67	0.914160	0.680700	0.859360
C681	C68	0.289200	0.584200	0.679400
C691	C69	0.423610	0.302510	0.204820
C701	C70	0.399980	0.033840	0.155480
C711	C71	0.280550	0.959220	0.214240
C721	C72	0.700600	0.265700	0.250400
C731	C73	0.150480	0.385310	0.186760
C741	C74	0.661000	0.932200	0.408800
C751	C75	0.008900	0.726300	0.192400
C761	C76	0.161220	0.101260	0.816320
C771	C77	0.687800	0.401500	0.752400
C781	C78	0.898740	0.344900	0.183680
C791	C79	0.878360	0.600020	0.844520
C801	C80	0.618300	0.278000	0.197400
C811	C81	0.260930	0.035530	0.412060
C821	C82	0.944100	0.678500	0.364600
C831	C83	0.072560	0.374960	0.118320
C841	C84	0.719450	0.040780	0.785760
C851	C85	0.739070	0.964470	0.587940
C861	C86	0.305300	0.048600	0.589400
C871	C87	0.673450	0.815990	0.660940
C881	C88	0.015300	0.299400	0.749600
C891	C89	0.996800	0.683500	0.183000
C901	C90	0.065790	0.764960	0.069840
C911	C91	0.899950	0.328780	0.139700
C921	C92	0.041900	0.271120	0.310540
C931	C93	0.722000	0.420900	0.802600
C941	C94	0.424800	0.614100	0.738600
C951	C95	0.237200	0.544500	0.174200
C961	C96	0.344000	0.774200	0.231600
C971	C97	0.732360	0.093910	0.814880
C981	C98	0.155050	0.326550	0.339060
C991	C99	0.726300	0.183500	0.192400
C1001	C100	0.671100	0.234200	0.202800
C1011	C101	0.208340	0.451660	0.494720
C1021	C102	0.085840	0.319300	0.140640
C1031	C103	0.239750	0.810920	0.139700
C1041	C104	0.343880	0.279630	0.387100
C1051	C105	0.695120	0.934210	0.930160
C1061	C106	0.198550	0.849520	0.813240
C1071	C107	0.350900	0.687800	0.752400
C1081	C108	0.407600	0.647900	0.741200
C1091	C109	0.319000	0.067900	0.753000
C1101	C110	0.279630	0.043220	0.387100
C1111	C111	0.849520	0.614690	0.813240
C1121	C112	0.302510	0.781210	0.204820
C1131	C113	0.786340	0.978610	0.611100
C1141	C114	0.183500	0.466100	0.192400
C1151	C115	0.055230	0.333940	0.110120
C1161	C116	0.978610	0.824760	0.611100
C1171	C117	0.304880	0.065790	0.069840
C1181	C118	0.316500	0.813800	0.817000
C1191	C119	0.054890	0.776180	0.110120
C1201	C120	0.468300	0.031400	0.797200
C1211	C121	0.715060	0.161220	0.816320
C1221	C122	0.519130	0.672830	0.460260
C1231	C123	0.737220	0.777370	0.859540
C1241	C124	0.671220	0.760250	0.860300
C1251	C125	0.500500	0.003200	0.817000
C1261	C126	0.576390	0.697490	0.795180
C1271	C127	0.222630	0.877680	0.140460
C1281	C128	0.697490	0.218790	0.795180
C1291	C129	0.324000	0.601200	0.680800
C1301	C130	0.523400	0.310800	0.236800
C1311	C131	0.189080	0.100050	0.860300
C1321	C132	0.279030	0.267640	0.185120
C1331	C133	0.297970	0.887680	0.207320
C1341	C134	0.958100	0.728880	0.689460
C1351	C135	0.267640	0.906090	0.185120
C1361	C136	0.278600	0.131700	0.749600
C1371	C137	0.987490	0.844950	0.660940
C1381	C138	0.265700	0.549800	0.250400
C1391	C139	0.959220	0.933690	0.214240
C1401	C140	0.820450	0.683460	0.690360
C1411	C141	0.021390	0.175240	0.388900
C1421	C142	0.816500	0.533900	0.807600
C1431	C143	0.654140	0.952440	0.820000
C1441	C144	0.506200	0.345000	0.241400
C1451	C145	0.944770	0.666060	0.889880
C1461	C146	0.048600	0.284100	0.589400
C1471	C147	0.079600	0.324000	0.680800
C1481	C148	0.036280	0.801450	0.186760
C1491	C149	0.960580	0.958100	0.689460
C1501	C150	0.731360	0.960580	0.689460
C1511	C151	0.705030	0.797930	0.684800
C1521	C152	0.618400	0.913100	0.366600
C1531	C153	0.566000	0.314900	0.247000
C1541	C154	0.598500	0.935400	0.247600
C1551	C155	0.115780	0.836990	0.786960
C1561	C156	0.601200	0.356800	0.680800
C1571	C157	0.575200	0.385900	0.261400
C1581	C158	0.666400	0.906700	0.258800
C1591	C159	0.896400	0.506200	0.241400
C1601	C160	0.690200	0.304000	0.271400
C1611	C161	0.186200	0.499500	0.183000
C1621	C162	0.848870	0.623470	0.587940
C1631	C163	0.376530	0.260930	0.412060
C1641	C164	0.625040	0.954240	0.881680
C1651	C165	0.991100	0.273700	0.807600
C1661	C166	0.656000	0.225800	0.768400
C1671	C167	0.649100	0.312200	0.247600
C1681	C168	0.695350	0.749740	0.660600
C1691	C169	0.877680	0.917830	0.140460
C1701	C170	0.374960	0.045760	0.118320
C1711	C171	0.884220	0.163010	0.213040
C1721	C172	0.095200	0.289200	0.679400
C1731	C173	0.913710	0.273360	0.072000
C1741	C174	0.546500	0.381600	0.633400
C1751	C175	0.370300	0.762800	0.825800
C1761	C176	0.345860	0.047560	0.180000
C1771	C177	0.614690	0.963720	0.813240
C1781	C178	0.926000	0.523400	0.236800
C1791	C179	0.815990	0.987490	0.660940
C1801	C180	0.963720	0.198550	0.813240
C1811	C181	0.781210	0.902310	0.204820
C1821	C182	0.964470	0.848870	0.587940
C1831	C183	0.945110	0.223820	0.889880
C1841	C184	0.278000	0.579100	0.197400
C1851	C185	0.694700	0.951400	0.410600
C1861	C186	0.523400	0.339000	0.591200
C1871	C187	0.755500	0.121640	0.155480
C1881	C188	0.313800	0.124500	0.738600
C1891	C189	0.271120	0.268640	0.310540
C1901	C190	0.086290	0.726640	0.928000
C1911	C191	0.103600	0.493800	0.758600
C1921	C192	0.906090	0.917480	0.185120
C1931	C193	0.352100	0.666400	0.258800
C1941	C194	0.748200	0.453500	0.366600
C1951	C195	0.381700	0.722000	0.802600
C1961	C196	0.993100	0.179550	0.309640
C1971	C197	0.054800	0.821340	0.140640
C1981	C198	0.954240	0.256640	0.881680
C1991	C199	0.747800	0.476600	0.408800
C2001	C200	0.299400	0.734300	0.749600
C2011	C201	0.003200	0.316500	0.817000
C2021	C202	0.968600	0.671100	0.202800
C2031	C203	0.681000	0.932100	0.247000
C2041	C204	0.841710	0.201360	0.928000
C2051	C205	0.476600	0.661000	0.408800
C2061	C206	0.451660	0.286380	0.494720
C2071	C207	0.316540	0.130090	0.309640
C2081	C208	0.310800	0.713400	0.236800
C2091	C209	0.904800	0.710800	0.320600
C2101	C210	0.984700	0.700600	0.250400
C2111	C211	0.721400	0.868300	0.250400
C2121	C212	0.592400	0.352100	0.258800
C2131	C213	0.945200	0.178660	0.859360
C2141	C214	0.886870	0.705030	0.684800
C2151	C215	0.043060	0.208340	0.494720
C2161	C216	0.304650	0.250260	0.339400
C2171	C217	0.082520	0.720970	0.814880
C2181	C218	0.401500	0.064600	0.752400
C2191	C219	0.764960	0.004050	0.069840
C2201	C220	0.066310	0.744980	0.785760
C2211	C221	0.906700	0.592400	0.258800
C2221	C222	0.286600	0.074000	0.763200
C2231	C223	0.213660	0.021390	0.388900
C2241	C224	0.933690	0.255020	0.214240
C2251	C225	0.867560	0.654140	0.820000
C2261	C226	0.420500	0.686100	0.364600
C2271	C227	0.043220	0.107470	0.387100
C2281	C228	0.967400	0.690200	0.271400
C2291	C229	0.689200	0.286600	0.763200
C2301	C230	0.050030	0.884220	0.213040
C2311	C231	0.838780	0.898740	0.183680
C2321	C232	0.273700	0.816500	0.807600
C2331	C233	0.952440	0.165860	0.820000
C2341	C234	0.090650	0.680360	0.792680
C2351	C235	0.774200	0.887600	0.231600
C2361	C236	0.080600	0.381700	0.802600
C2371	C237	0.385310	0.036280	0.186760
C2381	C238	0.966160	0.244500	0.844520
C2391	C239	0.531700	0.968600	0.202800
C2401	C240	0.910860	0.695350	0.660600
C2411	C241	0.934210	0.235040	0.930160
C2421	C242	0.356800	0.079600	0.680800
C2431	C243	0.398800	0.643200	0.319200
C2441	C244	0.666060	0.945110	0.889880
C2451	C245	0.920400	0.676000	0.319200
C2461	C246	0.726640	0.841710	0.928000
C2471	C247	0.760250	0.189080	0.860300
C2481	C248	0.917830	0.262780	0.140460
C2491	C249	0.326550	0.184010	0.339060
C2501	C250	0.836990	0.671180	0.786960
C2511	C251	0.869910	0.006900	0.690360
C2521	C252	0.124500	0.424800	0.738600
C2531	C253	0.234200	0.531700	0.202800
C2541	C254	0.979770	0.886870	0.684800
C2551	C255	0.715900	0.459200	0.410600
C2561	C256	0.201360	0.086290	0.928000
C2571	C257	0.533900	0.991100	0.807600
C2581	C258	0.100050	0.671220	0.860300
C2591	C259	0.294970	0.202070	0.315200
C2601	C260	0.696000	0.418800	0.728600
C2611	C261	0.309800	0.696000	0.728600
C2621	C262	0.202070	0.020230	0.315200
C2631	C263	0.720970	0.732360	0.814880
C2641	C264	0.548340	0.713620	0.505280
C2651	C265	0.824760	0.632490	0.611100
C2661	C266	0.935400	0.649100	0.247600
C2671	C267	0.834140	0.132440	0.180000
C2681	C268	0.382100	0.721400	0.250400
C2691	C269	0.131700	0.471000	0.749600
C2701	C270	0.493800	0.655000	0.758600
C2711	C271	0.151130	0.376530	0.412060
C2721	C272	0.579100	0.919400	0.197400
C2731	C273	0.268640	0.039420	0.310540
C2741	C274	0.459200	0.694700	0.410600
C2751	C275	0.063000	0.370300	0.825800
C2761	C276	0.169070	0.090470	0.880840
C2771	C277	0.672830	0.941130	0.460260
C2781	C278	0.032600	0.309800	0.728600
C2791	C279	0.158290	0.798640	0.072000
C2801	C280	0.609800	0.904800	0.320600
C2811	C281	0.218790	0.097690	0.795180
C2821	C282	0.676000	0.398800	0.319200
C2831	C283	0.686200	0.875500	0.261400
C2841	C284	0.656120	0.720370	0.612900
C2851	C285	0.623470	0.739070	0.587940
C2861	C286	0.549800	0.984700	0.250400
C2871	C287	0.734300	0.450200	0.749600
C2881	C288	0.728880	0.731360	0.689460
C2891	C289	0.262780	0.222630	0.140460
C2901	C290	0.937000	0.629700	0.174200
C2911	C291	0.801450	0.150480	0.186760
C2921	C292	0.284100	0.540800	0.589400
C2931	C293	0.917480	0.279030	0.185120
C2941	C294	0.058870	0.212570	0.539740
C2951	C295	0.321500	0.579500	0.635400
C2961	C296	0.932100	0.566000	0.247000
C2971	C297	0.101260	0.655100	0.816320
C2981	C298	0.244500	0.878360	0.844520
C2991	C299	0.273360	0.158290	0.072000
C3001	C300	0.284940	0.838780	0.183680
C3011	C301	0.035530	0.151130	0.412060
C3021	C302	0.791660	0.548340	0.505280
C3031	C303	0.064600	0.350900	0.752400
C3041	C304	0.020230	0.113130	0.315200
C3051	C305	0.749740	0.965250	0.660600
C3061	C306	0.711770	0.790370	0.880840
C3071	C307	0.455500	0.063000	0.825800
C3081	C308	0.720370	0.956780	0.612900
C3091	C309	0.339000	0.067800	0.591200
C3101	C310	0.093910	0.082520	0.814880
C3111	C311	0.122320	0.082170	0.859540
C3121	C312	0.345000	0.735200	0.241400
C3131	C313	0.830930	0.909530	0.119160
C3141	C314	0.821340	0.085840	0.140640
C3151	C315	0.909530	0.288230	0.119160
C3161	C316	0.121640	0.399980	0.155480
C3171	C317	0.047560	0.834140	0.180000
C3181	C318	0.112400	0.542600	0.768400
C3191	C319	0.844950	0.673450	0.660940
C3201	C320	0.256640	0.927440	0.881680
C3211	C321	0.006900	0.820450	0.690360
C3221	C322	0.255020	0.280550	0.214240
C3231	C323	0.045760	0.743360	0.118320
C3241	C324	0.710800	0.415800	0.320600
C3251	C325	0.107470	0.343880	0.387100
C3261	C326	0.529000	0.382100	0.250400
C3271	C327	0.678500	0.420500	0.364600
C3281	C328	0.713620	0.956940	0.505280
C3291	C329	0.304000	0.581200	0.271400
C3301	C330	0.178660	0.914160	0.859360
C3311	C331	0.671180	0.949970	0.786960
C3321	C332	0.312200	0.598500	0.247600
C3331	C333	0.450200	0.015300	0.749600
C3341	C334	0.868300	0.529000	0.250400
C3351	C335	0.476600	0.689200	0.763200
C3361	C336	0.629700	0.237200	0.174200
C3371	C337	0.686100	0.944100	0.364600
C3381	C338	0.179550	0.316540	0.309640
C3391	C339	0.314900	0.681000	0.247000
C3401	C340	0.790370	0.169070	0.880840
C3411	C341	0.223820	0.944770	0.889880
C3421	C342	0.093300	0.407600	0.741200
C3431	C343	0.927440	0.625040	0.881680
C3441	C344	0.434000	0.685100	0.753000
C3451	C345	0.655000	0.264800	0.758600
C3461	C346	0.420900	0.080600	0.802600
C3471	C347	0.600020	0.966160	0.844520
C3481	C348	0.288230	0.209630	0.119160
C3491	C349	0.887600	0.457400	0.231600
C3501	C350	0.680700	0.945200	0.859360
C3511	C351	0.887680	0.909350	0.207320
C3521	C352	0.683500	0.186200	0.183000
C3531	C353	0.040780	0.066310	0.785760
C3541	C354	0.683460	0.869910	0.690360
C3551	C355	0.579500	0.313900	0.635400
C3561	C356	0.209630	0.830930	0.119160
C3571	C357	0.581200	0.967400	0.271400
C3581	C358	0.090470	0.711770	0.880840
C3591	C359	0.082170	0.737220	0.859540
C3601	C360	0.367510	0.213660	0.388900
C3611	C361	0.941130	0.787430	0.460260
C3621	C362	0.643200	0.920400	0.319200
C3631	C363	0.212570	0.480870	0.539740
C3641	C364	0.995950	0.695120	0.930160
C3651	C365	0.319300	0.054800	0.140640
C3661	C366	0.313900	0.055900	0.635400
C3671	C367	0.385900	0.686200	0.261400
C3681	C368	0.390200	0.095200	0.679400
C3691	C369	0.614100	0.313800	0.738600
C3701	C370	0.132440	0.345860	0.180000
C3711	C371	0.685100	0.319000	0.753000
C3721	C372	0.956780	0.892530	0.612900
C3731	C373	0.744980	0.719450	0.785760
C3741	C374	0.415800	0.609800	0.320600
C3751	C375	0.235040	0.995950	0.930160
C3761	C376	0.909350	0.319640	0.207320
C3771	C377	0.956940	0.791660	0.505280
C3781	C378	0.919400	0.618300	0.197400
C3791	C379	0.086900	0.251800	0.633400
C3801	C380	0.647900	0.333600	0.741200
C3811	C381	0.344900	0.284940	0.183680
C3821	C382	0.499500	0.996800	0.183000
C3831	C383	0.655100	0.715060	0.816320
C3841	C384	0.787430	0.519130	0.460260
N11	N1	0.639800	0.168990	0.768600
N21	N2	0.635930	0.357200	0.265000
N31	N3	0.721500	0.140520	0.161040
N41	N4	0.558300	0.623900	0.756400
N51	N5	0.149030	0.429530	0.487060
N61	N6	0.560460	0.979480	0.838960
N71	N7	0.168990	0.128800	0.768600
N81	N8	0.685030	0.182140	0.791260
N91	N9	0.655100	0.143400	0.142400
N101	N10	0.871200	0.400390	0.231400
N111	N11	0.357200	0.629070	0.265000
N121	N12	0.429530	0.338030	0.487060
N131	N13	0.609120	0.685030	0.791260
N141	N14	0.344900	0.856600	0.857600
N151	N15	0.856600	0.512700	0.857600
N161	N16	0.439540	0.020520	0.161040
N171	N17	0.893770	0.390880	0.208740
N181	N18	0.629070	0.907800	0.265000
N191	N19	0.420240	0.293630	0.462480
N201	N20	0.859480	0.560460	0.838960
N211	N21	0.140520	0.439540	0.161040
N221	N22	0.106230	0.609120	0.791260
N231	N23	0.882600	0.548500	0.870600
N241	N24	0.182140	0.106230	0.791260
N251	N25	0.173780	0.467580	0.531760
N261	N26	0.532420	0.642020	0.468240
N271	N27	0.942470	0.850970	0.512940
N281	N28	0.338030	0.057530	0.487060
N291	N29	0.020520	0.721500	0.161040
N301	N30	0.128800	0.599610	0.768600
N311	N31	0.907800	0.635930	0.265000
N321	N32	0.826220	0.532420	0.468240
N331	N33	0.168850	0.420240	0.462480
N341	N34	0.487300	0.999000	0.142400
N351	N35	0.677900	0.117400	0.129400
N361	N36	0.441700	0.376100	0.243600
N371	N37	0.467580	0.357980	0.531760
N381	N38	0.817860	0.893770	0.208740
N391	N39	0.999000	0.655100	0.142400
N401	N40	0.623900	0.198100	0.756400
N411	N41	0.988000	0.322100	0.870600
N421	N42	0.357980	0.064180	0.531760
N431	N43	0.831150	0.579760	0.537520
N441	N44	0.322100	0.882600	0.870600
N451	N45	0.012000	0.677900	0.129400
N461	N46	0.370930	0.092200	0.735000
N471	N47	0.570470	0.661970	0.512940
N481	N48	0.867500	0.441700	0.243600
N491	N49	0.512700	0.001000	0.857600
N501	N50	0.957760	0.831150	0.537520
N511	N51	0.831010	0.871200	0.231400
N521	N52	0.001000	0.344900	0.857600
N531	N53	0.132500	0.558300	0.756400
N541	N54	0.064180	0.173780	0.531760
N551	N55	0.642020	0.935820	0.468240
N561	N56	0.400390	0.360200	0.231400
N571	N57	0.801900	0.867500	0.243600
N581	N58	0.278500	0.859480	0.838960
N591	N59	0.314970	0.817860	0.208740
N601	N60	0.360200	0.831010	0.231400
N611	N61	0.092200	0.364070	0.735000
N621	N62	0.042240	0.168850	0.462480
N631	N63	0.376100	0.801900	0.243600
N641	N64	0.390880	0.314970	0.208740
N651	N65	0.706370	0.957760	0.537520
N661	N66	0.850970	0.570470	0.512940
N671	N67	0.599610	0.639800	0.768600
N681	N68	0.198100	0.132500	0.756400
N691	N69	0.642800	0.370930	0.735000
N701	N70	0.548500	0.988000	0.870600
N711	N71	0.364070	0.642800	0.735000
N721	N72	0.661970	0.942470	0.512940
N731	N73	0.979480	0.278500	0.838960
N741	N74	0.057530	0.149030	0.487060
N751	N75	0.293630	0.042240	0.462480
N761	N76	0.451500	0.012000	0.129400
N771	N77	0.935820	0.826220	0.468240
N781	N78	0.117400	0.451500	0.129400
N791	N79	0.143400	0.487300	0.142400
N801	N80	0.579760	0.706370	0.537520
O11	O1	0.251290	0.973690	0.190620
O21	O2	0.107560	0.996850	0.271900
O31	O3	0.312620	0.051040	0.334380
O41	O4	0.132760	0.818970	0.054920
O51	O5	0.077840	0.764050	0.945080
O61	O6	0.996850	0.164340	0.271900
O71	O7	0.936370	0.274590	0.257080
O81	O8	0.835660	0.724950	0.728100
O91	O9	0.727920	0.978390	0.053560
O101	O10	0.818970	0.922160	0.054920
O111	O11	0.208690	0.004040	0.945200
O121	O12	0.756750	0.904400	0.055200
O131	O13	0.642660	0.951860	0.748480
O141	O14	0.882350	0.019370	0.669440
O151	O15	0.239240	0.033440	0.268120
O161	O16	0.325640	0.075170	0.053560
O171	O17	0.907510	0.148510	0.194740
O181	O18	0.783070	0.748710	0.809380
O191	O19	0.048140	0.894180	0.251520
O201	O20	0.736510	0.941160	0.945200
O211	O21	0.904400	0.298450	0.055200
O221	O22	0.283340	0.312620	0.334380
O231	O23	0.953770	0.092490	0.805260
O241	O24	0.948960	0.978240	0.665620
O251	O25	0.924830	0.272080	0.946440
O261	O26	0.674360	0.924830	0.946440
O271	O27	0.349930	0.117650	0.330560
O281	O28	0.051040	0.021760	0.334380
O291	O29	0.263490	0.058840	0.054800
O301	O30	0.995960	0.263490	0.054800
O311	O31	0.095600	0.701550	0.944800
O321	O32	0.764050	0.867240	0.945080
O331	O33	0.922160	0.235950	0.054920
O341	O34	0.791310	0.995960	0.054800
O351	O35	0.978390	0.325640	0.053560
O361	O36	0.357340	0.048140	0.251520
O371	O37	0.203380	0.357340	0.251520
O381	O38	0.725410	0.679290	0.742920
O391	O39	0.004040	0.736510	0.945200
O401	O40	0.892440	0.003150	0.728100
O411	O41	0.243250	0.095600	0.944800
O421	O42	0.021760	0.283340	0.334380
O431	O43	0.216930	0.251290	0.190620
O441	O44	0.712770	0.953770	0.805260
O451	O45	0.058840	0.791310	0.054800
O461	O46	0.017510	0.063630	0.742920
O471	O47	0.287230	0.046230	0.194740
O481	O48	0.298450	0.150800	0.055200
O491	O49	0.978240	0.716660	0.665620
O501	O50	0.117650	0.980630	0.330560
O511	O51	0.212910	0.349930	0.330560
O521	O52	0.026310	0.060670	0.809380
O531	O53	0.234680	0.239240	0.268120
O541	O54	0.941160	0.208690	0.945200
O551	O55	0.966560	0.971120	0.731880
O561	O56	0.687380	0.948960	0.665620
O571	O57	0.951860	0.105820	0.748480
O581	O58	0.150800	0.756750	0.055200
O591	O59	0.181030	0.077840	0.945080
O601	O60	0.971120	0.765320	0.731880
O611	O61	0.982490	0.936370	0.257080
O621	O62	0.765320	0.760760	0.731880
O631	O63	0.701550	0.849200	0.944800
O641	O64	0.272080	0.021610	0.946440
O651	O65	0.849200	0.243250	0.944800
O661	O66	0.679290	0.017510	0.742920
O671	O67	0.787090	0.650070	0.669440
O681	O68	0.894180	0.203380	0.251520
O691	O69	0.973690	0.939330	0.190620
O701	O70	0.060670	0.783070	0.809380
O711	O71	0.716660	0.687380	0.665620
O721	O72	0.021610	0.674360	0.946440
O731	O73	0.148510	0.287230	0.194740
O741	O74	0.760760	0.966560	0.731880
O751	O75	0.724950	0.892440	0.728100
O761	O76	0.939330	0.216930	0.190620
O771	O77	0.320710	0.982490	0.257080
O781	O78	0.019370	0.787090	0.669440
O791	O79	0.028880	0.234680	0.268120
O801	O80	0.748710	0.026310	0.809380
O811	O81	0.003150	0.835660	0.728100
O821	O82	0.075170	0.727920	0.053560
O831	O83	0.275050	0.107560	0.271900
O841	O84	0.851490	0.712770	0.805260
O851	O85	0.980630	0.212910	0.330560
O861	O86	0.164340	0.275050	0.271900
O871	O87	0.105820	0.796620	0.748480
O881	O88	0.274590	0.320710	0.257080
O891	O89	0.092490	0.851490	0.805260
O901	O90	0.235950	0.132760	0.054920
O911	O91	0.650070	0.882350	0.669440
O921	O92	0.867240	0.181030	0.945080
O931	O93	0.046230	0.907510	0.194740
O941	O94	0.796620	0.642660	0.748480
O951	O95	0.063630	0.725410	0.742920
O961	O96	0.033440	0.028880	0.268120
