data_PODKUQ_clean_PM
_symmetry_space_group_name_H-M	'P1'
_cell_length_a	36.787600
_cell_length_b	36.787600
_cell_length_c	37.715300
_cell_angle_alpha	119.190000
_cell_angle_beta	119.190000
_cell_angle_gamma	90.000000
_symmetry_Int_Tables_number 1

loop_
_symmetry_equiv_pos_as_xyz
'x,y,z'

loop_
_atom_site_label
_atom_site_type_symbol
_atom_site_fract_x
_atom_site_fract_y
_atom_site_fract_z
Cu11	Cu1	0.333720	0.535180	0.792060
Cu21	Cu2	0.452040	0.554430	0.276220
Cu31	Cu3	0.702380	0.424990	0.000000
Cu41	Cu4	0.743120	0.666280	0.207940
Cu51	Cu5	0.464820	0.541660	0.207940
Cu61	Cu6	0.535180	0.458340	0.792060
Cu71	Cu7	0.458340	0.256880	0.792060
Cu81	Cu8	0.256880	0.333720	0.792060
Cu91	Cu9	0.541660	0.743120	0.207940
Cu101	Cu10	0.770390	0.400570	0.000000
Cu111	Cu11	0.666280	0.464820	0.207940
Cu121	Cu12	0.400570	0.229610	0.000000
Cu131	Cu13	0.547960	0.445570	0.723780
Cu141	Cu14	0.445570	0.175820	0.723780
Cu151	Cu15	0.229610	0.599430	0.000000
Cu161	Cu16	0.278210	0.547960	0.723780
Cu171	Cu17	0.824180	0.721790	0.276220
Cu181	Cu18	0.575010	0.702380	0.000000
Cu191	Cu19	0.424990	0.297620	0.000000
Cu201	Cu20	0.554430	0.824180	0.276220
Cu211	Cu21	0.721790	0.452040	0.276220
Cu221	Cu22	0.297620	0.575010	0.000000
Cu231	Cu23	0.599430	0.770390	0.000000
Cu241	Cu24	0.175820	0.278210	0.723780
H11	H1	0.096300	0.004000	0.723800
H21	H2	0.104600	0.723400	0.218000
H31	H3	0.777700	0.540100	0.740600
H41	H4	0.469000	0.771500	0.907000
H51	H5	0.799000	0.826000	0.373000
H61	H6	0.555900	0.348400	0.120000
H71	H7	0.326000	0.254700	0.739200
H81	H8	0.600300	0.759300	0.693000
H91	H9	0.909800	0.560100	0.775000
H101	H10	0.886600	0.505400	0.782000
H111	H11	0.922700	0.704300	0.449600
H121	H12	0.177900	0.784400	0.209000
H131	H13	0.090200	0.439900	0.225000
H141	H14	0.064100	0.323800	0.800000
H151	H15	0.985200	0.760100	0.519400
H161	H16	0.228500	0.562000	0.093000
H171	H17	0.200500	0.777700	0.740600
H181	H18	0.323800	0.735900	0.800000
H191	H19	0.771500	0.438000	0.907000
H201	H20	0.276600	0.886600	0.782000
H211	H21	0.459900	0.037100	0.259400
H221	H22	0.222200	0.037300	0.801000
H231	H23	0.564100	0.771600	0.120000
H241	H24	0.702500	0.268200	0.883600
H251	H25	0.236300	0.777800	0.199000
H261	H26	0.031100	0.424600	0.209000
H271	H27	0.264300	0.761300	0.777200
H281	H28	0.663500	0.131600	0.180200
H291	H29	0.093200	0.866300	0.657000
H301	H30	0.015900	0.264300	0.777200
H311	H31	0.304400	0.134500	0.627600
H321	H32	0.323200	0.493100	0.627600
H331	H33	0.742400	0.564300	0.644000
H341	H34	0.228500	0.947000	0.415400
H351	H35	0.984100	0.735700	0.222800
H361	H36	0.254700	0.413200	0.739200
H371	H37	0.759300	0.985200	0.519400
H381	H38	0.901600	0.079700	0.644000
H391	H39	0.468400	0.228500	0.415400
H401	H40	0.186900	0.468400	0.415400
H411	H41	0.822100	0.215600	0.791000
H421	H42	0.526900	0.745300	0.449600
H431	H43	0.584100	0.598900	0.885200
H441	H44	0.419400	0.818300	0.223800
H451	H45	0.933700	0.600300	0.693000
H461	H46	0.313400	0.436800	0.425400
H471	H47	0.683300	0.452300	0.798800
H481	H48	0.336500	0.868400	0.819800
H491	H49	0.580600	0.181700	0.776200
H501	H50	0.563800	0.790700	0.657000
H511	H51	0.564300	0.901600	0.644000
H521	H52	0.476200	0.064100	0.800000
H531	H53	0.594500	0.580600	0.776200
H541	H54	0.531600	0.771500	0.584600
H551	H55	0.103400	0.847000	0.323200
H561	H56	0.759300	0.092700	0.693000
H571	H57	0.574000	0.547000	0.373000
H581	H58	0.534200	0.759300	0.519400
H591	H59	0.547700	0.884500	0.201200
H601	H60	0.826000	0.574000	0.373000
H611	H61	0.201000	0.174000	0.627000
H621	H62	0.686600	0.563200	0.574600
H631	H63	0.415900	0.401100	0.114800
H641	H64	0.847000	0.219800	0.323200
H651	H65	0.731800	0.818900	0.116400
H661	H66	0.228400	0.444100	0.880000
H671	H67	0.219800	0.476200	0.323200
H681	H68	0.444100	0.651600	0.880000
H691	H69	0.348400	0.564100	0.120000
H701	H70	0.435700	0.098400	0.356000
H711	H71	0.907300	0.066300	0.307000
H721	H72	0.133700	0.436200	0.343000
H731	H73	0.540100	0.962900	0.740600
H741	H74	0.066300	0.399700	0.307000
H751	H75	0.257600	0.435700	0.356000
H761	H76	0.384600	0.297500	0.116400
H771	H77	0.723400	0.113400	0.218000
H781	H78	0.698900	0.713700	0.114800
H791	H79	0.516700	0.048600	0.180200
H801	H80	0.704300	0.526900	0.449600
H811	H81	0.893800	0.405500	0.175400
H821	H82	0.562000	0.864500	0.093000
H831	H83	0.295700	0.473100	0.550400
H841	H84	0.465800	0.240700	0.480600
H851	H85	0.135500	0.469000	0.907000
H861	H86	0.506900	0.695600	0.372400
H871	H87	0.405500	0.419400	0.223800
H881	H88	0.112000	0.988600	0.425400
H891	H89	0.790700	0.093200	0.657000
H901	H90	0.473100	0.254700	0.550400
H911	H91	0.240700	0.014800	0.480600
H921	H92	0.735900	0.476200	0.800000
H931	H93	0.214900	0.909800	0.775000
H941	H94	0.286300	0.584100	0.885200
H951	H95	0.760100	0.534200	0.519400
H961	H96	0.131600	0.516700	0.180200
H971	H97	0.771600	0.555900	0.120000
H981	H98	0.996000	0.372500	0.276200
H991	H99	0.962900	0.200500	0.740600
H1001	H100	0.951400	0.336500	0.819800
H1011	H101	0.578800	0.763700	0.801000
H1021	H102	0.483300	0.951400	0.819800
H1031	H103	0.563200	0.888000	0.574600
H1041	H104	0.453000	0.201000	0.627000
H1051	H105	0.181700	0.195600	0.776200
H1061	H106	0.769900	0.893800	0.175400
H1071	H107	0.098400	0.920300	0.356000
H1081	H108	0.254700	0.077300	0.550400
H1091	H109	0.884500	0.653500	0.201200
H1101	H110	0.435900	0.228400	0.880000
H1111	H111	0.215600	0.968900	0.791000
H1121	H112	0.239900	0.465800	0.480600
H1131	H113	0.866300	0.563800	0.657000
H1141	H114	0.713700	0.415900	0.114800
H1151	H115	0.512900	0.015900	0.777200
H1161	H116	0.968900	0.575400	0.791000
H1171	H117	0.674000	0.745300	0.260800
H1181	H118	0.865200	0.214900	0.775000
H1191	H119	0.653500	0.316700	0.201200
H1201	H120	0.439900	0.134800	0.225000
H1211	H121	0.935900	0.676200	0.200000
H1221	H122	0.771500	0.053000	0.584600
H1231	H123	0.209300	0.906800	0.343000
H1241	H124	0.372500	0.280200	0.276200
H1251	H125	0.424600	0.177900	0.209000
H1261	H126	0.264100	0.523800	0.200000
H1271	H127	0.695600	0.865500	0.372400
H1281	H128	0.947000	0.186900	0.415400
H1291	H129	0.230100	0.106200	0.824600
H1301	H130	0.004000	0.627500	0.723800
H1311	H131	0.174000	0.426000	0.627000
H1321	H132	0.718400	0.230100	0.824600
H1331	H133	0.962700	0.421200	0.199000
H1341	H134	0.405500	0.281600	0.175400
H1351	H135	0.780200	0.523800	0.676800
H1361	H136	0.505400	0.895400	0.782000
H1371	H137	0.401100	0.698900	0.114800
H1381	H138	0.888000	0.011400	0.574600
H1391	H139	0.531000	0.228500	0.093000
H1401	H140	0.240700	0.907300	0.307000
H1411	H141	0.268200	0.181100	0.883600
H1421	H142	0.413200	0.484500	0.739200
H1431	H143	0.586800	0.515500	0.260800
H1441	H144	0.281600	0.769900	0.175400
H1451	H145	0.895400	0.276600	0.782000
H1461	H146	0.813100	0.531600	0.584600
H1471	H147	0.106200	0.594500	0.824600
H1481	H148	0.676200	0.264100	0.200000
H1491	H149	0.436800	0.112000	0.425400
H1501	H150	0.868400	0.483300	0.819800
H1511	H151	0.436200	0.209300	0.343000
H1521	H152	0.651600	0.435900	0.880000
H1531	H153	0.079700	0.742400	0.644000
H1541	H154	0.452300	0.115500	0.798800
H1551	H155	0.222300	0.459900	0.259400
H1561	H156	0.494600	0.104600	0.218000
H1571	H157	0.077300	0.295700	0.550400
H1581	H158	0.113400	0.494600	0.218000
H1591	H159	0.181100	0.615400	0.883600
H1601	H160	0.523800	0.896600	0.676800
H1611	H161	0.594500	0.718400	0.824600
H1621	H162	0.547000	0.799000	0.373000
H1631	H163	0.903700	0.996000	0.276200
H1641	H164	0.048600	0.663500	0.180200
H1651	H165	0.575400	0.822100	0.791000
H1661	H166	0.763700	0.222200	0.801000
H1671	H167	0.297500	0.731800	0.116400
H1681	H168	0.906800	0.133700	0.343000
H1691	H169	0.011400	0.686600	0.574600
H1701	H170	0.598900	0.301100	0.885200
H1711	H171	0.484500	0.326000	0.739200
H1721	H172	0.818900	0.384600	0.116400
H1731	H173	0.735700	0.238700	0.222800
H1741	H174	0.799500	0.222300	0.259400
H1751	H175	0.438000	0.135500	0.907000
H1761	H176	0.865500	0.676800	0.372400
H1771	H177	0.523800	0.935900	0.200000
H1781	H178	0.493100	0.304400	0.627600
H1791	H179	0.134800	0.785100	0.225000
H1801	H180	0.316700	0.547700	0.201200
H1811	H181	0.301100	0.286300	0.885200
H1821	H182	0.896600	0.153000	0.676800
H1831	H183	0.280200	0.903700	0.276200
H1841	H184	0.818300	0.804400	0.223800
H1851	H185	0.399700	0.240700	0.307000
H1861	H186	0.719800	0.096300	0.723800
H1871	H187	0.153000	0.780200	0.676800
H1881	H188	0.346500	0.683300	0.798800
H1891	H189	0.421200	0.236300	0.199000
H1901	H190	0.115500	0.346500	0.798800
H1911	H191	0.920300	0.257600	0.356000
H1921	H192	0.804400	0.405500	0.223800
H1931	H193	0.515500	0.674000	0.260800
H1941	H194	0.092700	0.933700	0.693000
H1951	H195	0.745300	0.922700	0.449600
H1961	H196	0.785100	0.090200	0.225000
H1971	H197	0.615400	0.702500	0.883600
H1981	H198	0.014800	0.239900	0.480600
H1991	H199	0.426000	0.453000	0.627000
H2001	H200	0.761300	0.512900	0.777200
H2011	H201	0.487100	0.984100	0.222800
H2021	H202	0.988600	0.313400	0.425400
H2031	H203	0.037100	0.799500	0.259400
H2041	H204	0.784400	0.031100	0.209000
H2051	H205	0.195600	0.594500	0.776200
H2061	H206	0.560100	0.865200	0.775000
H2071	H207	0.864500	0.531000	0.093000
H2081	H208	0.627500	0.719800	0.723800
H2091	H209	0.676800	0.506900	0.372400
H2101	H210	0.053000	0.813100	0.584600
H2111	H211	0.745300	0.586800	0.260800
H2121	H212	0.134500	0.323200	0.627600
H2131	H213	0.238700	0.487100	0.222800
H2141	H214	0.476200	0.103400	0.323200
H2151	H215	0.777800	0.962700	0.199000
H2161	H216	0.037300	0.578800	0.801000
C11	C1	0.028150	0.599980	0.760960
C21	C2	0.239000	0.244920	0.826700
C31	C3	0.772590	0.597020	0.290680
C41	C4	0.256950	0.560760	0.111540
C51	C5	0.410730	0.463080	0.642440
C61	C6	0.348160	0.760100	0.816320
C71	C7	0.113250	0.819960	0.667100
C81	C8	0.607900	0.700330	0.773800
C91	C9	0.142210	0.809900	0.255600
C101	C10	0.609640	0.339860	0.166460
C111	C11	0.506300	0.919230	0.778600
C121	C12	0.595720	0.599180	0.805440
C131	C13	0.526120	0.958280	0.754240
C141	C14	0.479270	0.080770	0.247940
C151	C15	0.719740	0.740360	0.130040
C161	C16	0.787610	0.538260	0.583120
C171	C17	0.760100	0.468160	0.816320
C181	C18	0.195490	0.364570	0.687080
C191	C19	0.955000	0.596100	0.717000
C201	C20	0.473100	0.249130	0.621420
C211	C21	0.394270	0.355910	0.173340
C221	C22	0.349330	0.486850	0.642860
C231	C23	0.389900	0.263800	0.267200
C241	C24	0.173400	0.390360	0.833540
C251	C25	0.187390	0.507580	0.200960
C261	C26	0.712170	0.433710	0.896920
C271	C27	0.623980	0.309410	0.175940
C281	C28	0.492420	0.986430	0.799040
C291	C29	0.299670	0.834100	0.226200
C301	C30	0.597020	0.518090	0.290680
C311	C31	0.556820	0.826600	0.166460
C321	C32	0.796590	0.657800	0.288020
C331	C33	0.021120	0.711510	0.576040
C341	C34	0.610320	0.280260	0.869960
C351	C35	0.213050	0.489450	0.222900
C361	C36	0.536330	0.883600	0.726860
C371	C37	0.245270	0.463090	0.457380
C381	C38	0.690590	0.448040	0.824060
C391	C39	0.973270	0.578470	0.769740
C401	C40	0.400820	0.790280	0.194560
C411	C41	0.280260	0.259640	0.869960
C421	C42	0.197370	0.608020	0.869120
C431	C43	0.160980	0.028150	0.760960
C441	C44	0.922930	0.680910	0.453860
C451	C45	0.554920	0.864530	0.576040
C461	C46	0.005710	0.754730	0.542620
C471	C47	0.392100	0.299670	0.226200
C481	C48	0.056220	0.348160	0.816320
C491	C49	0.548990	0.836910	0.620380
C501	C50	0.539270	0.819470	0.535340
C511	C51	0.328250	0.738900	0.130880
C521	C52	0.748230	0.530360	0.287940
C531	C53	0.204490	0.955140	0.416880
C541	C54	0.177310	0.844570	0.281140
C551	C55	0.815250	0.536790	0.103080
C561	C56	0.493700	0.080770	0.221400
C571	C57	0.536790	0.287830	0.103080
C581	C58	0.595430	0.267990	0.148580
C591	C59	0.896170	0.563430	0.718860
C601	C60	0.463670	0.116400	0.273140
C611	C61	0.939300	0.254590	0.382000
C621	C62	0.575220	0.786670	0.065440
C631	C63	0.268630	0.572780	0.802140
C641	C64	0.919230	0.272300	0.778600
C651	C65	0.199820	0.434410	0.871740
C661	C66	0.003930	0.284130	0.464660
C671	C67	0.466490	0.770640	0.197860
C681	C68	0.152860	0.886750	0.332900
C691	C69	0.489450	0.009850	0.222900
C701	C70	0.167170	0.479270	0.247940
C711	C71	0.460730	0.180530	0.464660
C721	C72	0.290580	0.235370	0.890240
C731	C73	0.928610	0.216530	0.379620
C741	C74	0.216530	0.451010	0.379620
C751	C75	0.116400	0.809470	0.273140
C761	C76	0.020120	0.345800	0.816600
C771	C77	0.762000	0.120900	0.717000
C781	C78	0.779070	0.817430	0.173340
C791	C79	0.576350	0.792230	0.732300
C801	C80	0.732810	0.160980	0.760960
C811	C81	0.046930	0.691700	0.198800
C821	C82	0.978880	0.288490	0.423960
C831	C83	0.077070	0.319090	0.546140
C841	C84	0.893890	0.397280	0.195740
C851	C85	0.180040	0.446150	0.332900
C861	C86	0.507580	0.013570	0.200960
C871	C87	0.263800	0.877300	0.267200
C881	C88	0.768670	0.167170	0.247940
C891	C89	0.721230	0.424780	0.934560
C901	C90	0.212390	0.461740	0.416880
C911	C91	0.563430	0.822690	0.718860
C921	C92	0.439240	0.145410	0.888460
C931	C93	0.206260	0.595720	0.805440
C941	C94	0.434410	0.671920	0.871740
C951	C95	0.727700	0.140630	0.221400
C961	C96	0.460290	0.242420	0.712060
C971	C97	0.080770	0.727700	0.221400
C981	C98	0.771880	0.204040	0.245760
C991	C99	0.439300	0.183160	0.322200
C1001	C100	0.155430	0.896170	0.718860
C1011	C101	0.530930	0.772950	0.453860
C1021	C102	0.153160	0.809730	0.688920
C1031	C103	0.602720	0.698150	0.804260
C1041	C104	0.596730	0.683940	0.933480
C1051	C105	0.364570	0.491590	0.687080
C1061	C106	0.671920	0.437330	0.871740
C1071	C107	0.832830	0.520730	0.752060
C1081	C108	0.879100	0.045000	0.283000
C1091	C109	0.249540	0.596730	0.933480
C1101	C110	0.790280	0.793740	0.194560
C1111	C111	0.179360	0.410730	0.642440
C1121	C112	0.860960	0.560700	0.677800
C1131	C113	0.242420	0.251770	0.712060
C1141	C114	0.267190	0.839020	0.239040
C1151	C115	0.227410	0.402980	0.709320
C1161	C116	0.693660	0.772590	0.290680
C1171	C117	0.436570	0.177310	0.281140
C1181	C118	0.844050	0.059930	0.267700
C1191	C119	0.122700	0.996600	0.732800
C1201	C120	0.562670	0.800180	0.128260
C1211	C121	0.190530	0.843260	0.726860
C1221	C122	0.882900	0.139040	0.322200
C1231	C123	0.630220	0.796590	0.288020
C1241	C124	0.536920	0.768290	0.357560
C1251	C125	0.468160	0.056220	0.816320
C1261	C126	0.847140	0.113250	0.667100
C1271	C127	0.463210	0.712170	0.896920
C1281	C128	0.578470	0.796470	0.769740
C1291	C129	0.883600	0.190530	0.726860
C1301	C130	0.780940	0.574080	0.312360
C1311	C131	0.490220	0.278770	0.065440
C1321	C132	0.810170	0.640500	0.194780
C1331	C133	0.510550	0.990150	0.777100
C1341	C134	0.757580	0.748230	0.287940
C1351	C135	0.537310	0.810980	0.491620
C1361	C136	0.414530	0.236860	0.220660
C1371	C137	0.816840	0.117100	0.677800
C1381	C138	0.201540	0.106110	0.804260
C1391	C139	0.359500	0.615390	0.805220
C1401	C140	0.919230	0.231330	0.752060
C1411	C141	0.443180	0.173400	0.833540
C1421	C142	0.376020	0.690590	0.824060
C1431	C143	0.851680	0.627710	0.378580
C1441	C144	0.425920	0.468580	0.687640
C1451	C145	0.509780	0.721230	0.934560
C1461	C146	0.140630	0.493700	0.221400
C1471	C147	0.877300	0.003400	0.267200
C1481	C148	0.445080	0.135470	0.423960
C1491	C149	0.608020	0.671750	0.869120
C1501	C150	0.822690	0.155430	0.718860
C1511	C151	0.706470	0.843990	0.357140
C1521	C152	0.469070	0.227050	0.546140
C1531	C153	0.272300	0.859370	0.778600
C1541	C154	0.507100	0.046930	0.198800
C1551	C155	0.809900	0.113390	0.255600
C1561	C156	0.155950	0.940070	0.732300
C1571	C157	0.231330	0.832830	0.752060
C1581	C158	0.872590	0.060700	0.618000
C1591	C159	0.886750	0.180040	0.332900
C1601	C160	0.470800	0.020120	0.816600
C1611	C161	0.560700	0.816840	0.677800
C1621	C162	0.204040	0.473880	0.245760
C1631	C163	0.080770	0.768670	0.247940
C1641	C164	0.342200	0.508570	0.711980
C1651	C165	0.213330	0.509780	0.934560
C1661	C166	0.148320	0.372290	0.621420
C1671	C167	0.654870	0.290580	0.890240
C1681	C168	0.792230	0.155950	0.732300
C1691	C169	0.538260	0.795510	0.583120
C1701	C170	0.819470	0.996070	0.535340
C1711	C171	0.442700	0.127410	0.382000
C1721	C172	0.207770	0.844050	0.267700
C1731	C173	0.473880	0.041720	0.245760
C1741	C174	0.553150	0.880590	0.148580
C1751	C175	0.391980	0.328250	0.130880
C1761	C176	0.680910	0.530930	0.453860
C1771	C177	0.926530	0.392100	0.226200
C1781	C178	0.227050	0.077070	0.546140
C1791	C179	0.261720	0.219060	0.687640
C1801	C180	0.581780	0.239000	0.826700
C1811	C181	0.249130	0.148320	0.621420
C1821	C182	0.390360	0.660140	0.833540
C1831	C183	0.793740	0.404280	0.194560
C1841	C184	0.461740	0.204490	0.416880
C1851	C185	0.786670	0.490220	0.065440
C1861	C186	0.605730	0.644090	0.826660
C1871	C187	0.610100	0.736200	0.732800
C1881	C188	0.986430	0.306620	0.799040
C1891	C189	0.640500	0.384610	0.194780
C1901	C190	0.836910	0.071390	0.620380
C1911	C191	0.403270	0.316060	0.066520
C1921	C192	0.238000	0.879100	0.283000
C1931	C193	0.339860	0.556820	0.166460
C1941	C194	0.800180	0.565590	0.128260
C1951	C195	0.979880	0.654200	0.183400
C1961	C196	0.151870	0.507100	0.198800
C1971	C197	0.615390	0.445720	0.805220
C1981	C198	0.212110	0.994290	0.457380
C1991	C199	0.421530	0.203530	0.230260
C2001	C200	0.996600	0.610100	0.732800
C2011	C201	0.650670	0.513150	0.357140
C2021	C202	0.535760	0.879190	0.688920
C2031	C203	0.308300	0.848130	0.801200
C2041	C204	0.808730	0.026730	0.230260
C2051	C205	0.663250	0.750460	0.066520
C2061	C206	0.848130	0.492900	0.801200
C2071	C207	0.857790	0.190100	0.744400
C2081	C208	0.530360	0.539710	0.287940
C2091	C209	0.518090	0.693660	0.290680
C2101	C210	0.683940	0.336750	0.933480
C2111	C211	0.328080	0.562670	0.128260
C2121	C212	0.657800	0.491430	0.288020
C2131	C213	0.754730	0.536910	0.542620
C2141	C214	0.879190	0.153160	0.688920
C2151	C215	0.026730	0.421530	0.230260
C2161	C216	0.795510	0.044860	0.583120
C2171	C217	0.041720	0.771880	0.245760
C2181	C218	0.859370	0.506300	0.778600
C2191	C219	0.783470	0.548990	0.620380
C2201	C220	0.244920	0.587700	0.826700
C2211	C221	0.433710	0.184750	0.896920
C2221	C222	0.834100	0.926530	0.226200
C2231	C223	0.698150	0.201540	0.804260
C2241	C224	0.229360	0.268630	0.802140
C2251	C225	0.219060	0.425920	0.687640
C2261	C226	0.755080	0.412300	0.173300
C2271	C227	0.402980	0.481910	0.709320
C2281	C228	0.599180	0.209720	0.805440
C2291	C229	0.817430	0.394270	0.173340
C2301	C230	0.183160	0.882900	0.322200
C2311	C231	0.235370	0.599660	0.890240
C2321	C232	0.533510	0.229360	0.802140
C2331	C233	0.113390	0.445700	0.255600
C2341	C234	0.943780	0.651840	0.183680
C2351	C235	0.009850	0.733450	0.222900
C2361	C236	0.654200	0.203520	0.183400
C2371	C237	0.599660	0.654870	0.890240
C2381	C238	0.445700	0.142210	0.255600
C2391	C239	0.355910	0.779070	0.173340
C2401	C240	0.804510	0.635430	0.312920
C2411	C241	0.239900	0.531840	0.183680
C2421	C242	0.106110	0.602720	0.804260
C2431	C243	0.844570	0.103830	0.281140
C2441	C244	0.403900	0.238000	0.283000
C2451	C245	0.560760	0.854590	0.111540
C2461	C246	0.955140	0.212390	0.416880
C2471	C247	0.954310	0.680640	0.491620
C2481	C248	0.486850	0.293530	0.642860
C2491	C249	0.193870	0.016200	0.779340
C2501	C250	0.508570	0.369780	0.711980
C2511	C251	0.412300	0.418220	0.173300
C2521	C252	0.574080	0.531420	0.312360
C2531	C253	0.045690	0.319360	0.508380
C2541	C254	0.251770	0.469640	0.712060
C2551	C255	0.802630	0.391980	0.130880
C2561	C256	0.810980	0.954310	0.491620
C2571	C257	0.798460	0.893890	0.195740
C2581	C258	0.464240	0.120810	0.311080
C2591	C259	0.309410	0.551960	0.175940
C2601	C260	0.003400	0.389900	0.267200
C2611	C261	0.306620	0.812610	0.799040
C2621	C262	0.953070	0.308300	0.801200
C2631	C263	0.267990	0.553150	0.148580
C2641	C264	0.796470	0.191270	0.769740
C2651	C265	0.103830	0.436570	0.281140
C2661	C266	0.539710	0.757580	0.287940
C2671	C267	0.071390	0.783470	0.620380
C2681	C268	0.424780	0.213330	0.934560
C2691	C269	0.671750	0.261100	0.869120
C2701	C270	0.345130	0.709420	0.109760
C2711	C271	0.761000	0.755080	0.173300
C2721	C272	0.738280	0.780940	0.312360
C2731	C273	0.306340	0.227410	0.709320
C2741	C274	0.680640	0.537310	0.491620
C2751	C275	0.599980	0.732810	0.760960
C2761	C276	0.469640	0.460290	0.712060
C2771	C277	0.287830	0.566290	0.103080
C2781	C278	0.770640	0.731370	0.197860
C2791	C279	0.319090	0.469070	0.546140
C2801	C280	0.372290	0.473100	0.621420
C2811	C281	0.284130	0.460730	0.464660
C2821	C282	0.700330	0.165900	0.773800
C2831	C283	0.156010	0.349330	0.642860
C2841	C284	0.261100	0.197370	0.869120
C2851	C285	0.553850	0.847140	0.667100
C2861	C286	0.013570	0.693380	0.200960
C2871	C287	0.462690	0.189020	0.508380
C2881	C288	0.404280	0.400820	0.194560
C2891	C289	0.120900	0.955000	0.717000
C2901	C290	0.715870	0.539270	0.535340
C2911	C291	0.446850	0.119410	0.851420
C2921	C292	0.184750	0.463210	0.896920
C2931	C293	0.259640	0.589700	0.869960
C2941	C294	0.940070	0.576350	0.732300
C2951	C295	0.526900	0.750870	0.378580
C2961	C296	0.492900	0.953070	0.801200
C2971	C297	0.820640	0.589270	0.357560
C2981	C298	0.854590	0.550780	0.111540
C2991	C299	0.651840	0.239900	0.183680
C3001	C300	0.585470	0.763140	0.779340
C3011	C301	0.236860	0.806130	0.220660
C3021	C302	0.189830	0.359500	0.805220
C3031	C303	0.145410	0.449220	0.888460
C3041	C304	0.135470	0.978880	0.423960
C3051	C305	0.231710	0.179360	0.642440
C3061	C306	0.389680	0.719740	0.130040
C3071	C307	0.843990	0.650670	0.357140
C3081	C308	0.016200	0.585470	0.779340
C3091	C309	0.796480	0.470800	0.816600
C3101	C310	0.463090	0.212110	0.457380
C3111	C311	0.772950	0.922930	0.453860
C3121	C312	0.044860	0.787610	0.583120
C3131	C313	0.189020	0.045690	0.508380
C3141	C314	0.278770	0.575220	0.065440
C3151	C315	0.468580	0.261720	0.687640
C3161	C316	0.203530	0.808730	0.230260
C3171	C317	0.400020	0.267190	0.239040
C3181	C318	0.866530	0.623980	0.175940
C3191	C319	0.345800	0.796480	0.816600
C3201	C320	0.768290	0.820640	0.357560
C3211	C321	0.508410	0.677490	0.312920
C3221	C322	0.971850	0.400020	0.239040
C3231	C323	0.423650	0.207770	0.267700
C3241	C324	0.319360	0.462690	0.508380
C3251	C325	0.410300	0.389680	0.130040
C3261	C326	0.120810	0.846840	0.311080
C3271	C327	0.880590	0.595430	0.148580
C3281	C328	0.677490	0.804510	0.312920
C3291	C329	0.446150	0.152860	0.332900
C3301	C330	0.886610	0.554300	0.744400
C3311	C331	0.740360	0.410300	0.130040
C3321	C332	0.190270	0.464240	0.311080
C3331	C333	0.809470	0.156740	0.273140
C3341	C334	0.133470	0.376020	0.824060
C3351	C335	0.119410	0.404570	0.851420
C3361	C336	0.491590	0.322510	0.687080
C3371	C337	0.660140	0.443180	0.833540
C3381	C338	0.743050	0.439240	0.888460
C3391	C339	0.418220	0.761000	0.173300
C3401	C340	0.209720	0.206260	0.805440
C3411	C341	0.572780	0.533510	0.802140
C3421	C342	0.750460	0.403270	0.066520
C3431	C343	0.843260	0.536330	0.726860
C3441	C344	0.190100	0.886610	0.744400
C3451	C345	0.536910	0.787890	0.542620
C3461	C346	0.732010	0.446850	0.851420
C3471	C347	0.711510	0.554920	0.576040
C3481	C348	0.316060	0.663250	0.066520
C3491	C349	0.764630	0.400340	0.109760
C3501	C350	0.990150	0.266550	0.777100
C3511	C351	0.566290	0.815250	0.103080
C3521	C352	0.384610	0.554280	0.194780
C3531	C353	0.693380	0.187390	0.200960
C3541	C354	0.059930	0.423650	0.267700
C3551	C355	0.427220	0.466490	0.197860
C3561	C356	0.644090	0.220930	0.826660
C3571	C357	0.266550	0.786950	0.777100
C3581	C358	0.839020	0.971850	0.239040
C3591	C359	0.139040	0.439300	0.322200
C3601	C360	0.806130	0.983800	0.220660
C3611	C361	0.531840	0.943780	0.183680
C3621	C362	0.635430	0.508410	0.312920
C3631	C363	0.060700	0.745410	0.618000
C3641	C364	0.996070	0.715870	0.535340
C3651	C365	0.203520	0.529200	0.183400
C3661	C366	0.451010	0.163090	0.379620
C3671	C367	0.589700	0.610320	0.869960
C3681	C368	0.117100	0.860960	0.677800
C3691	C369	0.045000	0.403900	0.283000
C3701	C370	0.182570	0.605730	0.826660
C3711	C371	0.550780	0.256950	0.111540
C3721	C372	0.565590	0.328080	0.128260
C3731	C373	0.322510	0.195490	0.687080
C3741	C374	0.958280	0.228120	0.754240
C3751	C375	0.531420	0.738280	0.312360
C3761	C376	0.738900	0.802630	0.130880
C3771	C377	0.864530	0.021120	0.576040
C3781	C378	0.400340	0.345130	0.109760
C3791	C379	0.220930	0.182570	0.826660
C3801	C380	0.397280	0.301850	0.195740
C3811	C381	0.554280	0.810170	0.194780
C3821	C382	0.554300	0.857790	0.744400
C3831	C383	0.745410	0.557300	0.618000
C3841	C384	0.557300	0.872590	0.618000
C3851	C385	0.819960	0.553850	0.667100
C3861	C386	0.156740	0.463670	0.273140
C3871	C387	0.191270	0.973270	0.769740
C3881	C388	0.983800	0.414530	0.220660
C3891	C389	0.812610	0.492420	0.799040
C3901	C390	0.587700	0.581780	0.826700
C3911	C391	0.529200	0.979880	0.183400
C3921	C392	0.448040	0.133470	0.824060
C3931	C393	0.551960	0.866530	0.175940
C3941	C394	0.165900	0.073470	0.773800
C3951	C395	0.846840	0.190270	0.311080
C3961	C396	0.073470	0.607900	0.773800
C3971	C397	0.750870	0.851680	0.378580
C3981	C398	0.127410	0.939300	0.382000
C3991	C399	0.445720	0.189830	0.805220
C4001	C400	0.180530	0.003930	0.464660
C4011	C401	0.520730	0.919230	0.752060
C4021	C402	0.163090	0.928610	0.379620
C4031	C403	0.369780	0.203410	0.711980
C4041	C404	0.589270	0.536920	0.357560
C4051	C405	0.795960	0.526120	0.754240
C4061	C406	0.731370	0.427220	0.197860
C4071	C407	0.463080	0.231710	0.642440
C4081	C408	0.994290	0.245270	0.457380
C4091	C409	0.763140	0.193870	0.779340
C4101	C410	0.736200	0.122700	0.732800
C4111	C411	0.709420	0.764630	0.109760
C4121	C412	0.254590	0.442700	0.382000
C4131	C413	0.596100	0.762000	0.717000
C4141	C414	0.203410	0.342200	0.711980
C4151	C415	0.437330	0.199820	0.871740
C4161	C416	0.826600	0.609640	0.166460
C4171	C417	0.733450	0.213050	0.222900
C4181	C418	0.809730	0.535760	0.688920
C4191	C419	0.301850	0.798460	0.195740
C4201	C420	0.491430	0.630220	0.288020
C4211	C421	0.786950	0.510550	0.777100
C4221	C422	0.336750	0.249540	0.933480
C4231	C423	0.228120	0.795960	0.754240
C4241	C424	0.293530	0.156010	0.642860
C4251	C425	0.627710	0.526900	0.378580
C4261	C426	0.481910	0.306340	0.709320
C4271	C427	0.288490	0.445080	0.423960
C4281	C428	0.691700	0.151870	0.198800
C4291	C429	0.404570	0.732010	0.851420
C4301	C430	0.449220	0.743050	0.888460
C4311	C431	0.513150	0.706470	0.357140
C4321	C432	0.787890	0.005710	0.542620
N11	N1	0.823510	0.901480	0.442960
N21	N2	0.098520	0.380550	0.557040
N31	N3	0.661940	0.190620	0.801880
N41	N4	0.901480	0.619450	0.442960
N51	N5	0.237120	0.546660	0.159320
N61	N6	0.613230	0.181150	0.159860
N71	N7	0.077800	0.387340	0.840680
N81	N8	0.624120	0.668800	0.757440
N91	N9	0.219220	0.107690	0.576380
N101	N10	0.148010	0.129030	0.772320
N111	N11	0.442180	0.055900	0.853960
N121	N12	0.356710	0.851990	0.227680
N131	N13	0.055900	0.411780	0.853960
N141	N14	0.021290	0.386770	0.840140
N151	N15	0.643290	0.148010	0.772320
N161	N16	0.386770	0.818850	0.840140
N171	N17	0.411780	0.798060	0.853960
N181	N18	0.456680	0.158920	0.515960
N191	N19	0.978710	0.613230	0.159860
N201	N20	0.190620	0.139940	0.801880
N211	N21	0.798060	0.442180	0.853960
N221	N22	0.059280	0.357040	0.515960
N231	N23	0.129030	0.624310	0.772320
N241	N24	0.133320	0.088640	0.757440
N251	N25	0.944100	0.588220	0.146040
N261	N26	0.543320	0.841080	0.484040
N271	N27	0.780780	0.892310	0.423620
N281	N28	0.458520	0.176490	0.557040
N291	N29	0.624310	0.643290	0.772320
N301	N30	0.375880	0.331200	0.242560
N311	N31	0.940720	0.642960	0.484040
N321	N32	0.453340	0.077800	0.840680
N331	N33	0.922200	0.612660	0.159320
N341	N34	0.911360	0.375880	0.242560
N351	N35	0.158920	0.059280	0.515960
N361	N36	0.546660	0.922200	0.159320
N371	N37	0.588220	0.201940	0.146040
N381	N38	0.387340	0.762880	0.840680
N391	N39	0.541480	0.823510	0.442960
N401	N40	0.612660	0.237120	0.159320
N411	N41	0.088640	0.624120	0.757440
N421	N42	0.357160	0.468690	0.576380
N431	N43	0.331200	0.866680	0.242560
N441	N44	0.762880	0.453340	0.840680
N451	N45	0.338060	0.809380	0.198120
N461	N46	0.181150	0.546630	0.159860
N471	N47	0.176490	0.098520	0.557040
N481	N48	0.860060	0.388740	0.198120
N491	N49	0.468690	0.219220	0.576380
N501	N50	0.357040	0.456680	0.515960
N511	N51	0.611260	0.661940	0.801880
N521	N52	0.809380	0.860060	0.198120
N531	N53	0.107690	0.357160	0.576380
N541	N54	0.546630	0.978710	0.159860
N551	N55	0.380550	0.458520	0.557040
N561	N56	0.851990	0.870970	0.227680
N571	N57	0.642840	0.531310	0.423620
N581	N58	0.892310	0.642840	0.423620
N591	N59	0.557820	0.944100	0.146040
N601	N60	0.866680	0.911360	0.242560
N611	N61	0.870970	0.375690	0.227680
N621	N62	0.201940	0.557820	0.146040
N631	N63	0.453370	0.021290	0.840140
N641	N64	0.139940	0.611260	0.801880
N651	N65	0.841080	0.940720	0.484040
N661	N66	0.388740	0.338060	0.198120
N671	N67	0.531310	0.780780	0.423620
N681	N68	0.375690	0.356710	0.227680
N691	N69	0.818850	0.453370	0.840140
N701	N70	0.668800	0.133320	0.757440
N711	N71	0.642960	0.543320	0.484040
N721	N72	0.619450	0.541480	0.442960
O11	O1	0.586020	0.667320	0.949920
O21	O2	0.372230	0.591580	0.821700
O31	O3	0.480680	0.741620	0.177080
O41	O4	0.605240	0.445920	0.768000
O51	O5	0.696400	0.435460	0.177080
O61	O6	0.363900	0.282600	0.949920
O71	O7	0.311540	0.523360	0.695020
O81	O8	0.408420	0.550530	0.178300
O91	O9	0.286440	0.480760	0.752560
O101	O10	0.480760	0.466120	0.752560
O111	O11	0.656300	0.775120	0.050720
O121	O12	0.282600	0.586020	0.949920
O131	O13	0.354300	0.507230	0.748840
O141	O14	0.343700	0.224880	0.949280
O151	O15	0.645700	0.492770	0.251160
O161	O16	0.224880	0.605580	0.949280
O171	O17	0.275600	0.656300	0.050720
O181	O18	0.550530	0.769880	0.178300
O191	O19	0.551780	0.798080	0.309220
O201	O20	0.394760	0.554080	0.232000
O211	O21	0.769880	0.627770	0.178300
O221	O22	0.481850	0.303430	0.050560
O231	O23	0.741620	0.696400	0.177080
O241	O24	0.564540	0.519320	0.822920
O251	O25	0.587100	0.805050	0.049460
O261	O26	0.435460	0.480680	0.177080
O271	O27	0.724400	0.343700	0.949280
O281	O28	0.394540	0.241610	0.748840
O291	O29	0.717400	0.413980	0.050080
O301	O30	0.533880	0.728200	0.247440
O311	O31	0.449470	0.230120	0.821700
O321	O32	0.394420	0.275600	0.050720
O331	O33	0.537640	0.755590	0.950540
O341	O34	0.807700	0.748050	0.238240
O351	O35	0.616520	0.828340	0.304980
O361	O36	0.569460	0.509810	0.761760
O371	O37	0.431290	0.252870	0.949440
O381	O38	0.605580	0.724400	0.949280
O391	O39	0.244410	0.587100	0.049460
O401	O40	0.775120	0.394420	0.050720
O411	O41	0.636100	0.717400	0.050080
O421	O42	0.523360	0.383480	0.695020
O431	O43	0.412900	0.194950	0.950540
O441	O44	0.667320	0.363900	0.949920
O451	O45	0.241610	0.354300	0.748840
O461	O46	0.755590	0.412900	0.950540
O471	O47	0.568710	0.747130	0.050560
O481	O48	0.303430	0.568710	0.050560
O491	O49	0.805050	0.462360	0.049460
O501	O50	0.230120	0.372230	0.821700
O511	O51	0.466120	0.271800	0.752560
O521	O52	0.251950	0.569460	0.761760
O531	O53	0.627770	0.408420	0.178300
O541	O54	0.696570	0.431290	0.949440
O551	O55	0.322080	0.605240	0.768000
O561	O56	0.591580	0.449470	0.821700
O571	O57	0.462360	0.244410	0.049460
O581	O58	0.192300	0.251950	0.761760
O591	O59	0.448220	0.201920	0.690780
O601	O60	0.258380	0.303600	0.822920
O611	O61	0.605460	0.758390	0.251160
O621	O62	0.303600	0.564540	0.822920
O631	O63	0.509810	0.192300	0.761760
O641	O64	0.252870	0.518150	0.949440
O651	O65	0.332680	0.636100	0.050080
O661	O66	0.171660	0.311540	0.695020
O671	O67	0.837240	0.677920	0.232000
O681	O68	0.758390	0.645700	0.251160
O691	O69	0.554080	0.837240	0.232000
O701	O70	0.242560	0.488860	0.690780
O711	O71	0.518150	0.696570	0.949440
O721	O72	0.430540	0.490190	0.238240
O731	O73	0.445920	0.162760	0.768000
O741	O74	0.757440	0.511140	0.309220
O751	O75	0.492770	0.605460	0.251160
O761	O76	0.383480	0.171660	0.695020
O771	O77	0.476640	0.616520	0.304980
O781	O78	0.677920	0.394760	0.232000
O791	O79	0.194950	0.537640	0.950540
O801	O80	0.798080	0.757440	0.309220
O811	O81	0.413980	0.332680	0.050080
O821	O82	0.162760	0.322080	0.768000
O831	O83	0.728200	0.713560	0.247440
O841	O84	0.519240	0.533880	0.247440
O851	O85	0.507230	0.394540	0.748840
O861	O86	0.747130	0.481850	0.050560
O871	O87	0.490190	0.807700	0.238240
O881	O88	0.519320	0.258380	0.822920
O891	O89	0.748050	0.430540	0.238240
O901	O90	0.511140	0.551780	0.309220
O911	O91	0.271800	0.286440	0.752560
O921	O92	0.688460	0.476640	0.304980
O931	O93	0.713560	0.519240	0.247440
O941	O94	0.488860	0.448220	0.690780
O951	O95	0.201920	0.242560	0.690780
O961	O96	0.828340	0.688460	0.304980
