data_PODVUB_clean_PM
_symmetry_space_group_name_H-M	'P1'
_cell_length_a	9.914900
_cell_length_b	18.608000
_cell_length_c	19.979000
_cell_angle_alpha	93.926000
_cell_angle_beta	90.000000
_cell_angle_gamma	90.000000
_symmetry_Int_Tables_number 1

loop_
_symmetry_equiv_pos_as_xyz
'x,y,z'

loop_
_atom_site_label
_atom_site_type_symbol
_atom_site_fract_x
_atom_site_fract_y
_atom_site_fract_z
U11	U1	0.031960	0.185820	0.708080
U21	U2	0.531960	0.814180	0.791920
U31	U3	0.868730	0.190340	0.256640
U41	U4	0.968040	0.814180	0.291920
U51	U5	0.368730	0.809660	0.243360
U61	U6	0.131270	0.809660	0.743360
U71	U7	0.468040	0.185820	0.208080
U81	U8	0.631270	0.190340	0.756640
Cu11	Cu1	0.871850	0.126670	0.982710
Cu21	Cu2	0.628150	0.126670	0.482710
Cu31	Cu3	0.371850	0.873330	0.517290
Cu41	Cu4	0.128150	0.873330	0.017290
P11	P1	0.403900	0.794160	0.958970
P21	P2	0.372500	0.189160	0.626310
P31	P3	0.797200	0.771980	0.658450
P41	P4	0.096100	0.794160	0.458970
P51	P5	0.167000	0.763370	0.127210
P61	P6	0.833000	0.236630	0.872790
P71	P7	0.202800	0.228020	0.341550
P81	P8	0.627500	0.810840	0.373690
P91	P9	0.127500	0.189160	0.126310
P101	P10	0.903900	0.205840	0.541030
P111	P11	0.702800	0.771980	0.158450
P121	P12	0.872500	0.810840	0.873690
P131	P13	0.333000	0.763370	0.627210
P141	P14	0.596100	0.205840	0.041030
P151	P15	0.667000	0.236630	0.372790
P161	P16	0.297200	0.228020	0.841550
H11	H1	0.647500	0.528500	0.622900
H21	H2	0.089600	0.413800	0.020100
H31	H3	0.260100	0.925900	0.881700
H41	H4	0.310300	0.305200	0.715600
H51	H5	0.543800	0.547900	0.950100
H61	H6	0.783900	0.294100	0.116700
H71	H7	0.076600	0.113500	0.860000
H81	H8	0.277000	0.025600	0.317700
H91	H9	0.078700	0.290200	0.021700
H101	H10	0.456200	0.452100	0.049900
H111	H11	0.410400	0.413800	0.520100
H121	H12	0.868700	0.342700	0.777700
H131	H13	0.452500	0.552700	0.119600
H141	H14	0.171500	0.525700	0.018100
H151	H15	0.879400	0.650000	0.145700
H161	H16	0.198300	0.427600	0.213500
H171	H17	0.760100	0.074100	0.618300
H181	H18	0.379300	0.532200	0.718400
H191	H19	0.195100	0.585800	0.852000
H201	H20	0.325700	0.649800	0.521500
H211	H21	0.825700	0.350200	0.978500
H221	H22	0.578700	0.709800	0.478300
H231	H23	0.978100	0.324600	0.365100
H241	H24	0.801700	0.572400	0.786500
H251	H25	0.174300	0.649800	0.021500
H261	H26	0.379400	0.350000	0.354300
H271	H27	0.810300	0.694800	0.784400
H281	H28	0.043800	0.452100	0.549900
H291	H29	0.956200	0.547900	0.450100
H301	H30	0.120600	0.350000	0.854300
H311	H31	0.879300	0.467800	0.781600
H321	H32	0.952500	0.447300	0.380400
H331	H33	0.923400	0.886500	0.140000
H341	H34	0.301700	0.427600	0.713500
H351	H35	0.723000	0.974400	0.682300
H361	H36	0.423400	0.113500	0.360000
H371	H37	0.921300	0.709800	0.978300
H381	H38	0.216100	0.705900	0.883300
H391	H39	0.478100	0.675400	0.134900
H401	H40	0.368700	0.657300	0.722300
H411	H41	0.283900	0.705900	0.383300
H421	H42	0.047500	0.552700	0.619600
H431	H43	0.716100	0.294100	0.616700
H441	H44	0.620600	0.650000	0.645700
H451	H45	0.120700	0.532200	0.218400
H461	H46	0.328500	0.525700	0.518100
H471	H47	0.189700	0.305200	0.215600
H481	H48	0.239900	0.925900	0.381700
H491	H49	0.021900	0.675400	0.634900
H501	H50	0.804900	0.414200	0.148000
H511	H51	0.421300	0.290200	0.521700
H521	H52	0.620700	0.467800	0.281600
H531	H53	0.852500	0.528500	0.122900
H541	H54	0.689700	0.694800	0.284400
H551	H55	0.739900	0.074100	0.118300
H561	H56	0.147500	0.471500	0.877100
H571	H57	0.777000	0.974400	0.182300
H581	H58	0.671500	0.474300	0.481900
H591	H59	0.061800	0.332200	0.522400
H601	H60	0.547500	0.447300	0.880400
H611	H61	0.910400	0.586200	0.979900
H621	H62	0.304900	0.585800	0.352000
H631	H63	0.589600	0.586200	0.479900
H641	H64	0.131300	0.657300	0.222300
H651	H65	0.674300	0.350200	0.478500
H661	H66	0.521900	0.324600	0.865100
H671	H67	0.352500	0.471500	0.377100
H681	H68	0.695100	0.414200	0.648000
H691	H69	0.576600	0.886500	0.640000
H701	H70	0.631300	0.342700	0.277700
H711	H71	0.438200	0.332200	0.022400
H721	H72	0.828500	0.474300	0.981900
H731	H73	0.223000	0.025600	0.817700
H741	H74	0.561800	0.667800	0.977600
H751	H75	0.938200	0.667800	0.477600
H761	H76	0.698300	0.572400	0.286500
C11	C1	0.723400	0.557800	0.626500
C21	C2	0.349200	0.473100	0.881700
C31	C3	0.151900	0.666500	0.123200
C41	C4	0.173800	0.400000	0.174900
C51	C5	0.397600	0.317800	0.560500
C61	C6	0.335300	0.626500	0.560900
C71	C7	0.513000	0.349000	0.046800
C81	C8	0.538500	0.994600	0.530200
C91	C9	0.633300	0.444500	0.320900
C101	C10	0.197600	0.961000	0.895900
C111	C11	0.389700	0.701100	0.935500
C121	C12	0.553400	0.645600	0.134500
C131	C13	0.133300	0.555500	0.179100
C141	C14	0.461400	0.427700	0.876400
C151	C15	0.961500	0.994600	0.030200
C161	C16	0.862100	0.369100	0.818800
C171	C17	0.776600	0.557800	0.126500
C181	C18	0.022300	0.579200	0.436500
C191	C19	0.869000	0.715900	0.881600
C201	C20	0.087700	0.071900	0.882700
C211	C21	0.848100	0.333500	0.876800
C221	C22	0.697600	0.039000	0.604100
C231	C23	0.673800	0.600000	0.325100
C241	C24	0.182000	0.324700	0.355000
C251	C25	0.793300	0.630800	0.140000
C261	C26	0.356500	0.434100	0.617400
C271	C27	0.650800	0.526900	0.118300
C281	C28	0.362100	0.630900	0.681200
C291	C29	0.366700	0.555500	0.679100
C301	C30	0.849200	0.526900	0.618300
C311	C31	0.461500	0.005400	0.469800
C321	C32	0.487000	0.651000	0.953200
C331	C33	0.326200	0.400000	0.674900
C341	C34	0.835300	0.373500	0.939100
C351	C35	0.891300	0.608100	0.940500
C361	C36	0.477700	0.579200	0.936500
C371	C37	0.668500	0.673200	0.323600
C381	C38	0.587700	0.928100	0.617300
C391	C39	0.331500	0.326800	0.676400
C401	C40	0.131000	0.284100	0.118400
C411	C41	0.446600	0.354400	0.865500
C421	C42	0.281400	0.674000	0.896800
C431	C43	0.602400	0.682200	0.439500
C441	C44	0.164700	0.626500	0.060900
C451	C45	0.352100	0.515300	0.617500
C461	C46	0.150800	0.473100	0.381700
C471	C47	0.147900	0.515300	0.117500
C481	C48	0.223400	0.442200	0.873500
C491	C49	0.365900	0.552600	0.898100
C501	C50	0.177500	0.020900	0.857800
C511	C51	0.634100	0.447400	0.101900
C521	C52	0.608700	0.608100	0.440500
C531	C53	0.038500	0.005400	0.969800
C541	C54	0.218600	0.674000	0.396800
C551	C55	0.322500	0.020900	0.357800
C561	C56	0.206700	0.369200	0.860000
C571	C57	0.102400	0.317800	0.060500
C581	C58	0.143500	0.434100	0.117400
C591	C59	0.631000	0.715900	0.381600
C601	C60	0.987000	0.349000	0.546800
C611	C61	0.664700	0.373500	0.439100
C621	C62	0.946600	0.645600	0.634500
C631	C63	0.162700	0.552000	0.059100
C641	C64	0.293300	0.369200	0.360000
C651	C65	0.865900	0.447400	0.601900
C661	C66	0.822500	0.979100	0.142200
C671	C67	0.231800	0.602000	0.378000
C681	C68	0.889700	0.298900	0.564500
C691	C69	0.682000	0.675300	0.145000
C701	C70	0.412300	0.071900	0.382700
C711	C71	0.637900	0.369100	0.318800
C721	C72	0.110300	0.701100	0.435500
C731	C73	0.837300	0.448000	0.940900
C741	C74	0.337300	0.552000	0.559100
C751	C75	0.391300	0.391900	0.559500
C761	C76	0.348100	0.666500	0.623200
C771	C77	0.538600	0.572300	0.123600
C781	C78	0.961400	0.572300	0.623600
C791	C79	0.647900	0.484700	0.382500
C801	C80	0.369000	0.284100	0.618400
C811	C81	0.053400	0.354400	0.365500
C821	C82	0.134100	0.552600	0.398100
C831	C83	0.852100	0.484700	0.882500
C841	C84	0.108700	0.391900	0.059500
C851	C85	0.302400	0.961000	0.395900
C861	C86	0.781400	0.326000	0.603200
C871	C87	0.038600	0.427700	0.376400
C881	C88	0.643500	0.565900	0.382600
C891	C89	0.662700	0.448000	0.440900
C901	C90	0.168500	0.326800	0.176400
C911	C91	0.276600	0.442200	0.373500
C921	C92	0.677500	0.979100	0.642200
C931	C93	0.651900	0.333500	0.376800
C941	C94	0.268200	0.602000	0.878000
C951	C95	0.013000	0.651000	0.453200
C961	C96	0.818000	0.675300	0.645000
C971	C97	0.731800	0.398000	0.122000
C981	C98	0.318000	0.324700	0.855000
C991	C99	0.522300	0.420800	0.063500
C1001	C100	0.856500	0.565900	0.882600
C1011	C101	0.610300	0.298900	0.064500
C1021	C102	0.831500	0.673200	0.823600
C1031	C103	0.768200	0.398000	0.622000
C1041	C104	0.718600	0.326000	0.103200
C1051	C105	0.826200	0.600000	0.825100
C1061	C106	0.977700	0.420800	0.563500
C1071	C107	0.897600	0.682200	0.939500
C1081	C108	0.802400	0.039000	0.104100
C1091	C109	0.706700	0.630800	0.640000
C1101	C110	0.912300	0.928100	0.117300
C1111	C111	0.137900	0.630900	0.181200
C1121	C112	0.866700	0.444500	0.820900
N11	N1	0.516000	0.935700	0.562100
N21	N2	0.484000	0.064300	0.437900
N31	N3	0.627400	0.046300	0.547200
N41	N4	0.016000	0.064300	0.937900
N51	N5	0.372600	0.953700	0.452800
N61	N6	0.127400	0.953700	0.952800
N71	N7	0.872600	0.046300	0.047200
N81	N8	0.984000	0.935700	0.062100
O11	O1	0.669400	0.788800	0.697800
O21	O2	0.075900	0.195200	0.309900
O31	O3	0.021600	0.800100	0.529300
O41	O4	0.978400	0.199900	0.470700
O51	O5	0.879300	0.846900	0.946400
O61	O6	0.424100	0.195200	0.809900
O71	O7	0.410600	0.793700	0.571300
O81	O8	0.910600	0.206300	0.928700
O91	O9	0.997600	0.832000	0.836600
O101	O10	0.180500	0.781600	0.625900
O111	O11	0.725800	0.803300	0.087300
O121	O12	0.169400	0.211200	0.802200
O131	O13	0.319500	0.781600	0.125900
O141	O14	0.620700	0.846900	0.446400
O151	O15	0.497600	0.168000	0.663400
O161	O16	0.252300	0.166800	0.162600
O171	O17	0.235500	0.824900	0.465500
O181	O18	0.274200	0.196700	0.912700
O191	O19	0.752300	0.833200	0.337400
O201	O20	0.379300	0.153100	0.553600
O211	O21	0.502400	0.832000	0.336600
O221	O22	0.873900	0.208700	0.801400
O231	O23	0.747700	0.833200	0.837400
O241	O24	0.680500	0.218400	0.874100
O251	O25	0.330600	0.211200	0.302200
O261	O26	0.626100	0.208700	0.301400
O271	O27	0.002000	0.831400	0.411500
O281	O28	0.002400	0.168000	0.163400
O291	O29	0.998000	0.168600	0.588500
O301	O30	0.774200	0.803300	0.587300
O311	O31	0.478400	0.800100	0.029300
O321	O32	0.120700	0.153100	0.053600
O331	O33	0.126100	0.791300	0.198600
O341	O34	0.924100	0.804800	0.690100
O351	O35	0.819500	0.218400	0.374100
O361	O36	0.264500	0.824900	0.965500
O371	O37	0.521600	0.199900	0.970700
O381	O38	0.247700	0.166800	0.662600
O391	O39	0.089400	0.793700	0.071300
O401	O40	0.225800	0.196700	0.412700
O411	O41	0.764500	0.175100	0.534500
O421	O42	0.830600	0.788800	0.197800
O431	O43	0.589400	0.206300	0.428700
O441	O44	0.502000	0.168600	0.088500
O451	O45	0.575900	0.804800	0.190100
O461	O46	0.735500	0.175100	0.034500
O471	O47	0.373900	0.791300	0.698600
O481	O48	0.498000	0.831400	0.911500
F11	F1	0.198300	0.822200	0.319200
F21	F2	0.698300	0.177800	0.180800
F31	F3	0.801700	0.177800	0.680800
F41	F4	0.301700	0.822200	0.819200
