data_PODVIP_clean_PM
_symmetry_space_group_name_H-M	'P1'
_cell_length_a	9.235500
_cell_length_b	11.278000
_cell_length_c	18.640000
_cell_angle_alpha	93.948000
_cell_angle_beta	98.273000
_cell_angle_gamma	109.090000
_symmetry_Int_Tables_number 1

loop_
_symmetry_equiv_pos_as_xyz
'x,y,z'

loop_
_atom_site_label
_atom_site_type_symbol
_atom_site_fract_x
_atom_site_fract_y
_atom_site_fract_z
U11	U1	0.591840	0.457430	0.313430
U21	U2	0.658010	0.976870	0.309520
U31	U3	0.341990	0.023130	0.690480
U41	U4	0.408160	0.542570	0.686570
Cu11	Cu1	0.868760	0.045950	0.617790
Cu21	Cu2	0.131240	0.954050	0.382210
P11	P1	0.646000	0.867940	0.713950
P21	P2	0.879400	0.304530	0.285460
P31	P3	0.349200	0.664270	0.288740
P41	P4	0.120600	0.695470	0.714540
P51	P5	0.650800	0.335730	0.711260
P61	P6	0.124400	0.232270	0.718860
P71	P7	0.354000	0.132060	0.286050
P81	P8	0.875600	0.767730	0.281140
H11	H1	0.754300	0.177700	0.802300
H21	H2	0.076800	0.496100	0.804000
H31	H3	0.119700	0.484500	0.928300
H41	H4	0.731700	0.496300	0.963700
H51	H5	0.849500	0.771800	0.801100
H61	H6	0.602600	0.642800	0.033900
H71	H7	0.807700	0.171100	0.925000
H81	H8	0.328900	0.498600	0.160800
H91	H9	0.208700	0.255100	0.398900
H101	H10	0.899500	0.744700	0.921600
H111	H11	0.923200	0.503900	0.196000
H121	H12	0.861600	0.605300	0.528600
H131	H13	0.100500	0.255300	0.078400
H141	H14	0.997100	0.319700	0.561100
H151	H15	0.002900	0.680300	0.438900
H161	H16	0.880300	0.515500	0.071700
H171	H17	0.412900	0.101500	0.034700
H181	H18	0.736400	0.137900	0.032600
H191	H19	0.016100	0.939700	0.186700
H201	H20	0.983900	0.060300	0.813300
H211	H21	0.347300	0.380000	0.843400
H221	H22	0.268300	0.503700	0.036300
H231	H23	0.397400	0.357200	0.966100
H241	H24	0.791300	0.744900	0.601100
H251	H25	0.671100	0.501400	0.839200
H261	H26	0.138400	0.394700	0.471400
H271	H27	0.245700	0.822300	0.197700
H281	H28	0.538800	0.930900	0.844600
H291	H29	0.150500	0.228200	0.198900
H301	H30	0.192300	0.828900	0.075000
H311	H31	0.974000	0.956500	0.065000
H321	H32	0.220000	0.874300	0.842800
H331	H33	0.780000	0.125700	0.157200
H341	H34	0.652700	0.620000	0.156600
H351	H35	0.587100	0.898500	0.965300
H361	H36	0.263600	0.862100	0.967400
H371	H37	0.461200	0.069100	0.155400
H381	H38	0.026000	0.043500	0.935000
C11	C1	0.718200	0.688300	0.138300
C21	C2	0.302700	0.565700	0.143700
C31	C3	0.746100	0.240900	0.834500
C41	C4	0.310400	0.144800	0.190500
C51	C5	0.201700	0.795900	0.859700
C61	C6	0.155400	0.225300	0.815300
C71	C7	0.065300	0.122800	0.844100
C81	C8	0.934700	0.877200	0.155900
C91	C9	0.850300	0.313100	0.189200
C101	C10	0.689600	0.855200	0.809500
C111	C11	0.700500	0.335700	0.807200
C121	C12	0.253900	0.759100	0.165500
C131	C13	0.388500	0.107200	0.140400
C141	C14	0.024700	0.264300	0.531100
C151	C15	0.975300	0.735700	0.468900
C161	C16	0.299500	0.664300	0.192800
C171	C17	0.149600	0.225600	0.434500
C181	C18	0.975600	0.933000	0.504100
C191	C19	0.251500	0.180300	0.043100
C201	C20	0.149700	0.686900	0.810800
C211	C21	0.141200	0.563200	0.911500
C221	C22	0.890800	0.690300	0.522000
C231	C23	0.802100	0.328000	0.038300
C241	C24	0.358400	0.126300	0.067600
C251	C25	0.850400	0.774400	0.565500
C261	C26	0.779800	0.237700	0.908100
C271	C27	0.826200	0.782000	0.906300
C281	C28	0.641600	0.873700	0.932400
C291	C29	0.687800	0.702200	0.064400
C301	C30	0.109200	0.309700	0.478000
C311	C31	0.748500	0.819700	0.956900
C321	C32	0.197900	0.672000	0.961700
C331	C33	0.611500	0.892800	0.859600
C341	C34	0.227000	0.666500	0.041200
C351	C35	0.858800	0.436800	0.088500
C361	C36	0.173800	0.218000	0.093700
C371	C37	0.907000	0.888900	0.083200
C381	C38	0.773200	0.211900	0.065200
C391	C39	0.203300	0.201200	0.165900
C401	C40	0.733900	0.430600	0.931300
C411	C41	0.116100	0.569900	0.836700
C421	C42	0.024400	0.067000	0.495900
C431	C43	0.093000	0.111100	0.916800
C441	C44	0.217200	0.196700	0.963800
C451	C45	0.312200	0.297800	0.935600
C461	C46	0.226800	0.788100	0.934800
C471	C47	0.281800	0.311700	0.861700
C481	C48	0.796700	0.798800	0.834100
C491	C49	0.883900	0.430100	0.163300
C501	C50	0.844600	0.774700	0.184700
C511	C51	0.782800	0.803300	0.036200
C521	C52	0.773000	0.333500	0.958800
C531	C53	0.220200	0.762300	0.091900
C541	C54	0.266100	0.569400	0.068700
C551	C55	0.697300	0.434300	0.856300
C561	C56	0.798300	0.204100	0.140300
N11	N1	0.980800	0.140200	0.540700
N21	N2	0.894500	0.897400	0.557400
N31	N3	0.105500	0.102600	0.442600
N41	N4	0.019200	0.859800	0.459300
O11	O1	0.789200	0.373100	0.321800
O21	O2	0.455000	0.794400	0.322600
O31	O3	0.190700	0.632900	0.320100
O41	O4	0.842300	0.169400	0.299500
O51	O5	0.204100	0.056500	0.309000
O61	O6	0.522800	0.930500	0.703300
O71	O7	0.795900	0.943500	0.691000
O81	O8	0.579400	0.733100	0.672800
O91	O9	0.157700	0.830600	0.700500
O101	O10	0.420600	0.266900	0.327200
O111	O11	0.224100	0.361400	0.704000
O121	O12	0.167400	0.126800	0.681900
O131	O13	0.775900	0.638600	0.296000
O141	O14	0.049000	0.794300	0.310200
O151	O15	0.809300	0.367100	0.679900
O161	O16	0.942300	0.627600	0.683600
O171	O17	0.545000	0.205600	0.677400
O181	O18	0.411500	0.559800	0.304500
O191	O19	0.477200	0.069500	0.296700
O201	O20	0.832600	0.873200	0.318100
O211	O21	0.951000	0.205700	0.689800
O221	O22	0.588500	0.440200	0.695500
O231	O23	0.057700	0.372400	0.316400
O241	O24	0.210800	0.626900	0.678200
