data_POFSIN01_clean_PM
_symmetry_space_group_name_H-M	'P1'
_cell_length_a	12.700100
_cell_length_b	12.700100
_cell_length_c	12.700100
_cell_angle_alpha	90.000000
_cell_angle_beta	90.000000
_cell_angle_gamma	90.000000
_symmetry_Int_Tables_number 1

loop_
_symmetry_equiv_pos_as_xyz
'x,y,z'

loop_
_atom_site_label
_atom_site_type_symbol
_atom_site_fract_x
_atom_site_fract_y
_atom_site_fract_z
Cd11	Cd1	0.625000	0.125000	0.125000
Cd21	Cd2	0.125000	0.625000	0.125000
Cd31	Cd3	0.125000	0.125000	0.625000
Cd41	Cd4	0.625000	0.625000	0.625000
Cd51	Cd5	0.875000	0.875000	0.375000
Cd61	Cd6	0.875000	0.375000	0.875000
Cd71	Cd7	0.375000	0.875000	0.875000
Cd81	Cd8	0.375000	0.375000	0.375000
C11	C1	0.724600	0.224600	0.025400
C21	C2	0.025400	0.025400	0.525400
C31	C3	0.525400	0.525400	0.525400
C41	C4	0.525400	0.724600	0.724600
C51	C5	0.224600	0.525400	0.224600
C61	C6	0.025400	0.724600	0.224600
C71	C7	0.525400	0.025400	0.025400
C81	C8	0.724600	0.525400	0.724600
C91	C9	0.224600	0.224600	0.525400
C101	C10	0.224600	0.025400	0.724600
C111	C11	0.025400	0.525400	0.025400
C121	C12	0.724600	0.724600	0.525400
C131	C13	0.525400	0.224600	0.224600
C141	C14	0.974600	0.974600	0.474600
C151	C15	0.775400	0.275400	0.974600
C161	C16	0.474600	0.775400	0.775400
C171	C17	0.275400	0.474600	0.275400
C181	C18	0.474600	0.275400	0.275400
C191	C19	0.775400	0.775400	0.474600
C201	C20	0.275400	0.974600	0.775400
C211	C21	0.974600	0.474600	0.974600
C221	C22	0.775400	0.474600	0.775400
C231	C23	0.275400	0.275400	0.474600
C241	C24	0.474600	0.974600	0.974600
C251	C25	0.474600	0.474600	0.474600
C261	C26	0.974600	0.775400	0.275400
C271	C27	0.275400	0.775400	0.974600
C281	C28	0.974600	0.275400	0.775400
C291	C29	0.775400	0.974600	0.275400
C301	C30	0.224600	0.724600	0.025400
C311	C31	0.724600	0.025400	0.224600
C321	C32	0.025400	0.224600	0.724600
