data_POHCOG_clean_PM
_symmetry_space_group_name_H-M	'P1'
_cell_length_a	12.014400
_cell_length_b	16.989200
_cell_length_c	31.271600
_cell_angle_alpha	90.000000
_cell_angle_beta	90.000000
_cell_angle_gamma	90.000000
_symmetry_Int_Tables_number 1

loop_
_symmetry_equiv_pos_as_xyz
'x,y,z'

loop_
_atom_site_label
_atom_site_type_symbol
_atom_site_fract_x
_atom_site_fract_y
_atom_site_fract_z
Ag11	Ag1	0.487900	0.256940	0.432230
Ag21	Ag2	0.906300	0.175970	0.453660
Ag31	Ag3	0.571110	0.308940	0.534430
N11	N1	0.356200	0.094500	0.425200
N21	N2	0.631200	0.413100	0.428600
N31	N3	0.121000	0.078200	0.422800
N41	N4	0.769600	0.224400	0.486800
N51	N5	0.370700	0.415800	0.569900
C11	C1	0.406100	0.148900	0.427900
C21	C2	0.571500	0.361300	0.429800
C31	C3	0.046000	0.118900	0.429900
C41	C4	0.700500	0.251100	0.506200
C51	C5	0.442500	0.372200	0.560400
C61	C6	0.339500	0.022800	0.334400
H11	H1	0.403500	0.039500	0.349700
C71	C7	0.341400	0.022800	0.289600
H21	H2	0.407300	0.038800	0.275300
C81	C8	0.341200	0.972000	0.195300
H31	H3	0.403400	0.951800	0.210500
C91	C9	0.343100	0.972800	0.151900
H41	H4	0.407400	0.955100	0.137100
C101	C10	0.345800	0.017600	0.057900
H51	H5	0.413400	0.030200	0.072100
C111	C11	0.342000	0.016500	0.013400
H61	H6	0.408500	0.028100	0.998200
C121	C12	0.657000	0.513800	0.338500
H71	H7	0.590200	0.523800	0.353800
C131	C13	0.653800	0.514300	0.294700
H81	H8	0.585500	0.524400	0.280400
C141	C14	0.666400	0.462200	0.201300
H91	H9	0.609000	0.435200	0.216200
C151	C15	0.665200	0.463300	0.156600
H101	H10	0.606000	0.438900	0.141500
C161	C16	0.658000	0.495000	0.063200
H111	H11	0.588500	0.491900	0.077500
C171	C17	0.659000	0.494000	0.017400
H121	H12	0.590900	0.488700	0.002500
Ag41	Ag4	0.012100	0.743060	0.432230
Ag51	Ag5	0.593700	0.824030	0.453660
Ag61	Ag6	0.928890	0.691060	0.534430
N61	N6	0.143800	0.905500	0.425200
N71	N7	0.868800	0.586900	0.428600
N81	N8	0.379000	0.921800	0.422800
N91	N9	0.730400	0.775600	0.486800
N101	N10	0.129300	0.584200	0.569900
C181	C18	0.093900	0.851100	0.427900
C191	C19	0.928500	0.638700	0.429800
C201	C20	0.454000	0.881100	0.429900
C211	C21	0.799500	0.748900	0.506200
C221	C22	0.057500	0.627800	0.560400
C231	C23	0.160500	0.977200	0.334400
H131	H13	0.096500	0.960500	0.349700
C241	C24	0.158600	0.977200	0.289600
H141	H14	0.092700	0.961200	0.275300
C251	C25	0.158800	0.028000	0.195300
H151	H15	0.096600	0.048200	0.210500
C261	C26	0.156900	0.027200	0.151900
H161	H16	0.092600	0.044900	0.137100
C271	C27	0.154200	0.982400	0.057900
H171	H17	0.086600	0.969800	0.072100
C281	C28	0.158000	0.983500	0.013400
H181	H18	0.091500	0.971900	0.998200
C291	C29	0.843000	0.486200	0.338500
H191	H19	0.909800	0.476200	0.353800
C301	C30	0.846200	0.485700	0.294700
H201	H20	0.914500	0.475600	0.280400
C311	C31	0.833600	0.537800	0.201300
H211	H21	0.891000	0.564800	0.216200
C321	C32	0.834800	0.536700	0.156600
H221	H22	0.894000	0.561100	0.141500
C331	C33	0.842000	0.505000	0.063200
H231	H23	0.911500	0.508100	0.077500
C341	C34	0.841000	0.506000	0.017400
H241	H24	0.909100	0.511300	0.002500
Ag71	Ag7	0.512100	0.256940	0.067770
Ag81	Ag8	0.093700	0.175970	0.046340
Ag91	Ag9	0.428890	0.308940	0.965570
N111	N11	0.643800	0.094500	0.074800
N121	N12	0.368800	0.413100	0.071400
N131	N13	0.879000	0.078200	0.077200
N141	N14	0.230400	0.224400	0.013200
N151	N15	0.629300	0.415800	0.930100
C351	C35	0.593900	0.148900	0.072100
C361	C36	0.428500	0.361300	0.070200
C371	C37	0.954000	0.118900	0.070100
C381	C38	0.299500	0.251100	0.993800
C391	C39	0.557500	0.372200	0.939600
C401	C40	0.660500	0.022800	0.165600
H251	H25	0.596500	0.039500	0.150300
C411	C41	0.658600	0.022800	0.210400
H261	H26	0.592700	0.038800	0.224700
C421	C42	0.658800	0.972000	0.304700
H271	H27	0.596600	0.951800	0.289500
C431	C43	0.656900	0.972800	0.348100
H281	H28	0.592600	0.955100	0.362900
C441	C44	0.654200	0.017600	0.442100
H291	H29	0.586600	0.030200	0.427900
C451	C45	0.658000	0.016500	0.486600
H301	H30	0.591500	0.028100	0.501800
C461	C46	0.343000	0.513800	0.161500
H311	H31	0.409800	0.523800	0.146200
C471	C47	0.346200	0.514300	0.205300
H321	H32	0.414500	0.524400	0.219600
C481	C48	0.333600	0.462200	0.298700
H331	H33	0.391000	0.435200	0.283800
C491	C49	0.334800	0.463300	0.343400
H341	H34	0.394000	0.438900	0.358500
C501	C50	0.342000	0.495000	0.436800
H351	H35	0.411500	0.491900	0.422500
C511	C51	0.341000	0.494000	0.482600
H361	H36	0.409100	0.488700	0.497500
Ag101	Ag10	0.987900	0.743060	0.067770
Ag111	Ag11	0.406300	0.824030	0.046340
Ag121	Ag12	0.071110	0.691060	0.965570
N161	N16	0.856200	0.905500	0.074800
N171	N17	0.131200	0.586900	0.071400
N181	N18	0.621000	0.921800	0.077200
N191	N19	0.269600	0.775600	0.013200
N201	N20	0.870700	0.584200	0.930100
C521	C52	0.906100	0.851100	0.072100
C531	C53	0.071500	0.638700	0.070200
C541	C54	0.546000	0.881100	0.070100
C551	C55	0.200500	0.748900	0.993800
C561	C56	0.942500	0.627800	0.939600
C571	C57	0.839500	0.977200	0.165600
H371	H37	0.903500	0.960500	0.150300
C581	C58	0.841400	0.977200	0.210400
H381	H38	0.907300	0.961200	0.224700
C591	C59	0.841200	0.028000	0.304700
H391	H39	0.903400	0.048200	0.289500
C601	C60	0.843100	0.027200	0.348100
H401	H40	0.907400	0.044900	0.362900
C611	C61	0.845800	0.982400	0.442100
H411	H41	0.913400	0.969800	0.427900
C621	C62	0.842000	0.983500	0.486600
H421	H42	0.908500	0.971900	0.501800
C631	C63	0.157000	0.486200	0.161500
H431	H43	0.090200	0.476200	0.146200
C641	C64	0.153800	0.485700	0.205300
H441	H44	0.085500	0.475600	0.219600
C651	C65	0.166400	0.537800	0.298700
H451	H45	0.109000	0.564800	0.283800
C661	C66	0.165200	0.536700	0.343400
H461	H46	0.106000	0.561100	0.358500
C671	C67	0.158000	0.505000	0.436800
H471	H47	0.088500	0.508100	0.422500
C681	C68	0.159000	0.506000	0.482600
H481	H48	0.090900	0.511300	0.497500
Ag131	Ag13	0.512100	0.743060	0.567770
Ag141	Ag14	0.093700	0.824030	0.546340
Ag151	Ag15	0.428890	0.691060	0.465570
N211	N21	0.643800	0.905500	0.574800
N221	N22	0.368800	0.586900	0.571400
N231	N23	0.879000	0.921800	0.577200
N241	N24	0.230400	0.775600	0.513200
N251	N25	0.629300	0.584200	0.430100
C691	C69	0.593900	0.851100	0.572100
C701	C70	0.428500	0.638700	0.570200
C711	C71	0.954000	0.881100	0.570100
C721	C72	0.299500	0.748900	0.493800
C731	C73	0.557500	0.627800	0.439600
C741	C74	0.660500	0.977200	0.665600
H491	H49	0.596500	0.960500	0.650300
C751	C75	0.658600	0.977200	0.710400
H501	H50	0.592700	0.961200	0.724700
C761	C76	0.658800	0.028000	0.804700
H511	H51	0.596600	0.048200	0.789500
C771	C77	0.656900	0.027200	0.848100
H521	H52	0.592600	0.044900	0.862900
C781	C78	0.654200	0.982400	0.942100
H531	H53	0.586600	0.969800	0.927900
C791	C79	0.658000	0.983500	0.986600
H541	H54	0.591500	0.971900	0.001800
C801	C80	0.343000	0.486200	0.661500
H551	H55	0.409800	0.476200	0.646200
C811	C81	0.346200	0.485700	0.705300
H561	H56	0.414500	0.475600	0.719600
C821	C82	0.333600	0.537800	0.798700
H571	H57	0.391000	0.564800	0.783800
C831	C83	0.334800	0.536700	0.843400
H581	H58	0.394000	0.561100	0.858500
C841	C84	0.342000	0.505000	0.936800
H591	H59	0.411500	0.508100	0.922500
C851	C85	0.341000	0.506000	0.982600
H601	H60	0.409100	0.511300	0.997500
Ag161	Ag16	0.987900	0.256940	0.567770
Ag171	Ag17	0.406300	0.175970	0.546340
Ag181	Ag18	0.071110	0.308940	0.465570
N261	N26	0.856200	0.094500	0.574800
N271	N27	0.131200	0.413100	0.571400
N281	N28	0.621000	0.078200	0.577200
N291	N29	0.269600	0.224400	0.513200
N301	N30	0.870700	0.415800	0.430100
C861	C86	0.906100	0.148900	0.572100
C871	C87	0.071500	0.361300	0.570200
C881	C88	0.546000	0.118900	0.570100
C891	C89	0.200500	0.251100	0.493800
C901	C90	0.942500	0.372200	0.439600
C911	C91	0.839500	0.022800	0.665600
H611	H61	0.903500	0.039500	0.650300
C921	C92	0.841400	0.022800	0.710400
H621	H62	0.907300	0.038800	0.724700
C931	C93	0.841200	0.972000	0.804700
H631	H63	0.903400	0.951800	0.789500
C941	C94	0.843100	0.972800	0.848100
H641	H64	0.907400	0.955100	0.862900
C951	C95	0.845800	0.017600	0.942100
H651	H65	0.913400	0.030200	0.927900
C961	C96	0.842000	0.016500	0.986600
H661	H66	0.908500	0.028100	0.001800
C971	C97	0.157000	0.513800	0.661500
H671	H67	0.090200	0.523800	0.646200
C981	C98	0.153800	0.514300	0.705300
H681	H68	0.085500	0.524400	0.719600
C991	C99	0.166400	0.462200	0.798700
H691	H69	0.109000	0.435200	0.783800
C1001	C100	0.165200	0.463300	0.843400
H701	H70	0.106000	0.438900	0.858500
C1011	C101	0.158000	0.495000	0.936800
H711	H71	0.088500	0.491900	0.922500
C1021	C102	0.159000	0.494000	0.982600
H721	H72	0.090900	0.488700	0.997500
Ag191	Ag19	0.487900	0.743060	0.932230
Ag201	Ag20	0.906300	0.824030	0.953660
Ag211	Ag21	0.571110	0.691060	0.034430
N311	N31	0.356200	0.905500	0.925200
N321	N32	0.631200	0.586900	0.928600
N331	N33	0.121000	0.921800	0.922800
N341	N34	0.769600	0.775600	0.986800
N351	N35	0.370700	0.584200	0.069900
C1031	C103	0.406100	0.851100	0.927900
C1041	C104	0.571500	0.638700	0.929800
C1051	C105	0.046000	0.881100	0.929900
C1061	C106	0.700500	0.748900	0.006200
C1071	C107	0.442500	0.627800	0.060400
C1081	C108	0.339500	0.977200	0.834400
H731	H73	0.403500	0.960500	0.849700
C1091	C109	0.341400	0.977200	0.789600
H741	H74	0.407300	0.961200	0.775300
C1101	C110	0.341200	0.028000	0.695300
H751	H75	0.403400	0.048200	0.710500
C1111	C111	0.343100	0.027200	0.651900
H761	H76	0.407400	0.044900	0.637100
C1121	C112	0.345800	0.982400	0.557900
H771	H77	0.413400	0.969800	0.572100
C1131	C113	0.342000	0.983500	0.513400
H781	H78	0.408500	0.971900	0.498200
C1141	C114	0.657000	0.486200	0.838500
H791	H79	0.590200	0.476200	0.853800
C1151	C115	0.653800	0.485700	0.794700
H801	H80	0.585500	0.475600	0.780400
C1161	C116	0.666400	0.537800	0.701300
H811	H81	0.609000	0.564800	0.716200
C1171	C117	0.665200	0.536700	0.656600
H821	H82	0.606000	0.561100	0.641500
C1181	C118	0.658000	0.505000	0.563200
H831	H83	0.588500	0.508100	0.577500
C1191	C119	0.659000	0.506000	0.517400
H841	H84	0.590900	0.511300	0.502500
Ag221	Ag22	0.012100	0.256940	0.932230
Ag231	Ag23	0.593700	0.175970	0.953660
Ag241	Ag24	0.928890	0.308940	0.034430
N361	N36	0.143800	0.094500	0.925200
N371	N37	0.868800	0.413100	0.928600
N381	N38	0.379000	0.078200	0.922800
N391	N39	0.730400	0.224400	0.986800
N401	N40	0.129300	0.415800	0.069900
C1201	C120	0.093900	0.148900	0.927900
C1211	C121	0.928500	0.361300	0.929800
C1221	C122	0.454000	0.118900	0.929900
C1231	C123	0.799500	0.251100	0.006200
C1241	C124	0.057500	0.372200	0.060400
C1251	C125	0.160500	0.022800	0.834400
H851	H85	0.096500	0.039500	0.849700
C1261	C126	0.158600	0.022800	0.789600
H861	H86	0.092700	0.038800	0.775300
C1271	C127	0.158800	0.972000	0.695300
H871	H87	0.096600	0.951800	0.710500
C1281	C128	0.156900	0.972800	0.651900
H881	H88	0.092600	0.955100	0.637100
C1291	C129	0.154200	0.017600	0.557900
H891	H89	0.086600	0.030200	0.572100
C1301	C130	0.158000	0.016500	0.513400
H901	H90	0.091500	0.028100	0.498200
C1311	C131	0.843000	0.513800	0.838500
H911	H91	0.909800	0.523800	0.853800
C1321	C132	0.846200	0.514300	0.794700
H921	H92	0.914500	0.524400	0.780400
C1331	C133	0.833600	0.462200	0.701300
H931	H93	0.891000	0.435200	0.716200
C1341	C134	0.834800	0.463300	0.656600
H941	H94	0.894000	0.438900	0.641500
C1351	C135	0.842000	0.495000	0.563200
H951	H95	0.911500	0.491900	0.577500
C1361	C136	0.841000	0.494000	0.517400
H961	H96	0.909100	0.488700	0.502500
Fe11	Fe1	0.250000	0.000000	0.423480
N411	N41	0.250000	0.000000	0.355600
N421	N42	0.250000	0.000000	0.990800
C1371	C137	0.250000	0.000000	0.265600
C1381	C138	0.250000	0.000000	0.217900
C1391	C139	0.250000	0.000000	0.128800
C1401	C140	0.250000	0.000000	0.082100
Fe21	Fe2	0.750000	0.000000	0.076520
N431	N43	0.750000	0.000000	0.144400
N441	N44	0.750000	0.000000	0.509200
C1411	C141	0.750000	0.000000	0.234400
C1421	C142	0.750000	0.000000	0.282100
C1431	C143	0.750000	0.000000	0.371200
C1441	C144	0.750000	0.000000	0.417900
Fe31	Fe3	0.750000	0.000000	0.576520
N451	N45	0.750000	0.000000	0.644400
N461	N46	0.750000	0.000000	0.009200
C1451	C145	0.750000	0.000000	0.734400
C1461	C146	0.750000	0.000000	0.782100
C1471	C147	0.750000	0.000000	0.871200
C1481	C148	0.750000	0.000000	0.917900
Fe41	Fe4	0.250000	0.000000	0.923480
N471	N47	0.250000	0.000000	0.855600
N481	N48	0.250000	0.000000	0.490800
C1491	C149	0.250000	0.000000	0.765600
C1501	C150	0.250000	0.000000	0.717900
C1511	C151	0.250000	0.000000	0.628800
C1521	C152	0.250000	0.000000	0.582100
Fe51	Fe5	0.750000	0.500000	0.428200
N491	N49	0.750000	0.500000	0.360500
N501	N50	0.750000	0.500000	0.996000
C1531	C153	0.750000	0.500000	0.270800
C1541	C154	0.750000	0.500000	0.224500
C1551	C155	0.750000	0.500000	0.134300
C1561	C156	0.750000	0.500000	0.086500
Fe61	Fe6	0.250000	0.500000	0.071800
N511	N51	0.250000	0.500000	0.139500
N521	N52	0.250000	0.500000	0.504000
C1571	C157	0.250000	0.500000	0.229200
C1581	C158	0.250000	0.500000	0.275500
C1591	C159	0.250000	0.500000	0.365700
C1601	C160	0.250000	0.500000	0.413500
Fe71	Fe7	0.250000	0.500000	0.571800
N531	N53	0.250000	0.500000	0.639500
N541	N54	0.250000	0.500000	0.004000
C1611	C161	0.250000	0.500000	0.729200
C1621	C162	0.250000	0.500000	0.775500
C1631	C163	0.250000	0.500000	0.865700
C1641	C164	0.250000	0.500000	0.913500
Fe81	Fe8	0.750000	0.500000	0.928200
N551	N55	0.750000	0.500000	0.860500
N561	N56	0.750000	0.500000	0.496000
C1651	C165	0.750000	0.500000	0.770800
C1661	C166	0.750000	0.500000	0.724500
C1671	C167	0.750000	0.500000	0.634300
C1681	C168	0.750000	0.500000	0.586500
