data_POHWIU_clean_PM
_symmetry_space_group_name_H-M	'P1'
_cell_length_a	21.872900
_cell_length_b	21.872900
_cell_length_c	28.680400
_cell_angle_alpha	90.000000
_cell_angle_beta	90.000000
_cell_angle_gamma	90.000000
_symmetry_Int_Tables_number 1

loop_
_symmetry_equiv_pos_as_xyz
'x,y,z'

loop_
_atom_site_label
_atom_site_type_symbol
_atom_site_fract_x
_atom_site_fract_y
_atom_site_fract_z
O11	O1	0.435900	0.154900	0.451000
O21	O2	0.435800	0.258100	0.451100
C11	C1	0.127600	0.049300	0.246400
C21	C2	0.189700	0.029900	0.238900
H11	H1	0.224200	0.055700	0.234800
C31	C3	0.200000	0.161800	0.286800
H21	H2	0.196900	0.134100	0.312200
C41	C4	0.245500	0.205200	0.286300
C51	C5	0.290400	0.206200	0.324600
C61	C6	0.313100	0.149300	0.342100
H31	H3	0.300500	0.111700	0.328400
C71	C7	0.353500	0.149600	0.379300
H41	H4	0.366400	0.112200	0.392900
C81	C8	0.374700	0.204500	0.396200
C91	C9	0.354400	0.262300	0.377800
H51	H5	0.369300	0.299800	0.390100
C101	C10	0.313700	0.261500	0.342600
H61	H6	0.300400	0.299100	0.329500
C111	C11	0.419200	0.206300	0.436600
O31	O3	0.564100	0.845100	0.451000
O41	O4	0.564200	0.741900	0.451100
C121	C12	0.872400	0.950700	0.246400
C131	C13	0.810300	0.970100	0.238900
H71	H7	0.775800	0.944300	0.234800
C141	C14	0.800000	0.838200	0.286800
H81	H8	0.803100	0.865900	0.312200
C151	C15	0.754500	0.794800	0.286300
C161	C16	0.709600	0.793800	0.324600
C171	C17	0.686900	0.850700	0.342100
H91	H9	0.699500	0.888300	0.328400
C181	C18	0.646500	0.850400	0.379300
H101	H10	0.633600	0.887800	0.392900
C191	C19	0.625300	0.795500	0.396200
C201	C20	0.645600	0.737700	0.377800
H111	H11	0.630700	0.700200	0.390100
C211	C21	0.686300	0.738500	0.342600
H121	H12	0.699600	0.700900	0.329500
C221	C22	0.580800	0.793700	0.436600
O51	O5	0.845100	0.435900	0.951000
O61	O6	0.741900	0.435800	0.951100
C231	C23	0.950700	0.127600	0.746400
C241	C24	0.970100	0.189700	0.738900
H131	H13	0.944300	0.224200	0.734800
C251	C25	0.838200	0.200000	0.786800
H141	H14	0.865900	0.196900	0.812200
C261	C26	0.794800	0.245500	0.786300
C271	C27	0.793800	0.290400	0.824600
C281	C28	0.850700	0.313100	0.842100
H151	H15	0.888300	0.300500	0.828400
C291	C29	0.850400	0.353500	0.879300
H161	H16	0.887800	0.366400	0.892900
C301	C30	0.795500	0.374700	0.896200
C311	C31	0.737700	0.354400	0.877800
H171	H17	0.700200	0.369300	0.890100
C321	C32	0.738500	0.313700	0.842600
H181	H18	0.700900	0.300400	0.829500
C331	C33	0.793700	0.419200	0.936600
O71	O7	0.154900	0.564100	0.951000
O81	O8	0.258100	0.564200	0.951100
C341	C34	0.049300	0.872400	0.746400
C351	C35	0.029900	0.810300	0.738900
H191	H19	0.055700	0.775800	0.734800
C361	C36	0.161800	0.800000	0.786800
H201	H20	0.134100	0.803100	0.812200
C371	C37	0.205200	0.754500	0.786300
C381	C38	0.206200	0.709600	0.824600
C391	C39	0.149300	0.686900	0.842100
H211	H21	0.111700	0.699500	0.828400
C401	C40	0.149600	0.646500	0.879300
H221	H22	0.112200	0.633600	0.892900
C411	C41	0.204500	0.625300	0.896200
C421	C42	0.262300	0.645600	0.877800
H231	H23	0.299800	0.630700	0.890100
C431	C43	0.261500	0.686300	0.842600
H241	H24	0.299100	0.699600	0.829500
C441	C44	0.206300	0.580800	0.936600
O91	O9	0.564100	0.154900	0.549000
O101	O10	0.564200	0.258100	0.548900
C451	C45	0.872400	0.049300	0.753600
C461	C46	0.810300	0.029900	0.761100
H251	H25	0.775800	0.055700	0.765200
C471	C47	0.800000	0.161800	0.713200
H261	H26	0.803100	0.134100	0.687800
C481	C48	0.754500	0.205200	0.713700
C491	C49	0.709600	0.206200	0.675400
C501	C50	0.686900	0.149300	0.657900
H271	H27	0.699500	0.111700	0.671600
C511	C51	0.646500	0.149600	0.620700
H281	H28	0.633600	0.112200	0.607100
C521	C52	0.625300	0.204500	0.603800
C531	C53	0.645600	0.262300	0.622200
H291	H29	0.630700	0.299800	0.609900
C541	C54	0.686300	0.261500	0.657400
H301	H30	0.699600	0.299100	0.670500
C551	C55	0.580800	0.206300	0.563400
O111	O11	0.435900	0.845100	0.549000
O121	O12	0.435800	0.741900	0.548900
C561	C56	0.127600	0.950700	0.753600
C571	C57	0.189700	0.970100	0.761100
H311	H31	0.224200	0.944300	0.765200
C581	C58	0.200000	0.838200	0.713200
H321	H32	0.196900	0.865900	0.687800
C591	C59	0.245500	0.794800	0.713700
C601	C60	0.290400	0.793800	0.675400
C611	C61	0.313100	0.850700	0.657900
H331	H33	0.300500	0.888300	0.671600
C621	C62	0.353500	0.850400	0.620700
H341	H34	0.366400	0.887800	0.607100
C631	C63	0.374700	0.795500	0.603800
C641	C64	0.354400	0.737700	0.622200
H351	H35	0.369300	0.700200	0.609900
C651	C65	0.313700	0.738500	0.657400
H361	H36	0.300400	0.700900	0.670500
C661	C66	0.419200	0.793700	0.563400
O131	O13	0.154900	0.435900	0.049000
O141	O14	0.258100	0.435800	0.048900
C671	C67	0.049300	0.127600	0.253600
C681	C68	0.029900	0.189700	0.261100
H371	H37	0.055700	0.224200	0.265200
C691	C69	0.161800	0.200000	0.213200
H381	H38	0.134100	0.196900	0.187800
C701	C70	0.205200	0.245500	0.213700
C711	C71	0.206200	0.290400	0.175400
C721	C72	0.149300	0.313100	0.157900
H391	H39	0.111700	0.300500	0.171600
C731	C73	0.149600	0.353500	0.120700
H401	H40	0.112200	0.366400	0.107100
C741	C74	0.204500	0.374700	0.103800
C751	C75	0.262300	0.354400	0.122200
H411	H41	0.299800	0.369300	0.109900
C761	C76	0.261500	0.313700	0.157400
H421	H42	0.299100	0.300400	0.170500
C771	C77	0.206300	0.419200	0.063400
O151	O15	0.845100	0.564100	0.049000
O161	O16	0.741900	0.564200	0.048900
C781	C78	0.950700	0.872400	0.253600
C791	C79	0.970100	0.810300	0.261100
H431	H43	0.944300	0.775800	0.265200
C801	C80	0.838200	0.800000	0.213200
H441	H44	0.865900	0.803100	0.187800
C811	C81	0.794800	0.754500	0.213700
C821	C82	0.793800	0.709600	0.175400
C831	C83	0.850700	0.686900	0.157900
H451	H45	0.888300	0.699500	0.171600
C841	C84	0.850400	0.646500	0.120700
H461	H46	0.887800	0.633600	0.107100
C851	C85	0.795500	0.625300	0.103800
C861	C86	0.737700	0.645600	0.122200
H471	H47	0.700200	0.630700	0.109900
C871	C87	0.738500	0.686300	0.157400
H481	H48	0.700900	0.699600	0.170500
C881	C88	0.793700	0.580800	0.063400
O171	O17	0.564100	0.845100	0.549000
O181	O18	0.564200	0.741900	0.548900
C891	C89	0.872400	0.950700	0.753600
C901	C90	0.810300	0.970100	0.761100
H491	H49	0.775800	0.944300	0.765200
C911	C91	0.800000	0.838200	0.713200
H501	H50	0.803100	0.865900	0.687800
C921	C92	0.754500	0.794800	0.713700
C931	C93	0.709600	0.793800	0.675400
C941	C94	0.686900	0.850700	0.657900
H511	H51	0.699500	0.888300	0.671600
C951	C95	0.646500	0.850400	0.620700
H521	H52	0.633600	0.887800	0.607100
C961	C96	0.625300	0.795500	0.603800
C971	C97	0.645600	0.737700	0.622200
H531	H53	0.630700	0.700200	0.609900
C981	C98	0.686300	0.738500	0.657400
H541	H54	0.699600	0.700900	0.670500
C991	C99	0.580800	0.793700	0.563400
O191	O19	0.435900	0.154900	0.549000
O201	O20	0.435800	0.258100	0.548900
C1001	C100	0.127600	0.049300	0.753600
C1011	C101	0.189700	0.029900	0.761100
H551	H55	0.224200	0.055700	0.765200
C1021	C102	0.200000	0.161800	0.713200
H561	H56	0.196900	0.134100	0.687800
C1031	C103	0.245500	0.205200	0.713700
C1041	C104	0.290400	0.206200	0.675400
C1051	C105	0.313100	0.149300	0.657900
H571	H57	0.300500	0.111700	0.671600
C1061	C106	0.353500	0.149600	0.620700
H581	H58	0.366400	0.112200	0.607100
C1071	C107	0.374700	0.204500	0.603800
C1081	C108	0.354400	0.262300	0.622200
H591	H59	0.369300	0.299800	0.609900
C1091	C109	0.313700	0.261500	0.657400
H601	H60	0.300400	0.299100	0.670500
C1101	C110	0.419200	0.206300	0.563400
O211	O21	0.154900	0.564100	0.049000
O221	O22	0.258100	0.564200	0.048900
C1111	C111	0.049300	0.872400	0.253600
C1121	C112	0.029900	0.810300	0.261100
H611	H61	0.055700	0.775800	0.265200
C1131	C113	0.161800	0.800000	0.213200
H621	H62	0.134100	0.803100	0.187800
C1141	C114	0.205200	0.754500	0.213700
C1151	C115	0.206200	0.709600	0.175400
C1161	C116	0.149300	0.686900	0.157900
H631	H63	0.111700	0.699500	0.171600
C1171	C117	0.149600	0.646500	0.120700
H641	H64	0.112200	0.633600	0.107100
C1181	C118	0.204500	0.625300	0.103800
C1191	C119	0.262300	0.645600	0.122200
H651	H65	0.299800	0.630700	0.109900
C1201	C120	0.261500	0.686300	0.157400
H661	H66	0.299100	0.699600	0.170500
C1211	C121	0.206300	0.580800	0.063400
O231	O23	0.845100	0.435900	0.049000
O241	O24	0.741900	0.435800	0.048900
C1221	C122	0.950700	0.127600	0.253600
C1231	C123	0.970100	0.189700	0.261100
H671	H67	0.944300	0.224200	0.265200
C1241	C124	0.838200	0.200000	0.213200
H681	H68	0.865900	0.196900	0.187800
C1251	C125	0.794800	0.245500	0.213700
C1261	C126	0.793800	0.290400	0.175400
C1271	C127	0.850700	0.313100	0.157900
H691	H69	0.888300	0.300500	0.171600
C1281	C128	0.850400	0.353500	0.120700
H701	H70	0.887800	0.366400	0.107100
C1291	C129	0.795500	0.374700	0.103800
C1301	C130	0.737700	0.354400	0.122200
H711	H71	0.700200	0.369300	0.109900
C1311	C131	0.738500	0.313700	0.157400
H721	H72	0.700900	0.300400	0.170500
C1321	C132	0.793700	0.419200	0.063400
O251	O25	0.435900	0.845100	0.451000
O261	O26	0.435800	0.741900	0.451100
C1331	C133	0.127600	0.950700	0.246400
C1341	C134	0.189700	0.970100	0.238900
H731	H73	0.224200	0.944300	0.234800
C1351	C135	0.200000	0.838200	0.286800
H741	H74	0.196900	0.865900	0.312200
C1361	C136	0.245500	0.794800	0.286300
C1371	C137	0.290400	0.793800	0.324600
C1381	C138	0.313100	0.850700	0.342100
H751	H75	0.300500	0.888300	0.328400
C1391	C139	0.353500	0.850400	0.379300
H761	H76	0.366400	0.887800	0.392900
C1401	C140	0.374700	0.795500	0.396200
C1411	C141	0.354400	0.737700	0.377800
H771	H77	0.369300	0.700200	0.390100
C1421	C142	0.313700	0.738500	0.342600
H781	H78	0.300400	0.700900	0.329500
C1431	C143	0.419200	0.793700	0.436600
O271	O27	0.564100	0.154900	0.451000
O281	O28	0.564200	0.258100	0.451100
C1441	C144	0.872400	0.049300	0.246400
C1451	C145	0.810300	0.029900	0.238900
H791	H79	0.775800	0.055700	0.234800
C1461	C146	0.800000	0.161800	0.286800
H801	H80	0.803100	0.134100	0.312200
C1471	C147	0.754500	0.205200	0.286300
C1481	C148	0.709600	0.206200	0.324600
C1491	C149	0.686900	0.149300	0.342100
H811	H81	0.699500	0.111700	0.328400
C1501	C150	0.646500	0.149600	0.379300
H821	H82	0.633600	0.112200	0.392900
C1511	C151	0.625300	0.204500	0.396200
C1521	C152	0.645600	0.262300	0.377800
H831	H83	0.630700	0.299800	0.390100
C1531	C153	0.686300	0.261500	0.342600
H841	H84	0.699600	0.299100	0.329500
C1541	C154	0.580800	0.206300	0.436600
O291	O29	0.845100	0.564100	0.951000
O301	O30	0.741900	0.564200	0.951100
C1551	C155	0.950700	0.872400	0.746400
C1561	C156	0.970100	0.810300	0.738900
H851	H85	0.944300	0.775800	0.734800
C1571	C157	0.838200	0.800000	0.786800
H861	H86	0.865900	0.803100	0.812200
C1581	C158	0.794800	0.754500	0.786300
C1591	C159	0.793800	0.709600	0.824600
C1601	C160	0.850700	0.686900	0.842100
H871	H87	0.888300	0.699500	0.828400
C1611	C161	0.850400	0.646500	0.879300
H881	H88	0.887800	0.633600	0.892900
C1621	C162	0.795500	0.625300	0.896200
C1631	C163	0.737700	0.645600	0.877800
H891	H89	0.700200	0.630700	0.890100
C1641	C164	0.738500	0.686300	0.842600
H901	H90	0.700900	0.699600	0.829500
C1651	C165	0.793700	0.580800	0.936600
O311	O31	0.154900	0.435900	0.951000
O321	O32	0.258100	0.435800	0.951100
C1661	C166	0.049300	0.127600	0.746400
C1671	C167	0.029900	0.189700	0.738900
H911	H91	0.055700	0.224200	0.734800
C1681	C168	0.161800	0.200000	0.786800
H921	H92	0.134100	0.196900	0.812200
C1691	C169	0.205200	0.245500	0.786300
C1701	C170	0.206200	0.290400	0.824600
C1711	C171	0.149300	0.313100	0.842100
H931	H93	0.111700	0.300500	0.828400
C1721	C172	0.149600	0.353500	0.879300
H941	H94	0.112200	0.366400	0.892900
C1731	C173	0.204500	0.374700	0.896200
C1741	C174	0.262300	0.354400	0.877800
H951	H95	0.299800	0.369300	0.890100
C1751	C175	0.261500	0.313700	0.842600
H961	H96	0.299100	0.300400	0.829500
C1761	C176	0.206300	0.419200	0.936600
Co11	Co1	0.000000	0.000000	0.250000
Co21	Co2	0.000000	0.000000	0.750000
Co31	Co3	0.500000	0.138620	0.500000
Co41	Co4	0.500000	0.272160	0.500000
O331	O33	0.500000	0.048100	0.500000
Co51	Co5	0.500000	0.861380	0.500000
Co61	Co6	0.500000	0.727840	0.500000
O341	O34	0.500000	0.951900	0.500000
Co71	Co7	0.861380	0.500000	0.000000
Co81	Co8	0.727840	0.500000	0.000000
O351	O35	0.951900	0.500000	0.000000
Co91	Co9	0.138620	0.500000	0.000000
Co101	Co10	0.272160	0.500000	0.000000
O361	O36	0.048100	0.500000	0.000000
N11	N1	0.090400	0.000000	0.248700
N21	N2	0.909600	0.000000	0.248700
N31	N3	0.000000	0.090400	0.748700
N41	N4	0.000000	0.909600	0.748700
N51	N5	0.909600	0.000000	0.751300
N61	N6	0.090400	0.000000	0.751300
N71	N7	0.000000	0.090400	0.251300
N81	N8	0.000000	0.909600	0.251300
C1771	C177	0.500000	0.000000	0.500000
C1781	C178	0.000000	0.500000	0.000000
C1791	C179	0.108900	0.108900	0.250000
C1801	C180	0.158400	0.158400	0.250000
C1811	C181	0.247900	0.247900	0.250000
H971	H97	0.278600	0.278600	0.250000
C1821	C182	0.891100	0.891100	0.250000
C1831	C183	0.841600	0.841600	0.250000
C1841	C184	0.752100	0.752100	0.250000
H981	H98	0.721400	0.721400	0.250000
C1851	C185	0.891100	0.108900	0.750000
C1861	C186	0.841600	0.158400	0.750000
C1871	C187	0.752100	0.247900	0.750000
H991	H99	0.721400	0.278600	0.750000
C1881	C188	0.108900	0.891100	0.750000
C1891	C189	0.158400	0.841600	0.750000
C1901	C190	0.247900	0.752100	0.750000
H1001	H100	0.278600	0.721400	0.750000
C1911	C191	0.891100	0.891100	0.750000
C1921	C192	0.841600	0.841600	0.750000
C1931	C193	0.752100	0.752100	0.750000
H1011	H101	0.721400	0.721400	0.750000
C1941	C194	0.108900	0.108900	0.750000
C1951	C195	0.158400	0.158400	0.750000
C1961	C196	0.247900	0.247900	0.750000
H1021	H102	0.278600	0.278600	0.750000
C1971	C197	0.108900	0.891100	0.250000
C1981	C198	0.158400	0.841600	0.250000
C1991	C199	0.247900	0.752100	0.250000
H1031	H103	0.278600	0.721400	0.250000
C2001	C200	0.891100	0.108900	0.250000
C2011	C201	0.841600	0.158400	0.250000
C2021	C202	0.752100	0.247900	0.250000
H1041	H104	0.721400	0.278600	0.250000
