data_POJNIM_clean_PM
_symmetry_space_group_name_H-M	'P1'
_cell_length_a	11.334600
_cell_length_b	15.368000
_cell_length_c	11.167000
_cell_angle_alpha	90.000000
_cell_angle_beta	90.949000
_cell_angle_gamma	90.000000
_symmetry_Int_Tables_number 1

loop_
_symmetry_equiv_pos_as_xyz
'x,y,z'

loop_
_atom_site_label
_atom_site_type_symbol
_atom_site_fract_x
_atom_site_fract_y
_atom_site_fract_z
K11	K1	0.285840	0.074580	0.010470
O11	O1	0.472000	0.851930	0.399700
O21	O2	0.620000	0.936930	0.345500
O31	O3	0.647700	0.856500	0.773400
O41	O4	0.588700	0.937390	0.620800
C11	C1	0.722100	0.751400	0.379700
H11	H1	0.703400	0.752400	0.298300
C21	C2	0.667300	0.810000	0.455400
C31	C3	0.695600	0.809100	0.577400
C41	C4	0.577700	0.870600	0.399300
C51	C5	0.641100	0.871300	0.664500
K21	K2	0.785840	0.574580	0.010470
O51	O5	0.972000	0.351930	0.399700
O61	O6	0.120000	0.436930	0.345500
O71	O7	0.147700	0.356500	0.773400
O81	O8	0.088700	0.437390	0.620800
C61	C6	0.222100	0.251400	0.379700
H21	H2	0.203400	0.252400	0.298300
C71	C7	0.167300	0.310000	0.455400
C81	C8	0.195600	0.309100	0.577400
C91	C9	0.077700	0.370600	0.399300
C101	C10	0.141100	0.371300	0.664500
K31	K3	0.714160	0.074580	0.489530
O91	O9	0.528000	0.851930	0.100300
O101	O10	0.380000	0.936930	0.154500
O111	O11	0.352300	0.856500	0.726600
O121	O12	0.411300	0.937390	0.879200
C111	C11	0.277900	0.751400	0.120300
H31	H3	0.296600	0.752400	0.201700
C121	C12	0.332700	0.810000	0.044600
C131	C13	0.304400	0.809100	0.922600
C141	C14	0.422300	0.870600	0.100700
C151	C15	0.358900	0.871300	0.835500
K41	K4	0.214160	0.574580	0.489530
O131	O13	0.028000	0.351930	0.100300
O141	O14	0.880000	0.436930	0.154500
O151	O15	0.852300	0.356500	0.726600
O161	O16	0.911300	0.437390	0.879200
C161	C16	0.777900	0.251400	0.120300
H41	H4	0.796600	0.252400	0.201700
C171	C17	0.832700	0.310000	0.044600
C181	C18	0.804400	0.309100	0.922600
C191	C19	0.922300	0.370600	0.100700
C201	C20	0.858900	0.371300	0.835500
K51	K5	0.714160	0.925420	0.989530
O171	O17	0.528000	0.148070	0.600300
O181	O18	0.380000	0.063070	0.654500
O191	O19	0.352300	0.143500	0.226600
O201	O20	0.411300	0.062610	0.379200
C211	C21	0.277900	0.248600	0.620300
H51	H5	0.296600	0.247600	0.701700
C221	C22	0.332700	0.190000	0.544600
C231	C23	0.304400	0.190900	0.422600
C241	C24	0.422300	0.129400	0.600700
C251	C25	0.358900	0.128700	0.335500
K61	K6	0.214160	0.425420	0.989530
O211	O21	0.028000	0.648070	0.600300
O221	O22	0.880000	0.563070	0.654500
O231	O23	0.852300	0.643500	0.226600
O241	O24	0.911300	0.562610	0.379200
C261	C26	0.777900	0.748600	0.620300
H61	H6	0.796600	0.747600	0.701700
C271	C27	0.832700	0.690000	0.544600
C281	C28	0.804400	0.690900	0.422600
C291	C29	0.922300	0.629400	0.600700
C301	C30	0.858900	0.628700	0.335500
K71	K7	0.285840	0.925420	0.510470
O251	O25	0.472000	0.148070	0.899700
O261	O26	0.620000	0.063070	0.845500
O271	O27	0.647700	0.143500	0.273400
O281	O28	0.588700	0.062610	0.120800
C311	C31	0.722100	0.248600	0.879700
H71	H7	0.703400	0.247600	0.798300
C321	C32	0.667300	0.190000	0.955400
C331	C33	0.695600	0.190900	0.077400
C341	C34	0.577700	0.129400	0.899300
C351	C35	0.641100	0.128700	0.164500
K81	K8	0.785840	0.425420	0.510470
O291	O29	0.972000	0.648070	0.899700
O301	O30	0.120000	0.563070	0.845500
O311	O31	0.147700	0.643500	0.273400
O321	O32	0.088700	0.562610	0.120800
C361	C36	0.222100	0.748600	0.879700
H81	H8	0.203400	0.747600	0.798300
C371	C37	0.167300	0.690000	0.955400
C381	C38	0.195600	0.690900	0.077400
C391	C39	0.077700	0.629400	0.899300
C401	C40	0.141100	0.628700	0.164500
Co11	Co1	0.500000	0.002820	0.250000
Co21	Co2	0.000000	0.502820	0.250000
Co31	Co3	0.500000	0.997180	0.750000
Co41	Co4	0.000000	0.497180	0.750000
