data_POKGEC_clean_PM
_symmetry_space_group_name_H-M	'P1'
_cell_length_a	14.496200
_cell_length_b	14.496200
_cell_length_c	16.114000
_cell_angle_alpha	91.069800
_cell_angle_beta	91.069800
_cell_angle_gamma	94.763700
_symmetry_Int_Tables_number 1

loop_
_symmetry_equiv_pos_as_xyz
'x,y,z'

loop_
_atom_site_label
_atom_site_type_symbol
_atom_site_fract_x
_atom_site_fract_y
_atom_site_fract_z
Ni11	Ni1	0.479690	0.186830	0.385720
Ni21	Ni2	0.813170	0.520310	0.114280
Ni31	Ni3	0.520310	0.813170	0.614280
Ni41	Ni4	0.186830	0.479690	0.885720
Ni51	Ni5	0.883400	0.116600	0.250000
Ni61	Ni6	0.116600	0.883400	0.750000
H11	H1	0.369400	0.039200	0.284700
H21	H2	0.719800	0.995600	0.143700
H31	H3	0.072200	0.262000	0.067900
H41	H4	0.761200	0.264600	0.168500
H51	H5	0.214800	0.169600	0.259500
H61	H6	0.345300	0.330300	0.090800
H71	H7	0.301700	0.611900	0.005600
H81	H8	0.032500	0.593900	0.992500
H91	H9	0.080700	0.717100	0.094200
H101	H10	0.635800	0.038600	0.323400
H111	H11	0.643200	0.941400	0.005300
H121	H12	0.586000	0.896600	0.244400
H131	H13	0.476100	0.134500	0.072100
H141	H14	0.625300	0.233100	0.076800
H151	H15	0.295600	0.960600	0.183300
H161	H16	0.371700	0.666500	0.138200
H171	H17	0.470600	0.770200	0.214000
H181	H18	0.195600	0.855200	0.110000
H191	H19	0.960800	0.630600	0.215300
H201	H20	0.004400	0.280200	0.356300
H211	H21	0.738000	0.927800	0.432100
H221	H22	0.735400	0.238800	0.331500
H231	H23	0.830400	0.785200	0.240500
H241	H24	0.669700	0.654700	0.409200
H251	H25	0.388100	0.698300	0.494400
H261	H26	0.406100	0.967500	0.507500
H271	H27	0.282900	0.919300	0.405800
H281	H28	0.961400	0.364200	0.176600
H291	H29	0.058600	0.356800	0.494700
H301	H30	0.103400	0.414000	0.255600
H311	H31	0.865500	0.523900	0.427900
H321	H32	0.766900	0.374700	0.423200
H331	H33	0.039400	0.704400	0.316700
H341	H34	0.333500	0.628300	0.361800
H351	H35	0.229800	0.529400	0.286000
H361	H36	0.144800	0.804400	0.390000
H371	H37	0.630600	0.960800	0.715300
H381	H38	0.280200	0.004400	0.856300
H391	H39	0.927800	0.738000	0.932100
H401	H40	0.238800	0.735400	0.831500
H411	H41	0.785200	0.830400	0.740500
H421	H42	0.654700	0.669700	0.909200
H431	H43	0.698300	0.388100	0.994400
H441	H44	0.967500	0.406100	0.007500
H451	H45	0.919300	0.282900	0.905800
H461	H46	0.364200	0.961400	0.676600
H471	H47	0.356800	0.058600	0.994700
H481	H48	0.414000	0.103400	0.755600
H491	H49	0.523900	0.865500	0.927900
H501	H50	0.374700	0.766900	0.923200
H511	H51	0.704400	0.039400	0.816700
H521	H52	0.628300	0.333500	0.861800
H531	H53	0.529400	0.229800	0.786000
H541	H54	0.804400	0.144800	0.890000
H551	H55	0.039200	0.369400	0.784700
H561	H56	0.995600	0.719800	0.643700
H571	H57	0.262000	0.072200	0.567900
H581	H58	0.264600	0.761200	0.668500
H591	H59	0.169600	0.214800	0.759500
H601	H60	0.330300	0.345300	0.590800
H611	H61	0.611900	0.301700	0.505600
H621	H62	0.593900	0.032500	0.492500
H631	H63	0.717100	0.080700	0.594200
H641	H64	0.038600	0.635800	0.823400
H651	H65	0.941400	0.643200	0.505300
H661	H66	0.896600	0.586000	0.744400
H671	H67	0.134500	0.476100	0.572100
H681	H68	0.233100	0.625300	0.576800
H691	H69	0.960600	0.295600	0.683300
H701	H70	0.666500	0.371700	0.638200
H711	H71	0.770200	0.470600	0.714000
H721	H72	0.855200	0.195600	0.610000
C11	C1	0.429700	0.021700	0.284500
C21	C2	0.041000	0.165000	0.201300
C31	C3	0.202700	0.367700	0.995400
C41	C4	0.712900	0.058700	0.139500
C51	C5	0.393000	0.876000	0.204200
C61	C6	0.127700	0.259500	0.097300
C71	C7	0.129600	0.208600	0.168600
C81	C8	0.735000	0.206200	0.152400
C91	C9	0.274800	0.751200	0.116400
C101	C10	0.207700	0.307100	0.068600
C111	C11	0.213000	0.203600	0.211200
C121	C12	0.293100	0.248700	0.182600
C131	C13	0.291100	0.300500	0.110600
C141	C14	0.240300	0.622700	0.014800
C151	C15	0.093300	0.613100	0.007700
C161	C16	0.119300	0.681300	0.064300
C171	C17	0.571400	0.045800	0.046800
C181	C18	0.382700	0.246700	0.231700
C191	C19	0.575500	0.020900	0.305400
C201	C20	0.585500	0.965100	0.003300
C211	C21	0.548700	0.942100	0.261900
C221	C22	0.485900	0.080300	0.043100
C231	C23	0.659900	0.189300	0.101400
C241	C24	0.311800	0.900600	0.174300
C251	C25	0.355600	0.726600	0.147300
C261	C26	0.415300	0.788700	0.192200
C271	C27	0.251800	0.837400	0.130100
C281	C28	0.978300	0.570300	0.215500
C291	C29	0.835000	0.959000	0.298700
C301	C30	0.632300	0.797300	0.504600
C311	C31	0.941300	0.287100	0.360500
C321	C32	0.124000	0.607000	0.295800
C331	C33	0.740500	0.872300	0.402700
C341	C34	0.791400	0.870400	0.331400
C351	C35	0.793800	0.265000	0.347600
C361	C36	0.248800	0.725200	0.383600
C371	C37	0.692900	0.792300	0.431400
C381	C38	0.796400	0.787000	0.288800
C391	C39	0.751300	0.706900	0.317400
C401	C40	0.699500	0.708900	0.389400
C411	C41	0.377300	0.759700	0.485200
C421	C42	0.386900	0.906700	0.492300
C431	C43	0.318700	0.880700	0.435700
C441	C44	0.954200	0.428600	0.453200
C451	C45	0.753300	0.617300	0.268300
C461	C46	0.979100	0.424500	0.194600
C471	C47	0.034900	0.414500	0.496700
C481	C48	0.057900	0.451300	0.238100
C491	C49	0.919700	0.514100	0.456900
C501	C50	0.810700	0.340100	0.398600
C511	C51	0.099400	0.688200	0.325700
C521	C52	0.273400	0.644400	0.352700
C531	C53	0.211300	0.584700	0.307800
C541	C54	0.162600	0.748200	0.369900
C551	C55	0.570300	0.978300	0.715500
C561	C56	0.959000	0.835000	0.798700
C571	C57	0.797300	0.632300	0.004600
C581	C58	0.287100	0.941300	0.860500
C591	C59	0.607000	0.124000	0.795800
C601	C60	0.872300	0.740500	0.902700
C611	C61	0.870400	0.791400	0.831400
C621	C62	0.265000	0.793800	0.847600
C631	C63	0.725200	0.248800	0.883600
C641	C64	0.792300	0.692900	0.931400
C651	C65	0.787000	0.796400	0.788800
C661	C66	0.706900	0.751300	0.817400
C671	C67	0.708900	0.699500	0.889400
C681	C68	0.759700	0.377300	0.985200
C691	C69	0.906700	0.386900	0.992300
C701	C70	0.880700	0.318700	0.935700
C711	C71	0.428600	0.954200	0.953200
C721	C72	0.617300	0.753300	0.768300
C731	C73	0.424500	0.979100	0.694600
C741	C74	0.414500	0.034900	0.996700
C751	C75	0.451300	0.057900	0.738100
C761	C76	0.514100	0.919700	0.956900
C771	C77	0.340100	0.810700	0.898600
C781	C78	0.688200	0.099400	0.825700
C791	C79	0.644400	0.273400	0.852700
C801	C80	0.584700	0.211300	0.807800
C811	C81	0.748200	0.162600	0.869900
C821	C82	0.021700	0.429700	0.784500
C831	C83	0.165000	0.041000	0.701300
C841	C84	0.367700	0.202700	0.495400
C851	C85	0.058700	0.712900	0.639500
C861	C86	0.876000	0.393000	0.704200
C871	C87	0.259500	0.127700	0.597300
C881	C88	0.208600	0.129600	0.668600
C891	C89	0.206200	0.735000	0.652400
C901	C90	0.751200	0.274800	0.616400
C911	C91	0.307100	0.207700	0.568600
C921	C92	0.203600	0.213000	0.711200
C931	C93	0.248700	0.293100	0.682600
C941	C94	0.300500	0.291100	0.610600
C951	C95	0.622700	0.240300	0.514800
C961	C96	0.613100	0.093300	0.507700
C971	C97	0.681300	0.119300	0.564300
C981	C98	0.045800	0.571400	0.546800
C991	C99	0.246700	0.382700	0.731700
C1001	C100	0.020900	0.575500	0.805400
C1011	C101	0.965100	0.585500	0.503300
C1021	C102	0.942100	0.548700	0.761900
C1031	C103	0.080300	0.485900	0.543100
C1041	C104	0.189300	0.659900	0.601400
C1051	C105	0.900600	0.311800	0.674300
C1061	C106	0.726600	0.355600	0.647300
C1071	C107	0.788700	0.415300	0.692200
C1081	C108	0.837400	0.251800	0.630100
N11	N1	0.766900	0.123700	0.176900
N21	N2	0.645300	0.094700	0.093400
N31	N3	0.169700	0.577300	0.976500
N41	N4	0.214200	0.686600	0.068600
N51	N5	0.501500	0.070300	0.318700
N61	N6	0.455000	0.943000	0.249100
N71	N7	0.876300	0.233100	0.323100
N81	N8	0.905300	0.354700	0.406600
N91	N9	0.422700	0.830300	0.523500
N101	N10	0.313400	0.785800	0.431400
N111	N11	0.929700	0.498500	0.181300
N121	N12	0.057000	0.545000	0.250900
N131	N13	0.233100	0.876300	0.823100
N141	N14	0.354700	0.905300	0.906600
N151	N15	0.830300	0.422700	0.023500
N161	N16	0.785800	0.313400	0.931400
N171	N17	0.498500	0.929700	0.681300
N181	N18	0.545000	0.057000	0.750900
N191	N19	0.123700	0.766900	0.676900
N201	N20	0.094700	0.645300	0.593400
N211	N21	0.577300	0.169700	0.476500
N221	N22	0.686600	0.214200	0.568600
N231	N23	0.070300	0.501500	0.818700
N241	N24	0.943000	0.455000	0.749100
O11	O1	0.966730	0.172030	0.160200
O21	O2	0.038040	0.125900	0.270400
O31	O3	0.126640	0.374320	0.959400
O41	O4	0.274760	0.415780	0.972200
O51	O5	0.457100	0.276100	0.198700
O61	O6	0.377310	0.213990	0.302300
O71	O7	0.827970	0.033270	0.339800
O81	O8	0.874100	0.961960	0.229600
O91	O9	0.625680	0.873360	0.540600
O101	O10	0.584220	0.725240	0.527800
O111	O11	0.723900	0.542900	0.301300
O121	O12	0.786010	0.622690	0.197700
O131	O13	0.033270	0.827970	0.839800
O141	O14	0.961960	0.874100	0.729600
O151	O15	0.873360	0.625680	0.040600
O161	O16	0.725240	0.584220	0.027800
O171	O17	0.542900	0.723900	0.801300
O181	O18	0.622690	0.786010	0.697700
O191	O19	0.172030	0.966730	0.660200
O201	O20	0.125900	0.038040	0.770400
O211	O21	0.374320	0.126640	0.459400
O221	O22	0.415780	0.274760	0.472200
O231	O23	0.276100	0.457100	0.698700
O241	O24	0.213990	0.377310	0.802300
