data_POKSUF_clean_PM
_symmetry_space_group_name_H-M	'P1'
_cell_length_a	6.106900
_cell_length_b	12.141200
_cell_length_c	22.602500
_cell_angle_alpha	90.000000
_cell_angle_beta	90.000000
_cell_angle_gamma	90.570500
_symmetry_Int_Tables_number 1

loop_
_symmetry_equiv_pos_as_xyz
'x,y,z'

loop_
_atom_site_label
_atom_site_type_symbol
_atom_site_fract_x
_atom_site_fract_y
_atom_site_fract_z
Sm11	Sm1	0.454180	0.943050	0.850900
Sm21	Sm2	0.954180	0.443050	0.649100
Sm31	Sm3	0.045820	0.556950	0.350900
Sm41	Sm4	0.545820	0.056950	0.149100
Cu11	Cu1	0.500000	0.000000	0.500000
Cu21	Cu2	0.000000	0.500000	0.000000
H11	H1	0.670300	0.109300	0.383100
H21	H2	0.063900	0.250000	0.158000
H31	H3	0.038800	0.923300	0.678200
H41	H4	0.538800	0.423300	0.821800
H51	H5	0.461200	0.576700	0.178200
H61	H6	0.329700	0.890700	0.616900
H71	H7	0.426200	0.892400	0.287300
H81	H8	0.829700	0.390700	0.883100
H91	H9	0.961200	0.076700	0.321800
H101	H10	0.563900	0.750000	0.342000
H111	H11	0.170300	0.609300	0.116900
H121	H12	0.926200	0.392400	0.212700
H131	H13	0.073800	0.607600	0.787300
H141	H14	0.436100	0.250000	0.658000
H151	H15	0.936100	0.750000	0.842000
H161	H16	0.573800	0.107600	0.712700
C11	C1	0.540800	0.715400	0.755810
C21	C2	0.766600	0.052800	0.391960
C31	C3	0.459200	0.284600	0.244190
C41	C4	0.340100	0.777900	0.736340
C51	C5	0.280500	0.697700	0.922780
C61	C6	0.840100	0.277900	0.763660
C71	C7	0.066300	0.367100	0.220860
C81	C8	0.123400	0.091000	0.548550
C91	C9	0.546800	0.389300	0.087080
C101	C10	0.525300	0.456400	0.311880
C111	C11	0.376600	0.409000	0.048550
C121	C12	0.645800	0.778700	0.310800
C131	C13	0.611300	0.618400	0.728430
C141	C14	0.933700	0.632900	0.779140
C151	C15	0.559500	0.468100	0.854700
C161	C16	0.440500	0.531900	0.145300
C171	C17	0.059500	0.968100	0.645300
C181	C18	0.233400	0.947200	0.608040
C191	C19	0.111300	0.118400	0.771570
C201	C20	0.659900	0.222100	0.263660
C211	C21	0.959200	0.784600	0.255810
C221	C22	0.876600	0.909000	0.451450
C231	C23	0.040800	0.215400	0.744190
C241	C24	0.974700	0.043600	0.811880
C251	C25	0.159900	0.722100	0.236340
C261	C26	0.173600	0.153900	0.492170
C271	C27	0.719500	0.302300	0.077220
C281	C28	0.780500	0.197700	0.577220
C291	C29	0.474700	0.543600	0.688120
C301	C30	0.940500	0.031900	0.354700
C311	C31	0.453200	0.610700	0.912920
C321	C32	0.266600	0.552800	0.108040
C331	C33	0.354200	0.221300	0.689200
C341	C34	0.219500	0.802300	0.422780
C351	C35	0.854200	0.721300	0.810800
C361	C36	0.326400	0.346100	0.992170
C371	C37	0.826400	0.846100	0.507830
C381	C38	0.046800	0.889300	0.412920
C391	C39	0.623400	0.591000	0.951450
C401	C40	0.953200	0.110700	0.587080
C411	C41	0.388700	0.381600	0.271570
C421	C42	0.433700	0.132900	0.720860
C431	C43	0.566300	0.867100	0.279140
C441	C44	0.145800	0.278700	0.189200
C451	C45	0.025300	0.956400	0.188120
C461	C46	0.888700	0.881600	0.228430
C471	C47	0.673600	0.653900	0.007830
C481	C48	0.733400	0.447200	0.891960
N11	N1	0.764000	0.507400	0.940300
N21	N2	0.338500	0.233600	0.202720
N31	N3	0.264000	0.007400	0.559700
N41	N4	0.815900	0.582900	0.737380
N51	N5	0.236000	0.492600	0.059700
N61	N6	0.919900	0.050500	0.635830
N71	N7	0.838500	0.733600	0.297280
N81	N8	0.736000	0.992600	0.440300
N91	N9	0.684100	0.917100	0.237380
N101	N10	0.419900	0.550500	0.864170
N111	N11	0.661500	0.766400	0.797280
N121	N12	0.315900	0.082900	0.762620
N131	N13	0.184100	0.417100	0.262620
N141	N14	0.161500	0.266400	0.702720
N151	N15	0.080100	0.949500	0.364170
N161	N16	0.580100	0.449500	0.135830
O11	O1	0.282790	0.520790	0.701200
O21	O2	0.625300	0.170900	0.544730
O31	O3	0.721100	0.146300	0.229850
O41	O4	0.717210	0.479210	0.298800
O51	O5	0.800400	0.285800	0.605050
O61	O6	0.740600	0.246300	0.312250
O71	O7	0.572800	0.739800	0.017510
O81	O8	0.778900	0.353700	0.729850
O91	O9	0.427200	0.260200	0.982490
O101	O10	0.374700	0.829100	0.455270
O111	O11	0.300400	0.785800	0.894950
O121	O12	0.240600	0.746300	0.187750
O131	O13	0.259400	0.753700	0.687750
O141	O14	0.699600	0.214200	0.105050
O151	O15	0.199600	0.714200	0.394950
O161	O16	0.759400	0.253700	0.812250
O171	O17	0.182600	0.389300	0.959090
O181	O18	0.125300	0.670900	0.955270
O191	O19	0.317400	0.110700	0.459090
O201	O20	0.874700	0.329100	0.044730
O211	O21	0.072800	0.239800	0.482490
O221	O22	0.920900	0.996400	0.144860
O231	O23	0.927200	0.760200	0.517510
O241	O24	0.079100	0.003600	0.855140
O251	O25	0.817400	0.610700	0.040910
O261	O26	0.682600	0.889300	0.540910
O271	O27	0.782790	0.020790	0.798800
O281	O28	0.217210	0.979210	0.201200
O291	O29	0.579100	0.503600	0.644860
O301	O30	0.420900	0.496400	0.355140
O311	O31	0.221100	0.646300	0.270150
O321	O32	0.278900	0.853700	0.770150
