data_POLBUN_clean_PM
_symmetry_space_group_name_H-M	'P1'
_cell_length_a	10.154000
_cell_length_b	18.393000
_cell_length_c	15.773000
_cell_angle_alpha	90.000000
_cell_angle_beta	90.000000
_cell_angle_gamma	90.000000
_symmetry_Int_Tables_number 1

loop_
_symmetry_equiv_pos_as_xyz
'x,y,z'

loop_
_atom_site_label
_atom_site_type_symbol
_atom_site_fract_x
_atom_site_fract_y
_atom_site_fract_z
Ga11	Ga1	0.180100	0.717900	0.538100
Ga21	Ga2	0.336600	0.674000	0.351200
Ga31	Ga3	0.149000	0.905700	0.503600
P11	P1	0.359500	0.575900	0.516400
P21	P2	0.150500	0.831700	0.684500
P31	P3	0.379600	0.817000	0.437200
F11	F1	0.173300	0.685800	0.419300
F21	F2	0.084400	0.803900	0.501400
O11	O1	0.498900	0.566600	0.555500
O21	O2	0.286000	0.503700	0.519800
O31	O3	0.379200	0.599000	0.423200
O41	O4	0.284600	0.633200	0.568600
O51	O5	0.235200	0.853800	0.760600
O61	O6	0.183600	0.754600	0.654600
O71	O7	0.186100	0.890000	0.618000
O81	O8	0.005000	0.838200	0.710500
O91	O9	0.291400	0.885500	0.431400
O101	O10	0.359700	0.774200	0.353800
O111	O11	0.343100	0.770800	0.514200
O121	O12	0.523000	0.841800	0.444200
Ga41	Ga4	0.319900	0.282100	0.038100
Ga51	Ga5	0.163400	0.326000	0.851200
Ga61	Ga6	0.351000	0.094300	0.003600
P41	P4	0.140500	0.424100	0.016400
P51	P5	0.349500	0.168300	0.184500
P61	P6	0.120400	0.183000	0.937200
F31	F3	0.326700	0.314200	0.919300
F41	F4	0.415600	0.196100	0.001400
O131	O13	0.001100	0.433400	0.055500
O141	O14	0.214000	0.496300	0.019800
O151	O15	0.120800	0.401000	0.923200
O161	O16	0.215400	0.366800	0.068600
O171	O17	0.264800	0.146200	0.260600
O181	O18	0.316400	0.245400	0.154600
O191	O19	0.313900	0.110000	0.118000
O201	O20	0.495000	0.161800	0.210500
O211	O21	0.208600	0.114500	0.931400
O221	O22	0.140300	0.225800	0.853800
O231	O23	0.156900	0.229200	0.014200
O241	O24	0.977000	0.158200	0.944200
Ga71	Ga7	0.819900	0.217900	0.961900
Ga81	Ga8	0.663400	0.174000	0.148800
Ga91	Ga9	0.851000	0.405700	0.996400
P71	P7	0.640500	0.075900	0.983600
P81	P8	0.849500	0.331700	0.815500
P91	P9	0.620400	0.317000	0.062800
F51	F5	0.826700	0.185800	0.080700
F61	F6	0.915600	0.303900	0.998600
O251	O25	0.501100	0.066600	0.944500
O261	O26	0.714000	0.003700	0.980200
O271	O27	0.620800	0.099000	0.076800
O281	O28	0.715400	0.133200	0.931400
O291	O29	0.764800	0.353800	0.739400
O301	O30	0.816400	0.254600	0.845400
O311	O31	0.813900	0.390000	0.882000
O321	O32	0.995000	0.338200	0.789500
O331	O33	0.708600	0.385500	0.068600
O341	O34	0.640300	0.274200	0.146200
O351	O35	0.656900	0.270800	0.985800
O361	O36	0.477000	0.341800	0.055800
Ga101	Ga10	0.680100	0.782100	0.461900
Ga111	Ga11	0.836600	0.826000	0.648800
Ga121	Ga12	0.649000	0.594300	0.496400
P101	P10	0.859500	0.924100	0.483600
P111	P11	0.650500	0.668300	0.315500
P121	P12	0.879600	0.683000	0.562800
F71	F7	0.673300	0.814200	0.580700
F81	F8	0.584400	0.696100	0.498600
O371	O37	0.998900	0.933400	0.444500
O381	O38	0.786000	0.996300	0.480200
O391	O39	0.879200	0.901000	0.576800
O401	O40	0.784600	0.866800	0.431400
O411	O41	0.735200	0.646200	0.239400
O421	O42	0.683600	0.745400	0.345400
O431	O43	0.686100	0.610000	0.382000
O441	O44	0.505000	0.661800	0.289500
O451	O45	0.791400	0.614500	0.568600
O461	O46	0.859700	0.725800	0.646200
O471	O47	0.843100	0.729200	0.485800
O481	O48	0.023000	0.658200	0.555800
Ga131	Ga13	0.819900	0.282100	0.461900
Ga141	Ga14	0.663400	0.326000	0.648800
Ga151	Ga15	0.851000	0.094300	0.496400
P131	P13	0.640500	0.424100	0.483600
P141	P14	0.849500	0.168300	0.315500
P151	P15	0.620400	0.183000	0.562800
F91	F9	0.826700	0.314200	0.580700
F101	F10	0.915600	0.196100	0.498600
O491	O49	0.501100	0.433400	0.444500
O501	O50	0.714000	0.496300	0.480200
O511	O51	0.620800	0.401000	0.576800
O521	O52	0.715400	0.366800	0.431400
O531	O53	0.764800	0.146200	0.239400
O541	O54	0.816400	0.245400	0.345400
O551	O55	0.813900	0.110000	0.382000
O561	O56	0.995000	0.161800	0.289500
O571	O57	0.708600	0.114500	0.568600
O581	O58	0.640300	0.225800	0.646200
O591	O59	0.656900	0.229200	0.485800
O601	O60	0.477000	0.158200	0.555800
Ga161	Ga16	0.680100	0.717900	0.961900
Ga171	Ga17	0.836600	0.674000	0.148800
Ga181	Ga18	0.649000	0.905700	0.996400
P161	P16	0.859500	0.575900	0.983600
P171	P17	0.650500	0.831700	0.815500
P181	P18	0.879600	0.817000	0.062800
F111	F11	0.673300	0.685800	0.080700
F121	F12	0.584400	0.803900	0.998600
O611	O61	0.998900	0.566600	0.944500
O621	O62	0.786000	0.503700	0.980200
O631	O63	0.879200	0.599000	0.076800
O641	O64	0.784600	0.633200	0.931400
O651	O65	0.735200	0.853800	0.739400
O661	O66	0.683600	0.754600	0.845400
O671	O67	0.686100	0.890000	0.882000
O681	O68	0.505000	0.838200	0.789500
O691	O69	0.791400	0.885500	0.068600
O701	O70	0.859700	0.774200	0.146200
O711	O71	0.843100	0.770800	0.985800
O721	O72	0.023000	0.841800	0.055800
Ga191	Ga19	0.180100	0.782100	0.038100
Ga201	Ga20	0.336600	0.826000	0.851200
Ga211	Ga21	0.149000	0.594300	0.003600
P191	P19	0.359500	0.924100	0.016400
P201	P20	0.150500	0.668300	0.184500
P211	P21	0.379600	0.683000	0.937200
F131	F13	0.173300	0.814200	0.919300
F141	F14	0.084400	0.696100	0.001400
O731	O73	0.498900	0.933400	0.055500
O741	O74	0.286000	0.996300	0.019800
O751	O75	0.379200	0.901000	0.923200
O761	O76	0.284600	0.866800	0.068600
O771	O77	0.235200	0.646200	0.260600
O781	O78	0.183600	0.745400	0.154600
O791	O79	0.186100	0.610000	0.118000
O801	O80	0.005000	0.661800	0.210500
O811	O81	0.291400	0.614500	0.931400
O821	O82	0.359700	0.725800	0.853800
O831	O83	0.343100	0.729200	0.014200
O841	O84	0.523000	0.658200	0.944200
Ga221	Ga22	0.319900	0.217900	0.538100
Ga231	Ga23	0.163400	0.174000	0.351200
Ga241	Ga24	0.351000	0.405700	0.503600
P221	P22	0.140500	0.075900	0.516400
P231	P23	0.349500	0.331700	0.684500
P241	P24	0.120400	0.317000	0.437200
F151	F15	0.326700	0.185800	0.419300
F161	F16	0.415600	0.303900	0.501400
O851	O85	0.001100	0.066600	0.555500
O861	O86	0.214000	0.003700	0.519800
O871	O87	0.120800	0.099000	0.423200
O881	O88	0.215400	0.133200	0.568600
O891	O89	0.264800	0.353800	0.760600
O901	O90	0.316400	0.254600	0.654600
O911	O91	0.313900	0.390000	0.618000
O921	O92	0.495000	0.338200	0.710500
O931	O93	0.208600	0.385500	0.431400
O941	O94	0.140300	0.274200	0.353800
O951	O95	0.156900	0.270800	0.514200
O961	O96	0.977000	0.341800	0.444200
