data_POLBIB_clean_PM
_symmetry_space_group_name_H-M	'P1'
_cell_length_a	10.567000
_cell_length_b	16.970000
_cell_length_c	8.413000
_cell_angle_alpha	90.000000
_cell_angle_beta	90.000000
_cell_angle_gamma	90.000000
_symmetry_Int_Tables_number 1

loop_
_symmetry_equiv_pos_as_xyz
'x,y,z'

loop_
_atom_site_label
_atom_site_type_symbol
_atom_site_fract_x
_atom_site_fract_y
_atom_site_fract_z
V11	V1	0.140600	0.564300	0.779800
P11	P1	0.870700	0.586800	0.970900
O11	O1	0.015900	0.585300	0.949200
O21	O2	0.835900	0.545400	0.128300
O31	O3	0.806000	0.545700	0.829600
O41	O4	0.826000	0.673000	0.989200
O51	O5	0.659200	0.826100	0.758600
V21	V2	0.359400	0.435700	0.279800
P21	P2	0.629300	0.413200	0.470900
O61	O6	0.484100	0.414700	0.449200
O71	O7	0.664100	0.454600	0.628300
O81	O8	0.694000	0.454300	0.329600
O91	O9	0.674000	0.327000	0.489200
O101	O10	0.840800	0.173900	0.258600
V31	V3	0.859400	0.064300	0.220200
P31	P3	0.129300	0.086800	0.029100
O111	O11	0.984100	0.085300	0.050800
O121	O12	0.164100	0.045400	0.871700
O131	O13	0.194000	0.045700	0.170400
O141	O14	0.174000	0.173000	0.010800
O151	O15	0.340800	0.326100	0.241400
V41	V4	0.640600	0.935700	0.720200
P41	P4	0.370700	0.913200	0.529100
O161	O16	0.515900	0.914700	0.550800
O171	O17	0.335900	0.954600	0.371700
O181	O18	0.306000	0.954300	0.670400
O191	O19	0.326000	0.827000	0.510800
O201	O20	0.159200	0.673900	0.741400
V51	V5	0.859400	0.435700	0.220200
P51	P5	0.129300	0.413200	0.029100
O211	O21	0.984100	0.414700	0.050800
O221	O22	0.164100	0.454600	0.871700
O231	O23	0.194000	0.454300	0.170400
O241	O24	0.174000	0.327000	0.010800
O251	O25	0.340800	0.173900	0.241400
V61	V6	0.640600	0.564300	0.720200
P61	P6	0.370700	0.586800	0.529100
O261	O26	0.515900	0.585300	0.550800
O271	O27	0.335900	0.545400	0.371700
O281	O28	0.306000	0.545700	0.670400
O291	O29	0.326000	0.673000	0.510800
O301	O30	0.159200	0.826100	0.741400
V71	V7	0.140600	0.935700	0.779800
P71	P7	0.870700	0.913200	0.970900
O311	O31	0.015900	0.914700	0.949200
O321	O32	0.835900	0.954600	0.128300
O331	O33	0.806000	0.954300	0.829600
O341	O34	0.826000	0.827000	0.989200
O351	O35	0.659200	0.673900	0.758600
V81	V8	0.359400	0.064300	0.279800
P81	P8	0.629300	0.086800	0.470900
O361	O36	0.484100	0.085300	0.449200
O371	O37	0.664100	0.045400	0.628300
O381	O38	0.694000	0.045700	0.329600
O391	O39	0.674000	0.173000	0.489200
O401	O40	0.840800	0.326100	0.258600
V91	V9	0.779100	0.750000	0.826100
V101	V10	0.720900	0.250000	0.326100
V111	V11	0.220900	0.250000	0.173900
V121	V12	0.279100	0.750000	0.673900
