data_POLNAG_clean_PM
_symmetry_space_group_name_H-M	'P1'
_cell_length_a	9.642700
_cell_length_b	9.939200
_cell_length_c	9.983200
_cell_angle_alpha	86.303000
_cell_angle_beta	81.118000
_cell_angle_gamma	65.262000
_symmetry_Int_Tables_number 1

loop_
_symmetry_equiv_pos_as_xyz
'x,y,z'

loop_
_atom_site_label
_atom_site_type_symbol
_atom_site_fract_x
_atom_site_fract_y
_atom_site_fract_z
Cd11	Cd1	0.950390	0.724920	0.541500
Cd21	Cd2	0.049610	0.275080	0.458500
H11	H1	0.171000	0.994300	0.805200
H21	H2	0.822200	0.897600	0.997600
H31	H3	0.492100	0.656700	0.669700
H41	H4	0.707300	0.419300	0.325700
H51	H5	0.449300	0.449000	0.894600
H61	H6	0.416800	0.413600	0.051900
H71	H7	0.199300	0.611300	0.968700
H81	H8	0.297500	0.708900	0.945800
H91	H9	0.233200	0.832400	0.393600
H101	H10	0.071300	0.598400	0.216700
H111	H11	0.829000	0.005700	0.194800
H121	H12	0.177800	0.102400	0.002400
H131	H13	0.507900	0.343300	0.330300
H141	H14	0.292700	0.580700	0.674300
H151	H15	0.550700	0.551000	0.105400
H161	H16	0.583200	0.586400	0.948100
H171	H17	0.800700	0.388700	0.031300
H181	H18	0.702500	0.291100	0.054200
H191	H19	0.766800	0.167600	0.606400
H201	H20	0.928700	0.401600	0.783300
C11	C1	0.993300	0.862900	0.754300
C21	C2	0.996500	0.935000	0.880800
C31	C3	0.101300	0.996500	0.884300
C41	C4	0.894600	0.939200	0.998400
C51	C5	0.751300	0.587400	0.496000
C61	C6	0.619800	0.544300	0.496500
C71	C7	0.495500	0.593100	0.601000
C81	C8	0.622800	0.452100	0.396800
C91	C9	0.430100	0.488600	0.987300
C101	C10	0.281200	0.629800	0.002200
C111	C11	0.216700	0.779200	0.326500
C121	C12	0.127100	0.653400	0.233800
C131	C13	0.006700	0.137100	0.245700
C141	C14	0.003500	0.065000	0.119200
C151	C15	0.898700	0.003500	0.115700
C161	C16	0.105400	0.060800	0.001600
C171	C17	0.248700	0.412600	0.504000
C181	C18	0.380200	0.455700	0.503500
C191	C19	0.504500	0.406900	0.399000
C201	C20	0.377200	0.547900	0.603200
C211	C21	0.569900	0.511400	0.012700
C221	C22	0.718800	0.370200	0.997800
C231	C23	0.783300	0.220800	0.673500
C241	C24	0.872900	0.346600	0.766200
N11	N1	0.230900	0.679200	0.143000
N21	N2	0.289700	0.760400	0.203400
N31	N3	0.114200	0.715800	0.350600
N41	N4	0.769100	0.320800	0.857000
N51	N5	0.710300	0.239600	0.796600
N61	N6	0.885800	0.284200	0.649400
O11	O1	0.067000	0.877200	0.644000
O21	O2	0.915500	0.786000	0.762900
O31	O3	0.735200	0.685200	0.578900
O41	O4	0.873100	0.525600	0.412800
O51	O5	0.933000	0.122800	0.356000
O61	O6	0.084500	0.214000	0.237100
O71	O7	0.264800	0.314800	0.421100
O81	O8	0.126900	0.474400	0.587200
