data_POMMAH_clean_PM
_symmetry_space_group_name_H-M	'P1'
_cell_length_a	21.917300
_cell_length_b	21.917300
_cell_length_c	28.268500
_cell_angle_alpha	90.000000
_cell_angle_beta	90.000000
_cell_angle_gamma	120.000000
_symmetry_Int_Tables_number 1

loop_
_symmetry_equiv_pos_as_xyz
'x,y,z'

loop_
_atom_site_label
_atom_site_type_symbol
_atom_site_fract_x
_atom_site_fract_y
_atom_site_fract_z
O11	O1	0.203100	0.566500	0.443500
O21	O2	0.281000	0.527600	0.445400
I11	I1	0.076570	0.464210	0.191690
Cu11	Cu1	0.050670	0.482500	0.282330
C11	C1	0.230300	0.532000	0.428300
C21	C2	0.149800	0.502800	0.359200
H11	H1	0.137600	0.536200	0.370500
C31	C3	0.132700	0.410700	0.307900
H21	H2	0.101500	0.375300	0.286600
C41	C4	0.198800	0.489400	0.385600
N11	N1	0.121300	0.466900	0.317800
C51	C5	0.222900	0.446800	0.368200
H31	H3	0.261400	0.444800	0.382000
C61	C6	0.184500	0.404400	0.326500
H41	H4	0.197100	0.372400	0.313100
O31	O3	0.433500	0.636600	0.443500
O41	O4	0.472400	0.753400	0.445400
I21	I2	0.535790	0.612360	0.191690
Cu21	Cu2	0.517500	0.568170	0.282330
C71	C7	0.468000	0.698300	0.428300
C81	C8	0.497200	0.647000	0.359200
H51	H5	0.463800	0.601400	0.370500
C91	C9	0.589300	0.722000	0.307900
H61	H6	0.624700	0.726200	0.286600
C101	C10	0.510600	0.709400	0.385600
N21	N2	0.533100	0.654400	0.317800
C111	C11	0.553200	0.776100	0.368200
H71	H7	0.555200	0.816600	0.382000
C121	C12	0.595600	0.780100	0.326500
H81	H8	0.627600	0.824700	0.313100
O51	O5	0.363400	0.796900	0.443500
O61	O6	0.246600	0.719000	0.445400
I31	I3	0.387640	0.923430	0.191690
Cu31	Cu3	0.431830	0.949330	0.282330
C131	C13	0.301700	0.769700	0.428300
C141	C14	0.353000	0.850200	0.359200
H91	H9	0.398600	0.862400	0.370500
C151	C15	0.278000	0.867300	0.307900
H101	H10	0.273800	0.898500	0.286600
C161	C16	0.290600	0.801200	0.385600
N31	N3	0.345600	0.878700	0.317800
C171	C17	0.223900	0.777100	0.368200
H111	H11	0.183400	0.738600	0.382000
C181	C18	0.219900	0.815500	0.326500
H121	H12	0.175300	0.802900	0.313100
O71	O7	0.796900	0.433500	0.443500
O81	O8	0.719000	0.472400	0.445400
I41	I4	0.923430	0.535790	0.191690
Cu41	Cu4	0.949330	0.517500	0.282330
C191	C19	0.769700	0.468000	0.428300
C201	C20	0.850200	0.497200	0.359200
H131	H13	0.862400	0.463800	0.370500
C211	C21	0.867300	0.589300	0.307900
H141	H14	0.898500	0.624700	0.286600
C221	C22	0.801200	0.510600	0.385600
N41	N4	0.878700	0.533100	0.317800
C231	C23	0.777100	0.553200	0.368200
H151	H15	0.738600	0.555200	0.382000
C241	C24	0.815500	0.595600	0.326500
H161	H16	0.802900	0.627600	0.313100
O91	O9	0.566500	0.363400	0.443500
O101	O10	0.527600	0.246600	0.445400
I51	I5	0.464210	0.387640	0.191690
Cu51	Cu5	0.482500	0.431830	0.282330
C251	C25	0.532000	0.301700	0.428300
C261	C26	0.502800	0.353000	0.359200
H171	H17	0.536200	0.398600	0.370500
C271	C27	0.410700	0.278000	0.307900
H181	H18	0.375300	0.273800	0.286600
C281	C28	0.489400	0.290600	0.385600
N51	N5	0.466900	0.345600	0.317800
C291	C29	0.446800	0.223900	0.368200
H191	H19	0.444800	0.183400	0.382000
C301	C30	0.404400	0.219900	0.326500
H201	H20	0.372400	0.175300	0.313100
O111	O11	0.636600	0.203100	0.443500
O121	O12	0.753400	0.281000	0.445400
I61	I6	0.612360	0.076570	0.191690
Cu61	Cu6	0.568170	0.050670	0.282330
C311	C31	0.698300	0.230300	0.428300
C321	C32	0.647000	0.149800	0.359200
H211	H21	0.601400	0.137600	0.370500
C331	C33	0.722000	0.132700	0.307900
H221	H22	0.726200	0.101500	0.286600
C341	C34	0.709400	0.198800	0.385600
N61	N6	0.654400	0.121300	0.317800
C351	C35	0.776100	0.222900	0.368200
H231	H23	0.816600	0.261400	0.382000
C361	C36	0.780100	0.184500	0.326500
H241	H24	0.824700	0.197100	0.313100
O131	O13	0.566500	0.203100	0.056500
O141	O14	0.527600	0.281000	0.054600
I71	I7	0.464210	0.076570	0.308310
Cu71	Cu7	0.482500	0.050670	0.217670
C371	C37	0.532000	0.230300	0.071700
C381	C38	0.502800	0.149800	0.140800
H251	H25	0.536200	0.137600	0.129500
C391	C39	0.410700	0.132700	0.192100
H261	H26	0.375300	0.101500	0.213400
C401	C40	0.489400	0.198800	0.114400
N71	N7	0.466900	0.121300	0.182200
C411	C41	0.446800	0.222900	0.131800
H271	H27	0.444800	0.261400	0.118000
C421	C42	0.404400	0.184500	0.173500
H281	H28	0.372400	0.197100	0.186900
O151	O15	0.636600	0.433500	0.056500
O161	O16	0.753400	0.472400	0.054600
I81	I8	0.612360	0.535790	0.308310
Cu81	Cu8	0.568170	0.517500	0.217670
C431	C43	0.698300	0.468000	0.071700
C441	C44	0.647000	0.497200	0.140800
H291	H29	0.601400	0.463800	0.129500
C451	C45	0.722000	0.589300	0.192100
H301	H30	0.726200	0.624700	0.213400
C461	C46	0.709400	0.510600	0.114400
N81	N8	0.654400	0.533100	0.182200
C471	C47	0.776100	0.553200	0.131800
H311	H31	0.816600	0.555200	0.118000
C481	C48	0.780100	0.595600	0.173500
H321	H32	0.824700	0.627600	0.186900
O171	O17	0.796900	0.363400	0.056500
O181	O18	0.719000	0.246600	0.054600
I91	I9	0.923430	0.387640	0.308310
Cu91	Cu9	0.949330	0.431830	0.217670
C491	C49	0.769700	0.301700	0.071700
C501	C50	0.850200	0.353000	0.140800
H331	H33	0.862400	0.398600	0.129500
C511	C51	0.867300	0.278000	0.192100
H341	H34	0.898500	0.273800	0.213400
C521	C52	0.801200	0.290600	0.114400
N91	N9	0.878700	0.345600	0.182200
C531	C53	0.777100	0.223900	0.131800
H351	H35	0.738600	0.183400	0.118000
C541	C54	0.815500	0.219900	0.173500
H361	H36	0.802900	0.175300	0.186900
O191	O19	0.433500	0.796900	0.056500
O201	O20	0.472400	0.719000	0.054600
I101	I10	0.535790	0.923430	0.308310
Cu101	Cu10	0.517500	0.949330	0.217670
C551	C55	0.468000	0.769700	0.071700
C561	C56	0.497200	0.850200	0.140800
H371	H37	0.463800	0.862400	0.129500
C571	C57	0.589300	0.867300	0.192100
H381	H38	0.624700	0.898500	0.213400
C581	C58	0.510600	0.801200	0.114400
N101	N10	0.533100	0.878700	0.182200
C591	C59	0.553200	0.777100	0.131800
H391	H39	0.555200	0.738600	0.118000
C601	C60	0.595600	0.815500	0.173500
H401	H40	0.627600	0.802900	0.186900
O211	O21	0.363400	0.566500	0.056500
O221	O22	0.246600	0.527600	0.054600
I111	I11	0.387640	0.464210	0.308310
Cu111	Cu11	0.431830	0.482500	0.217670
C611	C61	0.301700	0.532000	0.071700
C621	C62	0.353000	0.502800	0.140800
H411	H41	0.398600	0.536200	0.129500
C631	C63	0.278000	0.410700	0.192100
H421	H42	0.273800	0.375300	0.213400
C641	C64	0.290600	0.489400	0.114400
N111	N11	0.345600	0.466900	0.182200
C651	C65	0.223900	0.446800	0.131800
H431	H43	0.183400	0.444800	0.118000
C661	C66	0.219900	0.404400	0.173500
H441	H44	0.175300	0.372400	0.186900
O231	O23	0.203100	0.636600	0.056500
O241	O24	0.281000	0.753400	0.054600
I121	I12	0.076570	0.612360	0.308310
Cu121	Cu12	0.050670	0.568170	0.217670
C671	C67	0.230300	0.698300	0.071700
C681	C68	0.149800	0.647000	0.140800
H451	H45	0.137600	0.601400	0.129500
C691	C69	0.132700	0.722000	0.192100
H461	H46	0.101500	0.726200	0.213400
C701	C70	0.198800	0.709400	0.114400
N121	N12	0.121300	0.654400	0.182200
C711	C71	0.222900	0.776100	0.131800
H471	H47	0.261400	0.816600	0.118000
C721	C72	0.184500	0.780100	0.173500
H481	H48	0.197100	0.824700	0.186900
O251	O25	0.796900	0.433500	0.556500
O261	O26	0.719000	0.472400	0.554600
I131	I13	0.923430	0.535790	0.808310
Cu131	Cu13	0.949330	0.517500	0.717670
C731	C73	0.769700	0.468000	0.571700
C741	C74	0.850200	0.497200	0.640800
H491	H49	0.862400	0.463800	0.629500
C751	C75	0.867300	0.589300	0.692100
H501	H50	0.898500	0.624700	0.713400
C761	C76	0.801200	0.510600	0.614400
N131	N13	0.878700	0.533100	0.682200
C771	C77	0.777100	0.553200	0.631800
H511	H51	0.738600	0.555200	0.618000
C781	C78	0.815500	0.595600	0.673500
H521	H52	0.802900	0.627600	0.686900
O271	O27	0.566500	0.363400	0.556500
O281	O28	0.527600	0.246600	0.554600
I141	I14	0.464210	0.387640	0.808310
Cu141	Cu14	0.482500	0.431830	0.717670
C791	C79	0.532000	0.301700	0.571700
C801	C80	0.502800	0.353000	0.640800
H531	H53	0.536200	0.398600	0.629500
C811	C81	0.410700	0.278000	0.692100
H541	H54	0.375300	0.273800	0.713400
C821	C82	0.489400	0.290600	0.614400
N141	N14	0.466900	0.345600	0.682200
C831	C83	0.446800	0.223900	0.631800
H551	H55	0.444800	0.183400	0.618000
C841	C84	0.404400	0.219900	0.673500
H561	H56	0.372400	0.175300	0.686900
O291	O29	0.636600	0.203100	0.556500
O301	O30	0.753400	0.281000	0.554600
I151	I15	0.612360	0.076570	0.808310
Cu151	Cu15	0.568170	0.050670	0.717670
C851	C85	0.698300	0.230300	0.571700
C861	C86	0.647000	0.149800	0.640800
H571	H57	0.601400	0.137600	0.629500
C871	C87	0.722000	0.132700	0.692100
H581	H58	0.726200	0.101500	0.713400
C881	C88	0.709400	0.198800	0.614400
N151	N15	0.654400	0.121300	0.682200
C891	C89	0.776100	0.222900	0.631800
H591	H59	0.816600	0.261400	0.618000
C901	C90	0.780100	0.184500	0.673500
H601	H60	0.824700	0.197100	0.686900
O311	O31	0.203100	0.566500	0.556500
O321	O32	0.281000	0.527600	0.554600
I161	I16	0.076570	0.464210	0.808310
Cu161	Cu16	0.050670	0.482500	0.717670
C911	C91	0.230300	0.532000	0.571700
C921	C92	0.149800	0.502800	0.640800
H611	H61	0.137600	0.536200	0.629500
C931	C93	0.132700	0.410700	0.692100
H621	H62	0.101500	0.375300	0.713400
C941	C94	0.198800	0.489400	0.614400
N161	N16	0.121300	0.466900	0.682200
C951	C95	0.222900	0.446800	0.631800
H631	H63	0.261400	0.444800	0.618000
C961	C96	0.184500	0.404400	0.673500
H641	H64	0.197100	0.372400	0.686900
O331	O33	0.433500	0.636600	0.556500
O341	O34	0.472400	0.753400	0.554600
I171	I17	0.535790	0.612360	0.808310
Cu171	Cu17	0.517500	0.568170	0.717670
C971	C97	0.468000	0.698300	0.571700
C981	C98	0.497200	0.647000	0.640800
H651	H65	0.463800	0.601400	0.629500
C991	C99	0.589300	0.722000	0.692100
H661	H66	0.624700	0.726200	0.713400
C1001	C100	0.510600	0.709400	0.614400
N171	N17	0.533100	0.654400	0.682200
C1011	C101	0.553200	0.776100	0.631800
H671	H67	0.555200	0.816600	0.618000
C1021	C102	0.595600	0.780100	0.673500
H681	H68	0.627600	0.824700	0.686900
O351	O35	0.363400	0.796900	0.556500
O361	O36	0.246600	0.719000	0.554600
I181	I18	0.387640	0.923430	0.808310
Cu181	Cu18	0.431830	0.949330	0.717670
C1031	C103	0.301700	0.769700	0.571700
C1041	C104	0.353000	0.850200	0.640800
H691	H69	0.398600	0.862400	0.629500
C1051	C105	0.278000	0.867300	0.692100
H701	H70	0.273800	0.898500	0.713400
C1061	C106	0.290600	0.801200	0.614400
N181	N18	0.345600	0.878700	0.682200
C1071	C107	0.223900	0.777100	0.631800
H711	H71	0.183400	0.738600	0.618000
C1081	C108	0.219900	0.815500	0.673500
H721	H72	0.175300	0.802900	0.686900
O371	O37	0.433500	0.796900	0.943500
O381	O38	0.472400	0.719000	0.945400
I191	I19	0.535790	0.923430	0.691690
Cu191	Cu19	0.517500	0.949330	0.782330
C1091	C109	0.468000	0.769700	0.928300
C1101	C110	0.497200	0.850200	0.859200
H731	H73	0.463800	0.862400	0.870500
C1111	C111	0.589300	0.867300	0.807900
H741	H74	0.624700	0.898500	0.786600
C1121	C112	0.510600	0.801200	0.885600
N191	N19	0.533100	0.878700	0.817800
C1131	C113	0.553200	0.777100	0.868200
H751	H75	0.555200	0.738600	0.882000
C1141	C114	0.595600	0.815500	0.826500
H761	H76	0.627600	0.802900	0.813100
O391	O39	0.363400	0.566500	0.943500
O401	O40	0.246600	0.527600	0.945400
I201	I20	0.387640	0.464210	0.691690
Cu201	Cu20	0.431830	0.482500	0.782330
C1151	C115	0.301700	0.532000	0.928300
C1161	C116	0.353000	0.502800	0.859200
H771	H77	0.398600	0.536200	0.870500
C1171	C117	0.278000	0.410700	0.807900
H781	H78	0.273800	0.375300	0.786600
C1181	C118	0.290600	0.489400	0.885600
N201	N20	0.345600	0.466900	0.817800
C1191	C119	0.223900	0.446800	0.868200
H791	H79	0.183400	0.444800	0.882000
C1201	C120	0.219900	0.404400	0.826500
H801	H80	0.175300	0.372400	0.813100
O411	O41	0.203100	0.636600	0.943500
O421	O42	0.281000	0.753400	0.945400
I211	I21	0.076570	0.612360	0.691690
Cu211	Cu21	0.050670	0.568170	0.782330
C1211	C121	0.230300	0.698300	0.928300
C1221	C122	0.149800	0.647000	0.859200
H811	H81	0.137600	0.601400	0.870500
C1231	C123	0.132700	0.722000	0.807900
H821	H82	0.101500	0.726200	0.786600
C1241	C124	0.198800	0.709400	0.885600
N211	N21	0.121300	0.654400	0.817800
C1251	C125	0.222900	0.776100	0.868200
H831	H83	0.261400	0.816600	0.882000
C1261	C126	0.184500	0.780100	0.826500
H841	H84	0.197100	0.824700	0.813100
O431	O43	0.566500	0.203100	0.943500
O441	O44	0.527600	0.281000	0.945400
I221	I22	0.464210	0.076570	0.691690
Cu221	Cu22	0.482500	0.050670	0.782330
C1271	C127	0.532000	0.230300	0.928300
C1281	C128	0.502800	0.149800	0.859200
H851	H85	0.536200	0.137600	0.870500
C1291	C129	0.410700	0.132700	0.807900
H861	H86	0.375300	0.101500	0.786600
C1301	C130	0.489400	0.198800	0.885600
N221	N22	0.466900	0.121300	0.817800
C1311	C131	0.446800	0.222900	0.868200
H871	H87	0.444800	0.261400	0.882000
C1321	C132	0.404400	0.184500	0.826500
H881	H88	0.372400	0.197100	0.813100
O451	O45	0.636600	0.433500	0.943500
O461	O46	0.753400	0.472400	0.945400
I231	I23	0.612360	0.535790	0.691690
Cu231	Cu23	0.568170	0.517500	0.782330
C1331	C133	0.698300	0.468000	0.928300
C1341	C134	0.647000	0.497200	0.859200
H891	H89	0.601400	0.463800	0.870500
C1351	C135	0.722000	0.589300	0.807900
H901	H90	0.726200	0.624700	0.786600
C1361	C136	0.709400	0.510600	0.885600
N231	N23	0.654400	0.533100	0.817800
C1371	C137	0.776100	0.553200	0.868200
H911	H91	0.816600	0.555200	0.882000
C1381	C138	0.780100	0.595600	0.826500
H921	H92	0.824700	0.627600	0.813100
O471	O47	0.796900	0.363400	0.943500
O481	O48	0.719000	0.246600	0.945400
I241	I24	0.923430	0.387640	0.691690
Cu241	Cu24	0.949330	0.431830	0.782330
C1391	C139	0.769700	0.301700	0.928300
C1401	C140	0.850200	0.353000	0.859200
H931	H93	0.862400	0.398600	0.870500
C1411	C141	0.867300	0.278000	0.807900
H941	H94	0.898500	0.273800	0.786600
C1421	C142	0.801200	0.290600	0.885600
N241	N24	0.878700	0.345600	0.817800
C1431	C143	0.777100	0.223900	0.868200
H951	H95	0.738600	0.183400	0.882000
C1441	C144	0.815500	0.219900	0.826500
H961	H96	0.802900	0.175300	0.813100
In11	In1	0.230730	0.643580	0.500000
In21	In2	0.356420	0.587150	0.500000
In31	In3	0.412850	0.769270	0.500000
In41	In4	0.769270	0.356420	0.500000
In51	In5	0.643580	0.412850	0.500000
In61	In6	0.587150	0.230730	0.500000
In71	In7	0.643580	0.230730	0.000000
In81	In8	0.587150	0.356420	0.000000
In91	In9	0.769270	0.412850	0.000000
In101	In10	0.356420	0.769270	0.000000
In111	In11	0.412850	0.643580	0.000000
In121	In12	0.230730	0.587150	0.000000
O491	O49	0.333330	0.666670	0.500000
O501	O50	0.666670	0.333330	0.500000
O511	O51	0.666670	0.333330	0.000000
O521	O52	0.333330	0.666670	0.000000
