data_POQKAI_clean_PM
_symmetry_space_group_name_H-M	'P1'
_cell_length_a	9.140500
_cell_length_b	9.198400
_cell_length_c	9.612000
_cell_angle_alpha	90.000000
_cell_angle_beta	115.995000
_cell_angle_gamma	90.000000
_symmetry_Int_Tables_number 1

loop_
_symmetry_equiv_pos_as_xyz
'x,y,z'

loop_
_atom_site_label
_atom_site_type_symbol
_atom_site_fract_x
_atom_site_fract_y
_atom_site_fract_z
P11	P1	0.846090	0.830970	0.024620
H11	H1	0.905000	0.728000	0.949000
P21	P2	0.676890	0.400900	0.923430
H21	H2	0.757000	0.509000	0.884000
O11	O1	0.733000	0.758600	0.082400
O21	O2	0.502800	0.412200	0.804900
O31	O3	0.703300	0.426500	0.088300
O41	O4	0.991500	0.907100	0.147300
O51	O5	0.739800	0.932700	0.895300
O61	O6	0.758800	0.258100	0.917800
P31	P3	0.653910	0.830970	0.475380
H31	H3	0.595000	0.728000	0.551000
P41	P4	0.823110	0.400900	0.576570
H41	H4	0.743000	0.509000	0.616000
O71	O7	0.767000	0.758600	0.417600
O81	O8	0.997200	0.412200	0.695100
O91	O9	0.796700	0.426500	0.411700
O101	O10	0.508500	0.907100	0.352700
O111	O11	0.760200	0.932700	0.604700
O121	O12	0.741200	0.258100	0.582200
P51	P5	0.153910	0.169030	0.975380
H51	H5	0.095000	0.272000	0.051000
P61	P6	0.323110	0.599100	0.076570
H61	H6	0.243000	0.491000	0.116000
O131	O13	0.267000	0.241400	0.917600
O141	O14	0.497200	0.587800	0.195100
O151	O15	0.296700	0.573500	0.911700
O161	O16	0.008500	0.092900	0.852700
O171	O17	0.260200	0.067300	0.104700
O181	O18	0.241200	0.741900	0.082200
P71	P7	0.346090	0.169030	0.524620
H71	H7	0.405000	0.272000	0.449000
P81	P8	0.176890	0.599100	0.423430
H81	H8	0.257000	0.491000	0.384000
O191	O19	0.233000	0.241400	0.582400
O201	O20	0.002800	0.587800	0.304900
O211	O21	0.203300	0.573500	0.588300
O221	O22	0.491500	0.092900	0.647300
O231	O23	0.239800	0.067300	0.395300
O241	O24	0.258800	0.741900	0.417800
In11	In1	0.250000	0.896640	0.250000
In21	In2	0.750000	0.103360	0.750000
In31	In3	0.750000	0.602030	0.250000
In41	In4	0.250000	0.397970	0.750000
