data_POQXAV_charged_PM
_symmetry_space_group_name_H-M	'P1'
_cell_length_a	7.410600
_cell_length_b	20.065100
_cell_length_c	31.188400
_cell_angle_alpha	90.000000
_cell_angle_beta	90.000000
_cell_angle_gamma	90.000000
_symmetry_Int_Tables_number 1

loop_
_symmetry_equiv_pos_as_xyz
'x,y,z'

loop_
_atom_site_label
_atom_site_type_symbol
_atom_site_fract_x
_atom_site_fract_y
_atom_site_fract_z
Ni11	Ni1	0.277450	0.516350	0.568120
Ni21	Ni2	0.578800	0.984450	0.234210
Ni31	Ni3	0.144220	0.996690	0.379130
Ni41	Ni4	0.722550	0.483650	0.068120
Ni51	Ni5	0.421200	0.015550	0.734210
Ni61	Ni6	0.855780	0.003310	0.879130
Ni71	Ni7	0.777450	0.983650	0.568120
Ni81	Ni8	0.078800	0.515550	0.234210
Ni91	Ni9	0.644220	0.503310	0.379130
Ni101	Ni10	0.222550	0.016350	0.068120
Ni111	Ni11	0.921200	0.484450	0.734210
Ni121	Ni12	0.355780	0.496690	0.879130
H11	H1	0.215200	0.852100	0.509800
H21	H2	0.103100	0.660800	0.442200
H31	H3	0.580200	0.436100	0.291300
H41	H4	0.647800	0.159300	0.350000
H51	H5	0.630200	0.055700	0.320200
H61	H6	0.343100	0.668000	0.575900
H71	H7	0.692800	0.254400	0.375100
H81	H8	0.516600	0.734300	0.217300
H91	H9	0.634400	0.642800	0.191900
H101	H10	0.142600	0.566900	0.481100
H111	H11	0.490600	0.836700	0.248900
H121	H12	0.565700	0.332200	0.260900
H131	H13	0.690500	0.924500	0.149100
H141	H14	0.707500	0.359800	0.401900
H151	H15	0.709600	0.825100	0.112800
H161	H16	0.189300	0.948100	0.470400
H171	H17	0.117200	0.747400	0.403300
H181	H18	0.298400	0.764900	0.539600
H191	H19	0.567900	0.237000	0.234500
H201	H20	0.082100	0.846200	0.367300
H211	H21	0.655500	0.735200	0.079200
H221	H22	0.671600	0.545600	0.156500
H231	H23	0.533900	0.131100	0.209200
H241	H24	0.697200	0.633400	0.047900
H251	H25	0.784800	0.147900	0.009800
H261	H26	0.896900	0.339200	0.942200
H271	H27	0.419800	0.563900	0.791300
H281	H28	0.352200	0.840700	0.850000
H291	H29	0.369800	0.944300	0.820200
H301	H30	0.656900	0.332000	0.075900
H311	H31	0.307200	0.745600	0.875100
H321	H32	0.483400	0.265700	0.717300
H331	H33	0.365600	0.357200	0.691900
H341	H34	0.857400	0.433100	0.981100
H351	H35	0.509400	0.163300	0.748900
H361	H36	0.434300	0.667800	0.760900
H371	H37	0.309500	0.075500	0.649100
H381	H38	0.292500	0.640200	0.901900
H391	H39	0.290400	0.174900	0.612800
H401	H40	0.810700	0.051900	0.970400
H411	H41	0.882800	0.252600	0.903300
H421	H42	0.701600	0.235100	0.039600
H431	H43	0.432100	0.763000	0.734500
H441	H44	0.917900	0.153800	0.867300
H451	H45	0.344500	0.264800	0.579200
H461	H46	0.328400	0.454400	0.656500
H471	H47	0.466100	0.868900	0.709200
H481	H48	0.302800	0.366600	0.547900
H491	H49	0.715200	0.647900	0.509800
H501	H50	0.603100	0.839200	0.442200
H511	H51	0.080200	0.063900	0.291300
H521	H52	0.147800	0.340700	0.350000
H531	H53	0.130200	0.444300	0.320200
H541	H54	0.843100	0.832000	0.575900
H551	H55	0.192800	0.245600	0.375100
H561	H56	0.016600	0.765700	0.217300
H571	H57	0.134400	0.857200	0.191900
H581	H58	0.642600	0.933100	0.481100
H591	H59	0.990600	0.663300	0.248900
H601	H60	0.065700	0.167800	0.260900
H611	H61	0.190500	0.575500	0.149100
H621	H62	0.207500	0.140200	0.401900
H631	H63	0.209600	0.674900	0.112800
H641	H64	0.689300	0.551900	0.470400
H651	H65	0.617200	0.752600	0.403300
H661	H66	0.798400	0.735100	0.539600
H671	H67	0.067900	0.263000	0.234500
H681	H68	0.582100	0.653800	0.367300
H691	H69	0.155500	0.764800	0.079200
H701	H70	0.171600	0.954400	0.156500
H711	H71	0.033900	0.368900	0.209200
H721	H72	0.197200	0.866600	0.047900
H731	H73	0.284800	0.352100	0.009800
H741	H74	0.396900	0.160800	0.942200
H751	H75	0.919800	0.936100	0.791300
H761	H76	0.852200	0.659300	0.850000
H771	H77	0.869800	0.555700	0.820200
H781	H78	0.156900	0.168000	0.075900
H791	H79	0.807200	0.754400	0.875100
H801	H80	0.983400	0.234300	0.717300
H811	H81	0.865600	0.142800	0.691900
H821	H82	0.357400	0.066900	0.981100
H831	H83	0.009400	0.336700	0.748900
H841	H84	0.934300	0.832200	0.760900
H851	H85	0.809500	0.424500	0.649100
H861	H86	0.792500	0.859800	0.901900
H871	H87	0.790400	0.325100	0.612800
H881	H88	0.310700	0.448100	0.970400
H891	H89	0.382800	0.247400	0.903300
H901	H90	0.201600	0.264900	0.039600
H911	H91	0.932100	0.737000	0.734500
H921	H92	0.417900	0.346200	0.867300
H931	H93	0.844500	0.235200	0.579200
H941	H94	0.828400	0.045600	0.656500
H951	H95	0.966100	0.631100	0.709200
H961	H96	0.802800	0.133400	0.547900
C11	C1	0.191500	0.849470	0.480580
C21	C2	0.152200	0.663840	0.469570
C31	C3	0.602800	0.399120	0.308390
C41	C4	0.627300	0.155260	0.320670
C51	C5	0.198600	0.724240	0.485360
C61	C6	0.615000	0.092650	0.302550
C71	C7	0.623500	0.280470	0.314520
C81	C8	0.292100	0.666100	0.548720
C91	C9	0.668500	0.290570	0.357340
C101	C10	0.552200	0.772300	0.202510
C111	C11	0.609500	0.211740	0.296050
C121	C12	0.647200	0.642980	0.162220
C131	C13	0.171600	0.787710	0.461250
C141	C14	0.619300	0.767450	0.161370
C151	C15	0.176400	0.607370	0.493260
C161	C16	0.538500	0.834340	0.221350
C171	C17	0.592900	0.336510	0.289860
C181	C18	0.653400	0.885800	0.162910
C191	C19	0.676800	0.354210	0.373210
C201	C20	0.667800	0.825880	0.140950
C211	C21	0.176300	0.907280	0.456610
C221	C22	0.642600	0.701980	0.139820
C231	C23	0.132200	0.787540	0.417770
C241	C24	0.268000	0.724650	0.526750
C251	C25	0.578100	0.201050	0.253230
C261	C26	0.115100	0.847500	0.396010
C271	C27	0.660200	0.697160	0.096140
C281	C28	0.670700	0.584650	0.140420
C291	C29	0.561800	0.136650	0.238080
C301	C30	0.684800	0.635220	0.077540
C311	C31	0.808500	0.150530	0.980580
C321	C32	0.847800	0.336160	0.969570
C331	C33	0.397200	0.600880	0.808390
C341	C34	0.372700	0.844740	0.820670
C351	C35	0.801400	0.275760	0.985360
C361	C36	0.385000	0.907350	0.802550
C371	C37	0.376500	0.719530	0.814520
C381	C38	0.707900	0.333900	0.048720
C391	C39	0.331500	0.709430	0.857340
C401	C40	0.447800	0.227700	0.702510
C411	C41	0.390500	0.788260	0.796050
C421	C42	0.352800	0.357020	0.662220
C431	C43	0.828400	0.212290	0.961250
C441	C44	0.380700	0.232550	0.661370
C451	C45	0.823600	0.392630	0.993260
C461	C46	0.461500	0.165660	0.721350
C471	C47	0.407100	0.663490	0.789860
C481	C48	0.346600	0.114200	0.662910
C491	C49	0.323200	0.645790	0.873210
C501	C50	0.332200	0.174120	0.640950
C511	C51	0.823700	0.092720	0.956610
C521	C52	0.357400	0.298020	0.639820
C531	C53	0.867800	0.212460	0.917770
C541	C54	0.732000	0.275350	0.026750
C551	C55	0.421900	0.798950	0.753230
C561	C56	0.884900	0.152500	0.896010
C571	C57	0.339800	0.302840	0.596140
C581	C58	0.329300	0.415350	0.640420
C591	C59	0.438200	0.863350	0.738080
C601	C60	0.315200	0.364780	0.577540
C611	C61	0.691500	0.650530	0.480580
C621	C62	0.652200	0.836160	0.469570
C631	C63	0.102800	0.100880	0.308390
C641	C64	0.127300	0.344740	0.320670
C651	C65	0.698600	0.775760	0.485360
C661	C66	0.115000	0.407350	0.302550
C671	C67	0.123500	0.219530	0.314520
C681	C68	0.792100	0.833900	0.548720
C691	C69	0.168500	0.209430	0.357340
C701	C70	0.052200	0.727700	0.202510
C711	C71	0.109500	0.288260	0.296050
C721	C72	0.147200	0.857020	0.162220
C731	C73	0.671600	0.712290	0.461250
C741	C74	0.119300	0.732550	0.161370
C751	C75	0.676400	0.892630	0.493260
C761	C76	0.038500	0.665660	0.221350
C771	C77	0.092900	0.163490	0.289860
C781	C78	0.153400	0.614200	0.162910
C791	C79	0.176800	0.145790	0.373210
C801	C80	0.167800	0.674120	0.140950
C811	C81	0.676300	0.592720	0.456610
C821	C82	0.142600	0.798020	0.139820
C831	C83	0.632200	0.712460	0.417770
C841	C84	0.768000	0.775350	0.526750
C851	C85	0.078100	0.298950	0.253230
C861	C86	0.615100	0.652500	0.396010
C871	C87	0.160200	0.802840	0.096140
C881	C88	0.170700	0.915350	0.140420
C891	C89	0.061800	0.363350	0.238080
C901	C90	0.184800	0.864780	0.077540
C911	C91	0.308500	0.349470	0.980580
C921	C92	0.347800	0.163840	0.969570
C931	C93	0.897200	0.899120	0.808390
C941	C94	0.872700	0.655260	0.820670
C951	C95	0.301400	0.224240	0.985360
C961	C96	0.885000	0.592650	0.802550
C971	C97	0.876500	0.780470	0.814520
C981	C98	0.207900	0.166100	0.048720
C991	C99	0.831500	0.790570	0.857340
C1001	C100	0.947800	0.272300	0.702510
C1011	C101	0.890500	0.711740	0.796050
C1021	C102	0.852800	0.142980	0.662220
C1031	C103	0.328400	0.287710	0.961250
C1041	C104	0.880700	0.267450	0.661370
C1051	C105	0.323600	0.107370	0.993260
C1061	C106	0.961500	0.334340	0.721350
C1071	C107	0.907100	0.836510	0.789860
C1081	C108	0.846600	0.385800	0.662910
C1091	C109	0.823200	0.854210	0.873210
C1101	C110	0.832200	0.325880	0.640950
C1111	C111	0.323700	0.407280	0.956610
C1121	C112	0.857400	0.201980	0.639820
C1131	C113	0.367800	0.287540	0.917770
C1141	C114	0.232000	0.224650	0.026750
C1151	C115	0.921900	0.701050	0.753230
C1161	C116	0.384900	0.347500	0.896010
C1171	C117	0.839800	0.197160	0.596140
C1181	C118	0.829300	0.084650	0.640420
C1191	C119	0.938200	0.636650	0.738080
C1201	C120	0.815200	0.135220	0.577540
S11	S1	0.479780	0.916910	0.330820
S21	S2	0.432130	0.594110	0.657160
S31	S3	0.520220	0.083090	0.830820
S41	S4	0.567870	0.405890	0.157160
S51	S5	0.979780	0.583090	0.330820
S61	S6	0.932130	0.905890	0.657160
S71	S7	0.020220	0.416910	0.830820
S81	S8	0.067870	0.094110	0.157160
N11	N1	0.143300	0.906630	0.413940
N21	N2	0.643100	0.409000	0.349640
N31	N3	0.582800	0.082500	0.261470
N41	N4	0.589300	0.891170	0.202770
N51	N5	0.246000	0.606580	0.533000
N61	N6	0.692000	0.578800	0.098790
N71	N7	0.856700	0.093370	0.913940
N81	N8	0.356900	0.591000	0.849640
N91	N9	0.417200	0.917500	0.761470
N101	N10	0.410700	0.108830	0.702770
N111	N11	0.754000	0.393420	0.033000
N121	N12	0.308000	0.421200	0.598790
N131	N13	0.643300	0.593370	0.413940
N141	N14	0.143100	0.091000	0.349640
N151	N15	0.082800	0.417500	0.261470
N161	N16	0.089300	0.608830	0.202770
N171	N17	0.746000	0.893420	0.533000
N181	N18	0.192000	0.921200	0.098790
N191	N19	0.356700	0.406630	0.913940
N201	N20	0.856900	0.909000	0.849640
N211	N21	0.917200	0.582500	0.761470
N221	N22	0.910700	0.391170	0.702770
N231	N23	0.254000	0.106580	0.033000
N241	N24	0.808000	0.078800	0.598790
O11	O1	0.591200	0.936590	0.293740
O21	O2	0.290700	0.567920	0.628420
O31	O3	0.306600	0.955290	0.329450
O41	O4	0.301900	0.979880	0.239320
O51	O5	0.552200	0.524630	0.560950
O61	O6	0.855800	0.983350	0.235180
O71	O7	0.007700	0.515410	0.579410
O81	O8	0.566900	0.030730	0.174040
O91	O9	0.923500	0.967410	0.343910
O101	O10	0.249600	0.465690	0.510410
O111	O11	0.377100	0.025210	0.410730
O121	O12	0.970900	0.034610	0.424940
O131	O13	0.409300	0.566740	0.700190
O141	O14	0.443500	0.845730	0.328890
O151	O15	0.579000	0.933050	0.370320
O161	O16	0.610600	0.574100	0.641090
O171	O17	0.417300	0.666090	0.659450
O181	O18	0.408800	0.063410	0.793740
O191	O19	0.709300	0.432080	0.128420
O201	O20	0.693400	0.044710	0.829450
O211	O21	0.698100	0.020120	0.739320
O221	O22	0.447800	0.475370	0.060950
O231	O23	0.144200	0.016650	0.735180
O241	O24	0.992300	0.484590	0.079410
O251	O25	0.433100	0.969270	0.674040
O261	O26	0.076500	0.032590	0.843910
O271	O27	0.750400	0.534310	0.010410
O281	O28	0.622900	0.974790	0.910730
O291	O29	0.029100	0.965390	0.924940
O301	O30	0.590700	0.433260	0.200190
O311	O31	0.556500	0.154270	0.828890
O321	O32	0.421000	0.066950	0.870320
O331	O33	0.389400	0.425900	0.141090
O341	O34	0.582700	0.333910	0.159450
O351	O35	0.091200	0.563410	0.293740
O361	O36	0.790700	0.932080	0.628420
O371	O37	0.806600	0.544710	0.329450
O381	O38	0.801900	0.520120	0.239320
O391	O39	0.052200	0.975370	0.560950
O401	O40	0.355800	0.516650	0.235180
O411	O41	0.507700	0.984590	0.579410
O421	O42	0.066900	0.469270	0.174040
O431	O43	0.423500	0.532590	0.343910
O441	O44	0.749600	0.034310	0.510410
O451	O45	0.877100	0.474790	0.410730
O461	O46	0.470900	0.465390	0.424940
O471	O47	0.909300	0.933260	0.700190
O481	O48	0.943500	0.654270	0.328890
O491	O49	0.079000	0.566950	0.370320
O501	O50	0.110600	0.925900	0.641090
O511	O51	0.917300	0.833910	0.659450
O521	O52	0.908800	0.436590	0.793740
O531	O53	0.209300	0.067920	0.128420
O541	O54	0.193400	0.455290	0.829450
O551	O55	0.198100	0.479880	0.739320
O561	O56	0.947800	0.024630	0.060950
O571	O57	0.644200	0.483350	0.735180
O581	O58	0.492300	0.015410	0.079410
O591	O59	0.933100	0.530730	0.674040
O601	O60	0.576500	0.467410	0.843910
O611	O61	0.250400	0.965690	0.010410
O621	O62	0.122900	0.525210	0.910730
O631	O63	0.529100	0.534610	0.924940
O641	O64	0.090700	0.066740	0.200190
O651	O65	0.056500	0.345730	0.828890
O661	O66	0.921000	0.433050	0.870320
O671	O67	0.889400	0.074100	0.141090
O681	O68	0.082700	0.166090	0.159450
S91	S9	0.785580	0.389420	0.511930
O691	O69	0.803900	0.416060	0.555210
O701	O70	0.617800	0.419060	0.493960
O711	O71	0.940200	0.410180	0.484510
O721	O72	0.768700	0.317970	0.513410
S101	S10	0.214420	0.610580	0.011930
O731	O73	0.196100	0.583940	0.055210
O741	O74	0.382200	0.580940	0.993960
O751	O75	0.059800	0.589820	0.984510
O761	O76	0.231300	0.682030	0.013410
S111	S11	0.285580	0.110580	0.511930
O771	O77	0.303900	0.083940	0.555210
O781	O78	0.117800	0.080940	0.493960
O791	O79	0.440200	0.089820	0.484510
O801	O80	0.268700	0.182030	0.513410
S121	S12	0.714420	0.889420	0.011930
O811	O81	0.696100	0.916060	0.055210
O821	O82	0.882200	0.919060	0.993960
O831	O83	0.559800	0.910180	0.984510
O841	O84	0.731300	0.817970	0.013410
