data_PORGAE_clean_PM
_symmetry_space_group_name_H-M	'P1'
_cell_length_a	15.057800
_cell_length_b	13.197000
_cell_length_c	15.272700
_cell_angle_alpha	90.000000
_cell_angle_beta	112.197000
_cell_angle_gamma	90.000000
_symmetry_Int_Tables_number 1

loop_
_symmetry_equiv_pos_as_xyz
'x,y,z'

loop_
_atom_site_label
_atom_site_type_symbol
_atom_site_fract_x
_atom_site_fract_y
_atom_site_fract_z
Ga11	Ga1	0.567380	0.105680	0.653820
Ga21	Ga2	0.731580	0.873080	0.577300
Co11	Co1	0.635320	0.190040	0.367670
P11	P1	0.571600	0.869400	0.657300
P21	P2	0.731700	0.114400	0.575900
P31	P3	0.636800	0.186900	0.864700
O11	O1	0.627000	0.828900	0.600200
O21	O2	0.715600	0.142300	0.952800
O31	O3	0.529500	0.973600	0.622700
O41	O4	0.712600	0.116900	0.470600
O51	O5	0.757200	0.006800	0.615100
O61	O6	0.817800	0.179900	0.629900
O71	O7	0.490500	0.794400	0.643500
O81	O8	0.634900	0.121800	0.783100
O91	O9	0.659800	0.297400	0.851400
O101	O10	0.637900	0.875700	0.761600
O111	O11	0.540600	0.186900	0.876700
O121	O12	0.643700	0.154600	0.590700
Ga31	Ga3	0.067380	0.605680	0.653820
Ga41	Ga4	0.231580	0.373080	0.577300
Co21	Co2	0.135320	0.690040	0.367670
P41	P4	0.071600	0.369400	0.657300
P51	P5	0.231700	0.614400	0.575900
P61	P6	0.136800	0.686900	0.864700
O131	O13	0.127000	0.328900	0.600200
O141	O14	0.215600	0.642300	0.952800
O151	O15	0.029500	0.473600	0.622700
O161	O16	0.212600	0.616900	0.470600
O171	O17	0.257200	0.506800	0.615100
O181	O18	0.317800	0.679900	0.629900
O191	O19	0.990500	0.294400	0.643500
O201	O20	0.134900	0.621800	0.783100
O211	O21	0.159800	0.797400	0.851400
O221	O22	0.137900	0.375700	0.761600
O231	O23	0.040600	0.686900	0.876700
O241	O24	0.143700	0.654600	0.590700
Ga51	Ga5	0.432620	0.105680	0.846180
Ga61	Ga6	0.268420	0.873080	0.922700
Co31	Co3	0.364680	0.190040	0.132330
P71	P7	0.428400	0.869400	0.842700
P81	P8	0.268300	0.114400	0.924100
P91	P9	0.363200	0.186900	0.635300
O251	O25	0.373000	0.828900	0.899800
O261	O26	0.284400	0.142300	0.547200
O271	O27	0.470500	0.973600	0.877300
O281	O28	0.287400	0.116900	0.029400
O291	O29	0.242800	0.006800	0.884900
O301	O30	0.182200	0.179900	0.870100
O311	O31	0.509500	0.794400	0.856500
O321	O32	0.365100	0.121800	0.716900
O331	O33	0.340200	0.297400	0.648600
O341	O34	0.362100	0.875700	0.738400
O351	O35	0.459400	0.186900	0.623300
O361	O36	0.356300	0.154600	0.909300
Ga71	Ga7	0.932620	0.605680	0.846180
Ga81	Ga8	0.768420	0.373080	0.922700
Co41	Co4	0.864680	0.690040	0.132330
P101	P10	0.928400	0.369400	0.842700
P111	P11	0.768300	0.614400	0.924100
P121	P12	0.863200	0.686900	0.635300
O371	O37	0.873000	0.328900	0.899800
O381	O38	0.784400	0.642300	0.547200
O391	O39	0.970500	0.473600	0.877300
O401	O40	0.787400	0.616900	0.029400
O411	O41	0.742800	0.506800	0.884900
O421	O42	0.682200	0.679900	0.870100
O431	O43	0.009500	0.294400	0.856500
O441	O44	0.865100	0.621800	0.716900
O451	O45	0.840200	0.797400	0.648600
O461	O46	0.862100	0.375700	0.738400
O471	O47	0.959400	0.686900	0.623300
O481	O48	0.856300	0.654600	0.909300
Ga91	Ga9	0.432620	0.894320	0.346180
Ga101	Ga10	0.268420	0.126920	0.422700
Co51	Co5	0.364680	0.809960	0.632330
P131	P13	0.428400	0.130600	0.342700
P141	P14	0.268300	0.885600	0.424100
P151	P15	0.363200	0.813100	0.135300
O491	O49	0.373000	0.171100	0.399800
O501	O50	0.284400	0.857700	0.047200
O511	O51	0.470500	0.026400	0.377300
O521	O52	0.287400	0.883100	0.529400
O531	O53	0.242800	0.993200	0.384900
O541	O54	0.182200	0.820100	0.370100
O551	O55	0.509500	0.205600	0.356500
O561	O56	0.365100	0.878200	0.216900
O571	O57	0.340200	0.702600	0.148600
O581	O58	0.362100	0.124300	0.238400
O591	O59	0.459400	0.813100	0.123300
O601	O60	0.356300	0.845400	0.409300
Ga111	Ga11	0.932620	0.394320	0.346180
Ga121	Ga12	0.768420	0.626920	0.422700
Co61	Co6	0.864680	0.309960	0.632330
P161	P16	0.928400	0.630600	0.342700
P171	P17	0.768300	0.385600	0.424100
P181	P18	0.863200	0.313100	0.135300
O611	O61	0.873000	0.671100	0.399800
O621	O62	0.784400	0.357700	0.047200
O631	O63	0.970500	0.526400	0.377300
O641	O64	0.787400	0.383100	0.529400
O651	O65	0.742800	0.493200	0.384900
O661	O66	0.682200	0.320100	0.370100
O671	O67	0.009500	0.705600	0.356500
O681	O68	0.865100	0.378200	0.216900
O691	O69	0.840200	0.202600	0.148600
O701	O70	0.862100	0.624300	0.238400
O711	O71	0.959400	0.313100	0.123300
O721	O72	0.856300	0.345400	0.409300
Ga131	Ga13	0.567380	0.894320	0.153820
Ga141	Ga14	0.731580	0.126920	0.077300
Co71	Co7	0.635320	0.809960	0.867670
P191	P19	0.571600	0.130600	0.157300
P201	P20	0.731700	0.885600	0.075900
P211	P21	0.636800	0.813100	0.364700
O731	O73	0.627000	0.171100	0.100200
O741	O74	0.715600	0.857700	0.452800
O751	O75	0.529500	0.026400	0.122700
O761	O76	0.712600	0.883100	0.970600
O771	O77	0.757200	0.993200	0.115100
O781	O78	0.817800	0.820100	0.129900
O791	O79	0.490500	0.205600	0.143500
O801	O80	0.634900	0.878200	0.283100
O811	O81	0.659800	0.702600	0.351400
O821	O82	0.637900	0.124300	0.261600
O831	O83	0.540600	0.813100	0.376700
O841	O84	0.643700	0.845400	0.090700
Ga151	Ga15	0.067380	0.394320	0.153820
Ga161	Ga16	0.231580	0.626920	0.077300
Co81	Co8	0.135320	0.309960	0.867670
P221	P22	0.071600	0.630600	0.157300
P231	P23	0.231700	0.385600	0.075900
P241	P24	0.136800	0.313100	0.364700
O851	O85	0.127000	0.671100	0.100200
O861	O86	0.215600	0.357700	0.452800
O871	O87	0.029500	0.526400	0.122700
O881	O88	0.212600	0.383100	0.970600
O891	O89	0.257200	0.493200	0.115100
O901	O90	0.317800	0.320100	0.129900
O911	O91	0.990500	0.705600	0.143500
O921	O92	0.134900	0.378200	0.283100
O931	O93	0.159800	0.202600	0.351400
O941	O94	0.137900	0.624300	0.261600
O951	O95	0.040600	0.313100	0.376700
O961	O96	0.143700	0.345400	0.090700
