data_PORLEP_clean_PM
_symmetry_space_group_name_H-M	'P1'
_cell_length_a	15.427200
_cell_length_b	32.589100
_cell_length_c	32.589100
_cell_angle_alpha	107.080000
_cell_angle_beta	99.926800
_cell_angle_gamma	80.073200
_symmetry_Int_Tables_number 1

loop_
_symmetry_equiv_pos_as_xyz
'x,y,z'

loop_
_atom_site_label
_atom_site_type_symbol
_atom_site_fract_x
_atom_site_fract_y
_atom_site_fract_z
Cu11	Cu1	0.203800	0.946130	0.299770
Cu21	Cu2	0.320000	0.957140	0.370100
Cu31	Cu3	0.375920	0.953970	0.294450
Cu41	Cu4	0.277760	0.882500	0.934040
Cu51	Cu5	0.624080	0.046030	0.705550
Cu61	Cu6	0.722240	0.117500	0.065960
Cu71	Cu7	0.296200	0.299770	0.946130
Cu81	Cu8	0.379110	0.501710	0.783650
Cu91	Cu9	0.879110	0.216350	0.498290
Cu101	Cu10	0.667290	0.516910	0.148970
Cu111	Cu11	0.796200	0.053870	0.700230
Cu121	Cu12	0.170700	0.856380	0.862360
Cu131	Cu13	0.310100	0.350400	0.388400
Cu141	Cu14	0.820000	0.629900	0.042860
Cu151	Cu15	0.195530	0.301650	0.334530
Cu161	Cu16	0.662960	0.119550	0.698210
Cu171	Cu17	0.124080	0.294450	0.953970
Cu181	Cu18	0.147700	0.775360	0.421480
Cu191	Cu19	0.783970	0.512360	0.224420
Cu201	Cu20	0.875920	0.705550	0.046030
Cu211	Cu21	0.180000	0.370100	0.957140
Cu221	Cu22	0.167290	0.851030	0.483090
Cu231	Cu23	0.689900	0.649600	0.611600
Cu241	Cu24	0.189900	0.388400	0.350400
Cu251	Cu25	0.222240	0.934040	0.882500
Cu261	Cu26	0.620890	0.498290	0.216350
Cu271	Cu27	0.832710	0.148970	0.516910
Cu281	Cu28	0.120890	0.783650	0.501710
Cu291	Cu29	0.337040	0.880450	0.301790
Cu301	Cu30	0.647700	0.578520	0.224640
Cu311	Cu31	0.695530	0.665470	0.698350
Cu321	Cu32	0.352300	0.421480	0.775360
Cu331	Cu33	0.804470	0.698350	0.665470
Cu341	Cu34	0.777760	0.065960	0.117500
Cu351	Cu35	0.716030	0.224420	0.512360
Cu361	Cu36	0.162960	0.301790	0.880450
Cu371	Cu37	0.852300	0.224640	0.578520
Cu381	Cu38	0.703800	0.700230	0.053870
Cu391	Cu39	0.283970	0.775580	0.487640
Cu401	Cu40	0.329300	0.862360	0.856380
Cu411	Cu41	0.304470	0.334530	0.301650
Cu421	Cu42	0.837040	0.698210	0.119550
Cu431	Cu43	0.829300	0.143620	0.137640
Cu441	Cu44	0.680000	0.042860	0.629900
Cu451	Cu45	0.810100	0.611600	0.649600
Cu461	Cu46	0.332710	0.483090	0.851030
Cu471	Cu47	0.216030	0.487640	0.775580
Cu481	Cu48	0.670700	0.137640	0.143620
H11	H1	0.977000	0.102200	0.442000
H21	H2	0.586900	0.392600	0.521800
H31	H3	0.945700	0.753300	0.648500
H41	H4	0.313900	0.795800	0.325600
H51	H5	0.828900	0.622700	0.316500
H61	H6	0.463600	0.847700	0.546900
H71	H7	0.573600	0.976800	0.321200
H81	H8	0.912200	0.375100	0.139700
H91	H9	0.572200	0.729700	0.414500
H101	H10	0.969200	0.181500	0.224100
H111	H11	0.954200	0.995200	0.341800
H121	H12	0.436200	0.222100	0.236500
H131	H13	0.301700	0.789300	0.172100
H141	H14	0.358500	0.338900	0.805900
H151	H15	0.671100	0.316500	0.622700
H161	H16	0.769800	0.052700	0.461700
H171	H17	0.470300	0.994500	0.576500
H181	H18	0.545800	0.341800	0.995200
H191	H19	0.491500	0.407400	0.654800
H201	H20	0.153400	0.876800	0.130200
H211	H21	0.935100	0.985500	0.742900
H221	H22	0.822500	0.986600	0.485800
H231	H23	0.945200	0.434700	0.237700
H241	H24	0.911700	0.998600	0.222600
H251	H25	0.963600	0.453100	0.152300
H261	H26	0.171100	0.377300	0.683500
H271	H27	0.335500	0.210500	0.703900
H281	H28	0.046000	0.374000	0.042400
H291	H29	0.523000	0.442000	0.102200
H301	H30	0.542900	0.877600	0.064600
H311	H31	0.059000	0.227900	0.723900
H321	H32	0.616800	0.734900	0.315300
H331	H33	0.884300	0.499800	0.113200
H341	H34	0.801700	0.827900	0.210700
H351	H35	0.625800	0.083700	0.555500
H361	H36	0.809500	0.583800	0.395200
H371	H37	0.597900	0.733500	0.554500
H381	H38	0.609000	0.658200	0.311000
H391	H39	0.526700	0.562400	0.831000
H401	H40	0.527600	0.722700	0.093500
H411	H41	0.123600	0.253100	0.150500
H421	H42	0.154200	0.634600	0.968200
H431	H43	0.771100	0.975400	0.229000
H441	H44	0.848200	0.207700	0.943100
H451	H45	0.697300	0.677900	0.508900
H461	H46	0.530800	0.224100	0.181500
H471	H47	0.088300	0.001400	0.777400
H481	H48	0.416600	0.676800	0.802200
H491	H49	0.321600	0.946500	0.747100
H501	H50	0.885200	0.770400	0.985000
H511	H51	0.045800	0.004800	0.658200
H521	H52	0.567000	0.199200	0.769000
H531	H53	0.551700	0.513500	0.941900
H541	H54	0.155800	0.145700	0.263100
H551	H55	0.634200	0.527100	0.720700
H561	H56	0.302700	0.322100	0.491100
H571	H57	0.727700	0.733200	0.793000
H581	H58	0.014900	0.758400	0.942600
H591	H59	0.346600	0.130200	0.876800
H601	H60	0.051700	0.058100	0.486500
H611	H61	0.913100	0.521800	0.392600
H621	H62	0.338600	0.659100	0.849900
H631	H63	0.607000	0.783200	0.150000
H641	H64	0.141500	0.805900	0.338900
H651	H65	0.448300	0.486500	0.058100
H661	H66	0.074600	0.136500	0.767500
H671	H67	0.933000	0.769000	0.199200
H681	H68	0.986200	0.290800	0.501200
H691	H69	0.536400	0.152300	0.453100
H701	H70	0.381800	0.604200	0.264000
H711	H71	0.564900	0.742900	0.985500
H721	H72	0.664500	0.789500	0.296100
H731	H73	0.463600	0.870300	0.191500
H741	H74	0.686400	0.283300	0.079300
H751	H75	0.829000	0.689300	0.865300
H761	H76	0.325900	0.013500	0.889300
H771	H77	0.844000	0.618600	0.797600
H781	H78	0.116800	0.684700	0.265100
H791	H79	0.055500	0.913600	0.435000
H801	H80	0.027600	0.906500	0.277300
H811	H81	0.554500	0.269400	0.558000
H821	H82	0.272300	0.266800	0.207000
H831	H83	0.030800	0.818500	0.775900
H841	H84	0.411700	0.777400	0.001400
H851	H85	0.086900	0.478200	0.607400
H861	H86	0.865800	0.720700	0.527100
H871	H87	0.473300	0.437600	0.169000
H881	H88	0.684100	0.552200	0.862600
H891	H89	0.315900	0.447800	0.137400
H901	H90	0.469200	0.775900	0.818500
H911	H91	0.800700	0.377600	0.707600
H921	H92	0.525800	0.642900	0.532300
H931	H93	0.269800	0.538300	0.947300
H941	H94	0.529700	0.005500	0.423500
H951	H95	0.358600	0.332000	0.117200
H961	H96	0.319000	0.529400	0.348400
H971	H97	0.156000	0.381400	0.202400
H981	H98	0.615700	0.113200	0.499800
H991	H99	0.227700	0.207000	0.266800
H1001	H100	0.425400	0.767500	0.136500
H1011	H101	0.073600	0.678800	0.023200
H1021	H102	0.122700	0.685000	0.843000
H1031	H103	0.474900	0.383800	0.951000
H1041	H104	0.008500	0.654800	0.407400
H1051	H105	0.554800	0.237700	0.434700
H1061	H106	0.348200	0.056900	0.792300
H1071	H107	0.036400	0.546900	0.847700
H1081	H108	0.184100	0.137400	0.447800
H1091	H109	0.686100	0.204200	0.674400
H1101	H110	0.036400	0.191500	0.870300
H1111	H111	0.678400	0.053500	0.252900
H1121	H112	0.699300	0.707600	0.377600
H1131	H113	0.822600	0.541400	0.959800
H1141	H114	0.206900	0.950700	0.607500
H1151	H115	0.171000	0.310700	0.134700
H1161	H116	0.309500	0.604800	0.416200
H1171	H117	0.772600	0.571800	0.536200
H1181	H118	0.109700	0.239800	0.664200
H1191	H119	0.178400	0.747100	0.946500
H1201	H120	0.444500	0.435000	0.913600
H1211	H121	0.282800	0.410700	0.241500
H1221	H122	0.390300	0.664200	0.239800
H1231	H123	0.845800	0.365400	0.031800
H1241	H124	0.661400	0.340900	0.150100
H1251	H125	0.239400	0.090800	0.907600
H1261	H126	0.514900	0.057400	0.241600
H1271	H127	0.377700	0.877900	0.772900
H1281	H128	0.937700	0.985900	0.122500
H1291	H129	0.426400	0.023200	0.678800
H1301	H130	0.103900	0.828300	0.278500
H1311	H131	0.935300	0.929400	0.648800
H1321	H132	0.656000	0.797600	0.618600
H1331	H133	0.618200	0.395800	0.736000
H1341	H134	0.583400	0.323200	0.197800
H1351	H135	0.412200	0.860300	0.624900
H1361	H136	0.612200	0.595200	0.407200
H1371	H137	0.190500	0.416200	0.604800
H1381	H138	0.445500	0.730600	0.442000
H1391	H139	0.383200	0.265100	0.684700
H1401	H140	0.957100	0.064600	0.877600
H1411	H141	0.164500	0.703900	0.210500
H1421	H142	0.023000	0.897800	0.558000
H1431	H143	0.614800	0.985000	0.770400
H1441	H144	0.844200	0.854300	0.736900
H1451	H145	0.513800	0.501200	0.290800
H1461	H146	0.155900	0.727500	0.149700
H1471	H147	0.376400	0.150500	0.253100
H1481	H148	0.344000	0.202400	0.381400
H1491	H149	0.927800	0.414500	0.729700
H1501	H150	0.564700	0.648800	0.929400
H1511	H151	0.813900	0.674400	0.204200
H1521	H152	0.883200	0.315300	0.734900
H1531	H153	0.925400	0.863500	0.232500
H1541	H154	0.846600	0.123200	0.869800
H1551	H155	0.819000	0.651600	0.470600
H1561	H156	0.118200	0.264000	0.604200
H1571	H157	0.651800	0.943100	0.207700
H1581	H158	0.838600	0.150100	0.340900
H1591	H159	0.134200	0.279300	0.472900
H1601	H160	0.230200	0.947300	0.538300
H1611	H161	0.377300	0.843000	0.685000
H1621	H162	0.674100	0.986500	0.110700
H1631	H163	0.727400	0.536200	0.571800
H1641	H164	0.472400	0.277300	0.906500
H1651	H165	0.125800	0.444500	0.916300
H1661	H166	0.717200	0.589300	0.758500
H1671	H167	0.151800	0.792300	0.056900
H1681	H168	0.067000	0.231000	0.800800
H1691	H169	0.486200	0.498800	0.709200
H1701	H170	0.097900	0.445500	0.266500
H1711	H171	0.181000	0.348400	0.529400
H1721	H172	0.859400	0.864200	0.119400
H1731	H173	0.881800	0.736000	0.395800
H1741	H174	0.293100	0.607500	0.950700
H1751	H175	0.413100	0.607400	0.478200
H1761	H176	0.457100	0.122400	0.935400
H1771	H177	0.433000	0.800800	0.231000
H1781	H178	0.158800	0.356800	0.743400
H1791	H179	0.396100	0.278500	0.828300
H1801	H180	0.891000	0.311000	0.658200
H1811	H181	0.858500	0.194100	0.661100
H1821	H182	0.344200	0.263100	0.145700
H1831	H183	0.641400	0.668000	0.882800
H1841	H184	0.793100	0.049300	0.392500
H1851	H185	0.109000	0.689000	0.341800
H1861	H186	0.313600	0.716700	0.920700
H1871	H187	0.622700	0.157000	0.315000
H1881	H188	0.300700	0.292400	0.622400
H1891	H189	0.677500	0.485800	0.986600
H1901	H190	0.728900	0.229000	0.975400
H1911	H191	0.883100	0.469700	0.968500
H1921	H192	0.435100	0.257100	0.014500
H1931	H193	0.739400	0.092400	0.909200
H1941	H194	0.141400	0.117200	0.332000
H1951	H195	0.140600	0.135800	0.880600
H1961	H196	0.477000	0.558000	0.897800
H1971	H197	0.970300	0.423500	0.005500
H1981	H198	0.681000	0.470600	0.651600
H1991	H199	0.554300	0.648500	0.753300
H2001	H200	0.782800	0.758500	0.589300
H2011	H201	0.186100	0.325600	0.795800
H2021	H202	0.877700	0.227100	0.122100
H2031	H203	0.926400	0.321200	0.976800
H2041	H204	0.427800	0.270300	0.585500
H2051	H205	0.054500	0.442000	0.730600
H2061	H206	0.042900	0.935400	0.122400
H2071	H207	0.122300	0.772900	0.877900
H2081	H208	0.026700	0.169000	0.437600
H2091	H209	0.760600	0.909200	0.092400
H2101	H210	0.197300	0.491100	0.322100
H2111	H211	0.025100	0.951000	0.383800
H2121	H212	0.174100	0.889300	0.013500
H2131	H213	0.198300	0.172100	0.789300
H2141	H214	0.677400	0.959800	0.541400
H2151	H215	0.671000	0.865300	0.689300
H2161	H216	0.945500	0.558000	0.269400
H2171	H217	0.345800	0.968200	0.634600
H2181	H218	0.698300	0.210700	0.827900
H2191	H219	0.825900	0.110700	0.986500
H2201	H220	0.013800	0.709200	0.498800
H2211	H221	0.954000	0.626000	0.957600
H2221	H222	0.972400	0.093500	0.722700
H2231	H223	0.948300	0.941900	0.513500
H2241	H224	0.858600	0.882800	0.668000
H2251	H225	0.616900	0.968500	0.469700
H2261	H226	0.029700	0.576500	0.994500
H2271	H227	0.653400	0.869800	0.123200
H2281	H228	0.062300	0.014100	0.877500
H2291	H229	0.690500	0.395200	0.583800
H2301	H230	0.177400	0.458600	0.040200
H2311	H231	0.563800	0.777900	0.763500
H2321	H232	0.890300	0.760200	0.335800
H2331	H233	0.485100	0.942600	0.758400
H2341	H234	0.985100	0.241600	0.057400
H2351	H235	0.177500	0.013400	0.514200
H2361	H236	0.116900	0.530300	0.031500
H2371	H237	0.384300	0.886800	0.500200
H2381	H238	0.402100	0.266500	0.445500
H2391	H239	0.271100	0.771000	0.024600
H2401	H240	0.064900	0.014500	0.257100
H2411	H241	0.186400	0.920700	0.716700
H2421	H242	0.835500	0.296100	0.789500
H2431	H243	0.114800	0.229600	0.015000
H2441	H244	0.641500	0.661100	0.194100
H2451	H245	0.260600	0.907600	0.090800
H2461	H246	0.874200	0.555500	0.083700
H2471	H247	0.991500	0.345200	0.592600
H2481	H248	0.588300	0.222600	0.998600
H2491	H249	0.112200	0.592800	0.404800
H2501	H250	0.441000	0.723900	0.227900
H2511	H251	0.896100	0.171700	0.721500
H2521	H252	0.344100	0.149700	0.727500
H2531	H253	0.916600	0.197800	0.323200
H2541	H254	0.437700	0.877500	0.014100
H2551	H255	0.844100	0.272500	0.850300
H2561	H256	0.474200	0.357100	0.467700
H2571	H257	0.199300	0.622400	0.292400
H2581	H258	0.877300	0.315000	0.157000
H2591	H259	0.574600	0.232500	0.863500
H2601	H260	0.087800	0.624900	0.860300
H2611	H261	0.772300	0.793000	0.733200
H2621	H262	0.603900	0.721500	0.171700
H2631	H263	0.813600	0.079300	0.283300
H2641	H264	0.322600	0.040200	0.458600
H2651	H265	0.655900	0.850300	0.272500
H2661	H266	0.508500	0.592600	0.345200
H2671	H267	0.973300	0.831000	0.562400
H2681	H268	0.876400	0.746900	0.849500
H2691	H269	0.814300	0.577500	0.898700
H2701	H270	0.072200	0.585500	0.270300
H2711	H271	0.341200	0.743400	0.356800
H2721	H272	0.525100	0.616200	0.049000
H2731	H273	0.454000	0.042400	0.374000
H2741	H274	0.815900	0.862600	0.552200
H2751	H275	0.387800	0.404800	0.592800
H2761	H276	0.064700	0.070600	0.351200
H2771	H277	0.314300	0.101300	0.422500
H2781	H278	0.107000	0.850000	0.216800
H2791	H279	0.902100	0.554500	0.733500
H2801	H280	0.025800	0.467700	0.357100
H2811	H281	0.374200	0.916300	0.444500
H2821	H282	0.054800	0.565300	0.762300
H2831	H283	0.329000	0.134700	0.310700
H2841	H284	0.454200	0.658200	0.004800
H2851	H285	0.623600	0.849500	0.746900
H2861	H286	0.936200	0.763500	0.777900
H2871	H287	0.393000	0.216800	0.850000
H2881	H288	0.559000	0.276100	0.772100
H2891	H289	0.893000	0.150000	0.783200
H2901	H290	0.063800	0.236500	0.222100
H2911	H291	0.272600	0.463800	0.428200
H2921	H292	0.609700	0.335800	0.760200
H2931	H293	0.228900	0.024600	0.771000
H2941	H294	0.161400	0.849900	0.659100
H2951	H295	0.655800	0.736900	0.854300
H2961	H296	0.365800	0.472900	0.279300
H2971	H297	0.654200	0.031800	0.365400
H2981	H298	0.322500	0.514200	0.013400
H2991	H299	0.963600	0.808500	0.129700
H3001	H300	0.658800	0.256600	0.643200
H3011	H301	0.555500	0.565000	0.086400
H3021	H302	0.944500	0.086400	0.565000
H3031	H303	0.546000	0.957600	0.626000
H3041	H304	0.383100	0.031500	0.530300
H3051	H305	0.445200	0.762300	0.565300
H3061	H306	0.391000	0.341800	0.689000
H3071	H307	0.054300	0.246700	0.351500
H3081	H308	0.841200	0.643200	0.256600
H3091	H309	0.974900	0.049000	0.616200
H3101	H310	0.730200	0.461700	0.052700
H3111	H311	0.640600	0.119400	0.864200
H3121	H312	0.887800	0.407200	0.595200
H3131	H313	0.359400	0.880600	0.135800
H3141	H314	0.115700	0.500200	0.886800
H3151	H315	0.562300	0.122500	0.985900
H3161	H316	0.622300	0.122100	0.227100
H3171	H317	0.227400	0.428200	0.463800
H3181	H318	0.435300	0.351200	0.070600
H3191	H319	0.083400	0.802200	0.676800
H3201	H320	0.385200	0.015000	0.229600
H3211	H321	0.974200	0.532300	0.642900
H3221	H322	0.802700	0.508900	0.677900
H3231	H323	0.587800	0.139700	0.375100
H3241	H324	0.821600	0.252900	0.053500
H3251	H325	0.185700	0.422500	0.101300
H3261	H326	0.445700	0.351500	0.246700
H3271	H327	0.685700	0.898700	0.577500
H3281	H328	0.536400	0.129700	0.808500
H3291	H329	0.941000	0.772100	0.276100
H3301	H330	0.328900	0.683500	0.377300
H3311	H331	0.217200	0.241500	0.410700
H3321	H332	0.706900	0.392500	0.049300
C11	C1	0.131300	0.457400	0.946600
C21	C2	0.629100	0.397200	0.585600
C31	C3	0.343600	0.962000	0.694800
C41	C4	0.888800	0.688200	0.861000
C51	C5	0.480700	0.102400	0.410800
C61	C6	0.428400	0.942000	0.532200
C71	C7	0.366000	0.330500	0.776100
C81	C8	0.982600	0.834100	0.127700
C91	C9	0.147600	0.748200	0.176600
C101	C10	0.872900	0.717100	0.367500
C111	C11	0.053700	0.892400	0.651200
C121	C12	0.880300	0.290400	0.710800
C131	C13	0.841500	0.535400	0.987000
C141	C14	0.202000	0.718300	0.946900
C151	C15	0.300600	0.299300	0.596100
C161	C16	0.368700	0.772300	0.120700
C171	C17	0.579600	0.666100	0.875700
C181	C18	0.467000	0.456800	0.045200
C191	C19	0.182700	0.207300	0.283500
C201	C20	0.289200	0.117600	0.791800
C211	C21	0.777600	0.945200	0.225600
C221	C22	0.355200	0.281500	0.174100
C231	C23	0.547100	0.238400	0.981800
C241	C24	0.684500	0.569900	0.808300
C251	C25	0.938100	0.750900	0.987300
C261	C26	0.967700	0.447100	0.122300
C271	C27	0.376400	0.293600	0.535400
C281	C28	0.368700	0.946600	0.457400
C291	C29	0.722400	0.225600	0.945200
C301	C30	0.158700	0.399400	0.147000
C311	C31	0.486700	0.202200	0.227800
C321	C32	0.111200	0.311800	0.139000
C331	C33	0.769900	0.051500	0.364300
C341	C34	0.156400	0.694800	0.962000
C351	C35	0.546100	0.388000	0.052000
C361	C36	0.817300	0.792700	0.716500
C371	C37	0.512700	0.515600	0.736000
C381	C38	0.989200	0.627800	0.404400
C391	C39	0.915200	0.222200	0.147000
C401	C40	0.311800	0.513600	0.949000
C411	C41	0.342800	0.679800	0.349000
C421	C42	0.298000	0.946900	0.718300
C431	C43	0.522400	0.601500	0.448500
C441	C44	0.010700	0.744200	0.963600
C451	C45	0.967000	0.954800	0.543200
C461	C46	0.840700	0.014400	0.499000
C471	C47	0.632300	0.290100	0.703900
C481	C48	0.184500	0.191700	0.430100
C491	C49	0.900700	0.143600	0.339800
C501	C50	0.535300	0.549700	0.801500
C511	C51	0.270900	0.579700	0.322300
C521	C52	0.730700	0.459200	0.668400
C531	C53	0.632200	0.749700	0.236300
C541	C54	0.340700	0.501000	0.985600
C551	C55	0.980700	0.589200	0.897600
C561	C56	0.210800	0.791800	0.117600
C571	C57	0.078500	0.524900	0.900900
C581	C58	0.965200	0.195800	0.202200
C591	C59	0.317300	0.283500	0.207300
C601	C60	0.593500	0.542500	0.069900
C611	C61	0.716900	0.299700	0.068100
C621	C62	0.157200	0.349000	0.679800
C631	C63	0.914800	0.751500	0.252100
C641	C64	0.378700	0.668400	0.268600
C651	C65	0.861300	0.925000	0.234000
C661	C66	0.987300	0.736000	0.515600
C671	C67	0.519300	0.897600	0.589200
C681	C68	0.465800	0.345600	0.096800
C691	C69	0.974100	0.090900	0.876500
C701	C70	0.971500	0.429900	0.035900
C711	C71	0.188700	0.395400	0.189600
C721	C72	0.793700	0.581000	0.870600
C731	C73	0.657200	0.320200	0.651000
C741	C74	0.904400	0.741700	0.530700
C751	C75	0.619700	0.710800	0.290400
C761	C76	0.033000	0.045200	0.456800
C771	C77	0.057800	0.094700	0.879300
C781	C78	0.735300	0.588300	0.787700
C791	C79	0.464500	0.734000	0.472000
C801	C80	0.283100	0.700300	0.931900
C811	C81	0.552000	0.559800	0.998800
C821	C82	0.550700	0.597100	0.409100
C831	C83	0.035300	0.198500	0.450300
C841	C84	0.204000	0.141600	0.785000
C851	C85	0.399300	0.598500	0.374900
C861	C86	0.132200	0.763700	0.250300
C871	C87	0.589400	0.670200	0.770200
C881	C88	0.483300	0.057800	0.400800
C891	C89	0.235300	0.212300	0.411700
C901	C90	0.543500	0.991230	0.300370
C911	C91	0.800600	0.403900	0.700700
C921	C92	0.373600	0.008800	0.504600
C931	C93	0.873600	0.495400	0.991200
C941	C94	0.063600	0.684700	0.847500
C951	C95	0.076600	0.476100	0.376900
C961	C96	0.868700	0.879300	0.227700
C971	C97	0.866200	0.210200	0.822400
C981	C98	0.043500	0.699630	0.008770
C991	C99	0.561900	0.987300	0.750900
C1001	C100	0.465200	0.797800	0.804200
C1011	C101	0.942200	0.905300	0.120700
C1021	C102	0.230700	0.331600	0.540800
C1031	C103	0.017400	0.165900	0.872300
C1041	C104	0.947000	0.171500	0.328500
C1051	C105	0.704000	0.215000	0.858400
C1061	C106	0.910600	0.770200	0.670200
C1071	C107	0.730100	0.364300	0.051500
C1081	C108	0.710800	0.882400	0.208200
C1091	C109	0.349600	0.212100	0.733900
C1101	C110	0.489200	0.595600	0.372200
C1111	C111	0.611200	0.861000	0.688200
C1121	C112	0.019300	0.410800	0.102400
C1131	C113	0.032300	0.552900	0.877700
C1141	C114	0.388800	0.139000	0.311800
C1151	C115	0.127100	0.282900	0.632500
C1161	C116	0.150400	0.733900	0.212100
C1171	C117	0.489300	0.963600	0.744200
C1181	C118	0.644600	0.362400	0.678000
C1191	C119	0.659300	0.499000	0.014400
C1201	C120	0.474100	0.123500	0.909100
C1211	C121	0.116000	0.807300	0.252100
C1221	C122	0.688200	0.486400	0.051000
C1231	C123	0.729100	0.420300	0.677700
C1241	C124	0.366200	0.177600	0.789800
C1251	C125	0.998600	0.279900	0.156700
C1261	C126	0.989300	0.255800	0.036400
C1271	C127	0.012700	0.264000	0.484400
C1281	C128	0.965800	0.903200	0.654400
C1291	C129	0.046100	0.948000	0.612000
C1301	C130	0.682700	0.716500	0.792700
C1311	C131	0.410600	0.329800	0.229800
C1321	C132	0.138700	0.075000	0.766000
C1331	C133	0.093500	0.930100	0.457500
C1341	C134	0.571600	0.058000	0.467800
C1351	C135	0.880700	0.977000	0.118600
C1361	C136	0.803400	0.481800	0.683400
C1371	C137	0.517400	0.127700	0.834100
C1381	C138	0.644800	0.718500	0.825900
C1391	C139	0.284000	0.896600	0.064000
C1401	C140	0.188700	0.652100	0.960700
C1411	C141	0.159300	0.985600	0.501000
C1421	C142	0.144600	0.322000	0.637600
C1431	C143	0.516700	0.942200	0.599200
C1441	C144	0.811300	0.604600	0.810400
C1451	C145	0.557800	0.120700	0.905300
C1461	C146	0.013300	0.227800	0.202200
C1471	C147	0.678500	0.343000	0.067000
C1481	C148	0.084800	0.777800	0.853000
C1491	C149	0.672100	0.571700	0.482700
C1501	C150	0.855400	0.678000	0.362400
C1511	C151	0.367700	0.709900	0.296100
C1521	C152	0.936400	0.315300	0.152500
C1531	C153	0.538300	0.742900	0.009700
C1541	C154	0.567500	0.395600	0.548800
C1551	C155	0.132300	0.296100	0.709900
C1561	C156	0.510800	0.404400	0.627800
C1571	C157	0.196600	0.518200	0.316600
C1581	C158	0.229100	0.322300	0.579700
C1591	C159	0.446300	0.651200	0.892400
C1601	C160	0.878700	0.731400	0.331600
C1611	C161	0.199400	0.596100	0.299300
C1621	C162	0.119300	0.023000	0.881400
C1631	C163	0.082800	0.278200	0.149000
C1641	C164	0.067500	0.451200	0.604400
C1651	C165	0.920400	0.875700	0.666100
C1661	C166	0.928300	0.164500	0.869300
C1671	C167	0.533000	0.543200	0.954800
C1681	C168	0.699400	0.700700	0.403900
C1691	C169	0.963900	0.839200	0.674800
C1701	C170	0.964700	0.801500	0.549700
C1711	C171	0.409300	0.790300	0.250500
C1721	C172	0.784000	0.936000	0.103400
C1731	C173	0.134000	0.776100	0.330500
C1741	C174	0.867700	0.703900	0.290100
C1751	C175	0.461700	0.257100	0.990300
C1761	C176	0.907200	0.126400	0.871600
C1771	C177	0.986200	0.071600	0.430600
C1781	C178	0.028500	0.570100	0.964100
C1791	C179	0.617300	0.668600	0.287800
C1801	C180	0.341500	0.013000	0.464600
C1811	C181	0.631300	0.227700	0.879300
C1821	C182	0.264700	0.411700	0.212300
C1831	C183	0.525900	0.876500	0.090900
C1841	C184	0.563600	0.152500	0.315300
C1851	C185	0.986700	0.772200	0.797800
C1861	C186	0.447000	0.671500	0.828500
C1871	C187	0.546300	0.864600	0.651800
C1881	C188	0.372900	0.632500	0.282900
C1891	C189	0.473000	0.628400	0.992200
C1901	C190	0.921500	0.475100	0.099100
C1911	C191	0.453700	0.135400	0.348200
C1921	C192	0.584800	0.147000	0.222200
C1931	C193	0.510700	0.036400	0.255800
C1941	C194	0.631300	0.053400	0.542600
C1951	C195	0.517100	0.604300	0.018500
C1961	C196	0.035500	0.472000	0.734000
C1971	C197	0.882700	0.287800	0.668600
C1981	C198	0.532300	0.122300	0.447100
C1991	C199	0.126400	0.504600	0.008800
C2001	C200	0.982900	0.018500	0.604300
C2011	C201	0.436400	0.847500	0.684700
C2021	C202	0.380300	0.289200	0.709600
C2031	C203	0.027000	0.992200	0.628400
C2041	C204	0.442200	0.879300	0.094700
C2051	C205	0.216900	0.931900	0.700300
C2061	C206	0.796000	0.858400	0.215000
C2071	C207	0.361300	0.766000	0.075000
C2081	C208	0.688700	0.039300	0.347900
C2091	C209	0.917200	0.721800	0.851000
C2101	C210	0.099300	0.856400	0.660200
C2111	C211	0.899300	0.625100	0.401500
C2121	C212	0.016700	0.400800	0.057800
C2131	C213	0.341300	0.147000	0.399400
C2141	C214	0.452900	0.761600	0.018200
C2151	C215	0.845900	0.698600	0.212400
C2161	C216	0.961700	0.009700	0.742900
C2171	C217	0.090700	0.250500	0.790300
C2181	C218	0.656400	0.038000	0.305200
C2191	C219	0.428300	0.130700	0.835500
C2201	C220	0.811300	0.347900	0.039300
C2211	C221	0.716000	0.103400	0.936000
C2221	C222	0.928400	0.467800	0.058000
C2231	C223	0.654100	0.212400	0.698600
C2241	C224	0.579700	0.122300	0.867500
C2251	C225	0.158500	0.464600	0.013000
C2261	C226	0.849600	0.266100	0.787900
C2271	C227	0.706300	0.870600	0.581000
C2281	C228	0.946300	0.107600	0.348800
C2291	C229	0.415200	0.853000	0.777800
C2301	C230	0.571700	0.869300	0.164500
C2311	C231	0.292700	0.073500	0.786700
C2321	C232	0.650400	0.787900	0.266100
C2331	C233	0.382600	0.215500	0.820100
C2341	C234	0.517500	0.731700	0.067700
C2351	C235	0.010800	0.372200	0.595600
C2361	C236	0.870900	0.585600	0.397200
C2371	C237	0.465600	0.751000	0.537800
C2381	C238	0.595600	0.530700	0.741700
C2391	C239	0.121300	0.268600	0.668400
C2401	C240	0.592800	0.871600	0.126400
C2411	C241	0.053000	0.828500	0.671500
C2421	C242	0.876400	0.464600	0.706400
C2431	C243	0.909300	0.749500	0.209700
C2441	C244	0.315500	0.430100	0.191700
C2451	C245	0.471500	0.964100	0.570100
C2461	C246	0.044700	0.648900	0.857900
C2471	C247	0.633800	0.822400	0.210200
C2481	C248	0.616000	0.747900	0.192700
C2491	C249	0.046300	0.348200	0.135400
C2501	C250	0.423400	0.376900	0.476100
C2511	C251	0.815500	0.808300	0.569900
C2521	C252	0.534400	0.249000	0.462200
C2531	C253	0.349200	0.715300	0.337300
C2541	C254	0.867800	0.236300	0.749700
C2551	C255	0.384000	0.252100	0.807300
C2561	C256	0.528500	0.035900	0.429900
C2571	C257	0.216000	0.064000	0.896600
C2581	C258	0.553000	0.328500	0.171500
C2591	C259	0.455300	0.857900	0.648900
C2601	C260	0.432500	0.604400	0.451200
C2611	C261	0.050700	0.590900	0.402900
C2621	C262	0.277600	0.774400	0.054800
C2631	C263	0.352400	0.176600	0.748200
C2641	C264	0.696600	0.683400	0.481800
C2651	C265	0.123600	0.535400	0.293600
C2661	C266	0.071700	0.835500	0.130700
C2671	C267	0.417200	0.149000	0.278200
C2681	C268	0.407200	0.128400	0.873600
C2691	C269	0.079700	0.132500	0.877700
C2701	C270	0.688700	0.810400	0.604600
C2711	C271	0.600700	0.401500	0.625100
C2721	C272	0.964500	0.528000	0.266000
C2731	C273	0.977600	0.448500	0.601500
C2741	C274	0.117300	0.712200	0.331400
C2751	C275	0.498600	0.843300	0.720100
C2761	C276	0.501400	0.156700	0.279900
C2771	C277	0.658500	0.987000	0.535400
C2781	C278	0.119700	0.709600	0.289200
C2791	C279	0.123700	0.573400	0.285400
C2801	C280	0.535500	0.266000	0.528000
C2811	C281	0.623600	0.706400	0.464600
C2821	C282	0.534800	0.202200	0.195800
C2831	C283	0.789200	0.208200	0.882400
C2841	C284	0.627100	0.367500	0.717100
C2851	C285	0.513300	0.797800	0.772200
C2861	C286	0.843600	0.305200	0.038000
C2871	C287	0.953900	0.052000	0.388000
C2881	C288	0.764000	0.110300	0.977700
C2891	C289	0.034800	0.804200	0.797800
C2901	C290	0.949300	0.409100	0.597100
C2911	C291	0.527000	0.371600	0.007800
C2921	C292	0.117400	0.820100	0.215500
C2931	C293	0.482500	0.268300	0.932300
C2941	C294	0.382700	0.331400	0.712200
C2951	C295	0.406500	0.457500	0.930100
C2961	C296	0.599300	0.339800	0.143600
C2971	C297	0.150800	0.337300	0.715300
C2981	C298	0.811800	0.051000	0.486400
C2991	C299	0.544700	0.142100	0.351100
C3001	C300	0.414800	0.747900	0.248500
C3011	C301	0.178500	0.933000	0.657000
C3021	C302	0.798000	0.281700	0.053100
C3031	C303	0.841300	0.600600	0.853000
C3041	C304	0.623700	0.714600	0.426600
C3051	C305	0.188200	0.949000	0.513600
C3061	C306	0.311300	0.189600	0.395400
C3071	C307	0.647600	0.823400	0.251800
C3081	C308	0.952900	0.981800	0.238400
C3091	C309	0.376300	0.285400	0.573400
C3101	C310	0.047100	0.018200	0.761600
C3111	C311	0.321500	0.657000	0.933000
C3121	C312	0.783100	0.068100	0.299700
C3131	C313	0.293700	0.129400	0.419000
C3141	C314	0.206300	0.419000	0.129400
C3151	C315	0.089400	0.229800	0.329800
C3161	C316	0.438100	0.012700	0.249100
C3171	C317	0.420400	0.333900	0.124300
C3181	C318	0.052000	0.001200	0.440200
C3191	C319	0.534200	0.654400	0.903200
C3201	C320	0.852400	0.251800	0.823400
C3211	C321	0.230100	0.948500	0.635700
C3221	C322	0.482600	0.872300	0.165900
C3231	C323	0.421500	0.900900	0.524900
C3241	C324	0.707300	0.926500	0.213300
C3251	C325	0.269900	0.635700	0.948500
C3261	C326	0.716300	0.565800	0.849200
C3271	C327	0.017500	0.932300	0.268300
C3281	C328	0.950900	0.532600	0.735400
C3291	C329	0.477600	0.398500	0.551500
C3301	C330	0.133800	0.789800	0.177600
C3311	C331	0.456500	0.008770	0.699630
C3321	C332	0.049100	0.467400	0.264600
C3331	C333	0.953700	0.651800	0.864600
C3341	C334	0.448000	0.440200	0.001200
C3351	C335	0.214800	0.474100	0.416700
C3361	C336	0.821500	0.067000	0.343000
C3371	C337	0.453900	0.612000	0.948000
C3381	C338	0.355400	0.637600	0.322000
C3391	C339	0.714800	0.583300	0.525900
C3401	C340	0.464700	0.450300	0.198500
C3411	C341	0.071600	0.532200	0.942000
C3421	C342	0.876300	0.426600	0.714600
C3431	C343	0.638700	0.234000	0.925000
C3441	C344	0.906500	0.069900	0.542500
C3451	C345	0.783700	0.849200	0.565800
C3461	C346	0.311300	0.960700	0.652100
C3471	C347	0.549100	0.735400	0.532600
C3481	C348	0.264000	0.022300	0.889700
C3491	C349	0.085200	0.248500	0.747900
C3501	C350	0.367800	0.250300	0.763700
C3511	C351	0.553700	0.348800	0.107600
C3521	C352	0.269300	0.540800	0.331600
C3531	C353	0.884000	0.192700	0.747900
C3541	C354	0.013800	0.928400	0.569400
C3551	C355	0.868700	0.542600	0.053400
C3561	C356	0.482900	0.395700	0.981500
C3571	C357	0.866000	0.223900	0.669500
C3581	C358	0.144800	0.174100	0.281500
C3591	C359	0.955300	0.351100	0.142100
C3601	C360	0.513800	0.430600	0.071600
C3611	C361	0.849200	0.662700	0.284700
C3621	C362	0.467700	0.877700	0.552900
C3631	C363	0.129100	0.414400	0.602800
C3641	C364	0.095600	0.258300	0.469300
C3651	C365	0.154100	0.301400	0.787600
C3661	C366	0.131300	0.120700	0.772300
C3671	C367	0.172100	0.517300	0.428300
C3681	C368	0.582800	0.851000	0.721800
C3691	C369	0.932500	0.548800	0.395600
C3701	C370	0.036100	0.160800	0.325200
C3711	C371	0.920300	0.867500	0.122300
C3721	C372	0.345900	0.787600	0.301400
C3731	C373	0.770900	0.677700	0.420300
C3741	C374	0.380700	0.881400	0.023000
C3751	C375	0.827900	0.482700	0.571700
C3761	C376	0.842800	0.651000	0.320200
C3771	C377	0.702000	0.053100	0.281700
C3781	C378	0.590700	0.209700	0.749500
C3791	C379	0.536100	0.674800	0.839200
C3801	C380	0.216300	0.150800	0.434200
C3811	C381	0.617400	0.784500	0.179900
C3821	C382	0.486200	0.569400	0.928400
C3831	C383	0.034400	0.537800	0.751000
C3841	C384	0.882600	0.179900	0.784500
C3851	C385	0.025900	0.909100	0.123500
C3861	C386	0.487300	0.484400	0.264000
C3871	C387	0.463900	0.325200	0.160800
C3881	C388	0.222400	0.054800	0.774400
C3891	C389	0.965600	0.462200	0.249000
C3901	C390	0.658700	0.853000	0.600600
C3911	C391	0.283700	0.434200	0.150800
C3921	C392	0.450900	0.264600	0.467400
C3931	C393	0.100700	0.374900	0.598500
C3941	C394	0.296000	0.785000	0.141600
C3951	C395	0.034200	0.096800	0.345600
C3961	C396	0.420300	0.877700	0.132500
C3971	C397	0.449300	0.402900	0.590900
C3981	C398	0.404400	0.469300	0.258300
C3991	C399	0.621300	0.331600	0.731400
C4001	C400	0.236000	0.889700	0.022300
C4011	C401	0.370900	0.602800	0.414400
C4021	C402	0.079600	0.124300	0.333900
C4031	C403	0.585200	0.252100	0.751500
C4041	C404	0.792700	0.213300	0.926500
C4051	C405	0.092800	0.873600	0.128400
C4061	C406	0.285200	0.416700	0.474100
C4071	C407	0.038300	0.990300	0.257100
C4081	C408	0.973000	0.007800	0.371600
C4091	C409	0.736000	0.977700	0.110300
C4101	C410	0.956500	0.300370	0.991230
C4111	C411	0.578500	0.099100	0.475100
C4121	C412	0.207300	0.786700	0.073500
C4131	C413	0.303400	0.316600	0.518200
C4141	C414	0.650800	0.284700	0.662700
C4151	C415	0.022400	0.551500	0.398500
C4161	C416	0.764700	0.787700	0.588300
C4171	C417	0.983300	0.599200	0.942200
C4181	C418	0.619300	0.118600	0.977000
C4191	C419	0.855200	0.825900	0.718500
C4201	C420	0.923400	0.523900	0.623100
C4211	C421	0.017100	0.981500	0.395700
C4221	C422	0.785200	0.525900	0.583300
C4231	C423	0.001400	0.720100	0.843300
C4241	C424	0.327900	0.428300	0.517300
C4251	C425	0.634000	0.669500	0.223900
C4261	C426	0.948000	0.998800	0.559800
C4271	C427	0.982500	0.067700	0.731700
C4281	C428	0.576600	0.623100	0.523900
C4291	C429	0.400700	0.660200	0.856400
C4301	C430	0.769300	0.668400	0.459200
C4311	C431	0.626400	0.991200	0.495400
C4321	C432	0.061900	0.249100	0.012700
I11	I1	0.320170	0.800440	0.891800
I21	I2	0.516370	0.086010	0.651190
I31	I3	0.284410	0.904610	0.228270
I41	I4	0.179830	0.891800	0.800440
I51	I5	0.483630	0.913990	0.348810
I61	I6	0.715590	0.095390	0.771730
I71	I7	0.784410	0.771730	0.095390
I81	I8	0.205720	0.429600	0.817800
I91	I9	0.893960	0.082620	0.072800
I101	I10	0.309440	0.453390	0.707410
I111	I11	0.606040	0.072800	0.082620
I121	I12	0.634000	0.592110	0.659650
I131	I13	0.016370	0.348810	0.913990
I141	I14	0.793140	0.103600	0.648280
I151	I15	0.983630	0.651190	0.086010
I161	I16	0.134000	0.340350	0.407890
I171	I17	0.230080	0.833680	0.558140
I181	I18	0.239770	0.336950	0.022190
I191	I19	0.206860	0.896400	0.351720
I201	I20	0.123100	0.346690	0.275890
I211	I21	0.004660	0.829000	0.446780
I221	I22	0.376900	0.275890	0.346690
I231	I23	0.269920	0.558140	0.833680
I241	I24	0.504660	0.553220	0.171000
I251	I25	0.623100	0.724110	0.653310
I261	I26	0.809440	0.292590	0.546610
I271	I27	0.294280	0.817800	0.429600
I281	I28	0.393960	0.927200	0.917380
I291	I29	0.769920	0.166320	0.441860
I301	I30	0.495340	0.446780	0.829000
I311	I31	0.760230	0.663050	0.977810
I321	I32	0.739770	0.977810	0.663050
I331	I33	0.215590	0.228270	0.904610
I341	I34	0.995340	0.171000	0.553220
I351	I35	0.690560	0.546610	0.292590
I361	I36	0.866000	0.659650	0.592110
I371	I37	0.293140	0.351720	0.896400
I381	I38	0.705720	0.182200	0.570400
I391	I39	0.730080	0.441860	0.166320
I401	I40	0.876900	0.653310	0.724110
I411	I41	0.706860	0.648280	0.103600
I421	I42	0.260230	0.022190	0.336950
I431	I43	0.794280	0.570400	0.182200
I441	I44	0.820170	0.108200	0.199560
I451	I45	0.366000	0.407890	0.340350
I461	I46	0.106040	0.917380	0.927200
I471	I47	0.190560	0.707410	0.453390
I481	I48	0.679830	0.199560	0.108200
N11	N1	0.850100	0.084800	0.513400
N21	N2	0.306300	0.883400	0.997000
N31	N3	0.344200	0.385000	0.448600
N41	N4	0.524800	0.168400	0.244800
N51	N5	0.655800	0.615000	0.551400
N61	N6	0.458400	0.984700	0.276700
N71	N7	0.041600	0.276700	0.984700
N81	N8	0.439000	0.753100	0.054700
N91	N9	0.912500	0.189700	0.165100
N101	N10	0.871400	0.246400	0.642800
N111	N11	0.634200	0.184200	0.716400
N121	N12	0.152500	0.337000	0.601200
N131	N13	0.913600	0.499000	0.250600
N141	N14	0.693700	0.116600	0.003000
N151	N15	0.372700	0.289100	0.750500
N161	N16	0.913300	0.481400	0.596400
N171	N17	0.412500	0.834900	0.810300
N181	N18	0.890200	0.499400	0.035600
N191	N19	0.086700	0.518600	0.403600
N201	N20	0.577500	0.724500	0.042300
N211	N21	0.975200	0.244800	0.168400
N221	N22	0.106800	0.214400	0.447600
N231	N23	0.587500	0.165100	0.189700
N241	N24	0.075800	0.712550	0.976850
N251	N25	0.146200	0.244600	0.314800
N261	N26	0.125000	0.282300	0.746700
N271	N27	0.541600	0.015300	0.723300
N281	N28	0.865800	0.716400	0.184200
N291	N29	0.049600	0.511500	0.277300
N301	N30	0.939000	0.945300	0.246900
N311	N31	0.365600	0.139200	0.803400
N321	N32	0.413600	0.749400	0.501000
N331	N33	0.628600	0.642800	0.246400
N341	N34	0.077500	0.957700	0.275500
N351	N35	0.350100	0.486600	0.915200
N361	N36	0.924200	0.287450	0.023150
N371	N37	0.476700	0.527700	0.772300
N381	N38	0.404900	0.638100	0.921500
N391	N39	0.595100	0.361900	0.078500
N401	N40	0.958400	0.723300	0.015300
N411	N41	0.425800	0.126100	0.383500
N421	N42	0.575800	0.023150	0.287450
N431	N43	0.393200	0.447600	0.214400
N441	N44	0.422500	0.275500	0.957700
N451	N45	0.127300	0.750500	0.289100
N461	N46	0.024800	0.755200	0.831600
N471	N47	0.413600	0.310900	0.188300
N481	N48	0.606800	0.552400	0.785600
N491	N49	0.913600	0.811700	0.689100
N501	N50	0.086400	0.501000	0.749400
N511	N51	0.109800	0.500600	0.964400
N521	N52	0.634400	0.860800	0.196600
N531	N53	0.649900	0.513400	0.084800
N541	N54	0.844200	0.551400	0.615000
N551	N55	0.839200	0.565300	0.024700
N561	N56	0.061000	0.054700	0.753100
N571	N57	0.586400	0.250600	0.499000
N581	N58	0.806300	0.003000	0.116600
N591	N59	0.128600	0.753600	0.357200
N601	N60	0.869600	0.941700	0.115100
N611	N61	0.155800	0.448600	0.385000
N621	N62	0.904900	0.078500	0.361900
N631	N63	0.901800	0.026000	0.534800
N641	N64	0.160800	0.434700	0.975300
N651	N65	0.847500	0.663000	0.398800
N661	N66	0.424200	0.976850	0.712550
N671	N67	0.347500	0.601200	0.337000
N681	N68	0.098200	0.974000	0.465200
N691	N69	0.095100	0.921500	0.638100
N701	N70	0.369600	0.884900	0.058300
N711	N71	0.652500	0.398800	0.663000
N721	N72	0.390200	0.964400	0.500600
N731	N73	0.149900	0.915200	0.486600
N741	N74	0.365800	0.815800	0.283600
N751	N75	0.371400	0.357200	0.753600
N761	N76	0.134200	0.283600	0.815800
N771	N77	0.627300	0.710900	0.249500
N781	N78	0.922500	0.042300	0.724500
N791	N79	0.853800	0.755400	0.685200
N801	N80	0.950400	0.488500	0.722700
N811	N81	0.401800	0.465200	0.974000
N821	N82	0.475200	0.831600	0.755200
N831	N83	0.893200	0.785600	0.552400
N841	N84	0.339200	0.975300	0.434700
N851	N85	0.660800	0.024700	0.565300
N861	N86	0.865600	0.196600	0.860800
N871	N87	0.630400	0.115100	0.941700
N881	N88	0.872700	0.249500	0.710900
N891	N89	0.023300	0.772300	0.527700
N901	N90	0.523300	0.472300	0.227700
N911	N91	0.925800	0.616500	0.873900
N921	N92	0.130400	0.058300	0.884900
N931	N93	0.450400	0.277300	0.511500
N941	N94	0.586700	0.596400	0.481400
N951	N95	0.353800	0.314800	0.244600
N961	N96	0.087500	0.810300	0.834900
N971	N97	0.086400	0.188300	0.310900
N981	N98	0.586400	0.689100	0.811700
N991	N99	0.646200	0.685200	0.755400
N1001	N100	0.134400	0.803400	0.139200
N1011	N101	0.574200	0.873900	0.616500
N1021	N102	0.549600	0.722700	0.488500
N1031	N103	0.875000	0.717700	0.253300
N1041	N104	0.625000	0.253300	0.717700
N1051	N105	0.193700	0.997000	0.883400
N1061	N106	0.598200	0.534800	0.026000
N1071	N107	0.375000	0.746700	0.282300
N1081	N108	0.976700	0.227700	0.472300
N1091	N109	0.413300	0.403600	0.518600
N1101	N110	0.561000	0.246900	0.945300
N1111	N111	0.074200	0.383500	0.126100
N1121	N112	0.609800	0.035600	0.499400
