data_PORVUO_clean_PM
_symmetry_space_group_name_H-M	'P1'
_cell_length_a	6.222600
_cell_length_b	14.702000
_cell_length_c	17.504500
_cell_angle_alpha	102.233000
_cell_angle_beta	90.000000
_cell_angle_gamma	102.218000
_symmetry_Int_Tables_number 1

loop_
_symmetry_equiv_pos_as_xyz
'x,y,z'

loop_
_atom_site_label
_atom_site_type_symbol
_atom_site_fract_x
_atom_site_fract_y
_atom_site_fract_z
Zn11	Zn1	0.436480	0.000000	0.250000
Zn21	Zn2	0.563520	0.000000	0.750000
H11	H1	0.021700	0.190600	0.362000
H21	H2	0.886200	0.317000	0.431200
H31	H3	0.462600	0.492000	0.415200
H41	H4	0.597500	0.367600	0.345000
H51	H5	0.178200	0.561000	0.481100
H61	H6	0.889000	0.098400	0.215000
H71	H7	0.128500	0.097800	0.116000
H81	H8	0.665100	0.899200	0.978300
H91	H9	0.434300	0.916200	0.079700
H101	H10	0.831100	0.809400	0.138000
H111	H11	0.569200	0.683000	0.068800
H121	H12	0.970600	0.508000	0.084800
H131	H13	0.229900	0.632400	0.155000
H141	H14	0.617200	0.439000	0.018900
H151	H15	0.790600	0.901600	0.285000
H161	H16	0.030700	0.902200	0.384000
H171	H17	0.765900	0.100800	0.521700
H181	H18	0.518100	0.083800	0.420300
H191	H19	0.978300	0.809400	0.638000
H201	H20	0.113800	0.683000	0.568800
H211	H21	0.537400	0.508000	0.584800
H221	H22	0.402500	0.632400	0.655000
H231	H23	0.821800	0.439000	0.518900
H241	H24	0.111000	0.901600	0.785000
H251	H25	0.871500	0.902200	0.884000
H261	H26	0.334900	0.100800	0.021700
H271	H27	0.565700	0.083800	0.920300
H281	H28	0.168900	0.190600	0.862000
H291	H29	0.430800	0.317000	0.931200
H301	H30	0.029400	0.492000	0.915200
H311	H31	0.770100	0.367600	0.845000
H321	H32	0.382800	0.561000	0.981100
H331	H33	0.209400	0.098400	0.715000
H341	H34	0.969300	0.097800	0.616000
H351	H35	0.234100	0.899200	0.478300
H361	H36	0.481900	0.916200	0.579700
C11	C1	0.412100	0.182400	0.303700
C21	C2	0.322100	0.265400	0.346300
C31	C3	0.110900	0.251400	0.372600
C41	C4	0.029800	0.327400	0.414800
C51	C5	0.161500	0.418200	0.432600
C61	C6	0.373400	0.431000	0.404800
C71	C7	0.455200	0.356800	0.362500
C81	C8	0.089000	0.501200	0.479900
C91	C9	0.843500	0.058200	0.166500
C101	C10	0.988500	0.058800	0.107000
C111	C11	0.924300	0.000000	0.032700
C121	C12	0.714400	0.942600	0.025000
C131	C13	0.579200	0.950600	0.087900
C141	C14	0.229700	0.817600	0.196300
C151	C15	0.056700	0.734600	0.153700
C161	C16	0.859500	0.748600	0.127400
C171	C17	0.702400	0.672600	0.085200
C181	C18	0.743300	0.581800	0.067400
C191	C19	0.942400	0.569000	0.095200
C201	C20	0.098400	0.643200	0.137500
C211	C21	0.587800	0.498800	0.020100
C221	C22	0.785300	0.941800	0.333500
C231	C23	0.929700	0.941200	0.393000
C241	C24	0.924300	0.000000	0.467300
C251	C25	0.771800	0.057400	0.475000
C261	C26	0.628600	0.049400	0.412100
C271	C27	0.587900	0.817600	0.696300
C281	C28	0.677900	0.734600	0.653700
C291	C29	0.889100	0.748600	0.627400
C301	C30	0.970200	0.672600	0.585200
C311	C31	0.838500	0.581800	0.567400
C321	C32	0.626600	0.569000	0.595200
C331	C33	0.544800	0.643200	0.637500
C341	C34	0.911000	0.498800	0.520100
C351	C35	0.156500	0.941800	0.833500
C361	C36	0.011500	0.941200	0.893000
C371	C37	0.075700	0.000000	0.967300
C381	C38	0.285600	0.057400	0.975000
C391	C39	0.420800	0.049400	0.912100
C401	C40	0.770300	0.182400	0.803700
C411	C41	0.943300	0.265400	0.846300
C421	C42	0.140500	0.251400	0.872600
C431	C43	0.297600	0.327400	0.914800
C441	C44	0.256700	0.418200	0.932600
C451	C45	0.057600	0.431000	0.904800
C461	C46	0.901600	0.356800	0.862500
C471	C47	0.412200	0.501200	0.979900
C481	C48	0.214700	0.058200	0.666500
C491	C49	0.070300	0.058800	0.607000
C501	C50	0.075700	0.000000	0.532700
C511	C51	0.228200	0.942600	0.525000
C521	C52	0.371400	0.950600	0.587900
N11	N1	0.639100	0.002600	0.158000
N21	N2	0.636500	0.997400	0.342000
N31	N3	0.360900	0.997400	0.842000
N41	N4	0.363500	0.002600	0.658000
O11	O1	0.281830	0.101660	0.291100
O21	O2	0.606400	0.194000	0.286800
O31	O3	0.180170	0.898340	0.208900
O41	O4	0.412400	0.806000	0.213200
O51	O5	0.718170	0.898340	0.708900
O61	O6	0.393600	0.806000	0.713200
O71	O7	0.819830	0.101660	0.791100
O81	O8	0.587600	0.194000	0.786800
