data_POSFOU_clean_PM
_symmetry_space_group_name_H-M	'P1'
_cell_length_a	10.145900
_cell_length_b	10.145900
_cell_length_c	23.863400
_cell_angle_alpha	90.000000
_cell_angle_beta	90.000000
_cell_angle_gamma	90.000000
_symmetry_Int_Tables_number 1

loop_
_symmetry_equiv_pos_as_xyz
'x,y,z'

loop_
_atom_site_label
_atom_site_type_symbol
_atom_site_fract_x
_atom_site_fract_y
_atom_site_fract_z
Cd11	Cd1	0.500000	0.500000	0.500000
Cd21	Cd2	0.500000	0.000000	0.250000
Cd31	Cd3	0.000000	0.500000	0.750000
Cd41	Cd4	0.000000	0.000000	0.000000
H11	H1	0.651100	0.204100	0.964000
H21	H2	0.344000	0.522400	0.172500
H31	H3	0.380900	0.047900	0.505400
H41	H4	0.309300	0.596700	0.792000
H51	H5	0.190700	0.096700	0.292000
H61	H6	0.236900	0.658100	0.571000
H71	H7	0.522400	0.656000	0.827500
H81	H8	0.151100	0.295900	0.464000
H91	H9	0.225800	0.224000	0.639700
H101	H10	0.977600	0.156000	0.327500
H111	H11	0.022400	0.844000	0.327500
H121	H12	0.656000	0.477600	0.172500
H131	H13	0.158100	0.736900	0.929000
H141	H14	0.096700	0.809300	0.708000
H151	H15	0.809300	0.903300	0.292000
H161	H16	0.156000	0.022400	0.672500
H171	H17	0.774200	0.776000	0.639700
H181	H18	0.848900	0.704100	0.464000
H191	H19	0.341900	0.236900	0.429000
H201	H20	0.119100	0.547900	0.005400
H211	H21	0.596700	0.690700	0.208000
H221	H22	0.224000	0.774200	0.360300
H231	H23	0.156600	0.482400	0.626300
H241	H24	0.263100	0.158100	0.071000
H251	H25	0.343400	0.982400	0.126300
H261	H26	0.047900	0.619100	0.494600
H271	H27	0.903300	0.190700	0.708000
H281	H28	0.204100	0.348900	0.036000
H291	H29	0.017600	0.343400	0.873700
H301	H30	0.776000	0.225800	0.360300
H311	H31	0.348900	0.795900	0.964000
H321	H32	0.477600	0.344000	0.827500
H331	H33	0.725800	0.276000	0.139700
H341	H34	0.658100	0.763100	0.429000
H351	H35	0.982400	0.656600	0.873700
H361	H36	0.295900	0.848900	0.536000
H371	H37	0.795900	0.651100	0.036000
H381	H38	0.843400	0.517600	0.626300
H391	H39	0.952100	0.380900	0.494600
H401	H40	0.482400	0.843400	0.373700
H411	H41	0.736900	0.841900	0.071000
H421	H42	0.274200	0.724000	0.139700
H431	H43	0.452100	0.119100	0.994600
H441	H44	0.763100	0.341900	0.571000
H451	H45	0.724000	0.725800	0.860300
H461	H46	0.547900	0.880900	0.994600
H471	H47	0.517600	0.156600	0.373700
H481	H48	0.276000	0.274200	0.860300
H491	H49	0.880900	0.452100	0.005400
H501	H50	0.656600	0.017600	0.126300
H511	H51	0.690700	0.403300	0.792000
H521	H52	0.403300	0.309300	0.208000
H531	H53	0.844000	0.977600	0.672500
H541	H54	0.841900	0.263100	0.929000
H551	H55	0.704100	0.151100	0.536000
H561	H56	0.619100	0.952100	0.505400
C11	C1	0.778000	0.085300	0.607980
C21	C2	0.314400	0.157600	0.569740
C31	C3	0.342400	0.185600	0.930260
C41	C4	0.784800	0.873300	0.949160
C51	C5	0.200400	0.027500	0.638500
C61	C6	0.878300	0.249400	0.680010
C71	C7	0.044100	0.665600	0.461000
C81	C8	0.928800	0.345500	0.864210
C91	C9	0.799600	0.972500	0.638500
C101	C10	0.244000	0.148200	0.619200
C111	C11	0.285900	0.679800	0.870090
C121	C12	0.914700	0.778000	0.392020
C131	C13	0.851800	0.244000	0.380800
C141	C14	0.250600	0.621700	0.819990
C151	C15	0.700400	0.472500	0.138500
C161	C16	0.249400	0.121700	0.319990
C171	C17	0.842400	0.314400	0.430260
C181	C18	0.126700	0.784800	0.050840
C191	C19	0.679800	0.714100	0.129910
C201	C20	0.351800	0.256000	0.880800
C211	C21	0.345500	0.071200	0.135790
C221	C22	0.665600	0.955900	0.539000
C231	C23	0.256000	0.648200	0.119200
C241	C24	0.165600	0.544100	0.039000
C251	C25	0.571200	0.845500	0.364210
C261	C26	0.027500	0.799600	0.361500
C271	C27	0.428800	0.154500	0.364210
C281	C28	0.222000	0.914700	0.607980
C291	C29	0.621700	0.749400	0.180010
C301	C30	0.814400	0.342400	0.069740
C311	C31	0.648200	0.744000	0.880800
C321	C32	0.154500	0.571200	0.635790
C331	C33	0.576000	0.214700	0.942100
C341	C34	0.527500	0.700400	0.861500
C351	C35	0.085300	0.222000	0.392020
C361	C36	0.544100	0.834400	0.961000
C371	C37	0.215200	0.126700	0.949160
C381	C38	0.424000	0.785300	0.942100
C391	C39	0.654500	0.928800	0.135790
C401	C40	0.320200	0.285900	0.129910
C411	C41	0.714700	0.076000	0.557900
C421	C42	0.750600	0.878300	0.319990
C431	C43	0.472500	0.299600	0.861500
C441	C44	0.179800	0.785900	0.629910
C451	C45	0.284800	0.626700	0.449160
C461	C46	0.820200	0.214100	0.629910
C471	C47	0.756000	0.851800	0.619200
C481	C48	0.148200	0.756000	0.380800
C491	C49	0.214700	0.424000	0.057900
C501	C50	0.626700	0.715200	0.550840
C511	C51	0.414700	0.722000	0.892020
C521	C52	0.749400	0.378300	0.819990
C531	C53	0.585300	0.278000	0.892020
C541	C54	0.834400	0.455900	0.039000
C551	C55	0.285300	0.924000	0.557900
C561	C56	0.299600	0.527500	0.138500
C571	C57	0.785900	0.820200	0.370090
C581	C58	0.121700	0.750600	0.680010
C591	C59	0.071200	0.654500	0.864210
C601	C60	0.455900	0.165600	0.961000
C611	C61	0.214100	0.179800	0.370090
C621	C62	0.955900	0.334400	0.461000
C631	C63	0.715200	0.373300	0.449160
C641	C64	0.278000	0.414700	0.107980
C651	C65	0.924000	0.714700	0.442100
C661	C66	0.714100	0.320200	0.870090
C671	C67	0.157600	0.685600	0.430260
C681	C68	0.685600	0.842400	0.569740
C691	C69	0.972500	0.200400	0.361500
C701	C70	0.334400	0.044100	0.539000
C711	C71	0.657600	0.814400	0.930260
C721	C72	0.722000	0.585300	0.107980
C731	C73	0.378300	0.250600	0.180010
C741	C74	0.744000	0.351800	0.119200
C751	C75	0.076000	0.285300	0.442100
C761	C76	0.845500	0.428800	0.635790
C771	C77	0.785300	0.576000	0.057900
C781	C78	0.185600	0.657600	0.069740
C791	C79	0.373300	0.284800	0.550840
C801	C80	0.873300	0.215200	0.050840
N11	N1	0.606300	0.883100	0.182630
N21	N2	0.299500	0.168000	0.103240
N31	N3	0.116900	0.606300	0.817370
N41	N4	0.883100	0.393700	0.817370
N51	N5	0.106300	0.616900	0.682630
N61	N6	0.393700	0.116900	0.182630
N71	N7	0.799500	0.332000	0.603240
N81	N8	0.616900	0.893700	0.317370
N91	N9	0.832000	0.299500	0.896760
N101	N10	0.893700	0.383100	0.682630
N111	N11	0.383100	0.106300	0.317370
N121	N12	0.700500	0.832000	0.103240
N131	N13	0.668000	0.799500	0.396760
N141	N14	0.168000	0.700500	0.896760
N151	N15	0.200500	0.668000	0.603240
N161	N16	0.332000	0.200500	0.396760
O11	O1	0.103800	0.874400	0.085120
O21	O2	0.099200	0.797600	0.999800
O31	O3	0.202400	0.099200	0.000200
O41	O4	0.125600	0.103800	0.914880
O51	O5	0.874400	0.896200	0.914880
O61	O6	0.374400	0.603800	0.414880
O71	O7	0.797600	0.900800	0.000200
O81	O8	0.603800	0.625600	0.585120
O91	O9	0.702400	0.400800	0.500200
O101	O10	0.297600	0.599200	0.500200
O111	O11	0.896200	0.125600	0.085120
O121	O12	0.396200	0.374400	0.585120
O131	O13	0.599200	0.702400	0.499800
O141	O14	0.900800	0.202400	0.999800
O151	O15	0.400800	0.297600	0.499800
O161	O16	0.625600	0.396200	0.414880
