data_PUDSUD_clean_PM
_symmetry_space_group_name_H-M	'P1'
_cell_length_a	15.016200
_cell_length_b	19.214100
_cell_length_c	30.381200
_cell_angle_alpha	98.394900
_cell_angle_beta	90.000000
_cell_angle_gamma	113.002000
_symmetry_Int_Tables_number 1

loop_
_symmetry_equiv_pos_as_xyz
'x,y,z'

loop_
_atom_site_label
_atom_site_type_symbol
_atom_site_fract_x
_atom_site_fract_y
_atom_site_fract_z
Nd11	Nd1	0.350500	0.581700	0.641050
Nd21	Nd2	0.440200	0.830260	0.656790
Nd31	Nd3	0.231200	0.581700	0.141050
Nd41	Nd4	0.390060	0.830260	0.156790
H11	H1	0.395400	0.812000	0.811000
H21	H2	0.401100	0.604600	0.777000
H31	H3	0.397800	0.587800	0.850100
H41	H4	0.371900	0.582000	0.931200
H51	H5	0.338700	0.799600	0.004300
H61	H6	0.344300	0.593600	0.005800
H71	H7	0.749600	0.848000	0.659400
H81	H8	0.645300	0.619800	0.647900
H91	H9	0.908400	0.854400	0.659200
H101	H10	0.067100	0.839000	0.655600
H111	H11	0.197400	0.804000	0.650700
H121	H12	0.020800	0.582400	0.642000
H131	H13	0.062200	0.338400	0.601400
H141	H14	0.111100	0.406800	0.732900
H151	H15	0.974100	0.304800	0.745800
H161	H16	0.825200	0.184000	0.746700
H171	H17	0.708400	0.054400	0.603300
H181	H18	0.691000	0.069000	0.736900
H191	H19	0.416600	0.812000	0.311000
H201	H20	0.203500	0.604600	0.277000
H211	H21	0.190000	0.587800	0.350100
H221	H22	0.210100	0.582000	0.431200
H231	H23	0.460900	0.799600	0.504300
H241	H24	0.249300	0.593600	0.505800
H251	H25	0.098400	0.848000	0.159400
H261	H26	0.974500	0.619800	0.147900
H271	H27	0.946000	0.854400	0.159200
H281	H28	0.771900	0.839000	0.155600
H291	H29	0.606600	0.804000	0.150700
H301	H30	0.561600	0.582400	0.142000
H311	H31	0.276200	0.338400	0.101400
H321	H32	0.295700	0.406800	0.232900
H331	H33	0.330700	0.304800	0.245800
H341	H34	0.358800	0.184000	0.246700
H351	H35	0.346000	0.054400	0.103300
H361	H36	0.378000	0.069000	0.236900
C11	C1	0.407380	0.720360	0.738100
C21	C2	0.401720	0.710840	0.786300
C31	C3	0.393760	0.766320	0.818500
C41	C4	0.399170	0.643140	0.798900
C51	C5	0.383080	0.752560	0.862000
C61	C6	0.393830	0.631460	0.842200
C71	C7	0.382180	0.686760	0.874600
C81	C8	0.367880	0.683160	0.922200
C91	C9	0.359210	0.747620	0.945500
C101	C10	0.363850	0.625100	0.945500
C111	C11	0.344030	0.755460	0.989700
C121	C12	0.347770	0.632540	0.990200
C131	C13	0.336760	0.696320	0.012310
C141	C14	0.316570	0.699940	0.061300
C151	C15	0.582750	0.731700	0.651600
C161	C16	0.684240	0.734480	0.653400
C171	C17	0.760700	0.803400	0.657000
C181	C18	0.697470	0.666940	0.650600
C191	C19	0.856400	0.807200	0.657100
C201	C20	0.792400	0.672800	0.652000
C211	C21	0.872550	0.741300	0.654300
C221	C22	0.964270	0.732140	0.652600
C231	C23	0.057250	0.787700	0.653300
C241	C24	0.954030	0.656860	0.648600
C251	C25	0.135170	0.766540	0.650600
C261	C26	0.030540	0.633880	0.645500
C271	C27	0.122480	0.691160	0.647600
C281	C28	0.209750	0.670500	0.646300
C291	C29	0.191020	0.449440	0.658400
C301	C30	0.098860	0.383320	0.666100
C311	C31	0.044420	0.332440	0.630400
C321	C32	0.072750	0.372300	0.708900
C331	C33	0.961830	0.271660	0.638600
C341	C34	0.991100	0.311200	0.716800
C351	C35	0.935590	0.260380	0.681500
C361	C36	0.846530	0.187860	0.681800
C371	C37	0.810270	0.148940	0.639700
C381	C38	0.801570	0.157940	0.718100
C391	C39	0.731300	0.080200	0.632000
C401	C40	0.721490	0.089380	0.712300
C411	C41	0.687150	0.051300	0.669700
C421	C42	0.599380	0.975160	0.663100
C431	C43	0.312980	0.720360	0.238100
C441	C44	0.309120	0.710840	0.286300
C451	C45	0.372560	0.766320	0.318500
C461	C46	0.243970	0.643140	0.298900
C471	C47	0.369480	0.752560	0.362000
C481	C48	0.237630	0.631460	0.342200
C491	C49	0.304580	0.686760	0.374600
C501	C50	0.315280	0.683160	0.422200
C511	C51	0.388410	0.747620	0.445500
C521	C52	0.261250	0.625100	0.445500
C531	C53	0.411430	0.755460	0.489700
C541	C54	0.284770	0.632540	0.490200
C551	C55	0.359560	0.696320	0.512310
C561	C56	0.383370	0.699940	0.561300
C571	C57	0.148950	0.731700	0.151600
C581	C58	0.050240	0.734480	0.153400
C591	C59	0.042700	0.803400	0.157000
C601	C60	0.969470	0.666940	0.150600
C611	C61	0.950800	0.807200	0.157100
C621	C62	0.880400	0.672800	0.152000
C631	C63	0.868750	0.741300	0.154300
C641	C64	0.767870	0.732140	0.152600
C651	C65	0.730450	0.787700	0.153300
C661	C66	0.702830	0.656860	0.148600
C671	C67	0.631370	0.766540	0.150600
C681	C68	0.603340	0.633880	0.145500
C691	C69	0.568680	0.691160	0.147600
C701	C70	0.460750	0.670500	0.146300
C711	C71	0.258420	0.449440	0.158400
C721	C72	0.284460	0.383320	0.166100
C731	C73	0.288020	0.332440	0.130400
C741	C74	0.299550	0.372300	0.208900
C751	C75	0.309830	0.271660	0.138600
C761	C76	0.320100	0.311200	0.216800
C771	C77	0.324790	0.260380	0.181500
C781	C78	0.341330	0.187860	0.181800
C791	C79	0.338670	0.148940	0.139700
C801	C80	0.356370	0.157940	0.218100
C811	C81	0.348900	0.080200	0.132000
C821	C82	0.367890	0.089380	0.212300
C831	C83	0.364150	0.051300	0.169700
C841	C84	0.375780	0.975160	0.163100
S11	S1	0.363590	0.812080	0.908150
S21	S2	0.830610	0.595960	0.650250
S31	S3	0.879800	0.198440	0.598310
S41	S4	0.448490	0.812080	0.408150
S51	S5	0.765350	0.595960	0.150250
S61	S6	0.318640	0.198440	0.098310
O11	O1	0.427680	0.785760	0.729070
O21	O2	0.392870	0.661740	0.710790
O31	O3	0.445130	0.883860	0.919120
O41	O4	0.271250	0.815500	0.902370
O51	O5	0.327960	0.763920	0.082800
O61	O6	0.289010	0.637820	0.075770
O71	O7	0.574660	0.794520	0.662370
O81	O8	0.516910	0.667820	0.638010
O91	O9	0.814900	0.564800	0.691400
O101	O10	0.795420	0.544240	0.609300
O111	O11	0.291680	0.723560	0.649000
O121	O12	0.198740	0.604080	0.643030
O131	O13	0.217290	0.452980	0.619340
O141	O14	0.238260	0.497120	0.691570
O151	O15	0.926560	0.154920	0.573830
O161	O16	0.825430	0.228260	0.573610
O171	O17	0.573280	0.937160	0.624840
O181	O18	0.556520	0.953040	0.696570
O191	O19	0.358080	0.785760	0.229070
O201	O20	0.268870	0.661740	0.210790
O211	O21	0.438730	0.883860	0.419120
O221	O22	0.544250	0.815500	0.402370
O231	O23	0.435960	0.763920	0.582800
O241	O24	0.348810	0.637820	0.575770
O251	O25	0.219860	0.794520	0.162370
O261	O26	0.150910	0.667820	0.138010
O271	O27	0.749900	0.564800	0.191400
O281	O28	0.748820	0.544240	0.109300
O291	O29	0.431880	0.723560	0.149000
O301	O30	0.405340	0.604080	0.143030
O311	O31	0.235690	0.452980	0.119340
O321	O32	0.258860	0.497120	0.191570
O331	O33	0.228360	0.154920	0.073830
O341	O34	0.402830	0.228260	0.073610
O351	O35	0.363880	0.937160	0.124840
O361	O36	0.396520	0.953040	0.196570
Nd51	Nd5	0.768800	0.418300	0.858950
Nd61	Nd6	0.609940	0.169740	0.843210
Nd71	Nd7	0.649500	0.418300	0.358950
Nd81	Nd8	0.559800	0.169740	0.343210
H371	H37	0.583400	0.188000	0.689000
H381	H38	0.796500	0.395400	0.723000
H391	H39	0.810000	0.412200	0.649900
H401	H40	0.789900	0.418000	0.568800
H411	H41	0.539100	0.200400	0.495700
H421	H42	0.750700	0.406400	0.494200
H431	H43	0.901600	0.152000	0.840600
H441	H44	0.025500	0.380200	0.852100
H451	H45	0.054000	0.145600	0.840800
H461	H46	0.228100	0.161000	0.844400
H471	H47	0.393400	0.196000	0.849300
H481	H48	0.438400	0.417600	0.858000
H491	H49	0.723800	0.661600	0.898600
H501	H50	0.704300	0.593200	0.767100
H511	H51	0.669300	0.695200	0.754200
H521	H52	0.641200	0.816000	0.753300
H531	H53	0.654000	0.945600	0.896700
H541	H54	0.622000	0.931000	0.763100
H551	H55	0.604600	0.188000	0.189000
H561	H56	0.598900	0.395400	0.223000
H571	H57	0.602200	0.412200	0.149900
H581	H58	0.628100	0.418000	0.068800
H591	H59	0.661300	0.200400	0.995700
H601	H60	0.655700	0.406400	0.994200
H611	H61	0.250400	0.152000	0.340600
H621	H62	0.354700	0.380200	0.352100
H631	H63	0.091600	0.145600	0.340800
H641	H64	0.932900	0.161000	0.344400
H651	H65	0.802600	0.196000	0.349300
H661	H66	0.979200	0.417600	0.358000
H671	H67	0.937800	0.661600	0.398600
H681	H68	0.888900	0.593200	0.267100
H691	H69	0.025900	0.695200	0.254200
H701	H70	0.174800	0.816000	0.253300
H711	H71	0.291600	0.945600	0.396700
H721	H72	0.309000	0.931000	0.263100
C851	C85	0.687020	0.279640	0.761900
C861	C86	0.690880	0.289160	0.713700
C871	C87	0.627440	0.233680	0.681500
C881	C88	0.756030	0.356860	0.701100
C891	C89	0.630520	0.247440	0.638000
C901	C90	0.762370	0.368540	0.657800
C911	C91	0.695420	0.313240	0.625400
C921	C92	0.684720	0.316840	0.577800
C931	C93	0.611590	0.252380	0.554500
C941	C94	0.738750	0.374900	0.554500
C951	C95	0.588570	0.244540	0.510300
C961	C96	0.715230	0.367460	0.509800
C971	C97	0.640440	0.303680	0.487690
C981	C98	0.616630	0.300060	0.438700
C991	C99	0.851050	0.268300	0.848400
C1001	C100	0.949760	0.265520	0.846600
C1011	C101	0.957300	0.196600	0.843000
C1021	C102	0.030530	0.333060	0.849400
C1031	C103	0.049200	0.192800	0.842900
C1041	C104	0.119600	0.327200	0.848000
C1051	C105	0.131250	0.258700	0.845700
C1061	C106	0.232130	0.267860	0.847400
C1071	C107	0.269550	0.212300	0.846700
C1081	C108	0.297170	0.343140	0.851400
C1091	C109	0.368630	0.233460	0.849400
C1101	C110	0.396660	0.366120	0.854500
C1111	C111	0.431320	0.308840	0.852400
C1121	C112	0.539250	0.329500	0.853700
C1131	C113	0.741580	0.550560	0.841600
C1141	C114	0.715540	0.616680	0.833900
C1151	C115	0.711980	0.667560	0.869600
C1161	C116	0.700450	0.627700	0.791100
C1171	C117	0.690170	0.728340	0.861400
C1181	C118	0.679900	0.688800	0.783200
C1191	C119	0.675210	0.739620	0.818500
C1201	C120	0.658670	0.812140	0.818200
C1211	C121	0.661330	0.851060	0.860300
C1221	C122	0.643630	0.842060	0.781900
C1231	C123	0.651100	0.919800	0.868000
C1241	C124	0.632110	0.910620	0.787700
C1251	C125	0.635850	0.948700	0.830300
C1261	C126	0.624220	0.024840	0.836900
C1271	C127	0.592620	0.279640	0.261900
C1281	C128	0.598280	0.289160	0.213700
C1291	C129	0.606240	0.233680	0.181500
C1301	C130	0.600830	0.356860	0.201100
C1311	C131	0.616920	0.247440	0.138000
C1321	C132	0.606170	0.368540	0.157800
C1331	C133	0.617820	0.313240	0.125400
C1341	C134	0.632120	0.316840	0.077800
C1351	C135	0.640790	0.252380	0.054500
C1361	C136	0.636150	0.374900	0.054500
C1371	C137	0.655970	0.244540	0.010300
C1381	C138	0.652230	0.367460	0.009800
C1391	C139	0.663240	0.303680	0.987690
C1401	C140	0.683430	0.300060	0.938700
C1411	C141	0.417250	0.268300	0.348400
C1421	C142	0.315760	0.265520	0.346600
C1431	C143	0.239300	0.196600	0.343000
C1441	C144	0.302530	0.333060	0.349400
C1451	C145	0.143600	0.192800	0.342900
C1461	C146	0.207600	0.327200	0.348000
C1471	C147	0.127450	0.258700	0.345700
C1481	C148	0.035730	0.267860	0.347400
C1491	C149	0.942750	0.212300	0.346700
C1501	C150	0.045970	0.343140	0.351400
C1511	C151	0.864830	0.233460	0.349400
C1521	C152	0.969460	0.366120	0.354500
C1531	C153	0.877520	0.308840	0.352400
C1541	C154	0.790250	0.329500	0.353700
C1551	C155	0.808980	0.550560	0.341600
C1561	C156	0.901140	0.616680	0.333900
C1571	C157	0.955580	0.667560	0.369600
C1581	C158	0.927250	0.627700	0.291100
C1591	C159	0.038170	0.728340	0.361400
C1601	C160	0.008900	0.688800	0.283200
C1611	C161	0.064410	0.739620	0.318500
C1621	C162	0.153470	0.812140	0.318200
C1631	C163	0.189730	0.851060	0.360300
C1641	C164	0.198430	0.842060	0.281900
C1651	C165	0.268700	0.919800	0.368000
C1661	C166	0.278510	0.910620	0.287700
C1671	C167	0.312850	0.948700	0.330300
C1681	C168	0.400620	0.024840	0.336900
S71	S7	0.551510	0.187920	0.591850
S81	S8	0.234650	0.404040	0.849750
S91	S9	0.681360	0.801560	0.901690
S101	S10	0.636410	0.187920	0.091850
S111	S11	0.169390	0.404040	0.349750
S121	S12	0.120200	0.801560	0.401690
O371	O37	0.641920	0.214240	0.770930
O381	O38	0.731130	0.338260	0.789210
O391	O39	0.561270	0.116140	0.580880
O401	O40	0.455750	0.184500	0.597630
O411	O41	0.564040	0.236080	0.417200
O421	O42	0.651190	0.362180	0.424230
O431	O43	0.780140	0.205480	0.837630
O441	O44	0.849090	0.332180	0.861990
O451	O45	0.250100	0.435200	0.808600
O461	O46	0.251180	0.455760	0.890700
O471	O47	0.568120	0.276440	0.851000
O481	O48	0.594660	0.395920	0.856970
O491	O49	0.764310	0.547020	0.880660
O501	O50	0.741140	0.502880	0.808430
O511	O51	0.771640	0.845080	0.926170
O521	O52	0.597170	0.771740	0.926390
O531	O53	0.636120	0.062840	0.875160
O541	O54	0.603480	0.046960	0.803430
O551	O55	0.572320	0.214240	0.270930
O561	O56	0.607130	0.338260	0.289210
O571	O57	0.554870	0.116140	0.080880
O581	O58	0.728750	0.184500	0.097630
O591	O59	0.672040	0.236080	0.917200
O601	O60	0.710990	0.362180	0.924230
O611	O61	0.425340	0.205480	0.337630
O621	O62	0.483090	0.332180	0.361990
O631	O63	0.185100	0.435200	0.308600
O641	O64	0.204580	0.455760	0.390700
O651	O65	0.708320	0.276440	0.351000
O661	O66	0.801260	0.395920	0.356970
O671	O67	0.782710	0.547020	0.380660
O681	O68	0.761740	0.502880	0.308430
O691	O69	0.073440	0.845080	0.426170
O701	O70	0.174570	0.771740	0.426390
O711	O71	0.426720	0.062840	0.375160
O721	O72	0.443480	0.046960	0.303430
