data_PUDSOX_clean_PM
_symmetry_space_group_name_H-M	'P1'
_cell_length_a	14.898700
_cell_length_b	19.020300
_cell_length_c	30.084600
_cell_angle_alpha	97.332400
_cell_angle_beta	90.000000
_cell_angle_gamma	113.057000
_symmetry_Int_Tables_number 1

loop_
_symmetry_equiv_pos_as_xyz
'x,y,z'

loop_
_atom_site_label
_atom_site_type_symbol
_atom_site_fract_x
_atom_site_fract_y
_atom_site_fract_z
Gd11	Gd1	0.362080	0.582710	0.643360
Gd21	Gd2	0.446180	0.828320	0.656880
Gd31	Gd3	0.220630	0.582710	0.143360
Gd41	Gd4	0.382140	0.828320	0.156880
H11	H1	0.404000	0.812600	0.810300
H21	H2	0.426200	0.607800	0.781200
H31	H3	0.420400	0.592400	0.856000
H41	H4	0.396500	0.587800	0.938000
H51	H5	0.341100	0.800800	0.004900
H61	H6	0.357200	0.597200	0.011700
H71	H7	0.762100	0.850000	0.654700
H81	H8	0.653500	0.620600	0.648300
H91	H9	0.918400	0.855000	0.651500
H101	H10	0.076400	0.837000	0.647400
H111	H11	0.206500	0.802000	0.646100
H121	H12	0.028500	0.579200	0.641400
H131	H13	0.080100	0.335600	0.601800
H141	H14	0.121400	0.404000	0.734200
H151	H15	0.982000	0.298800	0.747000
H161	H16	0.829300	0.178400	0.747400
H171	H17	0.723400	0.051200	0.602200
H181	H18	0.691500	0.065600	0.735500
H191	H19	0.408600	0.812600	0.310300
H201	H20	0.181600	0.607800	0.281200
H211	H21	0.172000	0.592400	0.356000
H221	H22	0.191300	0.587800	0.438000
H231	H23	0.459700	0.800800	0.504900
H241	H24	0.240000	0.597200	0.511700
H251	H25	0.087900	0.850000	0.154700
H261	H26	0.967100	0.620600	0.148300
H271	H27	0.936600	0.855000	0.151500
H281	H28	0.760600	0.837000	0.147400
H291	H29	0.595500	0.802000	0.146100
H301	H30	0.550700	0.579200	0.141400
H311	H31	0.255500	0.335600	0.101800
H321	H32	0.282600	0.404000	0.234200
H331	H33	0.316800	0.298800	0.247000
H341	H34	0.349100	0.178400	0.247400
H351	H35	0.327800	0.051200	0.102200
H361	H36	0.374100	0.065600	0.235500
C11	C1	0.418320	0.718840	0.738620
C21	C2	0.415400	0.710600	0.787820
C31	C3	0.405510	0.767820	0.819050
C41	C4	0.419930	0.645660	0.802200
C51	C5	0.398100	0.755200	0.863670
C61	C6	0.415410	0.635820	0.847060
C71	C7	0.403440	0.690280	0.878230
C81	C8	0.387440	0.687280	0.926290
C91	C9	0.371390	0.750380	0.947230
C101	C10	0.383630	0.629660	0.950930
C111	C11	0.349950	0.757300	0.991410
C121	C12	0.360500	0.636000	0.995010
C131	C13	0.342000	0.698000	0.015480
C141	C14	0.312790	0.699380	0.063320
C151	C15	0.591000	0.734600	0.651360
C161	C16	0.692580	0.735760	0.651290
C171	C17	0.772000	0.804400	0.652700
C181	C18	0.706310	0.667820	0.649280
C191	C19	0.865620	0.808040	0.651300
C201	C20	0.799860	0.672120	0.648710
C211	C21	0.879560	0.740120	0.649400
C221	C22	0.974150	0.730500	0.646790
C231	C23	0.066290	0.785380	0.646800
C241	C24	0.961450	0.654100	0.645390
C251	C25	0.143680	0.764160	0.646000
C261	C26	0.038860	0.631120	0.643560
C271	C27	0.131540	0.687680	0.645060
C281	C28	0.219830	0.667460	0.646450
C291	C29	0.206180	0.448160	0.660380
C301	C30	0.115300	0.380000	0.667320
C311	C31	0.061130	0.328660	0.630950
C321	C32	0.084940	0.368680	0.709990
C331	C33	0.979020	0.267440	0.638910
C341	C34	0.001340	0.305880	0.717930
C351	C35	0.947820	0.254440	0.681530
C361	C36	0.858720	0.183240	0.681600
C371	C37	0.823990	0.143580	0.638880
C381	C38	0.808100	0.153200	0.718450
C391	C39	0.744010	0.076420	0.631270
C401	C40	0.726080	0.085560	0.711090
C411	C41	0.693530	0.046060	0.667950
C421	C42	0.605350	0.972300	0.661730
C431	C43	0.300520	0.718840	0.238620
C441	C44	0.295200	0.710600	0.287820
C451	C45	0.362310	0.767820	0.319050
C461	C46	0.225730	0.645660	0.302200
C471	C47	0.357100	0.755200	0.363670
C481	C48	0.220410	0.635820	0.347060
C491	C49	0.286840	0.690280	0.378230
C501	C50	0.299840	0.687280	0.426290
C511	C51	0.378990	0.750380	0.447230
C521	C52	0.246030	0.629660	0.450930
C531	C53	0.407350	0.757300	0.491410
C541	C54	0.275500	0.636000	0.495010
C551	C55	0.356000	0.698000	0.515480
C561	C56	0.386590	0.699380	0.563320
C571	C57	0.143600	0.734600	0.151360
C581	C58	0.043180	0.735760	0.151290
C591	C59	0.032400	0.804400	0.152700
C601	C60	0.961510	0.667820	0.149280
C611	C61	0.942420	0.808040	0.151300
C621	C62	0.872260	0.672120	0.148710
C631	C63	0.860560	0.740120	0.149400
C641	C64	0.756350	0.730500	0.146790
C651	C65	0.719090	0.785380	0.146800
C661	C66	0.692650	0.654100	0.145390
C671	C67	0.620480	0.764160	0.146000
C681	C68	0.592260	0.631120	0.143560
C691	C69	0.556140	0.687680	0.145060
C701	C70	0.447630	0.667460	0.146450
C711	C71	0.241980	0.448160	0.160380
C721	C72	0.264700	0.380000	0.167320
C731	C73	0.267530	0.328660	0.130950
C741	C74	0.283740	0.368680	0.209990
C751	C75	0.288420	0.267440	0.138910
C761	C76	0.304540	0.305880	0.217930
C771	C77	0.306620	0.254440	0.181530
C781	C78	0.324520	0.183240	0.181600
C791	C79	0.319590	0.143580	0.138880
C801	C80	0.345100	0.153200	0.218450
C811	C81	0.332410	0.076420	0.131270
C821	C82	0.359480	0.085560	0.211090
C831	C83	0.352530	0.046060	0.167950
C841	C84	0.366950	0.972300	0.161730
S11	S1	0.375410	0.813780	0.908430
S21	S2	0.837530	0.594280	0.648090
S31	S3	0.899850	0.193200	0.598000
S41	S4	0.438370	0.813780	0.408430
S51	S5	0.756750	0.594280	0.148090
S61	S6	0.293350	0.193200	0.098000
O11	O1	0.438460	0.783920	0.728040
O21	O2	0.398780	0.657360	0.712640
O31	O3	0.456370	0.886940	0.918860
O41	O4	0.281340	0.815480	0.901600
O51	O5	0.320730	0.763460	0.084360
O61	O6	0.282830	0.636660	0.078250
O71	O7	0.583160	0.797520	0.662210
O81	O8	0.522420	0.671240	0.640070
O91	O9	0.822240	0.564080	0.690610
O101	O10	0.800600	0.540800	0.608090
O111	O11	0.301880	0.722200	0.650120
O121	O12	0.206730	0.598460	0.644280
O131	O13	0.233830	0.455060	0.620650
O141	O14	0.251480	0.495960	0.693360
O151	O15	0.948840	0.148280	0.576400
O161	O16	0.848320	0.222840	0.570120
O171	O17	0.581460	0.932720	0.623590
O181	O18	0.557520	0.950440	0.695420
O191	O19	0.345460	0.783920	0.228040
O201	O20	0.258580	0.657360	0.212640
O211	O21	0.430570	0.886940	0.418860
O221	O22	0.534140	0.815480	0.401600
O231	O23	0.442730	0.763460	0.584360
O241	O24	0.353830	0.636660	0.578250
O251	O25	0.214360	0.797520	0.162210
O261	O26	0.148820	0.671240	0.140070
O271	O27	0.741840	0.564080	0.190610
O281	O28	0.740200	0.540800	0.108090
O291	O29	0.420320	0.722200	0.150120
O301	O30	0.391730	0.598460	0.144280
O311	O31	0.221230	0.455060	0.120650
O321	O32	0.244480	0.495960	0.193360
O331	O33	0.199440	0.148280	0.076400
O341	O34	0.374520	0.222840	0.070120
O351	O35	0.351260	0.932720	0.123590
O361	O36	0.392920	0.950440	0.195420
Gd51	Gd5	0.779370	0.417290	0.856640
Gd61	Gd6	0.617850	0.171660	0.843120
Gd71	Gd7	0.637920	0.417290	0.356640
Gd81	Gd8	0.553810	0.171660	0.343120
H371	H37	0.591400	0.187400	0.689700
H381	H38	0.818400	0.392200	0.718800
H391	H39	0.828000	0.407600	0.644000
H401	H40	0.808700	0.412200	0.562000
H411	H41	0.540300	0.199200	0.495100
H421	H42	0.760000	0.402800	0.488300
H431	H43	0.912100	0.150000	0.845300
H441	H44	0.032900	0.379400	0.851700
H451	H45	0.063400	0.145000	0.848500
H461	H46	0.239400	0.163000	0.852600
H471	H47	0.404500	0.198000	0.853900
H481	H48	0.449300	0.420800	0.858600
H491	H49	0.744500	0.664400	0.898200
H501	H50	0.717400	0.596000	0.765800
H511	H51	0.683200	0.701200	0.753000
H521	H52	0.650900	0.821600	0.752600
H531	H53	0.672200	0.948800	0.897800
H541	H54	0.625900	0.934400	0.764500
H551	H55	0.596000	0.187400	0.189700
H561	H56	0.573800	0.392200	0.218800
H571	H57	0.579600	0.407600	0.144000
H581	H58	0.603500	0.412200	0.062000
H591	H59	0.658900	0.199200	0.995100
H601	H60	0.642800	0.402800	0.988300
H611	H61	0.237900	0.150000	0.345300
H621	H62	0.346500	0.379400	0.351700
H631	H63	0.081600	0.145000	0.348500
H641	H64	0.923600	0.163000	0.352600
H651	H65	0.793500	0.198000	0.353900
H661	H66	0.971500	0.420800	0.358600
H671	H67	0.919900	0.664400	0.398200
H681	H68	0.878600	0.596000	0.265800
H691	H69	0.018000	0.701200	0.253000
H701	H70	0.170700	0.821600	0.252600
H711	H71	0.276600	0.948800	0.397800
H721	H72	0.308500	0.934400	0.264500
C851	C85	0.699480	0.281160	0.761380
C861	C86	0.704800	0.289400	0.712180
C871	C87	0.637690	0.232180	0.680950
C881	C88	0.774270	0.354340	0.697800
C891	C89	0.642900	0.244800	0.636330
C901	C90	0.779590	0.364180	0.652940
C911	C91	0.713160	0.309720	0.621770
C921	C92	0.700160	0.312720	0.573710
C931	C93	0.621010	0.249620	0.552770
C941	C94	0.753970	0.370340	0.549070
C951	C95	0.592650	0.242700	0.508590
C961	C96	0.724500	0.364000	0.504990
C971	C97	0.644000	0.302000	0.484520
C981	C98	0.613410	0.300620	0.436680
C991	C99	0.856400	0.265400	0.848640
C1001	C100	0.956820	0.264240	0.848710
C1011	C101	0.967600	0.195600	0.847300
C1021	C102	0.038490	0.332180	0.850720
C1031	C103	0.057580	0.191960	0.848700
C1041	C104	0.127740	0.327880	0.851290
C1051	C105	0.139440	0.259880	0.850600
C1061	C106	0.243650	0.269500	0.853210
C1071	C107	0.280910	0.214620	0.853200
C1081	C108	0.307350	0.345900	0.854610
C1091	C109	0.379520	0.235840	0.854000
C1101	C110	0.407740	0.368880	0.856440
C1111	C111	0.443860	0.312320	0.854940
C1121	C112	0.552370	0.332540	0.853550
C1131	C113	0.758020	0.551840	0.839620
C1141	C114	0.735300	0.620000	0.832680
C1151	C115	0.732470	0.671340	0.869050
C1161	C116	0.716260	0.631320	0.790010
C1171	C117	0.711580	0.732560	0.861090
C1181	C118	0.695460	0.694120	0.782070
C1191	C119	0.693380	0.745560	0.818470
C1201	C120	0.675480	0.816760	0.818400
C1211	C121	0.680410	0.856420	0.861120
C1221	C122	0.654900	0.846800	0.781550
C1231	C123	0.667590	0.923580	0.868730
C1241	C124	0.640520	0.914440	0.788910
C1251	C125	0.647470	0.953940	0.832050
C1261	C126	0.633050	0.027700	0.838270
C1271	C127	0.581680	0.281160	0.261380
C1281	C128	0.584600	0.289400	0.212180
C1291	C129	0.594490	0.232180	0.180950
C1301	C130	0.580070	0.354340	0.197800
C1311	C131	0.601900	0.244800	0.136330
C1321	C132	0.584590	0.364180	0.152940
C1331	C133	0.596560	0.309720	0.121770
C1341	C134	0.612560	0.312720	0.073710
C1351	C135	0.628610	0.249620	0.052770
C1361	C136	0.616370	0.370340	0.049070
C1371	C137	0.650050	0.242700	0.008590
C1381	C138	0.639500	0.364000	0.004990
C1391	C139	0.658000	0.302000	0.984520
C1401	C140	0.687210	0.300620	0.936680
C1411	C141	0.409000	0.265400	0.348640
C1421	C142	0.307420	0.264240	0.348710
C1431	C143	0.228000	0.195600	0.347300
C1441	C144	0.293690	0.332180	0.350720
C1451	C145	0.134380	0.191960	0.348700
C1461	C146	0.200140	0.327880	0.351290
C1471	C147	0.120440	0.259880	0.350600
C1481	C148	0.025850	0.269500	0.353210
C1491	C149	0.933710	0.214620	0.353200
C1501	C150	0.038550	0.345900	0.354610
C1511	C151	0.856320	0.235840	0.354000
C1521	C152	0.961140	0.368880	0.356440
C1531	C153	0.868460	0.312320	0.354940
C1541	C154	0.780170	0.332540	0.353550
C1551	C155	0.793820	0.551840	0.339620
C1561	C156	0.884700	0.620000	0.332680
C1571	C157	0.938870	0.671340	0.369050
C1581	C158	0.915060	0.631320	0.290010
C1591	C159	0.020980	0.732560	0.361090
C1601	C160	0.998660	0.694120	0.282070
C1611	C161	0.052180	0.745560	0.318470
C1621	C162	0.141280	0.816760	0.318400
C1631	C163	0.176010	0.856420	0.361120
C1641	C164	0.191900	0.846800	0.281550
C1651	C165	0.255990	0.923580	0.368730
C1661	C166	0.273920	0.914440	0.288910
C1671	C167	0.306470	0.953940	0.332050
C1681	C168	0.394650	0.027700	0.338270
S71	S7	0.561630	0.186220	0.591570
S81	S8	0.243250	0.405720	0.851910
S91	S9	0.706650	0.806800	0.902000
S101	S10	0.624590	0.186220	0.091570
S111	S11	0.162470	0.405720	0.351910
S121	S12	0.100150	0.806800	0.402000
O371	O37	0.654540	0.216080	0.771960
O381	O38	0.741420	0.342640	0.787360
O391	O39	0.569430	0.113060	0.581140
O401	O40	0.465860	0.184520	0.598400
O411	O41	0.557270	0.236540	0.415640
O421	O42	0.646170	0.363340	0.421750
O431	O43	0.785640	0.202480	0.837790
O441	O44	0.851180	0.328760	0.859930
O451	O45	0.258160	0.435920	0.809390
O461	O46	0.259800	0.459200	0.891910
O471	O47	0.579680	0.277800	0.849880
O481	O48	0.608270	0.401540	0.855720
O491	O49	0.778770	0.544940	0.879350
O501	O50	0.755520	0.504040	0.806640
O511	O51	0.800560	0.851720	0.923600
O521	O52	0.625480	0.777160	0.929880
O531	O53	0.648740	0.067280	0.876410
O541	O54	0.607080	0.049560	0.804580
O551	O55	0.561540	0.216080	0.271960
O561	O56	0.601220	0.342640	0.287360
O571	O57	0.543630	0.113060	0.081140
O581	O58	0.718660	0.184520	0.098400
O591	O59	0.679270	0.236540	0.915640
O601	O60	0.717170	0.363340	0.921750
O611	O61	0.416840	0.202480	0.337790
O621	O62	0.477580	0.328760	0.359930
O631	O63	0.177760	0.435920	0.309390
O641	O64	0.199400	0.459200	0.391910
O651	O65	0.698120	0.277800	0.349880
O661	O66	0.793270	0.401540	0.355720
O671	O67	0.766170	0.544940	0.379350
O681	O68	0.748520	0.504040	0.306640
O691	O69	0.051160	0.851720	0.423600
O701	O70	0.151680	0.777160	0.429880
O711	O71	0.418540	0.067280	0.376410
O721	O72	0.442480	0.049560	0.304580
