data_PUFXIZ_clean_PM
_symmetry_space_group_name_H-M	'P1'
_cell_length_a	10.251500
_cell_length_b	12.384500
_cell_length_c	16.603800
_cell_angle_alpha	90.000000
_cell_angle_beta	94.922000
_cell_angle_gamma	90.000000
_symmetry_Int_Tables_number 1

loop_
_symmetry_equiv_pos_as_xyz
'x,y,z'

loop_
_atom_site_label
_atom_site_type_symbol
_atom_site_fract_x
_atom_site_fract_y
_atom_site_fract_z
C11	C1	0.233400	0.634500	0.060500
C21	C2	0.110500	0.584700	0.089200
C31	C3	0.119800	0.494800	0.139500
H11	H1	0.201300	0.462400	0.154000
C41	C4	0.007200	0.454200	0.167500
C51	C5	0.884900	0.497000	0.144600
H21	H2	0.809100	0.466300	0.163000
C61	C6	0.876700	0.586300	0.093700
C71	C7	0.989500	0.631300	0.067400
H31	H3	0.983900	0.693400	0.034700
C81	C8	0.744600	0.635500	0.068500
C91	C9	0.037800	0.213500	0.125100
H41	H4	0.055300	0.136600	0.128400
H51	H5	0.107900	0.249300	0.099800
H61	H6	0.955400	0.225800	0.093100
C101	C10	0.029700	0.257700	0.207600
C111	C11	0.006800	0.370600	0.305500
C121	C12	0.994000	0.471500	0.351100
C131	C13	0.888700	0.486500	0.397100
H71	H7	0.821300	0.434900	0.396400
C141	C14	0.884400	0.578400	0.444100
H81	H8	0.812000	0.588600	0.474400
C151	C15	0.077700	0.639900	0.402200
H91	H9	0.143000	0.693300	0.403400
C161	C16	0.089300	0.551600	0.352700
H101	H10	0.160200	0.545600	0.320700
Cd11	Cd1	0.484990	0.700550	0.033950
N11	N1	0.016300	0.365400	0.224300
N21	N2	0.028000	0.201100	0.274000
N31	N3	0.013300	0.274000	0.336400
N41	N4	0.978800	0.653700	0.448400
O11	O1	0.334300	0.576400	0.066800
O21	O2	0.231600	0.726700	0.034100
O31	O3	0.737500	0.719700	0.028800
O41	O4	0.645700	0.587400	0.090300
C171	C17	0.266600	0.134500	0.439500
C181	C18	0.389500	0.084700	0.410800
C191	C19	0.380200	0.994800	0.360500
H111	H11	0.298700	0.962400	0.346000
C201	C20	0.492800	0.954200	0.332500
C211	C21	0.615100	0.997000	0.355400
H121	H12	0.690900	0.966300	0.337000
C221	C22	0.623300	0.086300	0.406300
C231	C23	0.510500	0.131300	0.432600
H131	H13	0.516100	0.193400	0.465300
C241	C24	0.755400	0.135500	0.431500
C251	C25	0.462200	0.713500	0.374900
H141	H14	0.444700	0.636600	0.371600
H151	H15	0.392100	0.749300	0.400200
H161	H16	0.544600	0.725800	0.406900
C261	C26	0.470300	0.757700	0.292400
C271	C27	0.493200	0.870600	0.194500
C281	C28	0.506000	0.971500	0.148900
C291	C29	0.611300	0.986500	0.102900
H171	H17	0.678700	0.934900	0.103600
C301	C30	0.615600	0.078400	0.055900
H181	H18	0.688000	0.088600	0.025600
C311	C31	0.422300	0.139900	0.097800
H191	H19	0.357000	0.193300	0.096600
C321	C32	0.410700	0.051600	0.147300
H201	H20	0.339800	0.045600	0.179300
Cd21	Cd2	0.015010	0.200550	0.466050
N51	N5	0.483700	0.865400	0.275700
N61	N6	0.472000	0.701100	0.226000
N71	N7	0.486700	0.774000	0.163600
N81	N8	0.521200	0.153700	0.051600
O51	O5	0.165700	0.076400	0.433200
O61	O6	0.268400	0.226700	0.465900
O71	O7	0.762500	0.219700	0.471200
O81	O8	0.854300	0.087400	0.409700
C331	C33	0.766600	0.365500	0.939500
C341	C34	0.889500	0.415300	0.910800
C351	C35	0.880200	0.505200	0.860500
H211	H21	0.798700	0.537600	0.846000
C361	C36	0.992800	0.545800	0.832500
C371	C37	0.115100	0.503000	0.855400
H221	H22	0.190900	0.533700	0.837000
C381	C38	0.123300	0.413700	0.906300
C391	C39	0.010500	0.368700	0.932600
H231	H23	0.016100	0.306600	0.965300
C401	C40	0.255400	0.364500	0.931500
C411	C41	0.962200	0.786500	0.874900
H241	H24	0.944700	0.863400	0.871600
H251	H25	0.892100	0.750700	0.900200
H261	H26	0.044600	0.774200	0.906900
C421	C42	0.970300	0.742300	0.792400
C431	C43	0.993200	0.629400	0.694500
C441	C44	0.006000	0.528500	0.648900
C451	C45	0.111300	0.513500	0.602900
H271	H27	0.178700	0.565100	0.603600
C461	C46	0.115600	0.421600	0.555900
H281	H28	0.188000	0.411400	0.525600
C471	C47	0.922300	0.360100	0.597800
H291	H29	0.857000	0.306700	0.596600
C481	C48	0.910700	0.448400	0.647300
H301	H30	0.839800	0.454400	0.679300
Cd31	Cd3	0.515010	0.299450	0.966050
N91	N9	0.983700	0.634600	0.775700
N101	N10	0.972000	0.798900	0.726000
N111	N11	0.986700	0.726000	0.663600
N121	N12	0.021200	0.346300	0.551600
O91	O9	0.665700	0.423600	0.933200
O101	O10	0.768400	0.273300	0.965900
O111	O11	0.262500	0.280300	0.971200
O121	O12	0.354300	0.412600	0.909700
C491	C49	0.733400	0.865500	0.560500
C501	C50	0.610500	0.915300	0.589200
C511	C51	0.619800	0.005200	0.639500
H311	H31	0.701300	0.037600	0.654000
C521	C52	0.507200	0.045800	0.667500
C531	C53	0.384900	0.003000	0.644600
H321	H32	0.309100	0.033700	0.663000
C541	C54	0.376700	0.913700	0.593700
C551	C55	0.489500	0.868700	0.567400
H331	H33	0.483900	0.806600	0.534700
C561	C56	0.244600	0.864500	0.568500
C571	C57	0.537800	0.286500	0.625100
H341	H34	0.555300	0.363400	0.628400
H351	H35	0.607900	0.250700	0.599800
H361	H36	0.455400	0.274200	0.593100
C581	C58	0.529700	0.242300	0.707600
C591	C59	0.506800	0.129400	0.805500
C601	C60	0.494000	0.028500	0.851100
C611	C61	0.388700	0.013500	0.897100
H371	H37	0.321300	0.065100	0.896400
C621	C62	0.384400	0.921600	0.944100
H381	H38	0.312000	0.911400	0.974400
C631	C63	0.577700	0.860100	0.902200
H391	H39	0.643000	0.806700	0.903400
C641	C64	0.589300	0.948400	0.852700
H401	H40	0.660200	0.954400	0.820700
Cd41	Cd4	0.984990	0.799450	0.533950
N131	N13	0.516300	0.134600	0.724300
N141	N14	0.528000	0.298900	0.774000
N151	N15	0.513300	0.226000	0.836400
N161	N16	0.478800	0.846300	0.948400
O131	O13	0.834300	0.923600	0.566800
O141	O14	0.731600	0.773300	0.534100
O151	O15	0.237500	0.780300	0.528800
O161	O16	0.145700	0.912600	0.590300
