data_PUGFOO_clean_PM
_symmetry_space_group_name_H-M	'P1'
_cell_length_a	16.709400
_cell_length_b	20.285700
_cell_length_c	17.193600
_cell_angle_alpha	90.000000
_cell_angle_beta	99.178000
_cell_angle_gamma	90.000000
_symmetry_Int_Tables_number 1

loop_
_symmetry_equiv_pos_as_xyz
'x,y,z'

loop_
_atom_site_label
_atom_site_type_symbol
_atom_site_fract_x
_atom_site_fract_y
_atom_site_fract_z
Co11	Co1	0.586450	0.851630	0.441400
Mn11	Mn1	0.463000	0.832330	0.245790
Mn21	Mn2	0.355910	0.874520	0.053710
S11	S1	0.548780	0.429260	0.334890
S21	S2	0.605620	0.514110	0.958830
S31	S3	0.947670	0.724670	0.233910
O11	O1	0.846100	0.388700	0.131300
O21	O2	0.988200	0.605700	0.971000
O31	O3	0.587200	0.751200	0.440900
O41	O4	0.480400	0.763100	0.157600
O51	O5	0.499800	0.757800	0.331900
O61	O6	0.912600	0.362300	0.248600
O71	O7	0.069900	0.415500	0.330700
O81	O8	0.336400	0.806230	0.237800
O91	O9	0.949900	0.603500	0.844100
O101	O10	0.285500	0.815100	0.111300
O111	O11	0.439500	0.801400	0.037100
O121	O12	0.057700	0.455600	0.444700
O131	O13	0.557700	0.398100	0.409500
O141	O14	0.480700	0.413800	0.275900
O151	O15	0.613400	0.465540	0.019100
O161	O16	0.557300	0.499800	0.885000
O171	O17	0.895900	0.720600	0.160100
O181	O18	0.926200	0.766380	0.293500
C11	C1	0.544500	0.725500	0.381900
C21	C2	0.548200	0.651700	0.372000
C31	C3	0.588700	0.610700	0.429500
H11	H1	0.616100	0.628800	0.475900
C41	C4	0.589100	0.543100	0.419000
H21	H2	0.615900	0.515900	0.458300
C51	C5	0.549500	0.516400	0.349700
C61	C6	0.512200	0.556300	0.290000
H31	H3	0.487700	0.538100	0.242500
C71	C7	0.511800	0.624300	0.301700
H41	H4	0.486500	0.651500	0.261600
C81	C8	0.637200	0.415000	0.296300
C91	C9	0.705700	0.391800	0.343900
H51	H5	0.704400	0.383000	0.396800
C101	C10	0.775400	0.381800	0.313500
H61	H6	0.822000	0.366800	0.345600
C111	C11	0.775900	0.394100	0.236100
C121	C12	0.705700	0.415400	0.188400
H71	H7	0.706000	0.421900	0.134900
C131	C13	0.637100	0.426700	0.218400
H81	H8	0.590800	0.442100	0.186500
C141	C14	0.851700	0.380700	0.204000
C151	C15	0.474700	0.759900	0.085400
C161	C16	0.509500	0.700300	0.052600
C171	C17	0.551500	0.653400	0.102700
H91	H9	0.559000	0.660400	0.156800
C181	C18	0.581800	0.597200	0.073900
H101	H10	0.609600	0.566200	0.107900
C191	C19	0.570500	0.587800	0.994600
C201	C20	0.529600	0.634200	0.943600
H111	H11	0.522900	0.627500	0.889500
C211	C21	0.498700	0.690600	0.973600
H121	H12	0.470600	0.721500	0.939700
C221	C22	0.704100	0.534400	0.943600
C231	C23	0.768300	0.524600	0.003000
H131	H13	0.760500	0.505000	0.050100
C241	C24	0.844300	0.544400	0.991600
H141	H14	0.888400	0.538800	0.031600
C251	C25	0.855200	0.572000	0.922300
C261	C26	0.789400	0.580100	0.862700
H151	H15	0.797300	0.598300	0.814800
C271	C27	0.713000	0.561700	0.873400
H161	H16	0.668700	0.567700	0.833800
C281	C28	0.936500	0.594900	0.910900
C291	C29	0.279900	0.802800	0.180100
C301	C30	0.197700	0.782600	0.194200
C311	C31	0.135500	0.773500	0.132100
H171	H17	0.145700	0.779900	0.081000
C321	C32	0.059500	0.755500	0.143400
H181	H18	0.018500	0.748700	0.100700
C331	C33	0.045200	0.747700	0.218700
C341	C34	0.106000	0.757100	0.281500
H191	H19	0.095100	0.752100	0.332500
C351	C35	0.182800	0.773800	0.269900
H201	H20	0.224200	0.779100	0.312600
C361	C36	0.963000	0.644000	0.272300
C371	C37	0.969000	0.634500	0.351000
H211	H21	0.959500	0.669000	0.384000
C381	C38	0.989400	0.572700	0.381200
H221	H22	0.991000	0.565500	0.434900
C391	C39	0.007400	0.521000	0.334500
C401	C40	0.998200	0.530200	0.255600
H231	H23	0.007200	0.495400	0.222800
C411	C41	0.975300	0.591800	0.223400
H241	H24	0.968200	0.597900	0.169200
C421	C42	0.044200	0.459700	0.372100
Co21	Co2	0.913550	0.351630	0.058600
Mn31	Mn3	0.037000	0.332330	0.254210
Mn41	Mn4	0.144090	0.374520	0.446290
S41	S4	0.951220	0.929260	0.165110
S51	S5	0.894380	0.014110	0.541170
S61	S6	0.552330	0.224670	0.266090
O191	O19	0.653900	0.888700	0.368700
O201	O20	0.511800	0.105700	0.529000
O211	O21	0.912800	0.251200	0.059100
O221	O22	0.019600	0.263100	0.342400
O231	O23	0.000200	0.257800	0.168100
O241	O24	0.587400	0.862300	0.251400
O251	O25	0.430100	0.915500	0.169300
O261	O26	0.163600	0.306230	0.262200
O271	O27	0.550100	0.103500	0.655900
O281	O28	0.214500	0.315100	0.388700
O291	O29	0.060500	0.301400	0.462900
O301	O30	0.442300	0.955600	0.055300
O311	O31	0.942300	0.898100	0.090500
O321	O32	0.019300	0.913800	0.224100
O331	O33	0.886600	0.965540	0.480900
O341	O34	0.942700	0.999800	0.615000
O351	O35	0.604100	0.220600	0.339900
O361	O36	0.573800	0.266380	0.206500
C431	C43	0.955500	0.225500	0.118100
C441	C44	0.951800	0.151700	0.128000
C451	C45	0.911300	0.110700	0.070500
H251	H25	0.883900	0.128800	0.024100
C461	C46	0.910900	0.043100	0.081000
H261	H26	0.884100	0.015900	0.041700
C471	C47	0.950500	0.016400	0.150300
C481	C48	0.987800	0.056300	0.210000
H271	H27	0.012300	0.038100	0.257500
C491	C49	0.988200	0.124300	0.198300
H281	H28	0.013500	0.151500	0.238400
C501	C50	0.862800	0.915000	0.203700
C511	C51	0.794300	0.891800	0.156100
H291	H29	0.795600	0.883000	0.103200
C521	C52	0.724600	0.881800	0.186500
H301	H30	0.678000	0.866800	0.154400
C531	C53	0.724100	0.894100	0.263900
C541	C54	0.794300	0.915400	0.311600
H311	H31	0.794000	0.921900	0.365100
C551	C55	0.862900	0.926700	0.281600
H321	H32	0.909200	0.942100	0.313500
C561	C56	0.648300	0.880700	0.296000
C571	C57	0.025300	0.259900	0.414600
C581	C58	0.990500	0.200300	0.447400
C591	C59	0.948500	0.153400	0.397300
H331	H33	0.941000	0.160400	0.343200
C601	C60	0.918200	0.097200	0.426100
H341	H34	0.890400	0.066200	0.392100
C611	C61	0.929500	0.087800	0.505400
C621	C62	0.970400	0.134200	0.556400
H351	H35	0.977100	0.127500	0.610500
C631	C63	0.001300	0.190600	0.526400
H361	H36	0.029400	0.221500	0.560300
C641	C64	0.795900	0.034400	0.556400
C651	C65	0.731700	0.024600	0.497000
H371	H37	0.739500	0.005000	0.449900
C661	C66	0.655700	0.044400	0.508400
H381	H38	0.611600	0.038800	0.468400
C671	C67	0.644800	0.072000	0.577700
C681	C68	0.710600	0.080100	0.637300
H391	H39	0.702700	0.098300	0.685200
C691	C69	0.787000	0.061700	0.626600
H401	H40	0.831300	0.067700	0.666200
C701	C70	0.563500	0.094900	0.589100
C711	C71	0.220100	0.302800	0.319900
C721	C72	0.302300	0.282600	0.305800
C731	C73	0.364500	0.273500	0.367900
H411	H41	0.354300	0.279900	0.419000
C741	C74	0.440500	0.255500	0.356600
H421	H42	0.481500	0.248700	0.399300
C751	C75	0.454800	0.247700	0.281300
C761	C76	0.394000	0.257100	0.218500
H431	H43	0.404900	0.252100	0.167500
C771	C77	0.317200	0.273800	0.230100
H441	H44	0.275800	0.279100	0.187400
C781	C78	0.537000	0.144000	0.227700
C791	C79	0.531000	0.134500	0.149000
H451	H45	0.540500	0.169000	0.116000
C801	C80	0.510600	0.072700	0.118800
H461	H46	0.509000	0.065500	0.065100
C811	C81	0.492600	0.021000	0.165500
C821	C82	0.501800	0.030200	0.244400
H471	H47	0.492800	0.995400	0.277200
C831	C83	0.524700	0.091800	0.276600
H481	H48	0.531800	0.097900	0.330800
C841	C84	0.455800	0.959700	0.127900
Co31	Co3	0.413550	0.148370	0.558600
Mn51	Mn5	0.537000	0.167670	0.754210
Mn61	Mn6	0.644090	0.125480	0.946290
S71	S7	0.451220	0.570740	0.665110
S81	S8	0.394380	0.485890	0.041170
S91	S9	0.052330	0.275330	0.766090
O371	O37	0.153900	0.611300	0.868700
O381	O38	0.011800	0.394300	0.029000
O391	O39	0.412800	0.248800	0.559100
O401	O40	0.519600	0.236900	0.842400
O411	O41	0.500200	0.242200	0.668100
O421	O42	0.087400	0.637700	0.751400
O431	O43	0.930100	0.584500	0.669300
O441	O44	0.663600	0.193770	0.762200
O451	O45	0.050100	0.396500	0.155900
O461	O46	0.714500	0.184900	0.888700
O471	O47	0.560500	0.198600	0.962900
O481	O48	0.942300	0.544400	0.555300
O491	O49	0.442300	0.601900	0.590500
O501	O50	0.519300	0.586200	0.724100
O511	O51	0.386600	0.534460	0.980900
O521	O52	0.442700	0.500200	0.115000
O531	O53	0.104100	0.279400	0.839900
O541	O54	0.073800	0.233620	0.706500
C851	C85	0.455500	0.274500	0.618100
C861	C86	0.451800	0.348300	0.628000
C871	C87	0.411300	0.389300	0.570500
H491	H49	0.383900	0.371200	0.524100
C881	C88	0.410900	0.456900	0.581000
H501	H50	0.384100	0.484100	0.541700
C891	C89	0.450500	0.483600	0.650300
C901	C90	0.487800	0.443700	0.710000
H511	H51	0.512300	0.461900	0.757500
C911	C91	0.488200	0.375700	0.698300
H521	H52	0.513500	0.348500	0.738400
C921	C92	0.362800	0.585000	0.703700
C931	C93	0.294300	0.608200	0.656100
H531	H53	0.295600	0.617000	0.603200
C941	C94	0.224600	0.618200	0.686500
H541	H54	0.178000	0.633200	0.654400
C951	C95	0.224100	0.605900	0.763900
C961	C96	0.294300	0.584600	0.811600
H551	H55	0.294000	0.578100	0.865100
C971	C97	0.362900	0.573300	0.781600
H561	H56	0.409200	0.557900	0.813500
C981	C98	0.148300	0.619300	0.796000
C991	C99	0.525300	0.240100	0.914600
C1001	C100	0.490500	0.299700	0.947400
C1011	C101	0.448500	0.346600	0.897300
H571	H57	0.441000	0.339600	0.843200
C1021	C102	0.418200	0.402800	0.926100
H581	H58	0.390400	0.433800	0.892100
C1031	C103	0.429500	0.412200	0.005400
C1041	C104	0.470400	0.365800	0.056400
H591	H59	0.477100	0.372500	0.110500
C1051	C105	0.501300	0.309400	0.026400
H601	H60	0.529400	0.278500	0.060300
C1061	C106	0.295900	0.465600	0.056400
C1071	C107	0.231700	0.475400	0.997000
H611	H61	0.239500	0.495000	0.949900
C1081	C108	0.155700	0.455600	0.008400
H621	H62	0.111600	0.461200	0.968400
C1091	C109	0.144800	0.428000	0.077700
C1101	C110	0.210600	0.419900	0.137300
H631	H63	0.202700	0.401700	0.185200
C1111	C111	0.287000	0.438300	0.126600
H641	H64	0.331300	0.432300	0.166200
C1121	C112	0.063500	0.405100	0.089100
C1131	C113	0.720100	0.197200	0.819900
C1141	C114	0.802300	0.217400	0.805800
C1151	C115	0.864500	0.226500	0.867900
H651	H65	0.854300	0.220100	0.919000
C1161	C116	0.940500	0.244500	0.856600
H661	H66	0.981500	0.251300	0.899300
C1171	C117	0.954800	0.252300	0.781300
C1181	C118	0.894000	0.242900	0.718500
H671	H67	0.904900	0.247900	0.667500
C1191	C119	0.817200	0.226200	0.730100
H681	H68	0.775800	0.220900	0.687400
C1201	C120	0.037000	0.356000	0.727700
C1211	C121	0.031000	0.365500	0.649000
H691	H69	0.040500	0.331000	0.616000
C1221	C122	0.010600	0.427300	0.618800
H701	H70	0.009000	0.434500	0.565100
C1231	C123	0.992600	0.479000	0.665500
C1241	C124	0.001800	0.469800	0.744400
H711	H71	0.992800	0.504600	0.777200
C1251	C125	0.024700	0.408200	0.776600
H721	H72	0.031800	0.402100	0.830800
C1261	C126	0.955800	0.540300	0.627900
Co41	Co4	0.086450	0.648370	0.941400
Mn71	Mn7	0.963000	0.667670	0.745790
Mn81	Mn8	0.855910	0.625480	0.553710
S101	S10	0.048780	0.070740	0.834890
S111	S11	0.105620	0.985890	0.458830
S121	S12	0.447670	0.775330	0.733910
O551	O55	0.346100	0.111300	0.631300
O561	O56	0.488200	0.894300	0.471000
O571	O57	0.087200	0.748800	0.940900
O581	O58	0.980400	0.736900	0.657600
O591	O59	0.999800	0.742200	0.831900
O601	O60	0.412600	0.137700	0.748600
O611	O61	0.569900	0.084500	0.830700
O621	O62	0.836400	0.693770	0.737800
O631	O63	0.449900	0.896500	0.344100
O641	O64	0.785500	0.684900	0.611300
O651	O65	0.939500	0.698600	0.537100
O661	O66	0.557700	0.044400	0.944700
O671	O67	0.057700	0.101900	0.909500
O681	O68	0.980700	0.086200	0.775900
O691	O69	0.113400	0.034460	0.519100
O701	O70	0.057300	0.000200	0.385000
O711	O71	0.395900	0.779400	0.660100
O721	O72	0.426200	0.733620	0.793500
C1271	C127	0.044500	0.774500	0.881900
C1281	C128	0.048200	0.848300	0.872000
C1291	C129	0.088700	0.889300	0.929500
H731	H73	0.116100	0.871200	0.975900
C1301	C130	0.089100	0.956900	0.919000
H741	H74	0.115900	0.984100	0.958300
C1311	C131	0.049500	0.983600	0.849700
C1321	C132	0.012200	0.943700	0.790000
H751	H75	0.987700	0.961900	0.742500
C1331	C133	0.011800	0.875700	0.801700
H761	H76	0.986500	0.848500	0.761600
C1341	C134	0.137200	0.085000	0.796300
C1351	C135	0.205700	0.108200	0.843900
H771	H77	0.204400	0.117000	0.896800
C1361	C136	0.275400	0.118200	0.813500
H781	H78	0.322000	0.133200	0.845600
C1371	C137	0.275900	0.105900	0.736100
C1381	C138	0.205700	0.084600	0.688400
H791	H79	0.206000	0.078100	0.634900
C1391	C139	0.137100	0.073300	0.718400
H801	H80	0.090800	0.057900	0.686500
C1401	C140	0.351700	0.119300	0.704000
C1411	C141	0.974700	0.740100	0.585400
C1421	C142	0.009500	0.799700	0.552600
C1431	C143	0.051500	0.846600	0.602700
H811	H81	0.059000	0.839600	0.656800
C1441	C144	0.081800	0.902800	0.573900
H821	H82	0.109600	0.933800	0.607900
C1451	C145	0.070500	0.912200	0.494600
C1461	C146	0.029600	0.865800	0.443600
H831	H83	0.022900	0.872500	0.389500
C1471	C147	0.998700	0.809400	0.473600
H841	H84	0.970600	0.778500	0.439700
C1481	C148	0.204100	0.965600	0.443600
C1491	C149	0.268300	0.975400	0.503000
H851	H85	0.260500	0.995000	0.550100
C1501	C150	0.344300	0.955600	0.491600
H861	H86	0.388400	0.961200	0.531600
C1511	C151	0.355200	0.928000	0.422300
C1521	C152	0.289400	0.919900	0.362700
H871	H87	0.297300	0.901700	0.314800
C1531	C153	0.213000	0.938300	0.373400
H881	H88	0.168700	0.932300	0.333800
C1541	C154	0.436500	0.905100	0.410900
C1551	C155	0.779900	0.697200	0.680100
C1561	C156	0.697700	0.717400	0.694200
C1571	C157	0.635500	0.726500	0.632100
H891	H89	0.645700	0.720100	0.581000
C1581	C158	0.559500	0.744500	0.643400
H901	H90	0.518500	0.751300	0.600700
C1591	C159	0.545200	0.752300	0.718700
C1601	C160	0.606000	0.742900	0.781500
H911	H91	0.595100	0.747900	0.832500
C1611	C161	0.682800	0.726200	0.769900
H921	H92	0.724200	0.720900	0.812600
C1621	C162	0.463000	0.856000	0.772300
C1631	C163	0.469000	0.865500	0.851000
H931	H93	0.459500	0.831000	0.884000
C1641	C164	0.489400	0.927300	0.881200
H941	H94	0.491000	0.934500	0.934900
C1651	C165	0.507400	0.979000	0.834500
C1661	C166	0.498200	0.969800	0.755600
H951	H95	0.507200	0.004600	0.722800
C1671	C167	0.475300	0.908200	0.723400
H961	H96	0.468200	0.902100	0.669200
C1681	C168	0.544200	0.040300	0.872100
