data_PUGFII_clean_PM
_symmetry_space_group_name_H-M	'P1'
_cell_length_a	16.709400
_cell_length_b	20.285700
_cell_length_c	17.193600
_cell_angle_alpha	90.000000
_cell_angle_beta	99.178000
_cell_angle_gamma	90.000000
_symmetry_Int_Tables_number 1

loop_
_symmetry_equiv_pos_as_xyz
'x,y,z'

loop_
_atom_site_label
_atom_site_type_symbol
_atom_site_fract_x
_atom_site_fract_y
_atom_site_fract_z
Mn11	Mn1	0.969120	0.833540	0.247520
Mn21	Mn2	0.864160	0.875030	0.052890
Mn31	Mn3	0.087660	0.852210	0.443030
S11	S1	0.452050	0.725100	0.229020
S21	S2	0.106930	0.514090	0.957790
S31	S3	0.042700	0.431950	0.344330
O11	O1	0.014900	0.756800	0.325300
O21	O2	0.568400	0.417700	0.324000
O31	O3	0.986800	0.768610	0.153400
O41	O4	0.409500	0.368500	0.254300
O51	O5	0.842900	0.807120	0.243410
O61	O6	0.462600	0.610770	0.859700
O71	O7	0.798900	0.812900	0.114500
O81	O8	0.947600	0.804230	0.030200
O91	O9	0.551100	0.456000	0.439200
O101	O10	0.341400	0.386200	0.134100
O111	O11	0.081200	0.751100	0.445700
O121	O12	0.492900	0.600000	0.987300
O131	O13	0.426400	0.765000	0.289500
O141	O14	0.403300	0.721840	0.153200
O151	O15	0.061900	0.500310	0.882300
O161	O16	0.110100	0.467040	0.019800
O171	O17	0.050300	0.401660	0.419800
O181	O18	0.975900	0.415980	0.284800
C11	C1	0.788800	0.803300	0.184200
C21	C2	0.705500	0.784100	0.196900
C31	C3	0.685500	0.776800	0.272000
H11	H1	0.725100	0.783300	0.315900
C41	C4	0.608000	0.759900	0.282200
H21	H2	0.594600	0.755700	0.332500
C51	C5	0.550600	0.749400	0.216400
C61	C6	0.569000	0.757000	0.141300
H31	H3	0.529500	0.750000	0.097500
C71	C7	0.645900	0.774900	0.132100
H41	H4	0.658200	0.781100	0.081700
C81	C8	0.467200	0.644800	0.266500
C91	C9	0.470200	0.634700	0.347000
H51	H5	0.459100	0.669000	0.379600
C101	C10	0.489800	0.573200	0.377100
H61	H6	0.491000	0.565300	0.430600
C111	C11	0.507800	0.522900	0.328600
C121	C12	0.501300	0.532900	0.247900
H71	H7	0.510800	0.498300	0.215300
C131	C13	0.480600	0.594000	0.216300
H81	H8	0.475800	0.601000	0.162300
C141	C14	0.542100	0.461100	0.365500
C151	C15	0.980700	0.763700	0.079900
C161	C16	0.014600	0.702100	0.048400
C171	C17	0.003900	0.690700	0.968600
H91	H9	0.977000	0.721600	0.934000
C181	C18	0.032900	0.633300	0.939400
H101	H10	0.026100	0.625300	0.885500
C191	C19	0.072200	0.588300	0.992500
C201	C20	0.082600	0.599900	0.072200
H111	H11	0.109200	0.568900	0.107100
C211	C21	0.054000	0.657000	0.100400
H121	H12	0.061300	0.665100	0.154300
C221	C22	0.206900	0.532700	0.945200
C231	C23	0.221400	0.560900	0.876100
H131	H13	0.178900	0.567500	0.834900
C241	C24	0.299000	0.579600	0.868100
H141	H14	0.309300	0.598300	0.821300
C251	C25	0.360700	0.570100	0.929900
C261	C26	0.345600	0.540100	0.998700
H151	H15	0.388100	0.532700	0.039800
C271	C27	0.268700	0.521200	0.006500
H161	H16	0.258400	0.501000	0.052400
C281	C28	0.443700	0.594900	0.924500
C291	C29	0.047100	0.725200	0.382500
C301	C30	0.046900	0.652200	0.375400
C311	C31	0.017300	0.624200	0.303200
H171	H17	0.997800	0.651100	0.260700
C321	C32	0.016500	0.557400	0.293800
H181	H18	0.997000	0.538700	0.245000
C331	C33	0.044700	0.518200	0.357300
C341	C34	0.072500	0.544500	0.428800
H191	H19	0.090100	0.517200	0.471600
C351	C35	0.074400	0.612100	0.437600
H201	H20	0.094500	0.630500	0.486300
C361	C36	0.131300	0.416400	0.304000
C371	C37	0.130800	0.425500	0.224400
H211	H21	0.083900	0.439300	0.192000
C381	C38	0.201000	0.413700	0.193400
H221	H22	0.201100	0.418700	0.139600
C391	C39	0.270800	0.394800	0.242000
C401	C40	0.270000	0.385200	0.321500
H231	H23	0.316900	0.371400	0.354000
C411	C41	0.199900	0.395900	0.352900
H241	H24	0.199300	0.389300	0.406300
C421	C42	0.347200	0.382300	0.207600
Mn41	Mn4	0.530880	0.333540	0.252480
Mn51	Mn5	0.635840	0.375030	0.447110
Mn61	Mn6	0.412340	0.352210	0.056970
S41	S4	0.047950	0.225100	0.270980
S51	S5	0.393070	0.014090	0.542210
S61	S6	0.457300	0.931950	0.155670
O191	O19	0.485100	0.256800	0.174700
O201	O20	0.931600	0.917700	0.176000
O211	O21	0.513200	0.268610	0.346600
O221	O22	0.090500	0.868500	0.245700
O231	O23	0.657100	0.307120	0.256590
O241	O24	0.037400	0.110770	0.640300
O251	O25	0.701100	0.312900	0.385500
O261	O26	0.552400	0.304230	0.469800
O271	O27	0.948900	0.956000	0.060800
O281	O28	0.158600	0.886200	0.365900
O291	O29	0.418800	0.251100	0.054300
O301	O30	0.007100	0.100000	0.512700
O311	O31	0.073600	0.265000	0.210500
O321	O32	0.096700	0.221840	0.346800
O331	O33	0.438100	0.000310	0.617700
O341	O34	0.389900	0.967040	0.480200
O351	O35	0.449700	0.901660	0.080200
O361	O36	0.524100	0.915980	0.215200
C431	C43	0.711200	0.303300	0.315800
C441	C44	0.794500	0.284100	0.303100
C451	C45	0.814500	0.276800	0.228000
H251	H25	0.774900	0.283300	0.184100
C461	C46	0.892000	0.259900	0.217800
H261	H26	0.905400	0.255700	0.167500
C471	C47	0.949400	0.249400	0.283600
C481	C48	0.931000	0.257000	0.358700
H271	H27	0.970500	0.250000	0.402500
C491	C49	0.854100	0.274900	0.367900
H281	H28	0.841800	0.281100	0.418300
C501	C50	0.032800	0.144800	0.233500
C511	C51	0.029800	0.134700	0.153000
H291	H29	0.040900	0.169000	0.120400
C521	C52	0.010200	0.073200	0.122900
H301	H30	0.009000	0.065300	0.069400
C531	C53	0.992200	0.022900	0.171400
C541	C54	0.998700	0.032900	0.252100
H311	H31	0.989200	0.998300	0.284700
C551	C55	0.019400	0.094000	0.283700
H321	H32	0.024200	0.101000	0.337700
C561	C56	0.957900	0.961100	0.134500
C571	C57	0.519300	0.263700	0.420100
C581	C58	0.485400	0.202100	0.451600
C591	C59	0.496100	0.190700	0.531400
H331	H33	0.523000	0.221600	0.566000
C601	C60	0.467100	0.133300	0.560600
H341	H34	0.473900	0.125300	0.614500
C611	C61	0.427800	0.088300	0.507500
C621	C62	0.417400	0.099900	0.427800
H351	H35	0.390800	0.068900	0.392900
C631	C63	0.446000	0.157000	0.399600
H361	H36	0.438700	0.165100	0.345700
C641	C64	0.293100	0.032700	0.554800
C651	C65	0.278600	0.060900	0.623900
H371	H37	0.321100	0.067500	0.665100
C661	C66	0.201000	0.079600	0.631900
H381	H38	0.190700	0.098300	0.678700
C671	C67	0.139300	0.070100	0.570100
C681	C68	0.154400	0.040100	0.501300
H391	H39	0.111900	0.032700	0.460200
C691	C69	0.231300	0.021200	0.493500
H401	H40	0.241600	0.001000	0.447600
C701	C70	0.056300	0.094900	0.575500
C711	C71	0.452900	0.225200	0.117500
C721	C72	0.453100	0.152200	0.124600
C731	C73	0.482700	0.124200	0.196800
H411	H41	0.502200	0.151100	0.239300
C741	C74	0.483500	0.057400	0.206200
H421	H42	0.503000	0.038700	0.255000
C751	C75	0.455300	0.018200	0.142700
C761	C76	0.427500	0.044500	0.071200
H431	H43	0.409900	0.017200	0.028400
C771	C77	0.425600	0.112100	0.062400
H441	H44	0.405500	0.130500	0.013700
C781	C78	0.368700	0.916400	0.196000
C791	C79	0.369200	0.925500	0.275600
H451	H45	0.416100	0.939300	0.308000
C801	C80	0.299000	0.913700	0.306600
H461	H46	0.298900	0.918700	0.360400
C811	C81	0.229200	0.894800	0.258000
C821	C82	0.230000	0.885200	0.178500
H471	H47	0.183100	0.871400	0.146000
C831	C83	0.300100	0.895900	0.147100
H481	H48	0.300700	0.889300	0.093700
C841	C84	0.152800	0.882300	0.292400
Mn71	Mn7	0.030880	0.166460	0.752480
Mn81	Mn8	0.135840	0.124970	0.947110
Mn91	Mn9	0.912340	0.147790	0.556970
S71	S7	0.547950	0.274900	0.770980
S81	S8	0.893070	0.485910	0.042210
S91	S9	0.957300	0.568050	0.655670
O371	O37	0.985100	0.243200	0.674700
O381	O38	0.431600	0.582300	0.676000
O391	O39	0.013200	0.231390	0.846600
O401	O40	0.590500	0.631500	0.745700
O411	O41	0.157100	0.192880	0.756590
O421	O42	0.537400	0.389230	0.140300
O431	O43	0.201100	0.187100	0.885500
O441	O44	0.052400	0.195770	0.969800
O451	O45	0.448900	0.544000	0.560800
O461	O46	0.658600	0.613800	0.865900
O471	O47	0.918800	0.248900	0.554300
O481	O48	0.507100	0.400000	0.012700
O491	O49	0.573600	0.235000	0.710500
O501	O50	0.596700	0.278160	0.846800
O511	O51	0.938100	0.499690	0.117700
O521	O52	0.889900	0.532960	0.980200
O531	O53	0.949700	0.598340	0.580200
O541	O54	0.024100	0.584020	0.715200
C851	C85	0.211200	0.196700	0.815800
C861	C86	0.294500	0.215900	0.803100
C871	C87	0.314500	0.223200	0.728000
H491	H49	0.274900	0.216700	0.684100
C881	C88	0.392000	0.240100	0.717800
H501	H50	0.405400	0.244300	0.667500
C891	C89	0.449400	0.250600	0.783600
C901	C90	0.431000	0.243000	0.858700
H511	H51	0.470500	0.250000	0.902500
C911	C91	0.354100	0.225100	0.867900
H521	H52	0.341800	0.218900	0.918300
C921	C92	0.532800	0.355200	0.733500
C931	C93	0.529800	0.365300	0.653000
H531	H53	0.540900	0.331000	0.620400
C941	C94	0.510200	0.426800	0.622900
H541	H54	0.509000	0.434700	0.569400
C951	C95	0.492200	0.477100	0.671400
C961	C96	0.498700	0.467100	0.752100
H551	H55	0.489200	0.501700	0.784700
C971	C97	0.519400	0.406000	0.783700
H561	H56	0.524200	0.399000	0.837700
C981	C98	0.457900	0.538900	0.634500
C991	C99	0.019300	0.236300	0.920100
C1001	C100	0.985400	0.297900	0.951600
C1011	C101	0.996100	0.309300	0.031400
H571	H57	0.023000	0.278400	0.066000
C1021	C102	0.967100	0.366700	0.060600
H581	H58	0.973900	0.374700	0.114500
C1031	C103	0.927800	0.411700	0.007500
C1041	C104	0.917400	0.400100	0.927800
H591	H59	0.890800	0.431100	0.892900
C1051	C105	0.946000	0.343000	0.899600
H601	H60	0.938700	0.334900	0.845700
C1061	C106	0.793100	0.467300	0.054800
C1071	C107	0.778600	0.439100	0.123900
H611	H61	0.821100	0.432500	0.165100
C1081	C108	0.701000	0.420400	0.131900
H621	H62	0.690700	0.401700	0.178700
C1091	C109	0.639300	0.429900	0.070100
C1101	C110	0.654400	0.459900	0.001300
H631	H63	0.611900	0.467300	0.960200
C1111	C111	0.731300	0.478800	0.993500
H641	H64	0.741600	0.499000	0.947600
C1121	C112	0.556300	0.405100	0.075500
C1131	C113	0.952900	0.274800	0.617500
C1141	C114	0.953100	0.347800	0.624600
C1151	C115	0.982700	0.375800	0.696800
H651	H65	0.002200	0.348900	0.739300
C1161	C116	0.983500	0.442600	0.706200
H661	H66	0.003000	0.461300	0.755000
C1171	C117	0.955300	0.481800	0.642700
C1181	C118	0.927500	0.455500	0.571200
H671	H67	0.909900	0.482800	0.528400
C1191	C119	0.925600	0.387900	0.562400
H681	H68	0.905500	0.369500	0.513700
C1201	C120	0.868700	0.583600	0.696000
C1211	C121	0.869200	0.574500	0.775600
H691	H69	0.916100	0.560700	0.808000
C1221	C122	0.799000	0.586300	0.806600
H701	H70	0.798900	0.581300	0.860400
C1231	C123	0.729200	0.605200	0.758000
C1241	C124	0.730000	0.614800	0.678500
H711	H71	0.683100	0.628600	0.646000
C1251	C125	0.800100	0.604100	0.647100
H721	H72	0.800700	0.610700	0.593700
C1261	C126	0.652800	0.617700	0.792400
Mn101	Mn10	0.469120	0.666460	0.747520
Mn111	Mn11	0.364160	0.624970	0.552890
Mn121	Mn12	0.587660	0.647790	0.943030
S101	S10	0.952050	0.774900	0.729020
S111	S11	0.606930	0.985910	0.457790
S121	S12	0.542700	0.068050	0.844330
O551	O55	0.514900	0.743200	0.825300
O561	O56	0.068400	0.082300	0.824000
O571	O57	0.486800	0.731390	0.653400
O581	O58	0.909500	0.131500	0.754300
O591	O59	0.342900	0.692880	0.743410
O601	O60	0.962600	0.889230	0.359700
O611	O61	0.298900	0.687100	0.614500
O621	O62	0.447600	0.695770	0.530200
O631	O63	0.051100	0.044000	0.939200
O641	O64	0.841400	0.113800	0.634100
O651	O65	0.581200	0.748900	0.945700
O661	O66	0.992900	0.900000	0.487300
O671	O67	0.926400	0.735000	0.789500
O681	O68	0.903300	0.778160	0.653200
O691	O69	0.561900	0.999690	0.382300
O701	O70	0.610100	0.032960	0.519800
O711	O71	0.550300	0.098340	0.919800
O721	O72	0.475900	0.084020	0.784800
C1271	C127	0.288800	0.696700	0.684200
C1281	C128	0.205500	0.715900	0.696900
C1291	C129	0.185500	0.723200	0.772000
H731	H73	0.225100	0.716700	0.815900
C1301	C130	0.108000	0.740100	0.782200
H741	H74	0.094600	0.744300	0.832500
C1311	C131	0.050600	0.750600	0.716400
C1321	C132	0.069000	0.743000	0.641300
H751	H75	0.029500	0.750000	0.597500
C1331	C133	0.145900	0.725100	0.632100
H761	H76	0.158200	0.718900	0.581700
C1341	C134	0.967200	0.855200	0.766500
C1351	C135	0.970200	0.865300	0.847000
H771	H77	0.959100	0.831000	0.879600
C1361	C136	0.989800	0.926800	0.877100
H781	H78	0.991000	0.934700	0.930600
C1371	C137	0.007800	0.977100	0.828600
C1381	C138	0.001300	0.967100	0.747900
H791	H79	0.010800	0.001700	0.715300
C1391	C139	0.980600	0.906000	0.716300
H801	H80	0.975800	0.899000	0.662300
C1401	C140	0.042100	0.038900	0.865500
C1411	C141	0.480700	0.736300	0.579900
C1421	C142	0.514600	0.797900	0.548400
C1431	C143	0.503900	0.809300	0.468600
H811	H81	0.477000	0.778400	0.434000
C1441	C144	0.532900	0.866700	0.439400
H821	H82	0.526100	0.874700	0.385500
C1451	C145	0.572200	0.911700	0.492500
C1461	C146	0.582600	0.900100	0.572200
H831	H83	0.609200	0.931100	0.607100
C1471	C147	0.554000	0.843000	0.600400
H841	H84	0.561300	0.834900	0.654300
C1481	C148	0.706900	0.967300	0.445200
C1491	C149	0.721400	0.939100	0.376100
H851	H85	0.678900	0.932500	0.334900
C1501	C150	0.799000	0.920400	0.368100
H861	H86	0.809300	0.901700	0.321300
C1511	C151	0.860700	0.929900	0.429900
C1521	C152	0.845600	0.959900	0.498700
H871	H87	0.888100	0.967300	0.539800
C1531	C153	0.768700	0.978800	0.506500
H881	H88	0.758400	0.999000	0.552400
C1541	C154	0.943700	0.905100	0.424500
C1551	C155	0.547100	0.774800	0.882500
C1561	C156	0.546900	0.847800	0.875400
C1571	C157	0.517300	0.875800	0.803200
H891	H89	0.497800	0.848900	0.760700
C1581	C158	0.516500	0.942600	0.793800
H901	H90	0.497000	0.961300	0.745000
C1591	C159	0.544700	0.981800	0.857300
C1601	C160	0.572500	0.955500	0.928800
H911	H91	0.590100	0.982800	0.971600
C1611	C161	0.574400	0.887900	0.937600
H921	H92	0.594500	0.869500	0.986300
C1621	C162	0.631300	0.083600	0.804000
C1631	C163	0.630800	0.074500	0.724400
H931	H93	0.583900	0.060700	0.692000
C1641	C164	0.701000	0.086300	0.693400
H941	H94	0.701100	0.081300	0.639600
C1651	C165	0.770800	0.105200	0.742000
C1661	C166	0.770000	0.114800	0.821500
H951	H95	0.816900	0.128600	0.854000
C1671	C167	0.699900	0.104100	0.852900
H961	H96	0.699300	0.110700	0.906300
C1681	C168	0.847200	0.117700	0.707600
