data_PUGHAC_clean_PM
_symmetry_space_group_name_H-M	'P1'
_cell_length_a	16.709400
_cell_length_b	20.285700
_cell_length_c	17.193600
_cell_angle_alpha	90.000000
_cell_angle_beta	99.178000
_cell_angle_gamma	90.000000
_symmetry_Int_Tables_number 1

loop_
_symmetry_equiv_pos_as_xyz
'x,y,z'

loop_
_atom_site_label
_atom_site_type_symbol
_atom_site_fract_x
_atom_site_fract_y
_atom_site_fract_z
Mn11	Mn1	0.036280	0.837930	0.249450
Mn21	Mn2	0.150010	0.884190	0.444880
Mn31	Mn3	0.911300	0.857010	0.051240
S11	S1	0.900310	0.518860	0.542240
S21	S2	0.560930	0.726510	0.275330
S31	S3	0.955700	0.431670	0.153420
O11	O1	0.994100	0.758640	0.173170
O21	O2	0.019530	0.775190	0.345820
O31	O3	0.425330	0.422440	0.178970
O41	O4	0.588430	0.372130	0.251760
O51	O5	0.164330	0.808110	0.255090
O61	O6	0.537700	0.606450	0.636590
O71	O7	0.210940	0.816660	0.384890
O81	O8	0.062610	0.812110	0.468540
O91	O9	0.436160	0.464470	0.062590
O101	O10	0.660150	0.390160	0.371300
O111	O11	0.922810	0.755000	0.053200
O121	O12	0.508280	0.597180	0.507670
O131	O13	0.898380	0.471310	0.479790
O141	O14	0.945590	0.505060	0.619100
O151	O15	0.609420	0.724740	0.352350
O161	O16	0.585940	0.767040	0.214550
O171	O17	0.945000	0.400650	0.077380
O181	O18	0.024770	0.415090	0.211970
C11	C1	0.027200	0.771260	0.419200
C21	C2	0.992360	0.709960	0.451600
C31	C3	0.950900	0.664330	0.400000
H11	H1	0.942300	0.673000	0.346200
C41	C4	0.922100	0.606110	0.427450
H21	H2	0.895400	0.575200	0.392600
C51	C5	0.933780	0.594810	0.508160
C61	C6	0.973600	0.640260	0.561100
H31	H3	0.980500	0.632200	0.615000
C71	C7	0.002800	0.697580	0.532460
H41	H4	0.029800	0.728200	0.567400
C81	C8	0.799030	0.535640	0.553690
C91	C9	0.738000	0.525840	0.489610
H51	H5	0.749900	0.508100	0.442900
C101	C10	0.659500	0.542870	0.496500
H61	H6	0.617900	0.536300	0.454400
C111	C11	0.642300	0.569930	0.566880
C121	C12	0.703600	0.577130	0.631400
H71	H7	0.691400	0.593100	0.678900
C131	C13	0.783000	0.560520	0.624870
H81	H8	0.824500	0.565900	0.667300
C141	C14	0.557700	0.592440	0.571200
C151	C15	0.219000	0.804150	0.314270
C161	C16	0.302950	0.782870	0.302720
C171	C17	0.361990	0.771830	0.369080
H91	H9	0.348200	0.776300	0.419100
C181	C18	0.440300	0.754490	0.361300
H101	H10	0.478900	0.746700	0.405600
C191	C19	0.460490	0.748900	0.285880
C201	C20	0.402500	0.759760	0.219220
H111	H11	0.416600	0.756100	0.169200
C211	C21	0.324300	0.775990	0.227740
H121	H12	0.285400	0.782400	0.183300
C221	C22	0.547920	0.644970	0.238350
C231	C23	0.530900	0.594510	0.288400
H131	H13	0.536200	0.601500	0.342400
C241	C24	0.506000	0.534010	0.256300
H141	H14	0.494600	0.499800	0.288800
C251	C25	0.498100	0.524170	0.175020
C261	C26	0.522500	0.573000	0.126800
H151	H15	0.522500	0.564600	0.073600
C271	C27	0.546900	0.634020	0.158200
H161	H16	0.562300	0.667200	0.126300
C281	C28	0.452900	0.465600	0.136800
C291	C29	0.957800	0.728020	0.115750
C301	C30	0.956020	0.654200	0.121900
C311	C31	0.924800	0.613950	0.058900
H171	H17	0.903800	0.632700	0.010600
C321	C32	0.924800	0.545980	0.067600
H181	H18	0.903900	0.519200	0.025400
C331	C33	0.956200	0.518310	0.139600
C341	C34	0.987400	0.557920	0.203800
H191	H19	0.007900	0.539100	0.252200
C351	C35	0.987200	0.625260	0.194110
H201	H20	0.008300	0.652000	0.236400
C361	C36	0.866800	0.418820	0.195600
C371	C37	0.795100	0.401800	0.147600
H211	H21	0.793700	0.396700	0.093600
C381	C38	0.725900	0.392400	0.180600
H221	H22	0.677500	0.381500	0.148500
C391	C39	0.727700	0.399120	0.261860
C401	C40	0.800000	0.415840	0.309050
H231	H23	0.802000	0.420000	0.363200
C411	C41	0.869600	0.426460	0.276200
H241	H24	0.917700	0.438600	0.307900
C421	C42	0.652000	0.386190	0.297000
Mn41	Mn4	0.463720	0.337930	0.250550
Mn51	Mn5	0.349990	0.384190	0.055120
Mn61	Mn6	0.588700	0.357010	0.448760
S41	S4	0.599690	0.018860	0.957760
S51	S5	0.939070	0.226510	0.224670
S61	S6	0.544300	0.931670	0.346580
O191	O19	0.505900	0.258640	0.326830
O201	O20	0.480470	0.275190	0.154180
O211	O21	0.074670	0.922440	0.321030
O221	O22	0.911570	0.872130	0.248240
O231	O23	0.335670	0.308110	0.244910
O241	O24	0.962300	0.106450	0.863410
O251	O25	0.289060	0.316660	0.115110
O261	O26	0.437390	0.312110	0.031460
O271	O27	0.063840	0.964470	0.437410
O281	O28	0.839850	0.890160	0.128700
O291	O29	0.577190	0.255000	0.446800
O301	O30	0.991720	0.097180	0.992330
O311	O31	0.601620	0.971310	0.020210
O321	O32	0.554410	0.005060	0.880900
O331	O33	0.890580	0.224740	0.147650
O341	O34	0.914060	0.267040	0.285450
O351	O35	0.555000	0.900650	0.422620
O361	O36	0.475230	0.915090	0.288030
C431	C43	0.472800	0.271260	0.080800
C441	C44	0.507640	0.209960	0.048400
C451	C45	0.549100	0.164330	0.100000
H251	H25	0.557700	0.173000	0.153800
C461	C46	0.577900	0.106110	0.072550
H261	H26	0.604600	0.075200	0.107400
C471	C47	0.566220	0.094810	0.991840
C481	C48	0.526400	0.140260	0.938900
H271	H27	0.519500	0.132200	0.885000
C491	C49	0.497200	0.197580	0.967540
H281	H28	0.470200	0.228200	0.932600
C501	C50	0.700970	0.035640	0.946310
C511	C51	0.762000	0.025840	0.010390
H291	H29	0.750100	0.008100	0.057100
C521	C52	0.840500	0.042870	0.003500
H301	H30	0.882100	0.036300	0.045600
C531	C53	0.857700	0.069930	0.933120
C541	C54	0.796400	0.077130	0.868600
H311	H31	0.808600	0.093100	0.821100
C551	C55	0.717000	0.060520	0.875130
H321	H32	0.675500	0.065900	0.832700
C561	C56	0.942300	0.092440	0.928800
C571	C57	0.281000	0.304150	0.185730
C581	C58	0.197050	0.282870	0.197280
C591	C59	0.138010	0.271830	0.130920
H331	H33	0.151800	0.276300	0.080900
C601	C60	0.059700	0.254490	0.138700
H341	H34	0.021100	0.246700	0.094400
C611	C61	0.039510	0.248900	0.214120
C621	C62	0.097500	0.259760	0.280780
H351	H35	0.083400	0.256100	0.330800
C631	C63	0.175700	0.275990	0.272260
H361	H36	0.214600	0.282400	0.316700
C641	C64	0.952080	0.144970	0.261650
C651	C65	0.969100	0.094510	0.211600
H371	H37	0.963800	0.101500	0.157600
C661	C66	0.994000	0.034010	0.243700
H381	H38	0.005400	0.999800	0.211200
C671	C67	0.001900	0.024170	0.324980
C681	C68	0.977500	0.073000	0.373200
H391	H39	0.977500	0.064600	0.426400
C691	C69	0.953100	0.134020	0.341800
H401	H40	0.937700	0.167200	0.373700
C701	C70	0.047100	0.965600	0.363200
C711	C71	0.542200	0.228020	0.384250
C721	C72	0.543980	0.154200	0.378100
C731	C73	0.575200	0.113950	0.441100
H411	H41	0.596200	0.132700	0.489400
C741	C74	0.575200	0.045980	0.432400
H421	H42	0.596100	0.019200	0.474600
C751	C75	0.543800	0.018310	0.360400
C761	C76	0.512600	0.057920	0.296200
H431	H43	0.492100	0.039100	0.247800
C771	C77	0.512800	0.125260	0.305890
H441	H44	0.491700	0.152000	0.263600
C781	C78	0.633200	0.918820	0.304400
C791	C79	0.704900	0.901800	0.352400
H451	H45	0.706300	0.896700	0.406400
C801	C80	0.774100	0.892400	0.319400
H461	H46	0.822500	0.881500	0.351500
C811	C81	0.772300	0.899120	0.238140
C821	C82	0.700000	0.915840	0.190950
H471	H47	0.698000	0.920000	0.136800
C831	C83	0.630400	0.926460	0.223800
H481	H48	0.582300	0.938600	0.192100
C841	C84	0.848000	0.886190	0.203000
Mn71	Mn7	0.963720	0.162070	0.750550
Mn81	Mn8	0.849990	0.115810	0.555120
Mn91	Mn9	0.088700	0.142990	0.948760
S71	S7	0.099690	0.481140	0.457760
S81	S8	0.439070	0.273490	0.724670
S91	S9	0.044300	0.568330	0.846580
O371	O37	0.005900	0.241360	0.826830
O381	O38	0.980470	0.224810	0.654180
O391	O39	0.574670	0.577560	0.821030
O401	O40	0.411570	0.627870	0.748240
O411	O41	0.835670	0.191890	0.744910
O421	O42	0.462300	0.393550	0.363410
O431	O43	0.789060	0.183340	0.615110
O441	O44	0.937390	0.187890	0.531460
O451	O45	0.563840	0.535530	0.937410
O461	O46	0.339850	0.609840	0.628700
O471	O47	0.077190	0.245000	0.946800
O481	O48	0.491720	0.402820	0.492330
O491	O49	0.101620	0.528690	0.520210
O501	O50	0.054410	0.494940	0.380900
O511	O51	0.390580	0.275260	0.647650
O521	O52	0.414060	0.232960	0.785450
O531	O53	0.055000	0.599350	0.922620
O541	O54	0.975230	0.584910	0.788030
C851	C85	0.972800	0.228740	0.580800
C861	C86	0.007640	0.290040	0.548400
C871	C87	0.049100	0.335670	0.600000
H491	H49	0.057700	0.327000	0.653800
C881	C88	0.077900	0.393890	0.572550
H501	H50	0.104600	0.424800	0.607400
C891	C89	0.066220	0.405190	0.491840
C901	C90	0.026400	0.359740	0.438900
H511	H51	0.019500	0.367800	0.385000
C911	C91	0.997200	0.302420	0.467540
H521	H52	0.970200	0.271800	0.432600
C921	C92	0.200970	0.464360	0.446310
C931	C93	0.262000	0.474160	0.510390
H531	H53	0.250100	0.491900	0.557100
C941	C94	0.340500	0.457130	0.503500
H541	H54	0.382100	0.463700	0.545600
C951	C95	0.357700	0.430070	0.433120
C961	C96	0.296400	0.422870	0.368600
H551	H55	0.308600	0.406900	0.321100
C971	C97	0.217000	0.439480	0.375130
H561	H56	0.175500	0.434100	0.332700
C981	C98	0.442300	0.407560	0.428800
C991	C99	0.781000	0.195850	0.685730
C1001	C100	0.697050	0.217130	0.697280
C1011	C101	0.638010	0.228170	0.630920
H571	H57	0.651800	0.223700	0.580900
C1021	C102	0.559700	0.245510	0.638700
H581	H58	0.521100	0.253300	0.594400
C1031	C103	0.539510	0.251100	0.714120
C1041	C104	0.597500	0.240240	0.780780
H591	H59	0.583400	0.243900	0.830800
C1051	C105	0.675700	0.224010	0.772260
H601	H60	0.714600	0.217600	0.816700
C1061	C106	0.452080	0.355030	0.761650
C1071	C107	0.469100	0.405490	0.711600
H611	H61	0.463800	0.398500	0.657600
C1081	C108	0.494000	0.465990	0.743700
H621	H62	0.505400	0.500200	0.711200
C1091	C109	0.501900	0.475830	0.824980
C1101	C110	0.477500	0.427000	0.873200
H631	H63	0.477500	0.435400	0.926400
C1111	C111	0.453100	0.365980	0.841800
H641	H64	0.437700	0.332800	0.873700
C1121	C112	0.547100	0.534400	0.863200
C1131	C113	0.042200	0.271980	0.884250
C1141	C114	0.043980	0.345800	0.878100
C1151	C115	0.075200	0.386050	0.941100
H651	H65	0.096200	0.367300	0.989400
C1161	C116	0.075200	0.454020	0.932400
H661	H66	0.096100	0.480800	0.974600
C1171	C117	0.043800	0.481690	0.860400
C1181	C118	0.012600	0.442080	0.796200
H671	H67	0.992100	0.460900	0.747800
C1191	C119	0.012800	0.374740	0.805890
H681	H68	0.991700	0.348000	0.763600
C1201	C120	0.133200	0.581180	0.804400
C1211	C121	0.204900	0.598200	0.852400
H691	H69	0.206300	0.603300	0.906400
C1221	C122	0.274100	0.607600	0.819400
H701	H70	0.322500	0.618500	0.851500
C1231	C123	0.272300	0.600880	0.738140
C1241	C124	0.200000	0.584160	0.690950
H711	H71	0.198000	0.580000	0.636800
C1251	C125	0.130400	0.573540	0.723800
H721	H72	0.082300	0.561400	0.692100
C1261	C126	0.348000	0.613810	0.703000
Mn101	Mn10	0.536280	0.662070	0.749450
Mn111	Mn11	0.650010	0.615810	0.944880
Mn121	Mn12	0.411300	0.642990	0.551240
S101	S10	0.400310	0.981140	0.042240
S111	S11	0.060930	0.773490	0.775330
S121	S12	0.455700	0.068330	0.653420
O551	O55	0.494100	0.741360	0.673170
O561	O56	0.519530	0.724810	0.845820
O571	O57	0.925330	0.077560	0.678970
O581	O58	0.088430	0.127870	0.751760
O591	O59	0.664330	0.691890	0.755090
O601	O60	0.037700	0.893550	0.136590
O611	O61	0.710940	0.683340	0.884890
O621	O62	0.562610	0.687890	0.968540
O631	O63	0.936160	0.035530	0.562590
O641	O64	0.160150	0.109840	0.871300
O651	O65	0.422810	0.745000	0.553200
O661	O66	0.008280	0.902820	0.007670
O671	O67	0.398380	0.028690	0.979790
O681	O68	0.445590	0.994940	0.119100
O691	O69	0.109420	0.775260	0.852350
O701	O70	0.085940	0.732960	0.714550
O711	O71	0.445000	0.099350	0.577380
O721	O72	0.524770	0.084910	0.711970
C1271	C127	0.527200	0.728740	0.919200
C1281	C128	0.492360	0.790040	0.951600
C1291	C129	0.450900	0.835670	0.900000
H731	H73	0.442300	0.827000	0.846200
C1301	C130	0.422100	0.893890	0.927450
H741	H74	0.395400	0.924800	0.892600
C1311	C131	0.433780	0.905190	0.008160
C1321	C132	0.473600	0.859740	0.061100
H751	H75	0.480500	0.867800	0.115000
C1331	C133	0.502800	0.802420	0.032460
H761	H76	0.529800	0.771800	0.067400
C1341	C134	0.299030	0.964360	0.053690
C1351	C135	0.238000	0.974160	0.989610
H771	H77	0.249900	0.991900	0.942900
C1361	C136	0.159500	0.957130	0.996500
H781	H78	0.117900	0.963700	0.954400
C1371	C137	0.142300	0.930070	0.066880
C1381	C138	0.203600	0.922870	0.131400
H791	H79	0.191400	0.906900	0.178900
C1391	C139	0.283000	0.939480	0.124870
H801	H80	0.324500	0.934100	0.167300
C1401	C140	0.057700	0.907560	0.071200
C1411	C141	0.719000	0.695850	0.814270
C1421	C142	0.802950	0.717130	0.802720
C1431	C143	0.861990	0.728170	0.869080
H811	H81	0.848200	0.723700	0.919100
C1441	C144	0.940300	0.745510	0.861300
H821	H82	0.978900	0.753300	0.905600
C1451	C145	0.960490	0.751100	0.785880
C1461	C146	0.902500	0.740240	0.719220
H831	H83	0.916600	0.743900	0.669200
C1471	C147	0.824300	0.724010	0.727740
H841	H84	0.785400	0.717600	0.683300
C1481	C148	0.047920	0.855030	0.738350
C1491	C149	0.030900	0.905490	0.788400
H851	H85	0.036200	0.898500	0.842400
C1501	C150	0.006000	0.965990	0.756300
H861	H86	0.994600	0.000200	0.788800
C1511	C151	0.998100	0.975830	0.675020
C1521	C152	0.022500	0.927000	0.626800
H871	H87	0.022500	0.935400	0.573600
C1531	C153	0.046900	0.865980	0.658200
H881	H88	0.062300	0.832800	0.626300
C1541	C154	0.952900	0.034400	0.636800
C1551	C155	0.457800	0.771980	0.615750
C1561	C156	0.456020	0.845800	0.621900
C1571	C157	0.424800	0.886050	0.558900
H891	H89	0.403800	0.867300	0.510600
C1581	C158	0.424800	0.954020	0.567600
H901	H90	0.403900	0.980800	0.525400
C1591	C159	0.456200	0.981690	0.639600
C1601	C160	0.487400	0.942080	0.703800
H911	H91	0.507900	0.960900	0.752200
C1611	C161	0.487200	0.874740	0.694110
H921	H92	0.508300	0.848000	0.736400
C1621	C162	0.366800	0.081180	0.695600
C1631	C163	0.295100	0.098200	0.647600
H931	H93	0.293700	0.103300	0.593600
C1641	C164	0.225900	0.107600	0.680600
H941	H94	0.177500	0.118500	0.648500
C1651	C165	0.227700	0.100880	0.761860
C1661	C166	0.300000	0.084160	0.809050
H951	H95	0.302000	0.080000	0.863200
C1671	C167	0.369600	0.073540	0.776200
H961	H96	0.417700	0.061400	0.807900
C1681	C168	0.152000	0.113810	0.797000
