data_PUGHUW_clean_PM
_symmetry_space_group_name_H-M	'P1'
_cell_length_a	16.709400
_cell_length_b	20.285700
_cell_length_c	17.193600
_cell_angle_alpha	90.000000
_cell_angle_beta	99.178000
_cell_angle_gamma	90.000000
_symmetry_Int_Tables_number 1

loop_
_symmetry_equiv_pos_as_xyz
'x,y,z'

loop_
_atom_site_label
_atom_site_type_symbol
_atom_site_fract_x
_atom_site_fract_y
_atom_site_fract_z
Mn11	Mn1	0.249570	0.334210	0.036140
Mn21	Mn2	0.445460	0.374090	0.139340
Mn31	Mn3	0.052200	0.355040	0.916950
S11	S1	0.228330	0.728220	0.954220
S21	S2	0.342950	0.430470	0.555680
S31	S3	0.041150	0.485810	0.392860
N11	N1	0.421600	0.447800	0.233100
O11	O1	0.331700	0.757310	0.505900
O21	O2	0.842870	0.233830	0.519270
O31	O3	0.322830	0.418450	0.072140
O41	O4	0.251160	0.366200	0.915210
O51	O5	0.246560	0.809520	0.339530
O61	O6	0.138570	0.393390	0.041280
O71	O7	0.115980	0.808240	0.299130
O81	O8	0.966460	0.195890	0.554100
O91	O9	0.440380	0.458000	0.060000
O101	O10	0.130720	0.389920	0.848860
O111	O11	0.445160	0.752580	0.587500
O121	O12	0.008920	0.396090	0.013870
O131	O13	0.151620	0.724760	0.906730
O141	O14	0.289170	0.768190	0.928930
O151	O15	0.420900	0.401590	0.564100
O161	O16	0.284500	0.413940	0.488920
O171	O17	0.978950	0.533900	0.389130
O181	O18	0.118310	0.500040	0.435970
C11	C1	0.366200	0.462600	0.048400
C21	C2	0.328800	0.524700	0.013000
C31	C3	0.247800	0.534800	0.007300
H11	H1	0.214000	0.500800	0.018400
C41	C4	0.215700	0.596600	0.984800
H21	H2	0.160200	0.603800	0.980100
C51	C5	0.266200	0.646900	0.969600
C61	C6	0.347000	0.636600	0.972200
H31	H3	0.380600	0.670300	0.959900
C71	C7	0.378000	0.574700	0.993600
H41	H4	0.433000	0.566800	0.994800
C81	C8	0.216500	0.752960	0.051100
C91	C9	0.140800	0.758400	0.070100
H51	H5	0.095400	0.750800	0.032400
C101	C10	0.132300	0.775500	0.146700
H61	H6	0.080400	0.780100	0.159300
C111	C11	0.197800	0.785800	0.204100
C121	C12	0.274200	0.780300	0.183900
H71	H7	0.319700	0.787300	0.221700
C131	C13	0.283300	0.764200	0.107000
H81	H8	0.334900	0.761100	0.093600
C141	C14	0.186600	0.802900	0.287800
C151	C15	0.205400	0.382500	0.854800
C161	C16	0.239500	0.394000	0.779800
C171	C17	0.319600	0.382900	0.778000
H91	H9	0.353200	0.368600	0.823300
C181	C18	0.351200	0.392500	0.709900
H101	H10	0.405800	0.384300	0.709000
C191	C19	0.302100	0.414300	0.642900
C201	C20	0.222400	0.424400	0.642000
H111	H11	0.189200	0.438300	0.596300
C211	C21	0.191000	0.413700	0.710800
H121	H12	0.135800	0.419800	0.710600
C221	C22	0.354300	0.517600	0.556700
C231	C23	0.294200	0.556700	0.518300
H131	H13	0.246000	0.538000	0.493400
C241	C24	0.305200	0.623700	0.516500
H141	H14	0.264400	0.650100	0.489500
C251	C25	0.374900	0.652600	0.553700
C261	C26	0.433700	0.612600	0.593900
H151	H15	0.480900	0.631200	0.620900
C271	C27	0.423600	0.545000	0.594600
H161	H16	0.464400	0.518300	0.621000
C281	C28	0.384100	0.726500	0.548200
C291	C29	0.072000	0.404400	0.061100
C301	C30	0.067100	0.428200	0.142900
C311	C31	0.994800	0.452900	0.159400
H171	H17	0.950400	0.456400	0.119600
C321	C32	0.988400	0.472400	0.235500
H181	H18	0.940000	0.490300	0.246000
C331	C33	0.052000	0.465600	0.294700
C341	C34	0.124500	0.441700	0.279100
H191	H19	0.168600	0.437500	0.319400
C351	C35	0.131500	0.423700	0.202600
H201	H20	0.181000	0.408300	0.191700
C361	C36	0.006300	0.412000	0.429900
C371	C37	0.060000	0.366800	0.470100
H211	H21	0.115600	0.374400	0.476700
C381	C38	0.030100	0.310600	0.500000
H221	H22	0.065700	0.280400	0.527600
C391	C39	0.948500	0.298700	0.489300
C401	C40	0.897000	0.344300	0.448400
H231	H23	0.841500	0.336100	0.440300
C411	C41	0.924900	0.401000	0.419300
H241	H24	0.889000	0.431600	0.392800
C421	C42	0.916600	0.237400	0.523700
C431	C43	0.394200	0.470500	0.284100
C441	C44	0.361900	0.493600	0.351100
H251	H25	0.305100	0.483400	0.344800
H261	H26	0.369200	0.540400	0.355900
H271	H27	0.389500	0.472400	0.397700
Mn41	Mn4	0.250430	0.834210	0.463860
Mn51	Mn5	0.054540	0.874090	0.360660
Mn61	Mn6	0.447800	0.855040	0.583050
S41	S4	0.271670	0.228220	0.545780
S51	S5	0.157050	0.930470	0.944320
S61	S6	0.458850	0.985810	0.107140
N21	N2	0.078400	0.947800	0.266900
O191	O19	0.168300	0.257310	0.994100
O201	O20	0.657130	0.733830	0.980730
O211	O21	0.177170	0.918450	0.427860
O221	O22	0.248840	0.866200	0.584790
O231	O23	0.253440	0.309520	0.160470
O241	O24	0.361430	0.893390	0.458720
O251	O25	0.384020	0.308240	0.200870
O261	O26	0.533540	0.695890	0.945900
O271	O27	0.059620	0.958000	0.440000
O281	O28	0.369280	0.889920	0.651140
O291	O29	0.054840	0.252580	0.912500
O301	O30	0.491080	0.896090	0.486130
O311	O31	0.348380	0.224760	0.593270
O321	O32	0.210830	0.268190	0.571070
O331	O33	0.079100	0.901590	0.935900
O341	O34	0.215500	0.913940	0.011080
O351	O35	0.521050	0.033900	0.110870
O361	O36	0.381690	0.000040	0.064030
C451	C45	0.133800	0.962600	0.451600
C461	C46	0.171200	0.024700	0.487000
C471	C47	0.252200	0.034800	0.492700
H281	H28	0.286000	0.000800	0.481600
C481	C48	0.284300	0.096600	0.515200
H291	H29	0.339800	0.103800	0.519900
C491	C49	0.233800	0.146900	0.530400
C501	C50	0.153000	0.136600	0.527800
H301	H30	0.119400	0.170300	0.540100
C511	C51	0.122000	0.074700	0.506400
H311	H31	0.067000	0.066800	0.505200
C521	C52	0.283500	0.252960	0.448900
C531	C53	0.359200	0.258400	0.429900
H321	H32	0.404600	0.250800	0.467600
C541	C54	0.367700	0.275500	0.353300
H331	H33	0.419600	0.280100	0.340700
C551	C55	0.302200	0.285800	0.295900
C561	C56	0.225800	0.280300	0.316100
H341	H34	0.180300	0.287300	0.278300
C571	C57	0.216700	0.264200	0.393000
H351	H35	0.165100	0.261100	0.406400
C581	C58	0.313400	0.302900	0.212200
C591	C59	0.294600	0.882500	0.645200
C601	C60	0.260500	0.894000	0.720200
C611	C61	0.180400	0.882900	0.722000
H361	H36	0.146800	0.868600	0.676700
C621	C62	0.148800	0.892500	0.790100
H371	H37	0.094200	0.884300	0.791000
C631	C63	0.197900	0.914300	0.857100
C641	C64	0.277600	0.924400	0.858000
H381	H38	0.310800	0.938300	0.903700
C651	C65	0.309000	0.913700	0.789200
H391	H39	0.364200	0.919800	0.789400
C661	C66	0.145700	0.017600	0.943300
C671	C67	0.205800	0.056700	0.981700
H401	H40	0.254000	0.038000	0.006600
C681	C68	0.194800	0.123700	0.983500
H411	H41	0.235600	0.150100	0.010500
C691	C69	0.125100	0.152600	0.946300
C701	C70	0.066300	0.112600	0.906100
H421	H42	0.019100	0.131200	0.879100
C711	C71	0.076400	0.045000	0.905400
H431	H43	0.035600	0.018300	0.879000
C721	C72	0.115900	0.226500	0.951800
C731	C73	0.428000	0.904400	0.438900
C741	C74	0.432900	0.928200	0.357100
C751	C75	0.505200	0.952900	0.340600
H441	H44	0.549600	0.956400	0.380400
C761	C76	0.511600	0.972400	0.264500
H451	H45	0.560000	0.990300	0.254000
C771	C77	0.448000	0.965600	0.205300
C781	C78	0.375500	0.941700	0.220900
H461	H46	0.331400	0.937500	0.180600
C791	C79	0.368500	0.923700	0.297400
H471	H47	0.319000	0.908300	0.308300
C801	C80	0.493700	0.912000	0.070100
C811	C81	0.440000	0.866800	0.029900
H481	H48	0.384400	0.874400	0.023300
C821	C82	0.469900	0.810600	0.000000
H491	H49	0.434300	0.780400	0.972400
C831	C83	0.551500	0.798700	0.010700
C841	C84	0.603000	0.844300	0.051600
H501	H50	0.658500	0.836100	0.059700
C851	C85	0.575100	0.901000	0.080700
H511	H51	0.611000	0.931600	0.107200
C861	C86	0.583400	0.737400	0.976300
C871	C87	0.105800	0.970500	0.215900
C881	C88	0.138100	0.993600	0.148900
H521	H52	0.194900	0.983400	0.155200
H531	H53	0.130800	0.040400	0.144100
H541	H54	0.110500	0.972400	0.102300
Mn71	Mn7	0.750430	0.665790	0.963860
Mn81	Mn8	0.554540	0.625910	0.860660
Mn91	Mn9	0.947800	0.644960	0.083050
S71	S7	0.771670	0.271780	0.045780
S81	S8	0.657050	0.569530	0.444320
S91	S9	0.958850	0.514190	0.607140
N31	N3	0.578400	0.552200	0.766900
O371	O37	0.668300	0.242690	0.494100
O381	O38	0.157130	0.766170	0.480730
O391	O39	0.677170	0.581550	0.927860
O401	O40	0.748840	0.633800	0.084790
O411	O41	0.753440	0.190480	0.660470
O421	O42	0.861430	0.606610	0.958720
O431	O43	0.884020	0.191760	0.700870
O441	O44	0.033540	0.804110	0.445900
O451	O45	0.559620	0.542000	0.940000
O461	O46	0.869280	0.610080	0.151140
O471	O47	0.554840	0.247420	0.412500
O481	O48	0.991080	0.603910	0.986130
O491	O49	0.848380	0.275240	0.093270
O501	O50	0.710830	0.231810	0.071070
O511	O51	0.579100	0.598410	0.435900
O521	O52	0.715500	0.586060	0.511080
O531	O53	0.021050	0.466100	0.610870
O541	O54	0.881690	0.499960	0.564030
C891	C89	0.633800	0.537400	0.951600
C901	C90	0.671200	0.475300	0.987000
C911	C91	0.752200	0.465200	0.992700
H551	H55	0.786000	0.499200	0.981600
C921	C92	0.784300	0.403400	0.015200
H561	H56	0.839800	0.396200	0.019900
C931	C93	0.733800	0.353100	0.030400
C941	C94	0.653000	0.363400	0.027800
H571	H57	0.619400	0.329700	0.040100
C951	C95	0.622000	0.425300	0.006400
H581	H58	0.567000	0.433200	0.005200
C961	C96	0.783500	0.247040	0.948900
C971	C97	0.859200	0.241600	0.929900
H591	H59	0.904600	0.249200	0.967600
C981	C98	0.867700	0.224500	0.853300
H601	H60	0.919600	0.219900	0.840700
C991	C99	0.802200	0.214200	0.795900
C1001	C100	0.725800	0.219700	0.816100
H611	H61	0.680300	0.212700	0.778300
C1011	C101	0.716700	0.235800	0.893000
H621	H62	0.665100	0.238900	0.906400
C1021	C102	0.813400	0.197100	0.712200
C1031	C103	0.794600	0.617500	0.145200
C1041	C104	0.760500	0.606000	0.220200
C1051	C105	0.680400	0.617100	0.222000
H631	H63	0.646800	0.631400	0.176700
C1061	C106	0.648800	0.607500	0.290100
H641	H64	0.594200	0.615700	0.291000
C1071	C107	0.697900	0.585700	0.357100
C1081	C108	0.777600	0.575600	0.358000
H651	H65	0.810800	0.561700	0.403700
C1091	C109	0.809000	0.586300	0.289200
H661	H66	0.864200	0.580200	0.289400
C1101	C110	0.645700	0.482400	0.443300
C1111	C111	0.705800	0.443300	0.481700
H671	H67	0.754000	0.462000	0.506600
C1121	C112	0.694800	0.376300	0.483500
H681	H68	0.735600	0.349900	0.510500
C1131	C113	0.625100	0.347400	0.446300
C1141	C114	0.566300	0.387400	0.406100
H691	H69	0.519100	0.368800	0.379100
C1151	C115	0.576400	0.455000	0.405400
H701	H70	0.535600	0.481700	0.379000
C1161	C116	0.615900	0.273500	0.451800
C1171	C117	0.928000	0.595600	0.938900
C1181	C118	0.932900	0.571800	0.857100
C1191	C119	0.005200	0.547100	0.840600
H711	H71	0.049600	0.543600	0.880400
C1201	C120	0.011600	0.527600	0.764500
H721	H72	0.060000	0.509700	0.754000
C1211	C121	0.948000	0.534400	0.705300
C1221	C122	0.875500	0.558300	0.720900
H731	H73	0.831400	0.562500	0.680600
C1231	C123	0.868500	0.576300	0.797400
H741	H74	0.819000	0.591700	0.808300
C1241	C124	0.993700	0.588000	0.570100
C1251	C125	0.940000	0.633200	0.529900
H751	H75	0.884400	0.625600	0.523300
C1261	C126	0.969900	0.689400	0.500000
H761	H76	0.934300	0.719600	0.472400
C1271	C127	0.051500	0.701300	0.510700
C1281	C128	0.103000	0.655700	0.551600
H771	H77	0.158500	0.663900	0.559700
C1291	C129	0.075100	0.599000	0.580700
H781	H78	0.111000	0.568400	0.607200
C1301	C130	0.083400	0.762600	0.476300
C1311	C131	0.605800	0.529500	0.715900
C1321	C132	0.638100	0.506400	0.648900
H791	H79	0.694900	0.516600	0.655200
H801	H80	0.630800	0.459600	0.644100
H811	H81	0.610500	0.527600	0.602300
Mn101	Mn10	0.749570	0.165790	0.536140
Mn111	Mn11	0.945460	0.125910	0.639340
Mn121	Mn12	0.552200	0.144960	0.416950
S101	S10	0.728330	0.771780	0.454220
S111	S11	0.842950	0.069530	0.055680
S121	S12	0.541150	0.014190	0.892860
N41	N4	0.921600	0.052200	0.733100
O551	O55	0.831700	0.742690	0.005900
O561	O56	0.342870	0.266170	0.019270
O571	O57	0.822830	0.081550	0.572140
O581	O58	0.751160	0.133800	0.415210
O591	O59	0.746560	0.690480	0.839530
O601	O60	0.638570	0.106610	0.541280
O611	O61	0.615980	0.691760	0.799130
O621	O62	0.466460	0.304110	0.054100
O631	O63	0.940380	0.042000	0.560000
O641	O64	0.630720	0.110080	0.348860
O651	O65	0.945160	0.747420	0.087500
O661	O66	0.508920	0.103910	0.513870
O671	O67	0.651620	0.775240	0.406730
O681	O68	0.789170	0.731810	0.428930
O691	O69	0.920900	0.098410	0.064100
O701	O70	0.784500	0.086060	0.988920
O711	O71	0.478950	0.966100	0.889130
O721	O72	0.618310	0.999960	0.935970
C1331	C133	0.866200	0.037400	0.548400
C1341	C134	0.828800	0.975300	0.513000
C1351	C135	0.747800	0.965200	0.507300
H821	H82	0.714000	0.999200	0.518400
C1361	C136	0.715700	0.903400	0.484800
H831	H83	0.660200	0.896200	0.480100
C1371	C137	0.766200	0.853100	0.469600
C1381	C138	0.847000	0.863400	0.472200
H841	H84	0.880600	0.829700	0.459900
C1391	C139	0.878000	0.925300	0.493600
H851	H85	0.933000	0.933200	0.494800
C1401	C140	0.716500	0.747040	0.551100
C1411	C141	0.640800	0.741600	0.570100
H861	H86	0.595400	0.749200	0.532400
C1421	C142	0.632300	0.724500	0.646700
H871	H87	0.580400	0.719900	0.659300
C1431	C143	0.697800	0.714200	0.704100
C1441	C144	0.774200	0.719700	0.683900
H881	H88	0.819700	0.712700	0.721700
C1451	C145	0.783300	0.735800	0.607000
H891	H89	0.834900	0.738900	0.593600
C1461	C146	0.686600	0.697100	0.787800
C1471	C147	0.705400	0.117500	0.354800
C1481	C148	0.739500	0.106000	0.279800
C1491	C149	0.819600	0.117100	0.278000
H901	H90	0.853200	0.131400	0.323300
C1501	C150	0.851200	0.107500	0.209900
H911	H91	0.905800	0.115700	0.209000
C1511	C151	0.802100	0.085700	0.142900
C1521	C152	0.722400	0.075600	0.142000
H921	H92	0.689200	0.061700	0.096300
C1531	C153	0.691000	0.086300	0.210800
H931	H93	0.635800	0.080200	0.210600
C1541	C154	0.854300	0.982400	0.056700
C1551	C155	0.794200	0.943300	0.018300
H941	H94	0.746000	0.962000	0.993400
C1561	C156	0.805200	0.876300	0.016500
H951	H95	0.764400	0.849900	0.989500
C1571	C157	0.874900	0.847400	0.053700
C1581	C158	0.933700	0.887400	0.093900
H961	H96	0.980900	0.868800	0.120900
C1591	C159	0.923600	0.955000	0.094600
H971	H97	0.964400	0.981700	0.121000
C1601	C160	0.884100	0.773500	0.048200
C1611	C161	0.572000	0.095600	0.561100
C1621	C162	0.567100	0.071800	0.642900
C1631	C163	0.494800	0.047100	0.659400
H981	H98	0.450400	0.043600	0.619600
C1641	C164	0.488400	0.027600	0.735500
H991	H99	0.440000	0.009700	0.746000
C1651	C165	0.552000	0.034400	0.794700
C1661	C166	0.624500	0.058300	0.779100
H1001	H100	0.668600	0.062500	0.819400
C1671	C167	0.631500	0.076300	0.702600
H1011	H101	0.681000	0.091700	0.691700
C1681	C168	0.506300	0.088000	0.929900
C1691	C169	0.560000	0.133200	0.970100
H1021	H102	0.615600	0.125600	0.976700
C1701	C170	0.530100	0.189400	0.000000
H1031	H103	0.565700	0.219600	0.027600
C1711	C171	0.448500	0.201300	0.989300
C1721	C172	0.397000	0.155700	0.948400
H1041	H104	0.341500	0.163900	0.940300
C1731	C173	0.424900	0.099000	0.919300
H1051	H105	0.389000	0.068400	0.892800
C1741	C174	0.416600	0.262600	0.023700
C1751	C175	0.894200	0.029500	0.784100
C1761	C176	0.861900	0.006400	0.851100
H1061	H106	0.805100	0.016600	0.844800
H1071	H107	0.869200	0.959600	0.855900
H1081	H108	0.889500	0.027600	0.897700
