data_PUGHIK_clean_PM
_symmetry_space_group_name_H-M	'P1'
_cell_length_a	16.709400
_cell_length_b	20.285700
_cell_length_c	17.193600
_cell_angle_alpha	90.000000
_cell_angle_beta	99.178000
_cell_angle_gamma	90.000000
_symmetry_Int_Tables_number 1

loop_
_symmetry_equiv_pos_as_xyz
'x,y,z'

loop_
_atom_site_label
_atom_site_type_symbol
_atom_site_fract_x
_atom_site_fract_y
_atom_site_fract_z
Mn11	Mn1	0.463160	0.833890	0.747310
Mn21	Mn2	0.356610	0.878500	0.553270
Mn31	Mn3	0.584570	0.852130	0.943790
S11	S1	0.553210	0.226140	0.771030
S21	S2	0.547740	0.429400	0.835590
S31	S3	0.104760	0.984670	0.959240
O11	O1	0.502500	0.756750	0.828200
O21	O2	0.981000	0.732230	0.154800
O31	O3	0.428600	0.918490	0.674900
O41	O4	0.913700	0.366600	0.750200
O51	O5	0.163390	0.306960	0.759820
O61	O6	0.455800	0.892330	0.855700
O71	O7	0.211500	0.316800	0.887490
O81	O8	0.940100	0.695180	0.033500
O91	O9	0.445800	0.957360	0.560500
O101	O10	0.846700	0.388840	0.631760
O111	O11	0.579300	0.750380	0.942900
O121	O12	0.489100	0.898100	0.983500
O131	O13	0.576400	0.267060	0.710600
O141	O14	0.603300	0.223350	0.845900
O151	O15	0.481000	0.413150	0.774900
O161	O16	0.555800	0.398170	0.910600
O171	O17	0.109600	0.032320	0.020700
O181	O18	0.058400	0.999030	0.884400
C11	C1	0.456700	0.961500	0.633800
C21	C2	0.494400	0.022700	0.671400
C31	C3	0.502000	0.033000	0.751000
H11	H1	0.491900	0.998600	0.783900
C41	C4	0.524600	0.094000	0.782600
H21	H2	0.530500	0.100700	0.836700
C51	C5	0.538500	0.145100	0.733400
C61	C6	0.535500	0.134700	0.654800
H31	H3	0.547300	0.168700	0.622100
C71	C7	0.514600	0.073000	0.624300
H41	H4	0.514100	0.065300	0.570900
C81	C8	0.455300	0.249400	0.784300
C91	C9	0.438700	0.257800	0.859100
H51	H5	0.479000	0.251500	0.902500
C101	C10	0.361800	0.275600	0.869200
H61	H6	0.350300	0.281900	0.919900
C111	C11	0.301200	0.284100	0.805400
C121	C12	0.318900	0.275000	0.730600
H71	H7	0.278500	0.279900	0.687100
C131	C13	0.396000	0.258600	0.720300
H81	H8	0.408200	0.253800	0.669700
C141	C14	0.218400	0.304100	0.818400
C151	C15	0.542000	0.724900	0.881600
C161	C16	0.544700	0.650900	0.872400
C171	C17	0.513200	0.623700	0.800900
H91	H9	0.490500	0.650900	0.759700
C181	C18	0.514800	0.556200	0.789600
H101	H10	0.494600	0.538200	0.740600
C191	C19	0.546300	0.516200	0.850500
C201	C20	0.579500	0.542300	0.921900
H111	H11	0.602300	0.514800	0.962800
C211	C21	0.578900	0.610300	0.932500
H121	H12	0.601700	0.628400	0.980700
C221	C22	0.637500	0.416600	0.797500
C231	C23	0.705600	0.396500	0.846100
H131	H13	0.704500	0.389400	0.899400
C241	C24	0.775500	0.386700	0.815900
H141	H14	0.822500	0.373600	0.848800
C251	C25	0.776800	0.396200	0.737300
C261	C26	0.706600	0.415000	0.689000
H151	H15	0.706800	0.420500	0.635300
C271	C27	0.636900	0.425800	0.719000
H161	H16	0.589900	0.439100	0.686400
C281	C28	0.852500	0.383000	0.704500
C291	C29	0.439300	0.904800	0.921900
C301	C30	0.356500	0.928500	0.928300
C311	C31	0.342800	0.957400	0.997200
H171	H17	0.385900	0.964400	0.037800
C321	C32	0.266100	0.976200	0.006400
H181	H18	0.256600	0.995500	0.053200
C331	C33	0.203800	0.965900	0.945700
C341	C34	0.216200	0.938000	0.875600
H191	H19	0.173100	0.931500	0.835000
C351	C35	0.292800	0.920200	0.866900
H201	H20	0.302500	0.902400	0.819500
C361	C36	0.069900	0.910300	0.993700
C371	C37	0.081500	0.898600	0.073200
H211	H21	0.109100	0.929100	0.107900
C381	C38	0.052300	0.842100	0.101000
H221	H22	0.060900	0.834100	0.155000
C391	C39	0.010000	0.796300	0.050500
C401	C40	0.999100	0.808400	0.970300
H231	H23	0.971500	0.777900	0.935600
C411	C41	0.028800	0.864900	0.941500
H241	H24	0.021400	0.872700	0.887500
C421	C42	0.974900	0.736000	0.082300
Mn41	Mn4	0.036840	0.333890	0.752690
Mn51	Mn5	0.143390	0.378500	0.946730
Mn61	Mn6	0.915430	0.352130	0.556210
S41	S4	0.946790	0.726140	0.728970
S51	S5	0.952260	0.929400	0.664410
S61	S6	0.395240	0.484670	0.540760
O191	O19	0.997500	0.256750	0.671800
O201	O20	0.519000	0.232230	0.345200
O211	O21	0.071400	0.418490	0.825100
O221	O22	0.586300	0.866600	0.749800
O231	O23	0.336610	0.806960	0.740180
O241	O24	0.044200	0.392330	0.644300
O251	O25	0.288500	0.816800	0.612510
O261	O26	0.559900	0.195180	0.466500
O271	O27	0.054200	0.457360	0.939500
O281	O28	0.653300	0.888840	0.868240
O291	O29	0.920700	0.250380	0.557100
O301	O30	0.010900	0.398100	0.516500
O311	O31	0.923600	0.767060	0.789400
O321	O32	0.896700	0.723350	0.654100
O331	O33	0.019000	0.913150	0.725100
O341	O34	0.944200	0.898170	0.589400
O351	O35	0.390400	0.532320	0.479300
O361	O36	0.441600	0.499030	0.615600
C431	C43	0.043300	0.461500	0.866200
C441	C44	0.005600	0.522700	0.828600
C451	C45	0.998000	0.533000	0.749000
H251	H25	0.008100	0.498600	0.716100
C461	C46	0.975400	0.594000	0.717400
H261	H26	0.969500	0.600700	0.663300
C471	C47	0.961500	0.645100	0.766600
C481	C48	0.964500	0.634700	0.845200
H271	H27	0.952700	0.668700	0.877900
C491	C49	0.985400	0.573000	0.875700
H281	H28	0.985900	0.565300	0.929100
C501	C50	0.044700	0.749400	0.715700
C511	C51	0.061300	0.757800	0.640900
H291	H29	0.021000	0.751500	0.597500
C521	C52	0.138200	0.775600	0.630800
H301	H30	0.149700	0.781900	0.580100
C531	C53	0.198800	0.784100	0.694600
C541	C54	0.181100	0.775000	0.769400
H311	H31	0.221500	0.779900	0.812900
C551	C55	0.104000	0.758600	0.779700
H321	H32	0.091800	0.753800	0.830300
C561	C56	0.281600	0.804100	0.681600
C571	C57	0.958000	0.224900	0.618400
C581	C58	0.955300	0.150900	0.627600
C591	C59	0.986800	0.123700	0.699100
H331	H33	0.009500	0.150900	0.740300
C601	C60	0.985200	0.056200	0.710400
H341	H34	0.005400	0.038200	0.759400
C611	C61	0.953700	0.016200	0.649500
C621	C62	0.920500	0.042300	0.578100
H351	H35	0.897700	0.014800	0.537200
C631	C63	0.921100	0.110300	0.567500
H361	H36	0.898300	0.128400	0.519300
C641	C64	0.862500	0.916600	0.702500
C651	C65	0.794400	0.896500	0.653900
H371	H37	0.795500	0.889400	0.600600
C661	C66	0.724500	0.886700	0.684100
H381	H38	0.677500	0.873600	0.651200
C671	C67	0.723200	0.896200	0.762700
C681	C68	0.793400	0.915000	0.811000
H391	H39	0.793200	0.920500	0.864700
C691	C69	0.863100	0.925800	0.781000
H401	H40	0.910100	0.939100	0.813600
C701	C70	0.647500	0.883000	0.795500
C711	C71	0.060700	0.404800	0.578100
C721	C72	0.143500	0.428500	0.571700
C731	C73	0.157200	0.457400	0.502800
H411	H41	0.114100	0.464400	0.462200
C741	C74	0.233900	0.476200	0.493600
H421	H42	0.243400	0.495500	0.446800
C751	C75	0.296200	0.465900	0.554300
C761	C76	0.283800	0.438000	0.624400
H431	H43	0.326900	0.431500	0.665000
C771	C77	0.207200	0.420200	0.633100
H441	H44	0.197500	0.402400	0.680500
C781	C78	0.430100	0.410300	0.506300
C791	C79	0.418500	0.398600	0.426800
H451	H45	0.390900	0.429100	0.392100
C801	C80	0.447700	0.342100	0.399000
H461	H46	0.439100	0.334100	0.345000
C811	C81	0.490000	0.296300	0.449500
C821	C82	0.500900	0.308400	0.529700
H471	H47	0.528500	0.277900	0.564400
C831	C83	0.471200	0.364900	0.558500
H481	H48	0.478600	0.372700	0.612500
C841	C84	0.525100	0.236000	0.417700
Mn71	Mn7	0.536840	0.166110	0.252690
Mn81	Mn8	0.643390	0.121500	0.446730
Mn91	Mn9	0.415430	0.147870	0.056210
S71	S7	0.446790	0.773860	0.228970
S81	S8	0.452260	0.570600	0.164410
S91	S9	0.895240	0.015330	0.040760
O371	O37	0.497500	0.243250	0.171800
O381	O38	0.019000	0.267770	0.845200
O391	O39	0.571400	0.081510	0.325100
O401	O40	0.086300	0.633400	0.249800
O411	O41	0.836610	0.693040	0.240180
O421	O42	0.544200	0.107670	0.144300
O431	O43	0.788500	0.683200	0.112510
O441	O44	0.059900	0.304820	0.966500
O451	O45	0.554200	0.042640	0.439500
O461	O46	0.153300	0.611160	0.368240
O471	O47	0.420700	0.249620	0.057100
O481	O48	0.510900	0.101900	0.016500
O491	O49	0.423600	0.732940	0.289400
O501	O50	0.396700	0.776650	0.154100
O511	O51	0.519000	0.586850	0.225100
O521	O52	0.444200	0.601830	0.089400
O531	O53	0.890400	0.967680	0.979300
O541	O54	0.941600	0.000970	0.115600
C851	C85	0.543300	0.038500	0.366200
C861	C86	0.505600	0.977300	0.328600
C871	C87	0.498000	0.967000	0.249000
H491	H49	0.508100	0.001400	0.216100
C881	C88	0.475400	0.906000	0.217400
H501	H50	0.469500	0.899300	0.163300
C891	C89	0.461500	0.854900	0.266600
C901	C90	0.464500	0.865300	0.345200
H511	H51	0.452700	0.831300	0.377900
C911	C91	0.485400	0.927000	0.375700
H521	H52	0.485900	0.934700	0.429100
C921	C92	0.544700	0.750600	0.215700
C931	C93	0.561300	0.742200	0.140900
H531	H53	0.521000	0.748500	0.097500
C941	C94	0.638200	0.724400	0.130800
H541	H54	0.649700	0.718100	0.080100
C951	C95	0.698800	0.715900	0.194600
C961	C96	0.681100	0.725000	0.269400
H551	H55	0.721500	0.720100	0.312900
C971	C97	0.604000	0.741400	0.279700
H561	H56	0.591800	0.746200	0.330300
C981	C98	0.781600	0.695900	0.181600
C991	C99	0.458000	0.275100	0.118400
C1001	C100	0.455300	0.349100	0.127600
C1011	C101	0.486800	0.376300	0.199100
H571	H57	0.509500	0.349100	0.240300
C1021	C102	0.485200	0.443800	0.210400
H581	H58	0.505400	0.461800	0.259400
C1031	C103	0.453700	0.483800	0.149500
C1041	C104	0.420500	0.457700	0.078100
H591	H59	0.397700	0.485200	0.037200
C1051	C105	0.421100	0.389700	0.067500
H601	H60	0.398300	0.371600	0.019300
C1061	C106	0.362500	0.583400	0.202500
C1071	C107	0.294400	0.603500	0.153900
H611	H61	0.295500	0.610600	0.100600
C1081	C108	0.224500	0.613300	0.184100
H621	H62	0.177500	0.626400	0.151200
C1091	C109	0.223200	0.603800	0.262700
C1101	C110	0.293400	0.585000	0.311000
H631	H63	0.293200	0.579500	0.364700
C1111	C111	0.363100	0.574200	0.281000
H641	H64	0.410100	0.560900	0.313600
C1121	C112	0.147500	0.617000	0.295500
C1131	C113	0.560700	0.095200	0.078100
C1141	C114	0.643500	0.071500	0.071700
C1151	C115	0.657200	0.042600	0.002800
H651	H65	0.614100	0.035600	0.962200
C1161	C116	0.733900	0.023800	0.993600
H661	H66	0.743400	0.004500	0.946800
C1171	C117	0.796200	0.034100	0.054300
C1181	C118	0.783800	0.062000	0.124400
H671	H67	0.826900	0.068500	0.165000
C1191	C119	0.707200	0.079800	0.133100
H681	H68	0.697500	0.097600	0.180500
C1201	C120	0.930100	0.089700	0.006300
C1211	C121	0.918500	0.101400	0.926800
H691	H69	0.890900	0.070900	0.892100
C1221	C122	0.947700	0.157900	0.899000
H701	H70	0.939100	0.165900	0.845000
C1231	C123	0.990000	0.203700	0.949500
C1241	C124	0.000900	0.191600	0.029700
H711	H71	0.028500	0.222100	0.064400
C1251	C125	0.971200	0.135100	0.058500
H721	H72	0.978600	0.127300	0.112500
C1261	C126	0.025100	0.264000	0.917700
Mn101	Mn10	0.963160	0.666110	0.247310
Mn111	Mn11	0.856610	0.621500	0.053270
Mn121	Mn12	0.084570	0.647870	0.443790
S101	S10	0.053210	0.273860	0.271030
S111	S11	0.047740	0.070600	0.335590
S121	S12	0.604760	0.515330	0.459240
O551	O55	0.002500	0.743250	0.328200
O561	O56	0.481000	0.767770	0.654800
O571	O57	0.928600	0.581510	0.174900
O581	O58	0.413700	0.133400	0.250200
O591	O59	0.663390	0.193040	0.259820
O601	O60	0.955800	0.607670	0.355700
O611	O61	0.711500	0.183200	0.387490
O621	O62	0.440100	0.804820	0.533500
O631	O63	0.945800	0.542640	0.060500
O641	O64	0.346700	0.111160	0.131760
O651	O65	0.079300	0.749620	0.442900
O661	O66	0.989100	0.601900	0.483500
O671	O67	0.076400	0.232940	0.210600
O681	O68	0.103300	0.276650	0.345900
O691	O69	0.981000	0.086850	0.274900
O701	O70	0.055800	0.101830	0.410600
O711	O71	0.609600	0.467680	0.520700
O721	O72	0.558400	0.500970	0.384400
C1271	C127	0.956700	0.538500	0.133800
C1281	C128	0.994400	0.477300	0.171400
C1291	C129	0.002000	0.467000	0.251000
H731	H73	0.991900	0.501400	0.283900
C1301	C130	0.024600	0.406000	0.282600
H741	H74	0.030500	0.399300	0.336700
C1311	C131	0.038500	0.354900	0.233400
C1321	C132	0.035500	0.365300	0.154800
H751	H75	0.047300	0.331300	0.122100
C1331	C133	0.014600	0.427000	0.124300
H761	H76	0.014100	0.434700	0.070900
C1341	C134	0.955300	0.250600	0.284300
C1351	C135	0.938700	0.242200	0.359100
H771	H77	0.979000	0.248500	0.402500
C1361	C136	0.861800	0.224400	0.369200
H781	H78	0.850300	0.218100	0.419900
C1371	C137	0.801200	0.215900	0.305400
C1381	C138	0.818900	0.225000	0.230600
H791	H79	0.778500	0.220100	0.187100
C1391	C139	0.896000	0.241400	0.220300
H801	H80	0.908200	0.246200	0.169700
C1401	C140	0.718400	0.195900	0.318400
C1411	C141	0.042000	0.775100	0.381600
C1421	C142	0.044700	0.849100	0.372400
C1431	C143	0.013200	0.876300	0.300900
H811	H81	0.990500	0.849100	0.259700
C1441	C144	0.014800	0.943800	0.289600
H821	H82	0.994600	0.961800	0.240600
C1451	C145	0.046300	0.983800	0.350500
C1461	C146	0.079500	0.957700	0.421900
H831	H83	0.102300	0.985200	0.462800
C1471	C147	0.078900	0.889700	0.432500
H841	H84	0.101700	0.871600	0.480700
C1481	C148	0.137500	0.083400	0.297500
C1491	C149	0.205600	0.103500	0.346100
H851	H85	0.204500	0.110600	0.399400
C1501	C150	0.275500	0.113300	0.315900
H861	H86	0.322500	0.126400	0.348800
C1511	C151	0.276800	0.103800	0.237300
C1521	C152	0.206600	0.085000	0.189000
H871	H87	0.206800	0.079500	0.135300
C1531	C153	0.136900	0.074200	0.219000
H881	H88	0.089900	0.060900	0.186400
C1541	C154	0.352500	0.117000	0.204500
C1551	C155	0.939300	0.595200	0.421900
C1561	C156	0.856500	0.571500	0.428300
C1571	C157	0.842800	0.542600	0.497200
H891	H89	0.885900	0.535600	0.537800
C1581	C158	0.766100	0.523800	0.506400
H901	H90	0.756600	0.504500	0.553200
C1591	C159	0.703800	0.534100	0.445700
C1601	C160	0.716200	0.562000	0.375600
H911	H91	0.673100	0.568500	0.335000
C1611	C161	0.792800	0.579800	0.366900
H921	H92	0.802500	0.597600	0.319500
C1621	C162	0.569900	0.589700	0.493700
C1631	C163	0.581500	0.601400	0.573200
H931	H93	0.609100	0.570900	0.607900
C1641	C164	0.552300	0.657900	0.601000
H941	H94	0.560900	0.665900	0.655000
C1651	C165	0.510000	0.703700	0.550500
C1661	C166	0.499100	0.691600	0.470300
H951	H95	0.471500	0.722100	0.435600
C1671	C167	0.528800	0.635100	0.441500
H961	H96	0.521400	0.627300	0.387500
C1681	C168	0.474900	0.764000	0.582300
