data_PUKVAU_clean_PM
_symmetry_space_group_name_H-M	'P1'
_cell_length_a	10.335000
_cell_length_b	13.382300
_cell_length_c	22.662300
_cell_angle_alpha	100.903000
_cell_angle_beta	91.359000
_cell_angle_gamma	104.331000
_symmetry_Int_Tables_number 1

loop_
_symmetry_equiv_pos_as_xyz
'x,y,z'

loop_
_atom_site_label
_atom_site_type_symbol
_atom_site_fract_x
_atom_site_fract_y
_atom_site_fract_z
Cu11	Cu1	0.049410	0.547850	0.279550
Cu21	Cu2	0.418250	0.061130	0.048130
S11	S1	0.661340	0.926060	0.281190
S21	S2	0.500450	0.697060	0.243880
S31	S3	0.604070	0.413110	0.323610
S41	S4	0.459730	0.191750	0.257430
S51	S5	0.941060	0.950000	0.781020
S61	S6	0.070140	0.181460	0.839890
N11	N1	0.502100	0.022500	0.117900
N21	N2	0.880200	0.591900	0.269400
N31	N3	0.217800	0.504800	0.289940
N41	N4	0.500800	0.052000	0.422290
N51	N5	0.313400	0.097500	0.983200
N61	N6	0.988100	0.985500	0.586730
C11	C1	0.424800	0.948400	0.142400
H11	H1	0.335900	0.917300	0.125100
C21	C2	0.466400	0.914500	0.191400
H21	H2	0.407300	0.861000	0.207100
C31	C3	0.595600	0.959100	0.217700
C41	C4	0.677800	0.037000	0.192400
H31	H3	0.767100	0.069300	0.208800
C51	C5	0.627800	0.066500	0.143400
H41	H4	0.684100	0.120200	0.126900
C61	C6	0.526100	0.821200	0.295800
H51	H5	0.543500	0.810100	0.336900
H61	H6	0.442300	0.844200	0.295300
C71	C7	0.649100	0.660700	0.256200
C81	C8	0.731600	0.694100	0.309700
H71	H7	0.710100	0.741400	0.342500
C91	C9	0.844300	0.657800	0.314400
H81	H8	0.899000	0.680500	0.351200
C101	C10	0.800600	0.558500	0.218800
H91	H9	0.824400	0.510900	0.186800
C111	C11	0.684800	0.590100	0.210600
H101	H10	0.630200	0.563600	0.173900
C121	C12	0.290000	0.535000	0.343300
H111	H11	0.258000	0.576500	0.375600
C131	C13	0.407300	0.508800	0.353300
H121	H12	0.455500	0.533000	0.391700
C141	C14	0.455700	0.446900	0.307400
C151	C15	0.382700	0.417600	0.251900
H131	H13	0.413000	0.376800	0.218600
C161	C16	0.266900	0.448000	0.245400
H141	H14	0.218700	0.427400	0.206900
C171	C17	0.601100	0.303900	0.262400
H151	H15	0.602100	0.329000	0.224000
H161	H16	0.684100	0.280800	0.267000
C181	C18	0.486200	0.141900	0.321360
C191	C19	0.601300	0.173000	0.360600
H171	H17	0.676600	0.225700	0.353700
C201	C20	0.604200	0.126100	0.409500
H181	H18	0.683500	0.147400	0.435700
C211	C21	0.391200	0.020100	0.383230
H191	H19	0.318200	0.966100	0.390700
C221	C22	0.380600	0.062100	0.333260
H201	H20	0.301700	0.037100	0.306800
C231	C23	0.187300	0.041500	0.968000
H211	H21	0.151600	0.985100	0.987600
C241	C24	0.106300	0.061900	0.924900
H221	H22	0.016500	0.020700	0.915500
C251	C25	0.158500	0.144300	0.895200
C261	C26	0.289800	0.203000	0.911100
H231	H23	0.328600	0.259600	0.892100
C271	C27	0.362800	0.177500	0.955300
H241	H24	0.452100	0.218400	0.966500
C281	C28	0.920800	0.074100	0.822000
H251	H25	0.855500	0.096400	0.798200
H261	H26	0.881100	0.062200	0.860200
C291	C29	0.967000	0.971900	0.707800
C301	C30	0.971800	0.065400	0.689100
H271	H27	0.967900	0.126500	0.717500
C311	C31	0.982300	0.068800	0.628900
H281	H28	0.985500	0.133500	0.616800
C321	C32	0.987900	0.896800	0.605800
H291	H29	0.995400	0.837500	0.576800
C331	C33	0.977700	0.886400	0.664500
H301	H30	0.978000	0.821400	0.675500
C341	C34	0.716600	0.899600	0.475400
H311	H31	0.645600	0.838100	0.462500
C351	C35	0.709200	0.164500	0.998700
H321	H32	0.713200	0.230800	0.023700
O11	O1	0.685100	0.984100	0.490570
O21	O2	0.832100	0.887900	0.475590
O31	O3	0.608100	0.089900	0.001340
O41	O4	0.803000	0.159200	0.966560
Cu31	Cu3	0.950590	0.452150	0.720450
Cu41	Cu4	0.581750	0.938870	0.951870
S71	S7	0.338660	0.073940	0.718810
S81	S8	0.499550	0.302940	0.756120
S91	S9	0.395930	0.586890	0.676390
S101	S10	0.540270	0.808250	0.742570
S111	S11	0.058940	0.050000	0.218980
S121	S12	0.929860	0.818540	0.160110
N71	N7	0.497900	0.977500	0.882100
N81	N8	0.119800	0.408100	0.730600
N91	N9	0.782200	0.495200	0.710060
N101	N10	0.499200	0.948000	0.577710
N111	N11	0.686600	0.902500	0.016800
N121	N12	0.011900	0.014500	0.413270
C361	C36	0.575200	0.051600	0.857600
H331	H33	0.664100	0.082700	0.874900
C371	C37	0.533600	0.085500	0.808600
H341	H34	0.592700	0.139000	0.792900
C381	C38	0.404400	0.040900	0.782300
C391	C39	0.322200	0.963000	0.807600
H351	H35	0.232900	0.930700	0.791200
C401	C40	0.372200	0.933500	0.856600
H361	H36	0.315900	0.879800	0.873100
C411	C41	0.473900	0.178800	0.704200
H371	H37	0.456500	0.189900	0.663100
H381	H38	0.557700	0.155800	0.704700
C421	C42	0.350900	0.339300	0.743800
C431	C43	0.268400	0.305900	0.690300
H391	H39	0.289900	0.258600	0.657500
C441	C44	0.155700	0.342200	0.685600
H401	H40	0.101000	0.319500	0.648800
C451	C45	0.199400	0.441500	0.781200
H411	H41	0.175600	0.489100	0.813200
C461	C46	0.315200	0.409900	0.789400
H421	H42	0.369800	0.436400	0.826100
C471	C47	0.710000	0.465000	0.656700
H431	H43	0.742000	0.423500	0.624400
C481	C48	0.592700	0.491200	0.646700
H441	H44	0.544500	0.467000	0.608300
C491	C49	0.544300	0.553100	0.692600
C501	C50	0.617300	0.582400	0.748100
H451	H45	0.587000	0.623200	0.781400
C511	C51	0.733100	0.552000	0.754600
H461	H46	0.781300	0.572600	0.793100
C521	C52	0.398900	0.696100	0.737600
H471	H47	0.397900	0.671000	0.776000
H481	H48	0.315900	0.719200	0.733000
C531	C53	0.513800	0.858100	0.678640
C541	C54	0.398700	0.827000	0.639400
H491	H49	0.323400	0.774300	0.646300
C551	C55	0.395800	0.873900	0.590500
H501	H50	0.316500	0.852600	0.564300
C561	C56	0.608800	0.979900	0.616770
H511	H51	0.681800	0.033900	0.609300
C571	C57	0.619400	0.937900	0.666740
H521	H52	0.698300	0.962900	0.693200
C581	C58	0.812700	0.958500	0.032000
H531	H53	0.848400	0.014900	0.012400
C591	C59	0.893700	0.938100	0.075100
H541	H54	0.983500	0.979300	0.084500
C601	C60	0.841500	0.855700	0.104800
C611	C61	0.710200	0.797000	0.088900
H551	H55	0.671400	0.740400	0.107900
C621	C62	0.637200	0.822500	0.044700
H561	H56	0.547900	0.781600	0.033500
C631	C63	0.079200	0.925900	0.178000
H571	H57	0.144500	0.903600	0.201800
H581	H58	0.118900	0.937800	0.139800
C641	C64	0.033000	0.028100	0.292200
C651	C65	0.028200	0.934600	0.310900
H591	H59	0.032100	0.873500	0.282500
C661	C66	0.017700	0.931200	0.371100
H601	H60	0.014500	0.866500	0.383200
C671	C67	0.012100	0.103200	0.394200
H611	H61	0.004600	0.162500	0.423200
C681	C68	0.022300	0.113600	0.335500
H621	H62	0.022000	0.178600	0.324500
C691	C69	0.283400	0.100400	0.524600
H631	H63	0.354400	0.161900	0.537500
C701	C70	0.290800	0.835500	0.001300
H641	H64	0.286800	0.769200	0.976300
O51	O5	0.314900	0.015900	0.509430
O61	O6	0.167900	0.112100	0.524410
O71	O7	0.391900	0.910100	0.998660
O81	O8	0.197000	0.840800	0.033440
Cu51	Cu5	0.500000	0.000000	0.500000
Cu61	Cu6	0.000000	0.000000	0.500000
