data_PULDOQ_clean_PM
_symmetry_space_group_name_H-M	'P1'
_cell_length_a	12.392000
_cell_length_b	12.703000
_cell_length_c	12.991000
_cell_angle_alpha	63.630000
_cell_angle_beta	88.800000
_cell_angle_gamma	66.270000
_symmetry_Int_Tables_number 1

loop_
_symmetry_equiv_pos_as_xyz
'x,y,z'

loop_
_atom_site_label
_atom_site_type_symbol
_atom_site_fract_x
_atom_site_fract_y
_atom_site_fract_z
Na11	Na1	0.006200	0.636500	0.243000
Na21	Na2	0.925100	0.426100	0.191600
Na31	Na3	0.731400	0.937400	0.106800
Na41	Na4	0.993800	0.363500	0.757000
Na51	Na5	0.074900	0.573900	0.808400
Na61	Na6	0.268600	0.062600	0.893200
Cu11	Cu1	0.725300	0.916900	0.506600
Cu21	Cu2	0.274700	0.083100	0.493400
Cu31	Cu3	0.500000	0.500000	0.000000
H11	H1	0.707200	0.898000	0.766400
H21	H2	0.646000	0.804400	0.791600
H31	H3	0.562200	0.904000	0.610500
H41	H4	0.579600	0.013400	0.604600
H51	H5	0.292800	0.102000	0.233600
H61	H6	0.354000	0.195600	0.208400
H71	H7	0.437800	0.096000	0.389500
H81	H8	0.420400	0.986600	0.395400
W11	W1	0.598720	0.252880	0.312250
W21	W2	0.781350	0.170640	0.545280
W31	W3	0.345160	0.512150	0.229110
W41	W4	0.375460	0.791030	0.221430
W51	W5	0.438480	0.288950	0.547270
W61	W6	0.634360	0.519360	0.325050
W71	W7	0.401280	0.747120	0.687750
W81	W8	0.218650	0.829360	0.454720
W91	W9	0.654840	0.487850	0.770890
W101	W10	0.624540	0.208970	0.778570
W111	W11	0.561520	0.711050	0.452730
W121	W12	0.365640	0.480640	0.674950
C11	C1	0.690900	0.845000	0.739300
C21	C2	0.810800	0.738000	0.742200
C31	C3	0.309100	0.155000	0.260700
C41	C4	0.189200	0.262000	0.257800
N11	N1	0.617800	0.930000	0.618500
N21	N2	0.382200	0.070000	0.381500
O11	O1	0.985000	0.451400	0.360700
O21	O2	0.890000	0.661500	0.073900
O31	O3	0.363400	0.437600	0.409500
O41	O4	0.623900	0.086500	0.371500
O51	O5	0.584200	0.226800	0.498500
O61	O6	0.743400	0.173600	0.685100
O71	O7	0.819200	0.749900	0.288000
O81	O8	0.314900	0.671500	0.221600
O91	O9	0.376900	0.548100	0.088200
O101	O10	0.199800	0.531600	0.212400
O111	O11	0.516100	0.690500	0.184100
O121	O12	0.750500	0.222200	0.380100
O131	O13	0.428000	0.323600	0.284100
O141	O14	0.698400	0.381900	0.470800
O151	O15	0.538300	0.449600	0.285300
O161	O16	0.831200	0.754800	0.641000
O171	O17	0.476800	0.617200	0.395300
O181	O18	0.745000	0.491200	0.246800
O191	O19	0.301100	0.930200	0.085200
O201	O20	0.460600	0.846900	0.287300
O211	O21	0.332800	0.365600	0.633100
O221	O22	0.877400	0.658800	0.836100
O231	O23	0.015000	0.548600	0.639300
O241	O24	0.110000	0.338500	0.926100
O251	O25	0.636600	0.562400	0.590500
O261	O26	0.376100	0.913500	0.628500
O271	O27	0.415800	0.773200	0.501500
O281	O28	0.256600	0.826400	0.314900
O291	O29	0.180800	0.250100	0.712000
O301	O30	0.685100	0.328500	0.778400
O311	O31	0.623100	0.451900	0.911800
O321	O32	0.800200	0.468400	0.787600
O331	O33	0.483900	0.309500	0.815900
O341	O34	0.249500	0.777800	0.619900
O351	O35	0.572000	0.676400	0.715900
O361	O36	0.301600	0.618100	0.529200
O371	O37	0.461700	0.550400	0.714700
O381	O38	0.168800	0.245200	0.359000
O391	O39	0.523200	0.382800	0.604700
O401	O40	0.255000	0.508800	0.753200
O411	O41	0.698900	0.069800	0.914800
O421	O42	0.539400	0.153100	0.712700
O431	O43	0.667200	0.634400	0.366900
O441	O44	0.122600	0.341200	0.163900
