data_PUMGIP01_clean_PM
_symmetry_space_group_name_H-M	'P1'
_cell_length_a	17.046000
_cell_length_b	24.046200
_cell_length_c	28.844200
_cell_angle_alpha	90.000000
_cell_angle_beta	90.000000
_cell_angle_gamma	90.000000
_symmetry_Int_Tables_number 1

loop_
_symmetry_equiv_pos_as_xyz
'x,y,z'

loop_
_atom_site_label
_atom_site_type_symbol
_atom_site_fract_x
_atom_site_fract_y
_atom_site_fract_z
Cd11	Cd1	0.591460	0.598460	0.709020
Cd21	Cd2	0.909330	0.671070	0.209190
O11	O1	0.580700	0.154100	0.673300
O21	O2	0.594300	0.041200	0.673000
O31	O3	0.714100	0.620700	0.663470
O41	O4	0.599600	0.603400	0.629330
O51	O5	0.828800	0.674400	0.272860
O61	O6	0.455000	0.592900	0.703400
O71	O7	0.332300	0.598700	0.725900
O81	O8	0.884100	0.225400	0.190000
O91	O9	0.900500	0.116000	0.191000
O101	O10	0.094200	0.668200	0.371200
O111	O11	0.212100	0.675800	0.340000
O121	O12	0.952700	0.666200	0.295400
N11	N1	0.633700	0.152400	0.764600
N21	N2	0.656500	0.044900	0.761700
N31	N3	0.571900	0.693100	0.709400
N41	N4	0.586100	0.504300	0.704000
N51	N5	0.919700	0.766000	0.209500
N61	N6	0.906900	0.574800	0.213100
N71	N7	0.817300	0.222500	0.275100
N81	N8	0.850700	0.115300	0.281200
C11	C1	0.582200	0.209000	0.677100
C21	C2	0.566100	0.243300	0.638400
C31	C3	0.564800	0.300500	0.645000
H11	H1	0.552500	0.323400	0.619200
C41	C4	0.580400	0.326000	0.687200
C51	C5	0.599800	0.293200	0.724200
H21	H2	0.612400	0.309900	0.753100
C61	C6	0.601100	0.234400	0.719900
C71	C7	0.551700	0.217500	0.591100
C81	C8	0.480400	0.178500	0.591800
H31	H3	0.487600	0.150400	0.616000
H41	H4	0.475300	0.160200	0.561600
H51	H5	0.432900	0.200100	0.598300
C91	C9	0.534500	0.261600	0.552400
H61	H6	0.480100	0.274300	0.555000
H71	H7	0.542600	0.244700	0.521800
H81	H8	0.570000	0.293300	0.556100
C101	C10	0.627800	0.184400	0.575100
H91	H9	0.671700	0.210500	0.571500
H101	H10	0.617600	0.166100	0.545400
H111	H11	0.641200	0.156400	0.598400
C111	C11	0.580000	0.388100	0.692400
C121	C12	0.546900	0.422500	0.663000
H121	H12	0.520400	0.407300	0.636900
C131	C13	0.618100	0.413500	0.730200
H131	H13	0.641800	0.391500	0.753700
C141	C14	0.622600	0.205500	0.761800
H141	H14	0.629000	0.226900	0.789200
C151	C15	0.651000	0.126100	0.810800
H151	H15	0.600000	0.114800	0.825100
C161	C16	0.695200	0.162100	0.845600
H161	H16	0.664000	0.195600	0.853200
H171	H17	0.745900	0.174100	0.832200
C171	C17	0.709100	0.127400	0.889300
H181	H18	0.738200	0.150100	0.912200
H191	H19	0.658000	0.117200	0.903100
C181	C18	0.754900	0.075300	0.879100
H201	H20	0.761500	0.053600	0.908000
H211	H21	0.807700	0.085400	0.867600
C191	C19	0.713500	0.040100	0.843400
H221	H22	0.663100	0.026700	0.856200
H231	H23	0.746200	0.007300	0.836000
C201	C20	0.698200	0.072900	0.799600
H241	H24	0.750300	0.084900	0.787200
C211	C21	0.642700	0.993500	0.760900
H251	H25	0.656000	0.973000	0.787900
C221	C22	0.608800	0.962800	0.723300
C231	C23	0.598600	0.904600	0.729800
H261	H26	0.610000	0.888800	0.759200
C241	C24	0.573000	0.870800	0.694800
C251	C25	0.557300	0.895600	0.651400
H271	H27	0.538600	0.872800	0.626900
C261	C26	0.568100	0.952300	0.643100
C271	C27	0.590800	0.986500	0.680300
C281	C28	0.555900	0.976400	0.594000
C291	C29	0.633000	0.006500	0.577600
H281	H28	0.678000	0.981700	0.582000
H291	H29	0.640700	0.040500	0.595900
H301	H30	0.628400	0.016200	0.544700
C301	C30	0.538100	0.929800	0.557800
H311	H31	0.574500	0.898700	0.562400
H321	H32	0.544500	0.944700	0.526400
H331	H33	0.484100	0.916600	0.561900
C311	C31	0.486900	0.016000	0.593400
H341	H34	0.487600	0.037500	0.564600
H351	H35	0.490500	0.041300	0.620000
H361	H36	0.437900	0.994700	0.595400
C321	C32	0.568100	0.810100	0.701200
C331	C33	0.603000	0.783600	0.738700
H371	H37	0.625600	0.805300	0.762800
C341	C34	0.605600	0.726400	0.741700
H381	H38	0.631900	0.709700	0.767200
C351	C35	0.536100	0.717800	0.673900
H391	H39	0.511800	0.694900	0.651100
C361	C36	0.532300	0.775200	0.668100
H401	H40	0.505800	0.790700	0.642200
C371	C37	0.620800	0.471000	0.732700
H411	H41	0.650200	0.487200	0.757200
C381	C38	0.548600	0.480300	0.668000
H421	H42	0.522900	0.503000	0.645800
C391	C39	0.671800	0.617900	0.628500
C401	C40	0.705100	0.629900	0.581500
C411	C41	0.657100	0.623800	0.542100
H431	H43	0.603700	0.613300	0.545800
C421	C42	0.686800	0.633000	0.498100
H441	H44	0.653400	0.628800	0.471900
C431	C43	0.766200	0.648300	0.491500
C441	C44	0.814400	0.654400	0.531600
H451	H45	0.867800	0.665000	0.528500
C451	C45	0.782500	0.644500	0.575400
H461	H46	0.815200	0.648100	0.601800
C461	C46	0.798100	0.656100	0.444100
C471	C47	0.750000	0.673600	0.409200
H471	H47	0.697100	0.683100	0.416000
C481	C48	0.777100	0.677800	0.363800
H481	H48	0.742400	0.688400	0.339600
C491	C49	0.854100	0.666500	0.354100
C501	C50	0.905300	0.650900	0.388900
H491	H49	0.958900	0.643600	0.382100
C511	C51	0.877300	0.646300	0.433800
H501	H50	0.912300	0.636300	0.458000
C521	C52	0.879700	0.669300	0.304100
C531	C53	0.384000	0.599600	0.695100
C541	C54	0.356300	0.611100	0.646500
C551	C55	0.277600	0.623800	0.639600
H511	H51	0.242800	0.626000	0.665300
C561	C56	0.250000	0.633300	0.595200
H521	H52	0.195700	0.640200	0.590500
C571	C57	0.300000	0.633000	0.557200
C581	C58	0.379100	0.622000	0.564400
H531	H53	0.414700	0.621900	0.539100
C591	C59	0.406100	0.610900	0.609500
H541	H54	0.460100	0.603100	0.614400
C601	C60	0.266800	0.643000	0.509400
C611	C61	0.192100	0.625800	0.498800
H551	H55	0.162200	0.606300	0.521300
C621	C62	0.159900	0.636500	0.455900
H561	H56	0.107400	0.625500	0.449600
C631	C63	0.203000	0.662900	0.422000
C641	C64	0.279400	0.679000	0.432200
H571	H57	0.311500	0.694500	0.408600
C651	C65	0.308700	0.672400	0.476300
H581	H58	0.358100	0.688200	0.484100
C661	C66	0.918700	0.945300	0.203600
C671	C67	0.923400	0.883300	0.206700
C681	C68	0.880500	0.854600	0.239600
H591	H59	0.851000	0.874400	0.262100
C691	C69	0.880400	0.796200	0.239900
H601	H60	0.850700	0.777600	0.263100
C701	C70	0.961700	0.793200	0.178200
H611	H61	0.991900	0.772100	0.156900
C711	C71	0.964100	0.851200	0.174600
H621	H62	0.993200	0.868500	0.150500
C721	C72	0.850600	0.546500	0.234800
H631	H63	0.811500	0.566400	0.251300
C731	C73	0.847300	0.488500	0.234000
H641	H64	0.805900	0.469900	0.249500
C741	C74	0.902400	0.458500	0.211300
C751	C75	0.962100	0.487600	0.190600
H651	H65	0.003500	0.468000	0.175700
C761	C76	0.962600	0.546000	0.191200
H661	H66	0.003500	0.565400	0.175800
C771	C77	0.895900	0.397300	0.207400
C781	C78	0.861900	0.364800	0.240400
H671	H67	0.841000	0.381600	0.267500
C791	C79	0.857200	0.306200	0.234900
C801	C80	0.886000	0.279700	0.195400
C811	C81	0.921600	0.313600	0.159900
C821	C82	0.926100	0.370600	0.167900
H681	H68	0.951300	0.393000	0.145100
C831	C83	0.957900	0.286500	0.116900
C841	C84	0.898800	0.249500	0.090400
H691	H69	0.884000	0.217800	0.109800
H701	H70	0.923100	0.236000	0.061700
H711	H71	0.851900	0.271300	0.082800
C851	C85	0.027600	0.251700	0.132000
H721	H72	0.068700	0.276100	0.144200
H731	H73	0.048000	0.231000	0.105400
H741	H74	0.011000	0.225600	0.156200
C861	C86	0.987700	0.330700	0.082300
H751	H75	0.949300	0.360900	0.080000
H761	H76	0.994700	0.313600	0.051700
H771	H77	0.037900	0.345600	0.093100
C871	C87	0.819700	0.275300	0.273000
H781	H78	0.796200	0.295900	0.297400
C881	C88	0.777100	0.192600	0.314300
H791	H79	0.726700	0.177500	0.301900
C891	C89	0.757200	0.227100	0.356200
H801	H80	0.719300	0.256400	0.347400
H811	H81	0.805300	0.245400	0.368000
C901	C90	0.721100	0.189500	0.394900
H821	H82	0.715200	0.211700	0.423600
H831	H83	0.668200	0.177300	0.385100
C911	C91	0.770500	0.138900	0.405200
H841	H84	0.743000	0.115100	0.428000
H851	H85	0.820900	0.150700	0.419100
C921	C92	0.786600	0.105200	0.360500
H861	H86	0.818200	0.071800	0.367900
H871	H87	0.736300	0.092800	0.346700
C931	C93	0.830700	0.141700	0.326200
H881	H88	0.879900	0.155500	0.341200
C941	C94	0.866600	0.064000	0.279600
H891	H89	0.862400	0.043000	0.307400
C951	C95	0.891000	0.035400	0.237800
C961	C96	0.897200	0.976800	0.241100
H901	H90	0.886300	0.959000	0.269800
C971	C97	0.931500	0.971200	0.161400
H911	H91	0.946000	0.949100	0.135500
C981	C98	0.924100	0.028500	0.155600
C991	C99	0.905600	0.061100	0.193900
C1001	C100	0.931200	0.054900	0.106500
C1011	C101	0.854800	0.084300	0.094100
H921	H92	0.810800	0.058600	0.098200
H931	H93	0.856900	0.096600	0.061700
H941	H94	0.847700	0.116600	0.114400
C1021	C102	0.949300	0.011900	0.067200
H951	H95	0.993500	0.988300	0.076600
H961	H96	0.962800	0.031700	0.038600
H971	H97	0.903000	0.988600	0.061800
C1031	C103	0.998900	0.097500	0.104700
H981	H98	0.986900	0.128900	0.125200
H991	H99	0.005200	0.111000	0.072900
H1001	H100	0.047600	0.079600	0.114900
C1041	C104	0.168500	0.670100	0.373900
V11	V1	0.644550	0.100300	0.705710
V21	V2	0.831930	0.165170	0.223450
V31	V3	0.584000	0.096690	0.723220
V41	V4	0.907600	0.174580	0.235780
Cd31	Cd3	0.408540	0.598460	0.790980
Cd41	Cd4	0.090670	0.671070	0.290810
O131	O13	0.419300	0.154100	0.826700
O141	O14	0.405700	0.041200	0.827000
O151	O15	0.285900	0.620700	0.836530
O161	O16	0.400400	0.603400	0.870670
O171	O17	0.171200	0.674400	0.227140
O181	O18	0.545000	0.592900	0.796600
O191	O19	0.667700	0.598700	0.774100
O201	O20	0.115900	0.225400	0.310000
O211	O21	0.099500	0.116000	0.309000
O221	O22	0.905800	0.668200	0.128800
O231	O23	0.787900	0.675800	0.160000
O241	O24	0.047300	0.666200	0.204600
N91	N9	0.366300	0.152400	0.735400
N101	N10	0.343500	0.044900	0.738300
N111	N11	0.428100	0.693100	0.790600
N121	N12	0.413900	0.504300	0.796000
N131	N13	0.080300	0.766000	0.290500
N141	N14	0.093100	0.574800	0.286900
N151	N15	0.182700	0.222500	0.224900
N161	N16	0.149300	0.115300	0.218800
C1051	C105	0.417800	0.209000	0.822900
C1061	C106	0.433900	0.243300	0.861600
C1071	C107	0.435200	0.300500	0.855000
H1011	H101	0.447500	0.323400	0.880800
C1081	C108	0.419600	0.326000	0.812800
C1091	C109	0.400200	0.293200	0.775800
H1021	H102	0.387600	0.309900	0.746900
C1101	C110	0.398900	0.234400	0.780100
C1111	C111	0.448300	0.217500	0.908900
C1121	C112	0.519600	0.178500	0.908200
H1031	H103	0.512400	0.150400	0.884000
H1041	H104	0.524700	0.160200	0.938400
H1051	H105	0.567100	0.200100	0.901700
C1131	C113	0.465500	0.261600	0.947600
H1061	H106	0.519900	0.274300	0.945000
H1071	H107	0.457400	0.244700	0.978200
H1081	H108	0.430000	0.293300	0.943900
C1141	C114	0.372200	0.184400	0.924900
H1091	H109	0.328300	0.210500	0.928500
H1101	H110	0.382400	0.166100	0.954600
H1111	H111	0.358800	0.156400	0.901600
C1151	C115	0.420000	0.388100	0.807600
C1161	C116	0.453100	0.422500	0.837000
H1121	H112	0.479600	0.407300	0.863100
C1171	C117	0.381900	0.413500	0.769800
H1131	H113	0.358200	0.391500	0.746300
C1181	C118	0.377400	0.205500	0.738200
H1141	H114	0.371000	0.226900	0.710800
C1191	C119	0.349000	0.126100	0.689200
H1151	H115	0.400000	0.114800	0.674900
C1201	C120	0.304800	0.162100	0.654400
H1161	H116	0.336000	0.195600	0.646800
H1171	H117	0.254100	0.174100	0.667800
C1211	C121	0.290900	0.127400	0.610700
H1181	H118	0.261800	0.150100	0.587800
H1191	H119	0.342000	0.117200	0.596900
C1221	C122	0.245100	0.075300	0.620900
H1201	H120	0.238500	0.053600	0.592000
H1211	H121	0.192300	0.085400	0.632400
C1231	C123	0.286500	0.040100	0.656600
H1221	H122	0.336900	0.026700	0.643800
H1231	H123	0.253800	0.007300	0.664000
C1241	C124	0.301800	0.072900	0.700400
H1241	H124	0.249700	0.084900	0.712800
C1251	C125	0.357300	0.993500	0.739100
H1251	H125	0.344000	0.973000	0.712100
C1261	C126	0.391200	0.962800	0.776700
C1271	C127	0.401400	0.904600	0.770200
H1261	H126	0.390000	0.888800	0.740800
C1281	C128	0.427000	0.870800	0.805200
C1291	C129	0.442700	0.895600	0.848600
H1271	H127	0.461400	0.872800	0.873100
C1301	C130	0.431900	0.952300	0.856900
C1311	C131	0.409200	0.986500	0.819700
C1321	C132	0.444100	0.976400	0.906000
C1331	C133	0.367000	0.006500	0.922400
H1281	H128	0.322000	0.981700	0.918000
H1291	H129	0.359300	0.040500	0.904100
H1301	H130	0.371600	0.016200	0.955300
C1341	C134	0.461900	0.929800	0.942200
H1311	H131	0.425500	0.898700	0.937600
H1321	H132	0.455500	0.944700	0.973600
H1331	H133	0.515900	0.916600	0.938100
C1351	C135	0.513100	0.016000	0.906600
H1341	H134	0.512400	0.037500	0.935400
H1351	H135	0.509500	0.041300	0.880000
H1361	H136	0.562100	0.994700	0.904600
C1361	C136	0.431900	0.810100	0.798800
C1371	C137	0.397000	0.783600	0.761300
H1371	H137	0.374400	0.805300	0.737200
C1381	C138	0.394400	0.726400	0.758300
H1381	H138	0.368100	0.709700	0.732800
C1391	C139	0.463900	0.717800	0.826100
H1391	H139	0.488200	0.694900	0.848900
C1401	C140	0.467700	0.775200	0.831900
H1401	H140	0.494200	0.790700	0.857800
C1411	C141	0.379200	0.471000	0.767300
H1411	H141	0.349800	0.487200	0.742800
C1421	C142	0.451400	0.480300	0.832000
H1421	H142	0.477100	0.503000	0.854200
C1431	C143	0.328200	0.617900	0.871500
C1441	C144	0.294900	0.629900	0.918500
C1451	C145	0.342900	0.623800	0.957900
H1431	H143	0.396300	0.613300	0.954200
C1461	C146	0.313200	0.633000	0.001900
H1441	H144	0.346600	0.628800	0.028100
C1471	C147	0.233800	0.648300	0.008500
C1481	C148	0.185600	0.654400	0.968400
H1451	H145	0.132200	0.665000	0.971500
C1491	C149	0.217500	0.644500	0.924600
H1461	H146	0.184800	0.648100	0.898200
C1501	C150	0.201900	0.656100	0.055900
C1511	C151	0.250000	0.673600	0.090800
H1471	H147	0.302900	0.683100	0.084000
C1521	C152	0.222900	0.677800	0.136200
H1481	H148	0.257600	0.688400	0.160400
C1531	C153	0.145900	0.666500	0.145900
C1541	C154	0.094700	0.650900	0.111100
H1491	H149	0.041100	0.643600	0.117900
C1551	C155	0.122700	0.646300	0.066200
H1501	H150	0.087700	0.636300	0.042000
C1561	C156	0.120300	0.669300	0.195900
C1571	C157	0.616000	0.599600	0.804900
C1581	C158	0.643700	0.611100	0.853500
C1591	C159	0.722400	0.623800	0.860400
H1511	H151	0.757200	0.626000	0.834700
C1601	C160	0.750000	0.633300	0.904800
H1521	H152	0.804300	0.640200	0.909500
C1611	C161	0.700000	0.633000	0.942800
C1621	C162	0.620900	0.622000	0.935600
H1531	H153	0.585300	0.621900	0.960900
C1631	C163	0.593900	0.610900	0.890500
H1541	H154	0.539900	0.603100	0.885600
C1641	C164	0.733200	0.643000	0.990600
C1651	C165	0.807900	0.625800	0.001200
H1551	H155	0.837800	0.606300	0.978700
C1661	C166	0.840100	0.636500	0.044100
H1561	H156	0.892600	0.625500	0.050400
C1671	C167	0.797000	0.662900	0.078000
C1681	C168	0.720600	0.679000	0.067800
H1571	H157	0.688500	0.694500	0.091400
C1691	C169	0.691300	0.672400	0.023700
H1581	H158	0.641900	0.688200	0.015900
C1701	C170	0.081300	0.945300	0.296400
C1711	C171	0.076600	0.883300	0.293300
C1721	C172	0.119500	0.854600	0.260400
H1591	H159	0.149000	0.874400	0.237900
C1731	C173	0.119600	0.796200	0.260100
H1601	H160	0.149300	0.777600	0.236900
C1741	C174	0.038300	0.793200	0.321800
H1611	H161	0.008100	0.772100	0.343100
C1751	C175	0.035900	0.851200	0.325400
H1621	H162	0.006800	0.868500	0.349500
C1761	C176	0.149400	0.546500	0.265200
H1631	H163	0.188500	0.566400	0.248700
C1771	C177	0.152700	0.488500	0.266000
H1641	H164	0.194100	0.469900	0.250500
C1781	C178	0.097600	0.458500	0.288700
C1791	C179	0.037900	0.487600	0.309400
H1651	H165	0.996500	0.468000	0.324300
C1801	C180	0.037400	0.546000	0.308800
H1661	H166	0.996500	0.565400	0.324200
C1811	C181	0.104100	0.397300	0.292600
C1821	C182	0.138100	0.364800	0.259600
H1671	H167	0.159000	0.381600	0.232500
C1831	C183	0.142800	0.306200	0.265100
C1841	C184	0.114000	0.279700	0.304600
C1851	C185	0.078400	0.313600	0.340100
C1861	C186	0.073900	0.370600	0.332100
H1681	H168	0.048700	0.393000	0.354900
C1871	C187	0.042100	0.286500	0.383100
C1881	C188	0.101200	0.249500	0.409600
H1691	H169	0.116000	0.217800	0.390200
H1701	H170	0.076900	0.236000	0.438300
H1711	H171	0.148100	0.271300	0.417200
C1891	C189	0.972400	0.251700	0.368000
H1721	H172	0.931300	0.276100	0.355800
H1731	H173	0.952000	0.231000	0.394600
H1741	H174	0.989000	0.225600	0.343800
C1901	C190	0.012300	0.330700	0.417700
H1751	H175	0.050700	0.360900	0.420000
H1761	H176	0.005300	0.313600	0.448300
H1771	H177	0.962100	0.345600	0.406900
C1911	C191	0.180300	0.275300	0.227000
H1781	H178	0.203800	0.295900	0.202600
C1921	C192	0.222900	0.192600	0.185700
H1791	H179	0.273300	0.177500	0.198100
C1931	C193	0.242800	0.227100	0.143800
H1801	H180	0.280700	0.256400	0.152600
H1811	H181	0.194700	0.245400	0.132000
C1941	C194	0.278900	0.189500	0.105100
H1821	H182	0.284800	0.211700	0.076400
H1831	H183	0.331800	0.177300	0.114900
C1951	C195	0.229500	0.138900	0.094800
H1841	H184	0.257000	0.115100	0.072000
H1851	H185	0.179100	0.150700	0.080900
C1961	C196	0.213400	0.105200	0.139500
H1861	H186	0.181800	0.071800	0.132100
H1871	H187	0.263700	0.092800	0.153300
C1971	C197	0.169300	0.141700	0.173800
H1881	H188	0.120100	0.155500	0.158800
C1981	C198	0.133400	0.064000	0.220400
H1891	H189	0.137600	0.043000	0.192600
C1991	C199	0.109000	0.035400	0.262200
C2001	C200	0.102800	0.976800	0.258900
H1901	H190	0.113700	0.959000	0.230200
C2011	C201	0.068500	0.971200	0.338600
H1911	H191	0.054000	0.949100	0.364500
C2021	C202	0.075900	0.028500	0.344400
C2031	C203	0.094400	0.061100	0.306100
C2041	C204	0.068800	0.054900	0.393500
C2051	C205	0.145200	0.084300	0.405900
H1921	H192	0.189200	0.058600	0.401800
H1931	H193	0.143100	0.096600	0.438300
H1941	H194	0.152300	0.116600	0.385600
C2061	C206	0.050700	0.011900	0.432800
H1951	H195	0.006500	0.988300	0.423400
H1961	H196	0.037200	0.031700	0.461400
H1971	H197	0.097000	0.988600	0.438200
C2071	C207	0.001100	0.097500	0.395300
H1981	H198	0.013100	0.128900	0.374800
H1991	H199	0.994800	0.111000	0.427100
H2001	H200	0.952400	0.079600	0.385100
C2081	C208	0.831500	0.670100	0.126100
V51	V5	0.355450	0.100300	0.794290
V61	V6	0.168070	0.165170	0.276550
V71	V7	0.416000	0.096690	0.776780
V81	V8	0.092400	0.174580	0.264220
O251	O25	0.500000	0.088900	0.750000
O261	O26	0.000000	0.184800	0.250000
Cd51	Cd5	0.408540	0.401540	0.209020
Cd61	Cd6	0.090670	0.328930	0.709190
O271	O27	0.419300	0.845900	0.173300
O281	O28	0.405700	0.958800	0.173000
O291	O29	0.285900	0.379300	0.163470
O301	O30	0.400400	0.396600	0.129330
O311	O31	0.171200	0.325600	0.772860
O321	O32	0.545000	0.407100	0.203400
O331	O33	0.667700	0.401300	0.225900
O341	O34	0.115900	0.774600	0.690000
O351	O35	0.099500	0.884000	0.691000
O361	O36	0.905800	0.331800	0.871200
O371	O37	0.787900	0.324200	0.840000
O381	O38	0.047300	0.333800	0.795400
N171	N17	0.366300	0.847600	0.264600
N181	N18	0.343500	0.955100	0.261700
N191	N19	0.428100	0.306900	0.209400
N201	N20	0.413900	0.495700	0.204000
N211	N21	0.080300	0.234000	0.709500
N221	N22	0.093100	0.425200	0.713100
N231	N23	0.182700	0.777500	0.775100
N241	N24	0.149300	0.884700	0.781200
C2091	C209	0.417800	0.791000	0.177100
C2101	C210	0.433900	0.756700	0.138400
C2111	C211	0.435200	0.699500	0.145000
H2011	H201	0.447500	0.676600	0.119200
C2121	C212	0.419600	0.674000	0.187200
C2131	C213	0.400200	0.706800	0.224200
H2021	H202	0.387600	0.690100	0.253100
C2141	C214	0.398900	0.765600	0.219900
C2151	C215	0.448300	0.782500	0.091100
C2161	C216	0.519600	0.821500	0.091800
H2031	H203	0.512400	0.849600	0.116000
H2041	H204	0.524700	0.839800	0.061600
H2051	H205	0.567100	0.799900	0.098300
C2171	C217	0.465500	0.738400	0.052400
H2061	H206	0.519900	0.725700	0.055000
H2071	H207	0.457400	0.755300	0.021800
H2081	H208	0.430000	0.706700	0.056100
C2181	C218	0.372200	0.815600	0.075100
H2091	H209	0.328300	0.789500	0.071500
H2101	H210	0.382400	0.833900	0.045400
H2111	H211	0.358800	0.843600	0.098400
C2191	C219	0.420000	0.611900	0.192400
C2201	C220	0.453100	0.577500	0.163000
H2121	H212	0.479600	0.592700	0.136900
C2211	C221	0.381900	0.586500	0.230200
H2131	H213	0.358200	0.608500	0.253700
C2221	C222	0.377400	0.794500	0.261800
H2141	H214	0.371000	0.773100	0.289200
C2231	C223	0.349000	0.873900	0.310800
H2151	H215	0.400000	0.885200	0.325100
C2241	C224	0.304800	0.837900	0.345600
H2161	H216	0.336000	0.804400	0.353200
H2171	H217	0.254100	0.825900	0.332200
C2251	C225	0.290900	0.872600	0.389300
H2181	H218	0.261800	0.849900	0.412200
H2191	H219	0.342000	0.882800	0.403100
C2261	C226	0.245100	0.924700	0.379100
H2201	H220	0.238500	0.946400	0.408000
H2211	H221	0.192300	0.914600	0.367600
C2271	C227	0.286500	0.959900	0.343400
H2221	H222	0.336900	0.973300	0.356200
H2231	H223	0.253800	0.992700	0.336000
C2281	C228	0.301800	0.927100	0.299600
H2241	H224	0.249700	0.915100	0.287200
C2291	C229	0.357300	0.006500	0.260900
H2251	H225	0.344000	0.027000	0.287900
C2301	C230	0.391200	0.037200	0.223300
C2311	C231	0.401400	0.095400	0.229800
H2261	H226	0.390000	0.111200	0.259200
C2321	C232	0.427000	0.129200	0.194800
C2331	C233	0.442700	0.104400	0.151400
H2271	H227	0.461400	0.127200	0.126900
C2341	C234	0.431900	0.047700	0.143100
C2351	C235	0.409200	0.013500	0.180300
C2361	C236	0.444100	0.023600	0.094000
C2371	C237	0.367000	0.993500	0.077600
H2281	H228	0.322000	0.018300	0.082000
H2291	H229	0.359300	0.959500	0.095900
H2301	H230	0.371600	0.983800	0.044700
C2381	C238	0.461900	0.070200	0.057800
H2311	H231	0.425500	0.101300	0.062400
H2321	H232	0.455500	0.055300	0.026400
H2331	H233	0.515900	0.083400	0.061900
C2391	C239	0.513100	0.984000	0.093400
H2341	H234	0.512400	0.962500	0.064600
H2351	H235	0.509500	0.958700	0.120000
H2361	H236	0.562100	0.005300	0.095400
C2401	C240	0.431900	0.189900	0.201200
C2411	C241	0.397000	0.216400	0.238700
H2371	H237	0.374400	0.194700	0.262800
C2421	C242	0.394400	0.273600	0.241700
H2381	H238	0.368100	0.290300	0.267200
C2431	C243	0.463900	0.282200	0.173900
H2391	H239	0.488200	0.305100	0.151100
C2441	C244	0.467700	0.224800	0.168100
H2401	H240	0.494200	0.209300	0.142200
C2451	C245	0.379200	0.529000	0.232700
H2411	H241	0.349800	0.512800	0.257200
C2461	C246	0.451400	0.519700	0.168000
H2421	H242	0.477100	0.497000	0.145800
C2471	C247	0.328200	0.382100	0.128500
C2481	C248	0.294900	0.370100	0.081500
C2491	C249	0.342900	0.376200	0.042100
H2431	H243	0.396300	0.386700	0.045800
C2501	C250	0.313200	0.367000	0.998100
H2441	H244	0.346600	0.371200	0.971900
C2511	C251	0.233800	0.351700	0.991500
C2521	C252	0.185600	0.345600	0.031600
H2451	H245	0.132200	0.335000	0.028500
C2531	C253	0.217500	0.355500	0.075400
H2461	H246	0.184800	0.351900	0.101800
C2541	C254	0.201900	0.343900	0.944100
C2551	C255	0.250000	0.326400	0.909200
H2471	H247	0.302900	0.316900	0.916000
C2561	C256	0.222900	0.322200	0.863800
H2481	H248	0.257600	0.311600	0.839600
C2571	C257	0.145900	0.333500	0.854100
C2581	C258	0.094700	0.349100	0.888900
H2491	H249	0.041100	0.356400	0.882100
C2591	C259	0.122700	0.353700	0.933800
H2501	H250	0.087700	0.363700	0.958000
C2601	C260	0.120300	0.330700	0.804100
C2611	C261	0.616000	0.400400	0.195100
C2621	C262	0.643700	0.388900	0.146500
C2631	C263	0.722400	0.376200	0.139600
H2511	H251	0.757200	0.374000	0.165300
C2641	C264	0.750000	0.366700	0.095200
H2521	H252	0.804300	0.359800	0.090500
C2651	C265	0.700000	0.367000	0.057200
C2661	C266	0.620900	0.378000	0.064400
H2531	H253	0.585300	0.378100	0.039100
C2671	C267	0.593900	0.389100	0.109500
H2541	H254	0.539900	0.396900	0.114400
C2681	C268	0.733200	0.357000	0.009400
C2691	C269	0.807900	0.374200	0.998800
H2551	H255	0.837800	0.393700	0.021300
C2701	C270	0.840100	0.363500	0.955900
H2561	H256	0.892600	0.374500	0.949600
C2711	C271	0.797000	0.337100	0.922000
C2721	C272	0.720600	0.321000	0.932200
H2571	H257	0.688500	0.305500	0.908600
C2731	C273	0.691300	0.327600	0.976300
H2581	H258	0.641900	0.311800	0.984100
C2741	C274	0.081300	0.054700	0.703600
C2751	C275	0.076600	0.116700	0.706700
C2761	C276	0.119500	0.145400	0.739600
H2591	H259	0.149000	0.125600	0.762100
C2771	C277	0.119600	0.203800	0.739900
H2601	H260	0.149300	0.222400	0.763100
C2781	C278	0.038300	0.206800	0.678200
H2611	H261	0.008100	0.227900	0.656900
C2791	C279	0.035900	0.148800	0.674600
H2621	H262	0.006800	0.131500	0.650500
C2801	C280	0.149400	0.453500	0.734800
H2631	H263	0.188500	0.433600	0.751300
C2811	C281	0.152700	0.511500	0.734000
H2641	H264	0.194100	0.530100	0.749500
C2821	C282	0.097600	0.541500	0.711300
C2831	C283	0.037900	0.512400	0.690600
H2651	H265	0.996500	0.532000	0.675700
C2841	C284	0.037400	0.454000	0.691200
H2661	H266	0.996500	0.434600	0.675800
C2851	C285	0.104100	0.602700	0.707400
C2861	C286	0.138100	0.635200	0.740400
H2671	H267	0.159000	0.618400	0.767500
C2871	C287	0.142800	0.693800	0.734900
C2881	C288	0.114000	0.720300	0.695400
C2891	C289	0.078400	0.686400	0.659900
C2901	C290	0.073900	0.629400	0.667900
H2681	H268	0.048700	0.607000	0.645100
C2911	C291	0.042100	0.713500	0.616900
C2921	C292	0.101200	0.750500	0.590400
H2691	H269	0.116000	0.782200	0.609800
H2701	H270	0.076900	0.764000	0.561700
H2711	H271	0.148100	0.728700	0.582800
C2931	C293	0.972400	0.748300	0.632000
H2721	H272	0.931300	0.723900	0.644200
H2731	H273	0.952000	0.769000	0.605400
H2741	H274	0.989000	0.774400	0.656200
C2941	C294	0.012300	0.669300	0.582300
H2751	H275	0.050700	0.639100	0.580000
H2761	H276	0.005300	0.686400	0.551700
H2771	H277	0.962100	0.654400	0.593100
C2951	C295	0.180300	0.724700	0.773000
H2781	H278	0.203800	0.704100	0.797400
C2961	C296	0.222900	0.807400	0.814300
H2791	H279	0.273300	0.822500	0.801900
C2971	C297	0.242800	0.772900	0.856200
H2801	H280	0.280700	0.743600	0.847400
H2811	H281	0.194700	0.754600	0.868000
C2981	C298	0.278900	0.810500	0.894900
H2821	H282	0.284800	0.788300	0.923600
H2831	H283	0.331800	0.822700	0.885100
C2991	C299	0.229500	0.861100	0.905200
H2841	H284	0.257000	0.884900	0.928000
H2851	H285	0.179100	0.849300	0.919100
C3001	C300	0.213400	0.894800	0.860500
H2861	H286	0.181800	0.928200	0.867900
H2871	H287	0.263700	0.907200	0.846700
C3011	C301	0.169300	0.858300	0.826200
H2881	H288	0.120100	0.844500	0.841200
C3021	C302	0.133400	0.936000	0.779600
H2891	H289	0.137600	0.957000	0.807400
C3031	C303	0.109000	0.964600	0.737800
C3041	C304	0.102800	0.023200	0.741100
H2901	H290	0.113700	0.041000	0.769800
C3051	C305	0.068500	0.028800	0.661400
H2911	H291	0.054000	0.050900	0.635500
C3061	C306	0.075900	0.971500	0.655600
C3071	C307	0.094400	0.938900	0.693900
C3081	C308	0.068800	0.945100	0.606500
C3091	C309	0.145200	0.915700	0.594100
H2921	H292	0.189200	0.941400	0.598200
H2931	H293	0.143100	0.903400	0.561700
H2941	H294	0.152300	0.883400	0.614400
C3101	C310	0.050700	0.988100	0.567200
H2951	H295	0.006500	0.011700	0.576600
H2961	H296	0.037200	0.968300	0.538600
H2971	H297	0.097000	0.011400	0.561800
C3111	C311	0.001100	0.902500	0.604700
H2981	H298	0.013100	0.871100	0.625200
H2991	H299	0.994800	0.889000	0.572900
H3001	H300	0.952400	0.920400	0.614900
C3121	C312	0.831500	0.329900	0.873900
V91	V9	0.355450	0.899700	0.205710
V101	V10	0.168070	0.834830	0.723450
V111	V11	0.416000	0.903310	0.223220
V121	V12	0.092400	0.825420	0.735780
Cd71	Cd7	0.591460	0.401540	0.290980
Cd81	Cd8	0.909330	0.328930	0.790810
O391	O39	0.580700	0.845900	0.326700
O401	O40	0.594300	0.958800	0.327000
O411	O41	0.714100	0.379300	0.336530
O421	O42	0.599600	0.396600	0.370670
O431	O43	0.828800	0.325600	0.727140
O441	O44	0.455000	0.407100	0.296600
O451	O45	0.332300	0.401300	0.274100
O461	O46	0.884100	0.774600	0.810000
O471	O47	0.900500	0.884000	0.809000
O481	O48	0.094200	0.331800	0.628800
O491	O49	0.212100	0.324200	0.660000
O501	O50	0.952700	0.333800	0.704600
N251	N25	0.633700	0.847600	0.235400
N261	N26	0.656500	0.955100	0.238300
N271	N27	0.571900	0.306900	0.290600
N281	N28	0.586100	0.495700	0.296000
N291	N29	0.919700	0.234000	0.790500
N301	N30	0.906900	0.425200	0.786900
N311	N31	0.817300	0.777500	0.724900
N321	N32	0.850700	0.884700	0.718800
C3131	C313	0.582200	0.791000	0.322900
C3141	C314	0.566100	0.756700	0.361600
C3151	C315	0.564800	0.699500	0.355000
H3011	H301	0.552500	0.676600	0.380800
C3161	C316	0.580400	0.674000	0.312800
C3171	C317	0.599800	0.706800	0.275800
H3021	H302	0.612400	0.690100	0.246900
C3181	C318	0.601100	0.765600	0.280100
C3191	C319	0.551700	0.782500	0.408900
C3201	C320	0.480400	0.821500	0.408200
H3031	H303	0.487600	0.849600	0.384000
H3041	H304	0.475300	0.839800	0.438400
H3051	H305	0.432900	0.799900	0.401700
C3211	C321	0.534500	0.738400	0.447600
H3061	H306	0.480100	0.725700	0.445000
H3071	H307	0.542600	0.755300	0.478200
H3081	H308	0.570000	0.706700	0.443900
C3221	C322	0.627800	0.815600	0.424900
H3091	H309	0.671700	0.789500	0.428500
H3101	H310	0.617600	0.833900	0.454600
H3111	H311	0.641200	0.843600	0.401600
C3231	C323	0.580000	0.611900	0.307600
C3241	C324	0.546900	0.577500	0.337000
H3121	H312	0.520400	0.592700	0.363100
C3251	C325	0.618100	0.586500	0.269800
H3131	H313	0.641800	0.608500	0.246300
C3261	C326	0.622600	0.794500	0.238200
H3141	H314	0.629000	0.773100	0.210800
C3271	C327	0.651000	0.873900	0.189200
H3151	H315	0.600000	0.885200	0.174900
C3281	C328	0.695200	0.837900	0.154400
H3161	H316	0.664000	0.804400	0.146800
H3171	H317	0.745900	0.825900	0.167800
C3291	C329	0.709100	0.872600	0.110700
H3181	H318	0.738200	0.849900	0.087800
H3191	H319	0.658000	0.882800	0.096900
C3301	C330	0.754900	0.924700	0.120900
H3201	H320	0.761500	0.946400	0.092000
H3211	H321	0.807700	0.914600	0.132400
C3311	C331	0.713500	0.959900	0.156600
H3221	H322	0.663100	0.973300	0.143800
H3231	H323	0.746200	0.992700	0.164000
C3321	C332	0.698200	0.927100	0.200400
H3241	H324	0.750300	0.915100	0.212800
C3331	C333	0.642700	0.006500	0.239100
H3251	H325	0.656000	0.027000	0.212100
C3341	C334	0.608800	0.037200	0.276700
C3351	C335	0.598600	0.095400	0.270200
H3261	H326	0.610000	0.111200	0.240800
C3361	C336	0.573000	0.129200	0.305200
C3371	C337	0.557300	0.104400	0.348600
H3271	H327	0.538600	0.127200	0.373100
C3381	C338	0.568100	0.047700	0.356900
C3391	C339	0.590800	0.013500	0.319700
C3401	C340	0.555900	0.023600	0.406000
C3411	C341	0.633000	0.993500	0.422400
H3281	H328	0.678000	0.018300	0.418000
H3291	H329	0.640700	0.959500	0.404100
H3301	H330	0.628400	0.983800	0.455300
C3421	C342	0.538100	0.070200	0.442200
H3311	H331	0.574500	0.101300	0.437600
H3321	H332	0.544500	0.055300	0.473600
H3331	H333	0.484100	0.083400	0.438100
C3431	C343	0.486900	0.984000	0.406600
H3341	H334	0.487600	0.962500	0.435400
H3351	H335	0.490500	0.958700	0.380000
H3361	H336	0.437900	0.005300	0.404600
C3441	C344	0.568100	0.189900	0.298800
C3451	C345	0.603000	0.216400	0.261300
H3371	H337	0.625600	0.194700	0.237200
C3461	C346	0.605600	0.273600	0.258300
H3381	H338	0.631900	0.290300	0.232800
C3471	C347	0.536100	0.282200	0.326100
H3391	H339	0.511800	0.305100	0.348900
C3481	C348	0.532300	0.224800	0.331900
H3401	H340	0.505800	0.209300	0.357800
C3491	C349	0.620800	0.529000	0.267300
H3411	H341	0.650200	0.512800	0.242800
C3501	C350	0.548600	0.519700	0.332000
H3421	H342	0.522900	0.497000	0.354200
C3511	C351	0.671800	0.382100	0.371500
C3521	C352	0.705100	0.370100	0.418500
C3531	C353	0.657100	0.376200	0.457900
H3431	H343	0.603700	0.386700	0.454200
C3541	C354	0.686800	0.367000	0.501900
H3441	H344	0.653400	0.371200	0.528100
C3551	C355	0.766200	0.351700	0.508500
C3561	C356	0.814400	0.345600	0.468400
H3451	H345	0.867800	0.335000	0.471500
C3571	C357	0.782500	0.355500	0.424600
H3461	H346	0.815200	0.351900	0.398200
C3581	C358	0.798100	0.343900	0.555900
C3591	C359	0.750000	0.326400	0.590800
H3471	H347	0.697100	0.316900	0.584000
C3601	C360	0.777100	0.322200	0.636200
H3481	H348	0.742400	0.311600	0.660400
C3611	C361	0.854100	0.333500	0.645900
C3621	C362	0.905300	0.349100	0.611100
H3491	H349	0.958900	0.356400	0.617900
C3631	C363	0.877300	0.353700	0.566200
H3501	H350	0.912300	0.363700	0.542000
C3641	C364	0.879700	0.330700	0.695900
C3651	C365	0.384000	0.400400	0.304900
C3661	C366	0.356300	0.388900	0.353500
C3671	C367	0.277600	0.376200	0.360400
H3511	H351	0.242800	0.374000	0.334700
C3681	C368	0.250000	0.366700	0.404800
H3521	H352	0.195700	0.359800	0.409500
C3691	C369	0.300000	0.367000	0.442800
C3701	C370	0.379100	0.378000	0.435600
H3531	H353	0.414700	0.378100	0.460900
C3711	C371	0.406100	0.389100	0.390500
H3541	H354	0.460100	0.396900	0.385600
C3721	C372	0.266800	0.357000	0.490600
C3731	C373	0.192100	0.374200	0.501200
H3551	H355	0.162200	0.393700	0.478700
C3741	C374	0.159900	0.363500	0.544100
H3561	H356	0.107400	0.374500	0.550400
C3751	C375	0.203000	0.337100	0.578000
C3761	C376	0.279400	0.321000	0.567800
H3571	H357	0.311500	0.305500	0.591400
C3771	C377	0.308700	0.327600	0.523700
H3581	H358	0.358100	0.311800	0.515900
C3781	C378	0.918700	0.054700	0.796400
C3791	C379	0.923400	0.116700	0.793300
C3801	C380	0.880500	0.145400	0.760400
H3591	H359	0.851000	0.125600	0.737900
C3811	C381	0.880400	0.203800	0.760100
H3601	H360	0.850700	0.222400	0.736900
C3821	C382	0.961700	0.206800	0.821800
H3611	H361	0.991900	0.227900	0.843100
C3831	C383	0.964100	0.148800	0.825400
H3621	H362	0.993200	0.131500	0.849500
C3841	C384	0.850600	0.453500	0.765200
H3631	H363	0.811500	0.433600	0.748700
C3851	C385	0.847300	0.511500	0.766000
H3641	H364	0.805900	0.530100	0.750500
C3861	C386	0.902400	0.541500	0.788700
C3871	C387	0.962100	0.512400	0.809400
H3651	H365	0.003500	0.532000	0.824300
C3881	C388	0.962600	0.454000	0.808800
H3661	H366	0.003500	0.434600	0.824200
C3891	C389	0.895900	0.602700	0.792600
C3901	C390	0.861900	0.635200	0.759600
H3671	H367	0.841000	0.618400	0.732500
C3911	C391	0.857200	0.693800	0.765100
C3921	C392	0.886000	0.720300	0.804600
C3931	C393	0.921600	0.686400	0.840100
C3941	C394	0.926100	0.629400	0.832100
H3681	H368	0.951300	0.607000	0.854900
C3951	C395	0.957900	0.713500	0.883100
C3961	C396	0.898800	0.750500	0.909600
H3691	H369	0.884000	0.782200	0.890200
H3701	H370	0.923100	0.764000	0.938300
H3711	H371	0.851900	0.728700	0.917200
C3971	C397	0.027600	0.748300	0.868000
H3721	H372	0.068700	0.723900	0.855800
H3731	H373	0.048000	0.769000	0.894600
H3741	H374	0.011000	0.774400	0.843800
C3981	C398	0.987700	0.669300	0.917700
H3751	H375	0.949300	0.639100	0.920000
H3761	H376	0.994700	0.686400	0.948300
H3771	H377	0.037900	0.654400	0.906900
C3991	C399	0.819700	0.724700	0.727000
H3781	H378	0.796200	0.704100	0.702600
C4001	C400	0.777100	0.807400	0.685700
H3791	H379	0.726700	0.822500	0.698100
C4011	C401	0.757200	0.772900	0.643800
H3801	H380	0.719300	0.743600	0.652600
H3811	H381	0.805300	0.754600	0.632000
C4021	C402	0.721100	0.810500	0.605100
H3821	H382	0.715200	0.788300	0.576400
H3831	H383	0.668200	0.822700	0.614900
C4031	C403	0.770500	0.861100	0.594800
H3841	H384	0.743000	0.884900	0.572000
H3851	H385	0.820900	0.849300	0.580900
C4041	C404	0.786600	0.894800	0.639500
H3861	H386	0.818200	0.928200	0.632100
H3871	H387	0.736300	0.907200	0.653300
C4051	C405	0.830700	0.858300	0.673800
H3881	H388	0.879900	0.844500	0.658800
C4061	C406	0.866600	0.936000	0.720400
H3891	H389	0.862400	0.957000	0.692600
C4071	C407	0.891000	0.964600	0.762200
C4081	C408	0.897200	0.023200	0.758900
H3901	H390	0.886300	0.041000	0.730200
C4091	C409	0.931500	0.028800	0.838600
H3911	H391	0.946000	0.050900	0.864500
C4101	C410	0.924100	0.971500	0.844400
C4111	C411	0.905600	0.938900	0.806100
C4121	C412	0.931200	0.945100	0.893500
C4131	C413	0.854800	0.915700	0.905900
H3921	H392	0.810800	0.941400	0.901800
H3931	H393	0.856900	0.903400	0.938300
H3941	H394	0.847700	0.883400	0.885600
C4141	C414	0.949300	0.988100	0.932800
H3951	H395	0.993500	0.011700	0.923400
H3961	H396	0.962800	0.968300	0.961400
H3971	H397	0.903000	0.011400	0.938200
C4151	C415	0.998900	0.902500	0.895300
H3981	H398	0.986900	0.871100	0.874800
H3991	H399	0.005200	0.889000	0.927100
H4001	H400	0.047600	0.920400	0.885100
C4161	C416	0.168500	0.329900	0.626100
V131	V13	0.644550	0.899700	0.294290
V141	V14	0.831930	0.834830	0.776550
V151	V15	0.584000	0.903310	0.276780
V161	V16	0.907600	0.825420	0.764220
O511	O51	0.500000	0.911100	0.250000
O521	O52	0.000000	0.815200	0.750000
