data_PUMNIV_clean_PM
_symmetry_space_group_name_H-M	'P1'
_cell_length_a	9.251500
_cell_length_b	14.167000
_cell_length_c	16.589800
_cell_angle_alpha	90.000000
_cell_angle_beta	93.032000
_cell_angle_gamma	90.000000
_symmetry_Int_Tables_number 1

loop_
_symmetry_equiv_pos_as_xyz
'x,y,z'

loop_
_atom_site_label
_atom_site_type_symbol
_atom_site_fract_x
_atom_site_fract_y
_atom_site_fract_z
Cd11	Cd1	0.973160	0.843170	0.244170
Cd21	Cd2	0.526840	0.343170	0.255830
Cd31	Cd3	0.026840	0.156830	0.755830
Cd41	Cd4	0.473160	0.656830	0.744170
Hg11	Hg1	0.979970	0.795690	0.918170
Hg21	Hg2	0.520030	0.295690	0.581830
Hg31	Hg3	0.020030	0.204310	0.081830
Hg41	Hg4	0.479970	0.704310	0.418170
C11	C1	0.057000	0.704700	0.084600
C21	C2	0.141100	0.710800	0.392900
C31	C3	0.635300	0.751400	0.257500
C41	C4	0.866800	0.005600	0.102100
C51	C5	0.443000	0.204700	0.415400
C61	C6	0.358900	0.210800	0.107100
C71	C7	0.864700	0.251400	0.242500
C81	C8	0.633200	0.505600	0.397900
C91	C9	0.943000	0.295300	0.915400
C101	C10	0.858900	0.289200	0.607100
C111	C11	0.364700	0.248600	0.742500
C121	C12	0.133200	0.994400	0.897900
C131	C13	0.557000	0.795300	0.584600
C141	C14	0.641100	0.789200	0.892900
C151	C15	0.135300	0.748600	0.757500
C161	C16	0.366800	0.494400	0.602100
S11	S1	0.060340	0.647430	0.998060
S21	S2	0.235730	0.654890	0.465090
S31	S3	0.463440	0.721860	0.267520
S41	S4	0.818130	0.092070	0.039190
S51	S5	0.439660	0.147430	0.501940
S61	S6	0.264270	0.154890	0.034910
S71	S7	0.036560	0.221860	0.232480
S81	S8	0.681870	0.592070	0.460810
S91	S9	0.939660	0.352570	0.001940
S101	S10	0.764270	0.345110	0.534910
S111	S11	0.536560	0.278140	0.732480
S121	S12	0.181870	0.907930	0.960810
S131	S13	0.560340	0.852570	0.498060
S141	S14	0.735730	0.845110	0.965090
S151	S15	0.963440	0.778140	0.767520
S161	S16	0.318130	0.407930	0.539190
N11	N1	0.052900	0.743900	0.144500
N21	N2	0.072500	0.749900	0.344100
N31	N3	0.750900	0.772100	0.247100
N41	N4	0.896700	0.946400	0.144100
N51	N5	0.447100	0.243900	0.355500
N61	N6	0.427500	0.249900	0.155900
N71	N7	0.749100	0.272100	0.252900
N81	N8	0.603300	0.446400	0.355900
N91	N9	0.947100	0.256100	0.855500
N101	N10	0.927500	0.250100	0.655900
N111	N11	0.249100	0.227900	0.752900
N121	N12	0.103300	0.053600	0.855900
N131	N13	0.552900	0.756100	0.644500
N141	N14	0.572500	0.750100	0.844100
N151	N15	0.250900	0.727900	0.747100
N161	N16	0.396700	0.553600	0.644100
