data_PUPYAA_clean_PM
_symmetry_space_group_name_H-M	'P1'
_cell_length_a	8.849400
_cell_length_b	10.372800
_cell_length_c	16.947100
_cell_angle_alpha	90.000000
_cell_angle_beta	92.869000
_cell_angle_gamma	90.000000
_symmetry_Int_Tables_number 1

loop_
_symmetry_equiv_pos_as_xyz
'x,y,z'

loop_
_atom_site_label
_atom_site_type_symbol
_atom_site_fract_x
_atom_site_fract_y
_atom_site_fract_z
O11	O1	0.504800	0.182900	0.307800
O21	O2	0.962300	0.365500	0.168400
O31	O3	0.714900	0.342000	0.235500
O41	O4	0.963300	0.297400	0.503600
O51	O5	0.830800	0.502300	0.455900
O61	O6	0.729000	0.293200	0.089000
O71	O7	0.426100	0.194800	0.160900
O81	O8	0.760300	0.286100	0.397200
O91	O9	0.013200	0.397100	0.370700
O101	O10	0.323400	0.017000	0.245800
O111	O11	0.746700	0.521000	0.137000
O121	O12	0.245600	0.248400	0.263800
Fe11	Fe1	0.728500	0.182300	0.301500
Fe21	Fe2	0.070700	0.349200	0.268500
Fe31	Fe3	0.590800	0.151000	0.096100
P11	P1	0.377200	0.158400	0.244300
P21	P2	0.787400	0.380800	0.158600
P31	P3	0.891700	0.368800	0.431600
F11	F1	0.951300	0.183000	0.284400
F21	F2	0.705500	0.089400	0.197200
O131	O13	0.995200	0.682900	0.192200
O141	O14	0.537700	0.865500	0.331600
O151	O15	0.785100	0.842000	0.264500
O161	O16	0.536700	0.797400	0.996400
O171	O17	0.669200	0.002300	0.044100
O181	O18	0.771000	0.793200	0.411000
O191	O19	0.073900	0.694800	0.339100
O201	O20	0.739700	0.786100	0.102800
O211	O21	0.486800	0.897100	0.129300
O221	O22	0.176600	0.517000	0.254200
O231	O23	0.753300	0.021000	0.363000
O241	O24	0.254400	0.748400	0.236200
Fe41	Fe4	0.771500	0.682300	0.198500
Fe51	Fe5	0.429300	0.849200	0.231500
Fe61	Fe6	0.909200	0.651000	0.403900
P41	P4	0.122800	0.658400	0.255700
P51	P5	0.712600	0.880800	0.341400
P61	P6	0.608300	0.868800	0.068400
F31	F3	0.548700	0.683000	0.215600
F41	F4	0.794500	0.589400	0.302800
O251	O25	0.495200	0.817100	0.692200
O261	O26	0.037700	0.634500	0.831600
O271	O27	0.285100	0.658000	0.764500
O281	O28	0.036700	0.702600	0.496400
O291	O29	0.169200	0.497700	0.544100
O301	O30	0.271000	0.706800	0.911000
O311	O31	0.573900	0.805200	0.839100
O321	O32	0.239700	0.713900	0.602800
O331	O33	0.986800	0.602900	0.629300
O341	O34	0.676600	0.983000	0.754200
O351	O35	0.253300	0.479000	0.863000
O361	O36	0.754400	0.751600	0.736200
Fe71	Fe7	0.271500	0.817700	0.698500
Fe81	Fe8	0.929300	0.650800	0.731500
Fe91	Fe9	0.409200	0.849000	0.903900
P71	P7	0.622800	0.841600	0.755700
P81	P8	0.212600	0.619200	0.841400
P91	P9	0.108300	0.631200	0.568400
F51	F5	0.048700	0.817000	0.715600
F61	F6	0.294500	0.910600	0.802800
O371	O37	0.004800	0.317100	0.807800
O381	O38	0.462300	0.134500	0.668400
O391	O39	0.214900	0.158000	0.735500
O401	O40	0.463300	0.202600	0.003600
O411	O41	0.330800	0.997700	0.955900
O421	O42	0.229000	0.206800	0.589000
O431	O43	0.926100	0.305200	0.660900
O441	O44	0.260300	0.213900	0.897200
O451	O45	0.513200	0.102900	0.870700
O461	O46	0.823400	0.483000	0.745800
O471	O47	0.246700	0.979000	0.637000
O481	O48	0.745600	0.251600	0.763800
Fe101	Fe10	0.228500	0.317700	0.801500
Fe111	Fe11	0.570700	0.150800	0.768500
Fe121	Fe12	0.090800	0.349000	0.596100
P101	P10	0.877200	0.341600	0.744300
P111	P11	0.287400	0.119200	0.658600
P121	P12	0.391700	0.131200	0.931600
F71	F7	0.451300	0.317000	0.784400
F81	F8	0.205500	0.410600	0.697200
