data_PUQHIT_SL_PM
_symmetry_space_group_name_H-M	'P1'
_cell_length_a	9.840100
_cell_length_b	11.061700
_cell_length_c	13.530700
_cell_angle_alpha	66.181000
_cell_angle_beta	85.823000
_cell_angle_gamma	69.890000
_symmetry_Int_Tables_number 1

loop_
_symmetry_equiv_pos_as_xyz
'x,y,z'

loop_
_atom_site_label
_atom_site_type_symbol
_atom_site_fract_x
_atom_site_fract_y
_atom_site_fract_z
Zn11	Zn1	0.111340	0.472950	0.204200
Zn21	Zn2	0.168580	0.445900	0.982520
Zn31	Zn3	0.888660	0.527050	0.795800
Zn41	Zn4	0.831420	0.554100	0.017480
H51	H5	0.122800	0.906300	0.103900
H61	H6	0.327100	0.135600	0.871300
H71	H7	0.353400	0.750600	0.895200
H81	H8	0.418100	0.837200	0.732000
H91	H9	0.522600	0.919000	0.664100
H101	H10	0.204300	0.673100	0.767900
H111	H11	0.352300	0.701700	0.625900
H121	H12	0.602800	0.293600	0.781100
H131	H13	0.447200	0.276000	0.919200
H141	H14	0.559300	0.610300	0.536400
H151	H15	0.748600	0.346900	0.655400
H161	H16	0.711400	0.661400	0.408700
H171	H17	0.868900	0.671900	0.269400
H181	H18	0.080600	0.266700	0.419200
H191	H19	0.938900	0.247400	0.561300
H201	H20	0.877200	0.093700	0.896100
H211	H21	0.672900	0.864400	0.128700
H221	H22	0.646600	0.249400	0.104800
H231	H23	0.581900	0.162800	0.268000
H241	H24	0.477400	0.081000	0.335900
H251	H25	0.795700	0.326900	0.232100
H261	H26	0.647700	0.298300	0.374100
H271	H27	0.397200	0.706400	0.218900
H281	H28	0.552800	0.724000	0.080800
H291	H29	0.440700	0.389700	0.463600
H301	H30	0.251400	0.653100	0.344600
H311	H31	0.288600	0.338600	0.591300
H321	H32	0.131100	0.328100	0.730600
H331	H33	0.919400	0.733300	0.580800
H341	H34	0.061100	0.752600	0.438700
C351	C35	0.191000	0.681600	0.054600
C361	C36	0.229400	0.813700	0.004300
C371	C37	0.179700	0.917500	0.043200
C381	C38	0.215000	0.041000	0.991100
C391	C39	0.303500	0.052500	0.906300
C401	C40	0.358500	0.943500	0.871700
C411	C41	0.319000	0.824100	0.920000
C421	C42	0.497400	0.870200	0.738400
C431	C43	0.628700	0.742900	0.799400
C441	C44	0.155200	0.164300	0.025600
C451	C45	0.286300	0.594600	0.770800
C461	C46	0.374900	0.612900	0.685700
C471	C47	0.496200	0.501500	0.688000
C481	C48	0.521600	0.373600	0.776700
C491	C49	0.427700	0.363700	0.858700
C501	C50	0.591800	0.522500	0.597300
C511	C51	0.714700	0.433100	0.593200
C521	C52	0.809400	0.450500	0.500900
C531	C53	0.788400	0.578900	0.412300
C541	C54	0.882200	0.584400	0.329100
C551	C55	0.005100	0.349200	0.417200
C561	C56	0.920500	0.336000	0.501900
C571	C57	0.809000	0.318400	0.945400
C581	C58	0.770600	0.186300	0.995700
C591	C59	0.820300	0.082500	0.956800
C601	C60	0.785000	0.959000	0.008900
C611	C61	0.696500	0.947500	0.093700
C621	C62	0.641500	0.056500	0.128300
C631	C63	0.681000	0.175900	0.080000
C641	C64	0.502600	0.129800	0.261600
C651	C65	0.371300	0.257100	0.200600
C661	C66	0.844800	0.835700	0.974400
C671	C67	0.713700	0.405400	0.229200
C681	C68	0.625100	0.387100	0.314300
C691	C69	0.503800	0.498500	0.312000
C701	C70	0.478400	0.626400	0.223300
C711	C71	0.572300	0.636300	0.141300
C721	C72	0.408200	0.477500	0.402700
C731	C73	0.285300	0.566900	0.406800
C741	C74	0.190600	0.549500	0.499100
C751	C75	0.211600	0.421100	0.587700
C761	C76	0.117800	0.415600	0.670900
C771	C77	0.994900	0.650800	0.582800
C781	C78	0.079500	0.664000	0.498100
N791	N79	0.309600	0.473300	0.856200
N801	N80	0.990400	0.469100	0.331300
N811	N81	0.690400	0.526700	0.143800
N821	N82	0.009600	0.530900	0.668700
O831	O83	0.142100	0.654100	0.147500
O841	O84	0.211100	0.608200	0.001600
O851	O85	0.445300	0.968600	0.786800
O861	O86	0.654300	0.707200	0.896200
O871	O87	0.701500	0.682100	0.739000
O881	O88	0.159300	0.279300	0.956400
O891	O89	0.109300	0.143100	0.117500
O901	O90	0.025700	0.418800	0.110300
O911	O91	0.857900	0.345900	0.852500
O921	O92	0.788900	0.391800	0.998400
O931	O93	0.554700	0.031400	0.213200
O941	O94	0.345700	0.292800	0.103800
O951	O95	0.298500	0.317900	0.261000
O961	O96	0.840700	0.720700	0.043600
O971	O97	0.890700	0.856900	0.882500
O981	O98	0.974300	0.581200	0.889700
H991	H99	0.025700	0.319980	0.142930
H1001	H100	0.974300	0.680020	0.857070
