data_PURNIB_clean_PM
_symmetry_space_group_name_H-M	'P1'
_cell_length_a	24.580000
_cell_length_b	10.445400
_cell_length_c	22.477700
_cell_angle_alpha	90.000000
_cell_angle_beta	98.322000
_cell_angle_gamma	90.000000
_symmetry_Int_Tables_number 1

loop_
_symmetry_equiv_pos_as_xyz
'x,y,z'

loop_
_atom_site_label
_atom_site_type_symbol
_atom_site_fract_x
_atom_site_fract_y
_atom_site_fract_z
W11	W1	0.361120	0.686900	0.178950
W21	W2	0.544800	0.664860	0.108210
W31	W3	0.458180	0.437560	0.143100
W41	W4	0.448530	0.914310	0.146270
Co11	Co1	0.410400	0.440760	0.291760
Co21	Co2	0.406070	0.911840	0.280330
O11	O1	0.381700	0.820600	0.126200
O21	O2	0.346800	0.818400	0.233800
O31	O3	0.587600	0.782400	0.157400
O41	O4	0.416400	0.003900	0.206800
O51	O5	0.369900	0.570400	0.245300
O61	O6	0.595500	0.533900	0.135500
O71	O7	0.473400	0.351200	0.335100
O81	O8	0.484600	0.782600	0.108400
O91	O9	0.518000	0.589300	0.196100
O101	O10	0.437700	0.391200	0.218200
O111	O11	0.492100	0.532200	0.083400
O121	O12	0.518600	0.961300	0.185400
O131	O13	0.448100	0.769000	0.222400
O141	O14	0.405000	0.570900	0.140300
O151	O15	0.438300	0.028000	0.089300
O161	O16	0.563200	0.704100	0.039000
O171	O17	0.422600	0.326100	0.096500
Cu11	Cu1	0.435550	0.171840	0.029870
N11	N1	0.357800	0.139800	0.003600
C11	C1	0.325500	0.061500	0.033300
H11	H1	0.336200	0.022300	0.070300
N21	N2	0.274800	0.051300	0.998500
C21	C2	0.275600	0.123400	0.947400
H21	H2	0.246700	0.133300	0.916200
C31	C3	0.326900	0.178100	0.950500
H31	H3	0.338700	0.231500	0.921800
C41	C4	0.231100	0.977100	0.013600
C51	C5	0.177900	0.009800	0.988900
H41	H4	0.171300	0.081600	0.964500
C61	C6	0.239900	0.872200	0.052100
H51	H5	0.275500	0.852500	0.069800
N31	N3	0.015900	0.675900	0.042600
C71	C7	0.046700	0.780100	0.034600
H61	H6	0.033400	0.860800	0.022600
N41	N4	0.100300	0.746100	0.047000
C81	C8	0.102500	0.621000	0.062800
H71	H7	0.134400	0.573200	0.073600
C91	C9	0.050400	0.577600	0.060000
H81	H8	0.040000	0.494700	0.068600
C101	C10	0.144700	0.828100	0.038200
C111	C11	0.135500	0.934200	0.001100
H91	H9	0.099800	0.954400	0.984200
C121	C12	0.197900	0.799000	0.064000
H101	H10	0.204500	0.728900	0.089500
W51	W5	0.589600	0.440760	0.208240
W61	W6	0.593930	0.911840	0.219670
W71	W7	0.861120	0.186900	0.178950
W81	W8	0.044800	0.164860	0.108210
W91	W9	0.958180	0.937560	0.143100
W101	W10	0.948530	0.414310	0.146270
Co31	Co3	0.910400	0.940760	0.291760
Co41	Co4	0.906070	0.411840	0.280330
O181	O18	0.881700	0.320600	0.126200
O191	O19	0.846800	0.318400	0.233800
O201	O20	0.087600	0.282400	0.157400
O211	O21	0.916400	0.503900	0.206800
O221	O22	0.869900	0.070400	0.245300
O231	O23	0.095500	0.033900	0.135500
O241	O24	0.973400	0.851200	0.335100
O251	O25	0.984600	0.282600	0.108400
O261	O26	0.018000	0.089300	0.196100
O271	O27	0.937700	0.891200	0.218200
O281	O28	0.992100	0.032200	0.083400
O291	O29	0.018600	0.461300	0.185400
O301	O30	0.948100	0.269000	0.222400
O311	O31	0.905000	0.070900	0.140300
O321	O32	0.938300	0.528000	0.089300
O331	O33	0.063200	0.204100	0.039000
O341	O34	0.922600	0.826100	0.096500
Cu21	Cu2	0.935550	0.671840	0.029870
N51	N5	0.857800	0.639800	0.003600
C131	C13	0.825500	0.561500	0.033300
H111	H11	0.836200	0.522300	0.070300
N61	N6	0.774800	0.551300	0.998500
C141	C14	0.775600	0.623400	0.947400
H121	H12	0.746700	0.633300	0.916200
C151	C15	0.826900	0.678100	0.950500
H131	H13	0.838700	0.731500	0.921800
C161	C16	0.731100	0.477100	0.013600
C171	C17	0.677900	0.509800	0.988900
H141	H14	0.671300	0.581600	0.964500
C181	C18	0.739900	0.372200	0.052100
H151	H15	0.775500	0.352500	0.069800
N71	N7	0.515900	0.175900	0.042600
C191	C19	0.546700	0.280100	0.034600
H161	H16	0.533400	0.360800	0.022600
N81	N8	0.600300	0.246100	0.047000
C201	C20	0.602500	0.121000	0.062800
H171	H17	0.634400	0.073200	0.073600
C211	C21	0.550400	0.077600	0.060000
H181	H18	0.540000	0.994700	0.068600
C221	C22	0.644700	0.328100	0.038200
C231	C23	0.635500	0.434200	0.001100
H191	H19	0.599800	0.454400	0.984200
C241	C24	0.697900	0.299000	0.064000
H201	H20	0.704500	0.228900	0.089500
W111	W11	0.089600	0.940760	0.208240
W121	W12	0.093930	0.411840	0.219670
W131	W13	0.638880	0.686900	0.321050
W141	W14	0.455200	0.664860	0.391790
W151	W15	0.541820	0.437560	0.356900
W161	W16	0.551470	0.914310	0.353730
O351	O35	0.618300	0.820600	0.373800
O361	O36	0.653200	0.818400	0.266200
O371	O37	0.412400	0.782400	0.342600
O381	O38	0.583600	0.003900	0.293200
O391	O39	0.630100	0.570400	0.254700
O401	O40	0.404500	0.533900	0.364500
O411	O41	0.526600	0.351200	0.164900
O421	O42	0.515400	0.782600	0.391600
O431	O43	0.482000	0.589300	0.303900
O441	O44	0.562300	0.391200	0.281800
O451	O45	0.507900	0.532200	0.416600
O461	O46	0.481400	0.961300	0.314600
O471	O47	0.551900	0.769000	0.277600
O481	O48	0.595000	0.570900	0.359700
O491	O49	0.561700	0.028000	0.410700
O501	O50	0.436800	0.704100	0.461000
O511	O51	0.577400	0.326100	0.403500
Cu31	Cu3	0.564450	0.171840	0.470130
N91	N9	0.642200	0.139800	0.496400
C251	C25	0.674500	0.061500	0.466700
H211	H21	0.663800	0.022300	0.429700
N101	N10	0.725200	0.051300	0.501500
C261	C26	0.724400	0.123400	0.552600
H221	H22	0.753300	0.133300	0.583800
C271	C27	0.673100	0.178100	0.549500
H231	H23	0.661300	0.231500	0.578200
C281	C28	0.768900	0.977100	0.486400
C291	C29	0.822100	0.009800	0.511100
H241	H24	0.828700	0.081600	0.535500
C301	C30	0.760100	0.872200	0.447900
H251	H25	0.724500	0.852500	0.430200
N111	N11	0.984100	0.675900	0.457400
C311	C31	0.953300	0.780100	0.465400
H261	H26	0.966600	0.860800	0.477400
N121	N12	0.899700	0.746100	0.453000
C321	C32	0.897500	0.621000	0.437200
H271	H27	0.865600	0.573200	0.426400
C331	C33	0.949600	0.577600	0.440000
H281	H28	0.960000	0.494700	0.431400
C341	C34	0.855300	0.828100	0.461800
C351	C35	0.864500	0.934200	0.498900
H291	H29	0.900200	0.954400	0.515800
C361	C36	0.802100	0.799000	0.436000
H301	H30	0.795500	0.728900	0.410500
W171	W17	0.138880	0.186900	0.321050
W181	W18	0.955200	0.164860	0.391790
W191	W19	0.041820	0.937560	0.356900
W201	W20	0.051470	0.414310	0.353730
O521	O52	0.118300	0.320600	0.373800
O531	O53	0.153200	0.318400	0.266200
O541	O54	0.912400	0.282400	0.342600
O551	O55	0.083600	0.503900	0.293200
O561	O56	0.130100	0.070400	0.254700
O571	O57	0.904500	0.033900	0.364500
O581	O58	0.026600	0.851200	0.164900
O591	O59	0.015400	0.282600	0.391600
O601	O60	0.982000	0.089300	0.303900
O611	O61	0.062300	0.891200	0.281800
O621	O62	0.007900	0.032200	0.416600
O631	O63	0.981400	0.461300	0.314600
O641	O64	0.051900	0.269000	0.277600
O651	O65	0.095000	0.070900	0.359700
O661	O66	0.061700	0.528000	0.410700
O671	O67	0.936800	0.204100	0.461000
O681	O68	0.077400	0.826100	0.403500
Cu41	Cu4	0.064450	0.671840	0.470130
N131	N13	0.142200	0.639800	0.496400
C371	C37	0.174500	0.561500	0.466700
H311	H31	0.163800	0.522300	0.429700
N141	N14	0.225200	0.551300	0.501500
C381	C38	0.224400	0.623400	0.552600
H321	H32	0.253300	0.633300	0.583800
C391	C39	0.173100	0.678100	0.549500
H331	H33	0.161300	0.731500	0.578200
C401	C40	0.268900	0.477100	0.486400
C411	C41	0.322100	0.509800	0.511100
H341	H34	0.328700	0.581600	0.535500
C421	C42	0.260100	0.372200	0.447900
H351	H35	0.224500	0.352500	0.430200
N151	N15	0.484100	0.175900	0.457400
C431	C43	0.453300	0.280100	0.465400
H361	H36	0.466600	0.360800	0.477400
N161	N16	0.399700	0.246100	0.453000
C441	C44	0.397500	0.121000	0.437200
H371	H37	0.365600	0.073200	0.426400
C451	C45	0.449600	0.077600	0.440000
H381	H38	0.460000	0.994700	0.431400
C461	C46	0.355300	0.328100	0.461800
C471	C47	0.364500	0.434200	0.498900
H391	H39	0.400200	0.454400	0.515800
C481	C48	0.302100	0.299000	0.436000
H401	H40	0.295500	0.228900	0.410500
W211	W21	0.638880	0.313100	0.821050
W221	W22	0.455200	0.335140	0.891790
W231	W23	0.541820	0.562440	0.856900
W241	W24	0.551470	0.085690	0.853730
Co51	Co5	0.589600	0.559240	0.708240
Co61	Co6	0.593930	0.088160	0.719670
O691	O69	0.618300	0.179400	0.873800
O701	O70	0.653200	0.181600	0.766200
O711	O71	0.412400	0.217600	0.842600
O721	O72	0.583600	0.996100	0.793200
O731	O73	0.630100	0.429600	0.754700
O741	O74	0.404500	0.466100	0.864500
O751	O75	0.526600	0.648800	0.664900
O761	O76	0.515400	0.217400	0.891600
O771	O77	0.482000	0.410700	0.803900
O781	O78	0.562300	0.608800	0.781800
O791	O79	0.507900	0.467800	0.916600
O801	O80	0.481400	0.038700	0.814600
O811	O81	0.551900	0.231000	0.777600
O821	O82	0.595000	0.429100	0.859700
O831	O83	0.561700	0.972000	0.910700
O841	O84	0.436800	0.295900	0.961000
O851	O85	0.577400	0.673900	0.903500
Cu51	Cu5	0.564450	0.828160	0.970130
N171	N17	0.642200	0.860200	0.996400
C491	C49	0.674500	0.938500	0.966700
H411	H41	0.663800	0.977700	0.929700
N181	N18	0.725200	0.948700	0.001500
C501	C50	0.724400	0.876600	0.052600
H421	H42	0.753300	0.866700	0.083800
C511	C51	0.673100	0.821900	0.049500
H431	H43	0.661300	0.768500	0.078200
C521	C52	0.768900	0.022900	0.986400
C531	C53	0.822100	0.990200	0.011100
H441	H44	0.828700	0.918400	0.035500
C541	C54	0.760100	0.127800	0.947900
H451	H45	0.724500	0.147500	0.930200
N191	N19	0.984100	0.324100	0.957400
C551	C55	0.953300	0.219900	0.965400
H461	H46	0.966600	0.139200	0.977400
N201	N20	0.899700	0.253900	0.953000
C561	C56	0.897500	0.379000	0.937200
H471	H47	0.865600	0.426800	0.926400
C571	C57	0.949600	0.422400	0.940000
H481	H48	0.960000	0.505300	0.931400
C581	C58	0.855300	0.171900	0.961800
C591	C59	0.864500	0.065800	0.998900
H491	H49	0.900200	0.045600	0.015800
C601	C60	0.802100	0.201000	0.936000
H501	H50	0.795500	0.271100	0.910500
W251	W25	0.410400	0.559240	0.791760
W261	W26	0.406070	0.088160	0.780330
W271	W27	0.138880	0.813100	0.821050
W281	W28	0.955200	0.835140	0.891790
W291	W29	0.041820	0.062440	0.856900
W301	W30	0.051470	0.585690	0.853730
Co71	Co7	0.089600	0.059240	0.708240
Co81	Co8	0.093930	0.588160	0.719670
O861	O86	0.118300	0.679400	0.873800
O871	O87	0.153200	0.681600	0.766200
O881	O88	0.912400	0.717600	0.842600
O891	O89	0.083600	0.496100	0.793200
O901	O90	0.130100	0.929600	0.754700
O911	O91	0.904500	0.966100	0.864500
O921	O92	0.026600	0.148800	0.664900
O931	O93	0.015400	0.717400	0.891600
O941	O94	0.982000	0.910700	0.803900
O951	O95	0.062300	0.108800	0.781800
O961	O96	0.007900	0.967800	0.916600
O971	O97	0.981400	0.538700	0.814600
O981	O98	0.051900	0.731000	0.777600
O991	O99	0.095000	0.929100	0.859700
O1001	O100	0.061700	0.472000	0.910700
O1011	O101	0.936800	0.795900	0.961000
O1021	O102	0.077400	0.173900	0.903500
Cu61	Cu6	0.064450	0.328160	0.970130
N211	N21	0.142200	0.360200	0.996400
C611	C61	0.174500	0.438500	0.966700
H511	H51	0.163800	0.477700	0.929700
N221	N22	0.225200	0.448700	0.001500
C621	C62	0.224400	0.376600	0.052600
H521	H52	0.253300	0.366700	0.083800
C631	C63	0.173100	0.321900	0.049500
H531	H53	0.161300	0.268500	0.078200
C641	C64	0.268900	0.522900	0.986400
C651	C65	0.322100	0.490200	0.011100
H541	H54	0.328700	0.418400	0.035500
C661	C66	0.260100	0.627800	0.947900
H551	H55	0.224500	0.647500	0.930200
N231	N23	0.484100	0.824100	0.957400
C671	C67	0.453300	0.719900	0.965400
H561	H56	0.466600	0.639200	0.977400
N241	N24	0.399700	0.753900	0.953000
C681	C68	0.397500	0.879000	0.937200
H571	H57	0.365600	0.926800	0.926400
C691	C69	0.449600	0.922400	0.940000
H581	H58	0.460000	0.005300	0.931400
C701	C70	0.355300	0.671900	0.961800
C711	C71	0.364500	0.565800	0.998900
H591	H59	0.400200	0.545600	0.015800
C721	C72	0.302100	0.701000	0.936000
H601	H60	0.295500	0.771100	0.910500
W311	W31	0.910400	0.059240	0.791760
W321	W32	0.906070	0.588160	0.780330
W331	W33	0.361120	0.313100	0.678950
W341	W34	0.544800	0.335140	0.608210
W351	W35	0.458180	0.562440	0.643100
W361	W36	0.448530	0.085690	0.646270
O1031	O103	0.381700	0.179400	0.626200
O1041	O104	0.346800	0.181600	0.733800
O1051	O105	0.587600	0.217600	0.657400
O1061	O106	0.416400	0.996100	0.706800
O1071	O107	0.369900	0.429600	0.745300
O1081	O108	0.595500	0.466100	0.635500
O1091	O109	0.473400	0.648800	0.835100
O1101	O110	0.484600	0.217400	0.608400
O1111	O111	0.518000	0.410700	0.696100
O1121	O112	0.437700	0.608800	0.718200
O1131	O113	0.492100	0.467800	0.583400
O1141	O114	0.518600	0.038700	0.685400
O1151	O115	0.448100	0.231000	0.722400
O1161	O116	0.405000	0.429100	0.640300
O1171	O117	0.438300	0.972000	0.589300
O1181	O118	0.563200	0.295900	0.539000
O1191	O119	0.422600	0.673900	0.596500
Cu71	Cu7	0.435550	0.828160	0.529870
N251	N25	0.357800	0.860200	0.503600
C731	C73	0.325500	0.938500	0.533300
H611	H61	0.336200	0.977700	0.570300
N261	N26	0.274800	0.948700	0.498500
C741	C74	0.275600	0.876600	0.447400
H621	H62	0.246700	0.866700	0.416200
C751	C75	0.326900	0.821900	0.450500
H631	H63	0.338700	0.768500	0.421800
C761	C76	0.231100	0.022900	0.513600
C771	C77	0.177900	0.990200	0.488900
H641	H64	0.171300	0.918400	0.464500
C781	C78	0.239900	0.127800	0.552100
H651	H65	0.275500	0.147500	0.569800
N271	N27	0.015900	0.324100	0.542600
C791	C79	0.046700	0.219900	0.534600
H661	H66	0.033400	0.139200	0.522600
N281	N28	0.100300	0.253900	0.547000
C801	C80	0.102500	0.379000	0.562800
H671	H67	0.134400	0.426800	0.573600
C811	C81	0.050400	0.422400	0.560000
H681	H68	0.040000	0.505300	0.568600
C821	C82	0.144700	0.171900	0.538200
C831	C83	0.135500	0.065800	0.501100
H691	H69	0.099800	0.045600	0.484200
C841	C84	0.197900	0.201000	0.564000
H701	H70	0.204500	0.271100	0.589500
W371	W37	0.861120	0.813100	0.678950
W381	W38	0.044800	0.835140	0.608210
W391	W39	0.958180	0.062440	0.643100
W401	W40	0.948530	0.585690	0.646270
O1201	O120	0.881700	0.679400	0.626200
O1211	O121	0.846800	0.681600	0.733800
O1221	O122	0.087600	0.717600	0.657400
O1231	O123	0.916400	0.496100	0.706800
O1241	O124	0.869900	0.929600	0.745300
O1251	O125	0.095500	0.966100	0.635500
O1261	O126	0.973400	0.148800	0.835100
O1271	O127	0.984600	0.717400	0.608400
O1281	O128	0.018000	0.910700	0.696100
O1291	O129	0.937700	0.108800	0.718200
O1301	O130	0.992100	0.967800	0.583400
O1311	O131	0.018600	0.538700	0.685400
O1321	O132	0.948100	0.731000	0.722400
O1331	O133	0.905000	0.929100	0.640300
O1341	O134	0.938300	0.472000	0.589300
O1351	O135	0.063200	0.795900	0.539000
O1361	O136	0.922600	0.173900	0.596500
Cu81	Cu8	0.935550	0.328160	0.529870
N291	N29	0.857800	0.360200	0.503600
C851	C85	0.825500	0.438500	0.533300
H711	H71	0.836200	0.477700	0.570300
N301	N30	0.774800	0.448700	0.498500
C861	C86	0.775600	0.376600	0.447400
H721	H72	0.746700	0.366700	0.416200
C871	C87	0.826900	0.321900	0.450500
H731	H73	0.838700	0.268500	0.421800
C881	C88	0.731100	0.522900	0.513600
C891	C89	0.677900	0.490200	0.488900
H741	H74	0.671300	0.418400	0.464500
C901	C90	0.739900	0.627800	0.552100
H751	H75	0.775500	0.647500	0.569800
N311	N31	0.515900	0.824100	0.542600
C911	C91	0.546700	0.719900	0.534600
H761	H76	0.533400	0.639200	0.522600
N321	N32	0.600300	0.753900	0.547000
C921	C92	0.602500	0.879000	0.562800
H771	H77	0.634400	0.926800	0.573600
C931	C93	0.550400	0.922400	0.560000
H781	H78	0.540000	0.005300	0.568600
C941	C94	0.644700	0.671900	0.538200
C951	C95	0.635500	0.565800	0.501100
H791	H79	0.599800	0.545600	0.484200
C961	C96	0.697900	0.701000	0.564000
H801	H80	0.704500	0.771100	0.589500
Si11	Si1	0.500000	0.679100	0.250000
K11	K1	0.500000	0.176200	0.250000
Si21	Si2	0.000000	0.179100	0.250000
K21	K2	0.000000	0.676200	0.250000
Si31	Si3	0.500000	0.320900	0.750000
K31	K3	0.500000	0.823800	0.750000
Si41	Si4	0.000000	0.820900	0.750000
K41	K4	0.000000	0.323800	0.750000
