data_PUVJOG_clean_PM
_symmetry_space_group_name_H-M	'P1'
_cell_length_a	6.710700
_cell_length_b	18.743100
_cell_length_c	10.280900
_cell_angle_alpha	90.000000
_cell_angle_beta	90.000000
_cell_angle_gamma	90.000000
_symmetry_Int_Tables_number 1

loop_
_symmetry_equiv_pos_as_xyz
'x,y,z'

loop_
_atom_site_label
_atom_site_type_symbol
_atom_site_fract_x
_atom_site_fract_y
_atom_site_fract_z
O11	O1	0.156200	0.832500	0.158000
C11	C1	0.804000	0.963800	0.026000
O21	O2	0.656200	0.332500	0.658000
C21	C2	0.304000	0.463800	0.526000
O31	O3	0.843800	0.667500	0.158000
C31	C3	0.196000	0.536200	0.026000
O41	O4	0.343800	0.167500	0.658000
C41	C4	0.696000	0.036200	0.526000
O51	O5	0.843800	0.332500	0.842000
C51	C5	0.196000	0.463800	0.974000
O61	O6	0.343800	0.832500	0.342000
C61	C6	0.696000	0.963800	0.474000
O71	O7	0.156200	0.167500	0.842000
C71	C7	0.804000	0.036200	0.974000
O81	O8	0.656200	0.667500	0.342000
C81	C8	0.304000	0.536200	0.474000
O91	O9	0.843800	0.167500	0.842000
C91	C9	0.196000	0.036200	0.974000
O101	O10	0.343800	0.667500	0.342000
C101	C10	0.696000	0.536200	0.474000
O111	O11	0.156200	0.332500	0.842000
C111	C11	0.804000	0.463800	0.974000
O121	O12	0.656200	0.832500	0.342000
C121	C12	0.304000	0.963800	0.474000
O131	O13	0.156200	0.667500	0.158000
C131	C13	0.804000	0.536200	0.026000
O141	O14	0.656200	0.167500	0.658000
C141	C14	0.304000	0.036200	0.526000
O151	O15	0.843800	0.832500	0.158000
C151	C15	0.196000	0.963800	0.026000
O161	O16	0.343800	0.332500	0.658000
C161	C16	0.696000	0.463800	0.526000
V11	V1	0.250000	0.750000	0.250000
V21	V2	0.750000	0.750000	0.250000
V31	V3	0.750000	0.250000	0.750000
V41	V4	0.250000	0.250000	0.750000
O171	O17	0.000000	0.750000	0.306970
O181	O18	0.500000	0.250000	0.806970
O191	O19	0.000000	0.250000	0.693030
O201	O20	0.500000	0.750000	0.193030
C171	C17	0.000000	0.940000	0.043000
C181	C18	0.000000	0.870800	0.117000
C191	C19	0.500000	0.440000	0.543000
C201	C20	0.500000	0.370800	0.617000
C211	C21	0.000000	0.560000	0.043000
C221	C22	0.000000	0.629200	0.117000
C231	C23	0.500000	0.060000	0.543000
C241	C24	0.500000	0.129200	0.617000
C251	C25	0.000000	0.440000	0.957000
C261	C26	0.000000	0.370800	0.883000
C271	C27	0.500000	0.940000	0.457000
C281	C28	0.500000	0.870800	0.383000
C291	C29	0.000000	0.060000	0.957000
C301	C30	0.000000	0.129200	0.883000
C311	C31	0.500000	0.560000	0.457000
C321	C32	0.500000	0.629200	0.383000
