data_PUVREF_clean_PM
_symmetry_space_group_name_H-M	'P1'
_cell_length_a	7.374400
_cell_length_b	7.374400
_cell_length_c	45.758000
_cell_angle_alpha	90.000000
_cell_angle_beta	90.000000
_cell_angle_gamma	120.000000
_symmetry_Int_Tables_number 1

loop_
_symmetry_equiv_pos_as_xyz
'x,y,z'

loop_
_atom_site_label
_atom_site_type_symbol
_atom_site_fract_x
_atom_site_fract_y
_atom_site_fract_z
C11	C1	0.514900	0.900700	0.142770
N11	N1	0.627700	0.041100	0.128490
C21	C2	0.181570	0.234030	0.476100
N21	N2	0.294370	0.374430	0.461820
C31	C3	0.848230	0.567370	0.809440
N31	N3	0.961030	0.707770	0.795160
C41	C4	0.099300	0.614200	0.142770
N41	N4	0.958900	0.586600	0.128490
C51	C5	0.765970	0.947530	0.476100
N51	N5	0.625570	0.919930	0.461820
C61	C6	0.432630	0.280870	0.809440
N61	N6	0.292230	0.253270	0.795160
C71	C7	0.385800	0.485100	0.142770
N71	N7	0.413400	0.372300	0.128490
C81	C8	0.052470	0.818430	0.476100
N81	N8	0.080070	0.705630	0.461820
C91	C9	0.719130	0.151770	0.809440
N91	N9	0.746730	0.038970	0.795160
C101	C10	0.900700	0.514900	0.357230
N101	N10	0.041100	0.627700	0.371510
C111	C11	0.567370	0.848230	0.690560
N111	N11	0.707770	0.961030	0.704840
C121	C12	0.234030	0.181570	0.023900
N121	N12	0.374430	0.294370	0.038180
C131	C13	0.614200	0.099300	0.357230
N131	N13	0.586600	0.958900	0.371510
C141	C14	0.280870	0.432630	0.690560
N141	N14	0.253270	0.292230	0.704840
C151	C15	0.947530	0.765970	0.023900
N151	N15	0.919930	0.625570	0.038180
C161	C16	0.485100	0.385800	0.357230
N161	N16	0.372300	0.413400	0.371510
C171	C17	0.151770	0.719130	0.690560
N171	N17	0.038970	0.746730	0.704840
C181	C18	0.818430	0.052470	0.023900
N181	N18	0.705630	0.080070	0.038180
C191	C19	0.485100	0.099300	0.857230
N191	N19	0.372300	0.958900	0.871510
C201	C20	0.151770	0.432630	0.190560
N201	N20	0.038970	0.292230	0.204840
C211	C21	0.818430	0.765970	0.523900
N211	N21	0.705630	0.625570	0.538180
C221	C22	0.900700	0.385800	0.857230
N221	N22	0.041100	0.413400	0.871510
C231	C23	0.567370	0.719130	0.190560
N231	N23	0.707770	0.746730	0.204840
C241	C24	0.234030	0.052470	0.523900
N241	N24	0.374430	0.080070	0.538180
C251	C25	0.614200	0.514900	0.857230
N251	N25	0.586600	0.627700	0.871510
C261	C26	0.280870	0.848230	0.190560
N261	N26	0.253270	0.961030	0.204840
C271	C27	0.947530	0.181570	0.523900
N271	N27	0.919930	0.294370	0.538180
C281	C28	0.099300	0.485100	0.642770
N281	N28	0.958900	0.372300	0.628490
C291	C29	0.765970	0.818430	0.976100
N291	N29	0.625570	0.705630	0.961820
C301	C30	0.432630	0.151770	0.309440
N301	N30	0.292230	0.038970	0.295160
C311	C31	0.385800	0.900700	0.642770
N311	N31	0.413400	0.041100	0.628490
C321	C32	0.052470	0.234030	0.976100
N321	N32	0.080070	0.374430	0.961820
C331	C33	0.719130	0.567370	0.309440
N331	N33	0.746730	0.707770	0.295160
C341	C34	0.514900	0.614200	0.642770
N341	N34	0.627700	0.586600	0.628490
C351	C35	0.181570	0.947530	0.976100
N351	N35	0.294370	0.919930	0.961820
C361	C36	0.848230	0.280870	0.309440
N361	N36	0.961030	0.253270	0.295160
Fe11	Fe1	0.333330	0.666670	0.166670
Fe21	Fe2	0.000000	0.000000	0.500000
Fe31	Fe3	0.666670	0.333330	0.333330
Fe41	Fe4	0.333330	0.666670	0.666670
Fe51	Fe5	0.666670	0.333330	0.833330
Fe61	Fe6	0.000000	0.000000	0.000000
Ba11	Ba1	0.666670	0.333330	0.083330
Ba21	Ba2	0.000000	0.000000	0.750000
Ba31	Ba3	0.333330	0.666670	0.416670
Ba41	Ba4	0.333330	0.666670	0.916670
Ba51	Ba5	0.000000	0.000000	0.250000
Ba61	Ba6	0.666670	0.333330	0.583330
