data_PUWCOZ_clean_PM
_symmetry_space_group_name_H-M	'P1'
_cell_length_a	10.065600
_cell_length_b	11.162500
_cell_length_c	19.201100
_cell_angle_alpha	90.000000
_cell_angle_beta	90.000000
_cell_angle_gamma	90.000000
_symmetry_Int_Tables_number 1

loop_
_symmetry_equiv_pos_as_xyz
'x,y,z'

loop_
_atom_site_label
_atom_site_type_symbol
_atom_site_fract_x
_atom_site_fract_y
_atom_site_fract_z
Ni11	Ni1	0.963210	0.129710	0.521060
Ni21	Ni2	0.751620	0.015020	0.398200
Ni31	Ni3	0.536790	0.870290	0.021060
Ni41	Ni4	0.748380	0.984980	0.898200
Ni51	Ni5	0.036790	0.629710	0.978940
Ni61	Ni6	0.248380	0.515020	0.101800
Ni71	Ni7	0.463210	0.370290	0.478940
Ni81	Ni8	0.251620	0.484980	0.601800
H11	H1	0.663800	0.707300	0.527000
H21	H2	0.573400	0.776700	0.578500
H31	H3	0.791600	0.528600	0.568600
H41	H4	0.777200	0.484800	0.644800
H51	H5	0.974600	0.791700	0.600800
H61	H6	0.913600	0.715500	0.541300
H71	H7	0.674100	0.899100	0.674600
H81	H8	0.827200	0.901700	0.683800
H91	H9	0.628400	0.595400	0.727700
H101	H10	0.548900	0.705900	0.702100
H111	H11	0.948300	0.723400	0.725800
H121	H12	0.872400	0.605700	0.742000
H131	H13	0.750500	0.201700	0.484000
H141	H14	0.828600	0.215000	0.422900
H151	H15	0.836200	0.292700	0.027000
H161	H16	0.926600	0.223300	0.078500
H171	H17	0.708400	0.471400	0.068600
H181	H18	0.722800	0.515200	0.144800
H191	H19	0.525400	0.208300	0.100800
H201	H20	0.586400	0.284500	0.041300
H211	H21	0.825900	0.100900	0.174600
H221	H22	0.672800	0.098300	0.183800
H231	H23	0.871600	0.404600	0.227700
H241	H24	0.951100	0.294100	0.202100
H251	H25	0.551700	0.276600	0.225800
H261	H26	0.627600	0.394300	0.242000
H271	H27	0.749500	0.798300	0.984000
H281	H28	0.671400	0.785000	0.922900
H291	H29	0.336200	0.207300	0.973000
H301	H30	0.426600	0.276700	0.921500
H311	H31	0.208400	0.028600	0.931400
H321	H32	0.222800	0.984800	0.855200
H331	H33	0.025400	0.291700	0.899200
H341	H34	0.086400	0.215500	0.958700
H351	H35	0.325900	0.399100	0.825400
H361	H36	0.172800	0.401700	0.816200
H371	H37	0.371600	0.095400	0.772300
H381	H38	0.451100	0.205900	0.797900
H391	H39	0.051700	0.223400	0.774200
H401	H40	0.127600	0.105700	0.758000
H411	H41	0.249500	0.701700	0.016000
H421	H42	0.171400	0.715000	0.077100
H431	H43	0.163800	0.792700	0.473000
H441	H44	0.073400	0.723300	0.421500
H451	H45	0.291600	0.971400	0.431400
H461	H46	0.277200	0.015200	0.355200
H471	H47	0.474600	0.708300	0.399200
H481	H48	0.413600	0.784500	0.458700
H491	H49	0.174100	0.600900	0.325400
H501	H50	0.327200	0.598300	0.316200
H511	H51	0.128400	0.904600	0.272300
H521	H52	0.048900	0.794100	0.297900
H531	H53	0.448300	0.776600	0.274200
H541	H54	0.372400	0.894300	0.258000
H551	H55	0.250500	0.298300	0.516000
H561	H56	0.328600	0.285000	0.577100
C11	C1	0.786700	0.920600	0.543900
C21	C2	0.771100	0.813000	0.594000
C31	C3	0.653700	0.732700	0.573900
C41	C4	0.648400	0.621700	0.621900
C51	C5	0.780200	0.553200	0.615500
C61	C6	0.898000	0.631600	0.636800
C71	C7	0.902200	0.741700	0.588000
C81	C8	0.753500	0.853700	0.670500
C91	C9	0.745300	0.744700	0.718400
C101	C10	0.630100	0.663300	0.697900
C111	C11	0.876300	0.673600	0.712200
C121	C12	0.532400	0.543600	0.596700
C131	C13	0.031300	0.570100	0.627400
C141	C14	0.732100	0.787600	0.794300
C151	C15	0.713300	0.079400	0.043900
C161	C16	0.728900	0.187000	0.094000
C171	C17	0.846300	0.267300	0.073900
C181	C18	0.851600	0.378300	0.121900
C191	C19	0.719800	0.446800	0.115500
C201	C20	0.602000	0.368400	0.136800
C211	C21	0.597800	0.258300	0.088000
C221	C22	0.746500	0.146300	0.170500
C231	C23	0.754700	0.255300	0.218400
C241	C24	0.869900	0.336700	0.197900
C251	C25	0.623700	0.326400	0.212200
C261	C26	0.967600	0.456400	0.096700
C271	C27	0.468700	0.429900	0.127400
C281	C28	0.767900	0.212400	0.294300
C291	C29	0.213300	0.420600	0.956100
C301	C30	0.228900	0.313000	0.906000
C311	C31	0.346300	0.232700	0.926100
C321	C32	0.351600	0.121700	0.878100
C331	C33	0.219800	0.053200	0.884500
C341	C34	0.102000	0.131600	0.863200
C351	C35	0.097800	0.241700	0.912000
C361	C36	0.246500	0.353700	0.829500
C371	C37	0.254700	0.244700	0.781600
C381	C38	0.369900	0.163300	0.802100
C391	C39	0.123700	0.173600	0.787800
C401	C40	0.467600	0.043600	0.903300
C411	C41	0.968700	0.070100	0.872600
C421	C42	0.267900	0.287600	0.705700
C431	C43	0.286700	0.579400	0.456100
C441	C44	0.271100	0.687000	0.406000
C451	C45	0.153700	0.767300	0.426100
C461	C46	0.148400	0.878300	0.378100
C471	C47	0.280200	0.946800	0.384500
C481	C48	0.398000	0.868400	0.363200
C491	C49	0.402200	0.758300	0.412000
C501	C50	0.253500	0.646300	0.329500
C511	C51	0.245300	0.755300	0.281600
C521	C52	0.130100	0.836700	0.302100
C531	C53	0.376300	0.826400	0.287800
C541	C54	0.032400	0.956400	0.403300
C551	C55	0.531300	0.929900	0.372600
C561	C56	0.232100	0.712400	0.205700
O11	O1	0.835300	0.015600	0.569670
O21	O2	0.756800	0.903900	0.481580
O31	O3	0.430500	0.537900	0.632470
O41	O4	0.549800	0.494800	0.537910
O51	O5	0.042000	0.475800	0.591200
O61	O6	0.134700	0.617100	0.652790
O71	O7	0.687200	0.712400	0.839190
O81	O8	0.766900	0.889400	0.808630
O91	O9	0.806600	0.168800	0.452790
O101	O10	0.664700	0.984400	0.069670
O111	O11	0.743200	0.096100	0.981580
O121	O12	0.069500	0.462100	0.132470
O131	O13	0.950200	0.505200	0.037910
O141	O14	0.458000	0.524200	0.091200
O151	O15	0.365300	0.382900	0.152790
O161	O16	0.812800	0.287600	0.339190
O171	O17	0.733100	0.110600	0.308630
O181	O18	0.693400	0.831200	0.952790
O191	O19	0.164700	0.515600	0.930330
O201	O20	0.243200	0.403900	0.018420
O211	O21	0.569500	0.037900	0.867530
O221	O22	0.450200	0.994800	0.962090
O231	O23	0.958000	0.975800	0.908800
O241	O24	0.865300	0.117100	0.847210
O251	O25	0.312800	0.212400	0.660810
O261	O26	0.233100	0.389400	0.691370
O271	O27	0.193400	0.668800	0.047210
O281	O28	0.335300	0.484400	0.430330
O291	O29	0.256800	0.596100	0.518420
O301	O30	0.930500	0.962100	0.367530
O311	O31	0.049800	0.005200	0.462090
O321	O32	0.542000	0.024200	0.408800
O331	O33	0.634700	0.882900	0.347210
O341	O34	0.187200	0.787600	0.160810
O351	O35	0.266900	0.610600	0.191370
O361	O36	0.306600	0.331200	0.547210
