data_PUWDIU_clean_PM
_symmetry_space_group_name_H-M	'P1'
_cell_length_a	20.657100
_cell_length_b	20.657100
_cell_length_c	17.840000
_cell_angle_alpha	90.000000
_cell_angle_beta	90.000000
_cell_angle_gamma	90.000000
_symmetry_Int_Tables_number 1

loop_
_symmetry_equiv_pos_as_xyz
'x,y,z'

loop_
_atom_site_label
_atom_site_type_symbol
_atom_site_fract_x
_atom_site_fract_y
_atom_site_fract_z
Zn11	Zn1	0.245250	0.377450	0.000000
O11	O1	0.260400	0.336400	0.160700
O21	O2	0.311300	0.323800	0.051400
O31	O3	0.559000	0.167100	0.136900
O41	O4	0.539300	0.246300	0.052900
O51	O5	0.447800	0.189000	0.383600
O61	O6	0.371300	0.264800	0.393500
C11	C1	0.362500	0.283600	0.158600
C21	C2	0.416200	0.264600	0.118900
C31	C3	0.466800	0.232300	0.153600
C41	C4	0.463600	0.218800	0.230700
C51	C5	0.410500	0.240200	0.271700
C61	C6	0.360200	0.272300	0.237600
C71	C7	0.306100	0.316400	0.121600
C81	C8	0.527100	0.211800	0.112300
C91	C9	0.411100	0.228500	0.356000
H11	H1	0.418400	0.274400	0.066800
H21	H2	0.496500	0.193300	0.254500
H31	H3	0.323900	0.287000	0.266100
Zn21	Zn2	0.745250	0.877450	0.500000
O71	O7	0.760400	0.836400	0.660700
O81	O8	0.811300	0.823800	0.551400
O91	O9	0.059000	0.667100	0.636900
O101	O10	0.039300	0.746300	0.552900
O111	O11	0.947800	0.689000	0.883600
O121	O12	0.871300	0.764800	0.893500
C101	C10	0.862500	0.783600	0.658600
C111	C11	0.916200	0.764600	0.618900
C121	C12	0.966800	0.732300	0.653600
C131	C13	0.963600	0.718800	0.730700
C141	C14	0.910500	0.740200	0.771700
C151	C15	0.860200	0.772300	0.737600
C161	C16	0.806100	0.816400	0.621600
C171	C17	0.027100	0.711800	0.612300
C181	C18	0.911100	0.728500	0.856000
H41	H4	0.918400	0.774400	0.566800
H51	H5	0.996500	0.693300	0.754500
H61	H6	0.823900	0.787000	0.766100
Zn31	Zn3	0.754750	0.622550	0.000000
O131	O13	0.739600	0.663600	0.160700
O141	O14	0.688700	0.676200	0.051400
O151	O15	0.441000	0.832900	0.136900
O161	O16	0.460700	0.753700	0.052900
O171	O17	0.552200	0.811000	0.383600
O181	O18	0.628700	0.735200	0.393500
C191	C19	0.637500	0.716400	0.158600
C201	C20	0.583800	0.735400	0.118900
C211	C21	0.533200	0.767700	0.153600
C221	C22	0.536400	0.781200	0.230700
C231	C23	0.589500	0.759800	0.271700
C241	C24	0.639800	0.727700	0.237600
C251	C25	0.693900	0.683600	0.121600
C261	C26	0.472900	0.788200	0.112300
C271	C27	0.588900	0.771500	0.356000
H71	H7	0.581600	0.725600	0.066800
H81	H8	0.503500	0.806700	0.254500
H91	H9	0.676100	0.713000	0.266100
Zn41	Zn4	0.254750	0.122550	0.500000
O191	O19	0.239600	0.163600	0.660700
O201	O20	0.188700	0.176200	0.551400
O211	O21	0.941000	0.332900	0.636900
O221	O22	0.960700	0.253700	0.552900
O231	O23	0.052200	0.311000	0.883600
O241	O24	0.128700	0.235200	0.893500
C281	C28	0.137500	0.216400	0.658600
C291	C29	0.083800	0.235400	0.618900
C301	C30	0.033200	0.267700	0.653600
C311	C31	0.036400	0.281200	0.730700
C321	C32	0.089500	0.259800	0.771700
C331	C33	0.139800	0.227700	0.737600
C341	C34	0.193900	0.183600	0.621600
C351	C35	0.972900	0.288200	0.612300
C361	C36	0.088900	0.271500	0.856000
H101	H10	0.081600	0.225600	0.566800
H111	H11	0.003500	0.306700	0.754500
H121	H12	0.176100	0.213000	0.766100
Zn51	Zn5	0.622550	0.245250	0.000000
O251	O25	0.663600	0.260400	0.160700
O261	O26	0.676200	0.311300	0.051400
O271	O27	0.832900	0.559000	0.136900
O281	O28	0.753700	0.539300	0.052900
O291	O29	0.811000	0.447800	0.383600
O301	O30	0.735200	0.371300	0.393500
C371	C37	0.716400	0.362500	0.158600
C381	C38	0.735400	0.416200	0.118900
C391	C39	0.767700	0.466800	0.153600
C401	C40	0.781200	0.463600	0.230700
C411	C41	0.759800	0.410500	0.271700
C421	C42	0.727700	0.360200	0.237600
C431	C43	0.683600	0.306100	0.121600
C441	C44	0.788200	0.527100	0.112300
C451	C45	0.771500	0.411100	0.356000
H131	H13	0.725600	0.418400	0.066800
H141	H14	0.806700	0.496500	0.254500
H151	H15	0.713000	0.323900	0.266100
Zn61	Zn6	0.122550	0.745250	0.500000
O311	O31	0.163600	0.760400	0.660700
O321	O32	0.176200	0.811300	0.551400
O331	O33	0.332900	0.059000	0.636900
O341	O34	0.253700	0.039300	0.552900
O351	O35	0.311000	0.947800	0.883600
O361	O36	0.235200	0.871300	0.893500
C461	C46	0.216400	0.862500	0.658600
C471	C47	0.235400	0.916200	0.618900
C481	C48	0.267700	0.966800	0.653600
C491	C49	0.281200	0.963600	0.730700
C501	C50	0.259800	0.910500	0.771700
C511	C51	0.227700	0.860200	0.737600
C521	C52	0.183600	0.806100	0.621600
C531	C53	0.288200	0.027100	0.612300
C541	C54	0.271500	0.911100	0.856000
H161	H16	0.225600	0.918400	0.566800
H171	H17	0.306700	0.996500	0.754500
H181	H18	0.213000	0.823900	0.766100
Zn71	Zn7	0.377450	0.754750	0.000000
O371	O37	0.336400	0.739600	0.160700
O381	O38	0.323800	0.688700	0.051400
O391	O39	0.167100	0.441000	0.136900
O401	O40	0.246300	0.460700	0.052900
O411	O41	0.189000	0.552200	0.383600
O421	O42	0.264800	0.628700	0.393500
C551	C55	0.283600	0.637500	0.158600
C561	C56	0.264600	0.583800	0.118900
C571	C57	0.232300	0.533200	0.153600
C581	C58	0.218800	0.536400	0.230700
C591	C59	0.240200	0.589500	0.271700
C601	C60	0.272300	0.639800	0.237600
C611	C61	0.316400	0.693900	0.121600
C621	C62	0.211800	0.472900	0.112300
C631	C63	0.228500	0.588900	0.356000
H191	H19	0.274400	0.581600	0.066800
H201	H20	0.193300	0.503500	0.254500
H211	H21	0.287000	0.676100	0.266100
Zn81	Zn8	0.877450	0.254750	0.500000
O431	O43	0.836400	0.239600	0.660700
O441	O44	0.823800	0.188700	0.551400
O451	O45	0.667100	0.941000	0.636900
O461	O46	0.746300	0.960700	0.552900
O471	O47	0.689000	0.052200	0.883600
O481	O48	0.764800	0.128700	0.893500
C641	C64	0.783600	0.137500	0.658600
C651	C65	0.764600	0.083800	0.618900
C661	C66	0.732300	0.033200	0.653600
C671	C67	0.718800	0.036400	0.730700
C681	C68	0.740200	0.089500	0.771700
C691	C69	0.772300	0.139800	0.737600
C701	C70	0.816400	0.193900	0.621600
C711	C71	0.711800	0.972900	0.612300
C721	C72	0.728500	0.088900	0.856000
H221	H22	0.774400	0.081600	0.566800
H231	H23	0.693300	0.003500	0.754500
H241	H24	0.787000	0.176100	0.766100
Zn91	Zn9	0.245250	0.622550	0.500000
O491	O49	0.260400	0.663600	0.660700
O501	O50	0.311300	0.676200	0.551400
O511	O51	0.559000	0.832900	0.636900
O521	O52	0.539300	0.753700	0.552900
O531	O53	0.447800	0.811000	0.883600
O541	O54	0.371300	0.735200	0.893500
C731	C73	0.362500	0.716400	0.658600
C741	C74	0.416200	0.735400	0.618900
C751	C75	0.466800	0.767700	0.653600
C761	C76	0.463600	0.781200	0.730700
C771	C77	0.410500	0.759800	0.771700
C781	C78	0.360200	0.727700	0.737600
C791	C79	0.306100	0.683600	0.621600
C801	C80	0.527100	0.788200	0.612300
C811	C81	0.411100	0.771500	0.856000
H251	H25	0.418400	0.725600	0.566800
H261	H26	0.496500	0.806700	0.754500
H271	H27	0.323900	0.713000	0.766100
Zn101	Zn10	0.745250	0.122550	0.000000
O551	O55	0.760400	0.163600	0.160700
O561	O56	0.811300	0.176200	0.051400
O571	O57	0.059000	0.332900	0.136900
O581	O58	0.039300	0.253700	0.052900
O591	O59	0.947800	0.311000	0.383600
O601	O60	0.871300	0.235200	0.393500
C821	C82	0.862500	0.216400	0.158600
C831	C83	0.916200	0.235400	0.118900
C841	C84	0.966800	0.267700	0.153600
C851	C85	0.963600	0.281200	0.230700
C861	C86	0.910500	0.259800	0.271700
C871	C87	0.860200	0.227700	0.237600
C881	C88	0.806100	0.183600	0.121600
C891	C89	0.027100	0.288200	0.112300
C901	C90	0.911100	0.271500	0.356000
H281	H28	0.918400	0.225600	0.066800
H291	H29	0.996500	0.306700	0.254500
H301	H30	0.823900	0.213000	0.266100
Zn111	Zn11	0.754750	0.377450	0.500000
O611	O61	0.739600	0.336400	0.660700
O621	O62	0.688700	0.323800	0.551400
O631	O63	0.441000	0.167100	0.636900
O641	O64	0.460700	0.246300	0.552900
O651	O65	0.552200	0.189000	0.883600
O661	O66	0.628700	0.264800	0.893500
C911	C91	0.637500	0.283600	0.658600
C921	C92	0.583800	0.264600	0.618900
C931	C93	0.533200	0.232300	0.653600
C941	C94	0.536400	0.218800	0.730700
C951	C95	0.589500	0.240200	0.771700
C961	C96	0.639800	0.272300	0.737600
C971	C97	0.693900	0.316400	0.621600
C981	C98	0.472900	0.211800	0.612300
C991	C99	0.588900	0.228500	0.856000
H311	H31	0.581600	0.274400	0.566800
H321	H32	0.503500	0.193300	0.754500
H331	H33	0.676100	0.287000	0.766100
Zn121	Zn12	0.254750	0.877450	0.000000
O671	O67	0.239600	0.836400	0.160700
O681	O68	0.188700	0.823800	0.051400
O691	O69	0.941000	0.667100	0.136900
O701	O70	0.960700	0.746300	0.052900
O711	O71	0.052200	0.689000	0.383600
O721	O72	0.128700	0.764800	0.393500
C1001	C100	0.137500	0.783600	0.158600
C1011	C101	0.083800	0.764600	0.118900
C1021	C102	0.033200	0.732300	0.153600
C1031	C103	0.036400	0.718800	0.230700
C1041	C104	0.089500	0.740200	0.271700
C1051	C105	0.139800	0.772300	0.237600
C1061	C106	0.193900	0.816400	0.121600
C1071	C107	0.972900	0.711800	0.112300
C1081	C108	0.088900	0.728500	0.356000
H341	H34	0.081600	0.774400	0.066800
H351	H35	0.003500	0.693300	0.254500
H361	H36	0.176100	0.787000	0.266100
Zn131	Zn13	0.622550	0.754750	0.500000
O731	O73	0.663600	0.739600	0.660700
O741	O74	0.676200	0.688700	0.551400
O751	O75	0.832900	0.441000	0.636900
O761	O76	0.753700	0.460700	0.552900
O771	O77	0.811000	0.552200	0.883600
O781	O78	0.735200	0.628700	0.893500
C1091	C109	0.716400	0.637500	0.658600
C1101	C110	0.735400	0.583800	0.618900
C1111	C111	0.767700	0.533200	0.653600
C1121	C112	0.781200	0.536400	0.730700
C1131	C113	0.759800	0.589500	0.771700
C1141	C114	0.727700	0.639800	0.737600
C1151	C115	0.683600	0.693900	0.621600
C1161	C116	0.788200	0.472900	0.612300
C1171	C117	0.771500	0.588900	0.856000
H371	H37	0.725600	0.581600	0.566800
H381	H38	0.806700	0.503500	0.754500
H391	H39	0.713000	0.676100	0.766100
Zn141	Zn14	0.122550	0.254750	0.000000
O791	O79	0.163600	0.239600	0.160700
O801	O80	0.176200	0.188700	0.051400
O811	O81	0.332900	0.941000	0.136900
O821	O82	0.253700	0.960700	0.052900
O831	O83	0.311000	0.052200	0.383600
O841	O84	0.235200	0.128700	0.393500
C1181	C118	0.216400	0.137500	0.158600
C1191	C119	0.235400	0.083800	0.118900
C1201	C120	0.267700	0.033200	0.153600
C1211	C121	0.281200	0.036400	0.230700
C1221	C122	0.259800	0.089500	0.271700
C1231	C123	0.227700	0.139800	0.237600
C1241	C124	0.183600	0.193900	0.121600
C1251	C125	0.288200	0.972900	0.112300
C1261	C126	0.271500	0.088900	0.356000
H401	H40	0.225600	0.081600	0.066800
H411	H41	0.306700	0.003500	0.254500
H421	H42	0.213000	0.176100	0.266100
Zn151	Zn15	0.377450	0.245250	0.500000
O851	O85	0.336400	0.260400	0.660700
O861	O86	0.323800	0.311300	0.551400
O871	O87	0.167100	0.559000	0.636900
O881	O88	0.246300	0.539300	0.552900
O891	O89	0.189000	0.447800	0.883600
O901	O90	0.264800	0.371300	0.893500
C1271	C127	0.283600	0.362500	0.658600
C1281	C128	0.264600	0.416200	0.618900
C1291	C129	0.232300	0.466800	0.653600
C1301	C130	0.218800	0.463600	0.730700
C1311	C131	0.240200	0.410500	0.771700
C1321	C132	0.272300	0.360200	0.737600
C1331	C133	0.316400	0.306100	0.621600
C1341	C134	0.211800	0.527100	0.612300
C1351	C135	0.228500	0.411100	0.856000
H431	H43	0.274400	0.418400	0.566800
H441	H44	0.193300	0.496500	0.754500
H451	H45	0.287000	0.323900	0.766100
Zn161	Zn16	0.877450	0.745250	0.000000
O911	O91	0.836400	0.760400	0.160700
O921	O92	0.823800	0.811300	0.051400
O931	O93	0.667100	0.059000	0.136900
O941	O94	0.746300	0.039300	0.052900
O951	O95	0.689000	0.947800	0.383600
O961	O96	0.764800	0.871300	0.393500
C1361	C136	0.783600	0.862500	0.158600
C1371	C137	0.764600	0.916200	0.118900
C1381	C138	0.732300	0.966800	0.153600
C1391	C139	0.718800	0.963600	0.230700
C1401	C140	0.740200	0.910500	0.271700
C1411	C141	0.772300	0.860200	0.237600
C1421	C142	0.816400	0.806100	0.121600
C1431	C143	0.711800	0.027100	0.112300
C1441	C144	0.728500	0.911100	0.356000
H461	H46	0.774400	0.918400	0.066800
H471	H47	0.693300	0.996500	0.254500
H481	H48	0.787000	0.823900	0.266100
Zn171	Zn17	0.159710	0.340290	0.145060
O971	O97	0.162300	0.337700	0.027000
Zn181	Zn18	0.840290	0.659710	0.145060
O981	O98	0.837700	0.662300	0.027000
Zn191	Zn19	0.340290	0.159710	0.645060
O991	O99	0.337700	0.162300	0.527000
Zn201	Zn20	0.659710	0.159710	0.145060
O1001	O100	0.662300	0.162300	0.027000
Zn211	Zn21	0.340290	0.840290	0.145060
O1011	O101	0.337700	0.837700	0.027000
Zn221	Zn22	0.159710	0.659710	0.645060
O1021	O102	0.162300	0.662300	0.527000
Zn231	Zn23	0.840290	0.340290	0.645060
O1031	O103	0.837700	0.337700	0.527000
Zn241	Zn24	0.659710	0.840290	0.645060
O1041	O104	0.662300	0.837700	0.527000
