data_PUWVAG_clean_PM
_symmetry_space_group_name_H-M	'P1'
_cell_length_a	15.673000
_cell_length_b	13.787000
_cell_length_c	18.331000
_cell_angle_alpha	90.000000
_cell_angle_beta	90.000000
_cell_angle_gamma	90.000000
_symmetry_Int_Tables_number 1

loop_
_symmetry_equiv_pos_as_xyz
'x,y,z'

loop_
_atom_site_label
_atom_site_type_symbol
_atom_site_fract_x
_atom_site_fract_y
_atom_site_fract_z
N11	N1	0.370850	0.508500	0.512630
N21	N2	0.363790	0.626610	0.592510
N31	N3	0.314230	0.507160	0.252760
N41	N4	0.275420	0.622540	0.177230
C11	C1	0.349180	0.303700	0.382440
C21	C2	0.361180	0.355900	0.447230
H11	H1	0.371700	0.322600	0.491700
C31	C3	0.357600	0.456100	0.446190
C41	C4	0.343100	0.508000	0.382680
H21	H2	0.342100	0.576900	0.382800
C51	C5	0.330100	0.455800	0.319000
C61	C6	0.333170	0.355800	0.318210
H31	H3	0.324300	0.321900	0.273700
C71	C7	0.334700	0.594400	0.529980
H41	H4	0.293700	0.627100	0.500800
C81	C8	0.420400	0.558600	0.617240
H51	H5	0.451500	0.562400	0.661600
C91	C9	0.425200	0.485300	0.568750
H61	H6	0.459400	0.428600	0.572600
C101	C10	0.278700	0.595700	0.246080
H71	H7	0.258600	0.633600	0.285800
C111	C11	0.310000	0.547500	0.137520
H81	H8	0.316200	0.546400	0.086000
C121	C12	0.333400	0.476100	0.183210
H91	H9	0.358400	0.415800	0.170100
N51	N5	0.870850	0.991500	0.987370
N61	N6	0.863790	0.873390	0.907490
N71	N7	0.814230	0.992840	0.247240
N81	N8	0.775420	0.877460	0.322770
C131	C13	0.849180	0.196300	0.117560
C141	C14	0.861180	0.144100	0.052770
H101	H10	0.871700	0.177400	0.008300
C151	C15	0.857600	0.043900	0.053810
C161	C16	0.843100	0.992000	0.117320
H111	H11	0.842100	0.923100	0.117200
C171	C17	0.830100	0.044200	0.181000
C181	C18	0.833170	0.144200	0.181790
H121	H12	0.824300	0.178100	0.226300
C191	C19	0.834700	0.905600	0.970020
H131	H13	0.793700	0.872900	0.999200
C201	C20	0.920400	0.941400	0.882760
H141	H14	0.951500	0.937600	0.838400
C211	C21	0.925200	0.014700	0.931250
H151	H15	0.959400	0.071400	0.927400
C221	C22	0.778700	0.904300	0.253920
H161	H16	0.758600	0.866400	0.214200
C231	C23	0.810000	0.952500	0.362480
H171	H17	0.816200	0.953600	0.414000
C241	C24	0.833400	0.023900	0.316790
H181	H18	0.858400	0.084200	0.329900
N91	N9	0.870850	0.508500	0.987370
N101	N10	0.863790	0.626610	0.907490
N111	N11	0.814230	0.507160	0.247240
N121	N12	0.775420	0.622540	0.322770
C251	C25	0.849180	0.303700	0.117560
C261	C26	0.861180	0.355900	0.052770
H191	H19	0.871700	0.322600	0.008300
C271	C27	0.857600	0.456100	0.053810
C281	C28	0.843100	0.508000	0.117320
H201	H20	0.842100	0.576900	0.117200
C291	C29	0.830100	0.455800	0.181000
C301	C30	0.833170	0.355800	0.181790
H211	H21	0.824300	0.321900	0.226300
C311	C31	0.834700	0.594400	0.970020
H221	H22	0.793700	0.627100	0.999200
C321	C32	0.920400	0.558600	0.882760
H231	H23	0.951500	0.562400	0.838400
C331	C33	0.925200	0.485300	0.931250
H241	H24	0.959400	0.428600	0.927400
C341	C34	0.778700	0.595700	0.253920
H251	H25	0.758600	0.633600	0.214200
C351	C35	0.810000	0.547500	0.362480
H261	H26	0.816200	0.546400	0.414000
C361	C36	0.833400	0.476100	0.316790
H271	H27	0.858400	0.415800	0.329900
N131	N13	0.370850	0.991500	0.512630
N141	N14	0.363790	0.873390	0.592510
N151	N15	0.314230	0.992840	0.252760
N161	N16	0.275420	0.877460	0.177230
C371	C37	0.349180	0.196300	0.382440
C381	C38	0.361180	0.144100	0.447230
H281	H28	0.371700	0.177400	0.491700
C391	C39	0.357600	0.043900	0.446190
C401	C40	0.343100	0.992000	0.382680
H291	H29	0.342100	0.923100	0.382800
C411	C41	0.330100	0.044200	0.319000
C421	C42	0.333170	0.144200	0.318210
H301	H30	0.324300	0.178100	0.273700
C431	C43	0.334700	0.905600	0.529980
H311	H31	0.293700	0.872900	0.500800
C441	C44	0.420400	0.941400	0.617240
H321	H32	0.451500	0.937600	0.661600
C451	C45	0.425200	0.014700	0.568750
H331	H33	0.459400	0.071400	0.572600
C461	C46	0.278700	0.904300	0.246080
H341	H34	0.258600	0.866400	0.285800
C471	C47	0.310000	0.952500	0.137520
H351	H35	0.316200	0.953600	0.086000
C481	C48	0.333400	0.023900	0.183210
H361	H36	0.358400	0.084200	0.170100
Zn11	Zn1	0.327770	0.750000	0.642980
Zn21	Zn2	0.241570	0.750000	0.133850
O11	O1	0.200600	0.750000	0.639750
O21	O2	0.196800	0.750000	0.518800
O31	O3	0.792200	0.750000	0.465610
O41	O4	0.911000	0.750000	0.400040
O51	O5	0.825400	0.750000	0.746010
O61	O6	0.954800	0.750000	0.788710
C491	C49	0.065200	0.750000	0.584400
C501	C50	0.014500	0.750000	0.522500
H371	H37	0.040300	0.750000	0.475600
C511	C51	0.926400	0.750000	0.528600
C521	C52	0.888500	0.750000	0.597800
H381	H38	0.828100	0.750000	0.602400
C531	C53	0.939500	0.750000	0.659600
C541	C54	0.026800	0.750000	0.652300
H391	H39	0.061400	0.750000	0.694800
C551	C55	0.161500	0.750000	0.579000
C561	C56	0.874100	0.750000	0.459000
C571	C57	0.904700	0.750000	0.736000
Zn31	Zn3	0.827770	0.750000	0.857020
Zn41	Zn4	0.741570	0.750000	0.366150
O71	O7	0.700600	0.750000	0.860250
O81	O8	0.696800	0.750000	0.981200
O91	O9	0.292200	0.750000	0.034390
O101	O10	0.411000	0.750000	0.099960
O111	O11	0.325400	0.750000	0.753990
O121	O12	0.454800	0.750000	0.711290
C581	C58	0.565200	0.750000	0.915600
C591	C59	0.514500	0.750000	0.977500
H401	H40	0.540300	0.750000	0.024400
C601	C60	0.426400	0.750000	0.971400
C611	C61	0.388500	0.750000	0.902200
H411	H41	0.328100	0.750000	0.897600
C621	C62	0.439500	0.750000	0.840400
C631	C63	0.526800	0.750000	0.847700
H421	H42	0.561400	0.750000	0.805200
C641	C64	0.661500	0.750000	0.921000
C651	C65	0.374100	0.750000	0.041000
C661	C66	0.404700	0.750000	0.764000
N171	N17	0.129150	0.491500	0.012630
N181	N18	0.136210	0.373390	0.092510
N191	N19	0.185770	0.492840	0.752760
N201	N20	0.224580	0.377460	0.677230
C671	C67	0.150820	0.696300	0.882440
C681	C68	0.138820	0.644100	0.947230
H431	H43	0.128300	0.677400	0.991700
C691	C69	0.142400	0.543900	0.946190
C701	C70	0.156900	0.492000	0.882680
H441	H44	0.157900	0.423100	0.882800
C711	C71	0.169900	0.544200	0.819000
C721	C72	0.166830	0.644200	0.818210
H451	H45	0.175700	0.678100	0.773700
C731	C73	0.165300	0.405600	0.029980
H461	H46	0.206300	0.372900	0.000800
C741	C74	0.079600	0.441400	0.117240
H471	H47	0.048500	0.437600	0.161600
C751	C75	0.074800	0.514700	0.068750
H481	H48	0.040600	0.571400	0.072600
C761	C76	0.221300	0.404300	0.746080
H491	H49	0.241400	0.366400	0.785800
C771	C77	0.190000	0.452500	0.637520
H501	H50	0.183800	0.453600	0.586000
C781	C78	0.166600	0.523900	0.683210
H511	H51	0.141600	0.584200	0.670100
N211	N21	0.629150	0.008500	0.487370
N221	N22	0.636210	0.126610	0.407490
N231	N23	0.685770	0.007160	0.747240
N241	N24	0.724580	0.122540	0.822770
C791	C79	0.650820	0.803700	0.617560
C801	C80	0.638820	0.855900	0.552770
H521	H52	0.628300	0.822600	0.508300
C811	C81	0.642400	0.956100	0.553810
C821	C82	0.656900	0.008000	0.617320
H531	H53	0.657900	0.076900	0.617200
C831	C83	0.669900	0.955800	0.681000
C841	C84	0.666830	0.855800	0.681790
H541	H54	0.675700	0.821900	0.726300
C851	C85	0.665300	0.094400	0.470020
H551	H55	0.706300	0.127100	0.499200
C861	C86	0.579600	0.058600	0.382760
H561	H56	0.548500	0.062400	0.338400
C871	C87	0.574800	0.985300	0.431250
H571	H57	0.540600	0.928600	0.427400
C881	C88	0.721300	0.095700	0.753920
H581	H58	0.741400	0.133600	0.714200
C891	C89	0.690000	0.047500	0.862480
H591	H59	0.683800	0.046400	0.914000
C901	C90	0.666600	0.976100	0.816790
H601	H60	0.641600	0.915800	0.829900
N251	N25	0.629150	0.491500	0.487370
N261	N26	0.636210	0.373390	0.407490
N271	N27	0.685770	0.492840	0.747240
N281	N28	0.724580	0.377460	0.822770
C911	C91	0.650820	0.696300	0.617560
C921	C92	0.638820	0.644100	0.552770
H611	H61	0.628300	0.677400	0.508300
C931	C93	0.642400	0.543900	0.553810
C941	C94	0.656900	0.492000	0.617320
H621	H62	0.657900	0.423100	0.617200
C951	C95	0.669900	0.544200	0.681000
C961	C96	0.666830	0.644200	0.681790
H631	H63	0.675700	0.678100	0.726300
C971	C97	0.665300	0.405600	0.470020
H641	H64	0.706300	0.372900	0.499200
C981	C98	0.579600	0.441400	0.382760
H651	H65	0.548500	0.437600	0.338400
C991	C99	0.574800	0.514700	0.431250
H661	H66	0.540600	0.571400	0.427400
C1001	C100	0.721300	0.404300	0.753920
H671	H67	0.741400	0.366400	0.714200
C1011	C101	0.690000	0.452500	0.862480
H681	H68	0.683800	0.453600	0.914000
C1021	C102	0.666600	0.523900	0.816790
H691	H69	0.641600	0.584200	0.829900
N291	N29	0.129150	0.008500	0.012630
N301	N30	0.136210	0.126610	0.092510
N311	N31	0.185770	0.007160	0.752760
N321	N32	0.224580	0.122540	0.677230
C1031	C103	0.150820	0.803700	0.882440
C1041	C104	0.138820	0.855900	0.947230
H701	H70	0.128300	0.822600	0.991700
C1051	C105	0.142400	0.956100	0.946190
C1061	C106	0.156900	0.008000	0.882680
H711	H71	0.157900	0.076900	0.882800
C1071	C107	0.169900	0.955800	0.819000
C1081	C108	0.166830	0.855800	0.818210
H721	H72	0.175700	0.821900	0.773700
C1091	C109	0.165300	0.094400	0.029980
H731	H73	0.206300	0.127100	0.000800
C1101	C110	0.079600	0.058600	0.117240
H741	H74	0.048500	0.062400	0.161600
C1111	C111	0.074800	0.985300	0.068750
H751	H75	0.040600	0.928600	0.072600
C1121	C112	0.221300	0.095700	0.746080
H761	H76	0.241400	0.133600	0.785800
C1131	C113	0.190000	0.047500	0.637520
H771	H77	0.183800	0.046400	0.586000
C1141	C114	0.166600	0.976100	0.683210
H781	H78	0.141600	0.915800	0.670100
Zn51	Zn5	0.172230	0.250000	0.142980
Zn61	Zn6	0.258430	0.250000	0.633850
O131	O13	0.299400	0.250000	0.139750
O141	O14	0.303200	0.250000	0.018800
O151	O15	0.707800	0.250000	0.965610
O161	O16	0.589000	0.250000	0.900040
O171	O17	0.674600	0.250000	0.246010
O181	O18	0.545200	0.250000	0.288710
C1151	C115	0.434800	0.250000	0.084400
C1161	C116	0.485500	0.250000	0.022500
H791	H79	0.459700	0.250000	0.975600
C1171	C117	0.573600	0.250000	0.028600
C1181	C118	0.611500	0.250000	0.097800
H801	H80	0.671900	0.250000	0.102400
C1191	C119	0.560500	0.250000	0.159600
C1201	C120	0.473200	0.250000	0.152300
H811	H81	0.438600	0.250000	0.194800
C1211	C121	0.338500	0.250000	0.079000
C1221	C122	0.625900	0.250000	0.959000
C1231	C123	0.595300	0.250000	0.236000
Zn71	Zn7	0.672230	0.250000	0.357020
Zn81	Zn8	0.758430	0.250000	0.866150
O191	O19	0.799400	0.250000	0.360250
O201	O20	0.803200	0.250000	0.481200
O211	O21	0.207800	0.250000	0.534390
O221	O22	0.089000	0.250000	0.599960
O231	O23	0.174600	0.250000	0.253990
O241	O24	0.045200	0.250000	0.211290
C1241	C124	0.934800	0.250000	0.415600
C1251	C125	0.985500	0.250000	0.477500
H821	H82	0.959700	0.250000	0.524400
C1261	C126	0.073600	0.250000	0.471400
C1271	C127	0.111500	0.250000	0.402200
H831	H83	0.171900	0.250000	0.397600
C1281	C128	0.060500	0.250000	0.340400
C1291	C129	0.973200	0.250000	0.347700
H841	H84	0.938600	0.250000	0.305200
C1301	C130	0.838500	0.250000	0.421000
C1311	C131	0.125900	0.250000	0.541000
C1321	C132	0.095300	0.250000	0.264000
