data_PUWYAI_clean_PM
_symmetry_space_group_name_H-M	'P1'
_cell_length_a	12.260000
_cell_length_b	12.366000
_cell_length_c	19.101000
_cell_angle_alpha	78.180000
_cell_angle_beta	84.625000
_cell_angle_gamma	89.511000
_symmetry_Int_Tables_number 1

loop_
_symmetry_equiv_pos_as_xyz
'x,y,z'

loop_
_atom_site_label
_atom_site_type_symbol
_atom_site_fract_x
_atom_site_fract_y
_atom_site_fract_z
Na11	Na1	0.224000	0.194500	0.846300
Na21	Na2	0.200600	0.918200	0.956900
Na31	Na3	0.624000	0.708000	0.404700
Na41	Na4	0.042000	0.464000	0.581400
Na51	Na5	0.776000	0.805500	0.153700
Na61	Na6	0.799400	0.081800	0.043100
Na71	Na7	0.376000	0.292000	0.595300
Na81	Na8	0.958000	0.536000	0.418600
Na91	Na9	0.000000	0.500000	0.000000
Na101	Na10	0.500000	0.500000	0.500000
Co11	Co1	0.568430	0.742180	0.685670
Co21	Co2	0.585060	0.877750	0.809230
Co31	Co3	0.785360	0.875710	0.691730
Co41	Co4	0.723740	0.659060	0.810770
Co51	Co5	0.190190	0.860640	0.576830
Co61	Co6	0.373380	0.766920	0.078740
Co71	Co7	0.431570	0.257820	0.314330
Co81	Co8	0.414940	0.122250	0.190770
Co91	Co9	0.214640	0.124290	0.308270
Co101	Co10	0.276260	0.340940	0.189230
Co111	Co11	0.809810	0.139360	0.423170
Co121	Co12	0.626620	0.233080	0.921260
H11	H1	0.307400	0.678600	0.867300
H21	H2	0.364000	0.780800	0.810400
H31	H3	0.539900	0.615700	0.931800
H41	H4	0.433300	0.541200	0.932700
H51	H5	0.941300	0.757700	0.821000
H61	H6	0.974800	0.819900	0.881800
H71	H7	0.825500	0.920000	0.944100
H81	H8	0.721300	0.845100	0.940100
H91	H9	0.616600	0.168600	0.629000
H101	H10	0.689700	0.100700	0.688200
H111	H11	0.502200	0.059000	0.564000
H121	H12	0.579100	0.954200	0.562700
H131	H13	0.812700	0.762000	0.564500
H141	H14	0.890800	0.658700	0.560200
H151	H15	0.774600	0.496200	0.625900
H161	H16	0.680500	0.517600	0.685700
H171	H17	0.692600	0.321400	0.132700
H181	H18	0.636000	0.219200	0.189600
H191	H19	0.460100	0.384300	0.068200
H201	H20	0.566700	0.458800	0.067300
H211	H21	0.058700	0.242300	0.179000
H221	H22	0.025200	0.180100	0.118200
H231	H23	0.174500	0.080000	0.055900
H241	H24	0.278700	0.154900	0.059900
H251	H25	0.383400	0.831400	0.371000
H261	H26	0.310300	0.899300	0.311800
H271	H27	0.497800	0.941000	0.436000
H281	H28	0.420900	0.045800	0.437300
H291	H29	0.187300	0.238000	0.435500
H301	H30	0.109200	0.341300	0.439800
H311	H31	0.225400	0.503800	0.374100
H321	H32	0.319500	0.482400	0.314300
C11	C1	0.402700	0.778200	0.915700
C21	C2	0.375700	0.723000	0.853200
C31	C3	0.472000	0.647000	0.834400
C41	C4	0.501300	0.571900	0.903600
C51	C5	0.574300	0.477200	0.887900
C61	C6	0.428200	0.576400	0.782900
C71	C7	0.864800	0.687800	0.923200
C81	C8	0.912800	0.785800	0.864100
C91	C9	0.825200	0.874500	0.843100
C101	C10	0.768600	0.907200	0.913100
C111	C11	0.701200	0.008300	0.896600
C121	C12	0.883600	0.973800	0.795700
C131	C13	0.740900	0.076300	0.583000
C141	C14	0.653300	0.097300	0.644500
C151	C15	0.568800	0.003100	0.661200
C161	C16	0.521600	0.986200	0.592100
C171	C17	0.419300	0.909800	0.606500
C181	C18	0.472700	0.035800	0.710200
C191	C19	0.958400	0.773800	0.607500
C201	C20	0.863500	0.710000	0.591300
C211	C21	0.800100	0.643000	0.660900
C221	C22	0.727900	0.553400	0.642500
C231	C23	0.655700	0.608900	0.581800
C241	C24	0.884100	0.579100	0.711200
C251	C25	0.597300	0.221800	0.084300
C261	C26	0.624300	0.277000	0.146800
C271	C27	0.528000	0.353000	0.165600
C281	C28	0.498700	0.428100	0.096400
C291	C29	0.425700	0.522800	0.112100
C301	C30	0.571800	0.423600	0.217100
C311	C31	0.135200	0.312200	0.076800
C321	C32	0.087200	0.214200	0.135900
C331	C33	0.174800	0.125500	0.156900
C341	C34	0.231400	0.092800	0.086900
C351	C35	0.298800	0.991700	0.103400
C361	C36	0.116400	0.026200	0.204300
C371	C37	0.259100	0.923700	0.417000
C381	C38	0.346700	0.902700	0.355500
C391	C39	0.431200	0.996900	0.338800
C401	C40	0.478400	0.013800	0.407900
C411	C41	0.580700	0.090200	0.393500
C421	C42	0.527300	0.964200	0.289800
C431	C43	0.041600	0.226200	0.392500
C441	C44	0.136500	0.290000	0.408700
C451	C45	0.199900	0.357000	0.339100
C461	C46	0.272100	0.446600	0.357500
C471	C47	0.344300	0.391100	0.418200
C481	C48	0.115900	0.420900	0.288800
O11	O1	0.560600	0.712700	0.798500
O21	O2	0.615800	0.903000	0.697000
O31	O3	0.735300	0.714500	0.697500
O41	O4	0.428800	0.815300	0.646000
O51	O5	0.599700	0.691400	0.588400
O61	O6	0.468100	0.600600	0.717200
O71	O7	0.745500	0.829700	0.804700
O81	O8	0.459500	0.983700	0.774800
O91	O9	0.488800	0.832400	0.907900
O101	O10	0.640400	0.017100	0.845700
O111	O11	0.941400	0.824800	0.658200
O121	O12	0.792200	0.987900	0.592500
O131	O13	0.871400	0.992600	0.728800
O141	O14	0.864500	0.581900	0.778100
O151	O15	0.658800	0.500800	0.844400
O161	O16	0.782300	0.637900	0.911100
O171	O17	0.049100	0.772900	0.570800
O181	O18	0.749600	0.152600	0.527000
O191	O19	0.335500	0.947800	0.578800
O201	O20	0.336900	0.760400	0.972000
O211	O21	0.549600	0.379700	0.921300
O221	O22	0.707200	0.081200	0.934300
O231	O23	0.936000	0.037200	0.823800
O241	O24	0.358300	0.504800	0.807200
O251	O25	0.904800	0.670900	0.983100
O261	O26	0.655500	0.561500	0.528500
O271	O27	0.415200	0.119000	0.684300
O281	O28	0.964500	0.534500	0.685300
O291	O29	0.080400	0.072500	0.919000
O301	O30	0.338700	0.043200	0.890100
O311	O31	0.582800	0.525600	0.380300
O321	O32	0.453400	0.698700	0.482300
O331	O33	0.204500	0.364300	0.643500
O341	O34	0.439400	0.287300	0.201500
O351	O35	0.384200	0.097000	0.303000
O361	O36	0.264700	0.285500	0.302500
O371	O37	0.571200	0.184700	0.354000
O381	O38	0.400300	0.308600	0.411600
O391	O39	0.531900	0.399400	0.282800
O401	O40	0.254500	0.170300	0.195300
O411	O41	0.540500	0.016300	0.225200
O421	O42	0.511200	0.167600	0.092100
O431	O43	0.359600	0.982900	0.154300
O441	O44	0.058600	0.175200	0.341800
O451	O45	0.207800	0.012100	0.407500
O461	O46	0.128600	0.007400	0.271200
O471	O47	0.135500	0.418100	0.221900
O481	O48	0.341200	0.499200	0.155600
O491	O49	0.217700	0.362100	0.088900
O501	O50	0.950900	0.227100	0.429200
O511	O51	0.250400	0.847400	0.473000
O521	O52	0.664500	0.052200	0.421200
O531	O53	0.663100	0.239600	0.028000
O541	O54	0.450400	0.620300	0.078700
O551	O55	0.292800	0.918800	0.065700
O561	O56	0.064000	0.962800	0.176200
O571	O57	0.641700	0.495200	0.192800
O581	O58	0.095200	0.329100	0.016900
O591	O59	0.344500	0.438500	0.471500
O601	O60	0.584800	0.881000	0.315700
O611	O61	0.035500	0.465500	0.314700
O621	O62	0.919600	0.927500	0.081000
O631	O63	0.661300	0.956800	0.109900
O641	O64	0.417200	0.474400	0.619700
O651	O65	0.546600	0.301300	0.517700
O661	O66	0.795500	0.635700	0.356500
