data_PUYZUF_clean_PM
_symmetry_space_group_name_H-M	'P1'
_cell_length_a	11.495500
_cell_length_b	10.675600
_cell_length_c	8.701900
_cell_angle_alpha	58.523000
_cell_angle_beta	106.498000
_cell_angle_gamma	110.981000
_symmetry_Int_Tables_number 1

loop_
_symmetry_equiv_pos_as_xyz
'x,y,z'

loop_
_atom_site_label
_atom_site_type_symbol
_atom_site_fract_x
_atom_site_fract_y
_atom_site_fract_z
Cd11	Cd1	0.155690	0.116610	0.976450
S11	S1	0.033080	0.883840	0.934260
S21	S2	0.335170	0.035620	0.205340
S31	S3	0.225880	0.355530	0.724290
C11	C1	0.013790	0.951560	0.681080
C21	C2	0.106150	0.959770	0.605220
C31	C3	0.907650	0.991790	0.575860
C41	C4	0.528750	0.953910	0.180900
C51	C5	0.400780	0.061320	0.906880
C61	C6	0.429540	0.015230	0.087780
C71	C7	0.986630	0.350860	0.558260
C81	C8	0.098040	0.437290	0.597350
C91	C9	0.111410	0.586430	0.539090
H11	H1	0.184360	0.930130	0.682760
H21	H2	0.839590	0.985740	0.631760
H31	H3	0.549940	0.919950	0.314210
H41	H4	0.327670	0.106500	0.838260
H51	H5	0.976770	0.240950	0.601190
H61	H6	0.193520	0.650130	0.567900
Cd21	Cd2	0.844310	0.883390	0.023550
S41	S4	0.966920	0.116160	0.065740
S51	S5	0.664830	0.964380	0.794660
S61	S6	0.774120	0.644470	0.275710
C101	C10	0.986210	0.048440	0.318920
C111	C11	0.893850	0.040230	0.394780
C121	C12	0.092350	0.008210	0.424140
C131	C13	0.471250	0.046090	0.819100
C141	C14	0.599220	0.938680	0.093120
C151	C15	0.570460	0.984770	0.912220
C161	C16	0.013370	0.649140	0.441740
C171	C17	0.901960	0.562710	0.402650
C181	C18	0.888590	0.413570	0.460910
H71	H7	0.815640	0.069870	0.317240
H81	H8	0.160410	0.014260	0.368240
H91	H9	0.450060	0.080050	0.685790
H101	H10	0.672330	0.893500	0.161740
H111	H11	0.023230	0.759050	0.398810
H121	H12	0.806480	0.349870	0.432100
