data_QADWUQ_clean_PM
_symmetry_space_group_name_H-M	'P1'
_cell_length_a	9.719200
_cell_length_b	10.451700
_cell_length_c	16.421700
_cell_angle_alpha	90.000000
_cell_angle_beta	112.580000
_cell_angle_gamma	90.000000
_symmetry_Int_Tables_number 1

loop_
_symmetry_equiv_pos_as_xyz
'x,y,z'

loop_
_atom_site_label
_atom_site_type_symbol
_atom_site_fract_x
_atom_site_fract_y
_atom_site_fract_z
C11	C1	0.679000	0.059800	0.968500
H11	H1	0.609600	0.116900	0.931600
C21	C2	0.642000	0.932700	0.968500
H21	H2	0.548300	0.903300	0.931900
C31	C3	0.746400	0.850200	0.023400
H31	H3	0.723800	0.763900	0.024300
C41	C4	0.883200	0.894900	0.076600
H41	H4	0.953100	0.838400	0.113900
C51	C5	0.920100	0.022400	0.076100
C61	C6	0.067800	0.076700	0.129800
H51	H5	0.093600	0.140400	0.095100
H61	H6	0.141800	0.009100	0.143900
C71	C7	0.927800	0.968700	0.467100
C81	C8	0.517200	0.938200	0.527300
Dy11	Dy1	0.178420	0.894280	0.393020
N11	N1	0.814300	0.102000	0.021400
O11	O1	0.060300	0.047600	0.291900
O21	O2	0.235000	0.211100	0.270900
H71	H7	0.287200	0.170700	0.314700
O31	O3	0.959500	0.251900	0.210000
O41	O4	0.846400	0.224900	0.017700
O51	O5	0.814000	0.979400	0.484700
O61	O6	0.936700	0.913600	0.402400
O71	O7	0.422600	0.851200	0.504400
O81	O8	0.641100	0.935200	0.591100
P11	P1	0.074800	0.149830	0.231310
C91	C9	0.321000	0.559800	0.531500
H81	H8	0.390400	0.616900	0.568400
C101	C10	0.358000	0.432700	0.531500
H91	H9	0.451700	0.403300	0.568100
C111	C11	0.253600	0.350200	0.476600
H101	H10	0.276200	0.263900	0.475700
C121	C12	0.116800	0.394900	0.423400
H111	H11	0.046900	0.338400	0.386100
C131	C13	0.079900	0.522400	0.423900
C141	C14	0.932200	0.576700	0.370200
H121	H12	0.906400	0.640400	0.404900
H131	H13	0.858200	0.509100	0.356100
C151	C15	0.072200	0.468700	0.032900
C161	C16	0.482800	0.438200	0.972700
Dy21	Dy2	0.821580	0.394280	0.106980
N21	N2	0.185700	0.602000	0.478600
O91	O9	0.939700	0.547600	0.208100
O101	O10	0.765000	0.711100	0.229100
H141	H14	0.712800	0.670700	0.185300
O111	O11	0.040500	0.751900	0.290000
O121	O12	0.153600	0.724900	0.482300
O131	O13	0.186000	0.479400	0.015300
O141	O14	0.063300	0.413600	0.097600
O151	O15	0.577400	0.351200	0.995600
O161	O16	0.358900	0.435200	0.908900
P21	P2	0.925200	0.649830	0.268690
C171	C17	0.321000	0.940200	0.031500
H151	H15	0.390400	0.883100	0.068400
C181	C18	0.358000	0.067300	0.031500
H161	H16	0.451700	0.096700	0.068100
C191	C19	0.253600	0.149800	0.976600
H171	H17	0.276200	0.236100	0.975700
C201	C20	0.116800	0.105100	0.923400
H181	H18	0.046900	0.161600	0.886100
C211	C21	0.079900	0.977600	0.923900
C221	C22	0.932200	0.923300	0.870200
H191	H19	0.906400	0.859600	0.904900
H201	H20	0.858200	0.990900	0.856100
C231	C23	0.072200	0.031300	0.532900
C241	C24	0.482800	0.061800	0.472700
Dy31	Dy3	0.821580	0.105720	0.606980
N31	N3	0.185700	0.898000	0.978600
O171	O17	0.939700	0.952400	0.708100
O181	O18	0.765000	0.788900	0.729100
H211	H21	0.712800	0.829300	0.685300
O191	O19	0.040500	0.748100	0.790000
O201	O20	0.153600	0.775100	0.982300
O211	O21	0.186000	0.020600	0.515300
O221	O22	0.063300	0.086400	0.597600
O231	O23	0.577400	0.148800	0.495600
O241	O24	0.358900	0.064800	0.408900
P31	P3	0.925200	0.850170	0.768690
C251	C25	0.679000	0.440200	0.468500
H221	H22	0.609600	0.383100	0.431600
C261	C26	0.642000	0.567300	0.468500
H231	H23	0.548300	0.596700	0.431900
C271	C27	0.746400	0.649800	0.523400
H241	H24	0.723800	0.736100	0.524300
C281	C28	0.883200	0.605100	0.576600
H251	H25	0.953100	0.661600	0.613900
C291	C29	0.920100	0.477600	0.576100
C301	C30	0.067800	0.423300	0.629800
H261	H26	0.093600	0.359600	0.595100
H271	H27	0.141800	0.490900	0.643900
C311	C31	0.927800	0.531300	0.967100
C321	C32	0.517200	0.561800	0.027300
Dy41	Dy4	0.178420	0.605720	0.893020
N41	N4	0.814300	0.398000	0.521400
O251	O25	0.060300	0.452400	0.791900
O261	O26	0.235000	0.288900	0.770900
H281	H28	0.287200	0.329300	0.814700
O271	O27	0.959500	0.248100	0.710000
O281	O28	0.846400	0.275100	0.517700
O291	O29	0.814000	0.520600	0.984700
O301	O30	0.936700	0.586400	0.902400
O311	O31	0.422600	0.648800	0.004400
O321	O32	0.641100	0.564800	0.091100
P41	P4	0.074800	0.350170	0.731310
