data_QADWEY_clean_PM
_symmetry_space_group_name_H-M	'P1'
_cell_length_a	15.108500
_cell_length_b	8.840300
_cell_length_c	17.262800
_cell_angle_alpha	90.000000
_cell_angle_beta	114.537000
_cell_angle_gamma	90.000000
_symmetry_Int_Tables_number 1

loop_
_symmetry_equiv_pos_as_xyz
'x,y,z'

loop_
_atom_site_label
_atom_site_type_symbol
_atom_site_fract_x
_atom_site_fract_y
_atom_site_fract_z
Zn11	Zn1	0.190280	0.111510	0.544510
Zn21	Zn2	0.014570	0.919760	0.776670
Zn31	Zn3	0.283250	0.158570	0.810740
P11	P1	0.287230	0.380700	0.665380
P21	P2	0.016600	0.318900	0.415650
P31	P3	0.152880	0.866700	0.412130
P41	P4	0.170990	0.886300	0.691120
O11	O1	0.288500	0.252400	0.606100
O21	O2	0.062500	0.213000	0.490200
O31	O3	0.213600	0.004400	0.454900
O41	O4	0.161000	0.942700	0.603800
O51	O5	0.079100	0.935200	0.701000
O61	O6	0.048100	0.908400	0.354300
O71	O7	0.381700	0.466600	0.699600
O81	O8	0.025700	0.271500	0.334900
O91	O9	0.260600	0.959100	0.762400
O101	O10	0.912000	0.349600	0.400500
O111	O11	0.258800	0.327100	0.734700
O121	O12	0.197700	0.774200	0.362900
O131	O13	0.206700	0.495700	0.607200
H11	H1	0.204400	0.568300	0.635900
O141	O14	0.073700	0.474100	0.438800
H21	H2	0.049600	0.533100	0.398800
O151	O15	0.148500	0.759800	0.483900
H31	H3	0.115900	0.684700	0.461900
O161	O16	0.184200	0.716700	0.695900
Zn41	Zn4	0.690280	0.611510	0.544510
Zn51	Zn5	0.514570	0.419760	0.776670
Zn61	Zn6	0.783250	0.658570	0.810740
P51	P5	0.787230	0.880700	0.665380
P61	P6	0.516600	0.818900	0.415650
P71	P7	0.652880	0.366700	0.412130
P81	P8	0.670990	0.386300	0.691120
O171	O17	0.788500	0.752400	0.606100
O181	O18	0.562500	0.713000	0.490200
O191	O19	0.713600	0.504400	0.454900
O201	O20	0.661000	0.442700	0.603800
O211	O21	0.579100	0.435200	0.701000
O221	O22	0.548100	0.408400	0.354300
O231	O23	0.881700	0.966600	0.699600
O241	O24	0.525700	0.771500	0.334900
O251	O25	0.760600	0.459100	0.762400
O261	O26	0.412000	0.849600	0.400500
O271	O27	0.758800	0.827100	0.734700
O281	O28	0.697700	0.274200	0.362900
O291	O29	0.706700	0.995700	0.607200
H41	H4	0.704400	0.068300	0.635900
O301	O30	0.573700	0.974100	0.438800
H51	H5	0.549600	0.033100	0.398800
O311	O31	0.648500	0.259800	0.483900
H61	H6	0.615900	0.184700	0.461900
O321	O32	0.684200	0.216700	0.695900
Zn71	Zn7	0.190280	0.888490	0.044510
Zn81	Zn8	0.014570	0.080240	0.276670
Zn91	Zn9	0.283250	0.841430	0.310740
P91	P9	0.287230	0.619300	0.165380
P101	P10	0.016600	0.681100	0.915650
P111	P11	0.152880	0.133300	0.912130
P121	P12	0.170990	0.113700	0.191120
O331	O33	0.288500	0.747600	0.106100
O341	O34	0.062500	0.787000	0.990200
O351	O35	0.213600	0.995600	0.954900
O361	O36	0.161000	0.057300	0.103800
O371	O37	0.079100	0.064800	0.201000
O381	O38	0.048100	0.091600	0.854300
O391	O39	0.381700	0.533400	0.199600
O401	O40	0.025700	0.728500	0.834900
O411	O41	0.260600	0.040900	0.262400
O421	O42	0.912000	0.650400	0.900500
O431	O43	0.258800	0.672900	0.234700
O441	O44	0.197700	0.225800	0.862900
O451	O45	0.206700	0.504300	0.107200
H71	H7	0.204400	0.431700	0.135900
O461	O46	0.073700	0.525900	0.938800
H81	H8	0.049600	0.466900	0.898800
O471	O47	0.148500	0.240200	0.983900
H91	H9	0.115900	0.315300	0.961900
O481	O48	0.184200	0.283300	0.195900
Zn101	Zn10	0.690280	0.388490	0.044510
Zn111	Zn11	0.514570	0.580240	0.276670
Zn121	Zn12	0.783250	0.341430	0.310740
P131	P13	0.787230	0.119300	0.165380
P141	P14	0.516600	0.181100	0.915650
P151	P15	0.652880	0.633300	0.912130
P161	P16	0.670990	0.613700	0.191120
O491	O49	0.788500	0.247600	0.106100
O501	O50	0.562500	0.287000	0.990200
O511	O51	0.713600	0.495600	0.954900
O521	O52	0.661000	0.557300	0.103800
O531	O53	0.579100	0.564800	0.201000
O541	O54	0.548100	0.591600	0.854300
O551	O55	0.881700	0.033400	0.199600
O561	O56	0.525700	0.228500	0.834900
O571	O57	0.760600	0.540900	0.262400
O581	O58	0.412000	0.150400	0.900500
O591	O59	0.758800	0.172900	0.234700
O601	O60	0.697700	0.725800	0.862900
O611	O61	0.706700	0.004300	0.107200
H101	H10	0.704400	0.931700	0.135900
O621	O62	0.573700	0.025900	0.938800
H111	H11	0.549600	0.966900	0.898800
O631	O63	0.648500	0.740200	0.983900
H121	H12	0.615900	0.815300	0.961900
O641	O64	0.684200	0.783300	0.195900
