data_QADXAX_clean_PM
_symmetry_space_group_name_H-M	'P1'
_cell_length_a	9.721600
_cell_length_b	10.427300
_cell_length_c	16.404600
_cell_angle_alpha	90.000000
_cell_angle_beta	112.678000
_cell_angle_gamma	90.000000
_symmetry_Int_Tables_number 1

loop_
_symmetry_equiv_pos_as_xyz
'x,y,z'

loop_
_atom_site_label
_atom_site_type_symbol
_atom_site_fract_x
_atom_site_fract_y
_atom_site_fract_z
C11	C1	0.678800	0.061500	0.967600
H11	H1	0.609200	0.118400	0.930300
C21	C2	0.643000	0.934200	0.967900
H21	H2	0.549400	0.904500	0.931200
C31	C3	0.746100	0.851700	0.022600
H31	H3	0.722800	0.765400	0.023300
C41	C4	0.884200	0.895800	0.076700
H41	H4	0.953900	0.839100	0.114200
C51	C5	0.920800	0.024000	0.076000
C61	C6	0.068900	0.079000	0.130500
H51	H5	0.094900	0.143000	0.096000
H61	H6	0.143200	0.011500	0.144900
C71	C7	0.928200	0.969000	0.467000
C81	C8	0.517200	0.937500	0.526600
Ho11	Ho1	0.177960	0.896400	0.392930
N11	N1	0.814400	0.104400	0.021400
O11	O1	0.060600	0.049700	0.292400
O21	O2	0.234800	0.213800	0.271900
H71	H7	0.286800	0.173700	0.316000
O31	O3	0.958200	0.253800	0.209910
O41	O4	0.847300	0.227500	0.017800
O51	O5	0.814000	0.979100	0.484200
O61	O6	0.936800	0.915400	0.401700
O71	O7	0.421700	0.851100	0.503300
O81	O8	0.641600	0.933200	0.590100
P11	P1	0.074480	0.151830	0.231780
C91	C9	0.321200	0.561500	0.532400
H81	H8	0.390800	0.618400	0.569700
C101	C10	0.357000	0.434200	0.532100
H91	H9	0.450600	0.404500	0.568800
C111	C11	0.253900	0.351700	0.477400
H101	H10	0.277200	0.265400	0.476700
C121	C12	0.115800	0.395800	0.423300
H111	H11	0.046100	0.339100	0.385800
C131	C13	0.079200	0.524000	0.424000
C141	C14	0.931100	0.579000	0.369500
H121	H12	0.905100	0.643000	0.404000
H131	H13	0.856800	0.511500	0.355100
C151	C15	0.071800	0.469000	0.033000
C161	C16	0.482800	0.437500	0.973400
Ho21	Ho2	0.822040	0.396400	0.107070
N21	N2	0.185600	0.604400	0.478600
O91	O9	0.939400	0.549700	0.207600
O101	O10	0.765200	0.713800	0.228100
H141	H14	0.713200	0.673700	0.184000
O111	O11	0.041800	0.753800	0.290090
O121	O12	0.152700	0.727500	0.482200
O131	O13	0.186000	0.479100	0.015800
O141	O14	0.063200	0.415400	0.098300
O151	O15	0.578300	0.351100	0.996700
O161	O16	0.358400	0.433200	0.909900
P21	P2	0.925520	0.651830	0.268220
C171	C17	0.321200	0.938500	0.032400
H151	H15	0.390800	0.881600	0.069700
C181	C18	0.357000	0.065800	0.032100
H161	H16	0.450600	0.095500	0.068800
C191	C19	0.253900	0.148300	0.977400
H171	H17	0.277200	0.234600	0.976700
C201	C20	0.115800	0.104200	0.923300
H181	H18	0.046100	0.160900	0.885800
C211	C21	0.079200	0.976000	0.924000
C221	C22	0.931100	0.921000	0.869500
H191	H19	0.905100	0.857000	0.904000
H201	H20	0.856800	0.988500	0.855100
C231	C23	0.071800	0.031000	0.533000
C241	C24	0.482800	0.062500	0.473400
Ho31	Ho3	0.822040	0.103600	0.607070
N31	N3	0.185600	0.895600	0.978600
O171	O17	0.939400	0.950300	0.707600
O181	O18	0.765200	0.786200	0.728100
H211	H21	0.713200	0.826300	0.684000
O191	O19	0.041800	0.746200	0.790090
O201	O20	0.152700	0.772500	0.982200
O211	O21	0.186000	0.020900	0.515800
O221	O22	0.063200	0.084600	0.598300
O231	O23	0.578300	0.148900	0.496700
O241	O24	0.358400	0.066800	0.409900
P31	P3	0.925520	0.848170	0.768220
C251	C25	0.678800	0.438500	0.467600
H221	H22	0.609200	0.381600	0.430300
C261	C26	0.643000	0.565800	0.467900
H231	H23	0.549400	0.595500	0.431200
C271	C27	0.746100	0.648300	0.522600
H241	H24	0.722800	0.734600	0.523300
C281	C28	0.884200	0.604200	0.576700
H251	H25	0.953900	0.660900	0.614200
C291	C29	0.920800	0.476000	0.576000
C301	C30	0.068900	0.421000	0.630500
H261	H26	0.094900	0.357000	0.596000
H271	H27	0.143200	0.488500	0.644900
C311	C31	0.928200	0.531000	0.967000
C321	C32	0.517200	0.562500	0.026600
Ho41	Ho4	0.177960	0.603600	0.892930
N41	N4	0.814400	0.395600	0.521400
O251	O25	0.060600	0.450300	0.792400
O261	O26	0.234800	0.286200	0.771900
H281	H28	0.286800	0.326300	0.816000
O271	O27	0.958200	0.246200	0.709910
O281	O28	0.847300	0.272500	0.517800
O291	O29	0.814000	0.520900	0.984200
O301	O30	0.936800	0.584600	0.901700
O311	O31	0.421700	0.648900	0.003300
O321	O32	0.641600	0.566800	0.090100
P41	P4	0.074480	0.348170	0.731780
