data_QAGDIO_clean_PM
_symmetry_space_group_name_H-M	'P1'
_cell_length_a	46.057500
_cell_length_b	20.944200
_cell_length_c	14.100100
_cell_angle_alpha	90.000000
_cell_angle_beta	90.000000
_cell_angle_gamma	90.000000
_symmetry_Int_Tables_number 1

loop_
_symmetry_equiv_pos_as_xyz
'x,y,z'

loop_
_atom_site_label
_atom_site_type_symbol
_atom_site_fract_x
_atom_site_fract_y
_atom_site_fract_z
O11	O1	0.190610	0.067030	0.096370
O21	O2	0.190340	0.065610	0.898860
O31	O3	0.141910	0.062960	0.099820
O41	O4	0.142110	0.069750	0.907670
C11	C1	0.166770	0.086010	0.123600
C21	C2	0.165700	0.087360	0.876700
C31	C3	0.165550	0.140210	0.191800
C41	C4	0.165740	0.144180	0.810900
C51	C5	0.188510	0.154950	0.248000
C61	C6	0.139640	0.175950	0.197200
C71	C7	0.189090	0.155470	0.747400
C81	C8	0.142490	0.184550	0.810800
C91	C9	0.187400	0.208980	0.308900
H11	H1	0.205100	0.129500	0.246700
C101	C10	0.138840	0.228320	0.255900
H21	H2	0.123400	0.164300	0.161800
H31	H3	0.204800	0.127600	0.746000
C111	C11	0.188600	0.206650	0.688800
H41	H4	0.126600	0.176500	0.849900
C121	C12	0.142640	0.238420	0.751400
C131	C13	0.211920	0.224020	0.373000
C141	C14	0.162660	0.244910	0.312900
N11	N1	0.112400	0.265770	0.257800
C151	C15	0.212940	0.221900	0.620000
C161	C16	0.165360	0.251090	0.692800
N21	N2	0.119510	0.283060	0.753400
O51	O5	0.228710	0.179550	0.395620
O61	O6	0.213370	0.280200	0.402550
H51	H5	0.161600	0.280100	0.353000
N31	N3	0.093110	0.263100	0.188700
C171	C17	0.102890	0.301950	0.329600
O71	O7	0.228390	0.176090	0.593060
O81	O8	0.215380	0.279360	0.595530
H61	H6	0.165700	0.288000	0.656200
C181	C18	0.102320	0.299370	0.827100
N41	N4	0.114920	0.323900	0.680500
Cu11	Cu1	0.258460	0.189460	0.496570
N51	N5	0.070850	0.297790	0.214300
H71	H7	0.112500	0.311600	0.385800
C191	C19	0.075970	0.321600	0.302200
H81	H8	0.101800	0.280400	0.886700
C201	C20	0.085680	0.350140	0.795400
N61	N6	0.093830	0.362350	0.704000
C211	C21	0.056140	0.365950	0.350900
C221	C22	0.062970	0.386490	0.845300
C231	C23	0.030030	0.386890	0.308950
C241	C24	0.061900	0.385400	0.441000
C251	C25	0.053430	0.367870	0.932000
C261	C26	0.052660	0.443190	0.807800
H91	H9	0.024600	0.371300	0.249800
C271	C27	0.012500	0.430230	0.354800
C281	C28	0.044290	0.429290	0.488300
H101	H10	0.078100	0.368900	0.472100
H111	H11	0.060800	0.330800	0.959200
C291	C29	0.032780	0.403560	0.980900
H121	H12	0.059700	0.457800	0.750000
C301	C30	0.032220	0.477790	0.855110
H131	H13	0.995500	0.443800	0.325200
C311	C31	0.019190	0.454090	0.442690
H141	H14	0.049000	0.442300	0.549500
H151	H15	0.026800	0.390500	0.040900
C321	C32	0.020960	0.458290	0.941260
H161	H16	0.025600	0.515800	0.828600
O91	O9	0.690610	0.567030	0.096370
O101	O10	0.690340	0.565610	0.898860
O111	O11	0.641910	0.562960	0.099820
O121	O12	0.642110	0.569750	0.907670
C331	C33	0.666770	0.586010	0.123600
C341	C34	0.665700	0.587360	0.876700
C351	C35	0.665550	0.640210	0.191800
C361	C36	0.665740	0.644180	0.810900
C371	C37	0.688510	0.654950	0.248000
C381	C38	0.639640	0.675950	0.197200
C391	C39	0.689090	0.655470	0.747400
C401	C40	0.642490	0.684550	0.810800
C411	C41	0.687400	0.708980	0.308900
H171	H17	0.705100	0.629500	0.246700
C421	C42	0.638840	0.728320	0.255900
H181	H18	0.623400	0.664300	0.161800
H191	H19	0.704800	0.627600	0.746000
C431	C43	0.688600	0.706650	0.688800
H201	H20	0.626600	0.676500	0.849900
C441	C44	0.642640	0.738420	0.751400
C451	C45	0.711920	0.724020	0.373000
C461	C46	0.662660	0.744910	0.312900
N71	N7	0.612400	0.765770	0.257800
C471	C47	0.712940	0.721900	0.620000
C481	C48	0.665360	0.751090	0.692800
N81	N8	0.619510	0.783060	0.753400
O131	O13	0.728710	0.679550	0.395620
O141	O14	0.713370	0.780200	0.402550
H211	H21	0.661600	0.780100	0.353000
N91	N9	0.593110	0.763100	0.188700
C491	C49	0.602890	0.801950	0.329600
O151	O15	0.728390	0.676090	0.593060
O161	O16	0.715380	0.779360	0.595530
H221	H22	0.665700	0.788000	0.656200
C501	C50	0.602320	0.799370	0.827100
N101	N10	0.614920	0.823900	0.680500
Cu21	Cu2	0.758460	0.689460	0.496570
N111	N11	0.570850	0.797790	0.214300
H231	H23	0.612500	0.811600	0.385800
C511	C51	0.575970	0.821600	0.302200
H241	H24	0.601800	0.780400	0.886700
C521	C52	0.585680	0.850140	0.795400
N121	N12	0.593830	0.862350	0.704000
C531	C53	0.556140	0.865950	0.350900
C541	C54	0.562970	0.886490	0.845300
C551	C55	0.530030	0.886890	0.308950
C561	C56	0.561900	0.885400	0.441000
C571	C57	0.553430	0.867870	0.932000
C581	C58	0.552660	0.943190	0.807800
H251	H25	0.524600	0.871300	0.249800
C591	C59	0.512500	0.930230	0.354800
C601	C60	0.544290	0.929290	0.488300
H261	H26	0.578100	0.868900	0.472100
H271	H27	0.560800	0.830800	0.959200
C611	C61	0.532780	0.903560	0.980900
H281	H28	0.559700	0.957800	0.750000
C621	C62	0.532220	0.977790	0.855110
H291	H29	0.495500	0.943800	0.325200
C631	C63	0.519190	0.954090	0.442690
H301	H30	0.549000	0.942300	0.549500
H311	H31	0.526800	0.890500	0.040900
C641	C64	0.520960	0.958290	0.941260
H321	H32	0.525600	0.015800	0.828600
O171	O17	0.809390	0.932970	0.096370
O181	O18	0.809660	0.934390	0.898860
O191	O19	0.858090	0.937040	0.099820
O201	O20	0.857890	0.930250	0.907670
C651	C65	0.833230	0.913990	0.123600
C661	C66	0.834300	0.912640	0.876700
C671	C67	0.834450	0.859790	0.191800
C681	C68	0.834260	0.855820	0.810900
C691	C69	0.811490	0.845050	0.248000
C701	C70	0.860360	0.824050	0.197200
C711	C71	0.810910	0.844530	0.747400
C721	C72	0.857510	0.815450	0.810800
C731	C73	0.812600	0.791020	0.308900
H331	H33	0.794900	0.870500	0.246700
C741	C74	0.861160	0.771680	0.255900
H341	H34	0.876600	0.835700	0.161800
H351	H35	0.795200	0.872400	0.746000
C751	C75	0.811400	0.793350	0.688800
H361	H36	0.873400	0.823500	0.849900
C761	C76	0.857360	0.761580	0.751400
C771	C77	0.788080	0.775980	0.373000
C781	C78	0.837340	0.755090	0.312900
N131	N13	0.887600	0.734230	0.257800
C791	C79	0.787060	0.778100	0.620000
C801	C80	0.834640	0.748910	0.692800
N141	N14	0.880490	0.716940	0.753400
O211	O21	0.771290	0.820450	0.395620
O221	O22	0.786630	0.719800	0.402550
H371	H37	0.838400	0.719900	0.353000
N151	N15	0.906890	0.736900	0.188700
C811	C81	0.897110	0.698050	0.329600
O231	O23	0.771610	0.823910	0.593060
O241	O24	0.784620	0.720640	0.595530
H381	H38	0.834300	0.712000	0.656200
C821	C82	0.897680	0.700630	0.827100
N161	N16	0.885080	0.676100	0.680500
Cu31	Cu3	0.741540	0.810540	0.496570
N171	N17	0.929150	0.702210	0.214300
H391	H39	0.887500	0.688400	0.385800
C831	C83	0.924030	0.678400	0.302200
H401	H40	0.898200	0.719600	0.886700
C841	C84	0.914320	0.649860	0.795400
N181	N18	0.906170	0.637650	0.704000
C851	C85	0.943860	0.634050	0.350900
C861	C86	0.937030	0.613510	0.845300
C871	C87	0.969970	0.613110	0.308950
C881	C88	0.938100	0.614600	0.441000
C891	C89	0.946570	0.632130	0.932000
C901	C90	0.947340	0.556810	0.807800
H411	H41	0.975400	0.628700	0.249800
C911	C91	0.987500	0.569770	0.354800
C921	C92	0.955710	0.570710	0.488300
H421	H42	0.921900	0.631100	0.472100
H431	H43	0.939200	0.669200	0.959200
C931	C93	0.967220	0.596440	0.980900
H441	H44	0.940300	0.542200	0.750000
C941	C94	0.967780	0.522210	0.855110
H451	H45	0.004500	0.556200	0.325200
C951	C95	0.980810	0.545910	0.442690
H461	H46	0.951000	0.557700	0.549500
H471	H47	0.973200	0.609500	0.040900
C961	C96	0.979040	0.541710	0.941260
H481	H48	0.974400	0.484200	0.828600
O251	O25	0.309390	0.432970	0.096370
O261	O26	0.309660	0.434390	0.898860
O271	O27	0.358090	0.437040	0.099820
O281	O28	0.357890	0.430250	0.907670
C971	C97	0.333230	0.413990	0.123600
C981	C98	0.334300	0.412640	0.876700
C991	C99	0.334450	0.359790	0.191800
C1001	C100	0.334260	0.355820	0.810900
C1011	C101	0.311490	0.345050	0.248000
C1021	C102	0.360360	0.324050	0.197200
C1031	C103	0.310910	0.344530	0.747400
C1041	C104	0.357510	0.315450	0.810800
C1051	C105	0.312600	0.291020	0.308900
H491	H49	0.294900	0.370500	0.246700
C1061	C106	0.361160	0.271680	0.255900
H501	H50	0.376600	0.335700	0.161800
H511	H51	0.295200	0.372400	0.746000
C1071	C107	0.311400	0.293350	0.688800
H521	H52	0.373400	0.323500	0.849900
C1081	C108	0.357360	0.261580	0.751400
C1091	C109	0.288080	0.275980	0.373000
C1101	C110	0.337340	0.255090	0.312900
N191	N19	0.387600	0.234230	0.257800
C1111	C111	0.287060	0.278100	0.620000
C1121	C112	0.334640	0.248910	0.692800
N201	N20	0.380490	0.216940	0.753400
O291	O29	0.271290	0.320450	0.395620
O301	O30	0.286630	0.219800	0.402550
H531	H53	0.338400	0.219900	0.353000
N211	N21	0.406890	0.236900	0.188700
C1131	C113	0.397110	0.198050	0.329600
O311	O31	0.271610	0.323910	0.593060
O321	O32	0.284620	0.220640	0.595530
H541	H54	0.334300	0.212000	0.656200
C1141	C114	0.397680	0.200630	0.827100
N221	N22	0.385080	0.176100	0.680500
Cu41	Cu4	0.241540	0.310540	0.496570
N231	N23	0.429150	0.202210	0.214300
H551	H55	0.387500	0.188400	0.385800
C1151	C115	0.424030	0.178400	0.302200
H561	H56	0.398200	0.219600	0.886700
C1161	C116	0.414320	0.149860	0.795400
N241	N24	0.406170	0.137650	0.704000
C1171	C117	0.443860	0.134050	0.350900
C1181	C118	0.437030	0.113510	0.845300
C1191	C119	0.469970	0.113110	0.308950
C1201	C120	0.438100	0.114600	0.441000
C1211	C121	0.446570	0.132130	0.932000
C1221	C122	0.447340	0.056810	0.807800
H571	H57	0.475400	0.128700	0.249800
C1231	C123	0.487500	0.069770	0.354800
C1241	C124	0.455710	0.070710	0.488300
H581	H58	0.421900	0.131100	0.472100
H591	H59	0.439200	0.169200	0.959200
C1251	C125	0.467220	0.096440	0.980900
H601	H60	0.440300	0.042200	0.750000
C1261	C126	0.467780	0.022210	0.855110
H611	H61	0.504500	0.056200	0.325200
C1271	C127	0.480810	0.045910	0.442690
H621	H62	0.451000	0.057700	0.549500
H631	H63	0.473200	0.109500	0.040900
C1281	C128	0.479040	0.041710	0.941260
H641	H64	0.474400	0.984200	0.828600
O331	O33	0.809390	0.067030	0.903630
O341	O34	0.809660	0.065610	0.101140
O351	O35	0.858090	0.062960	0.900180
O361	O36	0.857890	0.069750	0.092330
C1291	C129	0.833230	0.086010	0.876400
C1301	C130	0.834300	0.087360	0.123300
C1311	C131	0.834450	0.140210	0.808200
C1321	C132	0.834260	0.144180	0.189100
C1331	C133	0.811490	0.154950	0.752000
C1341	C134	0.860360	0.175950	0.802800
C1351	C135	0.810910	0.155470	0.252600
C1361	C136	0.857510	0.184550	0.189200
C1371	C137	0.812600	0.208980	0.691100
H651	H65	0.794900	0.129500	0.753300
C1381	C138	0.861160	0.228320	0.744100
H661	H66	0.876600	0.164300	0.838200
H671	H67	0.795200	0.127600	0.254000
C1391	C139	0.811400	0.206650	0.311200
H681	H68	0.873400	0.176500	0.150100
C1401	C140	0.857360	0.238420	0.248600
C1411	C141	0.788080	0.224020	0.627000
C1421	C142	0.837340	0.244910	0.687100
N251	N25	0.887600	0.265770	0.742200
C1431	C143	0.787060	0.221900	0.380000
C1441	C144	0.834640	0.251090	0.307200
N261	N26	0.880490	0.283060	0.246600
O371	O37	0.771290	0.179550	0.604380
O381	O38	0.786630	0.280200	0.597450
H691	H69	0.838400	0.280100	0.647000
N271	N27	0.906890	0.263100	0.811300
C1451	C145	0.897110	0.301950	0.670400
O391	O39	0.771610	0.176090	0.406940
O401	O40	0.784620	0.279360	0.404470
H701	H70	0.834300	0.288000	0.343800
C1461	C146	0.897680	0.299370	0.172900
N281	N28	0.885080	0.323900	0.319500
Cu51	Cu5	0.741540	0.189460	0.503430
N291	N29	0.929150	0.297790	0.785700
H711	H71	0.887500	0.311600	0.614200
C1471	C147	0.924030	0.321600	0.697800
H721	H72	0.898200	0.280400	0.113300
C1481	C148	0.914320	0.350140	0.204600
N301	N30	0.906170	0.362350	0.296000
C1491	C149	0.943860	0.365950	0.649100
C1501	C150	0.937030	0.386490	0.154700
C1511	C151	0.969970	0.386890	0.691050
C1521	C152	0.938100	0.385400	0.559000
C1531	C153	0.946570	0.367870	0.068000
C1541	C154	0.947340	0.443190	0.192200
H731	H73	0.975400	0.371300	0.750200
C1551	C155	0.987500	0.430230	0.645200
C1561	C156	0.955710	0.429290	0.511700
H741	H74	0.921900	0.368900	0.527900
H751	H75	0.939200	0.330800	0.040800
C1571	C157	0.967220	0.403560	0.019100
H761	H76	0.940300	0.457800	0.250000
C1581	C158	0.967780	0.477790	0.144890
H771	H77	0.004500	0.443800	0.674800
C1591	C159	0.980810	0.454090	0.557310
H781	H78	0.951000	0.442300	0.450500
H791	H79	0.973200	0.390500	0.959100
C1601	C160	0.979040	0.458290	0.058740
H801	H80	0.974400	0.515800	0.171400
O411	O41	0.309390	0.567030	0.903630
O421	O42	0.309660	0.565610	0.101140
O431	O43	0.358090	0.562960	0.900180
O441	O44	0.357890	0.569750	0.092330
C1611	C161	0.333230	0.586010	0.876400
C1621	C162	0.334300	0.587360	0.123300
C1631	C163	0.334450	0.640210	0.808200
C1641	C164	0.334260	0.644180	0.189100
C1651	C165	0.311490	0.654950	0.752000
C1661	C166	0.360360	0.675950	0.802800
C1671	C167	0.310910	0.655470	0.252600
C1681	C168	0.357510	0.684550	0.189200
C1691	C169	0.312600	0.708980	0.691100
H811	H81	0.294900	0.629500	0.753300
C1701	C170	0.361160	0.728320	0.744100
H821	H82	0.376600	0.664300	0.838200
H831	H83	0.295200	0.627600	0.254000
C1711	C171	0.311400	0.706650	0.311200
H841	H84	0.373400	0.676500	0.150100
C1721	C172	0.357360	0.738420	0.248600
C1731	C173	0.288080	0.724020	0.627000
C1741	C174	0.337340	0.744910	0.687100
N311	N31	0.387600	0.765770	0.742200
C1751	C175	0.287060	0.721900	0.380000
C1761	C176	0.334640	0.751090	0.307200
N321	N32	0.380490	0.783060	0.246600
O451	O45	0.271290	0.679550	0.604380
O461	O46	0.286630	0.780200	0.597450
H851	H85	0.338400	0.780100	0.647000
N331	N33	0.406890	0.763100	0.811300
C1771	C177	0.397110	0.801950	0.670400
O471	O47	0.271610	0.676090	0.406940
O481	O48	0.284620	0.779360	0.404470
H861	H86	0.334300	0.788000	0.343800
C1781	C178	0.397680	0.799370	0.172900
N341	N34	0.385080	0.823900	0.319500
Cu61	Cu6	0.241540	0.689460	0.503430
N351	N35	0.429150	0.797790	0.785700
H871	H87	0.387500	0.811600	0.614200
C1791	C179	0.424030	0.821600	0.697800
H881	H88	0.398200	0.780400	0.113300
C1801	C180	0.414320	0.850140	0.204600
N361	N36	0.406170	0.862350	0.296000
C1811	C181	0.443860	0.865950	0.649100
C1821	C182	0.437030	0.886490	0.154700
C1831	C183	0.469970	0.886890	0.691050
C1841	C184	0.438100	0.885400	0.559000
C1851	C185	0.446570	0.867870	0.068000
C1861	C186	0.447340	0.943190	0.192200
H891	H89	0.475400	0.871300	0.750200
C1871	C187	0.487500	0.930230	0.645200
C1881	C188	0.455710	0.929290	0.511700
H901	H90	0.421900	0.868900	0.527900
H911	H91	0.439200	0.830800	0.040800
C1891	C189	0.467220	0.903560	0.019100
H921	H92	0.440300	0.957800	0.250000
C1901	C190	0.467780	0.977790	0.144890
H931	H93	0.504500	0.943800	0.674800
C1911	C191	0.480810	0.954090	0.557310
H941	H94	0.451000	0.942300	0.450500
H951	H95	0.473200	0.890500	0.959100
C1921	C192	0.479040	0.958290	0.058740
H961	H96	0.474400	0.015800	0.171400
O491	O49	0.190610	0.932970	0.903630
O501	O50	0.190340	0.934390	0.101140
O511	O51	0.141910	0.937040	0.900180
O521	O52	0.142110	0.930250	0.092330
C1931	C193	0.166770	0.913990	0.876400
C1941	C194	0.165700	0.912640	0.123300
C1951	C195	0.165550	0.859790	0.808200
C1961	C196	0.165740	0.855820	0.189100
C1971	C197	0.188510	0.845050	0.752000
C1981	C198	0.139640	0.824050	0.802800
C1991	C199	0.189090	0.844530	0.252600
C2001	C200	0.142490	0.815450	0.189200
C2011	C201	0.187400	0.791020	0.691100
H971	H97	0.205100	0.870500	0.753300
C2021	C202	0.138840	0.771680	0.744100
H981	H98	0.123400	0.835700	0.838200
H991	H99	0.204800	0.872400	0.254000
C2031	C203	0.188600	0.793350	0.311200
H1001	H100	0.126600	0.823500	0.150100
C2041	C204	0.142640	0.761580	0.248600
C2051	C205	0.211920	0.775980	0.627000
C2061	C206	0.162660	0.755090	0.687100
N371	N37	0.112400	0.734230	0.742200
C2071	C207	0.212940	0.778100	0.380000
C2081	C208	0.165360	0.748910	0.307200
N381	N38	0.119510	0.716940	0.246600
O531	O53	0.228710	0.820450	0.604380
O541	O54	0.213370	0.719800	0.597450
H1011	H101	0.161600	0.719900	0.647000
N391	N39	0.093110	0.736900	0.811300
C2091	C209	0.102890	0.698050	0.670400
O551	O55	0.228390	0.823910	0.406940
O561	O56	0.215380	0.720640	0.404470
H1021	H102	0.165700	0.712000	0.343800
C2101	C210	0.102320	0.700630	0.172900
N401	N40	0.114920	0.676100	0.319500
Cu71	Cu7	0.258460	0.810540	0.503430
N411	N41	0.070850	0.702210	0.785700
H1031	H103	0.112500	0.688400	0.614200
C2111	C211	0.075970	0.678400	0.697800
H1041	H104	0.101800	0.719600	0.113300
C2121	C212	0.085680	0.649860	0.204600
N421	N42	0.093830	0.637650	0.296000
C2131	C213	0.056140	0.634050	0.649100
C2141	C214	0.062970	0.613510	0.154700
C2151	C215	0.030030	0.613110	0.691050
C2161	C216	0.061900	0.614600	0.559000
C2171	C217	0.053430	0.632130	0.068000
C2181	C218	0.052660	0.556810	0.192200
H1051	H105	0.024600	0.628700	0.750200
C2191	C219	0.012500	0.569770	0.645200
C2201	C220	0.044290	0.570710	0.511700
H1061	H106	0.078100	0.631100	0.527900
H1071	H107	0.060800	0.669200	0.040800
C2211	C221	0.032780	0.596440	0.019100
H1081	H108	0.059700	0.542200	0.250000
C2221	C222	0.032220	0.522210	0.144890
H1091	H109	0.995500	0.556200	0.674800
C2231	C223	0.019190	0.545910	0.557310
H1101	H110	0.049000	0.557700	0.450500
H1111	H111	0.026800	0.609500	0.959100
C2241	C224	0.020960	0.541710	0.058740
H1121	H112	0.025600	0.484200	0.171400
O571	O57	0.690610	0.432970	0.903630
O581	O58	0.690340	0.434390	0.101140
O591	O59	0.641910	0.437040	0.900180
O601	O60	0.642110	0.430250	0.092330
C2251	C225	0.666770	0.413990	0.876400
C2261	C226	0.665700	0.412640	0.123300
C2271	C227	0.665550	0.359790	0.808200
C2281	C228	0.665740	0.355820	0.189100
C2291	C229	0.688510	0.345050	0.752000
C2301	C230	0.639640	0.324050	0.802800
C2311	C231	0.689090	0.344530	0.252600
C2321	C232	0.642490	0.315450	0.189200
C2331	C233	0.687400	0.291020	0.691100
H1131	H113	0.705100	0.370500	0.753300
C2341	C234	0.638840	0.271680	0.744100
H1141	H114	0.623400	0.335700	0.838200
H1151	H115	0.704800	0.372400	0.254000
C2351	C235	0.688600	0.293350	0.311200
H1161	H116	0.626600	0.323500	0.150100
C2361	C236	0.642640	0.261580	0.248600
C2371	C237	0.711920	0.275980	0.627000
C2381	C238	0.662660	0.255090	0.687100
N431	N43	0.612400	0.234230	0.742200
C2391	C239	0.712940	0.278100	0.380000
C2401	C240	0.665360	0.248910	0.307200
N441	N44	0.619510	0.216940	0.246600
O611	O61	0.728710	0.320450	0.604380
O621	O62	0.713370	0.219800	0.597450
H1171	H117	0.661600	0.219900	0.647000
N451	N45	0.593110	0.236900	0.811300
C2411	C241	0.602890	0.198050	0.670400
O631	O63	0.728390	0.323910	0.406940
O641	O64	0.715380	0.220640	0.404470
H1181	H118	0.665700	0.212000	0.343800
C2421	C242	0.602320	0.200630	0.172900
N461	N46	0.614920	0.176100	0.319500
Cu81	Cu8	0.758460	0.310540	0.503430
N471	N47	0.570850	0.202210	0.785700
H1191	H119	0.612500	0.188400	0.614200
C2431	C243	0.575970	0.178400	0.697800
H1201	H120	0.601800	0.219600	0.113300
C2441	C244	0.585680	0.149860	0.204600
N481	N48	0.593830	0.137650	0.296000
C2451	C245	0.556140	0.134050	0.649100
C2461	C246	0.562970	0.113510	0.154700
C2471	C247	0.530030	0.113110	0.691050
C2481	C248	0.561900	0.114600	0.559000
C2491	C249	0.553430	0.132130	0.068000
C2501	C250	0.552660	0.056810	0.192200
H1211	H121	0.524600	0.128700	0.750200
C2511	C251	0.512500	0.069770	0.645200
C2521	C252	0.544290	0.070710	0.511700
H1221	H122	0.578100	0.131100	0.527900
H1231	H123	0.560800	0.169200	0.040800
C2531	C253	0.532780	0.096440	0.019100
H1241	H124	0.559700	0.042200	0.250000
C2541	C254	0.532220	0.022210	0.144890
H1251	H125	0.495500	0.056200	0.674800
C2551	C255	0.519190	0.045910	0.557310
H1261	H126	0.549000	0.057700	0.450500
H1271	H127	0.526800	0.109500	0.959100
C2561	C256	0.520960	0.041710	0.058740
H1281	H128	0.525600	0.984200	0.171400
Cu91	Cu9	0.195120	0.000000	0.000000
Cu101	Cu10	0.137550	0.000000	0.000000
Cu111	Cu11	0.695120	0.500000	0.000000
Cu121	Cu12	0.637550	0.500000	0.000000
Cu131	Cu13	0.804880	0.000000	0.000000
Cu141	Cu14	0.862450	0.000000	0.000000
Cu151	Cu15	0.304880	0.500000	0.000000
Cu161	Cu16	0.362450	0.500000	0.000000
C2571	C257	0.000000	0.500000	0.500000
C2581	C258	0.500000	0.000000	0.500000
C2591	C259	0.000000	0.500000	0.000000
C2601	C260	0.500000	0.000000	0.000000
