data_QAGQEW_clean_PM
_symmetry_space_group_name_H-M	'P1'
_cell_length_a	27.722000
_cell_length_b	27.722000
_cell_length_c	27.722000
_cell_angle_alpha	60.000000
_cell_angle_beta	60.000000
_cell_angle_gamma	60.000000
_symmetry_Int_Tables_number 1

loop_
_symmetry_equiv_pos_as_xyz
'x,y,z'

loop_
_atom_site_label
_atom_site_type_symbol
_atom_site_fract_x
_atom_site_fract_y
_atom_site_fract_z
Cd11	Cd1	0.542810	0.088980	0.911020
Cd21	Cd2	0.088980	0.542810	0.457190
Cd31	Cd3	0.911020	0.457190	0.542810
Cd41	Cd4	0.457190	0.911020	0.088980
Cd51	Cd5	0.542810	0.911020	0.457190
Cd61	Cd6	0.088980	0.457190	0.911020
Cd71	Cd7	0.911020	0.542810	0.088980
Cd81	Cd8	0.457190	0.088980	0.542810
Cd91	Cd9	0.542810	0.457190	0.088980
Cd101	Cd10	0.088980	0.911020	0.542810
Cd111	Cd11	0.911020	0.088980	0.457190
Cd121	Cd12	0.457190	0.542810	0.911020
Cd131	Cd13	0.411020	0.957190	0.588980
Cd141	Cd14	0.957190	0.411020	0.042810
Cd151	Cd15	0.042810	0.588980	0.957190
Cd161	Cd16	0.588980	0.042810	0.411020
Cd171	Cd17	0.588980	0.957190	0.042810
Cd181	Cd18	0.042810	0.411020	0.588980
Cd191	Cd19	0.957190	0.588980	0.411020
Cd201	Cd20	0.411020	0.042810	0.957190
Cd211	Cd21	0.042810	0.957190	0.411020
Cd221	Cd22	0.588980	0.411020	0.957190
Cd231	Cd23	0.411020	0.588980	0.042810
Cd241	Cd24	0.957190	0.042810	0.588980
H11	H1	0.555700	0.038700	0.116300
H21	H2	0.038700	0.555700	0.289300
H31	H3	0.116300	0.289300	0.555700
H41	H4	0.289300	0.116300	0.038700
H51	H5	0.555700	0.116300	0.289300
H61	H6	0.038700	0.289300	0.116300
H71	H7	0.116300	0.555700	0.038700
H81	H8	0.289300	0.038700	0.555700
H91	H9	0.555700	0.289300	0.038700
H101	H10	0.038700	0.116300	0.555700
H111	H11	0.116300	0.038700	0.289300
H121	H12	0.289300	0.555700	0.116300
H131	H13	0.461300	0.944300	0.383700
H141	H14	0.944300	0.461300	0.210700
H151	H15	0.210700	0.383700	0.944300
H161	H16	0.383700	0.210700	0.461300
H171	H17	0.383700	0.944300	0.210700
H181	H18	0.210700	0.461300	0.383700
H191	H19	0.944300	0.383700	0.461300
H201	H20	0.461300	0.210700	0.944300
H211	H21	0.210700	0.944300	0.461300
H221	H22	0.383700	0.461300	0.944300
H231	H23	0.461300	0.383700	0.210700
H241	H24	0.944300	0.210700	0.383700
H251	H25	0.444300	0.961300	0.883700
H261	H26	0.961300	0.444300	0.710700
H271	H27	0.883700	0.710700	0.444300
H281	H28	0.710700	0.883700	0.961300
H291	H29	0.444300	0.883700	0.710700
H301	H30	0.961300	0.710700	0.883700
H311	H31	0.883700	0.444300	0.961300
H321	H32	0.710700	0.961300	0.444300
H331	H33	0.444300	0.710700	0.961300
H341	H34	0.961300	0.883700	0.444300
H351	H35	0.883700	0.961300	0.710700
H361	H36	0.710700	0.444300	0.883700
H371	H37	0.538700	0.055700	0.616300
H381	H38	0.055700	0.538700	0.789300
H391	H39	0.789300	0.616300	0.055700
H401	H40	0.616300	0.789300	0.538700
H411	H41	0.616300	0.055700	0.789300
H421	H42	0.789300	0.538700	0.616300
H431	H43	0.055700	0.616300	0.538700
H441	H44	0.538700	0.789300	0.055700
H451	H45	0.789300	0.055700	0.538700
H461	H46	0.616300	0.538700	0.055700
H471	H47	0.538700	0.616300	0.789300
H481	H48	0.055700	0.789300	0.616300
C11	C1	0.552410	0.103450	0.997150
C21	C2	0.558250	0.115510	0.040010
C31	C3	0.558590	0.077070	0.097950
C41	C4	0.564380	0.108160	0.124040
C51	C5	0.564860	0.165560	0.087400
C61	C6	0.103450	0.552410	0.346990
C71	C7	0.115510	0.558250	0.286230
C81	C8	0.077070	0.558590	0.266390
C91	C9	0.108160	0.564380	0.203420
C101	C10	0.165560	0.564860	0.182180
C111	C11	0.997150	0.346990	0.552410
C121	C12	0.040010	0.286230	0.558250
C131	C13	0.097950	0.266390	0.558590
C141	C14	0.124040	0.203420	0.564380
C151	C15	0.087400	0.182180	0.564860
C161	C16	0.346990	0.997150	0.103450
C171	C17	0.286230	0.040010	0.115510
C181	C18	0.266390	0.097950	0.077070
C191	C19	0.203420	0.124040	0.108160
C201	C20	0.182180	0.087400	0.165560
C211	C21	0.552410	0.997150	0.346990
C221	C22	0.558250	0.040010	0.286230
C231	C23	0.558590	0.097950	0.266390
C241	C24	0.564380	0.124040	0.203420
C251	C25	0.564860	0.087400	0.182180
C261	C26	0.103450	0.346990	0.997150
C271	C27	0.115510	0.286230	0.040010
C281	C28	0.077070	0.266390	0.097950
C291	C29	0.108160	0.203420	0.124040
C301	C30	0.165560	0.182180	0.087400
C311	C31	0.997150	0.552410	0.103450
C321	C32	0.040010	0.558250	0.115510
C331	C33	0.097950	0.558590	0.077070
C341	C34	0.124040	0.564380	0.108160
C351	C35	0.087400	0.564860	0.165560
C361	C36	0.346990	0.103450	0.552410
C371	C37	0.286230	0.115510	0.558250
C381	C38	0.266390	0.077070	0.558590
C391	C39	0.203420	0.108160	0.564380
C401	C40	0.182180	0.165560	0.564860
C411	C41	0.552410	0.346990	0.103450
C421	C42	0.558250	0.286230	0.115510
C431	C43	0.558590	0.266390	0.077070
C441	C44	0.564380	0.203420	0.108160
C451	C45	0.564860	0.182180	0.165560
C461	C46	0.103450	0.997150	0.552410
C471	C47	0.115510	0.040010	0.558250
C481	C48	0.077070	0.097950	0.558590
C491	C49	0.108160	0.124040	0.564380
C501	C50	0.165560	0.087400	0.564860
C511	C51	0.997150	0.103450	0.346990
C521	C52	0.040010	0.115510	0.286230
C531	C53	0.097950	0.077070	0.266390
C541	C54	0.124040	0.108160	0.203420
C551	C55	0.087400	0.165560	0.182180
C561	C56	0.346990	0.552410	0.997150
C571	C57	0.286230	0.558250	0.040010
C581	C58	0.266390	0.558590	0.097950
C591	C59	0.203420	0.564380	0.124040
C601	C60	0.182180	0.564860	0.087400
C611	C61	0.396550	0.947590	0.502850
C621	C62	0.384490	0.941750	0.459990
C631	C63	0.422930	0.941410	0.402050
C641	C64	0.391840	0.935620	0.375960
C651	C65	0.334440	0.935140	0.412600
C661	C66	0.947590	0.396550	0.153010
C671	C67	0.941750	0.384490	0.213770
C681	C68	0.941410	0.422930	0.233610
C691	C69	0.935620	0.391840	0.296580
C701	C70	0.935140	0.334440	0.317820
C711	C71	0.153010	0.502850	0.947590
C721	C72	0.213770	0.459990	0.941750
C731	C73	0.233610	0.402050	0.941410
C741	C74	0.296580	0.375960	0.935620
C751	C75	0.317820	0.412600	0.935140
C761	C76	0.502850	0.153010	0.396550
C771	C77	0.459990	0.213770	0.384490
C781	C78	0.402050	0.233610	0.422930
C791	C79	0.375960	0.296580	0.391840
C801	C80	0.412600	0.317820	0.334440
C811	C81	0.502850	0.947590	0.153010
C821	C82	0.459990	0.941750	0.213770
C831	C83	0.402050	0.941410	0.233610
C841	C84	0.375960	0.935620	0.296580
C851	C85	0.412600	0.935140	0.317820
C861	C86	0.153010	0.396550	0.502850
C871	C87	0.213770	0.384490	0.459990
C881	C88	0.233610	0.422930	0.402050
C891	C89	0.296580	0.391840	0.375960
C901	C90	0.317820	0.334440	0.412600
C911	C91	0.947590	0.502850	0.396550
C921	C92	0.941750	0.459990	0.384490
C931	C93	0.941410	0.402050	0.422930
C941	C94	0.935620	0.375960	0.391840
C951	C95	0.935140	0.412600	0.334440
C961	C96	0.396550	0.153010	0.947590
C971	C97	0.384490	0.213770	0.941750
C981	C98	0.422930	0.233610	0.941410
C991	C99	0.391840	0.296580	0.935620
C1001	C100	0.334440	0.317820	0.935140
C1011	C101	0.153010	0.947590	0.396550
C1021	C102	0.213770	0.941750	0.384490
C1031	C103	0.233610	0.941410	0.422930
C1041	C104	0.296580	0.935620	0.391840
C1051	C105	0.317820	0.935140	0.334440
C1061	C106	0.502850	0.396550	0.947590
C1071	C107	0.459990	0.384490	0.941750
C1081	C108	0.402050	0.422930	0.941410
C1091	C109	0.375960	0.391840	0.935620
C1101	C110	0.412600	0.334440	0.935140
C1111	C111	0.396550	0.502850	0.153010
C1121	C112	0.384490	0.459990	0.213770
C1131	C113	0.422930	0.402050	0.233610
C1141	C114	0.391840	0.375960	0.296580
C1151	C115	0.334440	0.412600	0.317820
C1161	C116	0.947590	0.153010	0.502850
C1171	C117	0.941750	0.213770	0.459990
C1181	C118	0.941410	0.233610	0.402050
C1191	C119	0.935620	0.296580	0.375960
C1201	C120	0.935140	0.317820	0.412600
C1211	C121	0.447590	0.896550	0.002850
C1221	C122	0.441750	0.884490	0.959990
C1231	C123	0.441410	0.922930	0.902050
C1241	C124	0.435620	0.891840	0.875960
C1251	C125	0.435140	0.834440	0.912600
C1261	C126	0.896550	0.447590	0.653010
C1271	C127	0.884490	0.441750	0.713770
C1281	C128	0.922930	0.441410	0.733610
C1291	C129	0.891840	0.435620	0.796580
C1301	C130	0.834440	0.435140	0.817820
C1311	C131	0.002850	0.653010	0.447590
C1321	C132	0.959990	0.713770	0.441750
C1331	C133	0.902050	0.733610	0.441410
C1341	C134	0.875960	0.796580	0.435620
C1351	C135	0.912600	0.817820	0.435140
C1361	C136	0.653010	0.002850	0.896550
C1371	C137	0.713770	0.959990	0.884490
C1381	C138	0.733610	0.902050	0.922930
C1391	C139	0.796580	0.875960	0.891840
C1401	C140	0.817820	0.912600	0.834440
C1411	C141	0.447590	0.002850	0.653010
C1421	C142	0.441750	0.959990	0.713770
C1431	C143	0.441410	0.902050	0.733610
C1441	C144	0.435620	0.875960	0.796580
C1451	C145	0.435140	0.912600	0.817820
C1461	C146	0.896550	0.653010	0.002850
C1471	C147	0.884490	0.713770	0.959990
C1481	C148	0.922930	0.733610	0.902050
C1491	C149	0.891840	0.796580	0.875960
C1501	C150	0.834440	0.817820	0.912600
C1511	C151	0.002850	0.447590	0.896550
C1521	C152	0.959990	0.441750	0.884490
C1531	C153	0.902050	0.441410	0.922930
C1541	C154	0.875960	0.435620	0.891840
C1551	C155	0.912600	0.435140	0.834440
C1561	C156	0.653010	0.896550	0.447590
C1571	C157	0.713770	0.884490	0.441750
C1581	C158	0.733610	0.922930	0.441410
C1591	C159	0.796580	0.891840	0.435620
C1601	C160	0.817820	0.834440	0.435140
C1611	C161	0.447590	0.653010	0.896550
C1621	C162	0.441750	0.713770	0.884490
C1631	C163	0.441410	0.733610	0.922930
C1641	C164	0.435620	0.796580	0.891840
C1651	C165	0.435140	0.817820	0.834440
C1661	C166	0.896550	0.002850	0.447590
C1671	C167	0.884490	0.959990	0.441750
C1681	C168	0.922930	0.902050	0.441410
C1691	C169	0.891840	0.875960	0.435620
C1701	C170	0.834440	0.912600	0.435140
C1711	C171	0.002850	0.896550	0.653010
C1721	C172	0.959990	0.884490	0.713770
C1731	C173	0.902050	0.922930	0.733610
C1741	C174	0.875960	0.891840	0.796580
C1751	C175	0.912600	0.834440	0.817820
C1761	C176	0.653010	0.447590	0.002850
C1771	C177	0.713770	0.441750	0.959990
C1781	C178	0.733610	0.441410	0.902050
C1791	C179	0.796580	0.435620	0.875960
C1801	C180	0.817820	0.435140	0.912600
C1811	C181	0.603450	0.052410	0.497150
C1821	C182	0.615510	0.058250	0.540010
C1831	C183	0.577070	0.058590	0.597950
C1841	C184	0.608160	0.064380	0.624040
C1851	C185	0.665560	0.064860	0.587400
C1861	C186	0.052410	0.603450	0.846990
C1871	C187	0.058250	0.615510	0.786230
C1881	C188	0.058590	0.577070	0.766390
C1891	C189	0.064380	0.608160	0.703420
C1901	C190	0.064860	0.665560	0.682180
C1911	C191	0.846990	0.497150	0.052410
C1921	C192	0.786230	0.540010	0.058250
C1931	C193	0.766390	0.597950	0.058590
C1941	C194	0.703420	0.624040	0.064380
C1951	C195	0.682180	0.587400	0.064860
C1961	C196	0.497150	0.846990	0.603450
C1971	C197	0.540010	0.786230	0.615510
C1981	C198	0.597950	0.766390	0.577070
C1991	C199	0.624040	0.703420	0.608160
C2001	C200	0.587400	0.682180	0.665560
C2011	C201	0.497150	0.052410	0.846990
C2021	C202	0.540010	0.058250	0.786230
C2031	C203	0.597950	0.058590	0.766390
C2041	C204	0.624040	0.064380	0.703420
C2051	C205	0.587400	0.064860	0.682180
C2061	C206	0.846990	0.603450	0.497150
C2071	C207	0.786230	0.615510	0.540010
C2081	C208	0.766390	0.577070	0.597950
C2091	C209	0.703420	0.608160	0.624040
C2101	C210	0.682180	0.665560	0.587400
C2111	C211	0.052410	0.497150	0.603450
C2121	C212	0.058250	0.540010	0.615510
C2131	C213	0.058590	0.597950	0.577070
C2141	C214	0.064380	0.624040	0.608160
C2151	C215	0.064860	0.587400	0.665560
C2161	C216	0.603450	0.846990	0.052410
C2171	C217	0.615510	0.786230	0.058250
C2181	C218	0.577070	0.766390	0.058590
C2191	C219	0.608160	0.703420	0.064380
C2201	C220	0.665560	0.682180	0.064860
C2211	C221	0.846990	0.052410	0.603450
C2221	C222	0.786230	0.058250	0.615510
C2231	C223	0.766390	0.058590	0.577070
C2241	C224	0.703420	0.064380	0.608160
C2251	C225	0.682180	0.064860	0.665560
C2261	C226	0.497150	0.603450	0.052410
C2271	C227	0.540010	0.615510	0.058250
C2281	C228	0.597950	0.577070	0.058590
C2291	C229	0.624040	0.608160	0.064380
C2301	C230	0.587400	0.665560	0.064860
C2311	C231	0.603450	0.497150	0.846990
C2321	C232	0.615510	0.540010	0.786230
C2331	C233	0.577070	0.597950	0.766390
C2341	C234	0.608160	0.624040	0.703420
C2351	C235	0.665560	0.587400	0.682180
C2361	C236	0.052410	0.846990	0.497150
C2371	C237	0.058250	0.786230	0.540010
C2381	C238	0.058590	0.766390	0.597950
C2391	C239	0.064380	0.703420	0.624040
C2401	C240	0.064860	0.682180	0.587400
S11	S1	0.563260	0.183760	0.019200
S21	S2	0.183760	0.563260	0.233780
S31	S3	0.019200	0.233780	0.563260
S41	S4	0.233780	0.019200	0.183760
S51	S5	0.563260	0.019200	0.233780
S61	S6	0.183760	0.233780	0.019200
S71	S7	0.019200	0.563260	0.183760
S81	S8	0.233780	0.183760	0.563260
S91	S9	0.563260	0.233780	0.183760
S101	S10	0.183760	0.019200	0.563260
S111	S11	0.019200	0.183760	0.233780
S121	S12	0.233780	0.563260	0.019200
S131	S13	0.316240	0.936740	0.480800
S141	S14	0.936740	0.316240	0.266220
S151	S15	0.266220	0.480800	0.936740
S161	S16	0.480800	0.266220	0.316240
S171	S17	0.480800	0.936740	0.266220
S181	S18	0.266220	0.316240	0.480800
S191	S19	0.936740	0.480800	0.316240
S201	S20	0.316240	0.266220	0.936740
S211	S21	0.266220	0.936740	0.316240
S221	S22	0.480800	0.316240	0.936740
S231	S23	0.316240	0.480800	0.266220
S241	S24	0.936740	0.266220	0.480800
S251	S25	0.436740	0.816240	0.980800
S261	S26	0.816240	0.436740	0.766220
S271	S27	0.980800	0.766220	0.436740
S281	S28	0.766220	0.980800	0.816240
S291	S29	0.436740	0.980800	0.766220
S301	S30	0.816240	0.766220	0.980800
S311	S31	0.980800	0.436740	0.816240
S321	S32	0.766220	0.816240	0.436740
S331	S33	0.436740	0.766220	0.816240
S341	S34	0.816240	0.980800	0.436740
S351	S35	0.980800	0.816240	0.766220
S361	S36	0.766220	0.436740	0.980800
S371	S37	0.683760	0.063260	0.519200
S381	S38	0.063260	0.683760	0.733780
S391	S39	0.733780	0.519200	0.063260
S401	S40	0.519200	0.733780	0.683760
S411	S41	0.519200	0.063260	0.733780
S421	S42	0.733780	0.683760	0.519200
S431	S43	0.063260	0.519200	0.683760
S441	S44	0.683760	0.733780	0.063260
S451	S45	0.733780	0.063260	0.683760
S461	S46	0.519200	0.683760	0.063260
S471	S47	0.683760	0.519200	0.733780
S481	S48	0.063260	0.733780	0.519200
O11	O1	0.540540	0.057160	0.014480
O21	O2	0.556360	0.140440	0.946020
O31	O3	0.057160	0.540540	0.387820
O41	O4	0.140440	0.556360	0.357180
O51	O5	0.014480	0.387820	0.540540
O61	O6	0.946020	0.357180	0.556360
O71	O7	0.387820	0.014480	0.057160
O81	O8	0.357180	0.946020	0.140440
O91	O9	0.540540	0.014480	0.387820
O101	O10	0.556360	0.946020	0.357180
O111	O11	0.057160	0.387820	0.014480
O121	O12	0.140440	0.357180	0.946020
O131	O13	0.014480	0.540540	0.057160
O141	O14	0.946020	0.556360	0.140440
O151	O15	0.387820	0.057160	0.540540
O161	O16	0.357180	0.140440	0.556360
O171	O17	0.540540	0.387820	0.057160
O181	O18	0.556360	0.357180	0.140440
O191	O19	0.057160	0.014480	0.540540
O201	O20	0.140440	0.946020	0.556360
O211	O21	0.014480	0.057160	0.387820
O221	O22	0.946020	0.140440	0.357180
O231	O23	0.387820	0.540540	0.014480
O241	O24	0.357180	0.556360	0.946020
O251	O25	0.442840	0.959460	0.485520
O261	O26	0.359560	0.943640	0.553980
O271	O27	0.959460	0.442840	0.112180
O281	O28	0.943640	0.359560	0.142820
O291	O29	0.112180	0.485520	0.959460
O301	O30	0.142820	0.553980	0.943640
O311	O31	0.485520	0.112180	0.442840
O321	O32	0.553980	0.142820	0.359560
O331	O33	0.485520	0.959460	0.112180
O341	O34	0.553980	0.943640	0.142820
O351	O35	0.112180	0.442840	0.485520
O361	O36	0.142820	0.359560	0.553980
O371	O37	0.959460	0.485520	0.442840
O381	O38	0.943640	0.553980	0.359560
O391	O39	0.442840	0.112180	0.959460
O401	O40	0.359560	0.142820	0.943640
O411	O41	0.112180	0.959460	0.442840
O421	O42	0.142820	0.943640	0.359560
O431	O43	0.485520	0.442840	0.959460
O441	O44	0.553980	0.359560	0.943640
O451	O45	0.442840	0.485520	0.112180
O461	O46	0.359560	0.553980	0.142820
O471	O47	0.959460	0.112180	0.485520
O481	O48	0.943640	0.142820	0.553980
O491	O49	0.459460	0.942840	0.985520
O501	O50	0.443640	0.859560	0.053980
O511	O51	0.942840	0.459460	0.612180
O521	O52	0.859560	0.443640	0.642820
O531	O53	0.985520	0.612180	0.459460
O541	O54	0.053980	0.642820	0.443640
O551	O55	0.612180	0.985520	0.942840
O561	O56	0.642820	0.053980	0.859560
O571	O57	0.459460	0.985520	0.612180
O581	O58	0.443640	0.053980	0.642820
O591	O59	0.942840	0.612180	0.985520
O601	O60	0.859560	0.642820	0.053980
O611	O61	0.985520	0.459460	0.942840
O621	O62	0.053980	0.443640	0.859560
O631	O63	0.612180	0.942840	0.459460
O641	O64	0.642820	0.859560	0.443640
O651	O65	0.459460	0.612180	0.942840
O661	O66	0.443640	0.642820	0.859560
O671	O67	0.942840	0.985520	0.459460
O681	O68	0.859560	0.053980	0.443640
O691	O69	0.985520	0.942840	0.612180
O701	O70	0.053980	0.859560	0.642820
O711	O71	0.612180	0.459460	0.985520
O721	O72	0.642820	0.443640	0.053980
O731	O73	0.557160	0.040540	0.514480
O741	O74	0.640440	0.056360	0.446020
O751	O75	0.040540	0.557160	0.887820
O761	O76	0.056360	0.640440	0.857180
O771	O77	0.887820	0.514480	0.040540
O781	O78	0.857180	0.446020	0.056360
O791	O79	0.514480	0.887820	0.557160
O801	O80	0.446020	0.857180	0.640440
O811	O81	0.514480	0.040540	0.887820
O821	O82	0.446020	0.056360	0.857180
O831	O83	0.887820	0.557160	0.514480
O841	O84	0.857180	0.640440	0.446020
O851	O85	0.040540	0.514480	0.557160
O861	O86	0.056360	0.446020	0.640440
O871	O87	0.557160	0.887820	0.040540
O881	O88	0.640440	0.857180	0.056360
O891	O89	0.887820	0.040540	0.557160
O901	O90	0.857180	0.056360	0.640440
O911	O91	0.514480	0.557160	0.040540
O921	O92	0.446020	0.640440	0.056360
O931	O93	0.557160	0.514480	0.887820
O941	O94	0.640440	0.446020	0.857180
O951	O95	0.040540	0.887820	0.514480
O961	O96	0.056360	0.857180	0.446020
