data_QAJJOB01_clean_PM
_symmetry_space_group_name_H-M	'P1'
_cell_length_a	10.280000
_cell_length_b	12.700000
_cell_length_c	17.860000
_cell_angle_alpha	90.000000
_cell_angle_beta	102.470000
_cell_angle_gamma	90.000000
_symmetry_Int_Tables_number 1

loop_
_symmetry_equiv_pos_as_xyz
'x,y,z'

loop_
_atom_site_label
_atom_site_type_symbol
_atom_site_fract_x
_atom_site_fract_y
_atom_site_fract_z
In11	In1	0.943050	0.978210	0.125910
In21	In2	0.745720	0.927400	0.277690
In31	In3	0.468760	0.116240	0.208220
In41	In4	0.367050	0.852190	0.422270
P11	P1	0.202580	0.089590	0.058420
P21	P2	0.065110	0.883700	0.307500
P31	P3	0.720680	0.659680	0.299410
P41	P4	0.580860	0.046130	0.392480
F11	F1	0.787600	0.906100	0.168000
F21	F2	0.548400	0.961600	0.218100
O11	O1	0.174800	0.021300	0.986700
O21	O2	0.349400	0.079100	0.100300
O31	O3	0.114300	0.058600	0.113400
O41	O4	0.175000	0.205600	0.034200
O51	O5	0.092800	0.771500	0.280800
O61	O6	0.058300	0.959700	0.239700
O71	O7	0.181600	0.916300	0.372800
O81	O8	0.937700	0.887200	0.338400
O91	O9	0.867900	0.659200	0.338800
O101	O10	0.636300	0.628800	0.357600
O111	O11	0.674100	0.771000	0.270100
O121	O12	0.691000	0.584000	0.231200
O131	O13	0.561200	0.127800	0.328300
O141	O14	0.679300	0.957700	0.379600
O151	O15	0.445500	0.995400	0.393200
O161	O16	0.639600	0.098800	0.468300
In51	In5	0.556950	0.478210	0.374090
In61	In6	0.754280	0.427400	0.222310
In71	In7	0.031240	0.616240	0.291780
In81	In8	0.132950	0.352190	0.077730
P51	P5	0.297420	0.589590	0.441580
P61	P6	0.434890	0.383700	0.192500
P71	P7	0.779320	0.159680	0.200590
P81	P8	0.919140	0.546130	0.107520
F31	F3	0.712400	0.406100	0.332000
F41	F4	0.951600	0.461600	0.281900
O171	O17	0.325200	0.521300	0.513300
O181	O18	0.150600	0.579100	0.399700
O191	O19	0.385700	0.558600	0.386600
O201	O20	0.325000	0.705600	0.465800
O211	O21	0.407200	0.271500	0.219200
O221	O22	0.441700	0.459700	0.260300
O231	O23	0.318400	0.416300	0.127200
O241	O24	0.562300	0.387200	0.161600
O251	O25	0.632100	0.159200	0.161200
O261	O26	0.863700	0.128800	0.142400
O271	O27	0.825900	0.271000	0.229900
O281	O28	0.809000	0.084000	0.268800
O291	O29	0.938800	0.627800	0.171700
O301	O30	0.820700	0.457700	0.120400
O311	O31	0.054500	0.495400	0.106800
O321	O32	0.860400	0.598800	0.031700
In91	In9	0.056950	0.021790	0.874090
In101	In10	0.254280	0.072600	0.722310
In111	In11	0.531240	0.883760	0.791780
In121	In12	0.632950	0.147810	0.577730
P91	P9	0.797420	0.910410	0.941580
P101	P10	0.934890	0.116300	0.692500
P111	P11	0.279320	0.340320	0.700590
P121	P12	0.419140	0.953870	0.607520
F51	F5	0.212400	0.093900	0.832000
F61	F6	0.451600	0.038400	0.781900
O331	O33	0.825200	0.978700	0.013300
O341	O34	0.650600	0.920900	0.899700
O351	O35	0.885700	0.941400	0.886600
O361	O36	0.825000	0.794400	0.965800
O371	O37	0.907200	0.228500	0.719200
O381	O38	0.941700	0.040300	0.760300
O391	O39	0.818400	0.083700	0.627200
O401	O40	0.062300	0.112800	0.661600
O411	O41	0.132100	0.340800	0.661200
O421	O42	0.363700	0.371200	0.642400
O431	O43	0.325900	0.229000	0.729900
O441	O44	0.309000	0.416000	0.768800
O451	O45	0.438800	0.872200	0.671700
O461	O46	0.320700	0.042300	0.620400
O471	O47	0.554500	0.004600	0.606800
O481	O48	0.360400	0.901200	0.531700
In131	In13	0.443050	0.521790	0.625910
In141	In14	0.245720	0.572600	0.777690
In151	In15	0.968760	0.383760	0.708220
In161	In16	0.867050	0.647810	0.922270
P131	P13	0.702580	0.410410	0.558420
P141	P14	0.565110	0.616300	0.807500
P151	P15	0.220680	0.840320	0.799410
P161	P16	0.080860	0.453870	0.892480
F71	F7	0.287600	0.593900	0.668000
F81	F8	0.048400	0.538400	0.718100
O491	O49	0.674800	0.478700	0.486700
O501	O50	0.849400	0.420900	0.600300
O511	O51	0.614300	0.441400	0.613400
O521	O52	0.675000	0.294400	0.534200
O531	O53	0.592800	0.728500	0.780800
O541	O54	0.558300	0.540300	0.739700
O551	O55	0.681600	0.583700	0.872800
O561	O56	0.437700	0.612800	0.838400
O571	O57	0.367900	0.840800	0.838800
O581	O58	0.136300	0.871200	0.857600
O591	O59	0.174100	0.729000	0.770100
O601	O60	0.191000	0.916000	0.731200
O611	O61	0.061200	0.372200	0.828300
O621	O62	0.179300	0.542300	0.879600
O631	O63	0.945500	0.504600	0.893200
O641	O64	0.139600	0.401200	0.968300
