data_QAJJUH_clean_PM
_symmetry_space_group_name_H-M	'P1'
_cell_length_a	18.467300
_cell_length_b	12.711700
_cell_length_c	20.470500
_cell_angle_alpha	90.000000
_cell_angle_beta	108.566000
_cell_angle_gamma	90.000000
_symmetry_Int_Tables_number 1

loop_
_symmetry_equiv_pos_as_xyz
'x,y,z'

loop_
_atom_site_label
_atom_site_type_symbol
_atom_site_fract_x
_atom_site_fract_y
_atom_site_fract_z
In11	In1	0.269160	0.918490	0.013610
In21	In2	0.124510	0.979080	0.839350
In31	In3	0.285260	0.612340	0.876740
In41	In4	0.215830	0.420410	0.982060
In51	In5	0.370550	0.476160	0.152390
In61	In6	0.207660	0.113100	0.118860
In71	In7	0.423630	0.850610	0.270460
In81	In8	0.570930	0.146840	0.220710
P11	P1	0.303580	0.879400	0.867130
P21	P2	0.191540	0.377370	0.131050
P31	P3	0.056910	0.090660	0.674660
P41	P4	0.939900	0.912870	0.815280
P51	P5	0.389740	0.040680	0.148320
P61	P6	0.195600	0.154960	0.958890
P71	P7	0.287850	0.655840	0.037020
P81	P8	0.102910	0.542750	0.844370
F11	F1	0.160000	0.899800	0.936070
F21	F2	0.328400	0.402200	0.053910
F31	F3	0.276700	0.457400	0.911700
F41	F4	0.209400	0.956000	0.083910
O11	O1	0.326500	0.658100	0.980800
O21	O2	0.257300	0.455200	0.157600
O31	O3	0.102500	0.494100	0.775600
O41	O4	0.114200	0.454000	0.899200
O51	O5	0.126600	0.409100	0.158500
O61	O6	0.885200	0.945700	0.745700
O71	O7	0.374800	0.951800	0.093100
O81	O8	0.466400	0.092600	0.155200
O91	O9	0.276200	0.768400	0.838600
O101	O10	0.031600	0.206800	0.672700
O111	O11	0.027100	0.597900	0.836600
O121	O12	0.220200	0.266200	0.157700
O131	O13	0.348500	0.627400	0.106100
O141	O14	0.159300	0.378500	0.052200
O151	O15	0.107700	0.062700	0.746800
O161	O16	0.326200	0.123700	0.127900
O171	O17	0.391300	0.993900	0.217500
O181	O18	0.985000	0.022000	0.650400
O191	O19	0.222700	0.575500	0.019500
O201	O20	0.011200	0.981900	0.837700
O211	O21	0.230100	0.264000	0.953000
O221	O22	0.166700	0.624700	0.865600
O231	O23	0.372300	0.912300	0.845700
O241	O24	0.965300	0.798000	0.812600
O251	O25	0.329300	0.878400	0.945900
O261	O26	0.238500	0.958500	0.836900
O271	O27	0.899800	0.919900	0.870000
O281	O28	0.255700	0.764000	0.046600
O291	O29	0.260000	0.074800	0.976200
O301	O30	0.137400	0.128600	0.887800
O311	O31	0.155100	0.155000	0.013800
O321	O32	0.102000	0.079300	0.623500
In91	In9	0.230840	0.418490	0.486390
In101	In10	0.375490	0.479080	0.660650
In111	In11	0.214740	0.112340	0.623260
In121	In12	0.284170	0.920410	0.517940
In131	In13	0.129450	0.976160	0.347610
In141	In14	0.292340	0.613100	0.381140
In151	In15	0.076370	0.350610	0.229540
In161	In16	0.929070	0.646840	0.279290
P91	P9	0.196420	0.379400	0.632870
P101	P10	0.308460	0.877370	0.368950
P111	P11	0.443090	0.590660	0.825340
P121	P12	0.560100	0.412870	0.684720
P131	P13	0.110260	0.540680	0.351680
P141	P14	0.304400	0.654960	0.541110
P151	P15	0.212150	0.155840	0.462980
P161	P16	0.397090	0.042750	0.655630
F51	F5	0.340000	0.399800	0.563930
F61	F6	0.171600	0.902200	0.446090
F71	F7	0.223300	0.957400	0.588300
F81	F8	0.290600	0.456000	0.416090
O331	O33	0.173500	0.158100	0.519200
O341	O34	0.242700	0.955200	0.342400
O351	O35	0.397500	0.994100	0.724400
O361	O36	0.385800	0.954000	0.600800
O371	O37	0.373400	0.909100	0.341500
O381	O38	0.614800	0.445700	0.754300
O391	O39	0.125200	0.451800	0.406900
O401	O40	0.033600	0.592600	0.344800
O411	O41	0.223800	0.268400	0.661400
O421	O42	0.468400	0.706800	0.827300
O431	O43	0.472900	0.097900	0.663400
O441	O44	0.279800	0.766200	0.342300
O451	O45	0.151500	0.127400	0.393900
O461	O46	0.340700	0.878500	0.447800
O471	O47	0.392300	0.562700	0.753200
O481	O48	0.173800	0.623700	0.372100
O491	O49	0.108700	0.493900	0.282500
O501	O50	0.515000	0.522000	0.849600
O511	O51	0.277300	0.075500	0.480500
O521	O52	0.488800	0.481900	0.662300
O531	O53	0.269900	0.764000	0.547000
O541	O54	0.333300	0.124700	0.634400
O551	O55	0.127700	0.412300	0.654300
O561	O56	0.534700	0.298000	0.687400
O571	O57	0.170700	0.378400	0.554100
O581	O58	0.261500	0.458500	0.663100
O591	O59	0.600200	0.419900	0.630000
O601	O60	0.244300	0.264000	0.453400
O611	O61	0.240000	0.574800	0.523800
O621	O62	0.362600	0.628600	0.612200
O631	O63	0.344900	0.655000	0.486200
O641	O64	0.398000	0.579300	0.876500
In171	In17	0.730840	0.081510	0.986390
In181	In18	0.875490	0.020920	0.160650
In191	In19	0.714740	0.387660	0.123260
In201	In20	0.784170	0.579590	0.017940
In211	In21	0.629450	0.523840	0.847610
In221	In22	0.792340	0.886900	0.881140
In231	In23	0.576370	0.149390	0.729540
In241	In24	0.429070	0.853160	0.779290
P171	P17	0.696420	0.120600	0.132870
P181	P18	0.808460	0.622630	0.868950
P191	P19	0.943090	0.909340	0.325340
P201	P20	0.060100	0.087130	0.184720
P211	P21	0.610260	0.959320	0.851680
P221	P22	0.804400	0.845040	0.041110
P231	P23	0.712150	0.344160	0.962980
P241	P24	0.897090	0.457250	0.155630
F91	F9	0.840000	0.100200	0.063930
F101	F10	0.671600	0.597800	0.946090
F111	F11	0.723300	0.542600	0.088300
F121	F12	0.790600	0.044000	0.916090
O651	O65	0.673500	0.341900	0.019200
O661	O66	0.742700	0.544800	0.842400
O671	O67	0.897500	0.505900	0.224400
O681	O68	0.885800	0.546000	0.100800
O691	O69	0.873400	0.590900	0.841500
O701	O70	0.114800	0.054300	0.254300
O711	O71	0.625200	0.048200	0.906900
O721	O72	0.533600	0.907400	0.844800
O731	O73	0.723800	0.231600	0.161400
O741	O74	0.968400	0.793200	0.327300
O751	O75	0.972900	0.402100	0.163400
O761	O76	0.779800	0.733800	0.842300
O771	O77	0.651500	0.372600	0.893900
O781	O78	0.840700	0.621500	0.947800
O791	O79	0.892300	0.937300	0.253200
O801	O80	0.673800	0.876300	0.872100
O811	O81	0.608700	0.006100	0.782500
O821	O82	0.015000	0.978000	0.349600
O831	O83	0.777300	0.424500	0.980500
O841	O84	0.988800	0.018100	0.162300
O851	O85	0.769900	0.736000	0.047000
O861	O86	0.833300	0.375300	0.134400
O871	O87	0.627700	0.087700	0.154300
O881	O88	0.034700	0.202000	0.187400
O891	O89	0.670700	0.121600	0.054100
O901	O90	0.761500	0.041500	0.163100
O911	O91	0.100200	0.080100	0.130000
O921	O92	0.744300	0.236000	0.953400
O931	O93	0.740000	0.925200	0.023800
O941	O94	0.862600	0.871400	0.112200
O951	O95	0.844900	0.845000	0.986200
O961	O96	0.898000	0.920700	0.376500
In251	In25	0.769160	0.581510	0.513610
In261	In26	0.624510	0.520920	0.339350
In271	In27	0.785260	0.887660	0.376740
In281	In28	0.715830	0.079590	0.482060
In291	In29	0.870550	0.023840	0.652390
In301	In30	0.707660	0.386900	0.618860
In311	In31	0.923630	0.649390	0.770460
In321	In32	0.070930	0.353160	0.720710
P251	P25	0.803580	0.620600	0.367130
P261	P26	0.691540	0.122630	0.631050
P271	P27	0.556910	0.409340	0.174660
P281	P28	0.439900	0.587130	0.315280
P291	P29	0.889740	0.459320	0.648320
P301	P30	0.695600	0.345040	0.458890
P311	P31	0.787850	0.844160	0.537020
P321	P32	0.602910	0.957250	0.344370
F131	F13	0.660000	0.600200	0.436070
F141	F14	0.828400	0.097800	0.553910
F151	F15	0.776700	0.042600	0.411700
F161	F16	0.709400	0.544000	0.583910
O971	O97	0.826500	0.841900	0.480800
O981	O98	0.757300	0.044800	0.657600
O991	O99	0.602500	0.005900	0.275600
O1001	O100	0.614200	0.046000	0.399200
O1011	O101	0.626600	0.090900	0.658500
O1021	O102	0.385200	0.554300	0.245700
O1031	O103	0.874800	0.548200	0.593100
O1041	O104	0.966400	0.407400	0.655200
O1051	O105	0.776200	0.731600	0.338600
O1061	O106	0.531600	0.293200	0.172700
O1071	O107	0.527100	0.902100	0.336600
O1081	O108	0.720200	0.233800	0.657700
O1091	O109	0.848500	0.872600	0.606100
O1101	O110	0.659300	0.121500	0.552200
O1111	O111	0.607700	0.437300	0.246800
O1121	O112	0.826200	0.376300	0.627900
O1131	O113	0.891300	0.506100	0.717500
O1141	O114	0.485000	0.478000	0.150400
O1151	O115	0.722700	0.924500	0.519500
O1161	O116	0.511200	0.518100	0.337700
O1171	O117	0.730100	0.236000	0.453000
O1181	O118	0.666700	0.875300	0.365600
O1191	O119	0.872300	0.587700	0.345700
O1201	O120	0.465300	0.702000	0.312600
O1211	O121	0.829300	0.621600	0.445900
O1221	O122	0.738500	0.541500	0.336900
O1231	O123	0.399800	0.580100	0.370000
O1241	O124	0.755700	0.736000	0.546600
O1251	O125	0.760000	0.425200	0.476200
O1261	O126	0.637400	0.371400	0.387800
O1271	O127	0.655100	0.345000	0.513800
O1281	O128	0.602000	0.420700	0.123500
