data_QAJKIV_clean_PM
_symmetry_space_group_name_H-M	'P1'
_cell_length_a	10.043000
_cell_length_b	15.989000
_cell_length_c	18.308000
_cell_angle_alpha	90.000000
_cell_angle_beta	90.000000
_cell_angle_gamma	90.000000
_symmetry_Int_Tables_number 1

loop_
_symmetry_equiv_pos_as_xyz
'x,y,z'

loop_
_atom_site_label
_atom_site_type_symbol
_atom_site_fract_x
_atom_site_fract_y
_atom_site_fract_z
Ga11	Ga1	0.347550	0.994910	0.405690
Ga21	Ga2	0.315520	0.965210	0.217650
Ga31	Ga3	0.164420	0.147420	0.174520
P11	P1	0.115770	0.066580	0.319060
P21	P2	0.339590	0.819040	0.331690
P31	P3	0.362210	0.984750	0.575800
O11	O1	0.147000	0.991200	0.271000
O21	O2	0.970000	0.063500	0.343400
O31	O3	0.203200	0.068100	0.388500
O41	O4	0.141700	0.149000	0.277000
O51	O5	0.302500	0.849000	0.255200
O61	O6	0.256700	0.742100	0.352600
O71	O7	0.488400	0.795800	0.336100
O81	O8	0.303400	0.883400	0.391800
O91	O9	0.281000	0.980200	0.505200
O101	O10	0.292500	0.933200	0.635800
O111	O11	0.383200	0.076800	0.598400
O121	O12	0.501500	0.946200	0.563400
O131	O13	0.329300	0.081900	0.183900
O141	O14	0.411500	0.997200	0.304700
Ga41	Ga4	0.652450	0.505090	0.905690
Ga51	Ga5	0.684480	0.534790	0.717650
Ga61	Ga6	0.835580	0.352580	0.674520
P41	P4	0.884230	0.433420	0.819060
P51	P5	0.660410	0.680960	0.831690
P61	P6	0.637790	0.515250	0.075800
O151	O15	0.853000	0.508800	0.771000
O161	O16	0.030000	0.436500	0.843400
O171	O17	0.796800	0.431900	0.888500
O181	O18	0.858300	0.351000	0.777000
O191	O19	0.697500	0.651000	0.755200
O201	O20	0.743300	0.757900	0.852600
O211	O21	0.511600	0.704200	0.836100
O221	O22	0.696600	0.616600	0.891800
O231	O23	0.719000	0.519800	0.005200
O241	O24	0.707500	0.566800	0.135800
O251	O25	0.616800	0.423200	0.098400
O261	O26	0.498500	0.553800	0.063400
O271	O27	0.670700	0.418100	0.683900
O281	O28	0.588500	0.502800	0.804700
Ga71	Ga7	0.847550	0.005090	0.094310
Ga81	Ga8	0.815520	0.034790	0.282350
Ga91	Ga9	0.664420	0.852580	0.325480
P71	P7	0.615770	0.933420	0.180940
P81	P8	0.839590	0.180960	0.168310
P91	P9	0.862210	0.015250	0.924200
O291	O29	0.647000	0.008800	0.229000
O301	O30	0.470000	0.936500	0.156600
O311	O31	0.703200	0.931900	0.111500
O321	O32	0.641700	0.851000	0.223000
O331	O33	0.802500	0.151000	0.244800
O341	O34	0.756700	0.257900	0.147400
O351	O35	0.988400	0.204200	0.163900
O361	O36	0.803400	0.116600	0.108200
O371	O37	0.781000	0.019800	0.994800
O381	O38	0.792500	0.066800	0.864200
O391	O39	0.883200	0.923200	0.901600
O401	O40	0.001500	0.053800	0.936600
O411	O41	0.829300	0.918100	0.316100
O421	O42	0.911500	0.002800	0.195300
Ga101	Ga10	0.152450	0.494910	0.594310
Ga111	Ga11	0.184480	0.465210	0.782350
Ga121	Ga12	0.335580	0.647420	0.825480
P101	P10	0.384230	0.566580	0.680940
P111	P11	0.160410	0.319040	0.668310
P121	P12	0.137790	0.484750	0.424200
O431	O43	0.353000	0.491200	0.729000
O441	O44	0.530000	0.563500	0.656600
O451	O45	0.296800	0.568100	0.611500
O461	O46	0.358300	0.649000	0.723000
O471	O47	0.197500	0.349000	0.744800
O481	O48	0.243300	0.242100	0.647400
O491	O49	0.011600	0.295800	0.663900
O501	O50	0.196600	0.383400	0.608200
O511	O51	0.219000	0.480200	0.494800
O521	O52	0.207500	0.433200	0.364200
O531	O53	0.116800	0.576800	0.401600
O541	O54	0.998500	0.446200	0.436600
O551	O55	0.170700	0.581900	0.816100
O561	O56	0.088500	0.497200	0.695300
Ga131	Ga13	0.652450	0.005090	0.594310
Ga141	Ga14	0.684480	0.034790	0.782350
Ga151	Ga15	0.835580	0.852580	0.825480
P131	P13	0.884230	0.933420	0.680940
P141	P14	0.660410	0.180960	0.668310
P151	P15	0.637790	0.015250	0.424200
O571	O57	0.853000	0.008800	0.729000
O581	O58	0.030000	0.936500	0.656600
O591	O59	0.796800	0.931900	0.611500
O601	O60	0.858300	0.851000	0.723000
O611	O61	0.697500	0.151000	0.744800
O621	O62	0.743300	0.257900	0.647400
O631	O63	0.511600	0.204200	0.663900
O641	O64	0.696600	0.116600	0.608200
O651	O65	0.719000	0.019800	0.494800
O661	O66	0.707500	0.066800	0.364200
O671	O67	0.616800	0.923200	0.401600
O681	O68	0.498500	0.053800	0.436600
O691	O69	0.670700	0.918100	0.816100
O701	O70	0.588500	0.002800	0.695300
Ga161	Ga16	0.347550	0.494910	0.094310
Ga171	Ga17	0.315520	0.465210	0.282350
Ga181	Ga18	0.164420	0.647420	0.325480
P161	P16	0.115770	0.566580	0.180940
P171	P17	0.339590	0.319040	0.168310
P181	P18	0.362210	0.484750	0.924200
O711	O71	0.147000	0.491200	0.229000
O721	O72	0.970000	0.563500	0.156600
O731	O73	0.203200	0.568100	0.111500
O741	O74	0.141700	0.649000	0.223000
O751	O75	0.302500	0.349000	0.244800
O761	O76	0.256700	0.242100	0.147400
O771	O77	0.488400	0.295800	0.163900
O781	O78	0.303400	0.383400	0.108200
O791	O79	0.281000	0.480200	0.994800
O801	O80	0.292500	0.433200	0.864200
O811	O81	0.383200	0.576800	0.901600
O821	O82	0.501500	0.446200	0.936600
O831	O83	0.329300	0.581900	0.316100
O841	O84	0.411500	0.497200	0.195300
Ga191	Ga19	0.152450	0.994910	0.905690
Ga201	Ga20	0.184480	0.965210	0.717650
Ga211	Ga21	0.335580	0.147420	0.674520
P191	P19	0.384230	0.066580	0.819060
P201	P20	0.160410	0.819040	0.831690
P211	P21	0.137790	0.984750	0.075800
O851	O85	0.353000	0.991200	0.771000
O861	O86	0.530000	0.063500	0.843400
O871	O87	0.296800	0.068100	0.888500
O881	O88	0.358300	0.149000	0.777000
O891	O89	0.197500	0.849000	0.755200
O901	O90	0.243300	0.742100	0.852600
O911	O91	0.011600	0.795800	0.836100
O921	O92	0.196600	0.883400	0.891800
O931	O93	0.219000	0.980200	0.005200
O941	O94	0.207500	0.933200	0.135800
O951	O95	0.116800	0.076800	0.098400
O961	O96	0.998500	0.946200	0.063400
O971	O97	0.170700	0.081900	0.683900
O981	O98	0.088500	0.997200	0.804700
Ga221	Ga22	0.847550	0.505090	0.405690
Ga231	Ga23	0.815520	0.534790	0.217650
Ga241	Ga24	0.664420	0.352580	0.174520
P221	P22	0.615770	0.433420	0.319060
P231	P23	0.839590	0.680960	0.331690
P241	P24	0.862210	0.515250	0.575800
O991	O99	0.647000	0.508800	0.271000
O1001	O100	0.470000	0.436500	0.343400
O1011	O101	0.703200	0.431900	0.388500
O1021	O102	0.641700	0.351000	0.277000
O1031	O103	0.802500	0.651000	0.255200
O1041	O104	0.756700	0.757900	0.352600
O1051	O105	0.988400	0.704200	0.336100
O1061	O106	0.803400	0.616600	0.391800
O1071	O107	0.781000	0.519800	0.505200
O1081	O108	0.792500	0.566800	0.635800
O1091	O109	0.883200	0.423200	0.598400
O1101	O110	0.001500	0.553800	0.563400
O1111	O111	0.829300	0.418100	0.183900
O1121	O112	0.911500	0.502800	0.304700
