data_QALHES_clean_PM
_symmetry_space_group_name_H-M	'P1'
_cell_length_a	24.719000
_cell_length_b	24.719000
_cell_length_c	24.719000
_cell_angle_alpha	90.000000
_cell_angle_beta	90.000000
_cell_angle_gamma	90.000000
_symmetry_Int_Tables_number 1

loop_
_symmetry_equiv_pos_as_xyz
'x,y,z'

loop_
_atom_site_label
_atom_site_type_symbol
_atom_site_fract_x
_atom_site_fract_y
_atom_site_fract_z
N11	N1	0.479300	0.313600	0.589100
C11	C1	0.468200	0.342400	0.632700
N21	N2	0.479300	0.813600	0.089100
C21	C2	0.468200	0.842400	0.132700
N31	N3	0.979300	0.313600	0.089100
C31	C3	0.968200	0.342400	0.132700
N41	N4	0.979300	0.813600	0.589100
C41	C4	0.968200	0.842400	0.632700
N51	N5	0.770700	0.436400	0.089100
C51	C5	0.781800	0.407600	0.132700
N61	N6	0.770700	0.936400	0.589100
C61	C6	0.781800	0.907600	0.632700
N71	N7	0.270700	0.436400	0.589100
C71	C7	0.281800	0.407600	0.632700
N81	N8	0.270700	0.936400	0.089100
C81	C8	0.281800	0.907600	0.132700
N91	N9	0.270700	0.813600	0.660900
C91	C9	0.281800	0.842400	0.617300
N101	N10	0.270700	0.313600	0.160900
C101	C10	0.281800	0.342400	0.117300
N111	N11	0.770700	0.813600	0.160900
C111	C11	0.781800	0.842400	0.117300
N121	N12	0.770700	0.313600	0.660900
C121	C12	0.781800	0.342400	0.617300
N131	N13	0.979300	0.936400	0.160900
C131	C13	0.968200	0.907600	0.117300
N141	N14	0.979300	0.436400	0.660900
C141	C14	0.968200	0.407600	0.617300
N151	N15	0.479300	0.936400	0.660900
C151	C15	0.468200	0.907600	0.617300
N161	N16	0.479300	0.436400	0.160900
C161	C16	0.468200	0.407600	0.117300
N171	N17	0.589100	0.479300	0.313600
C171	C17	0.632700	0.468200	0.342400
N181	N18	0.589100	0.979300	0.813600
C181	C18	0.632700	0.968200	0.842400
N191	N19	0.089100	0.479300	0.813600
C191	C19	0.132700	0.468200	0.842400
N201	N20	0.089100	0.979300	0.313600
C201	C20	0.132700	0.968200	0.342400
N211	N21	0.089100	0.770700	0.436400
C211	C21	0.132700	0.781800	0.407600
N221	N22	0.089100	0.270700	0.936400
C221	C22	0.132700	0.281800	0.907600
N231	N23	0.589100	0.770700	0.936400
C231	C23	0.632700	0.781800	0.907600
N241	N24	0.589100	0.270700	0.436400
C241	C24	0.632700	0.281800	0.407600
N251	N25	0.660900	0.270700	0.813600
C251	C25	0.617300	0.281800	0.842400
N261	N26	0.660900	0.770700	0.313600
C261	C26	0.617300	0.781800	0.342400
N271	N27	0.160900	0.270700	0.313600
C271	C27	0.117300	0.281800	0.342400
N281	N28	0.160900	0.770700	0.813600
C281	C28	0.117300	0.781800	0.842400
N291	N29	0.160900	0.979300	0.936400
C291	C29	0.117300	0.968200	0.907600
N301	N30	0.160900	0.479300	0.436400
C301	C30	0.117300	0.468200	0.407600
N311	N31	0.660900	0.979300	0.436400
C311	C31	0.617300	0.968200	0.407600
N321	N32	0.660900	0.479300	0.936400
C321	C32	0.617300	0.468200	0.907600
N331	N33	0.313600	0.589100	0.479300
C331	C33	0.342400	0.632700	0.468200
N341	N34	0.313600	0.089100	0.979300
C341	C34	0.342400	0.132700	0.968200
N351	N35	0.813600	0.589100	0.979300
C351	C35	0.842400	0.632700	0.968200
N361	N36	0.813600	0.089100	0.479300
C361	C36	0.842400	0.132700	0.468200
N371	N37	0.436400	0.089100	0.770700
C371	C37	0.407600	0.132700	0.781800
N381	N38	0.436400	0.589100	0.270700
C381	C38	0.407600	0.632700	0.281800
N391	N39	0.936400	0.089100	0.270700
C391	C39	0.907600	0.132700	0.281800
N401	N40	0.936400	0.589100	0.770700
C401	C40	0.907600	0.632700	0.781800
N411	N41	0.813600	0.660900	0.270700
C411	C41	0.842400	0.617300	0.281800
N421	N42	0.813600	0.160900	0.770700
C421	C42	0.842400	0.117300	0.781800
N431	N43	0.313600	0.660900	0.770700
C431	C43	0.342400	0.617300	0.781800
N441	N44	0.313600	0.160900	0.270700
C441	C44	0.342400	0.117300	0.281800
N451	N45	0.936400	0.160900	0.979300
C451	C45	0.907600	0.117300	0.968200
N461	N46	0.936400	0.660900	0.479300
C461	C46	0.907600	0.617300	0.468200
N471	N47	0.436400	0.160900	0.479300
C471	C47	0.407600	0.117300	0.468200
N481	N48	0.436400	0.660900	0.979300
C481	C48	0.407600	0.617300	0.968200
N491	N49	0.063600	0.729300	0.410900
C491	C49	0.092400	0.718200	0.367300
N501	N50	0.063600	0.229300	0.910900
C501	C50	0.092400	0.218200	0.867300
N511	N51	0.563600	0.729300	0.910900
C511	C51	0.592400	0.718200	0.867300
N521	N52	0.563600	0.229300	0.410900
C521	C52	0.592400	0.218200	0.367300
N531	N53	0.186400	0.020700	0.910900
C531	C53	0.157600	0.031800	0.867300
N541	N54	0.186400	0.520700	0.410900
C541	C54	0.157600	0.531800	0.367300
N551	N55	0.686400	0.020700	0.410900
C551	C55	0.657600	0.031800	0.367300
N561	N56	0.686400	0.520700	0.910900
C561	C56	0.657600	0.531800	0.867300
N571	N57	0.563600	0.520700	0.339100
C571	C57	0.592400	0.531800	0.382700
N581	N58	0.563600	0.020700	0.839100
C581	C58	0.592400	0.031800	0.882700
N591	N59	0.063600	0.520700	0.839100
C591	C59	0.092400	0.531800	0.882700
N601	N60	0.063600	0.020700	0.339100
C601	C60	0.092400	0.031800	0.382700
N611	N61	0.686400	0.229300	0.839100
C611	C61	0.657600	0.218200	0.882700
N621	N62	0.686400	0.729300	0.339100
C621	C62	0.657600	0.718200	0.382700
N631	N63	0.186400	0.229300	0.339100
C631	C63	0.157600	0.218200	0.382700
N641	N64	0.186400	0.729300	0.839100
C641	C64	0.157600	0.718200	0.882700
N651	N65	0.229300	0.839100	0.686400
C651	C65	0.218200	0.882700	0.657600
N661	N66	0.229300	0.339100	0.186400
C661	C66	0.218200	0.382700	0.157600
N671	N67	0.729300	0.839100	0.186400
C671	C67	0.718200	0.882700	0.157600
N681	N68	0.729300	0.339100	0.686400
C681	C68	0.718200	0.382700	0.657600
N691	N69	0.520700	0.339100	0.563600
C691	C69	0.531800	0.382700	0.592400
N701	N70	0.520700	0.839100	0.063600
C701	C70	0.531800	0.882700	0.092400
N711	N71	0.020700	0.339100	0.063600
C711	C71	0.031800	0.382700	0.092400
N721	N72	0.020700	0.839100	0.563600
C721	C72	0.031800	0.882700	0.592400
N731	N73	0.020700	0.910900	0.186400
C731	C73	0.031800	0.867300	0.157600
N741	N74	0.020700	0.410900	0.686400
C741	C74	0.031800	0.367300	0.657600
N751	N75	0.520700	0.910900	0.686400
C751	C75	0.531800	0.867300	0.657600
N761	N76	0.520700	0.410900	0.186400
C761	C76	0.531800	0.367300	0.157600
N771	N77	0.729300	0.410900	0.063600
C771	C77	0.718200	0.367300	0.092400
N781	N78	0.729300	0.910900	0.563600
C781	C78	0.718200	0.867300	0.592400
N791	N79	0.229300	0.410900	0.563600
C791	C79	0.218200	0.367300	0.592400
N801	N80	0.229300	0.910900	0.063600
C801	C80	0.218200	0.867300	0.092400
N811	N81	0.339100	0.563600	0.520700
C811	C81	0.382700	0.592400	0.531800
N821	N82	0.339100	0.063600	0.020700
C821	C82	0.382700	0.092400	0.031800
N831	N83	0.839100	0.563600	0.020700
C831	C83	0.882700	0.592400	0.031800
N841	N84	0.839100	0.063600	0.520700
C841	C84	0.882700	0.092400	0.531800
N851	N85	0.839100	0.686400	0.229300
C851	C85	0.882700	0.657600	0.218200
N861	N86	0.839100	0.186400	0.729300
C861	C86	0.882700	0.157600	0.718200
N871	N87	0.339100	0.686400	0.729300
C871	C87	0.382700	0.657600	0.718200
N881	N88	0.339100	0.186400	0.229300
C881	C88	0.382700	0.157600	0.218200
N891	N89	0.410900	0.063600	0.729300
C891	C89	0.367300	0.092400	0.718200
N901	N90	0.410900	0.563600	0.229300
C901	C90	0.367300	0.592400	0.218200
N911	N91	0.910900	0.063600	0.229300
C911	C91	0.867300	0.092400	0.218200
N921	N92	0.910900	0.563600	0.729300
C921	C92	0.867300	0.592400	0.718200
N931	N93	0.910900	0.186400	0.020700
C931	C93	0.867300	0.157600	0.031800
N941	N94	0.910900	0.686400	0.520700
C941	C94	0.867300	0.657600	0.531800
N951	N95	0.410900	0.186400	0.520700
C951	C95	0.367300	0.157600	0.531800
N961	N96	0.410900	0.686400	0.020700
C961	C96	0.367300	0.657600	0.031800
N971	N97	0.520700	0.686400	0.410900
C971	C97	0.531800	0.657600	0.367300
N981	N98	0.520700	0.186400	0.910900
C981	C98	0.531800	0.157600	0.867300
N991	N99	0.020700	0.686400	0.910900
C991	C99	0.031800	0.657600	0.867300
N1001	N100	0.020700	0.186400	0.410900
C1001	C100	0.031800	0.157600	0.367300
N1011	N101	0.229300	0.563600	0.910900
C1011	C101	0.218200	0.592400	0.867300
N1021	N102	0.229300	0.063600	0.410900
C1021	C102	0.218200	0.092400	0.367300
N1031	N103	0.729300	0.563600	0.410900
C1031	C103	0.718200	0.592400	0.367300
N1041	N104	0.729300	0.063600	0.910900
C1041	C104	0.718200	0.092400	0.867300
N1051	N105	0.729300	0.186400	0.339100
C1051	C105	0.718200	0.157600	0.382700
N1061	N106	0.729300	0.686400	0.839100
C1061	C106	0.718200	0.657600	0.882700
N1071	N107	0.229300	0.186400	0.839100
C1071	C107	0.218200	0.157600	0.882700
N1081	N108	0.229300	0.686400	0.339100
C1081	C108	0.218200	0.657600	0.382700
N1091	N109	0.020700	0.063600	0.839100
C1091	C109	0.031800	0.092400	0.882700
N1101	N110	0.020700	0.563600	0.339100
C1101	C110	0.031800	0.592400	0.382700
N1111	N111	0.520700	0.063600	0.339100
C1111	C111	0.531800	0.092400	0.382700
N1121	N112	0.520700	0.563600	0.839100
C1121	C112	0.531800	0.592400	0.882700
N1131	N113	0.410900	0.520700	0.686400
C1131	C113	0.367300	0.531800	0.657600
N1141	N114	0.410900	0.020700	0.186400
C1141	C114	0.367300	0.031800	0.157600
N1151	N115	0.910900	0.520700	0.186400
C1151	C115	0.867300	0.531800	0.157600
N1161	N116	0.910900	0.020700	0.686400
C1161	C116	0.867300	0.031800	0.657600
N1171	N117	0.910900	0.229300	0.563600
C1171	C117	0.867300	0.218200	0.592400
N1181	N118	0.910900	0.729300	0.063600
C1181	C118	0.867300	0.718200	0.092400
N1191	N119	0.410900	0.229300	0.063600
C1191	C119	0.367300	0.218200	0.092400
N1201	N120	0.410900	0.729300	0.563600
C1201	C120	0.367300	0.718200	0.592400
N1211	N121	0.339100	0.729300	0.186400
C1211	C121	0.382700	0.718200	0.157600
N1221	N122	0.339100	0.229300	0.686400
C1221	C122	0.382700	0.218200	0.657600
N1231	N123	0.839100	0.729300	0.686400
C1231	C123	0.882700	0.718200	0.657600
N1241	N124	0.839100	0.229300	0.186400
C1241	C124	0.882700	0.218200	0.157600
N1251	N125	0.839100	0.020700	0.063600
C1251	C125	0.882700	0.031800	0.092400
N1261	N126	0.839100	0.520700	0.563600
C1261	C126	0.882700	0.531800	0.592400
N1271	N127	0.339100	0.020700	0.563600
C1271	C127	0.382700	0.031800	0.592400
N1281	N128	0.339100	0.520700	0.063600
C1281	C128	0.382700	0.531800	0.092400
N1291	N129	0.686400	0.410900	0.520700
C1291	C129	0.657600	0.367300	0.531800
N1301	N130	0.686400	0.910900	0.020700
C1301	C130	0.657600	0.867300	0.031800
N1311	N131	0.186400	0.410900	0.020700
C1311	C131	0.157600	0.367300	0.031800
N1321	N132	0.186400	0.910900	0.520700
C1321	C132	0.157600	0.867300	0.531800
N1331	N133	0.563600	0.910900	0.229300
C1331	C133	0.592400	0.867300	0.218200
N1341	N134	0.563600	0.410900	0.729300
C1341	C134	0.592400	0.367300	0.718200
N1351	N135	0.063600	0.910900	0.729300
C1351	C135	0.092400	0.867300	0.718200
N1361	N136	0.063600	0.410900	0.229300
C1361	C136	0.092400	0.367300	0.218200
N1371	N137	0.186400	0.339100	0.729300
C1371	C137	0.157600	0.382700	0.718200
N1381	N138	0.186400	0.839100	0.229300
C1381	C138	0.157600	0.882700	0.218200
N1391	N139	0.686400	0.339100	0.229300
C1391	C139	0.657600	0.382700	0.218200
N1401	N140	0.686400	0.839100	0.729300
C1401	C140	0.657600	0.882700	0.718200
N1411	N141	0.063600	0.839100	0.020700
C1411	C141	0.092400	0.882700	0.031800
N1421	N142	0.063600	0.339100	0.520700
C1421	C142	0.092400	0.382700	0.531800
N1431	N143	0.563600	0.839100	0.520700
C1431	C143	0.592400	0.882700	0.531800
N1441	N144	0.563600	0.339100	0.020700
C1441	C144	0.592400	0.382700	0.031800
N1451	N145	0.936400	0.270700	0.589100
C1451	C145	0.907600	0.281800	0.632700
N1461	N146	0.936400	0.770700	0.089100
C1461	C146	0.907600	0.781800	0.132700
N1471	N147	0.436400	0.270700	0.089100
C1471	C147	0.407600	0.281800	0.132700
N1481	N148	0.436400	0.770700	0.589100
C1481	C148	0.407600	0.781800	0.632700
N1491	N149	0.813600	0.979300	0.089100
C1491	C149	0.842400	0.968200	0.132700
N1501	N150	0.813600	0.479300	0.589100
C1501	C150	0.842400	0.468200	0.632700
N1511	N151	0.313600	0.979300	0.589100
C1511	C151	0.342400	0.968200	0.632700
N1521	N152	0.313600	0.479300	0.089100
C1521	C152	0.342400	0.468200	0.132700
N1531	N153	0.436400	0.479300	0.660900
C1531	C153	0.407600	0.468200	0.617300
N1541	N154	0.436400	0.979300	0.160900
C1541	C154	0.407600	0.968200	0.117300
N1551	N155	0.936400	0.479300	0.160900
C1551	C155	0.907600	0.468200	0.117300
N1561	N156	0.936400	0.979300	0.660900
C1561	C156	0.907600	0.968200	0.617300
N1571	N157	0.313600	0.770700	0.160900
C1571	C157	0.342400	0.781800	0.117300
N1581	N158	0.313600	0.270700	0.660900
C1581	C158	0.342400	0.281800	0.617300
N1591	N159	0.813600	0.770700	0.660900
C1591	C159	0.842400	0.781800	0.617300
N1601	N160	0.813600	0.270700	0.160900
C1601	C160	0.842400	0.281800	0.117300
N1611	N161	0.770700	0.160900	0.313600
C1611	C161	0.781800	0.117300	0.342400
N1621	N162	0.770700	0.660900	0.813600
C1621	C162	0.781800	0.617300	0.842400
N1631	N163	0.270700	0.160900	0.813600
C1631	C163	0.281800	0.117300	0.842400
N1641	N164	0.270700	0.660900	0.313600
C1641	C164	0.281800	0.617300	0.342400
N1651	N165	0.479300	0.660900	0.436400
C1651	C165	0.468200	0.617300	0.407600
N1661	N166	0.479300	0.160900	0.936400
C1661	C166	0.468200	0.117300	0.907600
N1671	N167	0.979300	0.660900	0.936400
C1671	C167	0.968200	0.617300	0.907600
N1681	N168	0.979300	0.160900	0.436400
C1681	C168	0.968200	0.117300	0.407600
N1691	N169	0.979300	0.089100	0.813600
C1691	C169	0.968200	0.132700	0.842400
N1701	N170	0.979300	0.589100	0.313600
C1701	C170	0.968200	0.632700	0.342400
N1711	N171	0.479300	0.089100	0.313600
C1711	C171	0.468200	0.132700	0.342400
N1721	N172	0.479300	0.589100	0.813600
C1721	C172	0.468200	0.632700	0.842400
N1731	N173	0.270700	0.589100	0.936400
C1731	C173	0.281800	0.632700	0.907600
N1741	N174	0.270700	0.089100	0.436400
C1741	C174	0.281800	0.132700	0.407600
N1751	N175	0.770700	0.589100	0.436400
C1751	C175	0.781800	0.632700	0.407600
N1761	N176	0.770700	0.089100	0.936400
C1761	C176	0.781800	0.132700	0.907600
N1771	N177	0.660900	0.436400	0.479300
C1771	C177	0.617300	0.407600	0.468200
N1781	N178	0.660900	0.936400	0.979300
C1781	C178	0.617300	0.907600	0.968200
N1791	N179	0.160900	0.436400	0.979300
C1791	C179	0.117300	0.407600	0.968200
N1801	N180	0.160900	0.936400	0.479300
C1801	C180	0.117300	0.907600	0.468200
N1811	N181	0.160900	0.313600	0.770700
C1811	C181	0.117300	0.342400	0.781800
N1821	N182	0.160900	0.813600	0.270700
C1821	C182	0.117300	0.842400	0.281800
N1831	N183	0.660900	0.313600	0.270700
C1831	C183	0.617300	0.342400	0.281800
N1841	N184	0.660900	0.813600	0.770700
C1841	C184	0.617300	0.842400	0.781800
N1851	N185	0.589100	0.936400	0.270700
C1851	C185	0.632700	0.907600	0.281800
N1861	N186	0.589100	0.436400	0.770700
C1861	C186	0.632700	0.407600	0.781800
N1871	N187	0.089100	0.936400	0.770700
C1871	C187	0.132700	0.907600	0.781800
N1881	N188	0.089100	0.436400	0.270700
C1881	C188	0.132700	0.407600	0.281800
N1891	N189	0.089100	0.813600	0.979300
C1891	C189	0.132700	0.842400	0.968200
N1901	N190	0.089100	0.313600	0.479300
C1901	C190	0.132700	0.342400	0.468200
N1911	N191	0.589100	0.813600	0.479300
C1911	C191	0.632700	0.842400	0.468200
N1921	N192	0.589100	0.313600	0.979300
C1921	C192	0.632700	0.342400	0.968200
Cu11	Cu1	0.500000	0.443500	0.693500
N1931	N193	0.500000	0.386400	0.636400
Cu21	Cu2	0.500000	0.943500	0.193500
N1941	N194	0.500000	0.886400	0.136400
Cu31	Cu3	0.000000	0.443500	0.193500
N1951	N195	0.000000	0.386400	0.136400
Cu41	Cu4	0.000000	0.943500	0.693500
N1961	N196	0.000000	0.886400	0.636400
Cu51	Cu5	0.750000	0.306500	0.193500
N1971	N197	0.750000	0.363600	0.136400
Cu61	Cu6	0.750000	0.806500	0.693500
N1981	N198	0.750000	0.863600	0.636400
Cu71	Cu7	0.250000	0.306500	0.693500
N1991	N199	0.250000	0.363600	0.636400
Cu81	Cu8	0.250000	0.806500	0.193500
N2001	N200	0.250000	0.863600	0.136400
Cu91	Cu9	0.250000	0.943500	0.556500
N2011	N201	0.250000	0.886400	0.613600
Cu101	Cu10	0.250000	0.443500	0.056500
N2021	N202	0.250000	0.386400	0.113600
Cu111	Cu11	0.750000	0.943500	0.056500
N2031	N203	0.750000	0.886400	0.113600
Cu121	Cu12	0.750000	0.443500	0.556500
N2041	N204	0.750000	0.386400	0.613600
Cu131	Cu13	0.000000	0.806500	0.056500
N2051	N205	0.000000	0.863600	0.113600
Cu141	Cu14	0.000000	0.306500	0.556500
N2061	N206	0.000000	0.363600	0.613600
Cu151	Cu15	0.500000	0.806500	0.556500
N2071	N207	0.500000	0.863600	0.613600
Cu161	Cu16	0.500000	0.306500	0.056500
N2081	N208	0.500000	0.363600	0.113600
Cu171	Cu17	0.693500	0.500000	0.443500
N2091	N209	0.636400	0.500000	0.386400
Cu181	Cu18	0.693500	0.000000	0.943500
N2101	N210	0.636400	0.000000	0.886400
Cu191	Cu19	0.193500	0.500000	0.943500
N2111	N211	0.136400	0.500000	0.886400
Cu201	Cu20	0.193500	0.000000	0.443500
N2121	N212	0.136400	0.000000	0.386400
Cu211	Cu21	0.193500	0.750000	0.306500
N2131	N213	0.136400	0.750000	0.363600
Cu221	Cu22	0.193500	0.250000	0.806500
N2141	N214	0.136400	0.250000	0.863600
Cu231	Cu23	0.693500	0.750000	0.806500
N2151	N215	0.636400	0.750000	0.863600
Cu241	Cu24	0.693500	0.250000	0.306500
N2161	N216	0.636400	0.250000	0.363600
Cu251	Cu25	0.556500	0.250000	0.943500
N2171	N217	0.613600	0.250000	0.886400
Cu261	Cu26	0.556500	0.750000	0.443500
N2181	N218	0.613600	0.750000	0.386400
Cu271	Cu27	0.056500	0.250000	0.443500
N2191	N219	0.113600	0.250000	0.386400
Cu281	Cu28	0.056500	0.750000	0.943500
N2201	N220	0.113600	0.750000	0.886400
Cu291	Cu29	0.056500	0.000000	0.806500
N2211	N221	0.113600	0.000000	0.863600
Cu301	Cu30	0.056500	0.500000	0.306500
N2221	N222	0.113600	0.500000	0.363600
Cu311	Cu31	0.556500	0.000000	0.306500
N2231	N223	0.613600	0.000000	0.363600
Cu321	Cu32	0.556500	0.500000	0.806500
N2241	N224	0.613600	0.500000	0.863600
Cu331	Cu33	0.443500	0.693500	0.500000
N2251	N225	0.386400	0.636400	0.500000
Cu341	Cu34	0.443500	0.193500	0.000000
N2261	N226	0.386400	0.136400	0.000000
Cu351	Cu35	0.943500	0.693500	0.000000
N2271	N227	0.886400	0.636400	0.000000
Cu361	Cu36	0.943500	0.193500	0.500000
N2281	N228	0.886400	0.136400	0.500000
Cu371	Cu37	0.306500	0.193500	0.750000
N2291	N229	0.363600	0.136400	0.750000
Cu381	Cu38	0.306500	0.693500	0.250000
N2301	N230	0.363600	0.636400	0.250000
Cu391	Cu39	0.806500	0.193500	0.250000
N2311	N231	0.863600	0.136400	0.250000
Cu401	Cu40	0.806500	0.693500	0.750000
N2321	N232	0.863600	0.636400	0.750000
Cu411	Cu41	0.943500	0.556500	0.250000
N2331	N233	0.886400	0.613600	0.250000
Cu421	Cu42	0.943500	0.056500	0.750000
N2341	N234	0.886400	0.113600	0.750000
Cu431	Cu43	0.443500	0.556500	0.750000
N2351	N235	0.386400	0.613600	0.750000
Cu441	Cu44	0.443500	0.056500	0.250000
N2361	N236	0.386400	0.113600	0.250000
Cu451	Cu45	0.806500	0.056500	0.000000
N2371	N237	0.863600	0.113600	0.000000
Cu461	Cu46	0.806500	0.556500	0.500000
N2381	N238	0.863600	0.613600	0.500000
Cu471	Cu47	0.306500	0.056500	0.500000
N2391	N239	0.363600	0.113600	0.500000
Cu481	Cu48	0.306500	0.556500	0.000000
N2401	N240	0.363600	0.613600	0.000000
Cu491	Cu49	0.500000	0.556500	0.306500
N2411	N241	0.500000	0.613600	0.363600
Cu501	Cu50	0.500000	0.056500	0.806500
N2421	N242	0.500000	0.113600	0.863600
Cu511	Cu51	0.000000	0.556500	0.806500
N2431	N243	0.000000	0.613600	0.863600
Cu521	Cu52	0.000000	0.056500	0.306500
N2441	N244	0.000000	0.113600	0.363600
Cu531	Cu53	0.250000	0.693500	0.806500
N2451	N245	0.250000	0.636400	0.863600
Cu541	Cu54	0.250000	0.193500	0.306500
N2461	N246	0.250000	0.136400	0.363600
Cu551	Cu55	0.750000	0.693500	0.306500
N2471	N247	0.750000	0.636400	0.363600
Cu561	Cu56	0.750000	0.193500	0.806500
N2481	N248	0.750000	0.136400	0.863600
Cu571	Cu57	0.750000	0.056500	0.443500
N2491	N249	0.750000	0.113600	0.386400
Cu581	Cu58	0.750000	0.556500	0.943500
N2501	N250	0.750000	0.613600	0.886400
Cu591	Cu59	0.250000	0.056500	0.943500
N2511	N251	0.250000	0.113600	0.886400
Cu601	Cu60	0.250000	0.556500	0.443500
N2521	N252	0.250000	0.613600	0.386400
Cu611	Cu61	0.000000	0.193500	0.943500
N2531	N253	0.000000	0.136400	0.886400
Cu621	Cu62	0.000000	0.693500	0.443500
N2541	N254	0.000000	0.636400	0.386400
Cu631	Cu63	0.500000	0.193500	0.443500
N2551	N255	0.500000	0.136400	0.386400
Cu641	Cu64	0.500000	0.693500	0.943500
N2561	N256	0.500000	0.636400	0.886400
Cu651	Cu65	0.306500	0.500000	0.556500
N2571	N257	0.363600	0.500000	0.613600
Cu661	Cu66	0.306500	0.000000	0.056500
N2581	N258	0.363600	0.000000	0.113600
Cu671	Cu67	0.806500	0.500000	0.056500
N2591	N259	0.863600	0.500000	0.113600
Cu681	Cu68	0.806500	0.000000	0.556500
N2601	N260	0.863600	0.000000	0.613600
Cu691	Cu69	0.806500	0.250000	0.693500
N2611	N261	0.863600	0.250000	0.636400
Cu701	Cu70	0.806500	0.750000	0.193500
N2621	N262	0.863600	0.750000	0.136400
Cu711	Cu71	0.306500	0.250000	0.193500
N2631	N263	0.363600	0.250000	0.136400
Cu721	Cu72	0.306500	0.750000	0.693500
N2641	N264	0.363600	0.750000	0.636400
Cu731	Cu73	0.443500	0.750000	0.056500
N2651	N265	0.386400	0.750000	0.113600
Cu741	Cu74	0.443500	0.250000	0.556500
N2661	N266	0.386400	0.250000	0.613600
Cu751	Cu75	0.943500	0.750000	0.556500
N2671	N267	0.886400	0.750000	0.613600
Cu761	Cu76	0.943500	0.250000	0.056500
N2681	N268	0.886400	0.250000	0.113600
Cu771	Cu77	0.943500	0.000000	0.193500
N2691	N269	0.886400	0.000000	0.136400
Cu781	Cu78	0.943500	0.500000	0.693500
N2701	N270	0.886400	0.500000	0.636400
Cu791	Cu79	0.443500	0.000000	0.693500
N2711	N271	0.386400	0.000000	0.636400
Cu801	Cu80	0.443500	0.500000	0.193500
N2721	N272	0.386400	0.500000	0.136400
Cu811	Cu81	0.556500	0.306500	0.500000
N2731	N273	0.613600	0.363600	0.500000
Cu821	Cu82	0.556500	0.806500	0.000000
N2741	N274	0.613600	0.863600	0.000000
Cu831	Cu83	0.056500	0.306500	0.000000
N2751	N275	0.113600	0.363600	0.000000
Cu841	Cu84	0.056500	0.806500	0.500000
N2761	N276	0.113600	0.863600	0.500000
Cu851	Cu85	0.693500	0.806500	0.250000
N2771	N277	0.636400	0.863600	0.250000
Cu861	Cu86	0.693500	0.306500	0.750000
N2781	N278	0.636400	0.363600	0.750000
Cu871	Cu87	0.193500	0.806500	0.750000
N2791	N279	0.136400	0.863600	0.750000
Cu881	Cu88	0.193500	0.306500	0.250000
N2801	N280	0.136400	0.363600	0.250000
Cu891	Cu89	0.056500	0.443500	0.750000
N2811	N281	0.113600	0.386400	0.750000
Cu901	Cu90	0.056500	0.943500	0.250000
N2821	N282	0.113600	0.886400	0.250000
Cu911	Cu91	0.556500	0.443500	0.250000
N2831	N283	0.613600	0.386400	0.250000
Cu921	Cu92	0.556500	0.943500	0.750000
N2841	N284	0.613600	0.886400	0.750000
Cu931	Cu93	0.193500	0.943500	0.000000
N2851	N285	0.136400	0.886400	0.000000
Cu941	Cu94	0.193500	0.443500	0.500000
N2861	N286	0.136400	0.386400	0.500000
Cu951	Cu95	0.693500	0.943500	0.500000
N2871	N287	0.636400	0.886400	0.500000
Cu961	Cu96	0.693500	0.443500	0.000000
N2881	N288	0.636400	0.386400	0.000000
O11	O1	0.500000	0.500000	0.750000
O21	O2	0.500000	0.000000	0.250000
O31	O3	0.750000	0.250000	0.250000
O41	O4	0.750000	0.750000	0.750000
O51	O5	0.250000	0.000000	0.500000
O61	O6	0.250000	0.500000	0.000000
O71	O7	0.000000	0.750000	0.000000
O81	O8	0.000000	0.250000	0.500000
O91	O9	0.750000	0.500000	0.500000
O101	O10	0.250000	0.750000	0.250000
O111	O11	0.500000	0.250000	0.000000
O121	O12	0.000000	0.000000	0.750000
O131	O13	0.500000	0.750000	0.500000
O141	O14	0.250000	0.250000	0.750000
O151	O15	0.000000	0.500000	0.250000
O161	O16	0.750000	0.000000	0.000000
O171	O17	0.500000	0.500000	0.250000
O181	O18	0.500000	0.000000	0.750000
O191	O19	0.250000	0.750000	0.750000
O201	O20	0.250000	0.250000	0.250000
O211	O21	0.750000	0.000000	0.500000
O221	O22	0.750000	0.500000	0.000000
O231	O23	0.000000	0.250000	0.000000
O241	O24	0.000000	0.750000	0.500000
O251	O25	0.250000	0.500000	0.500000
O261	O26	0.750000	0.250000	0.750000
O271	O27	0.500000	0.750000	0.000000
O281	O28	0.000000	0.000000	0.250000
O291	O29	0.500000	0.250000	0.500000
O301	O30	0.750000	0.750000	0.250000
O311	O31	0.000000	0.500000	0.750000
O321	O32	0.250000	0.000000	0.000000
