data_QALWUV_clean_PM
_symmetry_space_group_name_H-M	'P1'
_cell_length_a	19.679600
_cell_length_b	15.568400
_cell_length_c	28.597800
_cell_angle_alpha	90.000000
_cell_angle_beta	103.830000
_cell_angle_gamma	90.000000
_symmetry_Int_Tables_number 1

loop_
_symmetry_equiv_pos_as_xyz
'x,y,z'

loop_
_atom_site_label
_atom_site_type_symbol
_atom_site_fract_x
_atom_site_fract_y
_atom_site_fract_z
Sn11	Sn1	0.767110	0.728160	0.004100
C11	C1	0.839100	0.757700	0.962210
H11	H1	0.870900	0.709000	0.962800
H21	H2	0.866200	0.808600	0.975500
H31	H3	0.813700	0.769100	0.928900
C21	C2	0.799300	0.656000	0.068160
H41	H4	0.803400	0.694000	0.096000
H51	H5	0.844700	0.629300	0.069200
H61	H6	0.764600	0.611200	0.069000
C31	C3	0.662900	0.771600	0.981800
H71	H7	0.631900	0.722500	0.971100
H81	H8	0.659000	0.812300	0.955100
H91	H9	0.649500	0.800100	0.008800
Sn21	Sn2	0.746880	0.265730	0.735310
C41	C4	0.842000	0.285900	0.714890
H101	H10	0.880000	0.294100	0.743800
H111	H11	0.838000	0.337200	0.694500
H121	H12	0.852300	0.235900	0.696900
C51	C5	0.655400	0.328600	0.695920
H131	H13	0.650200	0.383800	0.711200
H141	H14	0.614500	0.292600	0.695600
H151	H15	0.659300	0.338400	0.662800
C61	C6	0.738100	0.179300	0.790920
H161	H16	0.707000	0.131800	0.777200
H171	H17	0.718900	0.209600	0.814900
H181	H18	0.784500	0.156500	0.806400
Sn31	Sn3	0.773800	0.671350	0.235640
C71	C7	0.770000	0.755900	0.293160
H191	H19	0.792100	0.728400	0.323900
H201	H20	0.721200	0.769400	0.292500
H211	H21	0.795100	0.809000	0.289700
C81	C8	0.869700	0.642700	0.218440
H221	H22	0.896600	0.602900	0.242400
H231	H23	0.896500	0.695800	0.218400
H241	H24	0.860700	0.616100	0.186500
C91	C9	0.681900	0.615300	0.193010
H251	H25	0.640800	0.641200	0.201200
H261	H26	0.682200	0.553400	0.199200
H271	H27	0.679900	0.625300	0.158900
Sn41	Sn4	0.006660	0.990420	0.253780
C101	C10	0.074700	0.939900	0.213590
H281	H28	0.087200	0.880700	0.223800
H291	H29	0.051300	0.940500	0.179300
H301	H30	0.117200	0.975000	0.219100
C111	C11	0.992700	0.124700	0.256140
H311	H31	0.969500	0.138800	0.281900
H321	H32	0.038400	0.153200	0.262400
H331	H33	0.963800	0.144400	0.225200
C121	C12	0.954800	0.906000	0.291700
H341	H34	0.916000	0.877800	0.269000
H351	H35	0.987800	0.862600	0.308400
H361	H36	0.936500	0.938700	0.315300
Fe11	Fe1	0.758870	0.960300	0.130060
C131	C13	0.784790	0.896530	0.079430
N11	N1	0.795040	0.853250	0.049270
C141	C14	0.757370	0.851800	0.163020
N21	N2	0.758770	0.788200	0.183350
C151	C15	0.729780	0.020500	0.180670
N31	N3	0.715000	0.058100	0.211100
C161	C16	0.854690	0.974100	0.166130
N41	N4	0.911150	0.981500	0.188870
C171	C17	0.764730	0.071000	0.100040
N51	N5	0.767890	0.137510	0.083670
C181	C18	0.663100	0.944800	0.093590
N61	N6	0.607780	0.934500	0.070070
Fe21	Fe2	0.756060	0.488200	0.875200
C191	C19	0.742890	0.558650	0.927540
N71	N7	0.738490	0.603880	0.958280
C201	C20	0.768190	0.418100	0.822420
N81	N8	0.770440	0.375100	0.790580
C211	C21	0.770150	0.591200	0.840980
N91	N9	0.776150	0.652000	0.819770
C221	C22	0.658490	0.494400	0.841530
N101	N10	0.601900	0.499100	0.819020
C231	C23	0.854750	0.489040	0.907150
N111	N11	0.912690	0.493600	0.927240
C241	C24	0.738330	0.383360	0.906850
N121	N12	0.727600	0.320000	0.924110
Sn51	Sn5	0.732890	0.228160	0.495900
C251	C25	0.660900	0.257700	0.537790
H371	H37	0.629100	0.209000	0.537200
H381	H38	0.633800	0.308600	0.524500
H391	H39	0.686300	0.269100	0.571100
C261	C26	0.700700	0.156000	0.431840
H401	H40	0.696600	0.194000	0.404000
H411	H41	0.655300	0.129300	0.430800
H421	H42	0.735400	0.111200	0.431000
C271	C27	0.837100	0.271600	0.518200
H431	H43	0.868100	0.222500	0.528900
H441	H44	0.841000	0.312300	0.544900
H451	H45	0.850500	0.300100	0.491200
Sn61	Sn6	0.753120	0.765730	0.764690
C281	C28	0.658000	0.785900	0.785110
H461	H46	0.620000	0.794100	0.756200
H471	H47	0.662000	0.837200	0.805500
H481	H48	0.647700	0.735900	0.803100
C291	C29	0.844600	0.828600	0.804080
H491	H49	0.849800	0.883800	0.788800
H501	H50	0.885500	0.792600	0.804400
H511	H51	0.840700	0.838400	0.837200
C301	C30	0.761900	0.679300	0.709080
H521	H52	0.793000	0.631800	0.722800
H531	H53	0.781100	0.709600	0.685100
H541	H54	0.715500	0.656500	0.693600
Sn71	Sn7	0.726200	0.171350	0.264360
C311	C31	0.730000	0.255900	0.206840
H551	H55	0.707900	0.228400	0.176100
H561	H56	0.778800	0.269400	0.207500
H571	H57	0.704900	0.309000	0.210300
C321	C32	0.630300	0.142700	0.281560
H581	H58	0.603400	0.102900	0.257600
H591	H59	0.603500	0.195800	0.281600
H601	H60	0.639300	0.116100	0.313500
C331	C33	0.818100	0.115300	0.306990
H611	H61	0.859200	0.141200	0.298800
H621	H62	0.817800	0.053400	0.300800
H631	H63	0.820100	0.125300	0.341100
Sn81	Sn8	0.493340	0.490420	0.246220
C341	C34	0.425300	0.439900	0.286410
H641	H64	0.412800	0.380700	0.276200
H651	H65	0.448700	0.440500	0.320700
H661	H66	0.382800	0.475000	0.280900
C351	C35	0.507300	0.624700	0.243860
H671	H67	0.530500	0.638800	0.218100
H681	H68	0.461600	0.653200	0.237600
H691	H69	0.536200	0.644400	0.274800
C361	C36	0.545200	0.406000	0.208300
H701	H70	0.584000	0.377800	0.231000
H711	H71	0.512200	0.362600	0.191600
H721	H72	0.563500	0.438700	0.184700
Fe31	Fe3	0.741130	0.460300	0.369940
C371	C37	0.715210	0.396530	0.420570
N131	N13	0.704960	0.353250	0.450730
C381	C38	0.742630	0.351800	0.336980
N141	N14	0.741230	0.288200	0.316650
C391	C39	0.770220	0.520500	0.319330
N151	N15	0.785000	0.558100	0.288900
C401	C40	0.645310	0.474100	0.333870
N161	N16	0.588850	0.481500	0.311130
C411	C41	0.735270	0.571000	0.399960
N171	N17	0.732110	0.637510	0.416330
C421	C42	0.836900	0.444800	0.406410
N181	N18	0.892220	0.434500	0.429930
Fe41	Fe4	0.743940	0.988200	0.624800
C431	C43	0.757110	0.058650	0.572460
N191	N19	0.761510	0.103880	0.541720
C441	C44	0.731810	0.918100	0.677580
N201	N20	0.729560	0.875100	0.709420
C451	C45	0.729850	0.091200	0.659020
N211	N21	0.723850	0.152000	0.680230
C461	C46	0.841510	0.994400	0.658470
N221	N22	0.898100	0.999100	0.680980
C471	C47	0.645250	0.989040	0.592850
N231	N23	0.587310	0.993600	0.572760
C481	C48	0.761670	0.883360	0.593150
N241	N24	0.772400	0.820000	0.575890
Sn91	Sn9	0.232890	0.271840	0.995900
C491	C49	0.160900	0.242300	0.037790
H731	H73	0.129100	0.291000	0.037200
H741	H74	0.133800	0.191400	0.024500
H751	H75	0.186300	0.230900	0.071100
C501	C50	0.200700	0.344000	0.931840
H761	H76	0.196600	0.306000	0.904000
H771	H77	0.155300	0.370700	0.930800
H781	H78	0.235400	0.388800	0.931000
C511	C51	0.337100	0.228400	0.018200
H791	H79	0.368100	0.277500	0.028900
H801	H80	0.341000	0.187700	0.044900
H811	H81	0.350500	0.199900	0.991200
Sn101	Sn10	0.253120	0.734270	0.264690
C521	C52	0.158000	0.714100	0.285110
H821	H82	0.120000	0.705900	0.256200
H831	H83	0.162000	0.662800	0.305500
H841	H84	0.147700	0.764100	0.303100
C531	C53	0.344600	0.671400	0.304080
H851	H85	0.349800	0.616200	0.288800
H861	H86	0.385500	0.707400	0.304400
H871	H87	0.340700	0.661600	0.337200
C541	C54	0.261900	0.820700	0.209080
H881	H88	0.293000	0.868200	0.222800
H891	H89	0.281100	0.790400	0.185100
H901	H90	0.215500	0.843500	0.193600
Sn111	Sn11	0.226200	0.328650	0.764360
C551	C55	0.230000	0.244100	0.706840
H911	H91	0.207900	0.271600	0.676100
H921	H92	0.278800	0.230600	0.707500
H931	H93	0.204900	0.191000	0.710300
C561	C56	0.130300	0.357300	0.781560
H941	H94	0.103400	0.397100	0.757600
H951	H95	0.103500	0.304200	0.781600
H961	H96	0.139300	0.383900	0.813500
C571	C57	0.318100	0.384700	0.806990
H971	H97	0.359200	0.358800	0.798800
H981	H98	0.317800	0.446600	0.800800
H991	H99	0.320100	0.374700	0.841100
Sn121	Sn12	0.993340	0.009580	0.746220
C581	C58	0.925300	0.060100	0.786410
H1001	H100	0.912800	0.119300	0.776200
H1011	H101	0.948700	0.059500	0.820700
H1021	H102	0.882800	0.025000	0.780900
C591	C59	0.007300	0.875300	0.743860
H1031	H103	0.030500	0.861200	0.718100
H1041	H104	0.961600	0.846800	0.737600
H1051	H105	0.036200	0.855600	0.774800
C601	C60	0.045200	0.094000	0.708300
H1061	H106	0.084000	0.122200	0.731000
H1071	H107	0.012200	0.137400	0.691600
H1081	H108	0.063500	0.061300	0.684700
Fe51	Fe5	0.241130	0.039700	0.869940
C611	C61	0.215210	0.103470	0.920570
N251	N25	0.204960	0.146750	0.950730
C621	C62	0.242630	0.148200	0.836980
N261	N26	0.241230	0.211800	0.816650
C631	C63	0.270220	0.979500	0.819330
N271	N27	0.285000	0.941900	0.788900
C641	C64	0.145310	0.025900	0.833870
N281	N28	0.088850	0.018500	0.811130
C651	C65	0.235270	0.929000	0.899960
N291	N29	0.232110	0.862490	0.916330
C661	C66	0.336900	0.055200	0.906410
N301	N30	0.392220	0.065500	0.929930
Fe61	Fe6	0.243940	0.511800	0.124800
C671	C67	0.257110	0.441350	0.072460
N311	N31	0.261510	0.396120	0.041720
C681	C68	0.231810	0.581900	0.177580
N321	N32	0.229560	0.624900	0.209420
C691	C69	0.229850	0.408800	0.159020
N331	N33	0.223850	0.348000	0.180230
C701	C70	0.341510	0.505600	0.158470
N341	N34	0.398100	0.500900	0.180980
C711	C71	0.145250	0.510960	0.092850
N351	N35	0.087310	0.506400	0.072760
C721	C72	0.261670	0.616640	0.093150
N361	N36	0.272400	0.680000	0.075890
Sn131	Sn13	0.267110	0.771840	0.504100
C731	C73	0.339100	0.742300	0.462210
H1091	H109	0.370900	0.791000	0.462800
H1101	H110	0.366200	0.691400	0.475500
H1111	H111	0.313700	0.730900	0.428900
C741	C74	0.299300	0.844000	0.568160
H1121	H112	0.303400	0.806000	0.596000
H1131	H113	0.344700	0.870700	0.569200
H1141	H114	0.264600	0.888800	0.569000
C751	C75	0.162900	0.728400	0.481800
H1151	H115	0.131900	0.777500	0.471100
H1161	H116	0.159000	0.687700	0.455100
H1171	H117	0.149500	0.699900	0.508800
Sn141	Sn14	0.246880	0.234270	0.235310
C761	C76	0.342000	0.214100	0.214890
H1181	H118	0.380000	0.205900	0.243800
H1191	H119	0.338000	0.162800	0.194500
H1201	H120	0.352300	0.264100	0.196900
C771	C77	0.155400	0.171400	0.195920
H1211	H121	0.150200	0.116200	0.211200
H1221	H122	0.114500	0.207400	0.195600
H1231	H123	0.159300	0.161600	0.162800
C781	C78	0.238100	0.320700	0.290920
H1241	H124	0.207000	0.368200	0.277200
H1251	H125	0.218900	0.290400	0.314900
H1261	H126	0.284500	0.343500	0.306400
Sn151	Sn15	0.273800	0.828650	0.735640
C791	C79	0.270000	0.744100	0.793160
H1271	H127	0.292100	0.771600	0.823900
H1281	H128	0.221200	0.730600	0.792500
H1291	H129	0.295100	0.691000	0.789700
C801	C80	0.369700	0.857300	0.718440
H1301	H130	0.396600	0.897100	0.742400
H1311	H131	0.396500	0.804200	0.718400
H1321	H132	0.360700	0.883900	0.686500
C811	C81	0.181900	0.884700	0.693010
H1331	H133	0.140800	0.858800	0.701200
H1341	H134	0.182200	0.946600	0.699200
H1351	H135	0.179900	0.874700	0.658900
Sn161	Sn16	0.506660	0.509580	0.753780
C821	C82	0.574700	0.560100	0.713590
H1361	H136	0.587200	0.619300	0.723800
H1371	H137	0.551300	0.559500	0.679300
H1381	H138	0.617200	0.525000	0.719100
C831	C83	0.492700	0.375300	0.756140
H1391	H139	0.469500	0.361200	0.781900
H1401	H140	0.538400	0.346800	0.762400
H1411	H141	0.463800	0.355600	0.725200
C841	C84	0.454800	0.594000	0.791700
H1421	H142	0.416000	0.622200	0.769000
H1431	H143	0.487800	0.637400	0.808400
H1441	H144	0.436500	0.561300	0.815300
Fe71	Fe7	0.258870	0.539700	0.630060
C851	C85	0.284790	0.603470	0.579430
N371	N37	0.295040	0.646750	0.549270
C861	C86	0.257370	0.648200	0.663020
N381	N38	0.258770	0.711800	0.683350
C871	C87	0.229780	0.479500	0.680670
N391	N39	0.215000	0.441900	0.711100
C881	C88	0.354690	0.525900	0.666130
N401	N40	0.411150	0.518500	0.688870
C891	C89	0.264730	0.429000	0.600040
N411	N41	0.267890	0.362490	0.583670
C901	C90	0.163100	0.555200	0.593590
N421	N42	0.107780	0.565500	0.570070
Fe81	Fe8	0.256060	0.011800	0.375200
C911	C91	0.242890	0.941350	0.427540
N431	N43	0.238490	0.896120	0.458280
C921	C92	0.268190	0.081900	0.322420
N441	N44	0.270440	0.124900	0.290580
C931	C93	0.270150	0.908800	0.340980
N451	N45	0.276150	0.848000	0.319770
C941	C94	0.158490	0.005600	0.341530
N461	N46	0.101900	0.000900	0.319020
C951	C95	0.354750	0.010960	0.407150
N471	N47	0.412690	0.006400	0.427240
C961	C96	0.238330	0.116640	0.406850
N481	N48	0.227600	0.180000	0.424110
