data_QAPQEE_clean_PM
_symmetry_space_group_name_H-M	'P1'
_cell_length_a	15.203500
_cell_length_b	16.591900
_cell_length_c	16.124000
_cell_angle_alpha	90.000000
_cell_angle_beta	116.849000
_cell_angle_gamma	90.000000
_symmetry_Int_Tables_number 1

loop_
_symmetry_equiv_pos_as_xyz
'x,y,z'

loop_
_atom_site_label
_atom_site_type_symbol
_atom_site_fract_x
_atom_site_fract_y
_atom_site_fract_z
Ag11	Ag1	0.070270	0.411060	0.395580
C11	C1	0.166770	0.263580	0.555040
H11	H1	0.189000	0.305500	0.600100
C21	C2	0.203160	0.186560	0.582660
C31	C3	0.171430	0.125080	0.516830
H21	H2	0.195700	0.071700	0.533500
C41	C4	0.103700	0.143350	0.426440
H31	H3	0.080600	0.102800	0.379800
C51	C5	0.070470	0.221580	0.405740
H41	H4	0.022800	0.233400	0.344000
C61	C6	0.389600	0.097240	0.098600
H51	H5	0.400200	0.085500	0.160100
C71	C7	0.367400	0.175200	0.067300
H61	H6	0.363700	0.216200	0.106700
C81	C8	0.350500	0.193150	0.977100
H71	H7	0.334200	0.246400	0.953400
C91	C9	0.357820	0.131670	0.922830
C101	C10	0.381340	0.054810	0.960510
H81	H8	0.386700	0.012800	0.923000
C111	C11	0.276200	0.167050	0.678450
C121	C12	0.342930	0.142700	0.827000
N11	N1	0.101460	0.281830	0.467410
N21	N2	0.396870	0.037040	0.046980
N31	N3	0.403220	0.115630	0.795820
N41	N4	0.360620	0.131100	0.701200
N51	N5	0.262950	0.176980	0.756210
N61	N6	0.182210	0.209600	0.765140
H91	H9	0.132000	0.181700	0.728000
H101	H10	0.182000	0.263000	0.750000
Ag21	Ag2	0.570270	0.911060	0.395580
C131	C13	0.666770	0.763580	0.555040
H111	H11	0.689000	0.805500	0.600100
C141	C14	0.703160	0.686560	0.582660
C151	C15	0.671430	0.625080	0.516830
H121	H12	0.695700	0.571700	0.533500
C161	C16	0.603700	0.643350	0.426440
H131	H13	0.580600	0.602800	0.379800
C171	C17	0.570470	0.721580	0.405740
H141	H14	0.522800	0.733400	0.344000
C181	C18	0.889600	0.597240	0.098600
H151	H15	0.900200	0.585500	0.160100
C191	C19	0.867400	0.675200	0.067300
H161	H16	0.863700	0.716200	0.106700
C201	C20	0.850500	0.693150	0.977100
H171	H17	0.834200	0.746400	0.953400
C211	C21	0.857820	0.631670	0.922830
C221	C22	0.881340	0.554810	0.960510
H181	H18	0.886700	0.512800	0.923000
C231	C23	0.776200	0.667050	0.678450
C241	C24	0.842930	0.642700	0.827000
N71	N7	0.601460	0.781830	0.467410
N81	N8	0.896870	0.537040	0.046980
N91	N9	0.903220	0.615630	0.795820
N101	N10	0.860620	0.631100	0.701200
N111	N11	0.762950	0.676980	0.756210
N121	N12	0.682210	0.709600	0.765140
H191	H19	0.632000	0.681700	0.728000
H201	H20	0.682000	0.763000	0.750000
Ag31	Ag3	0.929730	0.411060	0.104420
C251	C25	0.833230	0.263580	0.944960
H211	H21	0.811000	0.305500	0.899900
C261	C26	0.796840	0.186560	0.917340
C271	C27	0.828570	0.125080	0.983170
H221	H22	0.804300	0.071700	0.966500
C281	C28	0.896300	0.143350	0.073560
H231	H23	0.919400	0.102800	0.120200
C291	C29	0.929530	0.221580	0.094260
H241	H24	0.977200	0.233400	0.156000
C301	C30	0.610400	0.097240	0.401400
H251	H25	0.599800	0.085500	0.339900
C311	C31	0.632600	0.175200	0.432700
H261	H26	0.636300	0.216200	0.393300
C321	C32	0.649500	0.193150	0.522900
H271	H27	0.665800	0.246400	0.546600
C331	C33	0.642180	0.131670	0.577170
C341	C34	0.618660	0.054810	0.539490
H281	H28	0.613300	0.012800	0.577000
C351	C35	0.723800	0.167050	0.821550
C361	C36	0.657070	0.142700	0.673000
N131	N13	0.898540	0.281830	0.032590
N141	N14	0.603130	0.037040	0.453020
N151	N15	0.596780	0.115630	0.704180
N161	N16	0.639380	0.131100	0.798800
N171	N17	0.737050	0.176980	0.743790
N181	N18	0.817790	0.209600	0.734860
H291	H29	0.868000	0.181700	0.772000
H301	H30	0.818000	0.263000	0.750000
Ag41	Ag4	0.429730	0.911060	0.104420
C371	C37	0.333230	0.763580	0.944960
H311	H31	0.311000	0.805500	0.899900
C381	C38	0.296840	0.686560	0.917340
C391	C39	0.328570	0.625080	0.983170
H321	H32	0.304300	0.571700	0.966500
C401	C40	0.396300	0.643350	0.073560
H331	H33	0.419400	0.602800	0.120200
C411	C41	0.429530	0.721580	0.094260
H341	H34	0.477200	0.733400	0.156000
C421	C42	0.110400	0.597240	0.401400
H351	H35	0.099800	0.585500	0.339900
C431	C43	0.132600	0.675200	0.432700
H361	H36	0.136300	0.716200	0.393300
C441	C44	0.149500	0.693150	0.522900
H371	H37	0.165800	0.746400	0.546600
C451	C45	0.142180	0.631670	0.577170
C461	C46	0.118660	0.554810	0.539490
H381	H38	0.113300	0.512800	0.577000
C471	C47	0.223800	0.667050	0.821550
C481	C48	0.157070	0.642700	0.673000
N191	N19	0.398540	0.781830	0.032590
N201	N20	0.103130	0.537040	0.453020
N211	N21	0.096780	0.615630	0.704180
N221	N22	0.139380	0.631100	0.798800
N231	N23	0.237050	0.676980	0.743790
N241	N24	0.317790	0.709600	0.734860
H391	H39	0.368000	0.681700	0.772000
H401	H40	0.318000	0.763000	0.750000
Ag51	Ag5	0.929730	0.588940	0.604420
C491	C49	0.833230	0.736420	0.444960
H411	H41	0.811000	0.694500	0.399900
C501	C50	0.796840	0.813440	0.417340
C511	C51	0.828570	0.874920	0.483170
H421	H42	0.804300	0.928300	0.466500
C521	C52	0.896300	0.856650	0.573560
H431	H43	0.919400	0.897200	0.620200
C531	C53	0.929530	0.778420	0.594260
H441	H44	0.977200	0.766600	0.656000
C541	C54	0.610400	0.902760	0.901400
H451	H45	0.599800	0.914500	0.839900
C551	C55	0.632600	0.824800	0.932700
H461	H46	0.636300	0.783800	0.893300
C561	C56	0.649500	0.806850	0.022900
H471	H47	0.665800	0.753600	0.046600
C571	C57	0.642180	0.868330	0.077170
C581	C58	0.618660	0.945190	0.039490
H481	H48	0.613300	0.987200	0.077000
C591	C59	0.723800	0.832950	0.321550
C601	C60	0.657070	0.857300	0.173000
N251	N25	0.898540	0.718170	0.532590
N261	N26	0.603130	0.962960	0.953020
N271	N27	0.596780	0.884370	0.204180
N281	N28	0.639380	0.868900	0.298800
N291	N29	0.737050	0.823020	0.243790
N301	N30	0.817790	0.790400	0.234860
H491	H49	0.868000	0.818300	0.272000
H501	H50	0.818000	0.737000	0.250000
Ag61	Ag6	0.429730	0.088940	0.604420
C611	C61	0.333230	0.236420	0.444960
H511	H51	0.311000	0.194500	0.399900
C621	C62	0.296840	0.313440	0.417340
C631	C63	0.328570	0.374920	0.483170
H521	H52	0.304300	0.428300	0.466500
C641	C64	0.396300	0.356650	0.573560
H531	H53	0.419400	0.397200	0.620200
C651	C65	0.429530	0.278420	0.594260
H541	H54	0.477200	0.266600	0.656000
C661	C66	0.110400	0.402760	0.901400
H551	H55	0.099800	0.414500	0.839900
C671	C67	0.132600	0.324800	0.932700
H561	H56	0.136300	0.283800	0.893300
C681	C68	0.149500	0.306850	0.022900
H571	H57	0.165800	0.253600	0.046600
C691	C69	0.142180	0.368330	0.077170
C701	C70	0.118660	0.445190	0.039490
H581	H58	0.113300	0.487200	0.077000
C711	C71	0.223800	0.332950	0.321550
C721	C72	0.157070	0.357300	0.173000
N311	N31	0.398540	0.218170	0.532590
N321	N32	0.103130	0.462960	0.953020
N331	N33	0.096780	0.384370	0.204180
N341	N34	0.139380	0.368900	0.298800
N351	N35	0.237050	0.323020	0.243790
N361	N36	0.317790	0.290400	0.234860
H591	H59	0.368000	0.318300	0.272000
H601	H60	0.318000	0.237000	0.250000
Ag71	Ag7	0.070270	0.588940	0.895580
C731	C73	0.166770	0.736420	0.055040
H611	H61	0.189000	0.694500	0.100100
C741	C74	0.203160	0.813440	0.082660
C751	C75	0.171430	0.874920	0.016830
H621	H62	0.195700	0.928300	0.033500
C761	C76	0.103700	0.856650	0.926440
H631	H63	0.080600	0.897200	0.879800
C771	C77	0.070470	0.778420	0.905740
H641	H64	0.022800	0.766600	0.844000
C781	C78	0.389600	0.902760	0.598600
H651	H65	0.400200	0.914500	0.660100
C791	C79	0.367400	0.824800	0.567300
H661	H66	0.363700	0.783800	0.606700
C801	C80	0.350500	0.806850	0.477100
H671	H67	0.334200	0.753600	0.453400
C811	C81	0.357820	0.868330	0.422830
C821	C82	0.381340	0.945190	0.460510
H681	H68	0.386700	0.987200	0.423000
C831	C83	0.276200	0.832950	0.178450
C841	C84	0.342930	0.857300	0.327000
N371	N37	0.101460	0.718170	0.967410
N381	N38	0.396870	0.962960	0.546980
N391	N39	0.403220	0.884370	0.295820
N401	N40	0.360620	0.868900	0.201200
N411	N41	0.262950	0.823020	0.256210
N421	N42	0.182210	0.790400	0.265140
H691	H69	0.132000	0.818300	0.228000
H701	H70	0.182000	0.737000	0.250000
Ag81	Ag8	0.570270	0.088940	0.895580
C851	C85	0.666770	0.236420	0.055040
H711	H71	0.689000	0.194500	0.100100
C861	C86	0.703160	0.313440	0.082660
C871	C87	0.671430	0.374920	0.016830
H721	H72	0.695700	0.428300	0.033500
C881	C88	0.603700	0.356650	0.926440
H731	H73	0.580600	0.397200	0.879800
C891	C89	0.570470	0.278420	0.905740
H741	H74	0.522800	0.266600	0.844000
C901	C90	0.889600	0.402760	0.598600
H751	H75	0.900200	0.414500	0.660100
C911	C91	0.867400	0.324800	0.567300
H761	H76	0.863700	0.283800	0.606700
C921	C92	0.850500	0.306850	0.477100
H771	H77	0.834200	0.253600	0.453400
C931	C93	0.857820	0.368330	0.422830
C941	C94	0.881340	0.445190	0.460510
H781	H78	0.886700	0.487200	0.423000
C951	C95	0.776200	0.332950	0.178450
C961	C96	0.842930	0.357300	0.327000
N431	N43	0.601460	0.218170	0.967410
N441	N44	0.896870	0.462960	0.546980
N451	N45	0.903220	0.384370	0.295820
N461	N46	0.860620	0.368900	0.201200
N471	N47	0.762950	0.323020	0.256210
N481	N48	0.682210	0.290400	0.265140
H791	H79	0.632000	0.318300	0.228000
H801	H80	0.682000	0.237000	0.250000
