data_QAQHOG_clean_PM
_symmetry_space_group_name_H-M	'P1'
_cell_length_a	5.099600
_cell_length_b	21.259500
_cell_length_c	8.920900
_cell_angle_alpha	90.000000
_cell_angle_beta	90.239400
_cell_angle_gamma	90.000000
_symmetry_Int_Tables_number 1

loop_
_symmetry_equiv_pos_as_xyz
'x,y,z'

loop_
_atom_site_label
_atom_site_type_symbol
_atom_site_fract_x
_atom_site_fract_y
_atom_site_fract_z
Ti11	Ti1	0.727810	0.100400	0.021960
P11	P1	0.213230	0.385780	0.265430
P21	P2	0.239730	0.046140	0.839910
O11	O1	0.263800	0.322700	0.349000
O21	O2	0.720400	0.190700	0.969300
O31	O3	0.417400	0.392430	0.141600
O41	O4	0.024900	0.091400	0.893700
O51	O5	0.938400	0.382920	0.195900
O61	O6	0.750900	0.012400	0.061800
O71	O7	0.505900	0.080860	0.844300
O81	O8	0.234700	0.438850	0.379900
O91	O9	0.184900	0.029500	0.676000
Ti21	Ti2	0.272190	0.600400	0.978040
P31	P3	0.786770	0.885780	0.734570
P41	P4	0.760270	0.546140	0.160090
O101	O10	0.736200	0.822700	0.651000
O111	O11	0.279600	0.690700	0.030700
O121	O12	0.582600	0.892430	0.858400
O131	O13	0.975100	0.591400	0.106300
O141	O14	0.061600	0.882920	0.804100
O151	O15	0.249100	0.512400	0.938200
O161	O16	0.494100	0.580860	0.155700
O171	O17	0.765300	0.938850	0.620100
O181	O18	0.815100	0.529500	0.324000
Ti31	Ti3	0.272190	0.899600	0.978040
P51	P5	0.786770	0.614220	0.734570
P61	P6	0.760270	0.953860	0.160090
O191	O19	0.736200	0.677300	0.651000
O201	O20	0.279600	0.809300	0.030700
O211	O21	0.582600	0.607570	0.858400
O221	O22	0.975100	0.908600	0.106300
O231	O23	0.061600	0.617080	0.804100
O241	O24	0.249100	0.987600	0.938200
O251	O25	0.494100	0.919140	0.155700
O261	O26	0.765300	0.561150	0.620100
O271	O27	0.815100	0.970500	0.324000
Ti41	Ti4	0.727810	0.399600	0.021960
P71	P7	0.213230	0.114220	0.265430
P81	P8	0.239730	0.453860	0.839910
O281	O28	0.263800	0.177300	0.349000
O291	O29	0.720400	0.309300	0.969300
O301	O30	0.417400	0.107570	0.141600
O311	O31	0.024900	0.408600	0.893700
O321	O32	0.938400	0.117080	0.195900
O331	O33	0.750900	0.487600	0.061800
O341	O34	0.505900	0.419140	0.844300
O351	O35	0.234700	0.061150	0.379900
O361	O36	0.184900	0.470500	0.676000
Ga11	Ga1	0.315300	0.250000	0.243920
P91	P9	0.802700	0.250000	0.055810
O371	O37	0.667600	0.250000	0.210900
O381	O38	0.102600	0.250000	0.078600
Ga21	Ga2	0.684700	0.750000	0.756080
P101	P10	0.197300	0.750000	0.944190
O391	O39	0.332400	0.750000	0.789100
O401	O40	0.897400	0.750000	0.921400
Ti51	Ti5	0.000000	0.500000	0.500000
Ti61	Ti6	0.000000	0.000000	0.500000
