data_QAQMON_clean_PM
_symmetry_space_group_name_H-M	'P1'
_cell_length_a	31.406500
_cell_length_b	31.406500
_cell_length_c	21.573200
_cell_angle_alpha	90.000000
_cell_angle_beta	90.000000
_cell_angle_gamma	90.000000
_symmetry_Int_Tables_number 1

loop_
_symmetry_equiv_pos_as_xyz
'x,y,z'

loop_
_atom_site_label
_atom_site_type_symbol
_atom_site_fract_x
_atom_site_fract_y
_atom_site_fract_z
Cu11	Cu1	0.968140	0.498300	0.299700
O11	O1	0.412350	0.493130	0.758800
O21	O2	0.442340	0.467720	0.671600
O31	O3	0.027600	0.492630	0.325300
O41	O4	0.055860	0.525500	0.243600
O51	O5	0.251810	0.312190	0.533400
O61	O6	0.241180	0.312090	0.430100
O71	O7	0.249280	0.466290	0.592900
O81	O8	0.224940	0.466500	0.375700
C11	C1	0.369400	0.474600	0.674100
C21	C2	0.102900	0.495600	0.316600
C31	C3	0.242300	0.377600	0.482700
C41	C4	0.411400	0.479200	0.704200
C51	C5	0.057300	0.505900	0.293300
C61	C6	0.249000	0.399000	0.538100
H11	H1	0.255360	0.384420	0.574510
C71	C7	0.246500	0.329800	0.482400
C81	C8	0.106600	0.470700	0.368800
H21	H2	0.082200	0.460240	0.387940
C91	C9	0.289900	0.468400	0.617200
C101	C10	0.230700	0.440300	0.430500
C111	C11	0.245900	0.443100	0.536900
C121	C12	0.365800	0.461000	0.615000
H31	H3	0.390440	0.453990	0.593470
C131	C13	0.233800	0.399300	0.426800
H41	H4	0.230690	0.384990	0.389420
C141	C14	0.180400	0.474500	0.360500
C151	C15	0.138000	0.509900	0.286100
H51	H5	0.134270	0.525800	0.250190
C161	C16	0.327200	0.457100	0.584900
H61	H6	0.325880	0.447330	0.544240
C171	C17	0.236800	0.464700	0.482200
H71	H7	0.234880	0.494250	0.480890
C181	C18	0.179700	0.501600	0.306800
H81	H8	0.203960	0.512350	0.287820
C191	C19	0.333600	0.485000	0.705900
H91	H9	0.335690	0.493580	0.747060
C201	C20	0.145600	0.461400	0.392600
H101	H10	0.148280	0.446540	0.429720
C211	C21	0.291200	0.482700	0.675900
H111	H11	0.266580	0.490730	0.696790
Cu21	Cu2	0.531860	0.001700	0.299700
O91	O9	0.087650	0.006870	0.758800
O101	O10	0.057660	0.032280	0.671600
O111	O11	0.472400	0.007370	0.325300
O121	O12	0.444140	0.974500	0.243600
O131	O13	0.248190	0.187810	0.533400
O141	O14	0.258820	0.187910	0.430100
O151	O15	0.250720	0.033710	0.592900
O161	O16	0.275060	0.033500	0.375700
C221	C22	0.130600	0.025400	0.674100
C231	C23	0.397100	0.004400	0.316600
C241	C24	0.257700	0.122400	0.482700
C251	C25	0.088600	0.020800	0.704200
C261	C26	0.442700	0.994100	0.293300
C271	C27	0.251000	0.101000	0.538100
H121	H12	0.244640	0.115580	0.574510
C281	C28	0.253500	0.170200	0.482400
C291	C29	0.393400	0.029300	0.368800
H131	H13	0.417800	0.039760	0.387940
C301	C30	0.210100	0.031600	0.617200
C311	C31	0.269300	0.059700	0.430500
C321	C32	0.254100	0.056900	0.536900
C331	C33	0.134200	0.039000	0.615000
H141	H14	0.109560	0.046010	0.593470
C341	C34	0.266200	0.100700	0.426800
H151	H15	0.269310	0.115010	0.389420
C351	C35	0.319600	0.025500	0.360500
C361	C36	0.362000	0.990100	0.286100
H161	H16	0.365730	0.974200	0.250190
C371	C37	0.172800	0.042900	0.584900
H171	H17	0.174120	0.052670	0.544240
C381	C38	0.263200	0.035300	0.482200
H181	H18	0.265120	0.005750	0.480890
C391	C39	0.320300	0.998400	0.306800
H191	H19	0.296040	0.987650	0.287820
C401	C40	0.166400	0.015000	0.705900
H201	H20	0.164310	0.006420	0.747060
C411	C41	0.354400	0.038600	0.392600
H211	H21	0.351720	0.053460	0.429720
C421	C42	0.208800	0.017300	0.675900
H221	H22	0.233420	0.009270	0.696790
Cu31	Cu3	0.001700	0.968140	0.299700
O171	O17	0.006870	0.412350	0.758800
O181	O18	0.032280	0.442340	0.671600
O191	O19	0.007370	0.027600	0.325300
O201	O20	0.974500	0.055860	0.243600
O211	O21	0.187810	0.251810	0.533400
O221	O22	0.187910	0.241180	0.430100
O231	O23	0.033710	0.249280	0.592900
O241	O24	0.033500	0.224940	0.375700
C431	C43	0.025400	0.369400	0.674100
C441	C44	0.004400	0.102900	0.316600
C451	C45	0.122400	0.242300	0.482700
C461	C46	0.020800	0.411400	0.704200
C471	C47	0.994100	0.057300	0.293300
C481	C48	0.101000	0.249000	0.538100
H231	H23	0.115580	0.255360	0.574510
C491	C49	0.170200	0.246500	0.482400
C501	C50	0.029300	0.106600	0.368800
H241	H24	0.039760	0.082200	0.387940
C511	C51	0.031600	0.289900	0.617200
C521	C52	0.059700	0.230700	0.430500
C531	C53	0.056900	0.245900	0.536900
C541	C54	0.039000	0.365800	0.615000
H251	H25	0.046010	0.390440	0.593470
C551	C55	0.100700	0.233800	0.426800
H261	H26	0.115010	0.230690	0.389420
C561	C56	0.025500	0.180400	0.360500
C571	C57	0.990100	0.138000	0.286100
H271	H27	0.974200	0.134270	0.250190
C581	C58	0.042900	0.327200	0.584900
H281	H28	0.052670	0.325880	0.544240
C591	C59	0.035300	0.236800	0.482200
H291	H29	0.005750	0.234880	0.480890
C601	C60	0.998400	0.179700	0.306800
H301	H30	0.987650	0.203960	0.287820
C611	C61	0.015000	0.333600	0.705900
H311	H31	0.006420	0.335690	0.747060
C621	C62	0.038600	0.145600	0.392600
H321	H32	0.053460	0.148280	0.429720
C631	C63	0.017300	0.291200	0.675900
H331	H33	0.009270	0.266580	0.696790
Cu41	Cu4	0.498300	0.531860	0.299700
O251	O25	0.493130	0.087650	0.758800
O261	O26	0.467720	0.057660	0.671600
O271	O27	0.492630	0.472400	0.325300
O281	O28	0.525500	0.444140	0.243600
O291	O29	0.312190	0.248190	0.533400
O301	O30	0.312090	0.258820	0.430100
O311	O31	0.466290	0.250720	0.592900
O321	O32	0.466500	0.275060	0.375700
C641	C64	0.474600	0.130600	0.674100
C651	C65	0.495600	0.397100	0.316600
C661	C66	0.377600	0.257700	0.482700
C671	C67	0.479200	0.088600	0.704200
C681	C68	0.505900	0.442700	0.293300
C691	C69	0.399000	0.251000	0.538100
H341	H34	0.384420	0.244640	0.574510
C701	C70	0.329800	0.253500	0.482400
C711	C71	0.470700	0.393400	0.368800
H351	H35	0.460240	0.417800	0.387940
C721	C72	0.468400	0.210100	0.617200
C731	C73	0.440300	0.269300	0.430500
C741	C74	0.443100	0.254100	0.536900
C751	C75	0.461000	0.134200	0.615000
H361	H36	0.453990	0.109560	0.593470
C761	C76	0.399300	0.266200	0.426800
H371	H37	0.384990	0.269310	0.389420
C771	C77	0.474500	0.319600	0.360500
C781	C78	0.509900	0.362000	0.286100
H381	H38	0.525800	0.365730	0.250190
C791	C79	0.457100	0.172800	0.584900
H391	H39	0.447330	0.174120	0.544240
C801	C80	0.464700	0.263200	0.482200
H401	H40	0.494250	0.265120	0.480890
C811	C81	0.501600	0.320300	0.306800
H411	H41	0.512350	0.296040	0.287820
C821	C82	0.485000	0.166400	0.705900
H421	H42	0.493580	0.164310	0.747060
C831	C83	0.461400	0.354400	0.392600
H431	H43	0.446540	0.351720	0.429720
C841	C84	0.482700	0.208800	0.675900
H441	H44	0.490730	0.233420	0.696790
Cu51	Cu5	0.531860	0.498300	0.200300
O331	O33	0.087650	0.493130	0.741200
O341	O34	0.057660	0.467720	0.828400
O351	O35	0.472400	0.492630	0.174700
O361	O36	0.444140	0.525500	0.256400
O371	O37	0.248190	0.312190	0.966600
O381	O38	0.258820	0.312090	0.069900
O391	O39	0.250720	0.466290	0.907100
O401	O40	0.275060	0.466500	0.124300
C851	C85	0.130600	0.474600	0.825900
C861	C86	0.397100	0.495600	0.183400
C871	C87	0.257700	0.377600	0.017300
C881	C88	0.088600	0.479200	0.795800
C891	C89	0.442700	0.505900	0.206700
C901	C90	0.251000	0.399000	0.961900
H451	H45	0.244640	0.384420	0.925490
C911	C91	0.253500	0.329800	0.017600
C921	C92	0.393400	0.470700	0.131200
H461	H46	0.417800	0.460240	0.112060
C931	C93	0.210100	0.468400	0.882800
C941	C94	0.269300	0.440300	0.069500
C951	C95	0.254100	0.443100	0.963100
C961	C96	0.134200	0.461000	0.885000
H471	H47	0.109560	0.453990	0.906530
C971	C97	0.266200	0.399300	0.073200
H481	H48	0.269310	0.384990	0.110580
C981	C98	0.319600	0.474500	0.139500
C991	C99	0.362000	0.509900	0.213900
H491	H49	0.365730	0.525800	0.249810
C1001	C100	0.172800	0.457100	0.915100
H501	H50	0.174120	0.447330	0.955760
C1011	C101	0.263200	0.464700	0.017800
H511	H51	0.265120	0.494250	0.019110
C1021	C102	0.320300	0.501600	0.193200
H521	H52	0.296040	0.512350	0.212180
C1031	C103	0.166400	0.485000	0.794100
H531	H53	0.164310	0.493580	0.752940
C1041	C104	0.354400	0.461400	0.107400
H541	H54	0.351720	0.446540	0.070280
C1051	C105	0.208800	0.482700	0.824100
H551	H55	0.233420	0.490730	0.803210
Cu61	Cu6	0.968140	0.001700	0.200300
O411	O41	0.412350	0.006870	0.741200
O421	O42	0.442340	0.032280	0.828400
O431	O43	0.027600	0.007370	0.174700
O441	O44	0.055860	0.974500	0.256400
O451	O45	0.251810	0.187810	0.966600
O461	O46	0.241180	0.187910	0.069900
O471	O47	0.249280	0.033710	0.907100
O481	O48	0.224940	0.033500	0.124300
C1061	C106	0.369400	0.025400	0.825900
C1071	C107	0.102900	0.004400	0.183400
C1081	C108	0.242300	0.122400	0.017300
C1091	C109	0.411400	0.020800	0.795800
C1101	C110	0.057300	0.994100	0.206700
C1111	C111	0.249000	0.101000	0.961900
H561	H56	0.255360	0.115580	0.925490
C1121	C112	0.246500	0.170200	0.017600
C1131	C113	0.106600	0.029300	0.131200
H571	H57	0.082200	0.039760	0.112060
C1141	C114	0.289900	0.031600	0.882800
C1151	C115	0.230700	0.059700	0.069500
C1161	C116	0.245900	0.056900	0.963100
C1171	C117	0.365800	0.039000	0.885000
H581	H58	0.390440	0.046010	0.906530
C1181	C118	0.233800	0.100700	0.073200
H591	H59	0.230690	0.115010	0.110580
C1191	C119	0.180400	0.025500	0.139500
C1201	C120	0.138000	0.990100	0.213900
H601	H60	0.134270	0.974200	0.249810
C1211	C121	0.327200	0.042900	0.915100
H611	H61	0.325880	0.052670	0.955760
C1221	C122	0.236800	0.035300	0.017800
H621	H62	0.234880	0.005750	0.019110
C1231	C123	0.179700	0.998400	0.193200
H631	H63	0.203960	0.987650	0.212180
C1241	C124	0.333600	0.015000	0.794100
H641	H64	0.335690	0.006420	0.752940
C1251	C125	0.145600	0.038600	0.107400
H651	H65	0.148280	0.053460	0.070280
C1261	C126	0.291200	0.017300	0.824100
H661	H66	0.266580	0.009270	0.803210
Cu71	Cu7	0.498300	0.968140	0.200300
O491	O49	0.493130	0.412350	0.741200
O501	O50	0.467720	0.442340	0.828400
O511	O51	0.492630	0.027600	0.174700
O521	O52	0.525500	0.055860	0.256400
O531	O53	0.312190	0.251810	0.966600
O541	O54	0.312090	0.241180	0.069900
O551	O55	0.466290	0.249280	0.907100
O561	O56	0.466500	0.224940	0.124300
C1271	C127	0.474600	0.369400	0.825900
C1281	C128	0.495600	0.102900	0.183400
C1291	C129	0.377600	0.242300	0.017300
C1301	C130	0.479200	0.411400	0.795800
C1311	C131	0.505900	0.057300	0.206700
C1321	C132	0.399000	0.249000	0.961900
H671	H67	0.384420	0.255360	0.925490
C1331	C133	0.329800	0.246500	0.017600
C1341	C134	0.470700	0.106600	0.131200
H681	H68	0.460240	0.082200	0.112060
C1351	C135	0.468400	0.289900	0.882800
C1361	C136	0.440300	0.230700	0.069500
C1371	C137	0.443100	0.245900	0.963100
C1381	C138	0.461000	0.365800	0.885000
H691	H69	0.453990	0.390440	0.906530
C1391	C139	0.399300	0.233800	0.073200
H701	H70	0.384990	0.230690	0.110580
C1401	C140	0.474500	0.180400	0.139500
C1411	C141	0.509900	0.138000	0.213900
H711	H71	0.525800	0.134270	0.249810
C1421	C142	0.457100	0.327200	0.915100
H721	H72	0.447330	0.325880	0.955760
C1431	C143	0.464700	0.236800	0.017800
H731	H73	0.494250	0.234880	0.019110
C1441	C144	0.501600	0.179700	0.193200
H741	H74	0.512350	0.203960	0.212180
C1451	C145	0.485000	0.333600	0.794100
H751	H75	0.493580	0.335690	0.752940
C1461	C146	0.461400	0.145600	0.107400
H761	H76	0.446540	0.148280	0.070280
C1471	C147	0.482700	0.291200	0.824100
H771	H77	0.490730	0.266580	0.803210
Cu81	Cu8	0.001700	0.531860	0.200300
O571	O57	0.006870	0.087650	0.741200
O581	O58	0.032280	0.057660	0.828400
O591	O59	0.007370	0.472400	0.174700
O601	O60	0.974500	0.444140	0.256400
O611	O61	0.187810	0.248190	0.966600
O621	O62	0.187910	0.258820	0.069900
O631	O63	0.033710	0.250720	0.907100
O641	O64	0.033500	0.275060	0.124300
C1481	C148	0.025400	0.130600	0.825900
C1491	C149	0.004400	0.397100	0.183400
C1501	C150	0.122400	0.257700	0.017300
C1511	C151	0.020800	0.088600	0.795800
C1521	C152	0.994100	0.442700	0.206700
C1531	C153	0.101000	0.251000	0.961900
H781	H78	0.115580	0.244640	0.925490
C1541	C154	0.170200	0.253500	0.017600
C1551	C155	0.029300	0.393400	0.131200
H791	H79	0.039760	0.417800	0.112060
C1561	C156	0.031600	0.210100	0.882800
C1571	C157	0.059700	0.269300	0.069500
C1581	C158	0.056900	0.254100	0.963100
C1591	C159	0.039000	0.134200	0.885000
H801	H80	0.046010	0.109560	0.906530
C1601	C160	0.100700	0.266200	0.073200
H811	H81	0.115010	0.269310	0.110580
C1611	C161	0.025500	0.319600	0.139500
C1621	C162	0.990100	0.362000	0.213900
H821	H82	0.974200	0.365730	0.249810
C1631	C163	0.042900	0.172800	0.915100
H831	H83	0.052670	0.174120	0.955760
C1641	C164	0.035300	0.263200	0.017800
H841	H84	0.005750	0.265120	0.019110
C1651	C165	0.998400	0.320300	0.193200
H851	H85	0.987650	0.296040	0.212180
C1661	C166	0.015000	0.166400	0.794100
H861	H86	0.006420	0.164310	0.752940
C1671	C167	0.038600	0.354400	0.107400
H871	H87	0.053460	0.351720	0.070280
C1681	C168	0.017300	0.208800	0.824100
H881	H88	0.009270	0.233420	0.803210
Cu91	Cu9	0.031860	0.501700	0.700300
O651	O65	0.587650	0.506870	0.241200
O661	O66	0.557660	0.532280	0.328400
O671	O67	0.972400	0.507370	0.674700
O681	O68	0.944140	0.474500	0.756400
O691	O69	0.748190	0.687810	0.466600
O701	O70	0.758820	0.687910	0.569900
O711	O71	0.750720	0.533710	0.407100
O721	O72	0.775060	0.533500	0.624300
C1691	C169	0.630600	0.525400	0.325900
C1701	C170	0.897100	0.504400	0.683400
C1711	C171	0.757700	0.622400	0.517300
C1721	C172	0.588600	0.520800	0.295800
C1731	C173	0.942700	0.494100	0.706700
C1741	C174	0.751000	0.601000	0.461900
H891	H89	0.744640	0.615580	0.425490
C1751	C175	0.753500	0.670200	0.517600
C1761	C176	0.893400	0.529300	0.631200
H901	H90	0.917800	0.539760	0.612060
C1771	C177	0.710100	0.531600	0.382800
C1781	C178	0.769300	0.559700	0.569500
C1791	C179	0.754100	0.556900	0.463100
C1801	C180	0.634200	0.539000	0.385000
H911	H91	0.609560	0.546010	0.406530
C1811	C181	0.766200	0.600700	0.573200
H921	H92	0.769310	0.615010	0.610580
C1821	C182	0.819600	0.525500	0.639500
C1831	C183	0.862000	0.490100	0.713900
H931	H93	0.865730	0.474200	0.749810
C1841	C184	0.672800	0.542900	0.415100
H941	H94	0.674120	0.552670	0.455760
C1851	C185	0.763200	0.535300	0.517800
H951	H95	0.765120	0.505750	0.519110
C1861	C186	0.820300	0.498400	0.693200
H961	H96	0.796040	0.487650	0.712180
C1871	C187	0.666400	0.515000	0.294100
H971	H97	0.664310	0.506420	0.252940
C1881	C188	0.854400	0.538600	0.607400
H981	H98	0.851720	0.553460	0.570280
C1891	C189	0.708800	0.517300	0.324100
H991	H99	0.733420	0.509270	0.303210
Cu101	Cu10	0.468140	0.998300	0.700300
O731	O73	0.912350	0.993130	0.241200
O741	O74	0.942340	0.967720	0.328400
O751	O75	0.527600	0.992630	0.674700
O761	O76	0.555860	0.025500	0.756400
O771	O77	0.751810	0.812190	0.466600
O781	O78	0.741180	0.812090	0.569900
O791	O79	0.749280	0.966290	0.407100
O801	O80	0.724940	0.966500	0.624300
C1901	C190	0.869400	0.974600	0.325900
C1911	C191	0.602900	0.995600	0.683400
C1921	C192	0.742300	0.877600	0.517300
C1931	C193	0.911400	0.979200	0.295800
C1941	C194	0.557300	0.005900	0.706700
C1951	C195	0.749000	0.899000	0.461900
H1001	H100	0.755360	0.884420	0.425490
C1961	C196	0.746500	0.829800	0.517600
C1971	C197	0.606600	0.970700	0.631200
H1011	H101	0.582200	0.960240	0.612060
C1981	C198	0.789900	0.968400	0.382800
C1991	C199	0.730700	0.940300	0.569500
C2001	C200	0.745900	0.943100	0.463100
C2011	C201	0.865800	0.961000	0.385000
H1021	H102	0.890440	0.953990	0.406530
C2021	C202	0.733800	0.899300	0.573200
H1031	H103	0.730690	0.884990	0.610580
C2031	C203	0.680400	0.974500	0.639500
C2041	C204	0.638000	0.009900	0.713900
H1041	H104	0.634270	0.025800	0.749810
C2051	C205	0.827200	0.957100	0.415100
H1051	H105	0.825880	0.947330	0.455760
C2061	C206	0.736800	0.964700	0.517800
H1061	H106	0.734880	0.994250	0.519110
C2071	C207	0.679700	0.001600	0.693200
H1071	H107	0.703960	0.012350	0.712180
C2081	C208	0.833600	0.985000	0.294100
H1081	H108	0.835690	0.993580	0.252940
C2091	C209	0.645600	0.961400	0.607400
H1091	H109	0.648280	0.946540	0.570280
C2101	C210	0.791200	0.982700	0.324100
H1101	H110	0.766580	0.990730	0.303210
Cu111	Cu11	0.998300	0.031860	0.700300
O811	O81	0.993130	0.587650	0.241200
O821	O82	0.967720	0.557660	0.328400
O831	O83	0.992630	0.972400	0.674700
O841	O84	0.025500	0.944140	0.756400
O851	O85	0.812190	0.748190	0.466600
O861	O86	0.812090	0.758820	0.569900
O871	O87	0.966290	0.750720	0.407100
O881	O88	0.966500	0.775060	0.624300
C2111	C211	0.974600	0.630600	0.325900
C2121	C212	0.995600	0.897100	0.683400
C2131	C213	0.877600	0.757700	0.517300
C2141	C214	0.979200	0.588600	0.295800
C2151	C215	0.005900	0.942700	0.706700
C2161	C216	0.899000	0.751000	0.461900
H1111	H111	0.884420	0.744640	0.425490
C2171	C217	0.829800	0.753500	0.517600
C2181	C218	0.970700	0.893400	0.631200
H1121	H112	0.960240	0.917800	0.612060
C2191	C219	0.968400	0.710100	0.382800
C2201	C220	0.940300	0.769300	0.569500
C2211	C221	0.943100	0.754100	0.463100
C2221	C222	0.961000	0.634200	0.385000
H1131	H113	0.953990	0.609560	0.406530
C2231	C223	0.899300	0.766200	0.573200
H1141	H114	0.884990	0.769310	0.610580
C2241	C224	0.974500	0.819600	0.639500
C2251	C225	0.009900	0.862000	0.713900
H1151	H115	0.025800	0.865730	0.749810
C2261	C226	0.957100	0.672800	0.415100
H1161	H116	0.947330	0.674120	0.455760
C2271	C227	0.964700	0.763200	0.517800
H1171	H117	0.994250	0.765120	0.519110
C2281	C228	0.001600	0.820300	0.693200
H1181	H118	0.012350	0.796040	0.712180
C2291	C229	0.985000	0.666400	0.294100
H1191	H119	0.993580	0.664310	0.252940
C2301	C230	0.961400	0.854400	0.607400
H1201	H120	0.946540	0.851720	0.570280
C2311	C231	0.982700	0.708800	0.324100
H1211	H121	0.990730	0.733420	0.303210
Cu121	Cu12	0.501700	0.468140	0.700300
O891	O89	0.506870	0.912350	0.241200
O901	O90	0.532280	0.942340	0.328400
O911	O91	0.507370	0.527600	0.674700
O921	O92	0.474500	0.555860	0.756400
O931	O93	0.687810	0.751810	0.466600
O941	O94	0.687910	0.741180	0.569900
O951	O95	0.533710	0.749280	0.407100
O961	O96	0.533500	0.724940	0.624300
C2321	C232	0.525400	0.869400	0.325900
C2331	C233	0.504400	0.602900	0.683400
C2341	C234	0.622400	0.742300	0.517300
C2351	C235	0.520800	0.911400	0.295800
C2361	C236	0.494100	0.557300	0.706700
C2371	C237	0.601000	0.749000	0.461900
H1221	H122	0.615580	0.755360	0.425490
C2381	C238	0.670200	0.746500	0.517600
C2391	C239	0.529300	0.606600	0.631200
H1231	H123	0.539760	0.582200	0.612060
C2401	C240	0.531600	0.789900	0.382800
C2411	C241	0.559700	0.730700	0.569500
C2421	C242	0.556900	0.745900	0.463100
C2431	C243	0.539000	0.865800	0.385000
H1241	H124	0.546010	0.890440	0.406530
C2441	C244	0.600700	0.733800	0.573200
H1251	H125	0.615010	0.730690	0.610580
C2451	C245	0.525500	0.680400	0.639500
C2461	C246	0.490100	0.638000	0.713900
H1261	H126	0.474200	0.634270	0.749810
C2471	C247	0.542900	0.827200	0.415100
H1271	H127	0.552670	0.825880	0.455760
C2481	C248	0.535300	0.736800	0.517800
H1281	H128	0.505750	0.734880	0.519110
C2491	C249	0.498400	0.679700	0.693200
H1291	H129	0.487650	0.703960	0.712180
C2501	C250	0.515000	0.833600	0.294100
H1301	H130	0.506420	0.835690	0.252940
C2511	C251	0.538600	0.645600	0.607400
H1311	H131	0.553460	0.648280	0.570280
C2521	C252	0.517300	0.791200	0.324100
H1321	H132	0.509270	0.766580	0.303210
Cu131	Cu13	0.468140	0.501700	0.799700
O971	O97	0.912350	0.506870	0.258800
O981	O98	0.942340	0.532280	0.171600
O991	O99	0.527600	0.507370	0.825300
O1001	O100	0.555860	0.474500	0.743600
O1011	O101	0.751810	0.687810	0.033400
O1021	O102	0.741180	0.687910	0.930100
O1031	O103	0.749280	0.533710	0.092900
O1041	O104	0.724940	0.533500	0.875700
C2531	C253	0.869400	0.525400	0.174100
C2541	C254	0.602900	0.504400	0.816600
C2551	C255	0.742300	0.622400	0.982700
C2561	C256	0.911400	0.520800	0.204200
C2571	C257	0.557300	0.494100	0.793300
C2581	C258	0.749000	0.601000	0.038100
H1331	H133	0.755360	0.615580	0.074510
C2591	C259	0.746500	0.670200	0.982400
C2601	C260	0.606600	0.529300	0.868800
H1341	H134	0.582200	0.539760	0.887940
C2611	C261	0.789900	0.531600	0.117200
C2621	C262	0.730700	0.559700	0.930500
C2631	C263	0.745900	0.556900	0.036900
C2641	C264	0.865800	0.539000	0.115000
H1351	H135	0.890440	0.546010	0.093470
C2651	C265	0.733800	0.600700	0.926800
H1361	H136	0.730690	0.615010	0.889420
C2661	C266	0.680400	0.525500	0.860500
C2671	C267	0.638000	0.490100	0.786100
H1371	H137	0.634270	0.474200	0.750190
C2681	C268	0.827200	0.542900	0.084900
H1381	H138	0.825880	0.552670	0.044240
C2691	C269	0.736800	0.535300	0.982200
H1391	H139	0.734880	0.505750	0.980890
C2701	C270	0.679700	0.498400	0.806800
H1401	H140	0.703960	0.487650	0.787820
C2711	C271	0.833600	0.515000	0.205900
H1411	H141	0.835690	0.506420	0.247060
C2721	C272	0.645600	0.538600	0.892600
H1421	H142	0.648280	0.553460	0.929720
C2731	C273	0.791200	0.517300	0.175900
H1431	H143	0.766580	0.509270	0.196790
Cu141	Cu14	0.031860	0.998300	0.799700
O1051	O105	0.587650	0.993130	0.258800
O1061	O106	0.557660	0.967720	0.171600
O1071	O107	0.972400	0.992630	0.825300
O1081	O108	0.944140	0.025500	0.743600
O1091	O109	0.748190	0.812190	0.033400
O1101	O110	0.758820	0.812090	0.930100
O1111	O111	0.750720	0.966290	0.092900
O1121	O112	0.775060	0.966500	0.875700
C2741	C274	0.630600	0.974600	0.174100
C2751	C275	0.897100	0.995600	0.816600
C2761	C276	0.757700	0.877600	0.982700
C2771	C277	0.588600	0.979200	0.204200
C2781	C278	0.942700	0.005900	0.793300
C2791	C279	0.751000	0.899000	0.038100
H1441	H144	0.744640	0.884420	0.074510
C2801	C280	0.753500	0.829800	0.982400
C2811	C281	0.893400	0.970700	0.868800
H1451	H145	0.917800	0.960240	0.887940
C2821	C282	0.710100	0.968400	0.117200
C2831	C283	0.769300	0.940300	0.930500
C2841	C284	0.754100	0.943100	0.036900
C2851	C285	0.634200	0.961000	0.115000
H1461	H146	0.609560	0.953990	0.093470
C2861	C286	0.766200	0.899300	0.926800
H1471	H147	0.769310	0.884990	0.889420
C2871	C287	0.819600	0.974500	0.860500
C2881	C288	0.862000	0.009900	0.786100
H1481	H148	0.865730	0.025800	0.750190
C2891	C289	0.672800	0.957100	0.084900
H1491	H149	0.674120	0.947330	0.044240
C2901	C290	0.763200	0.964700	0.982200
H1501	H150	0.765120	0.994250	0.980890
C2911	C291	0.820300	0.001600	0.806800
H1511	H151	0.796040	0.012350	0.787820
C2921	C292	0.666400	0.985000	0.205900
H1521	H152	0.664310	0.993580	0.247060
C2931	C293	0.854400	0.961400	0.892600
H1531	H153	0.851720	0.946540	0.929720
C2941	C294	0.708800	0.982700	0.175900
H1541	H154	0.733420	0.990730	0.196790
Cu151	Cu15	0.501700	0.031860	0.799700
O1131	O113	0.506870	0.587650	0.258800
O1141	O114	0.532280	0.557660	0.171600
O1151	O115	0.507370	0.972400	0.825300
O1161	O116	0.474500	0.944140	0.743600
O1171	O117	0.687810	0.748190	0.033400
O1181	O118	0.687910	0.758820	0.930100
O1191	O119	0.533710	0.750720	0.092900
O1201	O120	0.533500	0.775060	0.875700
C2951	C295	0.525400	0.630600	0.174100
C2961	C296	0.504400	0.897100	0.816600
C2971	C297	0.622400	0.757700	0.982700
C2981	C298	0.520800	0.588600	0.204200
C2991	C299	0.494100	0.942700	0.793300
C3001	C300	0.601000	0.751000	0.038100
H1551	H155	0.615580	0.744640	0.074510
C3011	C301	0.670200	0.753500	0.982400
C3021	C302	0.529300	0.893400	0.868800
H1561	H156	0.539760	0.917800	0.887940
C3031	C303	0.531600	0.710100	0.117200
C3041	C304	0.559700	0.769300	0.930500
C3051	C305	0.556900	0.754100	0.036900
C3061	C306	0.539000	0.634200	0.115000
H1571	H157	0.546010	0.609560	0.093470
C3071	C307	0.600700	0.766200	0.926800
H1581	H158	0.615010	0.769310	0.889420
C3081	C308	0.525500	0.819600	0.860500
C3091	C309	0.490100	0.862000	0.786100
H1591	H159	0.474200	0.865730	0.750190
C3101	C310	0.542900	0.672800	0.084900
H1601	H160	0.552670	0.674120	0.044240
C3111	C311	0.535300	0.763200	0.982200
H1611	H161	0.505750	0.765120	0.980890
C3121	C312	0.498400	0.820300	0.806800
H1621	H162	0.487650	0.796040	0.787820
C3131	C313	0.515000	0.666400	0.205900
H1631	H163	0.506420	0.664310	0.247060
C3141	C314	0.538600	0.854400	0.892600
H1641	H164	0.553460	0.851720	0.929720
C3151	C315	0.517300	0.708800	0.175900
H1651	H165	0.509270	0.733420	0.196790
Cu161	Cu16	0.998300	0.468140	0.799700
O1211	O121	0.993130	0.912350	0.258800
O1221	O122	0.967720	0.942340	0.171600
O1231	O123	0.992630	0.527600	0.825300
O1241	O124	0.025500	0.555860	0.743600
O1251	O125	0.812190	0.751810	0.033400
O1261	O126	0.812090	0.741180	0.930100
O1271	O127	0.966290	0.749280	0.092900
O1281	O128	0.966500	0.724940	0.875700
C3161	C316	0.974600	0.869400	0.174100
C3171	C317	0.995600	0.602900	0.816600
C3181	C318	0.877600	0.742300	0.982700
C3191	C319	0.979200	0.911400	0.204200
C3201	C320	0.005900	0.557300	0.793300
C3211	C321	0.899000	0.749000	0.038100
H1661	H166	0.884420	0.755360	0.074510
C3221	C322	0.829800	0.746500	0.982400
C3231	C323	0.970700	0.606600	0.868800
H1671	H167	0.960240	0.582200	0.887940
C3241	C324	0.968400	0.789900	0.117200
C3251	C325	0.940300	0.730700	0.930500
C3261	C326	0.943100	0.745900	0.036900
C3271	C327	0.961000	0.865800	0.115000
H1681	H168	0.953990	0.890440	0.093470
C3281	C328	0.899300	0.733800	0.926800
H1691	H169	0.884990	0.730690	0.889420
C3291	C329	0.974500	0.680400	0.860500
C3301	C330	0.009900	0.638000	0.786100
H1701	H170	0.025800	0.634270	0.750190
C3311	C331	0.957100	0.827200	0.084900
H1711	H171	0.947330	0.825880	0.044240
C3321	C332	0.964700	0.736800	0.982200
H1721	H172	0.994250	0.734880	0.980890
C3331	C333	0.001600	0.679700	0.806800
H1731	H173	0.012350	0.703960	0.787820
C3341	C334	0.985000	0.833600	0.205900
H1741	H174	0.993580	0.835690	0.247060
C3351	C335	0.961400	0.645600	0.892600
H1751	H175	0.946540	0.648280	0.929720
C3361	C336	0.982700	0.791200	0.175900
H1761	H176	0.990730	0.766580	0.196790
Cu171	Cu17	0.250000	0.250000	0.421000
Cu181	Cu18	0.250000	0.250000	0.543090
Cu191	Cu19	0.250000	0.250000	0.079000
Cu201	Cu20	0.250000	0.250000	0.956910
Cu211	Cu21	0.750000	0.750000	0.579000
Cu221	Cu22	0.750000	0.750000	0.456910
Cu231	Cu23	0.750000	0.750000	0.921000
Cu241	Cu24	0.750000	0.750000	0.043090
