data_QARCET_clean_PM
_symmetry_space_group_name_H-M	'P1'
_cell_length_a	13.551000
_cell_length_b	16.181000
_cell_length_c	16.540000
_cell_angle_alpha	109.460000
_cell_angle_beta	101.210000
_cell_angle_gamma	109.750000
_symmetry_Int_Tables_number 1

loop_
_symmetry_equiv_pos_as_xyz
'x,y,z'

loop_
_atom_site_label
_atom_site_type_symbol
_atom_site_fract_x
_atom_site_fract_y
_atom_site_fract_z
Zn11	Zn1	0.504570	0.423150	0.824760
Zn21	Zn2	0.829590	0.543170	0.426530
Zn31	Zn3	0.410810	0.796470	0.489120
Zn41	Zn4	0.495430	0.576850	0.175240
Zn51	Zn5	0.170410	0.456830	0.573470
Zn61	Zn6	0.589190	0.203530	0.510880
H11	H1	0.875900	0.679600	0.878500
H21	H2	0.841200	0.671000	0.731000
H31	H3	0.658000	0.583900	0.628900
H41	H4	0.523900	0.491900	0.667900
H51	H5	0.029500	0.732300	0.110800
H61	H6	0.168300	0.874900	0.132800
H71	H7	0.119000	0.988500	0.101100
H81	H8	0.935000	0.949000	0.032700
H91	H9	0.004100	0.885500	0.678400
H101	H10	0.838500	0.898000	0.682300
H111	H11	0.669000	0.767700	0.585300
H121	H12	0.667900	0.629100	0.488400
H131	H13	0.125500	0.818200	0.786800
H141	H14	0.213000	0.960700	0.922000
H151	H15	0.317200	0.104200	0.916900
H161	H16	0.341800	0.099700	0.783300
H171	H17	0.044400	0.755700	0.289900
H181	H18	0.988200	0.600600	0.179900
H191	H19	0.093300	0.517800	0.193500
H201	H20	0.250500	0.590500	0.320400
H211	H21	0.095800	0.959700	0.319900
H221	H22	0.909200	0.908300	0.242000
H231	H23	0.776400	0.824500	0.290300
H241	H24	0.831300	0.791700	0.409100
H251	H25	0.124100	0.320400	0.121500
H261	H26	0.158800	0.329000	0.269000
H271	H27	0.342000	0.416100	0.371100
H281	H28	0.476100	0.508100	0.332100
H291	H29	0.970500	0.267700	0.889200
H301	H30	0.831700	0.125100	0.867200
H311	H31	0.881000	0.011500	0.898900
H321	H32	0.065000	0.051000	0.967300
H331	H33	0.995900	0.114500	0.321600
H341	H34	0.161500	0.102000	0.317700
H351	H35	0.331000	0.232300	0.414700
H361	H36	0.332100	0.370900	0.511600
H371	H37	0.874500	0.181800	0.213200
H381	H38	0.787000	0.039300	0.078000
H391	H39	0.682800	0.895800	0.083100
H401	H40	0.658200	0.900300	0.216700
H411	H41	0.955600	0.244300	0.710100
H421	H42	0.011800	0.399400	0.820100
H431	H43	0.906700	0.482200	0.806500
H441	H44	0.749500	0.409500	0.679600
H451	H45	0.904200	0.040300	0.680100
H461	H46	0.090800	0.091700	0.758000
H471	H47	0.223600	0.175500	0.709700
H481	H48	0.168700	0.208300	0.590900
C11	C1	0.546800	0.412100	0.000500
C21	C2	0.722600	0.561900	0.189100
C31	C3	0.645400	0.499300	0.019200
C41	C4	0.729500	0.567600	0.102900
C51	C5	0.815300	0.655900	0.031500
C61	C6	0.731000	0.588500	0.946900
C71	C7	0.718200	0.590700	0.856200
C81	C8	0.804500	0.642300	0.835000
C91	C9	0.783800	0.638100	0.747500
C101	C10	0.675900	0.584000	0.686200
C111	C11	0.595800	0.530800	0.710500
C121	C12	0.905500	0.750600	0.048600
C131	C13	0.011400	0.774800	0.091700
C141	C14	0.093600	0.860800	0.108100
C151	C15	0.064100	0.927700	0.087200
C161	C16	0.953700	0.903600	0.046100
C171	C17	0.029900	0.514400	0.408500
C181	C18	0.279600	0.637300	0.537100
C191	C19	0.077500	0.611400	0.485100
C201	C20	0.190100	0.670200	0.541400
C211	C21	0.143100	0.787200	0.625300
C221	C22	0.028700	0.728600	0.571500
C231	C23	0.928700	0.747300	0.580300
C241	C24	0.935200	0.833400	0.640100
C251	C25	0.836300	0.840700	0.642100
C261	C26	0.735800	0.763700	0.584900
C271	C27	0.736100	0.681400	0.527800
C281	C28	0.187600	0.879100	0.709900
C291	C29	0.170800	0.876500	0.787600
C301	C30	0.221400	0.961100	0.867700
C311	C31	0.284100	0.045400	0.864800
C321	C32	0.297500	0.042000	0.784000
C331	C33	0.508800	0.002100	0.616700
C341	C34	0.426900	0.162000	0.620000
C351	C35	0.399800	0.986100	0.561400
C361	C36	0.358700	0.054700	0.564100
C371	C37	0.189100	0.932600	0.457400
C381	C38	0.235000	0.865100	0.444000
C391	C39	0.182500	0.763200	0.369900
C401	C40	0.086500	0.721600	0.295700
C411	C41	0.053400	0.629300	0.230100
C421	C42	0.114400	0.580000	0.237900
C431	C43	0.209000	0.624800	0.313800
C441	C44	0.069500	0.905400	0.410300
C451	C45	0.040700	0.925600	0.337800
C461	C46	0.930400	0.895100	0.291600
C471	C47	0.851900	0.845000	0.319700
C481	C48	0.885500	0.825600	0.390500
C491	C49	0.453200	0.587900	0.999500
C501	C50	0.277400	0.438100	0.810900
C511	C51	0.354600	0.500700	0.980800
C521	C52	0.270500	0.432400	0.897100
C531	C53	0.184700	0.344100	0.968500
C541	C54	0.269000	0.411500	0.053100
C551	C55	0.281800	0.409300	0.143800
C561	C56	0.195500	0.357700	0.165000
C571	C57	0.216200	0.361900	0.252500
C581	C58	0.324100	0.416000	0.313800
C591	C59	0.404200	0.469200	0.289500
C601	C60	0.094500	0.249400	0.951400
C611	C61	0.988600	0.225200	0.908300
C621	C62	0.906400	0.139200	0.891900
C631	C63	0.935900	0.072300	0.912800
C641	C64	0.046300	0.096400	0.953900
C651	C65	0.970100	0.485600	0.591500
C661	C66	0.720400	0.362700	0.462900
C671	C67	0.922500	0.388600	0.514900
C681	C68	0.809900	0.329800	0.458600
C691	C69	0.856900	0.212800	0.374700
C701	C70	0.971300	0.271400	0.428500
C711	C71	0.071300	0.252700	0.419700
C721	C72	0.064800	0.166600	0.359900
C731	C73	0.163700	0.159300	0.357900
C741	C74	0.264200	0.236300	0.415100
C751	C75	0.263900	0.318600	0.472200
C761	C76	0.812400	0.120900	0.290100
C771	C77	0.829200	0.123500	0.212400
C781	C78	0.778600	0.038900	0.132300
C791	C79	0.715900	0.954600	0.135200
C801	C80	0.702500	0.958000	0.216000
C811	C81	0.491200	0.997900	0.383300
C821	C82	0.573100	0.838000	0.380000
C831	C83	0.600200	0.013900	0.438600
C841	C84	0.641300	0.945300	0.435900
C851	C85	0.810900	0.067400	0.542600
C861	C86	0.765000	0.134900	0.556000
C871	C87	0.817500	0.236800	0.630100
C881	C88	0.913500	0.278400	0.704300
C891	C89	0.946600	0.370700	0.769900
C901	C90	0.885600	0.420000	0.762100
C911	C91	0.791000	0.375200	0.686200
C921	C92	0.930500	0.094600	0.589700
C931	C93	0.959300	0.074400	0.662200
C941	C94	0.069600	0.104900	0.708400
C951	C95	0.148100	0.155000	0.680300
C961	C96	0.114500	0.174400	0.609500
N11	N1	0.470000	0.364100	0.917700
N21	N2	0.391900	0.288300	0.920000
N31	N3	0.422500	0.291600	0.002200
N41	N4	0.522100	0.371100	0.055600
N51	N5	0.640100	0.567200	0.219800
N61	N6	0.663300	0.562100	0.299700
N71	N7	0.757400	0.554000	0.314400
N81	N8	0.797400	0.553400	0.246200
N91	N9	0.647800	0.512600	0.943600
N101	N10	0.814300	0.643300	0.107600
N111	N11	0.617200	0.532600	0.793800
N121	N12	0.869000	0.813100	0.024000
N131	N13	0.918800	0.468500	0.369600
N141	N14	0.898400	0.383700	0.301900
N151	N15	0.995200	0.380300	0.302700
N161	N16	0.080700	0.463400	0.371400
N171	N17	0.374700	0.685900	0.527800
N181	N18	0.437500	0.637300	0.534800
N191	N19	0.382400	0.563100	0.549300
N201	N20	0.281500	0.561300	0.550800
N211	N21	0.001200	0.642900	0.501300
N221	N22	0.221000	0.758200	0.608600
N231	N23	0.830400	0.671700	0.525200
N241	N24	0.250200	0.960000	0.705800
N251	N25	0.533000	0.926300	0.600400
N261	N26	0.637700	0.961300	0.657600
N271	N27	0.672500	0.055300	0.707100
N281	N28	0.591000	0.084000	0.681800
N291	N29	0.414100	0.212900	0.694600
N301	N30	0.487500	0.305000	0.719400
N311	N31	0.540300	0.309300	0.662100
N321	N32	0.503700	0.218400	0.597800
N331	N33	0.337600	0.893700	0.499300
N341	N34	0.252700	0.027200	0.514300
N351	N35	0.245100	0.714600	0.378800
N361	N36	0.994700	0.853200	0.436200
N371	N37	0.530000	0.635900	0.082300
N381	N38	0.608100	0.711700	0.080000
N391	N39	0.577500	0.708400	0.997800
N401	N40	0.477900	0.628900	0.944400
N411	N41	0.359900	0.432800	0.780200
N421	N42	0.336700	0.437900	0.700300
N431	N43	0.242600	0.446000	0.685600
N441	N44	0.202600	0.446600	0.753800
N451	N45	0.352200	0.487400	0.056400
N461	N46	0.185700	0.356700	0.892400
N471	N47	0.382800	0.467400	0.206200
N481	N48	0.131000	0.186900	0.976000
N491	N49	0.081200	0.531500	0.630400
N501	N50	0.101600	0.616300	0.698100
N511	N51	0.004800	0.619700	0.697300
N521	N52	0.919300	0.536600	0.628600
N531	N53	0.625300	0.314100	0.472200
N541	N54	0.562500	0.362700	0.465200
N551	N55	0.617600	0.436900	0.450700
N561	N56	0.718500	0.438700	0.449200
N571	N57	0.998800	0.357100	0.498700
N581	N58	0.779000	0.241800	0.391400
N591	N59	0.169600	0.328300	0.474800
N601	N60	0.749800	0.040000	0.294200
N611	N61	0.467000	0.073700	0.399600
N621	N62	0.362300	0.038700	0.342400
N631	N63	0.327500	0.944700	0.292900
N641	N64	0.409000	0.916000	0.318200
N651	N65	0.585900	0.787100	0.305400
N661	N66	0.512500	0.695000	0.280600
N671	N67	0.459700	0.690700	0.337900
N681	N68	0.496300	0.781600	0.402200
N691	N69	0.662400	0.106300	0.500700
N701	N70	0.747300	0.972800	0.485700
N711	N71	0.754900	0.285400	0.621200
N721	N72	0.005300	0.146800	0.563800
