data_QASSUZ_clean_PM
_symmetry_space_group_name_H-M	'P1'
_cell_length_a	12.464800
_cell_length_b	20.883000
_cell_length_c	20.883000
_cell_angle_alpha	120.000000
_cell_angle_beta	90.000000
_cell_angle_gamma	90.000000
_symmetry_Int_Tables_number 1

loop_
_symmetry_equiv_pos_as_xyz
'x,y,z'

loop_
_atom_site_label
_atom_site_type_symbol
_atom_site_fract_x
_atom_site_fract_y
_atom_site_fract_z
K11	K1	0.721950	0.631390	0.040450
K21	K2	0.611070	0.519820	0.625520
K31	K3	0.371300	0.194500	0.350000
K41	K4	0.055280	0.409060	0.368610
K51	K5	0.944400	0.105700	0.480180
K61	K6	0.704630	0.155500	0.805500
K71	K7	0.388620	0.959550	0.590940
K81	K8	0.277740	0.374480	0.894300
K91	K9	0.037970	0.650000	0.844500
K101	K10	0.278050	0.590940	0.959550
K111	K11	0.388930	0.894300	0.374480
K121	K12	0.628700	0.844500	0.650000
K131	K13	0.944720	0.040450	0.631390
K141	K14	0.055600	0.625520	0.519820
K151	K15	0.295370	0.350000	0.194500
K161	K16	0.611380	0.368610	0.409060
K171	K17	0.722260	0.480180	0.105700
K181	K18	0.962030	0.805500	0.155500
K191	K19	0.000000	0.458100	0.000000
K201	K20	0.333330	0.541900	0.541900
K211	K21	0.666670	0.000000	0.458100
Fe11	Fe1	0.536260	0.492580	0.914850
Fe21	Fe2	0.869590	0.422270	0.507420
Fe31	Fe3	0.202930	0.085150	0.577730
Fe41	Fe4	0.463740	0.577730	0.085150
Fe51	Fe5	0.130410	0.914850	0.492580
Fe61	Fe6	0.797070	0.507420	0.422270
H11	H1	0.693000	0.410000	0.732100
H21	H2	0.762300	0.445100	0.804500
H31	H3	0.746700	0.340000	0.810400
H41	H4	0.644100	0.326200	0.845500
H51	H5	0.498200	0.330700	0.780500
H61	H6	0.581300	0.314900	0.717900
H71	H7	0.290200	0.525400	0.789900
H81	H8	0.281700	0.487600	0.667500
H91	H9	0.512100	0.336900	0.624700
H101	H10	0.026330	0.322100	0.590000
H111	H11	0.095630	0.359400	0.554900
H121	H12	0.080030	0.470400	0.660000
H131	H13	0.977430	0.519300	0.673800
H141	H14	0.831530	0.449800	0.669300
H151	H15	0.914630	0.403000	0.685100
H161	H16	0.623530	0.264500	0.474600
H171	H17	0.615030	0.179900	0.512400
H181	H18	0.845430	0.287800	0.663100
H191	H19	0.359670	0.267900	0.677900
H201	H20	0.428970	0.195500	0.640600
H211	H21	0.413370	0.189600	0.529600
H221	H22	0.310770	0.154500	0.480700
H231	H23	0.164870	0.219500	0.550200
H241	H24	0.247970	0.282100	0.597000
H251	H25	0.956870	0.210100	0.735500
H261	H26	0.948370	0.332500	0.820100
H271	H27	0.178770	0.375300	0.712200
H281	H28	0.307000	0.677900	0.267900
H291	H29	0.237700	0.640600	0.195500
H301	H30	0.253300	0.529600	0.189600
H311	H31	0.355900	0.480700	0.154500
H321	H32	0.501800	0.550200	0.219500
H331	H33	0.418700	0.597000	0.282100
H341	H34	0.709800	0.735500	0.210100
H351	H35	0.718300	0.820100	0.332500
H361	H36	0.487900	0.712200	0.375300
H371	H37	0.973670	0.732100	0.410000
H381	H38	0.904370	0.804500	0.445100
H391	H39	0.919970	0.810400	0.340000
H401	H40	0.022570	0.845500	0.326200
H411	H41	0.168470	0.780500	0.330700
H421	H42	0.085370	0.717900	0.314900
H431	H43	0.376470	0.789900	0.525400
H441	H44	0.384970	0.667500	0.487600
H451	H45	0.154570	0.624700	0.336900
H461	H46	0.640330	0.590000	0.322100
H471	H47	0.571030	0.554900	0.359400
H481	H48	0.586630	0.660000	0.470400
H491	H49	0.689230	0.673800	0.519300
H501	H50	0.835130	0.669300	0.449800
H511	H51	0.752030	0.685100	0.403000
H521	H52	0.043130	0.474600	0.264500
H531	H53	0.051630	0.512400	0.179900
H541	H54	0.821230	0.663100	0.287800
C11	C1	0.690000	0.440700	0.785500
C21	C2	0.649200	0.516700	0.805400
C31	C3	0.687000	0.364000	0.843700
C41	C4	0.729200	0.418200	0.920900
C51	C5	0.542500	0.353700	0.759400
C61	C6	0.470800	0.393820	0.732020
C71	C7	0.404400	0.452200	0.784400
C81	C8	0.333800	0.486700	0.756900
C91	C9	0.329000	0.464500	0.684000
C101	C10	0.394200	0.407200	0.633100
C111	C11	0.466400	0.373600	0.658240
C121	C12	0.023330	0.344800	0.559300
C131	C13	0.982530	0.288700	0.483300
C141	C14	0.020330	0.479700	0.636000
C151	C15	0.062530	0.502700	0.581800
C161	C16	0.875830	0.405700	0.646300
C171	C17	0.804130	0.338200	0.606180
C181	C18	0.737730	0.332200	0.547800
C191	C19	0.667130	0.270200	0.513300
C201	C20	0.662330	0.219500	0.535500
C211	C21	0.727530	0.225900	0.592800
C221	C22	0.799730	0.284640	0.626400
C231	C23	0.356670	0.214500	0.655200
C241	C24	0.315870	0.194600	0.711300
C251	C25	0.353670	0.156300	0.520300
C261	C26	0.395870	0.079100	0.497300
C271	C27	0.209170	0.240600	0.594300
C281	C28	0.137470	0.267980	0.661800
C291	C29	0.071070	0.215600	0.667800
C301	C30	0.000470	0.243100	0.729800
C311	C31	0.995670	0.316000	0.780500
C321	C32	0.060870	0.366900	0.774100
C331	C33	0.133070	0.341760	0.715360
C341	C34	0.310000	0.655200	0.214500
C351	C35	0.350800	0.711300	0.194600
C361	C36	0.313000	0.520300	0.156300
C371	C37	0.270800	0.497300	0.079100
C381	C38	0.457500	0.594300	0.240600
C391	C39	0.529200	0.661800	0.267980
C401	C40	0.595600	0.667800	0.215600
C411	C41	0.666200	0.729800	0.243100
C421	C42	0.671000	0.780500	0.316000
C431	C43	0.605800	0.774100	0.366900
C441	C44	0.533600	0.715360	0.341760
C451	C45	0.976670	0.785500	0.440700
C461	C46	0.017470	0.805400	0.516700
C471	C47	0.979670	0.843700	0.364000
C481	C48	0.937470	0.920900	0.418200
C491	C49	0.124170	0.759400	0.353700
C501	C50	0.195870	0.732020	0.393820
C511	C51	0.262270	0.784400	0.452200
C521	C52	0.332870	0.756900	0.486700
C531	C53	0.337670	0.684000	0.464500
C541	C54	0.272470	0.633100	0.407200
C551	C55	0.200270	0.658240	0.373600
C561	C56	0.643330	0.559300	0.344800
C571	C57	0.684130	0.483300	0.288700
C581	C58	0.646330	0.636000	0.479700
C591	C59	0.604130	0.581800	0.502700
C601	C60	0.790830	0.646300	0.405700
C611	C61	0.862530	0.606180	0.338200
C621	C62	0.928930	0.547800	0.332200
C631	C63	0.999530	0.513300	0.270200
C641	C64	0.004330	0.535500	0.219500
C651	C65	0.939130	0.592800	0.225900
C661	C66	0.866930	0.626400	0.284640
C671	C67	0.500000	0.414600	0.000000
C681	C68	0.833330	0.585400	0.585400
C691	C69	0.166670	0.000000	0.414600
S11	S1	0.386760	0.379220	0.537640
S21	S2	0.720090	0.158420	0.620780
S31	S3	0.053430	0.462360	0.841580
S41	S4	0.613240	0.841580	0.462360
S51	S5	0.279910	0.537640	0.379220
S61	S6	0.946570	0.620780	0.158420
N11	N1	0.620600	0.404400	0.816010
N21	N2	0.953930	0.411610	0.595600
N31	N3	0.287270	0.183990	0.588390
N41	N4	0.379400	0.588390	0.183990
N51	N5	0.046070	0.816010	0.404400
N61	N6	0.712730	0.595600	0.411610
O11	O1	0.485000	0.414400	0.938920
O21	O2	0.597600	0.551150	0.866740
O31	O3	0.672000	0.541900	0.764940
O41	O4	0.687500	0.483260	0.953720
O51	O5	0.799200	0.397280	0.947860
O61	O6	0.404200	0.473010	0.855670
O71	O7	0.467900	0.422500	0.526440
O81	O8	0.279900	0.399100	0.526380
O91	O9	0.408500	0.300680	0.496050
O101	O10	0.086500	0.307000	0.919600
O111	O11	0.743400	0.773300	0.087600
O121	O12	0.818330	0.524520	0.585600
O131	O13	0.930930	0.315590	0.448850
O141	O14	0.005330	0.223040	0.458100
O151	O15	0.020830	0.470460	0.516740
O161	O16	0.132530	0.550580	0.602720
O171	O17	0.737530	0.382660	0.526990
O181	O18	0.801230	0.103940	0.577500
O191	O19	0.613230	0.127280	0.600900
O201	O20	0.741830	0.195370	0.699320
O211	O21	0.419830	0.612600	0.693000
O221	O22	0.076730	0.314300	0.226700
O231	O23	0.151670	0.061080	0.475480
O241	O24	0.264270	0.133260	0.684410
O251	O25	0.338670	0.235060	0.776960
O261	O26	0.354170	0.046280	0.529540
O271	O27	0.465870	0.052140	0.449420
O281	O28	0.070870	0.144330	0.617340
O291	O29	0.134570	0.473560	0.896060
O301	O30	0.946570	0.473620	0.872720
O311	O31	0.075170	0.503950	0.804630
O321	O32	0.753170	0.080400	0.387400
O331	O33	0.410070	0.912400	0.685700
O341	O34	0.515000	0.475480	0.061080
O351	O35	0.402400	0.684410	0.133260
O361	O36	0.328000	0.776960	0.235060
O371	O37	0.312500	0.529540	0.046280
O381	O38	0.200800	0.449420	0.052140
O391	O39	0.595800	0.617340	0.144330
O401	O40	0.532100	0.896060	0.473560
O411	O41	0.720100	0.872720	0.473620
O421	O42	0.591500	0.804630	0.503950
O431	O43	0.913500	0.387400	0.080400
O441	O44	0.256600	0.685700	0.912400
O451	O45	0.181670	0.938920	0.414400
O461	O46	0.069070	0.866740	0.551150
O471	O47	0.994670	0.764940	0.541900
O481	O48	0.979170	0.953720	0.483260
O491	O49	0.867470	0.947860	0.397280
O501	O50	0.262470	0.855670	0.473010
O511	O51	0.198770	0.526440	0.422500
O521	O52	0.386770	0.526380	0.399100
O531	O53	0.258170	0.496050	0.300680
O541	O54	0.580170	0.919600	0.307000
O551	O55	0.923270	0.087600	0.773300
O561	O56	0.848330	0.585600	0.524520
O571	O57	0.735730	0.448850	0.315590
O581	O58	0.661330	0.458100	0.223040
O591	O59	0.645830	0.516740	0.470460
O601	O60	0.534130	0.602720	0.550580
O611	O61	0.929130	0.526990	0.382660
O621	O62	0.865430	0.577500	0.103940
O631	O63	0.053430	0.600900	0.127280
O641	O64	0.924830	0.699320	0.195370
O651	O65	0.246830	0.693000	0.612600
O661	O66	0.589930	0.226700	0.314300
O671	O67	0.500000	0.577060	0.000000
O681	O68	0.500000	0.355000	0.000000
O691	O69	0.833330	0.422940	0.422940
O701	O70	0.833330	0.645000	0.645000
O711	O71	0.166670	0.000000	0.577060
O721	O72	0.166670	0.000000	0.355000
