data_QATPOR_clean_PM
_symmetry_space_group_name_H-M	'P1'
_cell_length_a	5.102800
_cell_length_b	21.162600
_cell_length_c	8.858100
_cell_angle_alpha	90.000000
_cell_angle_beta	89.996500
_cell_angle_gamma	90.000000
_symmetry_Int_Tables_number 1

loop_
_symmetry_equiv_pos_as_xyz
'x,y,z'

loop_
_atom_site_label
_atom_site_type_symbol
_atom_site_fract_x
_atom_site_fract_y
_atom_site_fract_z
Ti11	Ti1	0.279100	0.841650	0.528140
Ti21	Ti2	0.016800	0.935460	0.010000
Ti31	Ti3	0.724900	0.041660	0.487750
Ga11	Ga1	0.693800	0.690170	0.748020
P11	P1	0.793700	0.825840	0.774900
P21	P2	0.206100	0.052940	0.242300
P31	P3	0.236900	0.987960	0.670400
P41	P4	0.762300	0.896100	0.346200
P51	P5	0.205200	0.691330	0.558480
O11	O1	0.061200	0.823100	0.701500
O21	O2	0.283500	0.751800	0.473400
O31	O3	0.248200	0.929500	0.572000
O41	O4	0.747200	0.762100	0.859100
O51	O5	0.581200	0.833400	0.655800
O61	O6	0.782300	0.878300	0.891500
O71	O7	0.177300	0.970200	0.835100
O81	O8	0.506800	0.022800	0.669600
O91	O9	0.023600	0.033300	0.617200
O101	O10	0.268400	0.874400	0.041200
O111	O11	0.931100	0.057900	0.311900
O121	O12	0.290800	0.632700	0.467700
O131	O13	0.752800	0.953300	0.449400
O141	O14	0.264900	0.115100	0.154300
O151	O15	0.408200	0.044300	0.365800
O161	O16	0.220400	0.998100	0.128000
O171	O17	0.800300	0.915600	0.181300
O181	O18	0.506900	0.859400	0.356500
O191	O19	0.986100	0.851300	0.392400
O201	O20	0.904500	0.690900	0.582300
O211	O21	0.341600	0.690100	0.713600
H11	H1	0.413000	0.884000	0.000000
Ti41	Ti4	0.720900	0.341650	0.471860
Ti51	Ti5	0.983200	0.435460	0.990000
Ti61	Ti6	0.275100	0.541660	0.512250
Ga21	Ga2	0.306200	0.190170	0.251980
P61	P6	0.206300	0.325840	0.225100
P71	P7	0.793900	0.552940	0.757700
P81	P8	0.763100	0.487960	0.329600
P91	P9	0.237700	0.396100	0.653800
P101	P10	0.794800	0.191330	0.441520
O221	O22	0.938800	0.323100	0.298500
O231	O23	0.716500	0.251800	0.526600
O241	O24	0.751800	0.429500	0.428000
O251	O25	0.252800	0.262100	0.140900
O261	O26	0.418800	0.333400	0.344200
O271	O27	0.217700	0.378300	0.108500
O281	O28	0.822700	0.470200	0.164900
O291	O29	0.493200	0.522800	0.330400
O301	O30	0.976400	0.533300	0.382800
O311	O31	0.731600	0.374400	0.958800
O321	O32	0.068900	0.557900	0.688100
O331	O33	0.709200	0.132700	0.532300
O341	O34	0.247200	0.453300	0.550600
O351	O35	0.735100	0.615100	0.845700
O361	O36	0.591800	0.544300	0.634200
O371	O37	0.779600	0.498100	0.872000
O381	O38	0.199700	0.415600	0.818700
O391	O39	0.493100	0.359400	0.643500
O401	O40	0.013900	0.351300	0.607600
O411	O41	0.095500	0.190900	0.417700
O421	O42	0.658400	0.190100	0.286400
H21	H2	0.587000	0.384000	0.000000
