data_QAWDID_clean_PM
_symmetry_space_group_name_H-M	'P1'
_cell_length_a	14.328600
_cell_length_b	14.328600
_cell_length_c	14.328600
_cell_angle_alpha	90.000000
_cell_angle_beta	90.000000
_cell_angle_gamma	90.000000
_symmetry_Int_Tables_number 1

loop_
_symmetry_equiv_pos_as_xyz
'x,y,z'

loop_
_atom_site_label
_atom_site_type_symbol
_atom_site_fract_x
_atom_site_fract_y
_atom_site_fract_z
O11	O1	0.929700	0.576200	0.284400
O21	O2	0.809400	0.618700	0.196000
C11	C1	0.897700	0.486800	0.148700
C21	C2	0.969500	0.433000	0.165600
C31	C3	0.882800	0.567000	0.220100
O31	O3	0.570300	0.423800	0.784400
O41	O4	0.690600	0.381300	0.696000
C41	C4	0.602300	0.513200	0.648700
C51	C5	0.530500	0.567000	0.665600
C61	C6	0.617200	0.433000	0.720100
O51	O5	0.070300	0.076200	0.215600
O61	O6	0.190600	0.118700	0.304000
C71	C7	0.102300	0.986800	0.351300
C81	C8	0.030500	0.933000	0.334400
C91	C9	0.117200	0.067000	0.279900
O71	O7	0.429700	0.923800	0.715600
O81	O8	0.309400	0.881300	0.804000
C101	C10	0.397700	0.013200	0.851300
C111	C11	0.469500	0.067000	0.834400
C121	C12	0.382800	0.933000	0.779900
O91	O9	0.284400	0.929700	0.576200
O101	O10	0.196000	0.809400	0.618700
C131	C13	0.148700	0.897700	0.486800
C141	C14	0.165600	0.969500	0.433000
C151	C15	0.220100	0.882800	0.567000
O111	O11	0.784400	0.570300	0.423800
O121	O12	0.696000	0.690600	0.381300
C161	C16	0.648700	0.602300	0.513200
C171	C17	0.665600	0.530500	0.567000
C181	C18	0.720100	0.617200	0.433000
O131	O13	0.215600	0.070300	0.076200
O141	O14	0.304000	0.190600	0.118700
C191	C19	0.351300	0.102300	0.986800
C201	C20	0.334400	0.030500	0.933000
C211	C21	0.279900	0.117200	0.067000
O151	O15	0.715600	0.429700	0.923800
O161	O16	0.804000	0.309400	0.881300
C221	C22	0.851300	0.397700	0.013200
C231	C23	0.834400	0.469500	0.067000
C241	C24	0.779900	0.382800	0.933000
O171	O17	0.576200	0.284400	0.929700
O181	O18	0.618700	0.196000	0.809400
C251	C25	0.486800	0.148700	0.897700
C261	C26	0.433000	0.165600	0.969500
C271	C27	0.567000	0.220100	0.882800
O191	O19	0.423800	0.784400	0.570300
O201	O20	0.381300	0.696000	0.690600
C281	C28	0.513200	0.648700	0.602300
C291	C29	0.567000	0.665600	0.530500
C301	C30	0.433000	0.720100	0.617200
O211	O21	0.076200	0.215600	0.070300
O221	O22	0.118700	0.304000	0.190600
C311	C31	0.986800	0.351300	0.102300
C321	C32	0.933000	0.334400	0.030500
C331	C33	0.067000	0.279900	0.117200
O231	O23	0.923800	0.715600	0.429700
O241	O24	0.881300	0.804000	0.309400
C341	C34	0.013200	0.851300	0.397700
C351	C35	0.067000	0.834400	0.469500
C361	C36	0.933000	0.779900	0.382800
Zn11	Zn1	0.777610	0.722390	0.277610
Mg11	Mg1	0.924700	0.575300	0.424700
Zn21	Zn2	0.722390	0.277610	0.777610
Mg21	Mg2	0.575300	0.424700	0.924700
Zn31	Zn3	0.222390	0.222390	0.222390
Mg31	Mg3	0.075300	0.075300	0.075300
Zn41	Zn4	0.277610	0.777610	0.722390
Mg41	Mg4	0.424700	0.924700	0.575300
