data_QEBGAH_clean_PM
_symmetry_space_group_name_H-M	'P1'
_cell_length_a	9.858000
_cell_length_b	12.565000
_cell_length_c	29.618000
_cell_angle_alpha	90.000000
_cell_angle_beta	90.000000
_cell_angle_gamma	105.695000
_symmetry_Int_Tables_number 1

loop_
_symmetry_equiv_pos_as_xyz
'x,y,z'

loop_
_atom_site_label
_atom_site_type_symbol
_atom_site_fract_x
_atom_site_fract_y
_atom_site_fract_z
Co11	Co1	0.961980	0.642910	0.942460
Co21	Co2	0.538020	0.357090	0.442460
H11	H1	0.597200	0.127100	0.199900
H21	H2	0.288100	0.718700	0.049100
H31	H3	0.689600	0.700700	0.054400
H41	H4	0.464200	0.619800	0.939300
H51	H5	0.674400	0.706800	0.124200
H61	H6	0.684600	0.758900	0.200000
H71	H7	0.354200	0.885200	0.181600
H81	H8	0.343900	0.833900	0.105900
H91	H9	0.536900	0.689300	0.263700
H101	H10	0.310400	0.984900	0.374800
H111	H11	0.328800	0.142900	0.417500
H121	H12	0.699400	0.287000	0.364700
H131	H13	0.681500	0.139300	0.316700
H141	H14	0.432500	0.714300	0.407500
H151	H15	0.445100	0.564300	0.450900
H161	H16	0.676100	0.471300	0.360200
H171	H17	0.662100	0.612200	0.312300
H181	H18	0.902800	0.872900	0.699900
H191	H19	0.211900	0.281300	0.549100
H201	H20	0.810400	0.299300	0.554400
H211	H21	0.035800	0.380200	0.439300
H221	H22	0.825600	0.293200	0.624200
H231	H23	0.815400	0.241100	0.700000
H241	H24	0.145800	0.114800	0.681600
H251	H25	0.156100	0.166100	0.605900
H261	H26	0.963100	0.310700	0.763700
H271	H27	0.189600	0.015100	0.874800
H281	H28	0.171200	0.857100	0.917500
H291	H29	0.800600	0.713000	0.864700
H301	H30	0.818500	0.860700	0.816700
H311	H31	0.067500	0.285700	0.907500
H321	H32	0.054900	0.435700	0.950900
H331	H33	0.823900	0.528700	0.860200
H341	H34	0.837900	0.387800	0.812300
C11	C1	0.230100	0.664300	0.962600
C21	C2	0.359800	0.668500	0.990100
C31	C3	0.368200	0.704300	0.035300
C41	C4	0.490700	0.718700	0.059800
C51	C5	0.603900	0.692400	0.038400
C61	C6	0.593700	0.654300	0.994100
C71	C7	0.470700	0.643900	0.969800
C81	C8	0.719300	0.634600	0.971200
C91	C9	0.503700	0.760200	0.107100
C101	C10	0.607100	0.741400	0.135700
C111	C11	0.613200	0.772700	0.181200
C121	C12	0.516800	0.823400	0.199200
C131	C13	0.418400	0.847200	0.170300
C141	C14	0.412200	0.816300	0.125000
C151	C15	0.515600	0.842000	0.248800
C161	C16	0.526200	0.755800	0.276600
C171	C17	0.521400	0.766400	0.322800
C181	C18	0.499000	0.942500	0.316800
C191	C19	0.503100	0.938400	0.269600
C201	C20	0.494200	0.036800	0.241900
C211	C21	0.500000	0.043700	0.341700
C221	C22	0.391000	0.046300	0.372100
C231	C23	0.404100	0.140800	0.397800
C241	C24	0.618600	0.225400	0.366500
C251	C25	0.609900	0.136200	0.338500
C261	C26	0.535100	0.675900	0.353500
C271	C27	0.478200	0.662500	0.395900
C281	C28	0.487600	0.573300	0.421900
C291	C29	0.620500	0.519000	0.368900
C301	C30	0.614000	0.603000	0.340500
C311	C31	0.269900	0.335700	0.462600
C321	C32	0.140200	0.331500	0.490100
C331	C33	0.131800	0.295700	0.535300
C341	C34	0.009300	0.281300	0.559800
C351	C35	0.896100	0.307600	0.538400
C361	C36	0.906300	0.345700	0.494100
C371	C37	0.029300	0.356100	0.469800
C381	C38	0.780700	0.365400	0.471200
C391	C39	0.996300	0.239800	0.607100
C401	C40	0.892900	0.258600	0.635700
C411	C41	0.886800	0.227300	0.681200
C421	C42	0.983200	0.176600	0.699200
C431	C43	0.081600	0.152800	0.670300
C441	C44	0.087800	0.183700	0.625000
C451	C45	0.984400	0.158000	0.748800
C461	C46	0.973800	0.244200	0.776600
C471	C47	0.978600	0.233600	0.822800
C481	C48	0.001000	0.057500	0.816800
C491	C49	0.996900	0.061600	0.769600
C501	C50	0.005800	0.963200	0.741900
C511	C51	0.000000	0.956300	0.841700
C521	C52	0.109000	0.953700	0.872100
C531	C53	0.095900	0.859200	0.897800
C541	C54	0.881400	0.774600	0.866500
C551	C55	0.890100	0.863800	0.838500
C561	C56	0.964900	0.324100	0.853500
C571	C57	0.021800	0.337500	0.895900
C581	C58	0.012400	0.426700	0.921900
C591	C59	0.879500	0.481000	0.868900
C601	C60	0.886000	0.397000	0.840500
N11	N1	0.505300	0.857700	0.342910
N21	N2	0.515400	0.228500	0.396750
N31	N3	0.552700	0.500500	0.408290
N41	N4	0.994700	0.142300	0.842910
N51	N5	0.984600	0.771500	0.896750
N61	N6	0.947300	0.499500	0.908290
O11	O1	0.121900	0.664000	0.983730
O21	O2	0.237600	0.659900	0.920460
O31	O3	0.830400	0.651800	0.992800
O41	O4	0.714300	0.606900	0.930750
O51	O5	0.382400	0.060500	0.239040
O61	O6	0.614700	0.089700	0.221600
O71	O7	0.378100	0.336000	0.483730
O81	O8	0.262400	0.340100	0.420460
O91	O9	0.669600	0.348200	0.492800
O101	O10	0.785700	0.393100	0.430750
O111	O11	0.117600	0.939500	0.739040
O121	O12	0.885300	0.910300	0.721600
Co31	Co3	0.038020	0.357090	0.057540
Co41	Co4	0.461980	0.642910	0.557540
H351	H35	0.402800	0.872900	0.800100
H361	H36	0.711900	0.281300	0.950900
H371	H37	0.310400	0.299300	0.945600
H381	H38	0.535800	0.380200	0.060700
H391	H39	0.325600	0.293200	0.875800
H401	H40	0.315400	0.241100	0.800000
H411	H41	0.645800	0.114800	0.818400
H421	H42	0.656100	0.166100	0.894100
H431	H43	0.463100	0.310700	0.736300
H441	H44	0.689600	0.015100	0.625200
H451	H45	0.671200	0.857100	0.582500
H461	H46	0.300600	0.713000	0.635300
H471	H47	0.318500	0.860700	0.683300
H481	H48	0.567500	0.285700	0.592500
H491	H49	0.554900	0.435700	0.549100
H501	H50	0.323900	0.528700	0.639800
H511	H51	0.337900	0.387800	0.687700
H521	H52	0.097200	0.127100	0.300100
H531	H53	0.788100	0.718700	0.450900
H541	H54	0.189600	0.700700	0.445600
H551	H55	0.964200	0.619800	0.560700
H561	H56	0.174400	0.706800	0.375800
H571	H57	0.184600	0.758900	0.300000
H581	H58	0.854200	0.885200	0.318400
H591	H59	0.843900	0.833900	0.394100
H601	H60	0.036900	0.689300	0.236300
H611	H61	0.810400	0.984900	0.125200
H621	H62	0.828800	0.142900	0.082500
H631	H63	0.199400	0.287000	0.135300
H641	H64	0.181500	0.139300	0.183300
H651	H65	0.932500	0.714300	0.092500
H661	H66	0.945100	0.564300	0.049100
H671	H67	0.176100	0.471300	0.139800
H681	H68	0.162100	0.612200	0.187700
C611	C61	0.769900	0.335700	0.037400
C621	C62	0.640200	0.331500	0.009900
C631	C63	0.631800	0.295700	0.964700
C641	C64	0.509300	0.281300	0.940200
C651	C65	0.396100	0.307600	0.961600
C661	C66	0.406300	0.345700	0.005900
C671	C67	0.529300	0.356100	0.030200
C681	C68	0.280700	0.365400	0.028800
C691	C69	0.496300	0.239800	0.892900
C701	C70	0.392900	0.258600	0.864300
C711	C71	0.386800	0.227300	0.818800
C721	C72	0.483200	0.176600	0.800800
C731	C73	0.581600	0.152800	0.829700
C741	C74	0.587800	0.183700	0.875000
C751	C75	0.484400	0.158000	0.751200
C761	C76	0.473800	0.244200	0.723400
C771	C77	0.478600	0.233600	0.677200
C781	C78	0.501000	0.057500	0.683200
C791	C79	0.496900	0.061600	0.730400
C801	C80	0.505800	0.963200	0.758100
C811	C81	0.500000	0.956300	0.658300
C821	C82	0.609000	0.953700	0.627900
C831	C83	0.595900	0.859200	0.602200
C841	C84	0.381400	0.774600	0.633500
C851	C85	0.390100	0.863800	0.661500
C861	C86	0.464900	0.324100	0.646500
C871	C87	0.521800	0.337500	0.604100
C881	C88	0.512400	0.426700	0.578100
C891	C89	0.379500	0.481000	0.631100
C901	C90	0.386000	0.397000	0.659500
C911	C91	0.730100	0.664300	0.537400
C921	C92	0.859800	0.668500	0.509900
C931	C93	0.868200	0.704300	0.464700
C941	C94	0.990700	0.718700	0.440200
C951	C95	0.103900	0.692400	0.461600
C961	C96	0.093700	0.654300	0.505900
C971	C97	0.970700	0.643900	0.530200
C981	C98	0.219300	0.634600	0.528800
C991	C99	0.003700	0.760200	0.392900
C1001	C100	0.107100	0.741400	0.364300
C1011	C101	0.113200	0.772700	0.318800
C1021	C102	0.016800	0.823400	0.300800
C1031	C103	0.918400	0.847200	0.329700
C1041	C104	0.912200	0.816300	0.375000
C1051	C105	0.015600	0.842000	0.251200
C1061	C106	0.026200	0.755800	0.223400
C1071	C107	0.021400	0.766400	0.177200
C1081	C108	0.999000	0.942500	0.183200
C1091	C109	0.003100	0.938400	0.230400
C1101	C110	0.994200	0.036800	0.258100
C1111	C111	0.000000	0.043700	0.158300
C1121	C112	0.891000	0.046300	0.127900
C1131	C113	0.904100	0.140800	0.102200
C1141	C114	0.118600	0.225400	0.133500
C1151	C115	0.109900	0.136200	0.161500
C1161	C116	0.035100	0.675900	0.146500
C1171	C117	0.978200	0.662500	0.104100
C1181	C118	0.987600	0.573300	0.078100
C1191	C119	0.120500	0.519000	0.131100
C1201	C120	0.114000	0.603000	0.159500
N71	N7	0.494700	0.142300	0.657090
N81	N8	0.484600	0.771500	0.603250
N91	N9	0.447300	0.499500	0.591710
N101	N10	0.005300	0.857700	0.157090
N111	N11	0.015400	0.228500	0.103250
N121	N12	0.052700	0.500500	0.091710
O131	O13	0.878100	0.336000	0.016270
O141	O14	0.762400	0.340100	0.079540
O151	O15	0.169600	0.348200	0.007200
O161	O16	0.285700	0.393100	0.069250
O171	O17	0.617600	0.939500	0.760960
O181	O18	0.385300	0.910300	0.778400
O191	O19	0.621900	0.664000	0.516270
O201	O20	0.737600	0.659900	0.579540
O211	O21	0.330400	0.651800	0.507200
O221	O22	0.214300	0.606900	0.569250
O231	O23	0.882400	0.060500	0.260960
O241	O24	0.114700	0.089700	0.278400
