data_QEBKUF_SL_PM
_symmetry_space_group_name_H-M	'P1'
_cell_length_a	31.036800
_cell_length_b	31.036800
_cell_length_c	31.036800
_cell_angle_alpha	108.283900
_cell_angle_beta	108.283900
_cell_angle_gamma	111.872900
_symmetry_Int_Tables_number 1

loop_
_symmetry_equiv_pos_as_xyz
'x,y,z'

loop_
_atom_site_label
_atom_site_type_symbol
_atom_site_fract_x
_atom_site_fract_y
_atom_site_fract_z
Zn11	Zn1	0.585740	0.889040	0.581360
Zn21	Zn2	0.636790	0.867990	0.505760
Zn31	Zn3	0.642690	0.814750	0.581580
H41	H4	0.825300	0.381000	0.681500
H51	H5	0.844100	0.448300	0.757200
H61	H6	0.743000	0.339700	0.776500
H71	H7	0.724000	0.272200	0.700600
H81	H8	0.726500	0.166000	0.513300
H91	H9	0.775000	0.319500	0.597300
H101	H10	0.744700	0.221500	0.657400
H111	H11	0.716300	0.023600	0.522700
H121	H12	0.750900	0.110700	0.538400
H131	H13	0.673700	0.133300	0.617600
H141	H14	0.639100	0.046300	0.602000
H151	H15	0.628700	0.304100	0.932000
H161	H16	0.703400	0.377500	0.949100
H171	H17	0.609300	0.409200	0.858300
H181	H18	0.534700	0.335800	0.841300
H191	H19	0.561500	0.221200	0.880900
H201	H20	0.475200	0.289900	0.861300
H211	H21	0.407400	0.142000	0.842000
H221	H22	0.668100	0.143100	0.878800
H231	H23	0.509700	0.072200	0.792300
H241	H24	0.585900	0.187800	0.940700
H251	H25	0.526800	0.982700	0.660100
H261	H26	0.654500	0.065100	0.825800
H271	H27	0.653400	0.008500	0.758300
H281	H28	0.255800	0.130100	0.751300
H291	H29	0.337300	0.136500	0.777400
H301	H30	0.405800	0.286700	0.882900
H311	H31	0.324200	0.277600	0.862000
H321	H32	0.811600	0.287700	0.021300
H331	H33	0.650800	0.198800	0.012800
H341	H34	0.727600	0.253600	0.092000
H351	H35	0.736200	0.234700	0.942900
H361	H36	0.613580	0.819590	0.399760
H371	H37	0.522000	0.041700	0.727500
H381	H38	0.832600	0.509500	0.859900
C391	C39	0.772800	0.319960	0.683540
C401	C40	0.808770	0.372700	0.700490
C411	C41	0.820080	0.413040	0.745900
C421	C42	0.795430	0.400640	0.774370
C431	C43	0.759460	0.347900	0.757420
C441	C44	0.748150	0.307560	0.712010
C451	C45	0.733010	0.185450	0.584580
C461	C46	0.735430	0.193940	0.543790
C471	C47	0.751180	0.244160	0.548540
C481	C48	0.764510	0.285890	0.594100
C491	C49	0.762100	0.277410	0.634890
C501	C50	0.746340	0.227190	0.630130
C511	C51	0.674280	0.026270	0.560790
C521	C52	0.707740	0.045570	0.541730
C531	C53	0.728470	0.097740	0.551110
C541	C54	0.715750	0.130640	0.579570
C551	C55	0.682290	0.111360	0.598650
C561	C56	0.661550	0.059180	0.589250
C571	C57	0.574310	0.312700	0.884990
C581	C58	0.624850	0.325200	0.917290
C591	C59	0.669580	0.369210	0.927510
C601	C60	0.663760	0.400700	0.905420
C611	C61	0.613220	0.388190	0.873130
C621	C62	0.568490	0.344190	0.862900
C631	C63	0.485060	0.174430	0.861470
C641	C64	0.529410	0.219800	0.873130
C651	C65	0.525720	0.263070	0.873090
C661	C66	0.477670	0.260960	0.861390
C671	C67	0.433330	0.215600	0.849750
C681	C68	0.437020	0.172320	0.849780
C691	C69	0.634730	0.171630	0.917520
C701	C70	0.635920	0.139610	0.875530
C711	C71	0.589100	0.102370	0.828630
C721	C72	0.541090	0.097160	0.823710
C731	C73	0.539900	0.129180	0.865700
C741	C74	0.586720	0.166410	0.912610
C751	C75	0.380500	0.210800	0.835100
C761	C76	0.713500	0.446300	0.914000
C771	C77	0.647900	0.967800	0.548700
C781	C78	0.591220	0.992020	0.703200
C791	C79	0.554000	0.000400	0.694200
C801	C80	0.589300	0.064700	0.783000
C811	C81	0.628000	0.050700	0.792100
C821	C82	0.626300	0.015800	0.750900
C831	C83	0.590900	0.954700	0.658400
C841	C84	0.280900	0.202400	0.804700
C851	C85	0.286000	0.161500	0.779500
C861	C86	0.335400	0.165600	0.795000
C871	C87	0.375200	0.253700	0.857700
C881	C88	0.326300	0.248800	0.844100
C891	C89	0.230000	0.197900	0.790500
C901	C90	0.779100	0.270100	0.020000
C911	C91	0.778000	0.277600	0.066000
C921	C92	0.826100	0.311900	0.117200
C931	C93	0.684400	0.208900	0.969300
C941	C94	0.683100	0.216300	0.014000
C951	C95	0.729600	0.250000	0.062000
C961	C96	0.734200	0.237800	0.972800
C971	C97	0.551300	0.037800	0.735700
C981	C98	0.808300	0.443900	0.823400
O991	O99	0.628300	0.859000	0.431900
O1001	O100	0.616030	0.952350	0.562480
O1011	O101	0.666510	0.943880	0.528550
O1021	O102	0.643890	0.876790	0.578580
O1031	O103	0.551760	0.927520	0.614120
O1041	O104	0.631790	0.951300	0.667450
O1051	O105	0.227700	0.236510	0.816890
O1061	O106	0.189280	0.156000	0.752000
O1071	O107	0.870210	0.335440	0.118650
O1081	O108	0.820590	0.315290	0.155820
O1091	O109	0.704670	0.475930	0.897000
O1101	O110	0.755820	0.450290	0.934890
O1111	O111	0.790880	0.430490	0.851250
O1121	O112	0.827600	0.490100	0.831500
H1131	H113	0.676110	0.909010	0.610800
H1141	H114	0.117930	0.570920	0.790400
Zn1151	Zn115	0.307680	0.004380	0.418640
Zn1161	Zn116	0.362230	0.131030	0.494240
Zn1171	Zn117	0.233170	0.061110	0.418420
H1181	H118	0.699500	0.143800	0.318500
H1191	H119	0.691100	0.086900	0.242800
H1201	H120	0.563200	0.966500	0.223500
H1211	H121	0.571600	0.023400	0.299400
H1221	H122	0.652700	0.213200	0.486700
H1231	H123	0.722200	0.177700	0.402700
H1241	H124	0.564100	0.087300	0.342600
H1251	H125	0.500900	0.193600	0.477300
H1261	H126	0.572300	0.212500	0.461600
H1271	H127	0.515700	0.056100	0.382400
H1281	H128	0.444300	0.037100	0.398000
H1291	H129	0.372100	0.696700	0.068000
H1301	H130	0.428400	0.754300	0.050900
H1311	H131	0.550900	0.751000	0.141700
H1321	H132	0.494500	0.693400	0.158700
H1331	H133	0.340300	0.680600	0.119100
H1341	H134	0.428600	0.613900	0.138700
H1351	H135	0.300000	0.565400	0.158000
H1361	H136	0.264300	0.789300	0.121200
H1371	H137	0.279900	0.717400	0.207700
H1381	H138	0.247100	0.645200	0.059300
H1391	H139	0.322600	0.866700	0.339900
H1401	H140	0.239300	0.828700	0.174200
H1411	H141	0.250200	0.895100	0.241700
H1421	H142	0.378800	0.504500	0.248700
H1431	H143	0.359100	0.559900	0.222600
H1441	H144	0.403800	0.522900	0.117100
H1451	H145	0.415600	0.462200	0.138000
H1461	H146	0.266400	0.790300	0.978700
H1471	H147	0.186000	0.638000	0.987200
H1481	H148	0.161600	0.635600	0.908000
H1491	H149	0.291800	0.793300	0.057100
H1501	H150	0.419830	0.213820	0.600240
H1511	H151	0.314200	0.794500	0.272500
H1521	H152	0.649600	0.972700	0.140100
C1531	C153	0.636420	0.089260	0.316460
C1541	C154	0.672210	0.108280	0.299510
C1551	C155	0.667140	0.074180	0.254100
C1561	C156	0.626270	0.021060	0.225630
C1571	C157	0.590480	0.002040	0.242580
C1581	C158	0.595550	0.036140	0.287990
C1591	C159	0.600870	0.148430	0.415420
C1601	C160	0.650150	0.191640	0.456210
C1611	C161	0.695620	0.202640	0.451460
C1621	C162	0.691790	0.170410	0.405900
C1631	C163	0.642520	0.127210	0.365110
C1641	C164	0.597060	0.116210	0.369870
C1651	C165	0.465480	0.113490	0.439210
C1661	C166	0.503840	0.166010	0.458270
C1671	C167	0.546630	0.177360	0.448890
C1681	C168	0.551070	0.136180	0.420430
C1691	C169	0.512710	0.083640	0.401350
C1701	C170	0.469930	0.072300	0.410750
C1711	C171	0.427710	0.689320	0.115010
C1721	C172	0.407910	0.707560	0.082710
C1731	C173	0.441700	0.742070	0.072490
C1741	C174	0.495280	0.758340	0.094580
C1751	C175	0.515060	0.740090	0.126870
C1761	C176	0.481290	0.705590	0.137100
C1771	C177	0.312960	0.623590	0.138530
C1781	C178	0.346670	0.656280	0.126870
C1791	C179	0.389980	0.652630	0.126910
C1801	C180	0.399570	0.616280	0.138610
C1811	C181	0.365850	0.583580	0.150250
C1821	C182	0.322540	0.587240	0.150220
C1831	C183	0.254110	0.717210	0.082480
C1841	C184	0.264080	0.760390	0.124470
C1851	C185	0.273740	0.760470	0.171370
C1861	C186	0.273450	0.717380	0.176290
C1871	C187	0.263480	0.674200	0.134300
C1881	C188	0.253800	0.674110	0.087390
C1891	C189	0.375700	0.545400	0.164900
C1901	C190	0.532300	0.799500	0.086000
C1911	C191	0.419100	0.099200	0.451300
C1921	C192	0.288820	0.888020	0.296800
C1931	C193	0.306200	0.859800	0.305800
C1941	C194	0.281700	0.806300	0.217000
C1951	C195	0.258600	0.835900	0.207900
C1961	C196	0.264900	0.875400	0.249100
C1971	C197	0.296300	0.932500	0.341600
C1981	C198	0.397700	0.476200	0.195300
C1991	C199	0.382000	0.506500	0.220500
C2001	C200	0.370600	0.540400	0.205000
C2011	C201	0.396000	0.517500	0.142300
C2021	C202	0.404700	0.482200	0.155900
C2031	C203	0.407400	0.439500	0.209500
C2041	C204	0.250100	0.759100	0.980000
C2051	C205	0.211600	0.712000	0.934000
C2061	C206	0.194700	0.708900	0.882800
C2071	C207	0.239600	0.715100	0.030700
C2081	C208	0.202300	0.669100	0.986000
C2091	C209	0.188000	0.667600	0.938000
C2101	C210	0.265000	0.761400	0.027200
C2111	C211	0.302100	0.815600	0.264300
C2121	C212	0.620500	0.984900	0.176600
O2131	O213	0.427100	0.196400	0.568100
O2141	O214	0.389870	0.053550	0.437520
O2151	O215	0.415330	0.137960	0.471450
O2161	O216	0.298210	0.065310	0.421420
O2171	O217	0.313400	0.937640	0.385880
O2181	O218	0.283850	0.964340	0.332550
O2191	O219	0.419620	0.410810	0.183110
O2201	O220	0.404000	0.437280	0.248000
O2211	O221	0.216790	0.751560	0.881350
O2221	O222	0.159470	0.664770	0.844180
O2231	O223	0.578930	0.807670	0.103000
O2241	O224	0.515400	0.820930	0.065110
O2251	O225	0.579240	0.939630	0.148750
O2261	O226	0.658600	0.996100	0.168500
H2271	H227	0.298210	0.065310	0.389200
H2281	H228	0.780530	0.327530	0.209600
Zn2291	Zn229	0.110960	0.692320	0.696700
Zn2301	Zn230	0.132010	0.637770	0.768800
Zn2311	Zn231	0.185250	0.766830	0.827940
H2321	H232	0.619000	0.300500	0.444300
H2331	H233	0.551700	0.308900	0.395800
H2341	H234	0.660300	0.436800	0.403300
H2351	H235	0.727800	0.428400	0.451800
H2361	H236	0.834000	0.347300	0.560500
H2371	H237	0.680500	0.277800	0.455500
H2381	H238	0.778500	0.435900	0.523200
H2391	H239	0.976400	0.499100	0.692700
H2401	H240	0.889300	0.427700	0.640200
H2411	H241	0.866700	0.484300	0.540400
H2421	H242	0.953700	0.555700	0.592800
H2431	H243	0.695900	0.627900	0.324600
H2441	H244	0.622500	0.571600	0.325900
H2451	H245	0.590800	0.449100	0.200100
H2461	H246	0.664200	0.505500	0.198900
H2471	H247	0.778800	0.659700	0.340300
H2481	H248	0.710100	0.571400	0.185300
H2491	H249	0.858000	0.700000	0.265400
H2501	H250	0.856900	0.735700	0.525000
H2511	H251	0.927800	0.720100	0.437500
H2521	H252	0.812200	0.752900	0.398100
H2531	H253	0.017300	0.677400	0.544100
H2541	H254	0.934900	0.760700	0.589400
H2551	H255	0.991500	0.749800	0.644900
H2561	H256	0.869900	0.621200	0.125700
H2571	H257	0.863500	0.640900	0.200800
H2581	H258	0.713300	0.596200	0.119100
H2591	H259	0.722400	0.584400	0.046600
H2601	H260	0.712300	0.733600	0.523900
H2611	H261	0.801200	0.814000	0.452000
H2621	H262	0.746400	0.838400	0.474000
H2631	H263	0.765300	0.708200	0.501500
H2641	H264	0.180410	0.580170	0.793990
H2651	H265	0.958300	0.685800	0.480300
H2661	H266	0.490500	0.350400	0.323100
C2671	C267	0.680040	0.363580	0.452840
C2681	C268	0.627300	0.327790	0.436070
C2691	C269	0.586960	0.332860	0.407040
C2701	C270	0.599360	0.373730	0.394790
C2711	C271	0.652100	0.409520	0.411560
C2721	C272	0.692440	0.404450	0.440590
C2731	C273	0.814550	0.399130	0.547560
C2741	C274	0.806060	0.349850	0.541490
C2751	C275	0.755840	0.304380	0.507020
C2761	C276	0.714110	0.308210	0.478620
C2771	C277	0.722590	0.357480	0.484690
C2781	C278	0.772810	0.402940	0.519150
C2791	C279	0.973730	0.534520	0.648010
C2801	C280	0.954430	0.496160	0.662170
C2811	C281	0.902260	0.453370	0.630730
C2821	C282	0.869360	0.448930	0.585110
C2831	C283	0.888640	0.487290	0.570930
C2841	C284	0.940820	0.530070	0.602370
C2851	C285	0.687300	0.572290	0.261610
C2861	C286	0.674800	0.592090	0.299650
C2871	C287	0.630790	0.558300	0.300370
C2881	C288	0.599300	0.504720	0.263060
C2891	C289	0.611810	0.484940	0.225030
C2901	C290	0.655810	0.518710	0.224300
C2911	C291	0.825570	0.687040	0.310630
C2921	C292	0.780200	0.653330	0.309610
C2931	C293	0.736930	0.610020	0.262650
C2941	C294	0.739040	0.600430	0.216710
C2951	C295	0.784400	0.634150	0.217730
C2961	C296	0.827680	0.677460	0.264700
C2971	C297	0.828370	0.745890	0.463100
C2981	C298	0.860390	0.735920	0.496310
C2991	C299	0.897630	0.726260	0.486730
C3001	C300	0.902840	0.726550	0.443930
C3011	C301	0.870820	0.736520	0.410720
C3021	C302	0.833590	0.746200	0.420310
C3031	C303	0.789200	0.624300	0.169700
C3041	C304	0.553700	0.467700	0.267200
C3051	C305	0.032200	0.580900	0.680100
C3061	C306	0.007980	0.711180	0.599200
C3071	C307	0.999600	0.693800	0.553600
C3081	C308	0.935300	0.718300	0.524600
C3091	C309	0.949300	0.741400	0.577300
C3101	C310	0.984200	0.735100	0.610500
C3111	C311	0.045300	0.703700	0.636200
C3121	C312	0.797600	0.602300	0.078500
C3131	C313	0.838500	0.618000	0.124500
C3141	C314	0.834400	0.629400	0.169800
C3151	C315	0.746300	0.604000	0.121500
C3161	C316	0.751200	0.595300	0.077500
C3171	C317	0.802100	0.592600	0.032100
C3181	C318	0.729900	0.749900	0.509000
C3191	C319	0.722400	0.788400	0.500400
C3201	C320	0.688100	0.805300	0.514200
C3211	C321	0.791100	0.760400	0.475500
C3221	C322	0.783700	0.797700	0.466800
C3231	C323	0.750000	0.812000	0.479600
C3241	C324	0.762200	0.735000	0.496400
C3251	C325	0.962200	0.697900	0.513500
C3261	C326	0.556100	0.379500	0.364400
O3271	O327	0.141000	0.572900	0.769300
O3281	O328	0.047650	0.610130	0.663680
O3291	O329	0.056120	0.584670	0.722630
O3301	O330	0.123210	0.701790	0.767100
O3311	O331	0.072480	0.686600	0.624240
O3321	O332	0.048700	0.716150	0.680490
O3331	O333	0.763490	0.580380	0.991190
O3341	O334	0.844000	0.596000	0.033280
O3351	O335	0.664560	0.783210	0.534770
O3361	O336	0.684710	0.840530	0.505300
O3371	O337	0.524070	0.421070	0.228740
O3381	O338	0.549710	0.484600	0.305530
O3391	O339	0.569510	0.420760	0.360390
O3401	O340	0.509900	0.341400	0.337500
H3411	H341	0.090990	0.701790	0.767100
H3421	H342	0.429080	0.219470	0.547000
Zn3431	Zn343	0.995620	0.414260	0.303300
Zn3441	Zn344	0.868970	0.363210	0.231200
Zn3451	Zn345	0.938890	0.357310	0.172060
H3461	H346	0.856200	0.174700	0.555700
H3471	H347	0.913100	0.155900	0.604200
H3481	H348	0.033500	0.257000	0.596700
H3491	H349	0.976600	0.276000	0.548200
H3501	H350	0.786800	0.273500	0.439500
H3511	H351	0.822300	0.225000	0.544500
H3521	H352	0.912700	0.255300	0.476800
H3531	H353	0.806400	0.283700	0.307300
H3541	H354	0.787500	0.249100	0.359800
H3551	H355	0.943900	0.326300	0.459600
H3561	H356	0.962900	0.360900	0.407200
H3571	H357	0.303300	0.371300	0.675400
H3581	H358	0.245700	0.296600	0.674100
H3591	H359	0.249000	0.390700	0.799900
H3601	H360	0.306600	0.465300	0.801100
H3611	H361	0.319400	0.438500	0.659700
H3621	H362	0.386100	0.524800	0.814700
H3631	H363	0.434600	0.592600	0.734600
H3641	H364	0.210700	0.331900	0.475000
H3651	H365	0.282600	0.490300	0.562500
H3661	H366	0.354800	0.414100	0.601900
H3671	H367	0.133300	0.473200	0.455900
H3681	H368	0.171300	0.345500	0.410600
H3691	H369	0.104900	0.346600	0.355100
H3701	H370	0.495500	0.744200	0.874300
H3711	H371	0.440100	0.662700	0.799200
H3721	H372	0.477100	0.594200	0.880900
H3731	H373	0.537800	0.675800	0.953400
H3741	H374	0.209700	0.188400	0.476100
H3751	H375	0.362000	0.349200	0.548000
H3761	H376	0.364400	0.272400	0.526000
H3771	H377	0.206700	0.263800	0.498500
H3781	H378	0.786180	0.386420	0.206010
H3791	H379	0.205500	0.478000	0.519700
H3801	H380	0.027300	0.167400	0.676900
C3811	C381	0.910740	0.227200	0.547160
C3821	C382	0.891720	0.191230	0.563930
C3831	C383	0.925820	0.179920	0.592960
C3841	C384	0.978940	0.204570	0.605210
C3851	C385	0.997960	0.240540	0.588440
C3861	C386	0.963860	0.251850	0.559410
C3871	C387	0.851570	0.266990	0.452440
C3881	C388	0.808360	0.264570	0.458510
C3891	C389	0.797360	0.248820	0.492980
C3901	C390	0.829590	0.235490	0.521380
C3911	C391	0.872790	0.237900	0.515310
C3921	C392	0.883790	0.253660	0.480850
C3931	C393	0.886510	0.325720	0.351990
C3941	C394	0.833990	0.292260	0.337830
C3951	C395	0.822640	0.271530	0.369270
C3961	C396	0.863820	0.284250	0.414890
C3971	C397	0.916360	0.317710	0.429070
C3981	C398	0.927700	0.338450	0.397630
C3991	C399	0.310680	0.425690	0.738390
C4001	C400	0.292440	0.375150	0.700350
C4011	C401	0.257930	0.330420	0.699630
C4021	C402	0.241660	0.336240	0.736940
C4031	C403	0.259910	0.386780	0.774970
C4041	C404	0.294410	0.431510	0.775700
C4051	C405	0.376410	0.514940	0.689370
C4061	C406	0.343720	0.470590	0.690390
C4071	C407	0.347370	0.474280	0.737350
C4081	C408	0.383720	0.522330	0.783290
C4091	C409	0.416420	0.566670	0.782270
C4101	C410	0.412760	0.562980	0.735300
C4111	C411	0.282790	0.365270	0.536900
C4121	C412	0.239610	0.364080	0.503690
C4131	C413	0.239530	0.410900	0.513270
C4141	C414	0.282620	0.458910	0.556070
C4151	C415	0.325800	0.460100	0.589280
C4161	C416	0.325890	0.413280	0.579690
C4171	C417	0.454600	0.619500	0.830300
C4181	C418	0.200500	0.286500	0.732800
C4191	C419	0.900800	0.352100	0.319900
C4201	C420	0.111980	0.408780	0.400800
C4211	C421	0.140200	0.446000	0.446400
C4221	C422	0.193700	0.410700	0.475400
C4231	C423	0.164100	0.372000	0.422700
C4241	C424	0.124600	0.373700	0.389500
C4251	C425	0.067500	0.409100	0.363800
C4261	C426	0.523800	0.719100	0.921500
C4271	C427	0.493500	0.714000	0.875500
C4281	C428	0.459600	0.664600	0.830200
C4291	C429	0.482500	0.624800	0.878500
C4301	C430	0.517800	0.673700	0.922500
C4311	C431	0.560500	0.770000	0.967900
C4321	C432	0.240900	0.220900	0.491000
C4331	C433	0.288000	0.222000	0.499600
C4341	C434	0.291100	0.173900	0.485800
C4351	C435	0.284900	0.315600	0.524500
C4361	C436	0.330900	0.316900	0.533200
C4371	C437	0.332400	0.270400	0.520400
C4381	C438	0.238600	0.265800	0.503600
C4391	C439	0.184400	0.448700	0.486500
C4401	C440	0.015100	0.191700	0.635600
O4411	O441	0.803600	0.371700	0.230700
O4421	O442	0.946450	0.383970	0.336320
O4431	O443	0.862040	0.333490	0.277370
O4441	O444	0.934690	0.356110	0.232900
O4451	O445	0.062360	0.448240	0.375760
O4461	O446	0.035660	0.368210	0.319510
O4471	O447	0.589190	0.772300	0.008810
O4481	O448	0.562720	0.810720	0.966720
O4491	O449	0.248440	0.129790	0.465230
O4501	O450	0.335230	0.179410	0.494700
O4511	O451	0.192330	0.295330	0.771260
O4521	O452	0.179070	0.244180	0.694470
O4531	O453	0.060370	0.209120	0.639610
O4541	O454	0.003900	0.172400	0.662500
H4551	H455	0.934690	0.323890	0.232900
H4561	H456	0.672470	0.882070	0.453000
Zn4571	Zn457	0.442320	0.360960	0.196700
Zn4581	Zn458	0.387770	0.382010	0.268800
Zn4591	Zn459	0.516830	0.435250	0.327940
H4601	H460	0.050500	0.869000	0.944300
H4611	H461	0.058900	0.801700	0.895800
H4621	H462	0.186800	0.910300	0.903300
H4631	H463	0.178400	0.977800	0.951800
H4641	H464	0.097300	0.084000	0.060500
H4651	H465	0.027800	0.930500	0.955500
H4661	H466	0.185900	0.028500	0.023200
H4671	H467	0.249100	0.226400	0.192700
H4681	H468	0.177700	0.139300	0.140200
H4691	H469	0.234300	0.116700	0.040400
H4701	H470	0.305700	0.203700	0.092800
H4711	H471	0.377900	0.945900	0.824600
H4721	H472	0.321600	0.872500	0.825900
H4731	H473	0.199100	0.840800	0.700100
H4741	H474	0.255500	0.914200	0.698900
H4751	H475	0.409700	0.028800	0.840300
H4761	H476	0.321400	0.960100	0.685300
H4771	H477	0.450000	0.108000	0.765400
H4781	H478	0.485700	0.106900	0.025000
H4791	H479	0.470100	0.177800	0.937500
H4801	H480	0.502900	0.062200	0.898100
H4811	H481	0.427400	0.267300	0.044100
H4821	H482	0.510700	0.184900	0.089400
H4831	H483	0.499800	0.241500	0.144900
H4841	H484	0.371200	0.119900	0.625700
H4851	H485	0.390900	0.113500	0.700800
H4861	H486	0.346200	0.963300	0.619100
H4871	H487	0.334400	0.972400	0.546600
H4881	H488	0.483600	0.962300	0.023900
H4891	H489	0.564000	0.051200	0.952000
H4901	H490	0.588400	0.996400	0.974000
H4911	H491	0.458200	0.015300	0.001500
H4921	H492	0.330170	0.430410	0.293990
H4931	H493	0.435800	0.208300	0.980300
H4941	H494	0.100400	0.740500	0.823100
C4951	C495	0.113580	0.930040	0.952840
C4961	C496	0.077790	0.877300	0.936070
C4971	C497	0.082860	0.836960	0.907040
C4981	C498	0.123730	0.849360	0.894790
C4991	C499	0.159520	0.902100	0.911560
C5001	C500	0.154450	0.942440	0.940590
C5011	C501	0.149130	0.064550	0.047560
C5021	C502	0.099850	0.056060	0.041490
C5031	C503	0.054380	0.005840	0.007020
C5041	C504	0.058210	0.964110	0.978620
C5051	C505	0.107480	0.972590	0.984690
C5061	C506	0.152940	0.022810	0.019150
C5071	C507	0.284520	0.223730	0.148010
C5081	C508	0.246160	0.204430	0.162170
C5091	C509	0.203370	0.152260	0.130730
C5101	C510	0.198930	0.119360	0.085110
C5111	C511	0.237290	0.138640	0.070930
C5121	C512	0.280070	0.190820	0.102370
C5131	C513	0.322290	0.937300	0.761610
C5141	C514	0.342090	0.924800	0.799650
C5151	C515	0.308300	0.880790	0.800370
C5161	C516	0.254720	0.849300	0.763060
C5171	C517	0.234940	0.861810	0.725030
C5181	C518	0.268710	0.905810	0.724300
C5191	C519	0.437040	0.075570	0.810630
C5201	C520	0.403330	0.030200	0.809610
C5211	C521	0.360020	0.986930	0.762650
C5221	C522	0.350430	0.989040	0.716710
C5231	C523	0.384150	0.034400	0.717730
C5241	C524	0.427460	0.077680	0.764700
C5251	C525	0.495890	0.078370	0.963100
C5261	C526	0.485920	0.110390	0.996310
C5271	C527	0.476260	0.147630	0.986730
C5281	C528	0.476550	0.152840	0.943930
C5291	C529	0.486520	0.120820	0.910720
C5301	C530	0.496200	0.083590	0.920310
C5311	C531	0.374300	0.039200	0.669700
C5321	C532	0.217700	0.803700	0.767200
C5331	C533	0.330900	0.282200	0.180100
C5341	C534	0.461180	0.257980	0.099200
C5351	C535	0.443800	0.249600	0.053600
C5361	C536	0.468300	0.185300	0.024600
C5371	C537	0.491400	0.199300	0.077300
C5381	C538	0.485100	0.234200	0.110500
C5391	C539	0.453700	0.295300	0.136200
C5401	C540	0.352300	0.047600	0.578500
C5411	C541	0.368000	0.088500	0.624500
C5421	C542	0.379400	0.084400	0.669800
C5431	C543	0.354000	0.996300	0.621500
C5441	C544	0.345300	0.001200	0.577500
C5451	C545	0.342600	0.052100	0.532100
C5461	C546	0.499900	0.979900	0.009000
C5471	C547	0.538400	0.972400	0.000400
C5481	C548	0.555300	0.938100	0.014200
C5491	C549	0.510400	0.041100	0.975500
C5501	C550	0.547700	0.033700	0.966800
C5511	C551	0.562000	0.000000	0.979600
C5521	C552	0.485000	0.012200	0.996400
C5531	C553	0.447900	0.212200	0.013500
C5541	C554	0.129500	0.806100	0.864400
O5551	O555	0.322900	0.391000	0.269300
O5561	O556	0.360130	0.297650	0.163680
O5571	O557	0.334670	0.306120	0.222630
O5581	O558	0.451790	0.373210	0.267100
O5591	O559	0.436600	0.322480	0.124240
O5601	O560	0.466150	0.298700	0.180490
O5611	O561	0.330380	0.013490	0.491190
O5621	O562	0.346000	0.094000	0.533280
O5631	O563	0.533210	0.914560	0.034770
O5641	O564	0.590530	0.934710	0.005300
O5651	O565	0.171070	0.774070	0.728740
O5661	O566	0.234600	0.799710	0.805530
O5671	O567	0.170760	0.819510	0.860390
O5681	O568	0.091400	0.759900	0.837500
H5691	H569	0.451790	0.340990	0.267100
H5701	H570	0.969470	0.679080	0.047000
Zn5711	Zn571	0.164260	0.245620	0.803300
Zn5721	Zn572	0.113210	0.118970	0.731200
Zn5731	Zn573	0.107310	0.188890	0.672060
H5741	H574	0.924700	0.106200	0.055700
H5751	H575	0.905900	0.163100	0.104200
H5761	H576	0.007000	0.283500	0.096700
H5771	H577	0.026000	0.226600	0.048200
H5781	H578	0.023500	0.036800	0.939500
H5791	H579	0.975000	0.072300	0.044500
H5801	H580	0.005300	0.162700	0.976800
H5811	H581	0.033700	0.056400	0.807300
H5821	H582	0.999100	0.037500	0.859800
H5831	H583	0.076300	0.193900	0.959600
H5841	H584	0.110900	0.212900	0.907200
H5851	H585	0.121300	0.553300	0.175400
H5861	H586	0.046600	0.495700	0.174100
H5871	H587	0.140700	0.499000	0.299900
H5881	H588	0.215300	0.556600	0.301100
H5891	H589	0.188500	0.569400	0.159700
H5901	H590	0.274800	0.636100	0.314700
H5911	H591	0.342600	0.684600	0.234600
H5921	H592	0.081900	0.460700	0.975000
H5931	H593	0.240300	0.532600	0.062500
H5941	H594	0.164100	0.604800	0.101900
H5951	H595	0.223200	0.383300	0.955900
H5961	H596	0.095500	0.421300	0.910600
H5971	H597	0.096600	0.354900	0.855100
H5981	H598	0.494200	0.745500	0.374300
H5991	H599	0.412700	0.690100	0.299200
H6001	H600	0.344200	0.727100	0.380900
H6011	H601	0.425800	0.787800	0.453400
H6021	H602	0.938400	0.459700	0.976100
H6031	H603	0.099200	0.612000	0.048000
H6041	H604	0.022400	0.614400	0.026000
H6051	H605	0.013800	0.456700	0.998500
H6061	H606	0.136420	0.036180	0.706010
H6071	H607	0.228000	0.455500	0.019700
H6081	H608	0.917400	0.277300	0.176900
C6091	C609	0.977200	0.160740	0.047160
C6101	C610	0.941230	0.141720	0.063930
C6111	C611	0.929920	0.175820	0.092960
C6121	C612	0.954570	0.228940	0.105210
C6131	C613	0.990540	0.247960	0.088440
C6141	C614	0.001850	0.213860	0.059410
C6151	C615	0.016990	0.101570	0.952440
C6161	C616	0.014570	0.058360	0.958510
C6171	C617	0.998820	0.047360	0.992980
C6181	C618	0.985490	0.079590	0.021380
C6191	C619	0.987900	0.122790	0.015310
C6201	C620	0.003660	0.133790	0.980850
C6211	C621	0.075720	0.136510	0.851990
C6221	C622	0.042260	0.083990	0.837830
C6231	C623	0.021530	0.072640	0.869270
C6241	C624	0.034250	0.113820	0.914890
C6251	C625	0.067710	0.166360	0.929070
C6261	C626	0.088450	0.177700	0.897630
C6271	C627	0.175690	0.560680	0.238390
C6281	C628	0.125150	0.542440	0.200350
C6291	C629	0.080420	0.507930	0.199630
C6301	C630	0.086240	0.491660	0.236940
C6311	C631	0.136780	0.509910	0.274970
C6321	C632	0.181510	0.544410	0.275700
C6331	C633	0.264940	0.626410	0.189370
C6341	C634	0.220590	0.593720	0.190390
C6351	C635	0.224280	0.597370	0.237350
C6361	C636	0.272330	0.633720	0.283290
C6371	C637	0.316670	0.666420	0.282270
C6381	C638	0.312980	0.662760	0.235300
C6391	C639	0.115270	0.532790	0.036900
C6401	C640	0.114080	0.489610	0.003690
C6411	C641	0.160900	0.489530	0.013270
C6421	C642	0.208910	0.532620	0.056070
C6431	C643	0.210100	0.575800	0.089280
C6441	C644	0.163280	0.575890	0.079690
C6451	C645	0.369500	0.704600	0.330300
C6461	C646	0.036500	0.450500	0.232800
C6471	C647	0.102100	0.150800	0.819900
C6481	C648	0.158780	0.361980	0.900800
C6491	C649	0.196000	0.390200	0.946400
C6501	C650	0.160700	0.443700	0.975400
C6511	C651	0.122000	0.414100	0.922700
C6521	C652	0.123700	0.374600	0.889500
C6531	C653	0.159100	0.317500	0.863800
C6541	C654	0.469100	0.773800	0.421500
C6551	C655	0.464000	0.743500	0.375500
C6561	C656	0.414600	0.709600	0.330200
C6571	C657	0.374800	0.732500	0.378500
C6581	C658	0.423700	0.767800	0.422500
C6591	C659	0.520000	0.810500	0.467900
C6601	C660	0.970900	0.490900	0.991000
C6611	C661	0.972000	0.538000	0.999600
C6621	C662	0.923900	0.541100	0.985800
C6631	C663	0.065600	0.534900	0.024500
C6641	C664	0.066900	0.580900	0.033200
C6651	C665	0.020400	0.582400	0.020400
C6661	C666	0.015800	0.488600	0.003600
C6671	C667	0.198700	0.434400	0.986500
C6681	C668	0.941700	0.265100	0.135600
O6691	O669	0.121700	0.053600	0.730700
O6701	O670	0.133970	0.196450	0.836320
O6711	O671	0.083490	0.112040	0.777370
O6721	O672	0.106110	0.184690	0.732900
O6731	O673	0.198240	0.312360	0.875760
O6741	O674	0.118210	0.285660	0.819510
O6751	O675	0.522300	0.839190	0.508810
O6761	O676	0.560720	0.812720	0.466720
O6771	O677	0.879790	0.498440	0.965230
O6781	O678	0.929410	0.585230	0.994700
O6791	O679	0.045330	0.442330	0.271260
O6801	O680	0.994180	0.429070	0.194470
O6811	O681	0.959120	0.310370	0.139610
O6821	O682	0.922400	0.253900	0.162500
H6831	H683	0.073890	0.184690	0.732900
H6841	H684	0.632070	0.922470	0.953000
Zn6851	Zn685	0.754380	0.557680	0.918640
Zn6861	Zn686	0.881030	0.612230	0.994240
Zn6871	Zn687	0.811110	0.483170	0.918420
H6881	H688	0.893800	0.949500	0.818500
H6891	H689	0.836900	0.941100	0.742800
H6901	H690	0.716500	0.813200	0.723500
H6911	H691	0.773400	0.821600	0.799400
H6921	H692	0.963200	0.902700	0.986700
H6931	H693	0.927700	0.972200	0.902700
H6941	H694	0.837300	0.814100	0.842600
H6951	H695	0.943600	0.750900	0.977300
H6961	H696	0.962500	0.822300	0.961600
H6971	H697	0.806100	0.765700	0.882400
H6981	H698	0.787100	0.694300	0.898000
H6991	H699	0.446700	0.622100	0.568000
H7001	H700	0.504300	0.678400	0.550900
H7011	H701	0.501000	0.800900	0.641700
H7021	H702	0.443400	0.744500	0.658700
H7031	H703	0.430600	0.590300	0.619100
H7041	H704	0.363900	0.678600	0.638700
H7051	H705	0.315400	0.550000	0.658000
H7061	H706	0.539300	0.514300	0.621200
H7071	H707	0.467400	0.529900	0.707700
H7081	H708	0.395200	0.497100	0.559300
H7091	H709	0.616700	0.572600	0.839900
H7101	H710	0.578700	0.489300	0.674200
H7111	H711	0.645100	0.500200	0.741700
H7121	H712	0.254500	0.628800	0.748700
H7131	H713	0.309900	0.609100	0.722600
H7141	H714	0.272900	0.653800	0.617100
H7151	H715	0.212200	0.665600	0.638000
H7161	H716	0.540300	0.516400	0.478700
H7171	H717	0.388000	0.436000	0.487200
H7181	H718	0.385600	0.411600	0.408000
H7191	H719	0.543300	0.541800	0.557100
H7201	H720	0.963820	0.669830	0.100240
H7211	H721	0.544500	0.564200	0.772500
H7221	H722	0.722700	0.899600	0.640100
C7231	C723	0.839260	0.886420	0.816460
C7241	C724	0.858280	0.922210	0.799510
C7251	C725	0.824180	0.917140	0.754100
C7261	C726	0.771060	0.876270	0.725630
C7271	C727	0.752040	0.840480	0.742580
C7281	C728	0.786140	0.845550	0.787990
C7291	C729	0.898430	0.850870	0.915420
C7301	C730	0.941640	0.900150	0.956210
C7311	C731	0.952640	0.945620	0.951460
C7321	C732	0.920410	0.941790	0.905900
C7331	C733	0.877210	0.892520	0.865110
C7341	C734	0.866210	0.847060	0.869870
C7351	C735	0.863490	0.715480	0.939210
C7361	C736	0.916010	0.753840	0.958270
C7371	C737	0.927360	0.796630	0.948890
C7381	C738	0.886180	0.801070	0.920430
C7391	C739	0.833640	0.762710	0.901350
C7401	C740	0.822300	0.719930	0.910750
C7411	C741	0.439320	0.677710	0.615010
C7421	C742	0.457560	0.657910	0.582710
C7431	C743	0.492070	0.691700	0.572490
C7441	C744	0.508340	0.745280	0.594580
C7451	C745	0.490090	0.765060	0.626870
C7461	C746	0.455590	0.731290	0.637100
C7471	C747	0.373590	0.562960	0.638530
C7481	C748	0.406280	0.596670	0.626870
C7491	C749	0.402630	0.639980	0.626910
C7501	C750	0.366280	0.649570	0.638610
C7511	C751	0.333580	0.615850	0.650250
C7521	C752	0.337240	0.572540	0.650220
C7531	C753	0.467210	0.504110	0.582480
C7541	C754	0.510390	0.514080	0.624470
C7551	C755	0.510470	0.523740	0.671370
C7561	C756	0.467380	0.523450	0.676290
C7571	C757	0.424200	0.513480	0.634300
C7581	C758	0.424110	0.503800	0.587390
C7591	C759	0.295400	0.625700	0.664900
C7601	C760	0.549500	0.782300	0.586000
C7611	C761	0.849200	0.669100	0.951300
C7621	C762	0.638020	0.538820	0.796800
C7631	C763	0.609800	0.556200	0.805800
C7641	C764	0.556300	0.531700	0.717000
C7651	C765	0.585900	0.508600	0.707900
C7661	C766	0.625400	0.514900	0.749100
C7671	C767	0.682500	0.546300	0.841600
C7681	C768	0.226200	0.647700	0.695300
C7691	C769	0.256500	0.632000	0.720500
C7701	C770	0.290400	0.620600	0.705000
C7711	C771	0.267500	0.646000	0.642300
C7721	C772	0.232200	0.654700	0.655900
C7731	C773	0.189500	0.657400	0.709500
C7741	C774	0.509100	0.500100	0.480000
C7751	C775	0.462000	0.461600	0.434000
C7761	C776	0.458900	0.444700	0.382800
C7771	C777	0.465100	0.489600	0.530700
C7781	C778	0.419100	0.452300	0.486000
C7791	C779	0.417600	0.438000	0.438000
C7801	C780	0.511400	0.515000	0.527200
C7811	C781	0.565600	0.552100	0.764300
C7821	C782	0.734900	0.870500	0.676600
O7831	O783	0.946400	0.677100	0.068100
O7841	O784	0.803550	0.639870	0.937520
O7851	O785	0.887960	0.665330	0.971450
O7861	O786	0.815310	0.548210	0.921420
O7871	O787	0.687640	0.563400	0.885880
O7881	O788	0.714340	0.533850	0.832550
O7891	O789	0.160810	0.669620	0.683110
O7901	O790	0.187280	0.654000	0.748000
O7911	O791	0.501560	0.466790	0.381350
O7921	O792	0.414770	0.409470	0.344180
O7931	O793	0.557670	0.828930	0.603000
O7941	O794	0.570930	0.765400	0.565110
O7951	O795	0.689630	0.829240	0.648750
O7961	O796	0.746100	0.908600	0.668500
H7971	H797	0.815310	0.548210	0.889200
H7981	H798	0.077530	0.030530	0.709600
Zn7991	Zn799	0.639040	0.835740	0.081360
Zn8001	Zn800	0.617990	0.886790	0.005760
Zn8011	Zn801	0.564750	0.892690	0.081580
H8021	H802	0.131000	0.075300	0.181500
H8031	H803	0.198300	0.094100	0.257200
H8041	H804	0.089700	0.993000	0.276500
H8051	H805	0.022200	0.974000	0.200600
H8061	H806	0.916000	0.976500	0.013300
H8071	H807	0.069500	0.025000	0.097300
H8081	H808	0.971500	0.994700	0.157400
H8091	H809	0.773600	0.966300	0.022700
H8101	H810	0.860700	0.000900	0.038400
H8111	H811	0.883300	0.923700	0.117600
H8121	H812	0.796300	0.889100	0.102000
H8131	H813	0.054100	0.878700	0.432000
H8141	H814	0.127500	0.953400	0.449100
H8151	H815	0.159200	0.859300	0.358300
H8161	H816	0.085800	0.784700	0.341300
H8171	H817	0.971200	0.811500	0.380900
H8181	H818	0.039900	0.725200	0.361300
H8191	H819	0.892000	0.657400	0.342000
H8201	H820	0.893100	0.918100	0.378800
H8211	H821	0.822200	0.759700	0.292300
H8221	H822	0.937800	0.835900	0.440700
H8231	H823	0.732700	0.776800	0.160100
H8241	H824	0.815100	0.904500	0.325800
H8251	H825	0.758500	0.903400	0.258300
H8261	H826	0.880100	0.505800	0.251300
H8271	H827	0.886500	0.587300	0.277400
H8281	H828	0.036700	0.655800	0.382900
H8291	H829	0.027600	0.574200	0.362000
H8301	H830	0.037700	0.061600	0.521300
H8311	H831	0.948800	0.900800	0.512800
H8321	H832	0.003600	0.977600	0.592000
H8331	H833	0.984700	0.986200	0.442900
H8341	H834	0.569590	0.863580	0.899760
H8351	H835	0.791700	0.772000	0.227500
H8361	H836	0.259500	0.082600	0.359900
C8371	C837	0.069960	0.022800	0.183540
C8381	C838	0.122700	0.058770	0.200490
C8391	C839	0.163040	0.070080	0.245900
C8401	C840	0.150640	0.045430	0.274370
C8411	C841	0.097900	0.009460	0.257420
C8421	C842	0.057560	0.998150	0.212010
C8431	C843	0.935450	0.983010	0.084580
C8441	C844	0.943940	0.985430	0.043790
C8451	C845	0.994160	0.001180	0.048540
C8461	C846	0.035890	0.014510	0.094100
C8471	C847	0.027410	0.012100	0.134890
C8481	C848	0.977190	0.996340	0.130130
C8491	C849	0.776270	0.924280	0.060790
C8501	C850	0.795570	0.957740	0.041730
C8511	C851	0.847740	0.978470	0.051110
C8521	C852	0.880640	0.965750	0.079570
C8531	C853	0.861360	0.932290	0.098650
C8541	C854	0.809180	0.911550	0.089250
C8551	C855	0.062700	0.824310	0.384990
C8561	C856	0.075200	0.874850	0.417290
C8571	C857	0.119210	0.919580	0.427510
C8581	C858	0.150700	0.913760	0.405420
C8591	C859	0.138190	0.863220	0.373130
C8601	C860	0.094190	0.818490	0.362900
C8611	C861	0.924430	0.735060	0.361470
C8621	C862	0.969800	0.779410	0.373130
C8631	C863	0.013070	0.775720	0.373090
C8641	C864	0.010960	0.727670	0.361390
C8651	C865	0.965600	0.683330	0.349750
C8661	C866	0.922320	0.687020	0.349780
C8671	C867	0.921630	0.884730	0.417520
C8681	C868	0.889610	0.885920	0.375530
C8691	C869	0.852370	0.839100	0.328630
C8701	C870	0.847160	0.791090	0.323710
C8711	C871	0.879180	0.789900	0.365700
C8721	C872	0.916410	0.836720	0.412610
C8731	C873	0.960800	0.630500	0.335100
C8741	C874	0.196300	0.963500	0.414000
C8751	C875	0.717800	0.897900	0.048700
C8761	C876	0.742020	0.841220	0.203200
C8771	C877	0.750400	0.804000	0.194200
C8781	C878	0.814700	0.839300	0.283000
C8791	C879	0.800700	0.878000	0.292100
C8801	C880	0.765800	0.876300	0.250900
C8811	C881	0.704700	0.840900	0.158400
C8821	C882	0.952400	0.530900	0.304700
C8831	C883	0.911500	0.536000	0.279500
C8841	C884	0.915600	0.585400	0.295000
C8851	C885	0.003700	0.625200	0.357700
C8861	C886	0.998800	0.576300	0.344100
C8871	C887	0.947900	0.480000	0.290500
C8881	C888	0.020100	0.029100	0.520000
C8891	C889	0.027600	0.028000	0.566000
C8901	C890	0.061900	0.076100	0.617200
C8911	C891	0.958900	0.934400	0.469300
C8921	C892	0.966300	0.933100	0.514000
C8931	C893	0.000000	0.979600	0.562000
C8941	C894	0.987800	0.984200	0.472800
C8951	C895	0.787800	0.801300	0.235700
C8961	C896	0.193900	0.058300	0.323400
O8971	O897	0.609000	0.878300	0.931900
O8981	O898	0.702350	0.866030	0.062480
O8991	O899	0.693880	0.916510	0.028550
O9001	O900	0.626790	0.893890	0.078580
O9011	O901	0.677520	0.801760	0.114120
O9021	O902	0.701300	0.881790	0.167450
O9031	O903	0.986510	0.477700	0.316890
O9041	O904	0.906000	0.439280	0.252000
O9051	O905	0.085440	0.120210	0.618650
O9061	O906	0.065290	0.070590	0.655820
O9071	O907	0.225930	0.954670	0.397000
O9081	O908	0.200290	0.005820	0.434890
O9091	O909	0.180490	0.040880	0.351250
O9101	O910	0.240100	0.077600	0.331500
H9111	H911	0.659010	0.926110	0.110800
H9121	H912	0.320920	0.367930	0.290400
C9131	C913	0.487300	0.125000	0.862300
C9141	C914	0.262700	0.625000	0.137700
C9151	C915	0.875000	0.737300	0.362300
C9161	C916	0.375000	0.512700	0.637700
C9171	C917	0.750000	0.250000	0.500000
C9181	C918	0.000000	0.000000	0.000000
