data_QEFNAQ_clean_PM
_symmetry_space_group_name_H-M	'P1'
_cell_length_a	15.760000
_cell_length_b	15.760000
_cell_length_c	15.760000
_cell_angle_alpha	90.000000
_cell_angle_beta	90.000000
_cell_angle_gamma	90.000000
_symmetry_Int_Tables_number 1

loop_
_symmetry_equiv_pos_as_xyz
'x,y,z'

loop_
_atom_site_label
_atom_site_type_symbol
_atom_site_fract_x
_atom_site_fract_y
_atom_site_fract_z
N11	N1	0.411600	0.820500	0.194000
C11	C1	0.391400	0.899200	0.213800
H11	H1	0.420300	0.926100	0.257700
N21	N2	0.088400	0.679500	0.194000
C21	C2	0.108600	0.600800	0.213800
H21	H2	0.079700	0.573900	0.257700
N31	N3	0.088400	0.820500	0.306000
C31	C3	0.108600	0.899200	0.286200
H31	H3	0.079700	0.926100	0.242300
N41	N4	0.411600	0.679500	0.306000
C41	C4	0.391400	0.600800	0.286200
H41	H4	0.420300	0.573900	0.242300
N51	N5	0.194000	0.411600	0.820500
C51	C5	0.213800	0.391400	0.899200
H51	H5	0.257700	0.420300	0.926100
N61	N6	0.194000	0.088400	0.679500
C61	C6	0.213800	0.108600	0.600800
H61	H6	0.257700	0.079700	0.573900
N71	N7	0.306000	0.088400	0.820500
C71	C7	0.286200	0.108600	0.899200
H71	H7	0.242300	0.079700	0.926100
N81	N8	0.306000	0.411600	0.679500
C81	C8	0.286200	0.391400	0.600800
H81	H8	0.242300	0.420300	0.573900
N91	N9	0.820500	0.194000	0.411600
C91	C9	0.899200	0.213800	0.391400
H91	H9	0.926100	0.257700	0.420300
N101	N10	0.679500	0.194000	0.088400
C101	C10	0.600800	0.213800	0.108600
H101	H10	0.573900	0.257700	0.079700
N111	N11	0.820500	0.306000	0.088400
C111	C11	0.899200	0.286200	0.108600
H111	H11	0.926100	0.242300	0.079700
N121	N12	0.679500	0.306000	0.411600
C121	C12	0.600800	0.286200	0.391400
H121	H12	0.573900	0.242300	0.420300
N131	N13	0.320500	0.911600	0.806000
C131	C13	0.399200	0.891400	0.786200
H131	H13	0.426100	0.920300	0.742300
N141	N14	0.179500	0.588400	0.806000
C141	C14	0.100800	0.608600	0.786200
H141	H14	0.073900	0.579700	0.742300
N151	N15	0.320500	0.588400	0.694000
C151	C15	0.399200	0.608600	0.713800
H151	H15	0.426100	0.579700	0.757700
N161	N16	0.179500	0.911600	0.694000
C161	C16	0.100800	0.891400	0.713800
H161	H16	0.073900	0.920300	0.757700
N171	N17	0.911600	0.694000	0.179500
C171	C17	0.891400	0.713800	0.100800
H171	H17	0.920300	0.757700	0.073900
N181	N18	0.588400	0.694000	0.320500
C181	C18	0.608600	0.713800	0.399200
H181	H18	0.579700	0.757700	0.426100
N191	N19	0.588400	0.806000	0.179500
C191	C19	0.608600	0.786200	0.100800
H191	H19	0.579700	0.742300	0.073900
N201	N20	0.911600	0.806000	0.320500
C201	C20	0.891400	0.786200	0.399200
H201	H20	0.920300	0.742300	0.426100
N211	N21	0.694000	0.320500	0.588400
C211	C21	0.713800	0.399200	0.608600
H211	H21	0.757700	0.426100	0.579700
N221	N22	0.694000	0.179500	0.911600
C221	C22	0.713800	0.100800	0.891400
H221	H22	0.757700	0.073900	0.920300
N231	N23	0.806000	0.320500	0.911600
C231	C23	0.786200	0.399200	0.891400
H231	H23	0.742300	0.426100	0.920300
N241	N24	0.806000	0.179500	0.588400
C241	C24	0.786200	0.100800	0.608600
H241	H24	0.742300	0.073900	0.579700
N251	N25	0.588400	0.179500	0.806000
C251	C25	0.608600	0.100800	0.786200
H251	H25	0.579700	0.073900	0.742300
N261	N26	0.911600	0.320500	0.806000
C261	C26	0.891400	0.399200	0.786200
H261	H26	0.920300	0.426100	0.742300
N271	N27	0.911600	0.179500	0.694000
C271	C27	0.891400	0.100800	0.713800
H271	H27	0.920300	0.073900	0.757700
N281	N28	0.588400	0.320500	0.694000
C281	C28	0.608600	0.399200	0.713800
H281	H28	0.579700	0.426100	0.757700
N291	N29	0.806000	0.588400	0.179500
C291	C29	0.786200	0.608600	0.100800
H291	H29	0.742300	0.579700	0.073900
N301	N30	0.806000	0.911600	0.320500
C301	C30	0.786200	0.891400	0.399200
H301	H30	0.742300	0.920300	0.426100
N311	N31	0.694000	0.911600	0.179500
C311	C31	0.713800	0.891400	0.100800
H311	H31	0.757700	0.920300	0.073900
N321	N32	0.694000	0.588400	0.320500
C321	C32	0.713800	0.608600	0.399200
H321	H32	0.757700	0.579700	0.426100
N331	N33	0.179500	0.806000	0.588400
C331	C33	0.100800	0.786200	0.608600
H331	H33	0.073900	0.742300	0.579700
N341	N34	0.320500	0.806000	0.911600
C341	C34	0.399200	0.786200	0.891400
H341	H34	0.426100	0.742300	0.920300
N351	N35	0.179500	0.694000	0.911600
C351	C35	0.100800	0.713800	0.891400
H351	H35	0.073900	0.757700	0.920300
N361	N36	0.320500	0.694000	0.588400
C361	C36	0.399200	0.713800	0.608600
H361	H36	0.426100	0.757700	0.579700
N371	N37	0.679500	0.088400	0.194000
C371	C37	0.600800	0.108600	0.213800
H371	H37	0.573900	0.079700	0.257700
N381	N38	0.820500	0.411600	0.194000
C381	C38	0.899200	0.391400	0.213800
H381	H38	0.926100	0.420300	0.257700
N391	N39	0.679500	0.411600	0.306000
C391	C39	0.600800	0.391400	0.286200
H391	H39	0.573900	0.420300	0.242300
N401	N40	0.820500	0.088400	0.306000
C401	C40	0.899200	0.108600	0.286200
H401	H40	0.926100	0.079700	0.242300
N411	N41	0.088400	0.306000	0.820500
C411	C41	0.108600	0.286200	0.899200
H411	H41	0.079700	0.242300	0.926100
N421	N42	0.411600	0.306000	0.679500
C421	C42	0.391400	0.286200	0.600800
H421	H42	0.420300	0.242300	0.573900
N431	N43	0.411600	0.194000	0.820500
C431	C43	0.391400	0.213800	0.899200
H431	H43	0.420300	0.257700	0.926100
N441	N44	0.088400	0.194000	0.679500
C441	C44	0.108600	0.213800	0.600800
H441	H44	0.079700	0.257700	0.573900
N451	N45	0.306000	0.679500	0.411600
C451	C45	0.286200	0.600800	0.391400
H451	H45	0.242300	0.573900	0.420300
N461	N46	0.306000	0.820500	0.088400
C461	C46	0.286200	0.899200	0.108600
H461	H46	0.242300	0.926100	0.079700
N471	N47	0.194000	0.679500	0.088400
C471	C47	0.213800	0.600800	0.108600
H471	H47	0.257700	0.573900	0.079700
N481	N48	0.194000	0.820500	0.411600
C481	C48	0.213800	0.899200	0.391400
H481	H48	0.257700	0.926100	0.420300
Cu11	Cu1	0.500000	0.750000	0.250000
Cu21	Cu2	0.000000	0.750000	0.250000
Cu31	Cu3	0.250000	0.500000	0.750000
Cu41	Cu4	0.250000	0.000000	0.750000
Cu51	Cu5	0.750000	0.250000	0.500000
Cu61	Cu6	0.750000	0.250000	0.000000
Cu71	Cu7	0.500000	0.250000	0.750000
Cu81	Cu8	0.000000	0.250000	0.750000
Cu91	Cu9	0.750000	0.500000	0.250000
Cu101	Cu10	0.750000	0.000000	0.250000
Cu111	Cu11	0.250000	0.750000	0.500000
Cu121	Cu12	0.250000	0.750000	0.000000
C491	C49	0.372200	0.781200	0.127800
O11	O1	0.395800	0.709200	0.104200
C501	C50	0.328700	0.942700	0.171300
H491	H49	0.314000	0.997000	0.186000
C511	C51	0.127800	0.718800	0.127800
O21	O2	0.104200	0.790800	0.104200
C521	C52	0.171300	0.557300	0.171300
H501	H50	0.186000	0.503000	0.186000
C531	C53	0.127800	0.781200	0.372200
O31	O3	0.104200	0.709200	0.395800
C541	C54	0.171300	0.942700	0.328700
H511	H51	0.186000	0.997000	0.314000
C551	C55	0.372200	0.718800	0.372200
O41	O4	0.395800	0.790800	0.395800
C561	C56	0.328700	0.557300	0.328700
H521	H52	0.314000	0.503000	0.314000
C571	C57	0.127800	0.372200	0.781200
O51	O5	0.104200	0.395800	0.709200
C581	C58	0.171300	0.328700	0.942700
H531	H53	0.186000	0.314000	0.997000
C591	C59	0.127800	0.127800	0.718800
O61	O6	0.104200	0.104200	0.790800
C601	C60	0.171300	0.171300	0.557300
H541	H54	0.186000	0.186000	0.503000
C611	C61	0.372200	0.127800	0.781200
O71	O7	0.395800	0.104200	0.709200
C621	C62	0.328700	0.171300	0.942700
H551	H55	0.314000	0.186000	0.997000
C631	C63	0.372200	0.372200	0.718800
O81	O8	0.395800	0.395800	0.790800
C641	C64	0.328700	0.328700	0.557300
H561	H56	0.314000	0.314000	0.503000
C651	C65	0.781200	0.127800	0.372200
O91	O9	0.709200	0.104200	0.395800
C661	C66	0.942700	0.171300	0.328700
H571	H57	0.997000	0.186000	0.314000
C671	C67	0.718800	0.127800	0.127800
O101	O10	0.790800	0.104200	0.104200
C681	C68	0.557300	0.171300	0.171300
H581	H58	0.503000	0.186000	0.186000
C691	C69	0.781200	0.372200	0.127800
O111	O11	0.709200	0.395800	0.104200
C701	C70	0.942700	0.328700	0.171300
H591	H59	0.997000	0.314000	0.186000
C711	C71	0.718800	0.372200	0.372200
O121	O12	0.790800	0.395800	0.395800
C721	C72	0.557300	0.328700	0.328700
H601	H60	0.503000	0.314000	0.314000
C731	C73	0.281200	0.872200	0.872200
O131	O13	0.209200	0.895800	0.895800
C741	C74	0.442700	0.828700	0.828700
H611	H61	0.497000	0.814000	0.814000
C751	C75	0.218800	0.627800	0.872200
O141	O14	0.290800	0.604200	0.895800
C761	C76	0.057300	0.671300	0.828700
H621	H62	0.003000	0.686000	0.814000
C771	C77	0.281200	0.627800	0.627800
O151	O15	0.209200	0.604200	0.604200
C781	C78	0.442700	0.671300	0.671300
H631	H63	0.497000	0.686000	0.686000
C791	C79	0.218800	0.872200	0.627800
O161	O16	0.290800	0.895800	0.604200
C801	C80	0.057300	0.828700	0.671300
H641	H64	0.003000	0.814000	0.686000
C811	C81	0.872200	0.627800	0.218800
O171	O17	0.895800	0.604200	0.290800
C821	C82	0.828700	0.671300	0.057300
H651	H65	0.814000	0.686000	0.003000
C831	C83	0.627800	0.627800	0.281200
O181	O18	0.604200	0.604200	0.209200
C841	C84	0.671300	0.671300	0.442700
H661	H66	0.686000	0.686000	0.497000
C851	C85	0.627800	0.872200	0.218800
O191	O19	0.604200	0.895800	0.290800
C861	C86	0.671300	0.828700	0.057300
H671	H67	0.686000	0.814000	0.003000
C871	C87	0.872200	0.872200	0.281200
O201	O20	0.895800	0.895800	0.209200
C881	C88	0.828700	0.828700	0.442700
H681	H68	0.814000	0.814000	0.497000
C891	C89	0.627800	0.281200	0.627800
O211	O21	0.604200	0.209200	0.604200
C901	C90	0.671300	0.442700	0.671300
H691	H69	0.686000	0.497000	0.686000
C911	C91	0.627800	0.218800	0.872200
O221	O22	0.604200	0.290800	0.895800
C921	C92	0.671300	0.057300	0.828700
H701	H70	0.686000	0.003000	0.814000
C931	C93	0.872200	0.281200	0.872200
O231	O23	0.895800	0.209200	0.895800
C941	C94	0.828700	0.442700	0.828700
H711	H71	0.814000	0.497000	0.814000
C951	C95	0.872200	0.218800	0.627800
O241	O24	0.895800	0.290800	0.604200
C961	C96	0.828700	0.057300	0.671300
H721	H72	0.814000	0.003000	0.686000
