data_QEKLID01_clean_PM
_symmetry_space_group_name_H-M	'P1'
_cell_length_a	7.873300
_cell_length_b	10.143200
_cell_length_c	13.528000
_cell_angle_alpha	68.355000
_cell_angle_beta	79.645000
_cell_angle_gamma	70.702000
_symmetry_Int_Tables_number 1

loop_
_symmetry_equiv_pos_as_xyz
'x,y,z'

loop_
_atom_site_label
_atom_site_type_symbol
_atom_site_fract_x
_atom_site_fract_y
_atom_site_fract_z
Cd11	Cd1	0.826670	0.655900	0.543360
Cd21	Cd2	0.173330	0.344100	0.456640
Cd31	Cd3	0.500000	0.000000	0.500000
H11	H1	0.853300	0.131800	0.556500
H21	H2	0.797500	0.222900	0.828700
H31	H3	0.830300	0.815700	0.841900
H41	H4	0.602300	0.166800	0.973200
H51	H5	0.550900	0.111900	0.156600
H61	H6	0.887300	0.703900	0.196900
H71	H7	0.935700	0.759300	0.012700
H81	H8	0.146700	0.868200	0.443500
H91	H9	0.202500	0.777100	0.171300
H101	H10	0.169700	0.184300	0.158100
H111	H11	0.397700	0.833200	0.026800
H121	H12	0.449100	0.888100	0.843400
H131	H13	0.112700	0.296100	0.803100
H141	H14	0.064300	0.240700	0.987300
C11	C1	0.839800	0.957700	0.690700
C21	C2	0.842300	0.102100	0.630500
C31	C3	0.827900	0.202500	0.682600
C41	C4	0.809000	0.155800	0.794400
C51	C5	0.806900	0.012300	0.855100
C61	C6	0.826200	0.913400	0.802300
C71	C7	0.776300	0.971100	0.974200
C81	C8	0.660500	0.073400	0.018100
C91	C9	0.628100	0.040800	0.128400
C101	C10	0.712600	0.901500	0.194500
C111	C11	0.829000	0.797100	0.151800
C121	C12	0.859800	0.830600	0.041000
C131	C13	0.843200	0.849800	0.638500
C141	C14	0.837900	0.354600	0.624100
C151	C15	0.684900	0.867700	0.314800
C161	C16	0.160200	0.042300	0.309300
C171	C17	0.157700	0.897900	0.369500
C181	C18	0.172100	0.797500	0.317400
C191	C19	0.191000	0.844200	0.205600
C201	C20	0.193100	0.987700	0.144900
C211	C21	0.173800	0.086600	0.197700
C221	C22	0.223700	0.028900	0.025800
C231	C23	0.339500	0.926600	0.981900
C241	C24	0.371900	0.959200	0.871600
C251	C25	0.287400	0.098500	0.805500
C261	C26	0.171000	0.202900	0.848200
C271	C27	0.140200	0.169400	0.959000
C281	C28	0.156800	0.150200	0.361500
C291	C29	0.162100	0.645400	0.375900
C301	C30	0.315100	0.132300	0.685200
O11	O1	0.883900	0.716100	0.686200
O21	O2	0.798500	0.900400	0.541700
O31	O3	0.881100	0.396700	0.521100
O41	O4	0.797800	0.446700	0.672300
O51	O5	0.580600	0.971400	0.345400
O61	O6	0.765700	0.743600	0.372000
O71	O7	0.116100	0.283900	0.313800
O81	O8	0.201500	0.099600	0.458300
O91	O9	0.118900	0.603300	0.478900
O101	O10	0.202200	0.553300	0.327700
O111	O11	0.419400	0.028600	0.654600
O121	O12	0.234300	0.256400	0.628000
