data_QEKLUP_clean_PM
_symmetry_space_group_name_H-M	'P1'
_cell_length_a	5.048300
_cell_length_b	10.211400
_cell_length_c	10.211400
_cell_angle_alpha	97.698900
_cell_angle_beta	96.635900
_cell_angle_gamma	83.364100
_symmetry_Int_Tables_number 1

loop_
_symmetry_equiv_pos_as_xyz
'x,y,z'

loop_
_atom_site_label
_atom_site_type_symbol
_atom_site_fract_x
_atom_site_fract_y
_atom_site_fract_z
Ba11	Ba1	0.661050	0.105540	0.894460
Ba21	Ba2	0.338950	0.894460	0.105540
U11	U1	0.500000	0.000000	0.500000
U21	U2	0.500000	0.500000	0.000000
P11	P1	0.097300	0.880090	0.703930
P21	P2	0.902700	0.703930	0.880090
P31	P3	0.902700	0.119910	0.296070
P41	P4	0.097300	0.296070	0.119910
H11	H1	0.148600	0.652500	0.700300
H21	H2	0.851400	0.700300	0.652500
H31	H3	0.851400	0.347500	0.299700
H41	H4	0.148600	0.299700	0.347500
C11	C1	0.000000	0.719000	0.719000
C21	C2	0.000000	0.281000	0.281000
O11	O1	0.365000	0.132260	0.614260
O21	O2	0.274800	0.859510	0.587710
O31	O3	0.225200	0.944420	0.832620
O41	O4	0.831800	0.964350	0.663750
O51	O5	0.635000	0.614260	0.132260
O61	O6	0.725200	0.587710	0.859510
O71	O7	0.774800	0.832620	0.944420
O81	O8	0.168200	0.663750	0.964350
O91	O9	0.635000	0.867740	0.385740
O101	O10	0.725200	0.140490	0.412290
O111	O11	0.774800	0.055580	0.167380
O121	O12	0.168200	0.035650	0.336250
O131	O13	0.365000	0.385740	0.867740
O141	O14	0.274800	0.412290	0.140490
O151	O15	0.225200	0.167380	0.055580
O161	O16	0.831800	0.336250	0.035650
