data_QEKLID_clean_PM
_symmetry_space_group_name_H-M	'P1'
_cell_length_a	7.868100
_cell_length_b	10.131100
_cell_length_c	13.492700
_cell_angle_alpha	68.376000
_cell_angle_beta	79.855000
_cell_angle_gamma	70.823000
_symmetry_Int_Tables_number 1

loop_
_symmetry_equiv_pos_as_xyz
'x,y,z'

loop_
_atom_site_label
_atom_site_type_symbol
_atom_site_fract_x
_atom_site_fract_y
_atom_site_fract_z
Cd11	Cd1	0.672780	0.843770	0.956560
Cd21	Cd2	0.327220	0.156230	0.043440
Cd31	Cd3	0.000000	0.500000	0.000000
H11	H1	0.702300	0.274500	0.672300
H21	H2	0.645200	0.368400	0.943200
H31	H3	0.564800	0.739200	0.486900
H41	H4	0.667900	0.684500	0.657600
H51	H5	0.948100	0.386100	0.346000
H61	H6	0.898700	0.332200	0.527700
H71	H7	0.613600	0.796600	0.304200
H81	H8	0.297700	0.725500	0.327700
H91	H9	0.354800	0.631600	0.056800
H101	H10	0.435200	0.260800	0.513100
H111	H11	0.332100	0.315500	0.342400
H121	H12	0.051900	0.613900	0.654000
H131	H13	0.101300	0.667800	0.472300
H141	H14	0.386400	0.203400	0.695800
C11	C1	0.663100	0.143400	0.876800
C21	C2	0.670000	0.298900	0.816600
C31	C3	0.690400	0.342600	0.706000
C41	C4	0.658700	0.542200	0.808900
C51	C5	0.656400	0.649800	0.861200
C61	C6	0.656100	0.398300	0.869000
C71	C7	0.640900	0.668000	0.458500
C81	C8	0.672600	0.586500	0.697300
C91	C9	0.871000	0.457800	0.373600
C101	C10	0.786900	0.598200	0.304300
C111	C11	0.693300	0.486600	0.644400
C121	C12	0.839900	0.425300	0.482500
C131	C13	0.723400	0.528400	0.525600
C141	C14	0.671200	0.702600	0.348800
C151	C15	0.816000	0.632100	0.185600
C161	C16	0.336900	0.856600	0.123200
C171	C17	0.330000	0.701100	0.183400
C181	C18	0.309600	0.657400	0.294000
C191	C19	0.341300	0.457800	0.191100
C201	C20	0.343600	0.350200	0.138800
C211	C21	0.343900	0.601700	0.131000
C221	C22	0.359100	0.332000	0.541500
C231	C23	0.327400	0.413500	0.302700
C241	C24	0.129000	0.542200	0.626400
C251	C25	0.213100	0.401800	0.695700
C261	C26	0.306700	0.513400	0.355600
C271	C27	0.160100	0.574700	0.517500
C281	C28	0.276600	0.471600	0.474400
C291	C29	0.328800	0.297400	0.651200
C301	C30	0.184000	0.367900	0.814400
O11	O1	0.701000	0.053100	0.828400
O21	O2	0.620000	0.106300	0.977800
O31	O3	0.701000	0.598300	0.957800
O41	O4	0.613100	0.784300	0.812400
O51	O5	0.920100	0.527600	0.156000
O61	O6	0.737000	0.757600	0.127100
O71	O7	0.299000	0.946900	0.171600
O81	O8	0.380000	0.893700	0.022200
O91	O9	0.299000	0.401700	0.042200
O101	O10	0.386900	0.215700	0.187600
O111	O11	0.079900	0.472400	0.844000
O121	O12	0.263000	0.242400	0.872900
