data_QEPZOB_clean_PM
_symmetry_space_group_name_H-M	'P1'
_cell_length_a	12.770000
_cell_length_b	16.428000
_cell_length_c	30.195000
_cell_angle_alpha	90.000000
_cell_angle_beta	90.000000
_cell_angle_gamma	108.083000
_symmetry_Int_Tables_number 1

loop_
_symmetry_equiv_pos_as_xyz
'x,y,z'

loop_
_atom_site_label
_atom_site_type_symbol
_atom_site_fract_x
_atom_site_fract_y
_atom_site_fract_z
Cu11	Cu1	0.485900	0.269470	0.655420
Cu21	Cu2	0.619540	0.646010	0.884370
Cu31	Cu3	0.553450	0.280400	0.059250
Cu41	Cu4	0.514100	0.230530	0.155420
Cu51	Cu5	0.380460	0.853990	0.384370
Cu61	Cu6	0.446550	0.219600	0.559250
Cu71	Cu7	0.514100	0.730530	0.344580
Cu81	Cu8	0.380460	0.353990	0.115630
Cu91	Cu9	0.446550	0.719600	0.940750
Cu101	Cu10	0.485900	0.769470	0.844580
Cu111	Cu11	0.619540	0.146010	0.615630
Cu121	Cu12	0.553450	0.780400	0.440750
H11	H1	0.366200	0.391400	0.688400
H21	H2	0.272500	0.405700	0.752200
H31	H3	0.287400	0.178100	0.795400
H41	H4	0.381100	0.163800	0.731500
H51	H5	0.961000	0.273700	0.798600
H61	H6	0.036400	0.230500	0.772900
H71	H7	0.059000	0.329700	0.769700
H81	H8	0.138100	0.302900	0.976100
H91	H9	0.027200	0.239300	0.958600
H101	H10	0.045400	0.338200	0.958200
H111	H11	0.429900	0.338000	0.825400
H121	H12	0.440000	0.300800	0.872400
H131	H13	0.445000	0.396900	0.867300
H141	H14	0.497400	0.423100	0.011500
H151	H15	0.390100	0.167000	0.999100
H161	H16	0.271500	0.178700	0.943000
H171	H17	0.378800	0.434900	0.955300
H181	H18	0.557300	0.153700	0.879000
H191	H19	0.561700	0.241000	0.856800
H201	H20	0.569000	0.234600	0.908500
H211	H21	0.866700	0.062800	0.871500
H221	H22	0.968300	0.119300	0.898500
H231	H23	0.969600	0.122600	0.846600
H241	H24	0.932400	0.471600	0.878300
H251	H25	0.014000	0.441600	0.848500
H261	H26	0.025700	0.441800	0.900200
H271	H27	0.677700	0.529700	0.950000
H281	H28	0.741100	0.411800	0.948500
H291	H29	0.717000	0.404700	0.815800
H301	H30	0.653600	0.522600	0.817300
H311	H31	0.517800	0.917300	0.918800
H321	H32	0.624300	0.058200	0.930700
H331	H33	0.729200	0.074800	0.804600
H341	H34	0.622700	0.933900	0.792600
H351	H35	0.702700	0.290700	0.766500
H361	H36	0.809300	0.283900	0.743000
H371	H37	0.724900	0.202100	0.763700
H381	H38	0.244400	0.262800	0.642100
H391	H39	0.209500	0.196200	0.603500
H401	H40	0.255000	0.294300	0.592900
H411	H41	0.633800	0.108600	0.188400
H421	H42	0.727500	0.094300	0.252200
H431	H43	0.712600	0.321900	0.295400
H441	H44	0.618900	0.336200	0.231500
H451	H45	0.039000	0.226300	0.298600
H461	H46	0.963600	0.269500	0.272900
H471	H47	0.941000	0.170300	0.269700
H481	H48	0.861900	0.197100	0.476100
H491	H49	0.972800	0.260700	0.458600
H501	H50	0.954600	0.161800	0.458200
H511	H51	0.570100	0.162000	0.325400
H521	H52	0.560000	0.199200	0.372400
H531	H53	0.555000	0.103100	0.367300
H541	H54	0.502600	0.076900	0.511500
H551	H55	0.609900	0.333000	0.499100
H561	H56	0.728500	0.321300	0.443000
H571	H57	0.621200	0.065100	0.455300
H581	H58	0.442700	0.346300	0.379000
H591	H59	0.438300	0.259000	0.356800
H601	H60	0.431000	0.265400	0.408500
H611	H61	0.133300	0.437200	0.371500
H621	H62	0.031700	0.380700	0.398500
H631	H63	0.030400	0.377400	0.346600
H641	H64	0.067600	0.028400	0.378300
H651	H65	0.986000	0.058400	0.348500
H661	H66	0.974300	0.058200	0.400200
H671	H67	0.322300	0.970300	0.450000
H681	H68	0.258900	0.088200	0.448500
H691	H69	0.283000	0.095300	0.315800
H701	H70	0.346400	0.977400	0.317300
H711	H71	0.482200	0.582700	0.418800
H721	H72	0.375700	0.441800	0.430700
H731	H73	0.270800	0.425200	0.304600
H741	H74	0.377300	0.566100	0.292600
H751	H75	0.297300	0.209300	0.266500
H761	H76	0.190700	0.216100	0.243000
H771	H77	0.275100	0.297900	0.263700
H781	H78	0.755600	0.237200	0.142100
H791	H79	0.790500	0.303800	0.103500
H801	H80	0.745000	0.205700	0.092900
H811	H81	0.633800	0.608600	0.311600
H821	H82	0.727500	0.594300	0.247800
H831	H83	0.712600	0.821900	0.204600
H841	H84	0.618900	0.836200	0.268500
H851	H85	0.039000	0.726300	0.201400
H861	H86	0.963600	0.769500	0.227100
H871	H87	0.941000	0.670300	0.230300
H881	H88	0.861900	0.697100	0.023900
H891	H89	0.972800	0.760700	0.041400
H901	H90	0.954600	0.661800	0.041800
H911	H91	0.570100	0.662000	0.174600
H921	H92	0.560000	0.699200	0.127600
H931	H93	0.555000	0.603100	0.132700
H941	H94	0.502600	0.576900	0.988500
H951	H95	0.609900	0.833000	0.000900
H961	H96	0.728500	0.821300	0.057000
H971	H97	0.621200	0.565100	0.044700
H981	H98	0.442700	0.846300	0.121000
H991	H99	0.438300	0.759000	0.143200
H1001	H100	0.431000	0.765400	0.091500
H1011	H101	0.133300	0.937200	0.128500
H1021	H102	0.031700	0.880700	0.101500
H1031	H103	0.030400	0.877400	0.153400
H1041	H104	0.067600	0.528400	0.121700
H1051	H105	0.986000	0.558400	0.151500
H1061	H106	0.974300	0.558200	0.099800
H1071	H107	0.322300	0.470300	0.050000
H1081	H108	0.258900	0.588200	0.051500
H1091	H109	0.283000	0.595300	0.184200
H1101	H110	0.346400	0.477400	0.182700
H1111	H111	0.482200	0.082700	0.081200
H1121	H112	0.375700	0.941800	0.069300
H1131	H113	0.270800	0.925200	0.195400
H1141	H114	0.377300	0.066100	0.207400
H1151	H115	0.297300	0.709300	0.233500
H1161	H116	0.190700	0.716100	0.257000
H1171	H117	0.275100	0.797900	0.236300
H1181	H118	0.755600	0.737200	0.357900
H1191	H119	0.790500	0.803800	0.396500
H1201	H120	0.745000	0.705700	0.407100
H1211	H121	0.366200	0.891400	0.811600
H1221	H122	0.272500	0.905700	0.747800
H1231	H123	0.287400	0.678100	0.704600
H1241	H124	0.381100	0.663800	0.768500
H1251	H125	0.961000	0.773700	0.701400
H1261	H126	0.036400	0.730500	0.727100
H1271	H127	0.059000	0.829700	0.730300
H1281	H128	0.138100	0.802900	0.523900
H1291	H129	0.027200	0.739300	0.541400
H1301	H130	0.045400	0.838200	0.541800
H1311	H131	0.429900	0.838000	0.674600
H1321	H132	0.440000	0.800800	0.627600
H1331	H133	0.445000	0.896900	0.632700
H1341	H134	0.497400	0.923100	0.488500
H1351	H135	0.390100	0.667000	0.500900
H1361	H136	0.271500	0.678700	0.557000
H1371	H137	0.378800	0.934900	0.544700
H1381	H138	0.557300	0.653700	0.621000
H1391	H139	0.561700	0.741000	0.643200
H1401	H140	0.569000	0.734600	0.591500
H1411	H141	0.866700	0.562800	0.628500
H1421	H142	0.968300	0.619300	0.601500
H1431	H143	0.969600	0.622600	0.653400
H1441	H144	0.932400	0.971600	0.621700
H1451	H145	0.014000	0.941600	0.651500
H1461	H146	0.025700	0.941800	0.599800
H1471	H147	0.677700	0.029700	0.550000
H1481	H148	0.741100	0.911800	0.551500
H1491	H149	0.717000	0.904700	0.684200
H1501	H150	0.653600	0.022600	0.682700
H1511	H151	0.517800	0.417300	0.581200
H1521	H152	0.624300	0.558200	0.569300
H1531	H153	0.729200	0.574800	0.695400
H1541	H154	0.622700	0.433900	0.707400
H1551	H155	0.702700	0.790700	0.733500
H1561	H156	0.809300	0.783900	0.757000
H1571	H157	0.724900	0.702100	0.736300
H1581	H158	0.244400	0.762800	0.857900
H1591	H159	0.209500	0.696200	0.896500
H1601	H160	0.255000	0.794300	0.907100
C11	C1	0.350400	0.348600	0.709800
C21	C2	0.294300	0.357200	0.748100
C31	C3	0.270700	0.293400	0.780100
C41	C4	0.303200	0.220900	0.773900
C51	C5	0.359300	0.212300	0.735600
C61	C6	0.034800	0.280700	0.788800
C71	C7	0.222300	0.305100	0.824070
C81	C8	0.110200	0.293500	0.828400
C91	C9	0.063900	0.291300	0.870200
C101	C10	0.129700	0.300700	0.907720
C111	C11	0.241800	0.312300	0.903400
C121	C12	0.288100	0.314500	0.861600
C131	C13	0.080500	0.294700	0.954500
C141	C14	0.412100	0.339900	0.856200
C151	C15	0.452200	0.374200	0.997700
C161	C16	0.387800	0.220700	0.990400
C171	C17	0.316800	0.227700	0.956800
C181	C18	0.313400	0.307900	0.943600
C191	C19	0.381100	0.381200	0.964100
C201	C20	0.783200	0.323100	0.879000
C211	C21	0.714500	0.238900	0.877600
C221	C22	0.759500	0.172100	0.875000
C231	C23	0.873200	0.189500	0.873700
C241	C24	0.941900	0.273800	0.875100
C251	C25	0.896800	0.340600	0.877700
C261	C26	0.588900	0.214800	0.880800
C271	C27	0.924200	0.116800	0.872500
C281	C28	0.974400	0.432400	0.876000
C291	C29	0.685600	0.504600	0.923100
C301	C30	0.723600	0.434000	0.922200
C311	C31	0.735300	0.396600	0.882000
C321	C32	0.709100	0.429800	0.842700
C331	C33	0.671100	0.500400	0.843600
C341	C34	0.560200	0.948900	0.895900
C351	C35	0.624000	0.033300	0.903000
C361	C36	0.687300	0.080500	0.868800
C371	C37	0.686800	0.043200	0.827500
C381	C38	0.623000	0.958800	0.820300
C391	C39	0.732700	0.255000	0.748500
C401	C40	0.673000	0.237100	0.706100
C411	C41	0.260800	0.249900	0.612400
C421	C42	0.649600	0.151400	0.209800
C431	C43	0.705700	0.142800	0.248100
C441	C44	0.729300	0.206600	0.280100
C451	C45	0.696800	0.279100	0.273900
C461	C46	0.640700	0.287700	0.235600
C471	C47	0.965200	0.219300	0.288800
C481	C48	0.777700	0.194900	0.324070
C491	C49	0.889800	0.206500	0.328400
C501	C50	0.936100	0.208700	0.370200
C511	C51	0.870300	0.199300	0.407720
C521	C52	0.758200	0.187700	0.403400
C531	C53	0.711900	0.185500	0.361600
C541	C54	0.919500	0.205300	0.454500
C551	C55	0.587900	0.160100	0.356200
C561	C56	0.547800	0.125800	0.497700
C571	C57	0.612200	0.279300	0.490400
C581	C58	0.683200	0.272300	0.456800
C591	C59	0.686600	0.192100	0.443600
C601	C60	0.618900	0.118800	0.464100
C611	C61	0.216800	0.176900	0.379000
C621	C62	0.285500	0.261100	0.377600
C631	C63	0.240500	0.327900	0.375000
C641	C64	0.126800	0.310500	0.373700
C651	C65	0.058100	0.226200	0.375100
C661	C66	0.103200	0.159400	0.377700
C671	C67	0.411100	0.285200	0.380800
C681	C68	0.075800	0.383200	0.372500
C691	C69	0.025600	0.067600	0.376000
C701	C70	0.314400	0.995400	0.423100
C711	C71	0.276400	0.066000	0.422200
C721	C72	0.264700	0.103400	0.382000
C731	C73	0.290900	0.070200	0.342700
C741	C74	0.328900	0.999600	0.343600
C751	C75	0.439800	0.551100	0.395900
C761	C76	0.376000	0.466700	0.403000
C771	C77	0.312700	0.419500	0.368800
C781	C78	0.313200	0.456800	0.327500
C791	C79	0.377000	0.541200	0.320300
C801	C80	0.267300	0.245000	0.248500
C811	C81	0.327000	0.262900	0.206100
C821	C82	0.739200	0.250100	0.112400
C831	C83	0.649600	0.651400	0.290200
C841	C84	0.705700	0.642800	0.251900
C851	C85	0.729300	0.706600	0.219900
C861	C86	0.696800	0.779100	0.226100
C871	C87	0.640700	0.787700	0.264400
C881	C88	0.965200	0.719300	0.211200
C891	C89	0.777700	0.694900	0.175930
C901	C90	0.889800	0.706500	0.171600
C911	C91	0.936100	0.708700	0.129800
C921	C92	0.870300	0.699300	0.092280
C931	C93	0.758200	0.687700	0.096600
C941	C94	0.711900	0.685500	0.138400
C951	C95	0.919500	0.705300	0.045500
C961	C96	0.587900	0.660100	0.143800
C971	C97	0.547800	0.625800	0.002300
C981	C98	0.612200	0.779300	0.009600
C991	C99	0.683200	0.772300	0.043200
C1001	C100	0.686600	0.692100	0.056400
C1011	C101	0.618900	0.618800	0.035900
C1021	C102	0.216800	0.676900	0.121000
C1031	C103	0.285500	0.761100	0.122400
C1041	C104	0.240500	0.827900	0.125000
C1051	C105	0.126800	0.810500	0.126300
C1061	C106	0.058100	0.726200	0.124900
C1071	C107	0.103200	0.659400	0.122300
C1081	C108	0.411100	0.785200	0.119200
C1091	C109	0.075800	0.883200	0.127500
C1101	C110	0.025600	0.567600	0.124000
C1111	C111	0.314400	0.495400	0.076900
C1121	C112	0.276400	0.566000	0.077800
C1131	C113	0.264700	0.603400	0.118000
C1141	C114	0.290900	0.570200	0.157300
C1151	C115	0.328900	0.499600	0.156400
C1161	C116	0.439800	0.051100	0.104100
C1171	C117	0.376000	0.966700	0.097000
C1181	C118	0.312700	0.919500	0.131200
C1191	C119	0.313200	0.956800	0.172500
C1201	C120	0.377000	0.041200	0.179700
C1211	C121	0.267300	0.745000	0.251500
C1221	C122	0.327000	0.762900	0.293900
C1231	C123	0.739200	0.750100	0.387600
C1241	C124	0.350400	0.848600	0.790200
C1251	C125	0.294300	0.857200	0.751900
C1261	C126	0.270700	0.793400	0.719900
C1271	C127	0.303200	0.720900	0.726100
C1281	C128	0.359300	0.712300	0.764400
C1291	C129	0.034800	0.780700	0.711200
C1301	C130	0.222300	0.805100	0.675930
C1311	C131	0.110200	0.793500	0.671600
C1321	C132	0.063900	0.791300	0.629800
C1331	C133	0.129700	0.800700	0.592280
C1341	C134	0.241800	0.812300	0.596600
C1351	C135	0.288100	0.814500	0.638400
C1361	C136	0.080500	0.794700	0.545500
C1371	C137	0.412100	0.839900	0.643800
C1381	C138	0.452200	0.874200	0.502300
C1391	C139	0.387800	0.720700	0.509600
C1401	C140	0.316800	0.727700	0.543200
C1411	C141	0.313400	0.807900	0.556400
C1421	C142	0.381100	0.881200	0.535900
C1431	C143	0.783200	0.823100	0.621000
C1441	C144	0.714500	0.738900	0.622400
C1451	C145	0.759500	0.672100	0.625000
C1461	C146	0.873200	0.689500	0.626300
C1471	C147	0.941900	0.773800	0.624900
C1481	C148	0.896800	0.840600	0.622300
C1491	C149	0.588900	0.714800	0.619200
C1501	C150	0.924200	0.616800	0.627500
C1511	C151	0.974400	0.932400	0.624000
C1521	C152	0.685600	0.004600	0.576900
C1531	C153	0.723600	0.934000	0.577800
C1541	C154	0.735300	0.896600	0.618000
C1551	C155	0.709100	0.929800	0.657300
C1561	C156	0.671100	0.000400	0.656400
C1571	C157	0.560200	0.448900	0.604100
C1581	C158	0.624000	0.533300	0.597000
C1591	C159	0.687300	0.580500	0.631200
C1601	C160	0.686800	0.543200	0.672500
C1611	C161	0.623000	0.458800	0.679700
C1621	C162	0.732700	0.755000	0.751500
C1631	C163	0.673000	0.737100	0.793900
C1641	C164	0.260800	0.749900	0.887600
N11	N1	0.383000	0.276200	0.703600
N21	N2	0.455500	0.293900	0.010900
N31	N3	0.659400	0.537800	0.883800
N41	N4	0.559700	0.911700	0.854500
N51	N5	0.617000	0.223800	0.203600
N61	N6	0.544500	0.206100	0.510900
N71	N7	0.340600	0.962200	0.383800
N81	N8	0.440300	0.588300	0.354500
N91	N9	0.617000	0.723800	0.296400
N101	N10	0.544500	0.706100	0.989100
N111	N11	0.340600	0.462200	0.116200
N121	N12	0.440300	0.088300	0.145500
N131	N13	0.383000	0.776200	0.796400
N141	N14	0.455500	0.793900	0.489100
N151	N15	0.659400	0.037800	0.616200
N161	N16	0.559700	0.411700	0.645500
O11	O1	0.596500	0.269700	0.701600
O21	O2	0.699000	0.192200	0.678800
O31	O3	0.373100	0.244200	0.610700
O41	O4	0.565200	0.243400	0.604300
O51	O5	0.403500	0.230300	0.201600
O61	O6	0.301000	0.307800	0.178800
O71	O7	0.626900	0.255800	0.110700
O81	O8	0.434800	0.256600	0.104300
O91	O9	0.403500	0.730300	0.298400
O101	O10	0.301000	0.807800	0.321200
O111	O11	0.626900	0.755800	0.389300
O121	O12	0.434800	0.756600	0.395700
O131	O13	0.596500	0.769700	0.798400
O141	O14	0.699000	0.692200	0.821200
O151	O15	0.373100	0.744200	0.889300
O161	O16	0.565200	0.743400	0.895700
