data_QESLIK_clean_PM
_symmetry_space_group_name_H-M	'P1'
_cell_length_a	5.653000
_cell_length_b	6.627000
_cell_length_c	9.391000
_cell_angle_alpha	70.788000
_cell_angle_beta	75.836000
_cell_angle_gamma	89.680000
_symmetry_Int_Tables_number 1

loop_
_symmetry_equiv_pos_as_xyz
'x,y,z'

loop_
_atom_site_label
_atom_site_type_symbol
_atom_site_fract_x
_atom_site_fract_y
_atom_site_fract_z
In11	In1	0.286400	0.331700	0.839400
P11	P1	0.306000	0.790200	0.924000
O11	O1	0.277000	0.654000	0.824600
O21	O2	0.447800	0.240200	0.030500
O31	O3	0.907000	0.255000	0.931300
O41	O4	0.684000	0.974900	0.189900
O51	O5	0.189100	0.441900	0.604500
O61	O6	0.639900	0.426000	0.655000
C11	C1	0.372000	0.506000	0.487400
In21	In2	0.713600	0.668300	0.160600
P21	P2	0.694000	0.209800	0.076000
O71	O7	0.723000	0.346000	0.175400
O81	O8	0.552200	0.759800	0.969500
O91	O9	0.093000	0.745000	0.068700
O101	O10	0.316000	0.025100	0.810100
O111	O11	0.810900	0.558100	0.395500
O121	O12	0.360100	0.574000	0.345000
C21	C2	0.628000	0.494000	0.512600
