data_QESYOD_clean_PM
_symmetry_space_group_name_H-M	'P1'
_cell_length_a	16.378400
_cell_length_b	16.378400
_cell_length_c	16.378400
_cell_angle_alpha	105.439000
_cell_angle_beta	105.439000
_cell_angle_gamma	105.439000
_symmetry_Int_Tables_number 1

loop_
_symmetry_equiv_pos_as_xyz
'x,y,z'

loop_
_atom_site_label
_atom_site_type_symbol
_atom_site_fract_x
_atom_site_fract_y
_atom_site_fract_z
Cu11	Cu1	0.569120	0.250540	0.932960
Cu21	Cu2	0.749470	0.430870	0.067070
Cu31	Cu3	0.932960	0.569120	0.250540
Cu41	Cu4	0.067070	0.749470	0.430870
Cu51	Cu5	0.250540	0.932960	0.569120
Cu61	Cu6	0.430870	0.067070	0.749470
Cu71	Cu7	0.430880	0.749460	0.067040
Cu81	Cu8	0.250530	0.569130	0.932930
Cu91	Cu9	0.067040	0.430880	0.749460
Cu101	Cu10	0.932930	0.250530	0.569130
Cu111	Cu11	0.749460	0.067040	0.430880
Cu121	Cu12	0.569130	0.932930	0.250530
H11	H1	0.472400	0.907000	0.750600
H21	H2	0.383200	0.866100	0.766100
H31	H3	0.616800	0.233100	0.133900
H41	H4	0.528100	0.249600	0.093300
H51	H5	0.604000	0.800000	0.860100
H61	H6	0.611600	0.901500	0.899500
H71	H7	0.603700	0.859900	0.799300
H81	H8	0.454800	0.742600	0.682400
H91	H9	0.371200	0.711000	0.710900
H101	H10	0.454000	0.681900	0.741800
H111	H11	0.393100	0.288900	0.018000
H121	H12	0.399900	0.242700	0.925400
H131	H13	0.757400	0.600300	0.074600
H141	H14	0.710600	0.607200	0.982200
H151	H15	0.298500	0.234700	0.785500
H161	H16	0.332600	0.340200	0.811500
H171	H17	0.229100	0.284700	0.780300
H181	H18	0.233500	0.234400	0.977700
H191	H19	0.227200	0.166500	0.886900
H201	H20	0.166200	0.225300	0.885200
H211	H21	0.750600	0.472400	0.907000
H221	H22	0.766100	0.383200	0.866100
H231	H23	0.133900	0.616800	0.233100
H241	H24	0.093300	0.528100	0.249600
H251	H25	0.860100	0.604000	0.800000
H261	H26	0.899500	0.611600	0.901500
H271	H27	0.799300	0.603700	0.859900
H281	H28	0.682400	0.454800	0.742600
H291	H29	0.710900	0.371200	0.711000
H301	H30	0.741800	0.454000	0.681900
H311	H31	0.018000	0.393100	0.288900
H321	H32	0.925400	0.399900	0.242700
H331	H33	0.074600	0.757400	0.600300
H341	H34	0.982200	0.710600	0.607200
H351	H35	0.785500	0.298500	0.234700
H361	H36	0.811500	0.332600	0.340200
H371	H37	0.780300	0.229100	0.284700
H381	H38	0.977700	0.233500	0.234400
H391	H39	0.886900	0.227200	0.166500
H401	H40	0.885200	0.166200	0.225300
H411	H41	0.907000	0.750600	0.472400
H421	H42	0.866100	0.766100	0.383200
H431	H43	0.233100	0.133900	0.616800
H441	H44	0.249600	0.093300	0.528100
H451	H45	0.800000	0.860100	0.604000
H461	H46	0.901500	0.899500	0.611600
H471	H47	0.859900	0.799300	0.603700
H481	H48	0.742600	0.682400	0.454800
H491	H49	0.711000	0.710900	0.371200
H501	H50	0.681900	0.741800	0.454000
H511	H51	0.288900	0.018000	0.393100
H521	H52	0.242700	0.925400	0.399900
H531	H53	0.600300	0.074600	0.757400
H541	H54	0.607200	0.982200	0.710600
H551	H55	0.234700	0.785500	0.298500
H561	H56	0.340200	0.811500	0.332600
H571	H57	0.284700	0.780300	0.229100
H581	H58	0.234400	0.977700	0.233500
H591	H59	0.166500	0.886900	0.227200
H601	H60	0.225300	0.885200	0.166200
H611	H61	0.527600	0.093000	0.249400
H621	H62	0.616800	0.133900	0.233900
H631	H63	0.383200	0.766900	0.866100
H641	H64	0.471900	0.750400	0.906700
H651	H65	0.396000	0.200000	0.139900
H661	H66	0.388400	0.098500	0.100500
H671	H67	0.396300	0.140100	0.200700
H681	H68	0.545200	0.257400	0.317600
H691	H69	0.628800	0.289000	0.289100
H701	H70	0.546000	0.318100	0.258200
H711	H71	0.606900	0.711100	0.982000
H721	H72	0.600100	0.757300	0.074600
H731	H73	0.242600	0.399700	0.925400
H741	H74	0.289400	0.392800	0.017800
H751	H75	0.701500	0.765300	0.214500
H761	H76	0.667400	0.659800	0.188500
H771	H77	0.770900	0.715300	0.219700
H781	H78	0.766500	0.765600	0.022300
H791	H79	0.772800	0.833500	0.113100
H801	H80	0.833800	0.774700	0.114800
H811	H81	0.249400	0.527600	0.093000
H821	H82	0.233900	0.616800	0.133900
H831	H83	0.866100	0.383200	0.766900
H841	H84	0.906700	0.471900	0.750400
H851	H85	0.139900	0.396000	0.200000
H861	H86	0.100500	0.388400	0.098500
H871	H87	0.200700	0.396300	0.140100
H881	H88	0.317600	0.545200	0.257400
H891	H89	0.289100	0.628800	0.289000
H901	H90	0.258200	0.546000	0.318100
H911	H91	0.982000	0.606900	0.711100
H921	H92	0.074600	0.600100	0.757300
H931	H93	0.925400	0.242600	0.399700
H941	H94	0.017800	0.289400	0.392800
H951	H95	0.214500	0.701500	0.765300
H961	H96	0.188500	0.667400	0.659800
H971	H97	0.219700	0.770900	0.715300
H981	H98	0.022300	0.766500	0.765600
H991	H99	0.113100	0.772800	0.833500
H1001	H100	0.114800	0.833800	0.774700
H1011	H101	0.093000	0.249400	0.527600
H1021	H102	0.133900	0.233900	0.616800
H1031	H103	0.766900	0.866100	0.383200
H1041	H104	0.750400	0.906700	0.471900
H1051	H105	0.200000	0.139900	0.396000
H1061	H106	0.098500	0.100500	0.388400
H1071	H107	0.140100	0.200700	0.396300
H1081	H108	0.257400	0.317600	0.545200
H1091	H109	0.289000	0.289100	0.628800
H1101	H110	0.318100	0.258200	0.546000
H1111	H111	0.711100	0.982000	0.606900
H1121	H112	0.757300	0.074600	0.600100
H1131	H113	0.399700	0.925400	0.242600
H1141	H114	0.392800	0.017800	0.289400
H1151	H115	0.765300	0.214500	0.701500
H1161	H116	0.659800	0.188500	0.667400
H1171	H117	0.715300	0.219700	0.770900
H1181	H118	0.765600	0.022300	0.766500
H1191	H119	0.833500	0.113100	0.772800
H1201	H120	0.774700	0.114800	0.833800
C11	C1	0.523450	0.123090	0.027570
C21	C2	0.511900	0.038160	0.038190
C31	C3	0.476670	0.972910	0.877190
C41	C4	0.448360	0.890000	0.793650
C51	C5	0.480970	0.815740	0.815890
C61	C6	0.551590	0.206080	0.109970
C71	C7	0.584580	0.846800	0.846520
C81	C8	0.436240	0.730040	0.730020
C91	C9	0.622610	0.527040	0.019040
C101	C10	0.537930	0.537660	0.008890
C111	C11	0.473110	0.377330	0.981200
C121	C12	0.393330	0.295610	0.961500
C131	C13	0.300420	0.300860	0.912000
C141	C14	0.704410	0.606930	0.038820
C151	C15	0.288980	0.289020	0.813600
C161	C16	0.224940	0.224860	0.915100
C171	C17	0.027570	0.523450	0.123090
C181	C18	0.038190	0.511900	0.038160
C191	C19	0.877190	0.476670	0.972910
C201	C20	0.793650	0.448360	0.890000
C211	C21	0.815890	0.480970	0.815740
C221	C22	0.109970	0.551590	0.206080
C231	C23	0.846520	0.584580	0.846800
C241	C24	0.730020	0.436240	0.730040
C251	C25	0.019040	0.622610	0.527040
C261	C26	0.008890	0.537930	0.537660
C271	C27	0.981200	0.473110	0.377330
C281	C28	0.961500	0.393330	0.295610
C291	C29	0.912000	0.300420	0.300860
C301	C30	0.038820	0.704410	0.606930
C311	C31	0.813600	0.288980	0.289020
C321	C32	0.915100	0.224940	0.224860
C331	C33	0.123090	0.027570	0.523450
C341	C34	0.038160	0.038190	0.511900
C351	C35	0.972910	0.877190	0.476670
C361	C36	0.890000	0.793650	0.448360
C371	C37	0.815740	0.815890	0.480970
C381	C38	0.206080	0.109970	0.551590
C391	C39	0.846800	0.846520	0.584580
C401	C40	0.730040	0.730020	0.436240
C411	C41	0.527040	0.019040	0.622610
C421	C42	0.537660	0.008890	0.537930
C431	C43	0.377330	0.981200	0.473110
C441	C44	0.295610	0.961500	0.393330
C451	C45	0.300860	0.912000	0.300420
C461	C46	0.606930	0.038820	0.704410
C471	C47	0.289020	0.813600	0.288980
C481	C48	0.224860	0.915100	0.224940
C491	C49	0.476550	0.876910	0.972430
C501	C50	0.488100	0.961840	0.961810
C511	C51	0.523330	0.027090	0.122810
C521	C52	0.551640	0.110000	0.206350
C531	C53	0.519030	0.184260	0.184110
C541	C54	0.448410	0.793920	0.890030
C551	C55	0.415420	0.153200	0.153480
C561	C56	0.563760	0.269960	0.269980
C571	C57	0.377390	0.472960	0.980960
C581	C58	0.462070	0.462340	0.991110
C591	C59	0.526890	0.622670	0.018800
C601	C60	0.606670	0.704390	0.038500
C611	C61	0.699580	0.699140	0.088000
C621	C62	0.295590	0.393070	0.961180
C631	C63	0.711020	0.710980	0.186400
C641	C64	0.775060	0.775140	0.084900
C651	C65	0.972430	0.476550	0.876910
C661	C66	0.961810	0.488100	0.961840
C671	C67	0.122810	0.523330	0.027090
C681	C68	0.206350	0.551640	0.110000
C691	C69	0.184110	0.519030	0.184260
C701	C70	0.890030	0.448410	0.793920
C711	C71	0.153480	0.415420	0.153200
C721	C72	0.269980	0.563760	0.269960
C731	C73	0.980960	0.377390	0.472960
C741	C74	0.991110	0.462070	0.462340
C751	C75	0.018800	0.526890	0.622670
C761	C76	0.038500	0.606670	0.704390
C771	C77	0.088000	0.699580	0.699140
C781	C78	0.961180	0.295590	0.393070
C791	C79	0.186400	0.711020	0.710980
C801	C80	0.084900	0.775060	0.775140
C811	C81	0.876910	0.972430	0.476550
C821	C82	0.961840	0.961810	0.488100
C831	C83	0.027090	0.122810	0.523330
C841	C84	0.110000	0.206350	0.551640
C851	C85	0.184260	0.184110	0.519030
C861	C86	0.793920	0.890030	0.448410
C871	C87	0.153200	0.153480	0.415420
C881	C88	0.269960	0.269980	0.563760
C891	C89	0.472960	0.980960	0.377390
C901	C90	0.462340	0.991110	0.462070
C911	C91	0.622670	0.018800	0.526890
C921	C92	0.704390	0.038500	0.606670
C931	C93	0.699140	0.088000	0.699580
C941	C94	0.393070	0.961180	0.295590
C951	C95	0.710980	0.186400	0.711020
C961	C96	0.775140	0.084900	0.775060
I11	I1	0.738610	0.261390	0.999990
I21	I2	0.500010	0.238070	0.761970
I31	I3	0.999990	0.738610	0.261390
I41	I4	0.761970	0.500010	0.238070
I51	I5	0.261390	0.999990	0.738610
I61	I6	0.238070	0.761970	0.500010
I71	I7	0.261390	0.738610	0.000010
I81	I8	0.499990	0.761930	0.238030
I91	I9	0.000010	0.261390	0.738610
I101	I10	0.238030	0.499990	0.761930
I111	I11	0.738610	0.000010	0.261390
I121	I12	0.761930	0.238030	0.499990
N11	N1	0.512670	0.129700	0.946780
N21	N2	0.487620	0.053590	0.870610
N31	N3	0.629390	0.447010	0.011800
N41	N4	0.553020	0.370640	0.988050
N51	N5	0.946780	0.512670	0.129700
N61	N6	0.870610	0.487620	0.053590
N71	N7	0.011800	0.629390	0.447010
N81	N8	0.988050	0.553020	0.370640
N91	N9	0.129700	0.946780	0.512670
N101	N10	0.053590	0.870610	0.487620
N111	N11	0.447010	0.011800	0.629390
N121	N12	0.370640	0.988050	0.553020
N131	N13	0.487330	0.870300	0.053220
N141	N14	0.512380	0.946410	0.129390
N151	N15	0.370610	0.552990	0.988200
N161	N16	0.446980	0.629360	0.011950
N171	N17	0.053220	0.487330	0.870300
N181	N18	0.129390	0.512380	0.946410
N191	N19	0.988200	0.370610	0.552990
N201	N20	0.011950	0.446980	0.629360
N211	N21	0.870300	0.053220	0.487330
N221	N22	0.946410	0.129390	0.512380
N231	N23	0.552990	0.988200	0.370610
N241	N24	0.629360	0.011950	0.446980
