data_QEZYUR_clean_PM
_symmetry_space_group_name_H-M	'P1'
_cell_length_a	14.355100
_cell_length_b	14.355100
_cell_length_c	10.113200
_cell_angle_alpha	90.000000
_cell_angle_beta	90.000000
_cell_angle_gamma	120.000000
_symmetry_Int_Tables_number 1

loop_
_symmetry_equiv_pos_as_xyz
'x,y,z'

loop_
_atom_site_label
_atom_site_type_symbol
_atom_site_fract_x
_atom_site_fract_y
_atom_site_fract_z
Sm11	Sm1	0.856620	0.440230	0.903610
S11	S1	0.806650	0.663460	0.941500
S21	S2	0.994510	0.519230	0.154210
O11	O1	0.831400	0.705800	0.807600
O21	O2	0.854000	0.595500	0.971700
O31	O3	0.848300	0.752700	0.038600
O41	O4	0.689000	0.597900	0.959500
O51	O5	0.030800	0.548300	0.015100
O61	O6	0.876780	0.450600	0.149800
O71	O7	0.028400	0.616900	0.236400
O81	O8	0.047400	0.463800	0.216300
O91	O9	0.722300	0.444100	0.749700
Sm21	Sm2	0.559770	0.416380	0.903610
S31	S3	0.336540	0.143190	0.941500
S41	S4	0.480770	0.475280	0.154210
O101	O10	0.294200	0.125600	0.807600
O111	O11	0.404500	0.258500	0.971700
O121	O12	0.247300	0.095600	0.038600
O131	O13	0.402100	0.091100	0.959500
O141	O14	0.451700	0.482500	0.015100
O151	O15	0.549400	0.426180	0.149800
O161	O16	0.383100	0.411500	0.236400
O171	O17	0.536200	0.583600	0.216300
O181	O18	0.555900	0.278200	0.749700
Sm31	Sm3	0.583620	0.143380	0.903610
S51	S5	0.856810	0.193350	0.941500
S61	S6	0.524720	0.005490	0.154210
O191	O19	0.874400	0.168600	0.807600
O201	O20	0.741500	0.146000	0.971700
O211	O21	0.904400	0.151700	0.038600
O221	O22	0.908900	0.311000	0.959500
O231	O23	0.517500	0.969200	0.015100
O241	O24	0.573820	0.123220	0.149800
O251	O25	0.588500	0.971600	0.236400
O261	O26	0.416400	0.952600	0.216300
O271	O27	0.721800	0.277700	0.749700
Sm41	Sm4	0.440230	0.856620	0.403610
S71	S7	0.663460	0.806650	0.441500
S81	S8	0.519230	0.994510	0.654210
O281	O28	0.705800	0.831400	0.307600
O291	O29	0.595500	0.854000	0.471700
O301	O30	0.752700	0.848300	0.538600
O311	O31	0.597900	0.689000	0.459500
O321	O32	0.548300	0.030800	0.515100
O331	O33	0.450600	0.876780	0.649800
O341	O34	0.616900	0.028400	0.736400
O351	O35	0.463800	0.047400	0.716300
O361	O36	0.444100	0.722300	0.249700
Sm51	Sm5	0.416380	0.559770	0.403610
S91	S9	0.143190	0.336540	0.441500
S101	S10	0.475280	0.480770	0.654210
O371	O37	0.125600	0.294200	0.307600
O381	O38	0.258500	0.404500	0.471700
O391	O39	0.095600	0.247300	0.538600
O401	O40	0.091100	0.402100	0.459500
O411	O41	0.482500	0.451700	0.515100
O421	O42	0.426180	0.549400	0.649800
O431	O43	0.411500	0.383100	0.736400
O441	O44	0.583600	0.536200	0.716300
O451	O45	0.278200	0.555900	0.249700
Sm61	Sm6	0.143380	0.583620	0.403610
S111	S11	0.193350	0.856810	0.441500
S121	S12	0.005490	0.524720	0.654210
O461	O46	0.168600	0.874400	0.307600
O471	O47	0.146000	0.741500	0.471700
O481	O48	0.151700	0.904400	0.538600
O491	O49	0.311000	0.908900	0.459500
O501	O50	0.969200	0.517500	0.515100
O511	O51	0.123220	0.573820	0.649800
O521	O52	0.971600	0.588500	0.736400
O531	O53	0.952600	0.416400	0.716300
O541	O54	0.277700	0.721800	0.249700
S131	S13	0.666670	0.333330	0.691640
O551	O55	0.666670	0.333330	0.549800
O561	O56	0.666670	0.333330	0.990200
S141	S14	0.333330	0.666670	0.191640
O571	O57	0.333330	0.666670	0.049800
O581	O58	0.333330	0.666670	0.490200
