data_QIBTEA_charged_PM
_symmetry_space_group_name_H-M	'P1'
_cell_length_a	15.814000
_cell_length_b	21.958000
_cell_length_c	48.422000
_cell_angle_alpha	90.000000
_cell_angle_beta	90.000000
_cell_angle_gamma	90.000000
_symmetry_Int_Tables_number 1

loop_
_symmetry_equiv_pos_as_xyz
'x,y,z'

loop_
_atom_site_label
_atom_site_type_symbol
_atom_site_fract_x
_atom_site_fract_y
_atom_site_fract_z
La11	La1	0.110640	0.750550	0.865810
La21	La2	0.610640	0.749450	0.634190
La31	La3	0.389360	0.750550	0.134190
La41	La4	0.889360	0.749450	0.365810
La51	La5	0.889360	0.249450	0.134190
La61	La6	0.389360	0.250550	0.365810
La71	La7	0.610640	0.249450	0.865810
La81	La8	0.110640	0.250550	0.634190
B11	B1	0.974100	0.824100	0.901400
B21	B2	0.474100	0.675900	0.598600
B31	B3	0.525900	0.824100	0.098600
B41	B4	0.025900	0.675900	0.401400
B51	B5	0.025900	0.175900	0.098600
B61	B6	0.525900	0.324100	0.401400
B71	B7	0.474100	0.175900	0.901400
B81	B8	0.974100	0.324100	0.598600
H11	H1	0.000800	0.743000	0.946000
H21	H2	0.007000	0.684900	0.927300
H31	H3	0.924200	0.724200	0.927300
H41	H4	0.970300	0.919500	0.870000
H51	H5	0.047000	0.907600	0.850200
H61	H6	0.063100	0.928600	0.880700
H71	H7	0.247000	0.847200	0.868200
H81	H8	0.275900	0.887500	0.826500
H91	H9	0.204500	0.922400	0.842500
H101	H10	0.180600	0.874600	0.819700
H111	H11	0.308000	0.829800	0.930200
H121	H12	0.320700	0.828800	0.977400
H131	H13	0.171500	0.682600	0.980600
H141	H14	0.161100	0.685300	0.933300
H151	H15	0.089500	0.535300	0.889000
H161	H16	0.180700	0.455300	0.882900
H171	H17	0.371600	0.572900	0.875600
H181	H18	0.277700	0.651500	0.882100
H191	H19	0.512200	0.415900	0.837100
H201	H20	0.428600	0.497900	0.848500
H211	H21	0.283200	0.387400	0.893800
H221	H22	0.367300	0.307000	0.880900
H231	H23	0.992400	0.884400	0.804300
H241	H24	0.888700	0.887400	0.771200
H251	H25	0.914400	0.708500	0.761100
H261	H26	0.011400	0.707400	0.796300
H271	H27	0.808800	0.734600	0.677300
H281	H28	0.892300	0.731200	0.716000
H291	H29	0.761900	0.870900	0.747200
H301	H30	0.684200	0.875100	0.707200
H311	H31	0.821600	0.805300	0.928800
H321	H32	0.689200	0.780400	0.913300
H331	H33	0.660000	0.774400	0.866500
H341	H34	0.768800	0.793600	0.835300
H351	H35	0.901000	0.818800	0.851000
H361	H36	0.881000	0.916300	0.928800
H371	H37	0.921800	0.993300	0.958300
H381	H38	0.059900	0.996100	0.974700
H391	H39	0.155700	0.922600	0.960300
H401	H40	0.112900	0.846400	0.931000
H411	H41	0.500800	0.757000	0.554000
H421	H42	0.507000	0.815100	0.572700
H431	H43	0.424200	0.775800	0.572700
H441	H44	0.470300	0.580500	0.630000
H451	H45	0.547000	0.592400	0.649800
H461	H46	0.563100	0.571400	0.619300
H471	H47	0.747000	0.652800	0.631800
H481	H48	0.775900	0.612500	0.673500
H491	H49	0.704500	0.577600	0.657500
H501	H50	0.680600	0.625400	0.680300
H511	H51	0.808000	0.670200	0.569800
H521	H52	0.820700	0.671200	0.522600
H531	H53	0.671500	0.817400	0.519400
H541	H54	0.661100	0.814700	0.566700
H551	H55	0.589500	0.964700	0.611000
H561	H56	0.680700	0.044700	0.617100
H571	H57	0.871600	0.927100	0.624400
H581	H58	0.777700	0.848500	0.617900
H591	H59	0.012200	0.084100	0.662900
H601	H60	0.928600	0.002100	0.651500
H611	H61	0.783200	0.112600	0.606200
H621	H62	0.867300	0.193000	0.619100
H631	H63	0.492400	0.615600	0.695700
H641	H64	0.388700	0.612600	0.728800
H651	H65	0.414400	0.791500	0.738900
H661	H66	0.511400	0.792600	0.703700
H671	H67	0.308800	0.765400	0.822700
H681	H68	0.392300	0.768800	0.784000
H691	H69	0.261900	0.629100	0.752800
H701	H70	0.184200	0.624900	0.792800
H711	H71	0.321600	0.694700	0.571200
H721	H72	0.189200	0.719600	0.586700
H731	H73	0.160000	0.725600	0.633500
H741	H74	0.268800	0.706400	0.664700
H751	H75	0.401000	0.681200	0.649000
H761	H76	0.381000	0.583700	0.571200
H771	H77	0.421800	0.506700	0.541700
H781	H78	0.559900	0.503900	0.525300
H791	H79	0.655700	0.577400	0.539700
H801	H80	0.612900	0.653600	0.569000
H811	H81	0.499200	0.743000	0.054000
H821	H82	0.493000	0.684900	0.072700
H831	H83	0.575800	0.724200	0.072700
H841	H84	0.529700	0.919500	0.130000
H851	H85	0.453000	0.907600	0.149800
H861	H86	0.436900	0.928600	0.119300
H871	H87	0.253000	0.847200	0.131800
H881	H88	0.224100	0.887500	0.173500
H891	H89	0.295500	0.922400	0.157500
H901	H90	0.319400	0.874600	0.180300
H911	H91	0.192000	0.829800	0.069800
H921	H92	0.179300	0.828800	0.022600
H931	H93	0.328500	0.682600	0.019400
H941	H94	0.338900	0.685300	0.066700
H951	H95	0.410500	0.535300	0.111000
H961	H96	0.319300	0.455300	0.117100
H971	H97	0.128400	0.572900	0.124400
H981	H98	0.222300	0.651500	0.117900
H991	H99	0.987800	0.415900	0.162900
H1001	H100	0.071400	0.497900	0.151500
H1011	H101	0.216800	0.387400	0.106200
H1021	H102	0.132700	0.307000	0.119100
H1031	H103	0.507600	0.884400	0.195700
H1041	H104	0.611300	0.887400	0.228800
H1051	H105	0.585600	0.708500	0.238900
H1061	H106	0.488600	0.707400	0.203700
H1071	H107	0.691200	0.734600	0.322700
H1081	H108	0.607700	0.731200	0.284000
H1091	H109	0.738100	0.870900	0.252800
H1101	H110	0.815800	0.875100	0.292800
H1111	H111	0.678400	0.805300	0.071200
H1121	H112	0.810800	0.780400	0.086700
H1131	H113	0.840000	0.774400	0.133500
H1141	H114	0.731200	0.793600	0.164700
H1151	H115	0.599000	0.818800	0.149000
H1161	H116	0.619000	0.916300	0.071200
H1171	H117	0.578200	0.993300	0.041700
H1181	H118	0.440100	0.996100	0.025300
H1191	H119	0.344300	0.922600	0.039700
H1201	H120	0.387100	0.846400	0.069000
H1211	H121	0.999200	0.757000	0.446000
H1221	H122	0.993000	0.815100	0.427300
H1231	H123	0.075800	0.775800	0.427300
H1241	H124	0.029700	0.580500	0.370000
H1251	H125	0.953000	0.592400	0.350200
H1261	H126	0.936900	0.571400	0.380700
H1271	H127	0.753000	0.652800	0.368200
H1281	H128	0.724100	0.612500	0.326500
H1291	H129	0.795500	0.577600	0.342500
H1301	H130	0.819400	0.625400	0.319700
H1311	H131	0.692000	0.670200	0.430200
H1321	H132	0.679300	0.671200	0.477400
H1331	H133	0.828500	0.817400	0.480600
H1341	H134	0.838900	0.814700	0.433300
H1351	H135	0.910500	0.964700	0.389000
H1361	H136	0.819300	0.044700	0.382900
H1371	H137	0.628400	0.927100	0.375600
H1381	H138	0.722300	0.848500	0.382100
H1391	H139	0.487800	0.084100	0.337100
H1401	H140	0.571400	0.002100	0.348500
H1411	H141	0.716800	0.112600	0.393800
H1421	H142	0.632700	0.193000	0.380900
H1431	H143	0.007600	0.615600	0.304300
H1441	H144	0.111300	0.612600	0.271200
H1451	H145	0.085600	0.791500	0.261100
H1461	H146	0.988600	0.792600	0.296300
H1471	H147	0.191200	0.765400	0.177300
H1481	H148	0.107700	0.768800	0.216000
H1491	H149	0.238100	0.629100	0.247200
H1501	H150	0.315800	0.624900	0.207200
H1511	H151	0.178400	0.694700	0.428800
H1521	H152	0.310800	0.719600	0.413300
H1531	H153	0.340000	0.725600	0.366500
H1541	H154	0.231200	0.706400	0.335300
H1551	H155	0.099000	0.681200	0.351000
H1561	H156	0.119000	0.583700	0.428800
H1571	H157	0.078200	0.506700	0.458300
H1581	H158	0.940100	0.503900	0.474700
H1591	H159	0.844300	0.577400	0.460300
H1601	H160	0.887100	0.653600	0.431000
H1611	H161	0.999200	0.257000	0.054000
H1621	H162	0.993000	0.315100	0.072700
H1631	H163	0.075800	0.275800	0.072700
H1641	H164	0.029700	0.080500	0.130000
H1651	H165	0.953000	0.092400	0.149800
H1661	H166	0.936900	0.071400	0.119300
H1671	H167	0.753000	0.152800	0.131800
H1681	H168	0.724100	0.112500	0.173500
H1691	H169	0.795500	0.077600	0.157500
H1701	H170	0.819400	0.125400	0.180300
H1711	H171	0.692000	0.170200	0.069800
H1721	H172	0.679300	0.171200	0.022600
H1731	H173	0.828500	0.317400	0.019400
H1741	H174	0.838900	0.314700	0.066700
H1751	H175	0.910500	0.464700	0.111000
H1761	H176	0.819300	0.544700	0.117100
H1771	H177	0.628400	0.427100	0.124400
H1781	H178	0.722300	0.348500	0.117900
H1791	H179	0.487800	0.584100	0.162900
H1801	H180	0.571400	0.502100	0.151500
H1811	H181	0.716800	0.612600	0.106200
H1821	H182	0.632700	0.693000	0.119100
H1831	H183	0.007600	0.115600	0.195700
H1841	H184	0.111300	0.112600	0.228800
H1851	H185	0.085600	0.291500	0.238900
H1861	H186	0.988600	0.292600	0.203700
H1871	H187	0.191200	0.265400	0.322700
H1881	H188	0.107700	0.268800	0.284000
H1891	H189	0.238100	0.129100	0.252800
H1901	H190	0.315800	0.124900	0.292800
H1911	H191	0.178400	0.194700	0.071200
H1921	H192	0.310800	0.219600	0.086700
H1931	H193	0.340000	0.225600	0.133500
H1941	H194	0.231200	0.206400	0.164700
H1951	H195	0.099000	0.181200	0.149000
H1961	H196	0.119000	0.083700	0.071200
H1971	H197	0.078200	0.006700	0.041700
H1981	H198	0.940100	0.003900	0.025300
H1991	H199	0.844300	0.077400	0.039700
H2001	H200	0.887100	0.153600	0.069000
H2011	H201	0.499200	0.243000	0.446000
H2021	H202	0.493000	0.184900	0.427300
H2031	H203	0.575800	0.224200	0.427300
H2041	H204	0.529700	0.419500	0.370000
H2051	H205	0.453000	0.407600	0.350200
H2061	H206	0.436900	0.428600	0.380700
H2071	H207	0.253000	0.347200	0.368200
H2081	H208	0.224100	0.387500	0.326500
H2091	H209	0.295500	0.422400	0.342500
H2101	H210	0.319400	0.374600	0.319700
H2111	H211	0.192000	0.329800	0.430200
H2121	H212	0.179300	0.328800	0.477400
H2131	H213	0.328500	0.182600	0.480600
H2141	H214	0.338900	0.185300	0.433300
H2151	H215	0.410500	0.035300	0.389000
H2161	H216	0.319300	0.955300	0.382900
H2171	H217	0.128400	0.072900	0.375600
H2181	H218	0.222300	0.151500	0.382100
H2191	H219	0.987800	0.915900	0.337100
H2201	H220	0.071400	0.997900	0.348500
H2211	H221	0.216800	0.887400	0.393800
H2221	H222	0.132700	0.807000	0.380900
H2231	H223	0.507600	0.384400	0.304300
H2241	H224	0.611300	0.387400	0.271200
H2251	H225	0.585600	0.208500	0.261100
H2261	H226	0.488600	0.207400	0.296300
H2271	H227	0.691200	0.234600	0.177300
H2281	H228	0.607700	0.231200	0.216000
H2291	H229	0.738100	0.370900	0.247200
H2301	H230	0.815800	0.375100	0.207200
H2311	H231	0.678400	0.305300	0.428800
H2321	H232	0.810800	0.280400	0.413300
H2331	H233	0.840000	0.274400	0.366500
H2341	H234	0.731200	0.293600	0.335300
H2351	H235	0.599000	0.318800	0.351000
H2361	H236	0.619000	0.416300	0.428800
H2371	H237	0.578200	0.493300	0.458300
H2381	H238	0.440100	0.496100	0.474700
H2391	H239	0.344300	0.422600	0.460300
H2401	H240	0.387100	0.346400	0.431000
H2411	H241	0.500800	0.257000	0.946000
H2421	H242	0.507000	0.315100	0.927300
H2431	H243	0.424200	0.275800	0.927300
H2441	H244	0.470300	0.080500	0.870000
H2451	H245	0.547000	0.092400	0.850200
H2461	H246	0.563100	0.071400	0.880700
H2471	H247	0.747000	0.152800	0.868200
H2481	H248	0.775900	0.112500	0.826500
H2491	H249	0.704500	0.077600	0.842500
H2501	H250	0.680600	0.125400	0.819700
H2511	H251	0.808000	0.170200	0.930200
H2521	H252	0.820700	0.171200	0.977400
H2531	H253	0.671500	0.317400	0.980600
H2541	H254	0.661100	0.314700	0.933300
H2551	H255	0.589500	0.464700	0.889000
H2561	H256	0.680700	0.544700	0.882900
H2571	H257	0.871600	0.427100	0.875600
H2581	H258	0.777700	0.348500	0.882100
H2591	H259	0.012200	0.584100	0.837100
H2601	H260	0.928600	0.502100	0.848500
H2611	H261	0.783200	0.612600	0.893800
H2621	H262	0.867300	0.693000	0.880900
H2631	H263	0.492400	0.115600	0.804300
H2641	H264	0.388700	0.112600	0.771200
H2651	H265	0.414400	0.291500	0.761100
H2661	H266	0.511400	0.292600	0.796300
H2671	H267	0.308800	0.265400	0.677300
H2681	H268	0.392300	0.268800	0.716000
H2691	H269	0.261900	0.129100	0.747200
H2701	H270	0.184200	0.124900	0.707200
H2711	H271	0.321600	0.194700	0.928800
H2721	H272	0.189200	0.219600	0.913300
H2731	H273	0.160000	0.225600	0.866500
H2741	H274	0.268800	0.206400	0.835300
H2751	H275	0.401000	0.181200	0.851000
H2761	H276	0.381000	0.083700	0.928800
H2771	H277	0.421800	0.006700	0.958300
H2781	H278	0.559900	0.003900	0.974700
H2791	H279	0.655700	0.077400	0.960300
H2801	H280	0.612900	0.153600	0.931000
H2811	H281	0.000800	0.243000	0.554000
H2821	H282	0.007000	0.184900	0.572700
H2831	H283	0.924200	0.224200	0.572700
H2841	H284	0.970300	0.419500	0.630000
H2851	H285	0.047000	0.407600	0.649800
H2861	H286	0.063100	0.428600	0.619300
H2871	H287	0.247000	0.347200	0.631800
H2881	H288	0.275900	0.387500	0.673500
H2891	H289	0.204500	0.422400	0.657500
H2901	H290	0.180600	0.374600	0.680300
H2911	H291	0.308000	0.329800	0.569800
H2921	H292	0.320700	0.328800	0.522600
H2931	H293	0.171500	0.182600	0.519400
H2941	H294	0.161100	0.185300	0.566700
H2951	H295	0.089500	0.035300	0.611000
H2961	H296	0.180700	0.955300	0.617100
H2971	H297	0.371600	0.072900	0.624400
H2981	H298	0.277700	0.151500	0.617900
H2991	H299	0.512200	0.915900	0.662900
H3001	H300	0.428600	0.997900	0.651500
H3011	H301	0.283200	0.887400	0.606200
H3021	H302	0.367300	0.807000	0.619100
H3031	H303	0.992400	0.384400	0.695700
H3041	H304	0.888700	0.387400	0.728800
H3051	H305	0.914400	0.208500	0.738900
H3061	H306	0.011400	0.207400	0.703700
H3071	H307	0.808800	0.234600	0.822700
H3081	H308	0.892300	0.231200	0.784000
H3091	H309	0.761900	0.370900	0.752800
H3101	H310	0.684200	0.375100	0.792800
H3111	H311	0.821600	0.305300	0.571200
H3121	H312	0.689200	0.280400	0.586700
H3131	H313	0.660000	0.274400	0.633500
H3141	H314	0.768800	0.293600	0.664700
H3151	H315	0.901000	0.318800	0.649000
H3161	H316	0.881000	0.416300	0.571200
H3171	H317	0.921800	0.493300	0.541700
H3181	H318	0.059900	0.496100	0.525300
H3191	H319	0.155700	0.422600	0.539700
H3201	H320	0.112900	0.346400	0.569000
C11	C1	0.984700	0.725500	0.928630
C21	C2	0.027300	0.904700	0.868900
C31	C3	0.220000	0.884300	0.834200
C41	C4	0.280400	0.800100	0.940530
C51	C5	0.287700	0.799400	0.968770
C61	C6	0.247100	0.756000	0.984740
C71	C7	0.199500	0.712900	0.970720
C81	C8	0.193300	0.714500	0.942410
C91	C9	0.146600	0.542700	0.885930
C101	C10	0.201500	0.495000	0.882310
C111	C11	0.286900	0.504300	0.877800
C121	C12	0.314500	0.564400	0.878050
C131	C13	0.258200	0.611500	0.881820
C141	C14	0.464800	0.410500	0.848200
C151	C15	0.414900	0.459400	0.855070
C161	C16	0.344200	0.452100	0.871760
C171	C17	0.328400	0.393800	0.881880
C181	C18	0.379000	0.345900	0.874340
C191	C19	0.977100	0.848900	0.795100
C201	C20	0.916200	0.850900	0.774900
C211	C21	0.895300	0.799100	0.760060
C221	C22	0.930700	0.745000	0.769260
C231	C23	0.989400	0.744300	0.790150
C241	C24	0.801200	0.763100	0.691310
C251	C25	0.850300	0.760700	0.714610
C261	C26	0.838200	0.801500	0.736080
C271	C27	0.773500	0.843800	0.732970
C281	C28	0.726600	0.846100	0.709120
C291	C29	0.878900	0.815200	0.891780
C301	C30	0.812000	0.803100	0.909860
C311	C31	0.731800	0.788100	0.900500
C321	C32	0.713900	0.784400	0.872700
C331	C33	0.778800	0.796000	0.854160
C341	C34	0.858700	0.811000	0.863850
C351	C35	0.991100	0.870400	0.926700
C361	C36	0.936300	0.916800	0.935300
C371	C37	0.960500	0.963600	0.953000
C381	C38	0.042900	0.965500	0.962600
C391	C39	0.099900	0.921400	0.954200
C401	C40	0.073500	0.875400	0.936500
C411	C41	0.484700	0.774500	0.571370
C421	C42	0.527300	0.595300	0.631100
C431	C43	0.720000	0.615700	0.665800
C441	C44	0.780400	0.699900	0.559470
C451	C45	0.787700	0.700600	0.531230
C461	C46	0.747100	0.744000	0.515260
C471	C47	0.699500	0.787100	0.529280
C481	C48	0.693300	0.785500	0.557590
C491	C49	0.646600	0.957300	0.614070
C501	C50	0.701500	0.005000	0.617690
C511	C51	0.786900	0.995700	0.622200
C521	C52	0.814500	0.935600	0.621950
C531	C53	0.758200	0.888500	0.618180
C541	C54	0.964800	0.089500	0.651800
C551	C55	0.914900	0.040600	0.644930
C561	C56	0.844200	0.047900	0.628240
C571	C57	0.828400	0.106200	0.618120
C581	C58	0.879000	0.154100	0.625660
C591	C59	0.477100	0.651100	0.704900
C601	C60	0.416200	0.649100	0.725100
C611	C61	0.395300	0.700900	0.739940
C621	C62	0.430700	0.755000	0.730740
C631	C63	0.489400	0.755700	0.709850
C641	C64	0.301200	0.736900	0.808690
C651	C65	0.350300	0.739300	0.785390
C661	C66	0.338200	0.698500	0.763920
C671	C67	0.273500	0.656200	0.767030
C681	C68	0.226600	0.653900	0.790880
C691	C69	0.378900	0.684800	0.608220
C701	C70	0.312000	0.696900	0.590140
C711	C71	0.231800	0.711900	0.599500
C721	C72	0.213900	0.715600	0.627300
C731	C73	0.278800	0.704000	0.645840
C741	C74	0.358700	0.689000	0.636150
C751	C75	0.491100	0.629600	0.573300
C761	C76	0.436300	0.583200	0.564700
C771	C77	0.460500	0.536400	0.547000
C781	C78	0.542900	0.534500	0.537400
C791	C79	0.599900	0.578600	0.545800
C801	C80	0.573500	0.624600	0.563500
C811	C81	0.515300	0.725500	0.071370
C821	C82	0.472700	0.904700	0.131100
C831	C83	0.280000	0.884300	0.165800
C841	C84	0.219600	0.800100	0.059470
C851	C85	0.212300	0.799400	0.031230
C861	C86	0.252900	0.756000	0.015260
C871	C87	0.300500	0.712900	0.029280
C881	C88	0.306700	0.714500	0.057590
C891	C89	0.353400	0.542700	0.114070
C901	C90	0.298500	0.495000	0.117690
C911	C91	0.213100	0.504300	0.122200
C921	C92	0.185500	0.564400	0.121950
C931	C93	0.241800	0.611500	0.118180
C941	C94	0.035200	0.410500	0.151800
C951	C95	0.085100	0.459400	0.144930
C961	C96	0.155800	0.452100	0.128240
C971	C97	0.171600	0.393800	0.118120
C981	C98	0.121000	0.345900	0.125660
C991	C99	0.522900	0.848900	0.204900
C1001	C100	0.583800	0.850900	0.225100
C1011	C101	0.604700	0.799100	0.239940
C1021	C102	0.569300	0.745000	0.230740
C1031	C103	0.510600	0.744300	0.209850
C1041	C104	0.698800	0.763100	0.308690
C1051	C105	0.649700	0.760700	0.285390
C1061	C106	0.661800	0.801500	0.263920
C1071	C107	0.726500	0.843800	0.267030
C1081	C108	0.773400	0.846100	0.290880
C1091	C109	0.621100	0.815200	0.108220
C1101	C110	0.688000	0.803100	0.090140
C1111	C111	0.768200	0.788100	0.099500
C1121	C112	0.786100	0.784400	0.127300
C1131	C113	0.721200	0.796000	0.145840
C1141	C114	0.641300	0.811000	0.136150
C1151	C115	0.508900	0.870400	0.073300
C1161	C116	0.563700	0.916800	0.064700
C1171	C117	0.539500	0.963600	0.047000
C1181	C118	0.457100	0.965500	0.037400
C1191	C119	0.400100	0.921400	0.045800
C1201	C120	0.426500	0.875400	0.063500
C1211	C121	0.015300	0.774500	0.428630
C1221	C122	0.972700	0.595300	0.368900
C1231	C123	0.780000	0.615700	0.334200
C1241	C124	0.719600	0.699900	0.440530
C1251	C125	0.712300	0.700600	0.468770
C1261	C126	0.752900	0.744000	0.484740
C1271	C127	0.800500	0.787100	0.470720
C1281	C128	0.806700	0.785500	0.442410
C1291	C129	0.853400	0.957300	0.385930
C1301	C130	0.798500	0.005000	0.382310
C1311	C131	0.713100	0.995700	0.377800
C1321	C132	0.685500	0.935600	0.378050
C1331	C133	0.741800	0.888500	0.381820
C1341	C134	0.535200	0.089500	0.348200
C1351	C135	0.585100	0.040600	0.355070
C1361	C136	0.655800	0.047900	0.371760
C1371	C137	0.671600	0.106200	0.381880
C1381	C138	0.621000	0.154100	0.374340
C1391	C139	0.022900	0.651100	0.295100
C1401	C140	0.083800	0.649100	0.274900
C1411	C141	0.104700	0.700900	0.260060
C1421	C142	0.069300	0.755000	0.269260
C1431	C143	0.010600	0.755700	0.290150
C1441	C144	0.198800	0.736900	0.191310
C1451	C145	0.149700	0.739300	0.214610
C1461	C146	0.161800	0.698500	0.236080
C1471	C147	0.226500	0.656200	0.232970
C1481	C148	0.273400	0.653900	0.209120
C1491	C149	0.121100	0.684800	0.391780
C1501	C150	0.188000	0.696900	0.409860
C1511	C151	0.268200	0.711900	0.400500
C1521	C152	0.286100	0.715600	0.372700
C1531	C153	0.221200	0.704000	0.354160
C1541	C154	0.141300	0.689000	0.363850
C1551	C155	0.008900	0.629600	0.426700
C1561	C156	0.063700	0.583200	0.435300
C1571	C157	0.039500	0.536400	0.453000
C1581	C158	0.957100	0.534500	0.462600
C1591	C159	0.900100	0.578600	0.454200
C1601	C160	0.926500	0.624600	0.436500
C1611	C161	0.015300	0.274500	0.071370
C1621	C162	0.972700	0.095300	0.131100
C1631	C163	0.780000	0.115700	0.165800
C1641	C164	0.719600	0.199900	0.059470
C1651	C165	0.712300	0.200600	0.031230
C1661	C166	0.752900	0.244000	0.015260
C1671	C167	0.800500	0.287100	0.029280
C1681	C168	0.806700	0.285500	0.057590
C1691	C169	0.853400	0.457300	0.114070
C1701	C170	0.798500	0.505000	0.117690
C1711	C171	0.713100	0.495700	0.122200
C1721	C172	0.685500	0.435600	0.121950
C1731	C173	0.741800	0.388500	0.118180
C1741	C174	0.535200	0.589500	0.151800
C1751	C175	0.585100	0.540600	0.144930
C1761	C176	0.655800	0.547900	0.128240
C1771	C177	0.671600	0.606200	0.118120
C1781	C178	0.621000	0.654100	0.125660
C1791	C179	0.022900	0.151100	0.204900
C1801	C180	0.083800	0.149100	0.225100
C1811	C181	0.104700	0.200900	0.239940
C1821	C182	0.069300	0.255000	0.230740
C1831	C183	0.010600	0.255700	0.209850
C1841	C184	0.198800	0.236900	0.308690
C1851	C185	0.149700	0.239300	0.285390
C1861	C186	0.161800	0.198500	0.263920
C1871	C187	0.226500	0.156200	0.267030
C1881	C188	0.273400	0.153900	0.290880
C1891	C189	0.121100	0.184800	0.108220
C1901	C190	0.188000	0.196900	0.090140
C1911	C191	0.268200	0.211900	0.099500
C1921	C192	0.286100	0.215600	0.127300
C1931	C193	0.221200	0.204000	0.145840
C1941	C194	0.141300	0.189000	0.136150
C1951	C195	0.008900	0.129600	0.073300
C1961	C196	0.063700	0.083200	0.064700
C1971	C197	0.039500	0.036400	0.047000
C1981	C198	0.957100	0.034500	0.037400
C1991	C199	0.900100	0.078600	0.045800
C2001	C200	0.926500	0.124600	0.063500
C2011	C201	0.515300	0.225500	0.428630
C2021	C202	0.472700	0.404700	0.368900
C2031	C203	0.280000	0.384300	0.334200
C2041	C204	0.219600	0.300100	0.440530
C2051	C205	0.212300	0.299400	0.468770
C2061	C206	0.252900	0.256000	0.484740
C2071	C207	0.300500	0.212900	0.470720
C2081	C208	0.306700	0.214500	0.442410
C2091	C209	0.353400	0.042700	0.385930
C2101	C210	0.298500	0.995000	0.382310
C2111	C211	0.213100	0.004300	0.377800
C2121	C212	0.185500	0.064400	0.378050
C2131	C213	0.241800	0.111500	0.381820
C2141	C214	0.035200	0.910500	0.348200
C2151	C215	0.085100	0.959400	0.355070
C2161	C216	0.155800	0.952100	0.371760
C2171	C217	0.171600	0.893800	0.381880
C2181	C218	0.121000	0.845900	0.374340
C2191	C219	0.522900	0.348900	0.295100
C2201	C220	0.583800	0.350900	0.274900
C2211	C221	0.604700	0.299100	0.260060
C2221	C222	0.569300	0.245000	0.269260
C2231	C223	0.510600	0.244300	0.290150
C2241	C224	0.698800	0.263100	0.191310
C2251	C225	0.649700	0.260700	0.214610
C2261	C226	0.661800	0.301500	0.236080
C2271	C227	0.726500	0.343800	0.232970
C2281	C228	0.773400	0.346100	0.209120
C2291	C229	0.621100	0.315200	0.391780
C2301	C230	0.688000	0.303100	0.409860
C2311	C231	0.768200	0.288100	0.400500
C2321	C232	0.786100	0.284400	0.372700
C2331	C233	0.721200	0.296000	0.354160
C2341	C234	0.641300	0.311000	0.363850
C2351	C235	0.508900	0.370400	0.426700
C2361	C236	0.563700	0.416800	0.435300
C2371	C237	0.539500	0.463600	0.453000
C2381	C238	0.457100	0.465500	0.462600
C2391	C239	0.400100	0.421400	0.454200
C2401	C240	0.426500	0.375400	0.436500
C2411	C241	0.484700	0.274500	0.928630
C2421	C242	0.527300	0.095300	0.868900
C2431	C243	0.720000	0.115700	0.834200
C2441	C244	0.780400	0.199900	0.940530
C2451	C245	0.787700	0.200600	0.968770
C2461	C246	0.747100	0.244000	0.984740
C2471	C247	0.699500	0.287100	0.970720
C2481	C248	0.693300	0.285500	0.942410
C2491	C249	0.646600	0.457300	0.885930
C2501	C250	0.701500	0.505000	0.882310
C2511	C251	0.786900	0.495700	0.877800
C2521	C252	0.814500	0.435600	0.878050
C2531	C253	0.758200	0.388500	0.881820
C2541	C254	0.964800	0.589500	0.848200
C2551	C255	0.914900	0.540600	0.855070
C2561	C256	0.844200	0.547900	0.871760
C2571	C257	0.828400	0.606200	0.881880
C2581	C258	0.879000	0.654100	0.874340
C2591	C259	0.477100	0.151100	0.795100
C2601	C260	0.416200	0.149100	0.774900
C2611	C261	0.395300	0.200900	0.760060
C2621	C262	0.430700	0.255000	0.769260
C2631	C263	0.489400	0.255700	0.790150
C2641	C264	0.301200	0.236900	0.691310
C2651	C265	0.350300	0.239300	0.714610
C2661	C266	0.338200	0.198500	0.736080
C2671	C267	0.273500	0.156200	0.732970
C2681	C268	0.226600	0.153900	0.709120
C2691	C269	0.378900	0.184800	0.891780
C2701	C270	0.312000	0.196900	0.909860
C2711	C271	0.231800	0.211900	0.900500
C2721	C272	0.213900	0.215600	0.872700
C2731	C273	0.278800	0.204000	0.854160
C2741	C274	0.358700	0.189000	0.863850
C2751	C275	0.491100	0.129600	0.926700
C2761	C276	0.436300	0.083200	0.935300
C2771	C277	0.460500	0.036400	0.953000
C2781	C278	0.542900	0.034500	0.962600
C2791	C279	0.599900	0.078600	0.954200
C2801	C280	0.573500	0.124600	0.936500
C2811	C281	0.984700	0.225500	0.571370
C2821	C282	0.027300	0.404700	0.631100
C2831	C283	0.220000	0.384300	0.665800
C2841	C284	0.280400	0.300100	0.559470
C2851	C285	0.287700	0.299400	0.531230
C2861	C286	0.247100	0.256000	0.515260
C2871	C287	0.199500	0.212900	0.529280
C2881	C288	0.193300	0.214500	0.557590
C2891	C289	0.146600	0.042700	0.614070
C2901	C290	0.201500	0.995000	0.617690
C2911	C291	0.286900	0.004300	0.622200
C2921	C292	0.314500	0.064400	0.621950
C2931	C293	0.258200	0.111500	0.618180
C2941	C294	0.464800	0.910500	0.651800
C2951	C295	0.414900	0.959400	0.644930
C2961	C296	0.344200	0.952100	0.628240
C2971	C297	0.328400	0.893800	0.618120
C2981	C298	0.379000	0.845900	0.625660
C2991	C299	0.977100	0.348900	0.704900
C3001	C300	0.916200	0.350900	0.725100
C3011	C301	0.895300	0.299100	0.739940
C3021	C302	0.930700	0.245000	0.730740
C3031	C303	0.989400	0.244300	0.709850
C3041	C304	0.801200	0.263100	0.808690
C3051	C305	0.850300	0.260700	0.785390
C3061	C306	0.838200	0.301500	0.763920
C3071	C307	0.773500	0.343800	0.767030
C3081	C308	0.726600	0.346100	0.790880
C3091	C309	0.878900	0.315200	0.608220
C3101	C310	0.812000	0.303100	0.590140
C3111	C311	0.731800	0.288100	0.599500
C3121	C312	0.713900	0.284400	0.627300
C3131	C313	0.778800	0.296000	0.645840
C3141	C314	0.858700	0.311000	0.636150
C3151	C315	0.991100	0.370400	0.573300
C3161	C316	0.936300	0.416800	0.564700
C3171	C317	0.960500	0.463600	0.547000
C3181	C318	0.042900	0.465500	0.537400
C3191	C319	0.099900	0.421400	0.545800
C3201	C320	0.073500	0.375400	0.563500
N11	N1	0.233300	0.757700	0.927900
N21	N2	0.175400	0.600200	0.885090
N31	N3	0.014800	0.795700	0.801620
N41	N4	0.444600	0.354700	0.857620
N51	N5	0.742000	0.806500	0.688690
N61	N6	0.733300	0.742300	0.572100
N71	N7	0.675400	0.899800	0.614910
N81	N8	0.514800	0.704300	0.698380
N91	N9	0.944600	0.145300	0.642380
N101	N10	0.242000	0.693500	0.811310
N111	N11	0.266700	0.757700	0.072100
N121	N12	0.324600	0.600200	0.114910
N131	N13	0.485200	0.795700	0.198380
N141	N14	0.055400	0.354700	0.142380
N151	N15	0.758000	0.806500	0.311310
N161	N16	0.766700	0.742300	0.427900
N171	N17	0.824600	0.899800	0.385090
N181	N18	0.985200	0.704300	0.301620
N191	N19	0.555400	0.145300	0.357620
N201	N20	0.258000	0.693500	0.188690
N211	N21	0.766700	0.242300	0.072100
N221	N22	0.824600	0.399800	0.114910
N231	N23	0.985200	0.204300	0.198380
N241	N24	0.555400	0.645300	0.142380
N251	N25	0.258000	0.193500	0.311310
N261	N26	0.266700	0.257700	0.427900
N271	N27	0.324600	0.100200	0.385090
N281	N28	0.485200	0.295700	0.301620
N291	N29	0.055400	0.854700	0.357620
N301	N30	0.758000	0.306500	0.188690
N311	N31	0.733300	0.242300	0.927900
N321	N32	0.675400	0.399800	0.885090
N331	N33	0.514800	0.204300	0.801620
N341	N34	0.944600	0.645300	0.857620
N351	N35	0.242000	0.193500	0.688690
N361	N36	0.233300	0.257700	0.572100
N371	N37	0.175400	0.100200	0.614910
N381	N38	0.014800	0.295700	0.698380
N391	N39	0.444600	0.854700	0.642380
N401	N40	0.742000	0.306500	0.811310
O11	O1	0.017400	0.761200	0.906940
O21	O2	0.029800	0.842300	0.877630
O31	O3	0.218500	0.836700	0.854890
O41	O4	0.226300	0.759900	0.900400
O51	O5	0.120400	0.645900	0.888040
O61	O6	0.076600	0.795200	0.820490
O71	O7	0.490400	0.307300	0.849000
O81	O8	0.698500	0.811300	0.665230
O91	O9	0.517400	0.738800	0.593060
O101	O10	0.529800	0.657700	0.622370
O111	O11	0.718500	0.663300	0.645110
O121	O12	0.726300	0.740100	0.599600
O131	O13	0.620400	0.854100	0.611960
O141	O14	0.576600	0.704800	0.679510
O151	O15	0.990400	0.192700	0.651000
O161	O16	0.198500	0.688700	0.834770
O171	O17	0.482600	0.761200	0.093060
O181	O18	0.470200	0.842300	0.122370
O191	O19	0.281500	0.836700	0.145110
O201	O20	0.273700	0.759900	0.099600
O211	O21	0.379600	0.645900	0.111960
O221	O22	0.423400	0.795200	0.179510
O231	O23	0.009600	0.307300	0.151000
O241	O24	0.801500	0.811300	0.334770
O251	O25	0.982600	0.738800	0.406940
O261	O26	0.970200	0.657700	0.377630
O271	O27	0.781500	0.663300	0.354890
O281	O28	0.773700	0.740100	0.400400
O291	O29	0.879600	0.854100	0.388040
O301	O30	0.923400	0.704800	0.320490
O311	O31	0.509600	0.192700	0.349000
O321	O32	0.301500	0.688700	0.165230
O331	O33	0.982600	0.238800	0.093060
O341	O34	0.970200	0.157700	0.122370
O351	O35	0.781500	0.163300	0.145110
O361	O36	0.773700	0.240100	0.099600
O371	O37	0.879600	0.354100	0.111960
O381	O38	0.923400	0.204800	0.179510
O391	O39	0.509600	0.692700	0.151000
O401	O40	0.301500	0.188700	0.334770
O411	O41	0.482600	0.261200	0.406940
O421	O42	0.470200	0.342300	0.377630
O431	O43	0.281500	0.336700	0.354890
O441	O44	0.273700	0.259900	0.400400
O451	O45	0.379600	0.145900	0.388040
O461	O46	0.423400	0.295200	0.320490
O471	O47	0.009600	0.807300	0.349000
O481	O48	0.801500	0.311300	0.165230
O491	O49	0.517400	0.238800	0.906940
O501	O50	0.529800	0.157700	0.877630
O511	O51	0.718500	0.163300	0.854890
O521	O52	0.726300	0.240100	0.900400
O531	O53	0.620400	0.354100	0.888040
O541	O54	0.576600	0.204800	0.820490
O551	O55	0.990400	0.692700	0.849000
O561	O56	0.198500	0.188700	0.665230
O571	O57	0.017400	0.261200	0.593060
O581	O58	0.029800	0.342300	0.622370
O591	O59	0.218500	0.336700	0.645110
O601	O60	0.226300	0.259900	0.599600
O611	O61	0.120400	0.145900	0.611960
O621	O62	0.076600	0.295200	0.679510
O631	O63	0.490400	0.807300	0.651000
O641	O64	0.698500	0.311300	0.834770
B91	B9	0.537800	0.681400	0.943400
H3211	H321	0.619700	0.571100	0.939500
H3221	H322	0.752400	0.536100	0.949500
H3231	H323	0.856300	0.602700	0.964800
H3241	H324	0.820800	0.704200	0.971600
H3251	H325	0.687000	0.738000	0.962100
H3261	H326	0.538200	0.800900	0.922200
H3271	H327	0.515800	0.895900	0.940700
H3281	H328	0.497600	0.907300	0.988000
H3291	H329	0.494000	0.821100	0.015500
H3301	H330	0.510300	0.726300	0.996400
H3311	H331	0.368900	0.643200	0.935600
H3321	H332	0.278700	0.581200	0.959600
H3331	H333	0.323800	0.533000	0.999700
H3341	H334	0.459900	0.551100	0.015400
H3351	H335	0.548900	0.613700	0.991200
H3361	H336	0.407700	0.727600	0.911500
H3371	H337	0.382400	0.735000	0.865300
H3381	H338	0.471300	0.686900	0.833700
H3391	H339	0.594800	0.642900	0.850200
H3401	H340	0.621400	0.638600	0.896600
C3211	C321	0.634600	0.658900	0.950100
C3221	C322	0.659400	0.598500	0.946300
C3231	C323	0.740000	0.577200	0.952000
C3241	C324	0.801700	0.616400	0.961300
C3251	C325	0.780400	0.676800	0.965200
C3261	C326	0.699100	0.697000	0.959500
C3271	C327	0.523300	0.751000	0.956670
C3281	C328	0.527300	0.804200	0.941020
C3291	C329	0.515700	0.861900	0.952120
C3301	C330	0.504000	0.868800	0.980280
C3311	C331	0.502000	0.817400	0.996570
C3321	C332	0.511600	0.760200	0.984880
C3331	C333	0.471500	0.635300	0.959680
C3341	C334	0.388500	0.624400	0.951550
C3351	C335	0.333500	0.587100	0.966100
C3361	C336	0.359900	0.558600	0.990010
C3371	C337	0.441000	0.569300	0.999180
C3381	C338	0.494800	0.607000	0.984360
C3391	C339	0.519100	0.683400	0.910380
C3401	C340	0.446700	0.710800	0.899350
C3411	C341	0.430100	0.714200	0.871460
C3421	C342	0.483700	0.687000	0.852520
C3431	C343	0.556200	0.660000	0.862490
C3441	C344	0.572400	0.658000	0.890600
B101	B10	0.893200	0.553600	0.738900
H3411	H341	0.048800	0.498400	0.734400
H3421	H342	0.111100	0.416100	0.755700
H3431	H343	0.045400	0.369400	0.792900
H3441	H344	0.917300	0.407600	0.808800
H3451	H345	0.849400	0.482600	0.784100
H3461	H346	0.925700	0.493300	0.689100
H3471	H347	0.847600	0.434600	0.659400
H3481	H348	0.707500	0.411800	0.669400
H3491	H349	0.649100	0.450200	0.709700
H3501	H350	0.725600	0.512900	0.738000
H3511	H351	0.909200	0.598800	0.684300
H3521	H352	0.997100	0.667900	0.663700
H3531	H353	0.103000	0.714800	0.689100
H3541	H354	0.116900	0.691200	0.735500
H3551	H355	0.031000	0.619500	0.755400
H3561	H356	0.762700	0.631100	0.726300
H3571	H357	0.680600	0.698300	0.750700
H3581	H358	0.699800	0.709700	0.797900
H3591	H359	0.801600	0.651500	0.819900
H3601	H360	0.884700	0.585900	0.795200
C3451	C345	0.942600	0.502000	0.757200
C3461	C346	0.021000	0.479700	0.749100
C3471	C347	0.059200	0.430400	0.762000
C3481	C348	0.020100	0.402400	0.784200
C3491	C349	0.942900	0.424300	0.793200
C3501	C350	0.903800	0.471200	0.778920
C3511	C351	0.835400	0.512700	0.717010
C3521	C352	0.869100	0.486200	0.693200
C3531	C353	0.822600	0.449800	0.675400
C3541	C354	0.739300	0.436100	0.681200
C3551	C355	0.704700	0.459700	0.705090
C3561	C356	0.751400	0.497200	0.722230
C3571	C357	0.958900	0.599300	0.722440
C3581	C358	0.951700	0.616600	0.694880
C3591	C359	0.004200	0.658600	0.682300
C3601	C360	0.067100	0.686600	0.697390
C3611	C361	0.075700	0.672100	0.724920
C3621	C362	0.023100	0.629000	0.736880
C3631	C363	0.833300	0.598400	0.757630
C3641	C364	0.771100	0.634600	0.745260
C3651	C365	0.721500	0.675500	0.759850
C3661	C366	0.732700	0.682300	0.787930
C3671	C367	0.793600	0.647800	0.800920
C3681	C368	0.843000	0.607700	0.785960
B111	B11	0.037800	0.818600	0.556600
H3611	H361	0.119700	0.928900	0.560500
H3621	H362	0.252400	0.963900	0.550500
H3631	H363	0.356300	0.897300	0.535200
H3641	H364	0.320800	0.795800	0.528400
H3651	H365	0.187000	0.762000	0.537900
H3661	H366	0.038200	0.699100	0.577800
H3671	H367	0.015800	0.604100	0.559300
H3681	H368	0.997600	0.592700	0.512000
H3691	H369	0.994000	0.678900	0.484500
H3701	H370	0.010300	0.773700	0.503600
H3711	H371	0.868900	0.856800	0.564400
H3721	H372	0.778700	0.918800	0.540400
H3731	H373	0.823800	0.967000	0.500300
H3741	H374	0.959900	0.948900	0.484600
H3751	H375	0.048900	0.886300	0.508800
H3761	H376	0.907700	0.772400	0.588500
H3771	H377	0.882400	0.765000	0.634700
H3781	H378	0.971300	0.813100	0.666300
H3791	H379	0.094800	0.857100	0.649800
H3801	H380	0.121400	0.861400	0.603400
C3691	C369	0.134600	0.841100	0.549900
C3701	C370	0.159400	0.901500	0.553700
C3711	C371	0.240000	0.922800	0.548000
C3721	C372	0.301700	0.883600	0.538700
C3731	C373	0.280400	0.823200	0.534800
C3741	C374	0.199100	0.803000	0.540500
C3751	C375	0.023300	0.749000	0.543330
C3761	C376	0.027300	0.695800	0.558980
C3771	C377	0.015700	0.638100	0.547880
C3781	C378	0.004000	0.631200	0.519720
C3791	C379	0.002000	0.682600	0.503430
C3801	C380	0.011600	0.739800	0.515120
C3811	C381	0.971500	0.864700	0.540320
C3821	C382	0.888500	0.875600	0.548450
C3831	C383	0.833500	0.912900	0.533900
C3841	C384	0.859900	0.941400	0.509990
C3851	C385	0.941000	0.930700	0.500820
C3861	C386	0.994800	0.893000	0.515640
C3871	C387	0.019100	0.816600	0.589620
C3881	C388	0.946700	0.789200	0.600650
C3891	C389	0.930100	0.785800	0.628540
C3901	C390	0.983700	0.813000	0.647480
C3911	C391	0.056200	0.840000	0.637510
C3921	C392	0.072400	0.842000	0.609400
B121	B12	0.393200	0.946400	0.761100
H3811	H381	0.548800	0.001600	0.765600
H3821	H382	0.611100	0.083900	0.744300
H3831	H383	0.545400	0.130600	0.707100
H3841	H384	0.417300	0.092400	0.691200
H3851	H385	0.349400	0.017400	0.715900
H3861	H386	0.425700	0.006700	0.810900
H3871	H387	0.347600	0.065400	0.840600
H3881	H388	0.207500	0.088200	0.830600
H3891	H389	0.149100	0.049800	0.790300
H3901	H390	0.225600	0.987100	0.762000
H3911	H391	0.409200	0.901200	0.815700
H3921	H392	0.497100	0.832100	0.836300
H3931	H393	0.603000	0.785200	0.810900
H3941	H394	0.616900	0.808800	0.764500
H3951	H395	0.531000	0.880500	0.744600
H3961	H396	0.262700	0.868900	0.773700
H3971	H397	0.180600	0.801700	0.749300
H3981	H398	0.199800	0.790300	0.702100
H3991	H399	0.301600	0.848500	0.680100
H4001	H400	0.384700	0.914100	0.704800
C3931	C393	0.442600	0.998000	0.742800
C3941	C394	0.521000	0.020300	0.750900
C3951	C395	0.559200	0.069600	0.738000
C3961	C396	0.520100	0.097600	0.715800
C3971	C397	0.442900	0.075700	0.706800
C3981	C398	0.403800	0.028800	0.721080
C3991	C399	0.335400	0.987300	0.782990
C4001	C400	0.369100	0.013800	0.806800
C4011	C401	0.322600	0.050200	0.824600
C4021	C402	0.239300	0.063900	0.818800
C4031	C403	0.204700	0.040300	0.794910
C4041	C404	0.251400	0.002800	0.777770
C4051	C405	0.458900	0.900700	0.777560
C4061	C406	0.451700	0.883400	0.805120
C4071	C407	0.504200	0.841400	0.817700
C4081	C408	0.567100	0.813400	0.802610
C4091	C409	0.575700	0.827900	0.775080
C4101	C410	0.523100	0.871000	0.763120
C4111	C411	0.333300	0.901600	0.742370
C4121	C412	0.271100	0.865400	0.754740
C4131	C413	0.221500	0.824500	0.740150
C4141	C414	0.232700	0.817700	0.712070
C4151	C415	0.293600	0.852200	0.699080
C4161	C416	0.343000	0.892300	0.714040
B131	B13	0.962200	0.681400	0.056600
H4011	H401	0.880300	0.571100	0.060500
H4021	H402	0.747600	0.536100	0.050500
H4031	H403	0.643700	0.602700	0.035200
H4041	H404	0.679200	0.704200	0.028400
H4051	H405	0.813000	0.738000	0.037900
H4061	H406	0.961800	0.800900	0.077800
H4071	H407	0.984200	0.895900	0.059300
H4081	H408	0.002400	0.907300	0.012000
H4091	H409	0.006000	0.821100	0.984500
H4101	H410	0.989700	0.726300	0.003600
H4111	H411	0.131100	0.643200	0.064400
H4121	H412	0.221300	0.581200	0.040400
H4131	H413	0.176200	0.533000	0.000300
H4141	H414	0.040100	0.551100	0.984600
H4151	H415	0.951100	0.613700	0.008800
H4161	H416	0.092300	0.727600	0.088500
H4171	H417	0.117600	0.735000	0.134700
H4181	H418	0.028700	0.686900	0.166300
H4191	H419	0.905200	0.642900	0.149800
H4201	H420	0.878600	0.638600	0.103400
C4171	C417	0.865400	0.658900	0.049900
C4181	C418	0.840600	0.598500	0.053700
C4191	C419	0.760000	0.577200	0.048000
C4201	C420	0.698300	0.616400	0.038700
C4211	C421	0.719600	0.676800	0.034800
C4221	C422	0.800900	0.697000	0.040500
C4231	C423	0.976700	0.751000	0.043330
C4241	C424	0.972700	0.804200	0.058980
C4251	C425	0.984300	0.861900	0.047880
C4261	C426	0.996000	0.868800	0.019720
C4271	C427	0.998000	0.817400	0.003430
C4281	C428	0.988400	0.760200	0.015120
C4291	C429	0.028500	0.635300	0.040320
C4301	C430	0.111500	0.624400	0.048450
C4311	C431	0.166500	0.587100	0.033900
C4321	C432	0.140100	0.558600	0.009990
C4331	C433	0.059000	0.569300	0.000820
C4341	C434	0.005200	0.607000	0.015640
C4351	C435	0.980900	0.683400	0.089620
C4361	C436	0.053300	0.710800	0.100650
C4371	C437	0.069900	0.714200	0.128540
C4381	C438	0.016300	0.687000	0.147480
C4391	C439	0.943800	0.660000	0.137510
C4401	C440	0.927600	0.658000	0.109400
B141	B14	0.606800	0.553600	0.261100
H4211	H421	0.451200	0.498400	0.265600
H4221	H422	0.388900	0.416100	0.244300
H4231	H423	0.454600	0.369400	0.207100
H4241	H424	0.582700	0.407600	0.191200
H4251	H425	0.650600	0.482600	0.215900
H4261	H426	0.574300	0.493300	0.310900
H4271	H427	0.652400	0.434600	0.340600
H4281	H428	0.792500	0.411800	0.330600
H4291	H429	0.850900	0.450200	0.290300
H4301	H430	0.774400	0.512900	0.262000
H4311	H431	0.590800	0.598800	0.315700
H4321	H432	0.502900	0.667900	0.336300
H4331	H433	0.397000	0.714800	0.310900
H4341	H434	0.383100	0.691200	0.264500
H4351	H435	0.469000	0.619500	0.244600
H4361	H436	0.737300	0.631100	0.273700
H4371	H437	0.819400	0.698300	0.249300
H4381	H438	0.800200	0.709700	0.202100
H4391	H439	0.698400	0.651500	0.180100
H4401	H440	0.615300	0.585900	0.204800
C4411	C441	0.557400	0.502000	0.242800
C4421	C442	0.479000	0.479700	0.250900
C4431	C443	0.440800	0.430400	0.238000
C4441	C444	0.479900	0.402400	0.215800
C4451	C445	0.557100	0.424300	0.206800
C4461	C446	0.596200	0.471200	0.221080
C4471	C447	0.664600	0.512700	0.282990
C4481	C448	0.630900	0.486200	0.306800
C4491	C449	0.677400	0.449800	0.324600
C4501	C450	0.760700	0.436100	0.318800
C4511	C451	0.795300	0.459700	0.294910
C4521	C452	0.748600	0.497200	0.277770
C4531	C453	0.541100	0.599300	0.277560
C4541	C454	0.548300	0.616600	0.305120
C4551	C455	0.495800	0.658600	0.317700
C4561	C456	0.432900	0.686600	0.302610
C4571	C457	0.424300	0.672100	0.275080
C4581	C458	0.476900	0.629000	0.263120
C4591	C459	0.666700	0.598400	0.242370
C4601	C460	0.728900	0.634600	0.254740
C4611	C461	0.778500	0.675500	0.240150
C4621	C462	0.767300	0.682300	0.212070
C4631	C463	0.706400	0.647800	0.199080
C4641	C464	0.657000	0.607700	0.214040
B151	B15	0.462200	0.818600	0.443400
H4411	H441	0.380300	0.928900	0.439500
H4421	H442	0.247600	0.963900	0.449500
H4431	H443	0.143700	0.897300	0.464800
H4441	H444	0.179200	0.795800	0.471600
H4451	H445	0.313000	0.762000	0.462100
H4461	H446	0.461800	0.699100	0.422200
H4471	H447	0.484200	0.604100	0.440700
H4481	H448	0.502400	0.592700	0.488000
H4491	H449	0.506000	0.678900	0.515500
H4501	H450	0.489700	0.773700	0.496400
H4511	H451	0.631100	0.856800	0.435600
H4521	H452	0.721300	0.918800	0.459600
H4531	H453	0.676200	0.967000	0.499700
H4541	H454	0.540100	0.948900	0.515400
H4551	H455	0.451100	0.886300	0.491200
H4561	H456	0.592300	0.772400	0.411500
H4571	H457	0.617600	0.765000	0.365300
H4581	H458	0.528700	0.813100	0.333700
H4591	H459	0.405200	0.857100	0.350200
H4601	H460	0.378600	0.861400	0.396600
C4651	C465	0.365400	0.841100	0.450100
C4661	C466	0.340600	0.901500	0.446300
C4671	C467	0.260000	0.922800	0.452000
C4681	C468	0.198300	0.883600	0.461300
C4691	C469	0.219600	0.823200	0.465200
C4701	C470	0.300900	0.803000	0.459500
C4711	C471	0.476700	0.749000	0.456670
C4721	C472	0.472700	0.695800	0.441020
C4731	C473	0.484300	0.638100	0.452120
C4741	C474	0.496000	0.631200	0.480280
C4751	C475	0.498000	0.682600	0.496570
C4761	C476	0.488400	0.739800	0.484880
C4771	C477	0.528500	0.864700	0.459680
C4781	C478	0.611500	0.875600	0.451550
C4791	C479	0.666500	0.912900	0.466100
C4801	C480	0.640100	0.941400	0.490010
C4811	C481	0.559000	0.930700	0.499180
C4821	C482	0.505200	0.893000	0.484360
C4831	C483	0.480900	0.816600	0.410380
C4841	C484	0.553300	0.789200	0.399350
C4851	C485	0.569900	0.785800	0.371460
C4861	C486	0.516300	0.813000	0.352520
C4871	C487	0.443800	0.840000	0.362490
C4881	C488	0.427600	0.842000	0.390600
B161	B16	0.106800	0.946400	0.238900
H4611	H461	0.951200	0.001600	0.234400
H4621	H462	0.888900	0.083900	0.255700
H4631	H463	0.954600	0.130600	0.292900
H4641	H464	0.082700	0.092400	0.308800
H4651	H465	0.150600	0.017400	0.284100
H4661	H466	0.074300	0.006700	0.189100
H4671	H467	0.152400	0.065400	0.159400
H4681	H468	0.292500	0.088200	0.169400
H4691	H469	0.350900	0.049800	0.209700
H4701	H470	0.274400	0.987100	0.238000
H4711	H471	0.090800	0.901200	0.184300
H4721	H472	0.002900	0.832100	0.163700
H4731	H473	0.897000	0.785200	0.189100
H4741	H474	0.883100	0.808800	0.235500
H4751	H475	0.969000	0.880500	0.255400
H4761	H476	0.237300	0.868900	0.226300
H4771	H477	0.319400	0.801700	0.250700
H4781	H478	0.300200	0.790300	0.297900
H4791	H479	0.198400	0.848500	0.319900
H4801	H480	0.115300	0.914100	0.295200
C4891	C489	0.057400	0.998000	0.257200
C4901	C490	0.979000	0.020300	0.249100
C4911	C491	0.940800	0.069600	0.262000
C4921	C492	0.979900	0.097600	0.284200
C4931	C493	0.057100	0.075700	0.293200
C4941	C494	0.096200	0.028800	0.278920
C4951	C495	0.164600	0.987300	0.217010
C4961	C496	0.130900	0.013800	0.193200
C4971	C497	0.177400	0.050200	0.175400
C4981	C498	0.260700	0.063900	0.181200
C4991	C499	0.295300	0.040300	0.205090
C5001	C500	0.248600	0.002800	0.222230
C5011	C501	0.041100	0.900700	0.222440
C5021	C502	0.048300	0.883400	0.194880
C5031	C503	0.995800	0.841400	0.182300
C5041	C504	0.932900	0.813400	0.197390
C5051	C505	0.924300	0.827900	0.224920
C5061	C506	0.976900	0.871000	0.236880
C5071	C507	0.166700	0.901600	0.257630
C5081	C508	0.228900	0.865400	0.245260
C5091	C509	0.278500	0.824500	0.259850
C5101	C510	0.267300	0.817700	0.287930
C5111	C511	0.206400	0.852200	0.300920
C5121	C512	0.157000	0.892300	0.285960
B171	B17	0.462200	0.318600	0.056600
H4811	H481	0.380300	0.428900	0.060500
H4821	H482	0.247600	0.463900	0.050500
H4831	H483	0.143700	0.397300	0.035200
H4841	H484	0.179200	0.295800	0.028400
H4851	H485	0.313000	0.262000	0.037900
H4861	H486	0.461800	0.199100	0.077800
H4871	H487	0.484200	0.104100	0.059300
H4881	H488	0.502400	0.092700	0.012000
H4891	H489	0.506000	0.178900	0.984500
H4901	H490	0.489700	0.273700	0.003600
H4911	H491	0.631100	0.356800	0.064400
H4921	H492	0.721300	0.418800	0.040400
H4931	H493	0.676200	0.467000	0.000300
H4941	H494	0.540100	0.448900	0.984600
H4951	H495	0.451100	0.386300	0.008800
H4961	H496	0.592300	0.272400	0.088500
H4971	H497	0.617600	0.265000	0.134700
H4981	H498	0.528700	0.313100	0.166300
H4991	H499	0.405200	0.357100	0.149800
H5001	H500	0.378600	0.361400	0.103400
C5131	C513	0.365400	0.341100	0.049900
C5141	C514	0.340600	0.401500	0.053700
C5151	C515	0.260000	0.422800	0.048000
C5161	C516	0.198300	0.383600	0.038700
C5171	C517	0.219600	0.323200	0.034800
C5181	C518	0.300900	0.303000	0.040500
C5191	C519	0.476700	0.249000	0.043330
C5201	C520	0.472700	0.195800	0.058980
C5211	C521	0.484300	0.138100	0.047880
C5221	C522	0.496000	0.131200	0.019720
C5231	C523	0.498000	0.182600	0.003430
C5241	C524	0.488400	0.239800	0.015120
C5251	C525	0.528500	0.364700	0.040320
C5261	C526	0.611500	0.375600	0.048450
C5271	C527	0.666500	0.412900	0.033900
C5281	C528	0.640100	0.441400	0.009990
C5291	C529	0.559000	0.430700	0.000820
C5301	C530	0.505200	0.393000	0.015640
C5311	C531	0.480900	0.316600	0.089620
C5321	C532	0.553300	0.289200	0.100650
C5331	C533	0.569900	0.285800	0.128540
C5341	C534	0.516300	0.313000	0.147480
C5351	C535	0.443800	0.340000	0.137510
C5361	C536	0.427600	0.342000	0.109400
B181	B18	0.106800	0.446400	0.261100
H5011	H501	0.951200	0.501600	0.265600
H5021	H502	0.888900	0.583900	0.244300
H5031	H503	0.954600	0.630600	0.207100
H5041	H504	0.082700	0.592400	0.191200
H5051	H505	0.150600	0.517400	0.215900
H5061	H506	0.074300	0.506700	0.310900
H5071	H507	0.152400	0.565400	0.340600
H5081	H508	0.292500	0.588200	0.330600
H5091	H509	0.350900	0.549800	0.290300
H5101	H510	0.274400	0.487100	0.262000
H5111	H511	0.090800	0.401200	0.315700
H5121	H512	0.002900	0.332100	0.336300
H5131	H513	0.897000	0.285200	0.310900
H5141	H514	0.883100	0.308800	0.264500
H5151	H515	0.969000	0.380500	0.244600
H5161	H516	0.237300	0.368900	0.273700
H5171	H517	0.319400	0.301700	0.249300
H5181	H518	0.300200	0.290300	0.202100
H5191	H519	0.198400	0.348500	0.180100
H5201	H520	0.115300	0.414100	0.204800
C5371	C537	0.057400	0.498000	0.242800
C5381	C538	0.979000	0.520300	0.250900
C5391	C539	0.940800	0.569600	0.238000
C5401	C540	0.979900	0.597600	0.215800
C5411	C541	0.057100	0.575700	0.206800
C5421	C542	0.096200	0.528800	0.221080
C5431	C543	0.164600	0.487300	0.282990
C5441	C544	0.130900	0.513800	0.306800
C5451	C545	0.177400	0.550200	0.324600
C5461	C546	0.260700	0.563900	0.318800
C5471	C547	0.295300	0.540300	0.294910
C5481	C548	0.248600	0.502800	0.277770
C5491	C549	0.041100	0.400700	0.277560
C5501	C550	0.048300	0.383400	0.305120
C5511	C551	0.995800	0.341400	0.317700
C5521	C552	0.932900	0.313400	0.302610
C5531	C553	0.924300	0.327900	0.275080
C5541	C554	0.976900	0.371000	0.263120
C5551	C555	0.166700	0.401600	0.242370
C5561	C556	0.228900	0.365400	0.254740
C5571	C557	0.278500	0.324500	0.240150
C5581	C558	0.267300	0.317700	0.212070
C5591	C559	0.206400	0.352200	0.199080
C5601	C560	0.157000	0.392300	0.214040
B191	B19	0.962200	0.181400	0.443400
H5211	H521	0.880300	0.071100	0.439500
H5221	H522	0.747600	0.036100	0.449500
H5231	H523	0.643700	0.102700	0.464800
H5241	H524	0.679200	0.204200	0.471600
H5251	H525	0.813000	0.238000	0.462100
H5261	H526	0.961800	0.300900	0.422200
H5271	H527	0.984200	0.395900	0.440700
H5281	H528	0.002400	0.407300	0.488000
H5291	H529	0.006000	0.321100	0.515500
H5301	H530	0.989700	0.226300	0.496400
H5311	H531	0.131100	0.143200	0.435600
H5321	H532	0.221300	0.081200	0.459600
H5331	H533	0.176200	0.033000	0.499700
H5341	H534	0.040100	0.051100	0.515400
H5351	H535	0.951100	0.113700	0.491200
H5361	H536	0.092300	0.227600	0.411500
H5371	H537	0.117600	0.235000	0.365300
H5381	H538	0.028700	0.186900	0.333700
H5391	H539	0.905200	0.142900	0.350200
H5401	H540	0.878600	0.138600	0.396600
C5611	C561	0.865400	0.158900	0.450100
C5621	C562	0.840600	0.098500	0.446300
C5631	C563	0.760000	0.077200	0.452000
C5641	C564	0.698300	0.116400	0.461300
C5651	C565	0.719600	0.176800	0.465200
C5661	C566	0.800900	0.197000	0.459500
C5671	C567	0.976700	0.251000	0.456670
C5681	C568	0.972700	0.304200	0.441020
C5691	C569	0.984300	0.361900	0.452120
C5701	C570	0.996000	0.368800	0.480280
C5711	C571	0.998000	0.317400	0.496570
C5721	C572	0.988400	0.260200	0.484880
C5731	C573	0.028500	0.135300	0.459680
C5741	C574	0.111500	0.124400	0.451550
C5751	C575	0.166500	0.087100	0.466100
C5761	C576	0.140100	0.058600	0.490010
C5771	C577	0.059000	0.069300	0.499180
C5781	C578	0.005200	0.107000	0.484360
C5791	C579	0.980900	0.183400	0.410380
C5801	C580	0.053300	0.210800	0.399350
C5811	C581	0.069900	0.214200	0.371460
C5821	C582	0.016300	0.187000	0.352520
C5831	C583	0.943800	0.160000	0.362490
C5841	C584	0.927600	0.158000	0.390600
B201	B20	0.606800	0.053600	0.238900
H5411	H541	0.451200	0.998400	0.234400
H5421	H542	0.388900	0.916100	0.255700
H5431	H543	0.454600	0.869400	0.292900
H5441	H544	0.582700	0.907600	0.308800
H5451	H545	0.650600	0.982600	0.284100
H5461	H546	0.574300	0.993300	0.189100
H5471	H547	0.652400	0.934600	0.159400
H5481	H548	0.792500	0.911800	0.169400
H5491	H549	0.850900	0.950200	0.209700
H5501	H550	0.774400	0.012900	0.238000
H5511	H551	0.590800	0.098800	0.184300
H5521	H552	0.502900	0.167900	0.163700
H5531	H553	0.397000	0.214800	0.189100
H5541	H554	0.383100	0.191200	0.235500
H5551	H555	0.469000	0.119500	0.255400
H5561	H556	0.737300	0.131100	0.226300
H5571	H557	0.819400	0.198300	0.250700
H5581	H558	0.800200	0.209700	0.297900
H5591	H559	0.698400	0.151500	0.319900
H5601	H560	0.615300	0.085900	0.295200
C5851	C585	0.557400	0.002000	0.257200
C5861	C586	0.479000	0.979700	0.249100
C5871	C587	0.440800	0.930400	0.262000
C5881	C588	0.479900	0.902400	0.284200
C5891	C589	0.557100	0.924300	0.293200
C5901	C590	0.596200	0.971200	0.278920
C5911	C591	0.664600	0.012700	0.217010
C5921	C592	0.630900	0.986200	0.193200
C5931	C593	0.677400	0.949800	0.175400
C5941	C594	0.760700	0.936100	0.181200
C5951	C595	0.795300	0.959700	0.205090
C5961	C596	0.748600	0.997200	0.222230
C5971	C597	0.541100	0.099300	0.222440
C5981	C598	0.548300	0.116600	0.194880
C5991	C599	0.495800	0.158600	0.182300
C6001	C600	0.432900	0.186600	0.197390
C6011	C601	0.424300	0.172100	0.224920
C6021	C602	0.476900	0.129000	0.236880
C6031	C603	0.666700	0.098400	0.257630
C6041	C604	0.728900	0.134600	0.245260
C6051	C605	0.778500	0.175500	0.259850
C6061	C606	0.767300	0.182300	0.287930
C6071	C607	0.706400	0.147800	0.300920
C6081	C608	0.657000	0.107700	0.285960
B211	B21	0.037800	0.318600	0.943400
H5611	H561	0.119700	0.428900	0.939500
H5621	H562	0.252400	0.463900	0.949500
H5631	H563	0.356300	0.397300	0.964800
H5641	H564	0.320800	0.295800	0.971600
H5651	H565	0.187000	0.262000	0.962100
H5661	H566	0.038200	0.199100	0.922200
H5671	H567	0.015800	0.104100	0.940700
H5681	H568	0.997600	0.092700	0.988000
H5691	H569	0.994000	0.178900	0.015500
H5701	H570	0.010300	0.273700	0.996400
H5711	H571	0.868900	0.356800	0.935600
H5721	H572	0.778700	0.418800	0.959600
H5731	H573	0.823800	0.467000	0.999700
H5741	H574	0.959900	0.448900	0.015400
H5751	H575	0.048900	0.386300	0.991200
H5761	H576	0.907700	0.272400	0.911500
H5771	H577	0.882400	0.265000	0.865300
H5781	H578	0.971300	0.313100	0.833700
H5791	H579	0.094800	0.357100	0.850200
H5801	H580	0.121400	0.361400	0.896600
C6091	C609	0.134600	0.341100	0.950100
C6101	C610	0.159400	0.401500	0.946300
C6111	C611	0.240000	0.422800	0.952000
C6121	C612	0.301700	0.383600	0.961300
C6131	C613	0.280400	0.323200	0.965200
C6141	C614	0.199100	0.303000	0.959500
C6151	C615	0.023300	0.249000	0.956670
C6161	C616	0.027300	0.195800	0.941020
C6171	C617	0.015700	0.138100	0.952120
C6181	C618	0.004000	0.131200	0.980280
C6191	C619	0.002000	0.182600	0.996570
C6201	C620	0.011600	0.239800	0.984880
C6211	C621	0.971500	0.364700	0.959680
C6221	C622	0.888500	0.375600	0.951550
C6231	C623	0.833500	0.412900	0.966100
C6241	C624	0.859900	0.441400	0.990010
C6251	C625	0.941000	0.430700	0.999180
C6261	C626	0.994800	0.393000	0.984360
C6271	C627	0.019100	0.316600	0.910380
C6281	C628	0.946700	0.289200	0.899350
C6291	C629	0.930100	0.285800	0.871460
C6301	C630	0.983700	0.313000	0.852520
C6311	C631	0.056200	0.340000	0.862490
C6321	C632	0.072400	0.342000	0.890600
B221	B22	0.393200	0.446400	0.738900
H5811	H581	0.548800	0.501600	0.734400
H5821	H582	0.611100	0.583900	0.755700
H5831	H583	0.545400	0.630600	0.792900
H5841	H584	0.417300	0.592400	0.808800
H5851	H585	0.349400	0.517400	0.784100
H5861	H586	0.425700	0.506700	0.689100
H5871	H587	0.347600	0.565400	0.659400
H5881	H588	0.207500	0.588200	0.669400
H5891	H589	0.149100	0.549800	0.709700
H5901	H590	0.225600	0.487100	0.738000
H5911	H591	0.409200	0.401200	0.684300
H5921	H592	0.497100	0.332100	0.663700
H5931	H593	0.603000	0.285200	0.689100
H5941	H594	0.616900	0.308800	0.735500
H5951	H595	0.531000	0.380500	0.755400
H5961	H596	0.262700	0.368900	0.726300
H5971	H597	0.180600	0.301700	0.750700
H5981	H598	0.199800	0.290300	0.797900
H5991	H599	0.301600	0.348500	0.819900
H6001	H600	0.384700	0.414100	0.795200
C6331	C633	0.442600	0.498000	0.757200
C6341	C634	0.521000	0.520300	0.749100
C6351	C635	0.559200	0.569600	0.762000
C6361	C636	0.520100	0.597600	0.784200
C6371	C637	0.442900	0.575700	0.793200
C6381	C638	0.403800	0.528800	0.778920
C6391	C639	0.335400	0.487300	0.717010
C6401	C640	0.369100	0.513800	0.693200
C6411	C641	0.322600	0.550200	0.675400
C6421	C642	0.239300	0.563900	0.681200
C6431	C643	0.204700	0.540300	0.705090
C6441	C644	0.251400	0.502800	0.722230
C6451	C645	0.458900	0.400700	0.722440
C6461	C646	0.451700	0.383400	0.694880
C6471	C647	0.504200	0.341400	0.682300
C6481	C648	0.567100	0.313400	0.697390
C6491	C649	0.575700	0.327900	0.724920
C6501	C650	0.523100	0.371000	0.736880
C6511	C651	0.333300	0.401600	0.757630
C6521	C652	0.271100	0.365400	0.745260
C6531	C653	0.221500	0.324500	0.759850
C6541	C654	0.232700	0.317700	0.787930
C6551	C655	0.293600	0.352200	0.800920
C6561	C656	0.343000	0.392300	0.785960
B231	B23	0.537800	0.181400	0.556600
H6011	H601	0.619700	0.071100	0.560500
H6021	H602	0.752400	0.036100	0.550500
H6031	H603	0.856300	0.102700	0.535200
H6041	H604	0.820800	0.204200	0.528400
H6051	H605	0.687000	0.238000	0.537900
H6061	H606	0.538200	0.300900	0.577800
H6071	H607	0.515800	0.395900	0.559300
H6081	H608	0.497600	0.407300	0.512000
H6091	H609	0.494000	0.321100	0.484500
H6101	H610	0.510300	0.226300	0.503600
H6111	H611	0.368900	0.143200	0.564400
H6121	H612	0.278700	0.081200	0.540400
H6131	H613	0.323800	0.033000	0.500300
H6141	H614	0.459900	0.051100	0.484600
H6151	H615	0.548900	0.113700	0.508800
H6161	H616	0.407700	0.227600	0.588500
H6171	H617	0.382400	0.235000	0.634700
H6181	H618	0.471300	0.186900	0.666300
H6191	H619	0.594800	0.142900	0.649800
H6201	H620	0.621400	0.138600	0.603400
C6571	C657	0.634600	0.158900	0.549900
C6581	C658	0.659400	0.098500	0.553700
C6591	C659	0.740000	0.077200	0.548000
C6601	C660	0.801700	0.116400	0.538700
C6611	C661	0.780400	0.176800	0.534800
C6621	C662	0.699100	0.197000	0.540500
C6631	C663	0.523300	0.251000	0.543330
C6641	C664	0.527300	0.304200	0.558980
C6651	C665	0.515700	0.361900	0.547880
C6661	C666	0.504000	0.368800	0.519720
C6671	C667	0.502000	0.317400	0.503430
C6681	C668	0.511600	0.260200	0.515120
C6691	C669	0.471500	0.135300	0.540320
C6701	C670	0.388500	0.124400	0.548450
C6711	C671	0.333500	0.087100	0.533900
C6721	C672	0.359900	0.058600	0.509990
C6731	C673	0.441000	0.069300	0.500820
C6741	C674	0.494800	0.107000	0.515640
C6751	C675	0.519100	0.183400	0.589620
C6761	C676	0.446700	0.210800	0.600650
C6771	C677	0.430100	0.214200	0.628540
C6781	C678	0.483700	0.187000	0.647480
C6791	C679	0.556200	0.160000	0.637510
C6801	C680	0.572400	0.158000	0.609400
B241	B24	0.893200	0.053600	0.761100
H6211	H621	0.048800	0.998400	0.765600
H6221	H622	0.111100	0.916100	0.744300
H6231	H623	0.045400	0.869400	0.707100
H6241	H624	0.917300	0.907600	0.691200
H6251	H625	0.849400	0.982600	0.715900
H6261	H626	0.925700	0.993300	0.810900
H6271	H627	0.847600	0.934600	0.840600
H6281	H628	0.707500	0.911800	0.830600
H6291	H629	0.649100	0.950200	0.790300
H6301	H630	0.725600	0.012900	0.762000
H6311	H631	0.909200	0.098800	0.815700
H6321	H632	0.997100	0.167900	0.836300
H6331	H633	0.103000	0.214800	0.810900
H6341	H634	0.116900	0.191200	0.764500
H6351	H635	0.031000	0.119500	0.744600
H6361	H636	0.762700	0.131100	0.773700
H6371	H637	0.680600	0.198300	0.749300
H6381	H638	0.699800	0.209700	0.702100
H6391	H639	0.801600	0.151500	0.680100
H6401	H640	0.884700	0.085900	0.704800
C6811	C681	0.942600	0.002000	0.742800
C6821	C682	0.021000	0.979700	0.750900
C6831	C683	0.059200	0.930400	0.738000
C6841	C684	0.020100	0.902400	0.715800
C6851	C685	0.942900	0.924300	0.706800
C6861	C686	0.903800	0.971200	0.721080
C6871	C687	0.835400	0.012700	0.782990
C6881	C688	0.869100	0.986200	0.806800
C6891	C689	0.822600	0.949800	0.824600
C6901	C690	0.739300	0.936100	0.818800
C6911	C691	0.704700	0.959700	0.794910
C6921	C692	0.751400	0.997200	0.777770
C6931	C693	0.958900	0.099300	0.777560
C6941	C694	0.951700	0.116600	0.805120
C6951	C695	0.004200	0.158600	0.817700
C6961	C696	0.067100	0.186600	0.802610
C6971	C697	0.075700	0.172100	0.775080
C6981	C698	0.023100	0.129000	0.763120
C6991	C699	0.833300	0.098400	0.742370
C7001	C700	0.771100	0.134600	0.754740
C7011	C701	0.721500	0.175500	0.740150
C7021	C702	0.732700	0.182300	0.712070
C7031	C703	0.793600	0.147800	0.699080
C7041	C704	0.843000	0.107700	0.714040
