data_QIDDAI_clean_h_PM
_symmetry_space_group_name_H-M	'P1'
_cell_length_a	13.045500
_cell_length_b	13.045500
_cell_length_c	16.685000
_cell_angle_alpha	109.471000
_cell_angle_beta	109.471000
_cell_angle_gamma	93.705600
_symmetry_Int_Tables_number 1

loop_
_symmetry_equiv_pos_as_xyz
'x,y,z'

loop_
_atom_site_label
_atom_site_type_symbol
_atom_site_fract_x
_atom_site_fract_y
_atom_site_fract_z
Cd11	Cd1	0.847990	0.603010	0.059800
Cd21	Cd2	0.603010	0.847990	0.559800
C11	C1	0.033600	0.514400	0.981000
C21	C2	0.833500	0.432500	0.857000
C31	C3	0.070900	0.455100	0.908000
C41	C4	0.880200	0.373800	0.794000
C51	C5	0.998100	0.389900	0.814000
C61	C6	0.025300	0.310700	0.732000
C71	C7	0.138800	0.277200	0.785000
C81	C8	0.247600	0.333200	0.808000
C91	C9	0.121300	0.168700	0.782000
C101	C10	0.333100	0.282900	0.845000
C111	C11	0.218300	0.129700	0.816000
C121	C12	0.324500	0.183500	0.855000
C131	C13	0.410300	0.117700	0.878000
C141	C14	0.456400	0.069600	0.806000
C151	C15	0.572000	0.074000	0.828000
C161	C16	0.385300	0.002700	0.724000
C171	C17	0.597700	0.010300	0.749000
C181	C18	0.425500	0.942500	0.654000
C191	C19	0.874500	0.853500	0.208000
C201	C20	0.727000	0.727000	0.194000
C211	C21	0.856000	0.942000	0.263000
C221	C22	0.702600	0.821400	0.258000
C231	C23	0.764000	0.926000	0.292000
C241	C24	0.728300	0.023700	0.358000
C251	C25	0.731300	0.128700	0.331000
C261	C26	0.813500	0.220500	0.375000
C271	C27	0.641000	0.137000	0.263000
C281	C28	0.806600	0.315400	0.351000
C291	C29	0.626400	0.221600	0.239000
C301	C30	0.712300	0.321700	0.279000
C311	C31	0.694200	0.415800	0.246000
C321	C32	0.681900	0.512100	0.322000
C331	C33	0.752900	0.615100	0.366000
C341	C34	0.582300	0.497700	0.338000
C351	C35	0.726500	0.705500	0.429000
C361	C36	0.559100	0.596900	0.406000
C371	C37	0.514400	0.033600	0.481000
C381	C38	0.432500	0.833500	0.357000
C391	C39	0.455100	0.070900	0.408000
C401	C40	0.373800	0.880200	0.294000
C411	C41	0.389900	0.998100	0.314000
C421	C42	0.310700	0.025300	0.232000
C431	C43	0.277200	0.138800	0.285000
C441	C44	0.333200	0.247600	0.308000
C451	C45	0.168700	0.121300	0.282000
C461	C46	0.282900	0.333100	0.345000
C471	C47	0.129700	0.218300	0.316000
C481	C48	0.183500	0.324500	0.355000
C491	C49	0.117700	0.410300	0.378000
C501	C50	0.069600	0.456400	0.306000
C511	C51	0.074000	0.572000	0.328000
C521	C52	0.002700	0.385300	0.224000
C531	C53	0.010300	0.597700	0.249000
C541	C54	0.942500	0.425500	0.154000
C551	C55	0.853500	0.874500	0.708000
C561	C56	0.727000	0.727000	0.694000
C571	C57	0.942000	0.856000	0.763000
C581	C58	0.821400	0.702600	0.758000
C591	C59	0.926000	0.764000	0.792000
C601	C60	0.023700	0.728300	0.858000
C611	C61	0.128700	0.731300	0.831000
C621	C62	0.220500	0.813500	0.875000
C631	C63	0.137000	0.641000	0.763000
C641	C64	0.315400	0.806600	0.851000
C651	C65	0.221600	0.626400	0.739000
C661	C66	0.321700	0.712300	0.779000
C671	C67	0.415800	0.694200	0.746000
C681	C68	0.512100	0.681900	0.822000
C691	C69	0.615100	0.752900	0.866000
C701	C70	0.497700	0.582300	0.838000
C711	C71	0.705500	0.726500	0.929000
C721	C72	0.596900	0.559100	0.906000
N11	N1	0.924700	0.505100	0.951000
N21	N2	0.816400	0.749600	0.174000
N31	N3	0.541900	0.956300	0.672000
N41	N4	0.632900	0.693100	0.448000
N51	N5	0.505100	0.924700	0.451000
N61	N6	0.749600	0.816400	0.674000
N71	N7	0.956300	0.541900	0.172000
N81	N8	0.693100	0.632900	0.948000
F11	F1	0.260600	0.430000	0.807200
F21	F2	0.014900	0.110700	0.753700
F31	F3	0.433800	0.344400	0.873500
F41	F4	0.190700	0.020500	0.820000
F51	F5	0.914600	0.235800	0.453100
F61	F6	0.558700	0.044300	0.219500
F71	F7	0.892000	0.404800	0.399300
F81	F8	0.542700	0.227500	0.176200
F91	F9	0.430000	0.260600	0.307200
F101	F10	0.110700	0.014900	0.253700
F111	F11	0.344400	0.433800	0.373500
F121	F12	0.020500	0.190700	0.320000
F131	F13	0.235800	0.914600	0.953100
F141	F14	0.044300	0.558700	0.719500
F151	F15	0.404800	0.892000	0.899300
F161	F16	0.227500	0.542700	0.676200
H11	H1	0.096620	0.561380	0.053790
H21	H2	0.739600	0.422270	0.835000
H31	H3	0.163240	0.458270	0.923290
H41	H4	0.824020	0.310350	0.723690
H51	H5	0.633200	0.123640	0.901010
H61	H6	0.292380	0.992280	0.708250
H71	H7	0.687600	0.007450	0.756940
H81	H8	0.364240	0.883450	0.583770
H91	H9	0.946230	0.860480	0.184310
H101	H10	0.672080	0.641320	0.164490
H111	H11	0.910440	0.026410	0.286010
H121	H12	0.630910	0.808280	0.280440
H131	H13	0.831770	0.628010	0.352280
H141	H14	0.522360	0.414170	0.300710
H151	H15	0.784150	0.790340	0.464690
H161	H16	0.480030	0.588280	0.420250
H171	H17	0.561380	0.096620	0.553790
H181	H18	0.422270	0.739600	0.335000
H191	H19	0.458270	0.163240	0.423290
H201	H20	0.310350	0.824020	0.223690
H211	H21	0.123640	0.633200	0.401010
H221	H22	0.992280	0.292380	0.208250
H231	H23	0.007450	0.687600	0.256940
H241	H24	0.883450	0.364240	0.083770
H251	H25	0.860480	0.946230	0.684310
H261	H26	0.641320	0.672080	0.664490
H271	H27	0.026410	0.910440	0.786010
H281	H28	0.808280	0.630910	0.780440
H291	H29	0.628010	0.831770	0.852280
H301	H30	0.414170	0.522360	0.800710
H311	H31	0.790340	0.784150	0.964690
H321	H32	0.588280	0.480030	0.920250
H331	H33	0.040360	0.357190	0.688710
H341	H34	0.953950	0.236290	0.688200
H351	H35	0.137200	0.318310	0.856410
H361	H36	0.324370	0.219710	0.927290
H371	H37	0.373080	0.047110	0.892000
H381	H38	0.483430	0.172500	0.942830
H391	H39	0.787820	0.047010	0.431990
H401	H40	0.640530	0.994830	0.351550
H411	H41	0.771170	0.089170	0.279930
H421	H42	0.750470	0.282840	0.226500
H431	H43	0.615490	0.388790	0.181540
H441	H44	0.768400	0.440980	0.230270
H451	H45	0.234040	0.956350	0.188830
H461	H46	0.357830	0.036850	0.188080
H471	H47	0.318310	0.137200	0.356410
H481	H48	0.219710	0.324370	0.427290
H491	H49	0.172980	0.481470	0.444130
H501	H50	0.045040	0.373680	0.390050
H511	H51	0.994490	0.640670	0.851670
H521	H52	0.047440	0.787940	0.932010
H531	H53	0.089170	0.771170	0.779930
H541	H54	0.282840	0.750470	0.726500
H551	H55	0.441870	0.768560	0.730810
H561	H56	0.388090	0.615870	0.681170
