data_QIDDAI01_clean_h_PM
_symmetry_space_group_name_H-M	'P1'
_cell_length_a	13.045500
_cell_length_b	13.045500
_cell_length_c	16.685000
_cell_angle_alpha	109.471000
_cell_angle_beta	109.471000
_cell_angle_gamma	93.705600
_symmetry_Int_Tables_number 1

loop_
_symmetry_equiv_pos_as_xyz
'x,y,z'

loop_
_atom_site_label
_atom_site_type_symbol
_atom_site_fract_x
_atom_site_fract_y
_atom_site_fract_z
Cd11	Cd1	0.122490	0.877510	0.750000
Cd21	Cd2	0.877510	0.122490	0.250000
C11	C1	0.304050	0.785950	0.663500
C21	C2	0.117900	0.711100	0.554000
C31	C3	0.342800	0.726200	0.592000
C41	C4	0.154100	0.649900	0.483000
C51	C5	0.270850	0.660150	0.504000
C61	C6	0.307500	0.596500	0.427000
C71	C7	0.407150	0.546850	0.465000
C81	C8	0.514650	0.601750	0.496000
C91	C9	0.605900	0.557100	0.531500
C101	C10	0.157700	0.128300	0.901000
C111	C11	0.000250	0.010750	0.882500
C121	C12	0.136850	0.222150	0.962500
C131	C13	0.974850	0.103150	0.946000
C141	C14	0.041050	0.206950	0.985000
C151	C15	0.017050	0.303950	0.056000
C161	C16	0.009500	0.403500	0.026000
C171	C17	0.093550	0.499450	0.068000
C181	C18	0.082800	0.589200	0.044000
C191	C19	0.214050	0.695950	0.836500
C201	C20	0.288900	0.882100	0.946000
C211	C21	0.273800	0.657200	0.908000
C221	C22	0.350100	0.845900	0.017000
C231	C23	0.339850	0.729150	0.996000
C241	C24	0.403500	0.692500	0.073000
C251	C25	0.453150	0.592850	0.035000
C261	C26	0.398250	0.485350	0.004000
C271	C27	0.442900	0.394100	0.968500
C281	C28	0.871700	0.842300	0.599000
C291	C29	0.989250	0.999750	0.617500
C301	C30	0.777850	0.863150	0.537500
C311	C31	0.896850	0.025150	0.554000
C321	C32	0.793050	0.958950	0.515000
C331	C33	0.696050	0.982950	0.444000
C341	C34	0.596500	0.990500	0.474000
C351	C35	0.500550	0.906450	0.432000
C361	C36	0.410800	0.917200	0.456000
C371	C37	0.695950	0.214050	0.336500
C381	C38	0.882100	0.288900	0.446000
C391	C39	0.657200	0.273800	0.408000
C401	C40	0.845900	0.350100	0.517000
C411	C41	0.729150	0.339850	0.496000
C421	C42	0.692500	0.403500	0.573000
C431	C43	0.592850	0.453150	0.535000
C441	C44	0.485350	0.398250	0.504000
C451	C45	0.394100	0.442900	0.468500
C461	C46	0.842300	0.871700	0.099000
C471	C47	0.999750	0.989250	0.117500
C481	C48	0.863150	0.777850	0.037500
C491	C49	0.025150	0.896850	0.054000
C501	C50	0.958950	0.793050	0.015000
C511	C51	0.982950	0.696050	0.944000
C521	C52	0.990500	0.596500	0.974000
C531	C53	0.906450	0.500550	0.932000
C541	C54	0.917200	0.410800	0.956000
C551	C55	0.785950	0.304050	0.163500
C561	C56	0.711100	0.117900	0.054000
C571	C57	0.726200	0.342800	0.092000
C581	C58	0.649900	0.154100	0.983000
C591	C59	0.660150	0.270850	0.004000
C601	C60	0.596500	0.307500	0.927000
C611	C61	0.546850	0.407150	0.965000
C621	C62	0.601750	0.514650	0.996000
C631	C63	0.557100	0.605900	0.031500
C641	C64	0.128300	0.157700	0.401000
C651	C65	0.010750	0.000250	0.382500
C661	C66	0.222150	0.136850	0.462500
C671	C67	0.103150	0.974850	0.446000
C681	C68	0.206950	0.041050	0.485000
C691	C69	0.303950	0.017050	0.556000
C701	C70	0.403500	0.009500	0.526000
C711	C71	0.499450	0.093550	0.568000
C721	C72	0.589200	0.082800	0.544000
N11	N1	0.191400	0.774400	0.639500
N21	N2	0.091750	0.028250	0.863000
N31	N3	0.225600	0.808600	0.860500
N41	N4	0.971750	0.908250	0.637000
N51	N5	0.808600	0.225600	0.360500
N61	N6	0.908250	0.971750	0.137000
N71	N7	0.774400	0.191400	0.139500
N81	N8	0.028250	0.091750	0.363000
F11	F1	0.534950	0.704750	0.493600
F21	F2	0.709450	0.616850	0.559900
F31	F3	0.185950	0.504150	0.138450
F41	F4	0.166650	0.680250	0.089900
F51	F5	0.295250	0.465050	0.006400
F61	F6	0.383150	0.290550	0.940100
F71	F7	0.495850	0.814050	0.361550
F81	F8	0.319750	0.833350	0.410100
F91	F9	0.465050	0.295250	0.506400
F101	F10	0.290550	0.383150	0.440100
F111	F11	0.814050	0.495850	0.861550
F121	F12	0.833350	0.319750	0.910100
F131	F13	0.704750	0.534950	0.993600
F141	F14	0.616850	0.709450	0.059900
F151	F15	0.504150	0.185950	0.638450
F161	F16	0.680250	0.166650	0.589900
H11	H1	0.366420	0.839040	0.735240
H21	H2	0.025550	0.707140	0.539110
H31	H3	0.435520	0.732930	0.607630
H41	H4	0.090500	0.595100	0.412300
H51	H5	0.331800	0.655270	0.395950
H61	H6	0.236310	0.526880	0.371710
H71	H7	0.406360	0.585660	0.536900
H81	H8	0.233360	0.136560	0.882190
H91	H9	0.943940	0.925400	0.849960
H101	H10	0.195110	0.306000	0.992280
H111	H11	0.899300	0.089880	0.963910
H121	H12	0.086830	0.329150	0.126090
H131	H13	0.935150	0.276340	0.060560
H141	H14	0.048520	0.364280	0.974210
H151	H15	0.160960	0.633580	0.764760
H161	H16	0.292860	0.974450	0.960890
H171	H17	0.267070	0.564480	0.892370
H181	H18	0.404900	0.909500	0.087700
H191	H19	0.344730	0.668200	0.104050
H201	H20	0.473120	0.763690	0.128290
H211	H21	0.414340	0.593640	0.963100
H221	H22	0.863440	0.766640	0.617810
H231	H23	0.074600	0.056060	0.650040
H241	H24	0.694000	0.804890	0.507720
H251	H25	0.910120	0.100700	0.536090
H261	H26	0.670850	0.913170	0.373910
H271	H27	0.723660	0.064850	0.439440
H281	H28	0.635720	0.951480	0.525790
H291	H29	0.633580	0.160960	0.264760
H301	H30	0.974450	0.292860	0.460890
H311	H31	0.564480	0.267070	0.392370
H321	H32	0.909500	0.404900	0.587700
H331	H33	0.766640	0.863440	0.117810
H341	H34	0.056060	0.074600	0.150040
H351	H35	0.804890	0.694000	0.007720
H361	H36	0.100700	0.910120	0.036090
H371	H37	0.839040	0.366420	0.235240
H381	H38	0.707140	0.025550	0.039110
H391	H39	0.732930	0.435520	0.107630
H401	H40	0.595100	0.090500	0.912300
H411	H41	0.526990	0.236220	0.871690
H421	H42	0.655240	0.331950	0.895980
H431	H43	0.585660	0.406360	0.036900
H441	H44	0.136560	0.233360	0.382190
H451	H45	0.925400	0.943940	0.349960
H461	H46	0.306000	0.195110	0.492280
H471	H47	0.089880	0.899300	0.463910
H481	H48	0.276280	0.935190	0.560580
H491	H49	0.329230	0.086840	0.626090
H501	H50	0.364280	0.048520	0.474210
H511	H51	0.763780	0.473010	0.628310
H521	H52	0.668050	0.344760	0.604020
H531	H53	0.593640	0.414340	0.463100
