data_QIJLAW_clean_PM
_symmetry_space_group_name_H-M	'P1'
_cell_length_a	13.959300
_cell_length_b	17.200000
_cell_length_c	20.858700
_cell_angle_alpha	90.000000
_cell_angle_beta	90.000000
_cell_angle_gamma	90.000000
_symmetry_Int_Tables_number 1

loop_
_symmetry_equiv_pos_as_xyz
'x,y,z'

loop_
_atom_site_label
_atom_site_type_symbol
_atom_site_fract_x
_atom_site_fract_y
_atom_site_fract_z
Mn11	Mn1	0.877450	0.199850	0.074200
Mn21	Mn2	0.031900	0.199360	0.419410
N11	N1	0.827290	0.207060	0.174880
C11	C1	0.806770	0.209300	0.227770
N21	N2	0.885550	0.217080	0.377840
C21	C2	0.837210	0.213770	0.333620
N31	N3	0.774030	0.209370	0.286710
N41	N4	0.024180	0.188380	0.116500
C31	C3	0.073000	0.182520	0.160520
N51	N5	0.089270	0.191980	0.320350
C41	C4	0.106830	0.185800	0.266580
N61	N6	0.135440	0.175960	0.207160
N71	N7	0.930330	0.200270	0.972710
C51	C5	0.991580	0.233070	0.948230
N81	N8	0.222180	0.285330	0.947480
C61	C6	0.142340	0.277870	0.934520
N91	N9	0.053700	0.273330	0.915730
N101	N10	0.902930	0.326440	0.069250
C71	C7	0.946590	0.381530	0.058270
N111	N11	0.991420	0.573840	0.076030
C81	C8	0.990960	0.509380	0.062460
N121	N12	0.002840	0.438730	0.041980
N131	N13	0.176260	0.181170	0.461710
C91	C9	0.258700	0.183480	0.460380
N141	N14	0.463280	0.284840	0.482240
C101	C10	0.406280	0.237020	0.471850
N151	N15	0.352180	0.178030	0.457210
N161	N16	0.940050	0.824560	0.082810
C111	C11	0.895180	0.879720	0.088420
N171	N17	0.864130	0.073370	0.069680
C121	C12	0.855910	0.008510	0.081090
N181	N18	0.835400	0.937010	0.096880
Mn31	Mn3	0.622550	0.800150	0.574200
Mn41	Mn4	0.468100	0.800640	0.919410
N191	N19	0.672710	0.792940	0.674880
C131	C13	0.693230	0.790700	0.727770
N201	N20	0.614450	0.782920	0.877840
C141	C14	0.662790	0.786230	0.833620
N211	N21	0.725970	0.790630	0.786710
N221	N22	0.475820	0.811620	0.616500
C151	C15	0.427000	0.817480	0.660520
N231	N23	0.410730	0.808020	0.820350
C161	C16	0.393170	0.814200	0.766580
N241	N24	0.364560	0.824040	0.707160
N251	N25	0.569670	0.799730	0.472710
C171	C17	0.508420	0.766930	0.448230
N261	N26	0.277820	0.714670	0.447480
C181	C18	0.357660	0.722130	0.434520
N271	N27	0.446300	0.726670	0.415730
N281	N28	0.597070	0.673560	0.569250
C191	C19	0.553410	0.618470	0.558270
N291	N29	0.508580	0.426160	0.576030
C201	C20	0.509040	0.490620	0.562460
N301	N30	0.497160	0.561270	0.541980
N311	N31	0.323740	0.818830	0.961710
C211	C21	0.241300	0.816520	0.960380
N321	N32	0.036720	0.715160	0.982240
C221	C22	0.093720	0.762980	0.971850
N331	N33	0.147820	0.821970	0.957210
N341	N34	0.559950	0.175440	0.582810
C231	C23	0.604820	0.120280	0.588420
N351	N35	0.635870	0.926630	0.569680
C241	C24	0.644090	0.991490	0.581090
N361	N36	0.664600	0.062990	0.596880
Mn51	Mn5	0.122550	0.699850	0.425800
Mn61	Mn6	0.968100	0.699360	0.080590
N371	N37	0.172710	0.707060	0.325120
C251	C25	0.193230	0.709300	0.272230
N381	N38	0.114450	0.717080	0.122160
C261	C26	0.162790	0.713770	0.166380
N391	N39	0.225970	0.709370	0.213290
N401	N40	0.975820	0.688380	0.383500
C271	C27	0.927000	0.682520	0.339480
N411	N41	0.910730	0.691980	0.179650
C281	C28	0.893170	0.685800	0.233420
N421	N42	0.864560	0.675960	0.292840
N431	N43	0.069670	0.700270	0.527290
C291	C29	0.008420	0.733070	0.551770
N441	N44	0.777820	0.785330	0.552520
C301	C30	0.857660	0.777870	0.565480
N451	N45	0.946300	0.773330	0.584270
N461	N46	0.097070	0.826440	0.430750
C311	C31	0.053410	0.881530	0.441730
N471	N47	0.008580	0.073840	0.423970
C321	C32	0.009040	0.009380	0.437540
N481	N48	0.997160	0.938730	0.458020
N491	N49	0.823740	0.681170	0.038290
C331	C33	0.741300	0.683480	0.039620
N501	N50	0.536720	0.784840	0.017760
C341	C34	0.593720	0.737020	0.028150
N511	N51	0.647820	0.678030	0.042790
N521	N52	0.059950	0.324560	0.417190
C351	C35	0.104820	0.379720	0.411580
N531	N53	0.135870	0.573370	0.430320
C361	C36	0.144090	0.508510	0.418910
N541	N54	0.164600	0.437010	0.403120
Mn71	Mn7	0.377450	0.300150	0.925800
Mn81	Mn8	0.531900	0.300640	0.580590
N551	N55	0.327290	0.292940	0.825120
C371	C37	0.306770	0.290700	0.772230
N561	N56	0.385550	0.282920	0.622160
C381	C38	0.337210	0.286230	0.666380
N571	N57	0.274030	0.290630	0.713290
N581	N58	0.524180	0.311620	0.883500
C391	C39	0.573000	0.317480	0.839480
N591	N59	0.589270	0.308020	0.679650
C401	C40	0.606830	0.314200	0.733420
N601	N60	0.635440	0.324040	0.792840
N611	N61	0.430330	0.299730	0.027290
C411	C41	0.491580	0.266930	0.051770
N621	N62	0.722180	0.214670	0.052520
C421	C42	0.642340	0.222130	0.065480
N631	N63	0.553700	0.226670	0.084270
N641	N64	0.402930	0.173560	0.930750
C431	C43	0.446590	0.118470	0.941730
N651	N65	0.491420	0.926160	0.923970
C441	C44	0.490960	0.990620	0.937540
N661	N66	0.502840	0.061270	0.958020
N671	N67	0.676260	0.318830	0.538290
C451	C45	0.758700	0.316520	0.539620
N681	N68	0.963280	0.215160	0.517760
C461	C46	0.906280	0.262980	0.528150
N691	N69	0.852180	0.321970	0.542790
N701	N70	0.440050	0.675440	0.917190
C471	C47	0.395180	0.620280	0.911580
N711	N71	0.364130	0.426630	0.930320
C481	C48	0.355910	0.491490	0.918910
N721	N72	0.335400	0.562990	0.903120
