data_QIRYAS_clean_PM
_symmetry_space_group_name_H-M	'P1'
_cell_length_a	11.119300
_cell_length_b	11.247300
_cell_length_c	11.362000
_cell_angle_alpha	75.651000
_cell_angle_beta	66.119000
_cell_angle_gamma	76.991000
_symmetry_Int_Tables_number 1

loop_
_symmetry_equiv_pos_as_xyz
'x,y,z'

loop_
_atom_site_label
_atom_site_type_symbol
_atom_site_fract_x
_atom_site_fract_y
_atom_site_fract_z
Co11	Co1	0.891060	0.611390	0.501230
Co21	Co2	0.971090	0.431270	0.289950
Co31	Co3	0.999170	0.642260	0.991090
Co41	Co4	0.108940	0.388610	0.498770
Co51	Co5	0.028910	0.568730	0.710050
Co61	Co6	0.000830	0.357740	0.008910
H11	H1	0.126800	0.476100	0.078100
H21	H2	0.027800	0.967500	0.142700
H31	H3	0.858200	0.074500	0.497000
H41	H4	0.815000	0.873300	0.592000
H51	H5	0.451900	0.580400	0.861700
H61	H6	0.419200	0.651100	0.506700
H71	H7	0.644000	0.673500	0.409800
H81	H8	0.873200	0.523900	0.921900
H91	H9	0.972200	0.032500	0.857300
H101	H10	0.141800	0.925500	0.503000
H111	H11	0.185000	0.126700	0.408000
H121	H12	0.548100	0.419600	0.138300
H131	H13	0.580800	0.348900	0.493300
H141	H14	0.356000	0.326500	0.590200
C11	C1	0.985000	0.726500	0.226600
C21	C2	0.955000	0.832300	0.298700
C31	C3	0.985300	0.949800	0.235100
C41	C4	0.951900	0.041600	0.310000
C51	C5	0.885500	0.012600	0.444200
C61	C6	0.859700	0.892800	0.500000
C71	C7	0.987800	0.170700	0.246300
C81	C8	0.718200	0.586200	0.775600
C91	C9	0.623200	0.606800	0.704500
C101	C10	0.489700	0.597400	0.768900
C111	C11	0.411700	0.613300	0.695000
C121	C12	0.470300	0.640400	0.559300
C131	C13	0.604800	0.651600	0.502200
C141	C14	0.267000	0.597800	0.759600
C151	C15	0.015000	0.273500	0.773400
C161	C16	0.045000	0.167700	0.701300
C171	C17	0.014700	0.050200	0.764900
C181	C18	0.048100	0.958400	0.690000
C191	C19	0.114500	0.987400	0.555800
C201	C20	0.140300	0.107200	0.500000
C211	C21	0.012200	0.829300	0.753700
C221	C22	0.281800	0.413800	0.224400
C231	C23	0.376800	0.393200	0.295500
C241	C24	0.510300	0.402600	0.231100
C251	C25	0.588300	0.386700	0.305000
C261	C26	0.529700	0.359600	0.440700
C271	C27	0.395200	0.348400	0.497800
C281	C28	0.733000	0.402200	0.240400
N11	N1	0.895200	0.803300	0.429300
N21	N2	0.680900	0.632600	0.572800
N31	N3	0.104800	0.196700	0.570700
N41	N4	0.319100	0.367400	0.427200
O11	O1	0.951100	0.624500	0.299700
O21	O2	0.035300	0.746000	0.104300
O31	O3	0.963500	0.244000	0.322400
O41	O4	0.039300	0.191600	0.123600
O51	O5	0.838400	0.594400	0.699600
O61	O6	0.676800	0.564800	0.896200
O71	O7	0.201900	0.641100	0.862500
O81	O8	0.225200	0.542000	0.702800
O91	O9	0.050600	0.471100	0.094100
O101	O10	0.081700	0.574300	0.509700
O111	O11	0.048900	0.375500	0.700300
O121	O12	0.964700	0.254000	0.895700
O131	O13	0.036500	0.756000	0.677600
O141	O14	0.960700	0.808400	0.876400
O151	O15	0.161600	0.405600	0.300400
O161	O16	0.323200	0.435200	0.103800
O171	O17	0.798100	0.358900	0.137500
O181	O18	0.774800	0.458000	0.297200
O191	O19	0.949400	0.528900	0.905900
O201	O20	0.918300	0.425700	0.490300
