data_QISNIR_clean_PM
_symmetry_space_group_name_H-M	'P1'
_cell_length_a	12.917900
_cell_length_b	15.283900
_cell_length_c	15.426600
_cell_angle_alpha	90.000000
_cell_angle_beta	90.000000
_cell_angle_gamma	90.000000
_symmetry_Int_Tables_number 1

loop_
_symmetry_equiv_pos_as_xyz
'x,y,z'

loop_
_atom_site_label
_atom_site_type_symbol
_atom_site_fract_x
_atom_site_fract_y
_atom_site_fract_z
Cd11	Cd1	0.258990	0.711150	0.724760
I11	I1	0.411480	0.786460	0.822480
O11	O1	0.347200	0.669200	0.611000
O21	O2	0.235300	0.565000	0.575900
O31	O3	0.293000	0.395400	0.307500
O41	O4	0.431300	0.423500	0.227300
O51	O5	0.631700	0.688800	0.277000
O61	O6	0.613400	0.765300	0.398700
C11	C1	0.313300	0.612200	0.561100
C21	C2	0.373300	0.438800	0.288200
C31	C3	0.585800	0.704100	0.348600
C41	C4	0.371600	0.597400	0.477100
C51	C5	0.347400	0.526600	0.424100
H11	H1	0.295900	0.487600	0.440800
C61	C6	0.397700	0.514200	0.348800
C71	C7	0.477300	0.570900	0.321700
H21	H2	0.512800	0.561100	0.270200
C81	C8	0.502000	0.644100	0.375800
C91	C9	0.449900	0.654800	0.453200
H31	H3	0.467500	0.701000	0.489600
Cd21	Cd2	0.063130	0.592980	0.582380
Cd31	Cd3	0.241010	0.288850	0.224760
I21	I2	0.088520	0.213540	0.322480
O71	O7	0.152800	0.330800	0.111000
O81	O8	0.264700	0.435000	0.075900
O91	O9	0.207000	0.604600	0.807500
O101	O10	0.068700	0.576500	0.727300
O111	O11	0.868300	0.311200	0.777000
O121	O12	0.886600	0.234700	0.898700
C101	C10	0.186700	0.387800	0.061100
C111	C11	0.126700	0.561200	0.788200
C121	C12	0.914200	0.295900	0.848600
C131	C13	0.128400	0.402600	0.977100
C141	C14	0.152600	0.473400	0.924100
H41	H4	0.204100	0.512400	0.940800
C151	C15	0.102300	0.485800	0.848800
C161	C16	0.022700	0.429100	0.821700
H51	H5	0.987200	0.438900	0.770200
C171	C17	0.998000	0.355900	0.875800
C181	C18	0.050100	0.345200	0.953200
H61	H6	0.032500	0.299000	0.989600
Cd41	Cd4	0.436870	0.407020	0.082380
Cd51	Cd5	0.741010	0.211150	0.775240
I31	I3	0.588520	0.286460	0.677520
O131	O13	0.652800	0.169200	0.889000
O141	O14	0.764700	0.065000	0.924100
O151	O15	0.707000	0.895400	0.192500
O161	O16	0.568700	0.923500	0.272700
O171	O17	0.368300	0.188800	0.223000
O181	O18	0.386600	0.265300	0.101300
C191	C19	0.686700	0.112200	0.938900
C201	C20	0.626700	0.938800	0.211800
C211	C21	0.414200	0.204100	0.151400
C221	C22	0.628400	0.097400	0.022900
C231	C23	0.652600	0.026600	0.075900
H71	H7	0.704100	0.987600	0.059200
C241	C24	0.602300	0.014200	0.151200
C251	C25	0.522700	0.070900	0.178300
H81	H8	0.487200	0.061100	0.229800
C261	C26	0.498000	0.144100	0.124200
C271	C27	0.550100	0.154800	0.046800
H91	H9	0.532500	0.201000	0.010400
Cd61	Cd6	0.936870	0.092980	0.917620
Cd71	Cd7	0.758990	0.788850	0.275240
I41	I4	0.911480	0.713540	0.177520
O191	O19	0.847200	0.830800	0.389000
O201	O20	0.735300	0.935000	0.424100
O211	O21	0.793000	0.104600	0.692500
O221	O22	0.931300	0.076500	0.772700
O231	O23	0.131700	0.811200	0.723000
O241	O24	0.113400	0.734700	0.601300
C281	C28	0.813300	0.887800	0.438900
C291	C29	0.873300	0.061200	0.711800
C301	C30	0.085800	0.795900	0.651400
C311	C31	0.871600	0.902600	0.522900
C321	C32	0.847400	0.973400	0.575900
H101	H10	0.795900	0.012400	0.559200
C331	C33	0.897700	0.985800	0.651200
C341	C34	0.977300	0.929100	0.678300
H111	H11	0.012800	0.938900	0.729800
C351	C35	0.002000	0.855900	0.624200
C361	C36	0.949900	0.845200	0.546800
H121	H12	0.967500	0.799000	0.510400
Cd81	Cd8	0.563130	0.907020	0.417620
