data_QISRIV_clean_PM
_symmetry_space_group_name_H-M	'P1'
_cell_length_a	12.952000
_cell_length_b	13.849000
_cell_length_c	14.679000
_cell_angle_alpha	112.460000
_cell_angle_beta	99.574000
_cell_angle_gamma	108.472000
_symmetry_Int_Tables_number 1

loop_
_symmetry_equiv_pos_as_xyz
'x,y,z'

loop_
_atom_site_label
_atom_site_type_symbol
_atom_site_fract_x
_atom_site_fract_y
_atom_site_fract_z
Mo11	Mo1	0.230580	0.889650	0.669890
Mo21	Mo2	0.769420	0.110350	0.330110
H11	H1	0.238900	0.112600	0.655200
H21	H2	0.100500	0.822400	0.454300
H31	H3	0.182800	0.676500	0.707200
H41	H4	0.961800	0.717400	0.570800
H51	H5	0.457100	0.786700	0.802600
H61	H6	0.486000	0.052400	0.817300
H71	H7	0.285500	0.043700	0.483600
H81	H8	0.301300	0.796000	0.476100
H91	H9	0.338800	0.296300	0.568500
H101	H10	0.366500	0.276500	0.667600
H111	H11	0.232500	0.396900	0.643400
H121	H12	0.269500	0.382600	0.744300
H131	H13	0.363800	0.458000	0.713800
H141	H14	0.145200	0.807700	0.261900
H151	H15	0.063300	0.708900	0.279500
H161	H16	0.903900	0.691500	0.159400
H171	H17	0.988600	0.786700	0.139500
H181	H18	0.995900	0.666600	0.106300
H191	H19	0.186500	0.639200	0.843900
H201	H20	0.135600	0.506300	0.812000
H211	H21	0.015600	0.646600	0.859600
H221	H22	0.955600	0.511600	0.816000
H231	H23	0.052900	0.589400	0.926600
H241	H24	0.791000	0.707000	0.597500
H251	H25	0.789400	0.650800	0.673000
H261	H26	0.625800	0.487100	0.542000
H271	H27	0.603700	0.599900	0.584900
H281	H28	0.624500	0.554500	0.475900
H291	H29	0.709900	0.793700	0.884800
H301	H30	0.584000	0.706400	0.806500
H311	H31	0.651700	0.743200	0.011700
H321	H32	0.540600	0.641200	0.918900
H331	H33	0.664400	0.645700	0.919200
H341	H34	0.653800	0.193200	0.829100
H351	H35	0.761000	0.252600	0.931800
H361	H36	0.570900	0.309700	0.912500
H371	H37	0.667900	0.362100	0.020800
H381	H38	0.699000	0.389700	0.931100
H391	H39	0.336500	0.170900	0.351300
H401	H40	0.224100	0.084600	0.354000
H411	H41	0.319200	0.027000	0.191400
H421	H42	0.206400	0.940900	0.194000
H431	H43	0.206800	0.050400	0.182900
H441	H44	0.249300	0.643700	0.242100
H451	H45	0.251400	0.623300	0.341200
H461	H46	0.411800	0.607500	0.233600
H471	H47	0.419000	0.592000	0.335600
H481	H48	0.314700	0.501900	0.231400
H491	H49	0.761100	0.887400	0.344800
H501	H50	0.899500	0.177600	0.545700
H511	H51	0.817200	0.323500	0.292800
H521	H52	0.038200	0.282600	0.429200
H531	H53	0.542900	0.213300	0.197400
H541	H54	0.514000	0.947600	0.182700
H551	H55	0.714500	0.956300	0.516400
H561	H56	0.698700	0.204000	0.523900
H571	H57	0.661200	0.703700	0.431500
H581	H58	0.633500	0.723500	0.332400
H591	H59	0.767500	0.603100	0.356600
H601	H60	0.730500	0.617400	0.255700
H611	H61	0.636200	0.542000	0.286200
H621	H62	0.854800	0.192300	0.738100
H631	H63	0.936700	0.291100	0.720500
H641	H64	0.096100	0.308500	0.840600
H651	H65	0.011400	0.213300	0.860500
H661	H66	0.004100	0.333400	0.893700
H671	H67	0.813500	0.360800	0.156100
H681	H68	0.864400	0.493700	0.188000
H691	H69	0.984400	0.353400	0.140400
H701	H70	0.044400	0.488400	0.184000
H711	H71	0.947100	0.410600	0.073400
H721	H72	0.209000	0.293000	0.402500
H731	H73	0.210600	0.349200	0.327000
H741	H74	0.374200	0.512900	0.458000
H751	H75	0.396300	0.400100	0.415100
H761	H76	0.375500	0.445500	0.524100
H771	H77	0.290100	0.206300	0.115200
H781	H78	0.416000	0.293600	0.193500
H791	H79	0.348300	0.256800	0.988300
H801	H80	0.459400	0.358800	0.081100
H811	H81	0.335600	0.354300	0.080800
H821	H82	0.346200	0.806800	0.170900
H831	H83	0.239000	0.747400	0.068200
H841	H84	0.429100	0.690300	0.087500
H851	H85	0.332100	0.637900	0.979200
H861	H86	0.301000	0.610300	0.068900
H871	H87	0.663500	0.829100	0.648700
H881	H88	0.775900	0.915400	0.646000
H891	H89	0.680800	0.973000	0.808600
H901	H90	0.793600	0.059100	0.806000
H911	H91	0.793200	0.949600	0.817100
H921	H92	0.750700	0.356300	0.757900
H931	H93	0.748600	0.376700	0.658800
H941	H94	0.588200	0.392500	0.766400
H951	H95	0.581000	0.408000	0.664400
H961	H96	0.685300	0.498100	0.768600
Rh11	Rh1	0.034640	0.968220	0.559780
Rh21	Rh2	0.067870	0.593360	0.519250
Rh31	Rh3	0.420300	0.951280	0.920250
Rh41	Rh4	0.443450	0.000100	0.557630
Rh51	Rh5	0.965360	0.031780	0.440220
Rh61	Rh6	0.932130	0.406640	0.480750
Rh71	Rh7	0.579700	0.048720	0.079750
Rh81	Rh8	0.556550	0.999900	0.442370
C11	C1	0.197900	0.178400	0.572500
C21	C2	0.309200	0.285600	0.622800
C31	C3	0.292300	0.390000	0.686700
C41	C4	0.048800	0.860900	0.350900
C51	C5	0.067500	0.772600	0.264000
C61	C6	0.981300	0.725100	0.157800
C71	C7	0.077400	0.538900	0.693300
C81	C8	0.116500	0.567300	0.806400
C91	C9	0.027400	0.579800	0.856500
C101	C10	0.851000	0.582900	0.556800
C111	C11	0.772200	0.633700	0.599500
C121	C12	0.645400	0.562500	0.545900
C131	C13	0.587000	0.852000	0.921400
C141	C14	0.629300	0.758300	0.880200
C151	C15	0.620800	0.691500	0.937300
C161	C16	0.616800	0.141000	0.937700
C171	C17	0.677700	0.228500	0.905400
C181	C18	0.651600	0.331500	0.946000
C191	C19	0.364800	0.051900	0.389600
C201	C20	0.292100	0.089900	0.331700
C211	C21	0.252600	0.020900	0.214600
C221	C22	0.375800	0.779600	0.375500
C231	C23	0.300100	0.652800	0.305100
C241	C24	0.367300	0.582300	0.273700
C251	C25	0.802100	0.821600	0.427500
C261	C26	0.690800	0.714400	0.377200
C271	C27	0.707700	0.610000	0.313300
C281	C28	0.951200	0.139100	0.649100
C291	C29	0.932500	0.227400	0.736000
C301	C30	0.018700	0.274900	0.842200
C311	C31	0.922600	0.461100	0.306700
C321	C32	0.883500	0.432700	0.193600
C331	C33	0.972600	0.420200	0.143500
C341	C34	0.149000	0.417100	0.443200
C351	C35	0.227800	0.366300	0.400500
C361	C36	0.354600	0.437500	0.454100
C371	C37	0.413000	0.148000	0.078600
C381	C38	0.370700	0.241700	0.119800
C391	C39	0.379200	0.308500	0.062700
C401	C40	0.383200	0.859000	0.062300
C411	C41	0.322300	0.771500	0.094600
C421	C42	0.348400	0.668500	0.054000
C431	C43	0.635200	0.948100	0.610400
C441	C44	0.707900	0.910100	0.668300
C451	C45	0.747400	0.979100	0.785400
C461	C46	0.624200	0.220400	0.624500
C471	C47	0.699900	0.347200	0.694900
C481	C48	0.632700	0.417700	0.726300
N11	N1	0.181200	0.102800	0.607500
N21	N2	0.069700	0.866000	0.443300
N31	N3	0.123400	0.613300	0.662100
N41	N4	0.948300	0.646300	0.555000
N51	N5	0.491300	0.842700	0.865900
N61	N6	0.514400	0.059500	0.878700
N71	N7	0.345900	0.037000	0.468600
N81	N8	0.356700	0.835200	0.460900
N91	N9	0.818800	0.897200	0.392500
N101	N10	0.930300	0.134000	0.556700
N111	N11	0.876600	0.386700	0.337900
N121	N12	0.051700	0.353700	0.445000
N131	N13	0.508700	0.157300	0.134100
N141	N14	0.485600	0.940500	0.121300
N151	N15	0.654100	0.963000	0.531400
N161	N16	0.643300	0.164800	0.539100
O11	O1	0.122500	0.165500	0.495100
O21	O2	0.014100	0.930000	0.330800
O31	O3	0.995000	0.439800	0.630800
O41	O4	0.818600	0.473400	0.524700
O51	O5	0.644700	0.934400	0.013900
O61	O6	0.667400	0.153500	0.026400
O71	O7	0.449900	0.039400	0.359300
O81	O8	0.456600	0.829200	0.347100
O91	O9	0.107200	0.917700	0.674300
O101	O10	0.192000	0.764500	0.551400
O111	O11	0.273000	0.863900	0.774800
O121	O12	0.343200	0.004300	0.671600
O131	O13	0.877500	0.834500	0.504900
O141	O14	0.985900	0.070000	0.669200
O151	O15	0.005000	0.560200	0.369200
O161	O16	0.181400	0.526600	0.475300
O171	O17	0.355300	0.065600	0.986100
O181	O18	0.332600	0.846500	0.973600
O191	O19	0.550100	0.960600	0.640700
O201	O20	0.543400	0.170800	0.652900
O211	O21	0.892800	0.082300	0.325700
O221	O22	0.808000	0.235500	0.448600
O231	O23	0.727000	0.136100	0.225200
O241	O24	0.656800	0.995700	0.328400
