data_QITDII_clean_PM
_symmetry_space_group_name_H-M	'P1'
_cell_length_a	16.136900
_cell_length_b	12.880900
_cell_length_c	22.404400
_cell_angle_alpha	90.000000
_cell_angle_beta	106.294000
_cell_angle_gamma	90.000000
_symmetry_Int_Tables_number 1

loop_
_symmetry_equiv_pos_as_xyz
'x,y,z'

loop_
_atom_site_label
_atom_site_type_symbol
_atom_site_fract_x
_atom_site_fract_y
_atom_site_fract_z
Mn11	Mn1	0.800050	0.850220	0.359100
Mn21	Mn2	0.578170	0.934680	0.286640
C11	C1	0.780420	0.786210	0.487240
C21	C2	0.832440	0.783630	0.554700
C31	C3	0.794640	0.779780	0.603430
H11	H1	0.734900	0.776600	0.595400
C41	C4	0.847140	0.780830	0.663730
H21	H2	0.823500	0.779200	0.697100
C51	C5	0.935620	0.784290	0.673530
N11	N1	0.973910	0.787650	0.627940
C61	C6	0.253900	0.370230	0.704030
C71	C7	0.218000	0.472570	0.717020
C81	C8	0.129620	0.486630	0.704620
H31	H3	0.092400	0.431400	0.690000
C91	C9	0.096860	0.581400	0.713840
H41	H4	0.037600	0.591700	0.705300
C101	C10	0.154310	0.661370	0.736110
C111	C11	0.269630	0.557700	0.738090
H51	H5	0.329000	0.549700	0.745800
C121	C12	0.726620	0.071800	0.372410
C131	C13	0.753340	0.181570	0.391400
C141	C14	0.839290	0.210100	0.409600
H61	H6	0.882000	0.160700	0.411700
C151	C15	0.861520	0.311900	0.424560
H71	H7	0.919000	0.332800	0.435200
C161	C16	0.796870	0.382150	0.423390
N21	N2	0.712990	0.357250	0.406470
C171	C17	0.727390	0.554510	0.724640
C181	C18	0.763890	0.529650	0.671340
C191	C19	0.714110	0.509600	0.611690
H81	H8	0.654500	0.503000	0.603200
C201	C20	0.753500	0.499500	0.564550
H91	H9	0.721200	0.485900	0.523900
C211	C21	0.841500	0.510040	0.579460
N31	N3	0.892190	0.522380	0.637110
C221	C22	0.990160	0.775900	0.402890
H101	H10	0.962200	0.717900	0.412600
C231	C23	0.078410	0.773400	0.415960
H111	H11	0.108500	0.714400	0.433900
C241	C24	0.122630	0.857700	0.402680
C251	C25	0.073080	0.940600	0.374630
H121	H12	0.099500	0.998700	0.363500
C261	C26	0.984810	0.938200	0.362940
H131	H13	0.953200	0.995800	0.344400
C271	C27	0.220050	0.859500	0.420050
H141	H14	0.238700	0.861200	0.382500
H151	H15	0.242500	0.796500	0.442500
C281	C28	0.256580	0.952800	0.459970
H161	H16	0.227900	0.958800	0.492500
H171	H17	0.243000	0.014700	0.434500
C291	C29	0.353730	0.949200	0.490010
H181	H18	0.370800	0.009900	0.516300
H191	H19	0.367600	0.888200	0.516300
C301	C30	0.404510	0.946300	0.442890
C311	C31	0.435520	0.854900	0.426180
H201	H20	0.426900	0.793100	0.445000
C321	C32	0.479610	0.854600	0.381340
H211	H21	0.499700	0.791600	0.370700
C331	C33	0.465230	0.028700	0.369750
H221	H22	0.475600	0.089800	0.350900
C341	C34	0.420340	0.035100	0.413600
H231	H23	0.400800	0.099000	0.423400
N41	N4	0.942440	0.857180	0.377020
N51	N5	0.494650	0.940150	0.352790
C351	C35	0.921150	0.787900	0.570060
H241	H24	0.946400	0.791300	0.537600
N61	N6	0.239960	0.651550	0.748210
C361	C36	0.692930	0.258100	0.389800
H251	H25	0.634800	0.240100	0.376400
C371	C37	0.852340	0.532560	0.681510
H261	H26	0.886500	0.542300	0.722100
S11	S1	0.000870	0.779860	0.752210
S21	S2	0.124680	0.790480	0.748950
S31	S3	0.818910	0.516570	0.440700
S41	S4	0.905590	0.510930	0.526140
O11	O1	0.700090	0.791410	0.473790
O21	O2	0.823760	0.783440	0.448630
O31	O3	0.779780	0.001900	0.394380
O41	O4	0.652140	0.059900	0.336100
O51	O5	0.201440	0.297160	0.688400
O61	O6	0.333260	0.363770	0.709110
O71	O7	0.781160	0.569000	0.775230
O81	O8	0.647590	0.560800	0.715010
O91	O9	0.657530	0.814550	0.348870
H271	H27	0.652200	0.811100	0.385500
H281	H28	0.652000	0.754500	0.332500
Mn31	Mn3	0.199950	0.350220	0.140900
Mn41	Mn4	0.421830	0.434680	0.213360
C381	C38	0.219580	0.286210	0.012760
C391	C39	0.167560	0.283630	0.945300
C401	C40	0.205360	0.279780	0.896570
H291	H29	0.265100	0.276600	0.904600
C411	C41	0.152860	0.280830	0.836270
H301	H30	0.176500	0.279200	0.802900
C421	C42	0.064380	0.284290	0.826470
N71	N7	0.026090	0.287650	0.872060
C431	C43	0.746100	0.870230	0.795970
C441	C44	0.782000	0.972570	0.782980
C451	C45	0.870380	0.986630	0.795380
H311	H31	0.907600	0.931400	0.810000
C461	C46	0.903140	0.081400	0.786160
H321	H32	0.962400	0.091700	0.794700
C471	C47	0.845690	0.161370	0.763890
C481	C48	0.730370	0.057700	0.761910
H331	H33	0.671000	0.049700	0.754200
C491	C49	0.273380	0.571800	0.127590
C501	C50	0.246660	0.681570	0.108600
C511	C51	0.160710	0.710100	0.090400
H341	H34	0.118000	0.660700	0.088300
C521	C52	0.138480	0.811900	0.075440
H351	H35	0.081000	0.832800	0.064800
C531	C53	0.203130	0.882150	0.076610
N81	N8	0.287010	0.857250	0.093530
C541	C54	0.272610	0.054510	0.775360
C551	C55	0.236110	0.029650	0.828660
C561	C56	0.285890	0.009600	0.888310
H361	H36	0.345500	0.003000	0.896800
C571	C57	0.246500	0.999500	0.935450
H371	H37	0.278800	0.985900	0.976100
C581	C58	0.158500	0.010040	0.920540
N91	N9	0.107810	0.022380	0.862890
C591	C59	0.009840	0.275900	0.097110
H381	H38	0.037800	0.217900	0.087400
C601	C60	0.921590	0.273400	0.084040
H391	H39	0.891500	0.214400	0.066100
C611	C61	0.877370	0.357700	0.097320
C621	C62	0.926920	0.440600	0.125370
H401	H40	0.900500	0.498700	0.136500
C631	C63	0.015190	0.438200	0.137060
H411	H41	0.046800	0.495800	0.155600
C641	C64	0.779950	0.359500	0.079950
H421	H42	0.761300	0.361200	0.117500
H431	H43	0.757500	0.296500	0.057500
C651	C65	0.743420	0.452800	0.040030
H441	H44	0.772100	0.458800	0.007500
H451	H45	0.757000	0.514700	0.065500
C661	C66	0.646270	0.449200	0.009990
H461	H46	0.629200	0.509900	0.983700
H471	H47	0.632400	0.388200	0.983700
C671	C67	0.595490	0.446300	0.057110
C681	C68	0.564480	0.354900	0.073820
H481	H48	0.573100	0.293100	0.055000
C691	C69	0.520390	0.354600	0.118660
H491	H49	0.500300	0.291600	0.129300
C701	C70	0.534770	0.528700	0.130250
H501	H50	0.524400	0.589800	0.149100
C711	C71	0.579660	0.535100	0.086400
H511	H51	0.599200	0.599000	0.076600
N101	N10	0.057560	0.357180	0.122980
N111	N11	0.505350	0.440150	0.147210
C721	C72	0.078850	0.287900	0.929940
H521	H52	0.053600	0.291300	0.962400
N121	N12	0.760040	0.151550	0.751790
C731	C73	0.307070	0.758100	0.110200
H531	H53	0.365200	0.740100	0.123600
C741	C74	0.147660	0.032560	0.818490
H541	H54	0.113500	0.042300	0.777900
S51	S5	0.999130	0.279860	0.747790
S61	S6	0.875320	0.290480	0.751050
S71	S7	0.181090	0.016570	0.059300
S81	S8	0.094410	0.010930	0.973860
O101	O10	0.299910	0.291410	0.026210
O111	O11	0.176240	0.283440	0.051370
O121	O12	0.220220	0.501900	0.105620
O131	O13	0.347860	0.559900	0.163900
O141	O14	0.798560	0.797160	0.811600
O151	O15	0.666740	0.863770	0.790890
O161	O16	0.218840	0.069000	0.724770
O171	O17	0.352410	0.060800	0.784990
O181	O18	0.342470	0.314550	0.151130
H551	H55	0.347800	0.311100	0.114500
H561	H56	0.348000	0.254500	0.167500
Mn51	Mn5	0.199950	0.149780	0.640900
Mn61	Mn6	0.421830	0.065320	0.713360
C751	C75	0.219580	0.213790	0.512760
C761	C76	0.167560	0.216370	0.445300
C771	C77	0.205360	0.220220	0.396570
H571	H57	0.265100	0.223400	0.404600
C781	C78	0.152860	0.219170	0.336270
H581	H58	0.176500	0.220800	0.302900
C791	C79	0.064380	0.215710	0.326470
N131	N13	0.026090	0.212350	0.372060
C801	C80	0.746100	0.629770	0.295970
C811	C81	0.782000	0.527430	0.282980
C821	C82	0.870380	0.513370	0.295380
H591	H59	0.907600	0.568600	0.310000
C831	C83	0.903140	0.418600	0.286160
H601	H60	0.962400	0.408300	0.294700
C841	C84	0.845690	0.338630	0.263890
C851	C85	0.730370	0.442300	0.261910
H611	H61	0.671000	0.450300	0.254200
C861	C86	0.273380	0.928200	0.627590
C871	C87	0.246660	0.818430	0.608600
C881	C88	0.160710	0.789900	0.590400
H621	H62	0.118000	0.839300	0.588300
C891	C89	0.138480	0.688100	0.575440
H631	H63	0.081000	0.667200	0.564800
C901	C90	0.203130	0.617850	0.576610
N141	N14	0.287010	0.642750	0.593530
C911	C91	0.272610	0.445490	0.275360
C921	C92	0.236110	0.470350	0.328660
C931	C93	0.285890	0.490400	0.388310
H641	H64	0.345500	0.497000	0.396800
C941	C94	0.246500	0.500500	0.435450
H651	H65	0.278800	0.514100	0.476100
C951	C95	0.158500	0.489960	0.420540
N151	N15	0.107810	0.477620	0.362890
C961	C96	0.009840	0.224100	0.597110
H661	H66	0.037800	0.282100	0.587400
C971	C97	0.921590	0.226600	0.584040
H671	H67	0.891500	0.285600	0.566100
C981	C98	0.877370	0.142300	0.597320
C991	C99	0.926920	0.059400	0.625370
H681	H68	0.900500	0.001300	0.636500
C1001	C100	0.015190	0.061800	0.637060
H691	H69	0.046800	0.004200	0.655600
C1011	C101	0.779950	0.140500	0.579950
H701	H70	0.761300	0.138800	0.617500
H711	H71	0.757500	0.203500	0.557500
C1021	C102	0.743420	0.047200	0.540030
H721	H72	0.772100	0.041200	0.507500
H731	H73	0.757000	0.985300	0.565500
C1031	C103	0.646270	0.050800	0.509990
H741	H74	0.629200	0.990100	0.483700
H751	H75	0.632400	0.111800	0.483700
C1041	C104	0.595490	0.053700	0.557110
C1051	C105	0.564480	0.145100	0.573820
H761	H76	0.573100	0.206900	0.555000
C1061	C106	0.520390	0.145400	0.618660
H771	H77	0.500300	0.208400	0.629300
C1071	C107	0.534770	0.971300	0.630250
H781	H78	0.524400	0.910200	0.649100
C1081	C108	0.579660	0.964900	0.586400
H791	H79	0.599200	0.901000	0.576600
N161	N16	0.057560	0.142820	0.622980
N171	N17	0.505350	0.059850	0.647210
C1091	C109	0.078850	0.212100	0.429940
H801	H80	0.053600	0.208700	0.462400
N181	N18	0.760040	0.348450	0.251790
C1101	C110	0.307070	0.741900	0.610200
H811	H81	0.365200	0.759900	0.623600
C1111	C111	0.147660	0.467440	0.318490
H821	H82	0.113500	0.457700	0.277900
S91	S9	0.999130	0.220140	0.247790
S101	S10	0.875320	0.209520	0.251050
S111	S11	0.181090	0.483430	0.559300
S121	S12	0.094410	0.489070	0.473860
O191	O19	0.299910	0.208590	0.526210
O201	O20	0.176240	0.216560	0.551370
O211	O21	0.220220	0.998100	0.605620
O221	O22	0.347860	0.940100	0.663900
O231	O23	0.798560	0.702840	0.311600
O241	O24	0.666740	0.636230	0.290890
O251	O25	0.218840	0.431000	0.224770
O261	O26	0.352410	0.439200	0.284990
O271	O27	0.342470	0.185450	0.651130
H831	H83	0.347800	0.188900	0.614500
H841	H84	0.348000	0.245500	0.667500
Mn71	Mn7	0.800050	0.649780	0.859100
Mn81	Mn8	0.578170	0.565320	0.786640
C1121	C112	0.780420	0.713790	0.987240
C1131	C113	0.832440	0.716370	0.054700
C1141	C114	0.794640	0.720220	0.103430
H851	H85	0.734900	0.723400	0.095400
C1151	C115	0.847140	0.719170	0.163730
H861	H86	0.823500	0.720800	0.197100
C1161	C116	0.935620	0.715710	0.173530
N191	N19	0.973910	0.712350	0.127940
C1171	C117	0.253900	0.129770	0.204030
C1181	C118	0.218000	0.027430	0.217020
C1191	C119	0.129620	0.013370	0.204620
H871	H87	0.092400	0.068600	0.190000
C1201	C120	0.096860	0.918600	0.213840
H881	H88	0.037600	0.908300	0.205300
C1211	C121	0.154310	0.838630	0.236110
C1221	C122	0.269630	0.942300	0.238090
H891	H89	0.329000	0.950300	0.245800
C1231	C123	0.726620	0.428200	0.872410
C1241	C124	0.753340	0.318430	0.891400
C1251	C125	0.839290	0.289900	0.909600
H901	H90	0.882000	0.339300	0.911700
C1261	C126	0.861520	0.188100	0.924560
H911	H91	0.919000	0.167200	0.935200
C1271	C127	0.796870	0.117850	0.923390
N201	N20	0.712990	0.142750	0.906470
C1281	C128	0.727390	0.945490	0.224640
C1291	C129	0.763890	0.970350	0.171340
C1301	C130	0.714110	0.990400	0.111690
H921	H92	0.654500	0.997000	0.103200
C1311	C131	0.753500	0.000500	0.064550
H931	H93	0.721200	0.014100	0.023900
C1321	C132	0.841500	0.989960	0.079460
N211	N21	0.892190	0.977620	0.137110
C1331	C133	0.990160	0.724100	0.902890
H941	H94	0.962200	0.782100	0.912600
C1341	C134	0.078410	0.726600	0.915960
H951	H95	0.108500	0.785600	0.933900
C1351	C135	0.122630	0.642300	0.902680
C1361	C136	0.073080	0.559400	0.874630
H961	H96	0.099500	0.501300	0.863500
C1371	C137	0.984810	0.561800	0.862940
H971	H97	0.953200	0.504200	0.844400
C1381	C138	0.220050	0.640500	0.920050
H981	H98	0.238700	0.638800	0.882500
H991	H99	0.242500	0.703500	0.942500
C1391	C139	0.256580	0.547200	0.959970
H1001	H100	0.227900	0.541200	0.992500
H1011	H101	0.243000	0.485300	0.934500
C1401	C140	0.353730	0.550800	0.990010
H1021	H102	0.370800	0.490100	0.016300
H1031	H103	0.367600	0.611800	0.016300
C1411	C141	0.404510	0.553700	0.942890
C1421	C142	0.435520	0.645100	0.926180
H1041	H104	0.426900	0.706900	0.945000
C1431	C143	0.479610	0.645400	0.881340
H1051	H105	0.499700	0.708400	0.870700
C1441	C144	0.465230	0.471300	0.869750
H1061	H106	0.475600	0.410200	0.850900
C1451	C145	0.420340	0.464900	0.913600
H1071	H107	0.400800	0.401000	0.923400
N221	N22	0.942440	0.642820	0.877020
N231	N23	0.494650	0.559850	0.852790
C1461	C146	0.921150	0.712100	0.070060
H1081	H108	0.946400	0.708700	0.037600
N241	N24	0.239960	0.848450	0.248210
C1471	C147	0.692930	0.241900	0.889800
H1091	H109	0.634800	0.259900	0.876400
C1481	C148	0.852340	0.967440	0.181510
H1101	H110	0.886500	0.957700	0.222100
S131	S13	0.000870	0.720140	0.252210
S141	S14	0.124680	0.709520	0.248950
S151	S15	0.818910	0.983430	0.940700
S161	S16	0.905590	0.989070	0.026140
O281	O28	0.700090	0.708590	0.973790
O291	O29	0.823760	0.716560	0.948630
O301	O30	0.779780	0.498100	0.894380
O311	O31	0.652140	0.440100	0.836100
O321	O32	0.201440	0.202840	0.188400
O331	O33	0.333260	0.136230	0.209110
O341	O34	0.781160	0.931000	0.275230
O351	O35	0.647590	0.939200	0.215010
O361	O36	0.657530	0.685450	0.848870
H1111	H111	0.652200	0.688900	0.885500
H1121	H112	0.652000	0.745500	0.832500
