data_QITMOW_clean_PM
_symmetry_space_group_name_H-M	'P1'
_cell_length_a	10.483100
_cell_length_b	14.028000
_cell_length_c	18.144000
_cell_angle_alpha	100.028000
_cell_angle_beta	90.000000
_cell_angle_gamma	90.000000
_symmetry_Int_Tables_number 1

loop_
_symmetry_equiv_pos_as_xyz
'x,y,z'

loop_
_atom_site_label
_atom_site_type_symbol
_atom_site_fract_x
_atom_site_fract_y
_atom_site_fract_z
Nd11	Nd1	0.751390	0.396490	0.707690
Nd21	Nd2	0.730270	0.348430	0.344310
Nd31	Nd3	0.251390	0.103510	0.792310
Nd41	Nd4	0.230270	0.151570	0.155690
Nd51	Nd5	0.248610	0.603510	0.292310
Nd61	Nd6	0.269730	0.651570	0.655690
Nd71	Nd7	0.748610	0.896490	0.207690
Nd81	Nd8	0.769730	0.848430	0.844310
H11	H1	0.608000	0.634500	0.510300
H21	H2	0.977100	0.632400	0.532600
H31	H3	0.487400	0.636800	0.927100
H41	H4	0.348300	0.376200	0.897400
H51	H5	0.551800	0.167600	0.565700
H61	H6	0.356900	0.091300	0.381900
H71	H7	0.108000	0.865500	0.989700
H81	H8	0.477100	0.867600	0.967400
H91	H9	0.987400	0.863200	0.572900
H101	H10	0.848300	0.123800	0.602600
H111	H11	0.051800	0.332400	0.934300
H121	H12	0.856900	0.408700	0.118100
H131	H13	0.392000	0.365500	0.489700
H141	H14	0.022900	0.367600	0.467400
H151	H15	0.512600	0.363200	0.072900
H161	H16	0.651700	0.623800	0.102600
H171	H17	0.448200	0.832400	0.434300
H181	H18	0.643100	0.908700	0.618100
H191	H19	0.892000	0.134500	0.010300
H201	H20	0.522900	0.132400	0.032600
H211	H21	0.012600	0.136800	0.427100
H221	H22	0.151700	0.876200	0.397400
H231	H23	0.948200	0.667600	0.065700
H241	H24	0.143100	0.591300	0.881900
C11	C1	0.668100	0.550900	0.581500
C21	C2	0.681200	0.613400	0.531600
C31	C3	0.896400	0.612300	0.544600
C41	C4	0.885900	0.549700	0.595000
C51	C5	0.541300	0.513600	0.607800
C61	C6	0.995000	0.508800	0.635100
C71	C7	0.573900	0.545000	0.844100
C81	C8	0.487400	0.573000	0.902200
C91	C9	0.405700	0.421200	0.884600
C101	C10	0.489800	0.392300	0.825900
C111	C11	0.672400	0.609200	0.818800
C121	C12	0.493400	0.291100	0.779700
C131	C13	0.609100	0.232700	0.482000
C141	C14	0.536100	0.171600	0.515800
C151	C15	0.421300	0.127700	0.408600
C161	C16	0.491500	0.190600	0.373500
C171	C17	0.716700	0.295800	0.519200
C181	C18	0.469800	0.211600	0.297000
C191	C19	0.168100	0.949100	0.918500
C201	C20	0.181200	0.886600	0.968400
C211	C21	0.396400	0.887700	0.955400
C221	C22	0.385900	0.950300	0.905000
C231	C23	0.041300	0.986400	0.892200
C241	C24	0.495000	0.991200	0.864900
C251	C25	0.073900	0.955000	0.655900
C261	C26	0.987400	0.927000	0.597800
C271	C27	0.905700	0.078800	0.615400
C281	C28	0.989800	0.107700	0.674100
C291	C29	0.172400	0.890800	0.681200
C301	C30	0.993400	0.208900	0.720300
C311	C31	0.109100	0.267300	0.018000
C321	C32	0.036100	0.328400	0.984200
C331	C33	0.921300	0.372300	0.091400
C341	C34	0.991500	0.309400	0.126500
C351	C35	0.216700	0.204200	0.980800
C361	C36	0.969800	0.288400	0.203000
C371	C37	0.331900	0.449100	0.418500
C381	C38	0.318800	0.386600	0.468400
C391	C39	0.103600	0.387700	0.455400
C401	C40	0.114100	0.450300	0.405000
C411	C41	0.458700	0.486400	0.392200
C421	C42	0.005000	0.491200	0.364900
C431	C43	0.426100	0.455000	0.155900
C441	C44	0.512600	0.427000	0.097800
C451	C45	0.594300	0.578800	0.115400
C461	C46	0.510200	0.607700	0.174100
C471	C47	0.327600	0.390800	0.181200
C481	C48	0.506600	0.708900	0.220300
C491	C49	0.390900	0.767300	0.518000
C501	C50	0.463900	0.828400	0.484200
C511	C51	0.578700	0.872300	0.591400
C521	C52	0.508500	0.809400	0.626500
C531	C53	0.283300	0.704200	0.480800
C541	C54	0.530200	0.788400	0.703000
C551	C55	0.831900	0.050900	0.081500
C561	C56	0.818800	0.113400	0.031600
C571	C57	0.603600	0.112300	0.044600
C581	C58	0.614100	0.049700	0.095000
C591	C59	0.958700	0.013600	0.107800
C601	C60	0.505000	0.008800	0.135100
C611	C61	0.926100	0.045000	0.344100
C621	C62	0.012600	0.073000	0.402200
C631	C63	0.094300	0.921200	0.384600
C641	C64	0.010200	0.892300	0.325900
C651	C65	0.827600	0.109200	0.318800
C661	C66	0.006600	0.791100	0.279700
C671	C67	0.890900	0.732700	0.982000
C681	C68	0.963900	0.671600	0.015800
C691	C69	0.078700	0.627700	0.908600
C701	C70	0.008500	0.690600	0.873500
C711	C71	0.783300	0.795800	0.019200
C721	C72	0.030200	0.711600	0.797000
N11	N1	0.771100	0.516700	0.613100
N21	N2	0.794100	0.645400	0.512200
N31	N3	0.574100	0.453800	0.807700
N41	N4	0.404600	0.510300	0.922900
N51	N5	0.586600	0.241600	0.411600
N61	N6	0.442500	0.117200	0.479100
N71	N7	0.271100	0.983300	0.886900
N81	N8	0.294100	0.854600	0.987800
N91	N9	0.074100	0.046200	0.692300
N101	N10	0.904600	0.989700	0.577100
N111	N11	0.086600	0.258400	0.088400
N121	N12	0.942500	0.382800	0.020900
N131	N13	0.228900	0.483300	0.386900
N141	N14	0.205900	0.354600	0.487800
N151	N15	0.425900	0.546200	0.192300
N161	N16	0.595400	0.489700	0.077100
N171	N17	0.413400	0.758400	0.588400
N181	N18	0.557500	0.882800	0.520900
N191	N19	0.728900	0.016700	0.113100
N201	N20	0.705900	0.145400	0.012200
N211	N21	0.925900	0.953800	0.307700
N221	N22	0.095400	0.010300	0.422900
N231	N23	0.913400	0.741600	0.911600
N241	N24	0.057500	0.617200	0.979100
O11	O1	0.547300	0.451400	0.648300
O21	O2	0.441900	0.552100	0.587400
O31	O3	0.967400	0.455300	0.679300
O41	O4	0.104500	0.535800	0.618900
O51	O5	0.751000	0.570700	0.771700
O61	O6	0.668900	0.697300	0.848000
O71	O7	0.585300	0.274200	0.733700
O81	O8	0.405300	0.235600	0.789300
O91	O9	0.774800	0.345600	0.479300
O101	O10	0.738300	0.292600	0.586800
O111	O11	0.547100	0.268400	0.273500
O121	O12	0.373700	0.171100	0.262000
O131	O13	0.047300	0.048600	0.851700
O141	O14	0.941900	0.947900	0.912600
O151	O15	0.467400	0.044700	0.820700
O161	O16	0.604500	0.964200	0.881100
O171	O17	0.251000	0.929300	0.728300
O181	O18	0.168900	0.802700	0.652000
O191	O19	0.085300	0.225800	0.766300
O201	O20	0.905300	0.264400	0.710700
O211	O21	0.274800	0.154400	0.020700
O221	O22	0.238300	0.207400	0.913200
O231	O23	0.047100	0.231600	0.226500
O241	O24	0.873700	0.328900	0.238000
O251	O25	0.452700	0.548600	0.351700
O261	O26	0.558100	0.447900	0.412600
O271	O27	0.032600	0.544700	0.320700
O281	O28	0.895500	0.464200	0.381100
O291	O29	0.249000	0.429300	0.228300
O301	O30	0.331100	0.302700	0.152000
O311	O31	0.414700	0.725800	0.266300
O321	O32	0.594700	0.764400	0.210700
O331	O33	0.225200	0.654400	0.520700
O341	O34	0.261700	0.707400	0.413200
O351	O35	0.452900	0.731600	0.726500
O361	O36	0.626300	0.828900	0.738000
O371	O37	0.952700	0.951400	0.148300
O381	O38	0.058100	0.052100	0.087400
O391	O39	0.532600	0.955300	0.179300
O401	O40	0.395500	0.035800	0.118900
O411	O41	0.749000	0.070700	0.271700
O421	O42	0.831100	0.197300	0.348000
O431	O43	0.914700	0.774200	0.233700
O441	O44	0.094700	0.735600	0.289300
O451	O45	0.725200	0.845600	0.979300
O461	O46	0.761700	0.792600	0.086800
O471	O47	0.952900	0.768400	0.773500
O481	O48	0.126300	0.671100	0.762000
