data_QITZIE_clean_PM
_symmetry_space_group_name_H-M	'P1'
_cell_length_a	11.624000
_cell_length_b	13.395000
_cell_length_c	21.378000
_cell_angle_alpha	108.230000
_cell_angle_beta	96.320000
_cell_angle_gamma	103.030000
_symmetry_Int_Tables_number 1

loop_
_symmetry_equiv_pos_as_xyz
'x,y,z'

loop_
_atom_site_label
_atom_site_type_symbol
_atom_site_fract_x
_atom_site_fract_y
_atom_site_fract_z
Ni11	Ni1	0.517390	0.363180	0.915360
Ni21	Ni2	0.904260	0.300280	0.612120
Ni31	Ni3	0.482610	0.636820	0.084640
Ni41	Ni4	0.095740	0.699720	0.387880
H11	H1	0.381100	0.234800	0.296600
H21	H2	0.425200	0.924500	0.632000
H31	H3	0.319200	0.978400	0.348200
H41	H4	0.864100	0.402100	0.044200
H51	H5	0.825900	0.673200	0.348100
H61	H6	0.680800	0.021600	0.651800
H71	H7	0.626700	0.388100	0.485200
H81	H8	0.064100	0.372100	0.355200
H91	H9	0.709500	0.565500	0.010000
H101	H10	0.782400	0.952700	0.811300
H111	H11	0.144400	0.656800	0.069300
H121	H12	0.618900	0.765200	0.703400
H131	H13	0.596300	0.151000	0.715300
H141	H14	0.551500	0.067800	0.256500
H151	H15	0.008400	0.820600	0.003900
H161	H16	0.135700	0.707900	0.700800
H171	H17	0.925700	0.262400	0.837200
H181	H18	0.403700	0.849000	0.284700
H191	H19	0.649200	0.614400	0.380200
H201	H20	0.116700	0.070600	0.827200
H211	H21	0.260200	0.228800	0.836800
H221	H22	0.007100	0.444400	0.536700
H231	H23	0.883000	0.300700	0.411000
H241	H24	0.373300	0.611900	0.514800
H251	H25	0.883200	0.745900	0.810400
H261	H26	0.293900	0.836300	0.911900
H271	H27	0.135900	0.597900	0.955800
H281	H28	0.609000	0.584400	0.688400
H291	H29	0.902800	0.208400	0.724200
H301	H30	0.117000	0.699300	0.589000
H311	H31	0.946400	0.805400	0.656900
H321	H32	0.459800	0.348100	0.531400
H331	H33	0.174100	0.326800	0.651900
H341	H34	0.647000	0.440000	0.815800
H351	H35	0.289800	0.913900	0.123500
H361	H36	0.097200	0.791600	0.275800
H371	H37	0.649400	0.350500	0.259500
H381	H38	0.350600	0.649500	0.740500
H391	H39	0.821600	0.498100	0.498800
H401	H40	0.353000	0.560000	0.184200
H411	H41	0.785300	0.586700	0.809100
H421	H42	0.849600	0.714300	0.009200
H431	H43	0.217600	0.047300	0.188700
H441	H44	0.935900	0.627900	0.644800
H451	H45	0.148200	0.969700	0.005300
H461	H46	0.540200	0.651900	0.468600
H471	H47	0.855600	0.343200	0.930700
H481	H48	0.391000	0.415600	0.311600
H491	H49	0.962400	0.491600	0.266300
H501	H50	0.391700	0.525800	0.791400
H511	H51	0.864300	0.292100	0.299200
H521	H52	0.551600	0.782600	0.007400
H531	H53	0.659800	0.278400	0.034600
H541	H54	0.116800	0.254100	0.189600
H551	H55	0.340200	0.721600	0.965400
H561	H56	0.689700	0.938400	0.010800
H571	H57	0.608300	0.474200	0.208600
H581	H58	0.883300	0.929400	0.172800
H591	H59	0.214700	0.413300	0.190900
H601	H60	0.936500	0.429700	0.153100
H611	H61	0.448400	0.217400	0.992600
H621	H62	0.053600	0.194600	0.343100
H631	H63	0.063500	0.570300	0.846900
H641	H64	0.178400	0.501900	0.501200
H651	H65	0.710200	0.086100	0.876500
H661	H66	0.975800	0.102800	0.188200
H671	H67	0.150400	0.285700	0.990800
H681	H68	0.739800	0.771200	0.163200
H691	H69	0.074300	0.737600	0.162800
H701	H70	0.350800	0.385600	0.619800
H711	H71	0.037600	0.508400	0.733700
H721	H72	0.310300	0.061600	0.989200
H731	H73	0.574800	0.075500	0.368000
H741	H74	0.851800	0.030300	0.994700
H751	H75	0.991600	0.179400	0.996100
H761	H76	0.024200	0.897200	0.811800
H771	H77	0.448500	0.932200	0.743500
H781	H78	0.290500	0.434500	0.990000
H791	H79	0.992900	0.555600	0.463300
H801	H80	0.706100	0.163700	0.088100
C11	C1	0.162500	0.330900	0.090200
C21	C2	0.619100	0.812500	0.041800
C31	C3	0.028700	0.496200	0.823000
C41	C4	0.746600	0.994100	0.791800
C51	C5	0.052600	0.685200	0.182600
C61	C6	0.987700	0.541200	0.245100
C71	C7	0.316900	0.262300	0.308500
C81	C8	0.936500	0.790500	0.850200
C91	C9	0.524900	0.590900	0.481600
C101	C10	0.809900	0.659400	0.968600
C111	C11	0.685400	0.033600	0.697400
C121	C12	0.403600	0.781900	0.155200
C131	C13	0.021400	0.881600	0.851200
C141	C14	0.268100	0.809000	0.599300
C151	C15	0.978600	0.118400	0.148800
C161	C16	0.768800	0.586800	0.661900
C171	C17	0.190100	0.340600	0.031400
C181	C18	0.272000	0.194200	0.867500
C191	C19	0.619600	0.115000	0.287700
C201	C20	0.719500	0.604600	0.399500
C211	C21	0.312400	0.503500	0.144500
C221	C22	0.350200	0.663500	0.785900
C231	C23	0.704600	0.178100	0.268900
C241	C24	0.998800	0.462700	0.930500
C251	C25	0.701600	0.072900	0.830600
C261	C26	0.314600	0.966400	0.302600
C271	C27	0.006500	0.576400	0.142000
C281	C28	0.184700	0.747200	0.620200
C291	C29	0.298400	0.927100	0.169400
C301	C30	0.423500	0.565900	0.508600
C311	C31	0.196400	0.050200	0.910100
C321	C32	0.325700	0.757300	0.824600
C331	C33	0.343000	0.705900	0.920100
C341	C34	0.589800	0.458700	0.080000
C351	C35	0.728000	0.805800	0.132500
C361	C36	0.929500	0.764400	0.907500
C371	C37	0.081300	0.557400	0.973500
C381	C38	0.475100	0.409100	0.518400
C391	C39	0.826000	0.638300	0.379400
C401	C40	0.295400	0.821900	0.731100
C411	C41	0.194900	0.751300	0.687200
C421	C42	0.603900	0.525800	0.473800
C431	C43	0.283600	0.443900	0.551900
C441	C44	0.723900	0.569200	0.968700
C451	C45	0.251100	0.805400	0.527100
C461	C46	0.396100	0.474200	0.526200
C471	C47	0.103100	0.950800	0.909500
C481	C48	0.232100	0.530600	0.349500
C491	C49	0.837500	0.669100	0.909800
C501	C50	0.366800	0.879700	0.645100
C511	C51	0.918700	0.442600	0.026500
C521	C52	0.596400	0.218100	0.844800
C531	C53	0.066900	0.717400	0.250800
C541	C54	0.276100	0.430800	0.031300
C551	C55	0.626600	0.389200	0.116100
C561	C56	0.635400	0.112500	0.735700
C571	C57	0.001200	0.537300	0.069500
C581	C58	0.063500	0.209500	0.149800
C591	C59	0.767900	0.469400	0.650500
C601	C60	0.323300	0.371000	0.318400
C611	C61	0.674300	0.242700	0.175400
C621	C62	0.174000	0.361700	0.620600
C631	C63	0.786200	0.805200	0.683600
C641	C64	0.703600	0.906600	0.042800
C651	C65	0.183300	0.099700	0.862200
C661	C66	0.076800	0.430000	0.553100
C671	C67	0.010900	0.835000	0.964200
C681	C68	0.649800	0.336500	0.214100
C691	C69	0.687600	0.496500	0.855500
C701	C70	0.644200	0.132900	0.803600
C711	C71	0.410200	0.541300	0.920000
C721	C72	0.748900	0.194600	0.472900
C731	C73	0.803600	0.949800	0.089900
C741	C74	0.373400	0.610800	0.883900
C751	C75	0.355800	0.867100	0.196400
C761	C76	0.213800	0.194800	0.316400
C771	C77	0.380900	0.187500	0.958200
C781	C78	0.095300	0.925200	0.965300
C791	C79	0.716400	0.556100	0.448100
C801	C80	0.731900	0.191000	0.400700
C811	C81	0.904700	0.074800	0.034700
C821	C82	0.870900	0.655000	0.655400
C831	C83	0.989100	0.165000	0.035800
C841	C84	0.253400	0.005900	0.208200
C851	C85	0.374700	0.589200	0.816600
C861	C86	0.260500	0.024500	0.274900
C871	C87	0.179800	0.464200	0.531000
C881	C88	0.280500	0.395400	0.600500
C891	C89	0.682600	0.224400	0.111700
C901	C90	0.971300	0.503800	0.177000
C911	C91	0.815300	0.252800	0.379800
C921	C92	0.923200	0.570000	0.446900
C931	C93	0.878400	0.761700	0.664200
C941	C94	0.896900	0.049200	0.090500
C951	C95	0.683100	0.737700	0.691500
C961	C96	0.012300	0.458800	0.754900
C971	C97	0.676700	0.629000	0.681600
C981	C98	0.739500	0.975500	0.725100
C991	C99	0.085500	0.594100	0.041600
C1001	C100	0.231200	0.413200	0.338100
C1011	C101	0.227800	0.415700	0.149100
C1021	C102	0.380400	0.885000	0.712300
C1031	C103	0.993500	0.423600	0.858000
C1041	C104	0.933100	0.282600	0.749200
C1051	C105	0.364600	0.887500	0.264300
C1061	C106	0.914500	0.405900	0.958400
C1071	C107	0.129100	0.345000	0.344600
C1081	C108	0.121600	0.238300	0.335800
C1091	C109	0.296400	0.093400	0.957200
C1101	C110	0.820200	0.535800	0.469000
C1111	C111	0.633200	0.120300	0.354900
C1121	C112	0.816700	0.900300	0.137800
C1131	C113	0.317400	0.775600	0.888300
C1141	C114	0.070500	0.235600	0.092500
C1151	C115	0.625300	0.410800	0.183400
C1161	C116	0.576500	0.434100	0.491400
C1171	C117	0.657000	0.294100	0.079900
C1181	C118	0.805100	0.248700	0.312800
C1191	C119	0.947400	0.314800	0.817400
C1201	C120	0.772200	0.584300	0.850900
N11	N1	0.660500	0.487700	0.913600
N21	N2	0.628400	0.763800	0.085900
N31	N3	0.070800	0.377200	0.596700
N41	N4	0.039500	0.647700	0.283600
N51	N5	0.960500	0.352300	0.716400
N61	N6	0.339500	0.512300	0.086400
N71	N7	0.929200	0.622800	0.403300
N81	N8	0.371600	0.236200	0.914100
O11	O1	0.151700	0.751400	0.491100
O21	O2	0.528100	0.262100	0.818100
O31	O3	0.311700	0.587700	0.329100
O41	O4	0.304800	0.838500	0.799800
O51	O5	0.593400	0.556800	0.114200
O61	O6	0.624300	0.249000	0.908300
O71	O7	0.406600	0.443200	0.885800
O81	O8	0.847900	0.437900	0.622100
O91	O9	0.197300	0.089400	0.313100
O101	O10	0.152100	0.562100	0.377900
O111	O11	0.695200	0.161500	0.200200
O121	O12	0.446800	0.585600	0.982200
O131	O13	0.661700	0.143900	0.491400
O141	O14	0.848300	0.248600	0.508900
O151	O15	0.375700	0.751000	0.091700
O161	O16	0.338300	0.856100	0.508600
O171	O17	0.688300	0.412300	0.670900
O181	O18	0.553200	0.414400	0.017800
O191	O19	0.802700	0.910600	0.686900
O201	O20	0.471900	0.737900	0.181900
