data_QIVBUT_clean_PM
_symmetry_space_group_name_H-M	'P1'
_cell_length_a	11.700000
_cell_length_b	11.831000
_cell_length_c	13.490000
_cell_angle_alpha	90.000000
_cell_angle_beta	90.000000
_cell_angle_gamma	90.000000
_symmetry_Int_Tables_number 1

loop_
_symmetry_equiv_pos_as_xyz
'x,y,z'

loop_
_atom_site_label
_atom_site_type_symbol
_atom_site_fract_x
_atom_site_fract_y
_atom_site_fract_z
Cd11	Cd1	0.282550	0.000000	0.000000
Fe11	Fe1	0.212760	0.000000	0.500000
H11	H1	0.398500	0.104900	0.580300
H21	H2	0.275900	0.220800	0.459500
H31	H3	0.064700	0.177200	0.492300
H41	H4	0.056400	0.043700	0.644900
H51	H5	0.144500	0.774200	0.921000
H61	H6	0.141700	0.584300	0.925600
H71	H7	0.436400	0.587400	0.072800
H81	H8	0.427200	0.783700	0.072100
H91	H9	0.499200	0.909600	0.877400
H101	H10	0.698400	0.912100	0.874500
H111	H11	0.869200	0.920800	0.131700
H121	H12	0.067500	0.927700	0.129700
H131	H13	0.398500	0.895100	0.419700
H141	H14	0.275900	0.779200	0.540500
H151	H15	0.064700	0.822800	0.507700
H161	H16	0.056400	0.956300	0.355100
H171	H17	0.144500	0.225800	0.079000
H181	H18	0.141700	0.415700	0.074400
H191	H19	0.436400	0.412600	0.927200
H201	H20	0.427200	0.216300	0.927900
H211	H21	0.499200	0.090400	0.122600
H221	H22	0.698400	0.087900	0.125500
H231	H23	0.869200	0.079200	0.868300
H241	H24	0.067500	0.072300	0.870300
C11	C1	0.239300	0.049300	0.640700
C21	C2	0.314900	0.106500	0.577500
C31	C3	0.246600	0.172500	0.512800
C41	C4	0.130100	0.146500	0.528800
C51	C5	0.125600	0.073100	0.613100
C61	C6	0.203300	0.736700	0.953700
C71	C7	0.201600	0.623100	0.955500
C81	C8	0.288200	0.563800	0.001400
C91	C9	0.374800	0.624100	0.043300
C101	C10	0.369400	0.742900	0.041100
C111	C11	0.539100	0.947000	0.927200
C121	C12	0.659100	0.052500	0.074200
C131	C13	0.907200	0.953600	0.078400
C141	C14	0.026700	0.956700	0.076200
C151	C15	0.239300	0.950700	0.359300
C161	C16	0.314900	0.893500	0.422500
C171	C17	0.246600	0.827500	0.487200
C181	C18	0.130100	0.853500	0.471200
C191	C19	0.125600	0.926900	0.386900
C201	C20	0.203300	0.263300	0.046300
C211	C21	0.201600	0.376900	0.044500
C221	C22	0.288200	0.436200	0.998600
C231	C23	0.374800	0.375900	0.956700
C241	C24	0.369400	0.257100	0.958900
C251	C25	0.539100	0.053000	0.072800
C261	C26	0.659100	0.947500	0.925800
C271	C27	0.907200	0.046400	0.921600
C281	C28	0.026700	0.043300	0.923800
C291	C29	0.717800	0.000000	0.000000
C301	C30	0.845600	0.000000	0.000000
S11	S1	0.278400	0.963000	0.739890
S21	S2	0.278400	0.037000	0.260110
N11	N1	0.286100	0.799300	0.997000
N21	N2	0.286100	0.200700	0.003000
N31	N3	0.481000	0.000000	0.000000
N41	N4	0.083700	0.000000	0.000000
O11	O1	0.283700	0.033500	0.827300
O21	O2	0.389500	0.915600	0.715500
O31	O3	0.188100	0.878100	0.749600
O41	O4	0.283700	0.966500	0.172700
O51	O5	0.389500	0.084400	0.284500
O61	O6	0.188100	0.121900	0.250400
Cd21	Cd2	0.717450	0.500000	0.500000
Fe21	Fe2	0.787240	0.500000	0.000000
H251	H25	0.601500	0.395100	0.080300
H261	H26	0.724100	0.279200	0.959500
H271	H27	0.935300	0.322800	0.992300
H281	H28	0.943600	0.456300	0.144900
H291	H29	0.855500	0.725800	0.421000
H301	H30	0.858300	0.915700	0.425600
H311	H31	0.563600	0.912600	0.572800
H321	H32	0.572800	0.716300	0.572100
H331	H33	0.500800	0.590400	0.377400
H341	H34	0.301600	0.587900	0.374500
H351	H35	0.130800	0.579200	0.631700
H361	H36	0.932500	0.572300	0.629700
H371	H37	0.601500	0.604900	0.919700
H381	H38	0.724100	0.720800	0.040500
H391	H39	0.935300	0.677200	0.007700
H401	H40	0.943600	0.543700	0.855100
H411	H41	0.855500	0.274200	0.579000
H421	H42	0.858300	0.084300	0.574400
H431	H43	0.563600	0.087400	0.427200
H441	H44	0.572800	0.283700	0.427900
H451	H45	0.500800	0.409600	0.622600
H461	H46	0.301600	0.412100	0.625500
H471	H47	0.130800	0.420800	0.368300
H481	H48	0.932500	0.427700	0.370300
C311	C31	0.760700	0.450700	0.140700
C321	C32	0.685100	0.393500	0.077500
C331	C33	0.753400	0.327500	0.012800
C341	C34	0.869900	0.353500	0.028800
C351	C35	0.874400	0.426900	0.113100
C361	C36	0.796700	0.763300	0.453700
C371	C37	0.798400	0.876900	0.455500
C381	C38	0.711800	0.936200	0.501400
C391	C39	0.625200	0.875900	0.543300
C401	C40	0.630600	0.757100	0.541100
C411	C41	0.460900	0.553000	0.427200
C421	C42	0.340900	0.447500	0.574200
C431	C43	0.092800	0.546400	0.578400
C441	C44	0.973300	0.543300	0.576200
C451	C45	0.760700	0.549300	0.859300
C461	C46	0.685100	0.606500	0.922500
C471	C47	0.753400	0.672500	0.987200
C481	C48	0.869900	0.646500	0.971200
C491	C49	0.874400	0.573100	0.886900
C501	C50	0.796700	0.236700	0.546300
C511	C51	0.798400	0.123100	0.544500
C521	C52	0.711800	0.063800	0.498600
C531	C53	0.625200	0.124100	0.456700
C541	C54	0.630600	0.242900	0.458900
C551	C55	0.460900	0.447000	0.572800
C561	C56	0.340900	0.552500	0.425800
C571	C57	0.092800	0.453600	0.421600
C581	C58	0.973300	0.456700	0.423800
C591	C59	0.282200	0.500000	0.500000
C601	C60	0.154400	0.500000	0.500000
S31	S3	0.721600	0.537000	0.239890
S41	S4	0.721600	0.463000	0.760110
N51	N5	0.713900	0.700700	0.497000
N61	N6	0.713900	0.299300	0.503000
N71	N7	0.519000	0.500000	0.500000
N81	N8	0.916300	0.500000	0.500000
O71	O7	0.716300	0.466500	0.327300
O81	O8	0.610500	0.584400	0.215500
O91	O9	0.811900	0.621900	0.249600
O101	O10	0.716300	0.533500	0.672700
O111	O11	0.610500	0.415600	0.784500
O121	O12	0.811900	0.378100	0.750400
