data_QIVJAG_clean_PM
_symmetry_space_group_name_H-M	'P1'
_cell_length_a	11.343000
_cell_length_b	14.311000
_cell_length_c	16.928000
_cell_angle_alpha	90.000000
_cell_angle_beta	104.140000
_cell_angle_gamma	90.000000
_symmetry_Int_Tables_number 1

loop_
_symmetry_equiv_pos_as_xyz
'x,y,z'

loop_
_atom_site_label
_atom_site_type_symbol
_atom_site_fract_x
_atom_site_fract_y
_atom_site_fract_z
Cr11	Cr1	0.085200	0.883540	0.822680
Mn11	Mn1	0.316730	0.907100	0.142580
O11	O1	0.157450	0.798830	0.914320
O21	O2	0.162420	0.981350	0.901110
O31	O3	0.235780	0.878500	0.784500
O41	O4	0.038440	0.978860	0.736320
O51	O5	0.934920	0.886520	0.859390
O61	O6	0.002990	0.780100	0.755130
O71	O7	0.253410	0.806730	0.045770
O81	O8	0.267070	0.994820	0.029860
O91	O9	0.334940	0.964580	0.712340
O101	O10	0.129740	0.070150	0.661440
O111	O11	0.786230	0.788520	0.868480
O121	O12	0.834520	0.693520	0.737790
C11	C1	0.208400	0.841510	0.979160
C21	C2	0.214000	0.948940	0.970760
C31	C3	0.243900	0.944950	0.736870
C41	C4	0.127600	0.003790	0.707990
C51	C5	0.868800	0.813680	0.839290
C61	C6	0.903500	0.756040	0.771200
Cr21	Cr2	0.585200	0.383540	0.822680
Mn21	Mn2	0.816730	0.407100	0.142580
O131	O13	0.657450	0.298830	0.914320
O141	O14	0.662420	0.481350	0.901110
O151	O15	0.735780	0.378500	0.784500
O161	O16	0.538440	0.478860	0.736320
O171	O17	0.434920	0.386520	0.859390
O181	O18	0.502990	0.280100	0.755130
O191	O19	0.753410	0.306730	0.045770
O201	O20	0.767070	0.494820	0.029860
O211	O21	0.834940	0.464580	0.712340
O221	O22	0.629740	0.570150	0.661440
O231	O23	0.286230	0.288520	0.868480
O241	O24	0.334520	0.193520	0.737790
C71	C7	0.708400	0.341510	0.979160
C81	C8	0.714000	0.448940	0.970760
C91	C9	0.743900	0.444950	0.736870
C101	C10	0.627600	0.503790	0.707990
C111	C11	0.368800	0.313680	0.839290
C121	C12	0.403500	0.256040	0.771200
Cr31	Cr3	0.085200	0.116460	0.322680
Mn31	Mn3	0.316730	0.092900	0.642580
O251	O25	0.157450	0.201170	0.414320
O261	O26	0.162420	0.018650	0.401110
O271	O27	0.235780	0.121500	0.284500
O281	O28	0.038440	0.021140	0.236320
O291	O29	0.934920	0.113480	0.359390
O301	O30	0.002990	0.219900	0.255130
O311	O31	0.253410	0.193270	0.545770
O321	O32	0.267070	0.005180	0.529860
O331	O33	0.334940	0.035420	0.212340
O341	O34	0.129740	0.929850	0.161440
O351	O35	0.786230	0.211480	0.368480
O361	O36	0.834520	0.306480	0.237790
C131	C13	0.208400	0.158490	0.479160
C141	C14	0.214000	0.051060	0.470760
C151	C15	0.243900	0.055050	0.236870
C161	C16	0.127600	0.996210	0.207990
C171	C17	0.868800	0.186320	0.339290
C181	C18	0.903500	0.243960	0.271200
Cr41	Cr4	0.585200	0.616460	0.322680
Mn41	Mn4	0.816730	0.592900	0.642580
O371	O37	0.657450	0.701170	0.414320
O381	O38	0.662420	0.518650	0.401110
O391	O39	0.735780	0.621500	0.284500
O401	O40	0.538440	0.521140	0.236320
O411	O41	0.434920	0.613480	0.359390
O421	O42	0.502990	0.719900	0.255130
O431	O43	0.753410	0.693270	0.545770
O441	O44	0.767070	0.505180	0.529860
O451	O45	0.834940	0.535420	0.212340
O461	O46	0.629740	0.429850	0.161440
O471	O47	0.286230	0.711480	0.368480
O481	O48	0.334520	0.806480	0.237790
C191	C19	0.708400	0.658490	0.479160
C201	C20	0.714000	0.551060	0.470760
C211	C21	0.743900	0.555050	0.236870
C221	C22	0.627600	0.496210	0.207990
C231	C23	0.368800	0.686320	0.339290
C241	C24	0.403500	0.743960	0.271200
