data_QIVQAP_clean_PM
_symmetry_space_group_name_H-M	'P1'
_cell_length_a	27.265800
_cell_length_b	27.265800
_cell_length_c	27.265800
_cell_angle_alpha	90.000000
_cell_angle_beta	90.000000
_cell_angle_gamma	90.000000
_symmetry_Int_Tables_number 1

loop_
_symmetry_equiv_pos_as_xyz
'x,y,z'

loop_
_atom_site_label
_atom_site_type_symbol
_atom_site_fract_x
_atom_site_fract_y
_atom_site_fract_z
O11	O1	0.112200	0.973540	0.413580
O21	O2	0.182310	0.980870	0.453500
O31	O3	0.175290	0.079890	0.454690
S11	S1	0.110970	0.122270	0.536240
C11	C1	0.145300	0.997600	0.432900
C21	C2	0.137000	0.051300	0.431900
H11	H1	0.133600	0.061800	0.397400
H21	H2	0.105600	0.058500	0.448700
C31	C3	0.165250	0.129650	0.450800
C41	C4	0.137730	0.153160	0.486400
C51	C5	0.183200	0.156200	0.410300
C61	C6	0.170100	0.205300	0.404900
H31	H3	0.182000	0.222900	0.377300
C71	C7	0.140200	0.229400	0.438800
C81	C8	0.125900	0.203100	0.480100
H41	H4	0.107500	0.219300	0.504900
C91	C9	0.125200	0.282900	0.431100
C101	C10	0.088900	0.299100	0.467400
H51	H5	0.100600	0.291300	0.500500
H61	H6	0.057700	0.282200	0.461500
H71	H7	0.084000	0.334600	0.464400
C111	C11	0.173500	0.314800	0.437000
H81	H8	0.185900	0.311700	0.470600
H91	H9	0.165900	0.349300	0.430100
H101	H10	0.198400	0.303100	0.413900
C121	C12	0.107300	0.290600	0.378600
H111	H11	0.133000	0.280500	0.355600
H121	H12	0.099700	0.325400	0.373500
H131	H13	0.077800	0.271000	0.373000
O41	O4	0.612200	0.473540	0.913580
O51	O5	0.682310	0.480870	0.953500
O61	O6	0.675290	0.579890	0.954690
S21	S2	0.610970	0.622270	0.036240
C131	C13	0.645300	0.497600	0.932900
C141	C14	0.637000	0.551300	0.931900
H141	H14	0.633600	0.561800	0.897400
H151	H15	0.605600	0.558500	0.948700
C151	C15	0.665250	0.629650	0.950800
C161	C16	0.637730	0.653160	0.986400
C171	C17	0.683200	0.656200	0.910300
C181	C18	0.670100	0.705300	0.904900
H161	H16	0.682000	0.722900	0.877300
C191	C19	0.640200	0.729400	0.938800
C201	C20	0.625900	0.703100	0.980100
H171	H17	0.607500	0.719300	0.004900
C211	C21	0.625200	0.782900	0.931100
C221	C22	0.588900	0.799100	0.967400
H181	H18	0.600600	0.791300	0.000500
H191	H19	0.557700	0.782200	0.961500
H201	H20	0.584000	0.834600	0.964400
C231	C23	0.673500	0.814800	0.937000
H211	H21	0.685900	0.811700	0.970600
H221	H22	0.665900	0.849300	0.930100
H231	H23	0.698400	0.803100	0.913900
C241	C24	0.607300	0.790600	0.878600
H241	H24	0.633000	0.780500	0.855600
H251	H25	0.599700	0.825400	0.873500
H261	H26	0.577800	0.771000	0.873000
O71	O7	0.387800	0.026460	0.913580
O81	O8	0.317690	0.019130	0.953500
O91	O9	0.324710	0.920110	0.954690
S31	S3	0.389030	0.877730	0.036240
C251	C25	0.354700	0.002400	0.932900
C261	C26	0.363000	0.948700	0.931900
H271	H27	0.366400	0.938200	0.897400
H281	H28	0.394400	0.941500	0.948700
C271	C27	0.334750	0.870350	0.950800
C281	C28	0.362270	0.846840	0.986400
C291	C29	0.316800	0.843800	0.910300
C301	C30	0.329900	0.794700	0.904900
H291	H29	0.318000	0.777100	0.877300
C311	C31	0.359800	0.770600	0.938800
C321	C32	0.374100	0.796900	0.980100
H301	H30	0.392500	0.780700	0.004900
C331	C33	0.374800	0.717100	0.931100
C341	C34	0.411100	0.700900	0.967400
H311	H31	0.399400	0.708700	0.000500
H321	H32	0.442300	0.717800	0.961500
H331	H33	0.416000	0.665400	0.964400
C351	C35	0.326500	0.685200	0.937000
H341	H34	0.314100	0.688300	0.970600
H351	H35	0.334100	0.650700	0.930100
H361	H36	0.301600	0.696900	0.913900
C361	C36	0.392700	0.709400	0.878600
H371	H37	0.367000	0.719500	0.855600
H381	H38	0.400300	0.674600	0.873500
H391	H39	0.422200	0.729000	0.873000
O101	O10	0.887800	0.526460	0.413580
O111	O11	0.817690	0.519130	0.453500
O121	O12	0.824710	0.420110	0.454690
S41	S4	0.889030	0.377730	0.536240
C371	C37	0.854700	0.502400	0.432900
C381	C38	0.863000	0.448700	0.431900
H401	H40	0.866400	0.438200	0.397400
H411	H41	0.894400	0.441500	0.448700
C391	C39	0.834750	0.370350	0.450800
C401	C40	0.862270	0.346840	0.486400
C411	C41	0.816800	0.343800	0.410300
C421	C42	0.829900	0.294700	0.404900
H421	H42	0.818000	0.277100	0.377300
C431	C43	0.859800	0.270600	0.438800
C441	C44	0.874100	0.296900	0.480100
H431	H43	0.892500	0.280700	0.504900
C451	C45	0.874800	0.217100	0.431100
C461	C46	0.911100	0.200900	0.467400
H441	H44	0.899400	0.208700	0.500500
H451	H45	0.942300	0.217800	0.461500
H461	H46	0.916000	0.165400	0.464400
C471	C47	0.826500	0.185200	0.437000
H471	H47	0.814100	0.188300	0.470600
H481	H48	0.834100	0.150700	0.430100
H491	H49	0.801600	0.196900	0.413900
C481	C48	0.892700	0.209400	0.378600
H501	H50	0.867000	0.219500	0.355600
H511	H51	0.900300	0.174600	0.373500
H521	H52	0.922200	0.229000	0.373000
O131	O13	0.887800	0.473540	0.086420
O141	O14	0.817690	0.480870	0.046500
O151	O15	0.824710	0.579890	0.045310
S51	S5	0.889030	0.622270	0.963760
C491	C49	0.854700	0.497600	0.067100
C501	C50	0.863000	0.551300	0.068100
H531	H53	0.866400	0.561800	0.102600
H541	H54	0.894400	0.558500	0.051300
C511	C51	0.834750	0.629650	0.049200
C521	C52	0.862270	0.653160	0.013600
C531	C53	0.816800	0.656200	0.089700
C541	C54	0.829900	0.705300	0.095100
H551	H55	0.818000	0.722900	0.122700
C551	C55	0.859800	0.729400	0.061200
C561	C56	0.874100	0.703100	0.019900
H561	H56	0.892500	0.719300	0.995100
C571	C57	0.874800	0.782900	0.068900
C581	C58	0.911100	0.799100	0.032600
H571	H57	0.899400	0.791300	0.999500
H581	H58	0.942300	0.782200	0.038500
H591	H59	0.916000	0.834600	0.035600
C591	C59	0.826500	0.814800	0.063000
H601	H60	0.814100	0.811700	0.029400
H611	H61	0.834100	0.849300	0.069900
H621	H62	0.801600	0.803100	0.086100
C601	C60	0.892700	0.790600	0.121400
H631	H63	0.867000	0.780500	0.144400
H641	H64	0.900300	0.825400	0.126500
H651	H65	0.922200	0.771000	0.127000
O161	O16	0.387800	0.973540	0.586420
O171	O17	0.317690	0.980870	0.546500
O181	O18	0.324710	0.079890	0.545310
S61	S6	0.389030	0.122270	0.463760
C611	C61	0.354700	0.997600	0.567100
C621	C62	0.363000	0.051300	0.568100
H661	H66	0.366400	0.061800	0.602600
H671	H67	0.394400	0.058500	0.551300
C631	C63	0.334750	0.129650	0.549200
C641	C64	0.362270	0.153160	0.513600
C651	C65	0.316800	0.156200	0.589700
C661	C66	0.329900	0.205300	0.595100
H681	H68	0.318000	0.222900	0.622700
C671	C67	0.359800	0.229400	0.561200
C681	C68	0.374100	0.203100	0.519900
H691	H69	0.392500	0.219300	0.495100
C691	C69	0.374800	0.282900	0.568900
C701	C70	0.411100	0.299100	0.532600
H701	H70	0.399400	0.291300	0.499500
H711	H71	0.442300	0.282200	0.538500
H721	H72	0.416000	0.334600	0.535600
C711	C71	0.326500	0.314800	0.563000
H731	H73	0.314100	0.311700	0.529400
H741	H74	0.334100	0.349300	0.569900
H751	H75	0.301600	0.303100	0.586100
C721	C72	0.392700	0.290600	0.621400
H761	H76	0.367000	0.280500	0.644400
H771	H77	0.400300	0.325400	0.626500
H781	H78	0.422200	0.271000	0.627000
O191	O19	0.612200	0.526460	0.586420
O201	O20	0.682310	0.519130	0.546500
O211	O21	0.675290	0.420110	0.545310
S71	S7	0.610970	0.377730	0.463760
C731	C73	0.645300	0.502400	0.567100
C741	C74	0.637000	0.448700	0.568100
H791	H79	0.633600	0.438200	0.602600
H801	H80	0.605600	0.441500	0.551300
C751	C75	0.665250	0.370350	0.549200
C761	C76	0.637730	0.346840	0.513600
C771	C77	0.683200	0.343800	0.589700
C781	C78	0.670100	0.294700	0.595100
H811	H81	0.682000	0.277100	0.622700
C791	C79	0.640200	0.270600	0.561200
C801	C80	0.625900	0.296900	0.519900
H821	H82	0.607500	0.280700	0.495100
C811	C81	0.625200	0.217100	0.568900
C821	C82	0.588900	0.200900	0.532600
H831	H83	0.600600	0.208700	0.499500
H841	H84	0.557700	0.217800	0.538500
H851	H85	0.584000	0.165400	0.535600
C831	C83	0.673500	0.185200	0.563000
H861	H86	0.685900	0.188300	0.529400
H871	H87	0.665900	0.150700	0.569900
H881	H88	0.698400	0.196900	0.586100
C841	C84	0.607300	0.209400	0.621400
H891	H89	0.633000	0.219500	0.644400
H901	H90	0.599700	0.174600	0.626500
H911	H91	0.577800	0.229000	0.627000
O221	O22	0.112200	0.026460	0.086420
O231	O23	0.182310	0.019130	0.046500
O241	O24	0.175290	0.920110	0.045310
S81	S8	0.110970	0.877730	0.963760
C851	C85	0.145300	0.002400	0.067100
C861	C86	0.137000	0.948700	0.068100
H921	H92	0.133600	0.938200	0.102600
H931	H93	0.105600	0.941500	0.051300
C871	C87	0.165250	0.870350	0.049200
C881	C88	0.137730	0.846840	0.013600
C891	C89	0.183200	0.843800	0.089700
C901	C90	0.170100	0.794700	0.095100
H941	H94	0.182000	0.777100	0.122700
C911	C91	0.140200	0.770600	0.061200
C921	C92	0.125900	0.796900	0.019900
H951	H95	0.107500	0.780700	0.995100
C931	C93	0.125200	0.717100	0.068900
C941	C94	0.088900	0.700900	0.032600
H961	H96	0.100600	0.708700	0.999500
H971	H97	0.057700	0.717800	0.038500
H981	H98	0.084000	0.665400	0.035600
C951	C95	0.173500	0.685200	0.063000
H991	H99	0.185900	0.688300	0.029400
H1001	H100	0.165900	0.650700	0.069900
H1011	H101	0.198400	0.696900	0.086100
C961	C96	0.107300	0.709400	0.121400
H1021	H102	0.133000	0.719500	0.144400
H1031	H103	0.099700	0.674600	0.126500
H1041	H104	0.077800	0.729000	0.127000
O251	O25	0.413580	0.112200	0.973540
O261	O26	0.453500	0.182310	0.980870
O271	O27	0.454690	0.175290	0.079890
S91	S9	0.536240	0.110970	0.122270
C971	C97	0.432900	0.145300	0.997600
C981	C98	0.431900	0.137000	0.051300
H1051	H105	0.397400	0.133600	0.061800
H1061	H106	0.448700	0.105600	0.058500
C991	C99	0.450800	0.165250	0.129650
C1001	C100	0.486400	0.137730	0.153160
C1011	C101	0.410300	0.183200	0.156200
C1021	C102	0.404900	0.170100	0.205300
H1071	H107	0.377300	0.182000	0.222900
C1031	C103	0.438800	0.140200	0.229400
C1041	C104	0.480100	0.125900	0.203100
H1081	H108	0.504900	0.107500	0.219300
C1051	C105	0.431100	0.125200	0.282900
C1061	C106	0.467400	0.088900	0.299100
H1091	H109	0.500500	0.100600	0.291300
H1101	H110	0.461500	0.057700	0.282200
H1111	H111	0.464400	0.084000	0.334600
C1071	C107	0.437000	0.173500	0.314800
H1121	H112	0.470600	0.185900	0.311700
H1131	H113	0.430100	0.165900	0.349300
H1141	H114	0.413900	0.198400	0.303100
C1081	C108	0.378600	0.107300	0.290600
H1151	H115	0.355600	0.133000	0.280500
H1161	H116	0.373500	0.099700	0.325400
H1171	H117	0.373000	0.077800	0.271000
O281	O28	0.913580	0.612200	0.473540
O291	O29	0.953500	0.682310	0.480870
O301	O30	0.954690	0.675290	0.579890
S101	S10	0.036240	0.610970	0.622270
C1091	C109	0.932900	0.645300	0.497600
C1101	C110	0.931900	0.637000	0.551300
H1181	H118	0.897400	0.633600	0.561800
H1191	H119	0.948700	0.605600	0.558500
C1111	C111	0.950800	0.665250	0.629650
C1121	C112	0.986400	0.637730	0.653160
C1131	C113	0.910300	0.683200	0.656200
C1141	C114	0.904900	0.670100	0.705300
H1201	H120	0.877300	0.682000	0.722900
C1151	C115	0.938800	0.640200	0.729400
C1161	C116	0.980100	0.625900	0.703100
H1211	H121	0.004900	0.607500	0.719300
C1171	C117	0.931100	0.625200	0.782900
C1181	C118	0.967400	0.588900	0.799100
H1221	H122	0.000500	0.600600	0.791300
H1231	H123	0.961500	0.557700	0.782200
H1241	H124	0.964400	0.584000	0.834600
C1191	C119	0.937000	0.673500	0.814800
H1251	H125	0.970600	0.685900	0.811700
H1261	H126	0.930100	0.665900	0.849300
H1271	H127	0.913900	0.698400	0.803100
C1201	C120	0.878600	0.607300	0.790600
H1281	H128	0.855600	0.633000	0.780500
H1291	H129	0.873500	0.599700	0.825400
H1301	H130	0.873000	0.577800	0.771000
O311	O31	0.913580	0.387800	0.026460
O321	O32	0.953500	0.317690	0.019130
O331	O33	0.954690	0.324710	0.920110
S111	S11	0.036240	0.389030	0.877730
C1211	C121	0.932900	0.354700	0.002400
C1221	C122	0.931900	0.363000	0.948700
H1311	H131	0.897400	0.366400	0.938200
H1321	H132	0.948700	0.394400	0.941500
C1231	C123	0.950800	0.334750	0.870350
C1241	C124	0.986400	0.362270	0.846840
C1251	C125	0.910300	0.316800	0.843800
C1261	C126	0.904900	0.329900	0.794700
H1331	H133	0.877300	0.318000	0.777100
C1271	C127	0.938800	0.359800	0.770600
C1281	C128	0.980100	0.374100	0.796900
H1341	H134	0.004900	0.392500	0.780700
C1291	C129	0.931100	0.374800	0.717100
C1301	C130	0.967400	0.411100	0.700900
H1351	H135	0.000500	0.399400	0.708700
H1361	H136	0.961500	0.442300	0.717800
H1371	H137	0.964400	0.416000	0.665400
C1311	C131	0.937000	0.326500	0.685200
H1381	H138	0.970600	0.314100	0.688300
H1391	H139	0.930100	0.334100	0.650700
H1401	H140	0.913900	0.301600	0.696900
C1321	C132	0.878600	0.392700	0.709400
H1411	H141	0.855600	0.367000	0.719500
H1421	H142	0.873500	0.400300	0.674600
H1431	H143	0.873000	0.422200	0.729000
O341	O34	0.413580	0.887800	0.526460
O351	O35	0.453500	0.817690	0.519130
O361	O36	0.454690	0.824710	0.420110
S121	S12	0.536240	0.889030	0.377730
C1331	C133	0.432900	0.854700	0.502400
C1341	C134	0.431900	0.863000	0.448700
H1441	H144	0.397400	0.866400	0.438200
H1451	H145	0.448700	0.894400	0.441500
C1351	C135	0.450800	0.834750	0.370350
C1361	C136	0.486400	0.862270	0.346840
C1371	C137	0.410300	0.816800	0.343800
C1381	C138	0.404900	0.829900	0.294700
H1461	H146	0.377300	0.818000	0.277100
C1391	C139	0.438800	0.859800	0.270600
C1401	C140	0.480100	0.874100	0.296900
H1471	H147	0.504900	0.892500	0.280700
C1411	C141	0.431100	0.874800	0.217100
C1421	C142	0.467400	0.911100	0.200900
H1481	H148	0.500500	0.899400	0.208700
H1491	H149	0.461500	0.942300	0.217800
H1501	H150	0.464400	0.916000	0.165400
C1431	C143	0.437000	0.826500	0.185200
H1511	H151	0.470600	0.814100	0.188300
H1521	H152	0.430100	0.834100	0.150700
H1531	H153	0.413900	0.801600	0.196900
C1441	C144	0.378600	0.892700	0.209400
H1541	H154	0.355600	0.867000	0.219500
H1551	H155	0.373500	0.900300	0.174600
H1561	H156	0.373000	0.922200	0.229000
O371	O37	0.086420	0.887800	0.473540
O381	O38	0.046500	0.817690	0.480870
O391	O39	0.045310	0.824710	0.579890
S131	S13	0.963760	0.889030	0.622270
C1451	C145	0.067100	0.854700	0.497600
C1461	C146	0.068100	0.863000	0.551300
H1571	H157	0.102600	0.866400	0.561800
H1581	H158	0.051300	0.894400	0.558500
C1471	C147	0.049200	0.834750	0.629650
C1481	C148	0.013600	0.862270	0.653160
C1491	C149	0.089700	0.816800	0.656200
C1501	C150	0.095100	0.829900	0.705300
H1591	H159	0.122700	0.818000	0.722900
C1511	C151	0.061200	0.859800	0.729400
C1521	C152	0.019900	0.874100	0.703100
H1601	H160	0.995100	0.892500	0.719300
C1531	C153	0.068900	0.874800	0.782900
C1541	C154	0.032600	0.911100	0.799100
H1611	H161	0.999500	0.899400	0.791300
H1621	H162	0.038500	0.942300	0.782200
H1631	H163	0.035600	0.916000	0.834600
C1551	C155	0.063000	0.826500	0.814800
H1641	H164	0.029400	0.814100	0.811700
H1651	H165	0.069900	0.834100	0.849300
H1661	H166	0.086100	0.801600	0.803100
C1561	C156	0.121400	0.892700	0.790600
H1671	H167	0.144400	0.867000	0.780500
H1681	H168	0.126500	0.900300	0.825400
H1691	H169	0.127000	0.922200	0.771000
O401	O40	0.586420	0.387800	0.973540
O411	O41	0.546500	0.317690	0.980870
O421	O42	0.545310	0.324710	0.079890
S141	S14	0.463760	0.389030	0.122270
C1571	C157	0.567100	0.354700	0.997600
C1581	C158	0.568100	0.363000	0.051300
H1701	H170	0.602600	0.366400	0.061800
H1711	H171	0.551300	0.394400	0.058500
C1591	C159	0.549200	0.334750	0.129650
C1601	C160	0.513600	0.362270	0.153160
C1611	C161	0.589700	0.316800	0.156200
C1621	C162	0.595100	0.329900	0.205300
H1721	H172	0.622700	0.318000	0.222900
C1631	C163	0.561200	0.359800	0.229400
C1641	C164	0.519900	0.374100	0.203100
H1731	H173	0.495100	0.392500	0.219300
C1651	C165	0.568900	0.374800	0.282900
C1661	C166	0.532600	0.411100	0.299100
H1741	H174	0.499500	0.399400	0.291300
H1751	H175	0.538500	0.442300	0.282200
H1761	H176	0.535600	0.416000	0.334600
C1671	C167	0.563000	0.326500	0.314800
H1771	H177	0.529400	0.314100	0.311700
H1781	H178	0.569900	0.334100	0.349300
H1791	H179	0.586100	0.301600	0.303100
C1681	C168	0.621400	0.392700	0.290600
H1801	H180	0.644400	0.367000	0.280500
H1811	H181	0.626500	0.400300	0.325400
H1821	H182	0.627000	0.422200	0.271000
O431	O43	0.586420	0.612200	0.526460
O441	O44	0.546500	0.682310	0.519130
O451	O45	0.545310	0.675290	0.420110
S151	S15	0.463760	0.610970	0.377730
C1691	C169	0.567100	0.645300	0.502400
C1701	C170	0.568100	0.637000	0.448700
H1831	H183	0.602600	0.633600	0.438200
H1841	H184	0.551300	0.605600	0.441500
C1711	C171	0.549200	0.665250	0.370350
C1721	C172	0.513600	0.637730	0.346840
C1731	C173	0.589700	0.683200	0.343800
C1741	C174	0.595100	0.670100	0.294700
H1851	H185	0.622700	0.682000	0.277100
C1751	C175	0.561200	0.640200	0.270600
C1761	C176	0.519900	0.625900	0.296900
H1861	H186	0.495100	0.607500	0.280700
C1771	C177	0.568900	0.625200	0.217100
C1781	C178	0.532600	0.588900	0.200900
H1871	H187	0.499500	0.600600	0.208700
H1881	H188	0.538500	0.557700	0.217800
H1891	H189	0.535600	0.584000	0.165400
C1791	C179	0.563000	0.673500	0.185200
H1901	H190	0.529400	0.685900	0.188300
H1911	H191	0.569900	0.665900	0.150700
H1921	H192	0.586100	0.698400	0.196900
C1801	C180	0.621400	0.607300	0.209400
H1931	H193	0.644400	0.633000	0.219500
H1941	H194	0.626500	0.599700	0.174600
H1951	H195	0.627000	0.577800	0.229000
O461	O46	0.086420	0.112200	0.026460
O471	O47	0.046500	0.182310	0.019130
O481	O48	0.045310	0.175290	0.920110
S161	S16	0.963760	0.110970	0.877730
C1811	C181	0.067100	0.145300	0.002400
C1821	C182	0.068100	0.137000	0.948700
H1961	H196	0.102600	0.133600	0.938200
H1971	H197	0.051300	0.105600	0.941500
C1831	C183	0.049200	0.165250	0.870350
C1841	C184	0.013600	0.137730	0.846840
C1851	C185	0.089700	0.183200	0.843800
C1861	C186	0.095100	0.170100	0.794700
H1981	H198	0.122700	0.182000	0.777100
C1871	C187	0.061200	0.140200	0.770600
C1881	C188	0.019900	0.125900	0.796900
H1991	H199	0.995100	0.107500	0.780700
C1891	C189	0.068900	0.125200	0.717100
C1901	C190	0.032600	0.088900	0.700900
H2001	H200	0.999500	0.100600	0.708700
H2011	H201	0.038500	0.057700	0.717800
H2021	H202	0.035600	0.084000	0.665400
C1911	C191	0.063000	0.173500	0.685200
H2031	H203	0.029400	0.185900	0.688300
H2041	H204	0.069900	0.165900	0.650700
H2051	H205	0.086100	0.198400	0.696900
C1921	C192	0.121400	0.107300	0.709400
H2061	H206	0.144400	0.133000	0.719500
H2071	H207	0.126500	0.099700	0.674600
H2081	H208	0.127000	0.077800	0.729000
O491	O49	0.973540	0.413580	0.112200
O501	O50	0.980870	0.453500	0.182310
O511	O51	0.079890	0.454690	0.175290
S171	S17	0.122270	0.536240	0.110970
C1931	C193	0.997600	0.432900	0.145300
C1941	C194	0.051300	0.431900	0.137000
H2091	H209	0.061800	0.397400	0.133600
H2101	H210	0.058500	0.448700	0.105600
C1951	C195	0.129650	0.450800	0.165250
C1961	C196	0.153160	0.486400	0.137730
C1971	C197	0.156200	0.410300	0.183200
C1981	C198	0.205300	0.404900	0.170100
H2111	H211	0.222900	0.377300	0.182000
C1991	C199	0.229400	0.438800	0.140200
C2001	C200	0.203100	0.480100	0.125900
H2121	H212	0.219300	0.504900	0.107500
C2011	C201	0.282900	0.431100	0.125200
C2021	C202	0.299100	0.467400	0.088900
H2131	H213	0.291300	0.500500	0.100600
H2141	H214	0.282200	0.461500	0.057700
H2151	H215	0.334600	0.464400	0.084000
C2031	C203	0.314800	0.437000	0.173500
H2161	H216	0.311700	0.470600	0.185900
H2171	H217	0.349300	0.430100	0.165900
H2181	H218	0.303100	0.413900	0.198400
C2041	C204	0.290600	0.378600	0.107300
H2191	H219	0.280500	0.355600	0.133000
H2201	H220	0.325400	0.373500	0.099700
H2211	H221	0.271000	0.373000	0.077800
O521	O52	0.473540	0.913580	0.612200
O531	O53	0.480870	0.953500	0.682310
O541	O54	0.579890	0.954690	0.675290
S181	S18	0.622270	0.036240	0.610970
C2051	C205	0.497600	0.932900	0.645300
C2061	C206	0.551300	0.931900	0.637000
H2221	H222	0.561800	0.897400	0.633600
H2231	H223	0.558500	0.948700	0.605600
C2071	C207	0.629650	0.950800	0.665250
C2081	C208	0.653160	0.986400	0.637730
C2091	C209	0.656200	0.910300	0.683200
C2101	C210	0.705300	0.904900	0.670100
H2241	H224	0.722900	0.877300	0.682000
C2111	C211	0.729400	0.938800	0.640200
C2121	C212	0.703100	0.980100	0.625900
H2251	H225	0.719300	0.004900	0.607500
C2131	C213	0.782900	0.931100	0.625200
C2141	C214	0.799100	0.967400	0.588900
H2261	H226	0.791300	0.000500	0.600600
H2271	H227	0.782200	0.961500	0.557700
H2281	H228	0.834600	0.964400	0.584000
C2151	C215	0.814800	0.937000	0.673500
H2291	H229	0.811700	0.970600	0.685900
H2301	H230	0.849300	0.930100	0.665900
H2311	H231	0.803100	0.913900	0.698400
C2161	C216	0.790600	0.878600	0.607300
H2321	H232	0.780500	0.855600	0.633000
H2331	H233	0.825400	0.873500	0.599700
H2341	H234	0.771000	0.873000	0.577800
O551	O55	0.026460	0.913580	0.387800
O561	O56	0.019130	0.953500	0.317690
O571	O57	0.920110	0.954690	0.324710
S191	S19	0.877730	0.036240	0.389030
C2171	C217	0.002400	0.932900	0.354700
C2181	C218	0.948700	0.931900	0.363000
H2351	H235	0.938200	0.897400	0.366400
H2361	H236	0.941500	0.948700	0.394400
C2191	C219	0.870350	0.950800	0.334750
C2201	C220	0.846840	0.986400	0.362270
C2211	C221	0.843800	0.910300	0.316800
C2221	C222	0.794700	0.904900	0.329900
H2371	H237	0.777100	0.877300	0.318000
C2231	C223	0.770600	0.938800	0.359800
C2241	C224	0.796900	0.980100	0.374100
H2381	H238	0.780700	0.004900	0.392500
C2251	C225	0.717100	0.931100	0.374800
C2261	C226	0.700900	0.967400	0.411100
H2391	H239	0.708700	0.000500	0.399400
H2401	H240	0.717800	0.961500	0.442300
H2411	H241	0.665400	0.964400	0.416000
C2271	C227	0.685200	0.937000	0.326500
H2421	H242	0.688300	0.970600	0.314100
H2431	H243	0.650700	0.930100	0.334100
H2441	H244	0.696900	0.913900	0.301600
C2281	C228	0.709400	0.878600	0.392700
H2451	H245	0.719500	0.855600	0.367000
H2461	H246	0.674600	0.873500	0.400300
H2471	H247	0.729000	0.873000	0.422200
O581	O58	0.526460	0.413580	0.887800
O591	O59	0.519130	0.453500	0.817690
O601	O60	0.420110	0.454690	0.824710
S201	S20	0.377730	0.536240	0.889030
C2291	C229	0.502400	0.432900	0.854700
C2301	C230	0.448700	0.431900	0.863000
H2481	H248	0.438200	0.397400	0.866400
H2491	H249	0.441500	0.448700	0.894400
C2311	C231	0.370350	0.450800	0.834750
C2321	C232	0.346840	0.486400	0.862270
C2331	C233	0.343800	0.410300	0.816800
C2341	C234	0.294700	0.404900	0.829900
H2501	H250	0.277100	0.377300	0.818000
C2351	C235	0.270600	0.438800	0.859800
C2361	C236	0.296900	0.480100	0.874100
H2511	H251	0.280700	0.504900	0.892500
C2371	C237	0.217100	0.431100	0.874800
C2381	C238	0.200900	0.467400	0.911100
H2521	H252	0.208700	0.500500	0.899400
H2531	H253	0.217800	0.461500	0.942300
H2541	H254	0.165400	0.464400	0.916000
C2391	C239	0.185200	0.437000	0.826500
H2551	H255	0.188300	0.470600	0.814100
H2561	H256	0.150700	0.430100	0.834100
H2571	H257	0.196900	0.413900	0.801600
C2401	C240	0.209400	0.378600	0.892700
H2581	H258	0.219500	0.355600	0.867000
H2591	H259	0.174600	0.373500	0.900300
H2601	H260	0.229000	0.373000	0.922200
O611	O61	0.473540	0.086420	0.887800
O621	O62	0.480870	0.046500	0.817690
O631	O63	0.579890	0.045310	0.824710
S211	S21	0.622270	0.963760	0.889030
C2411	C241	0.497600	0.067100	0.854700
C2421	C242	0.551300	0.068100	0.863000
H2611	H261	0.561800	0.102600	0.866400
H2621	H262	0.558500	0.051300	0.894400
C2431	C243	0.629650	0.049200	0.834750
C2441	C244	0.653160	0.013600	0.862270
C2451	C245	0.656200	0.089700	0.816800
C2461	C246	0.705300	0.095100	0.829900
H2631	H263	0.722900	0.122700	0.818000
C2471	C247	0.729400	0.061200	0.859800
C2481	C248	0.703100	0.019900	0.874100
H2641	H264	0.719300	0.995100	0.892500
C2491	C249	0.782900	0.068900	0.874800
C2501	C250	0.799100	0.032600	0.911100
H2651	H265	0.791300	0.999500	0.899400
H2661	H266	0.782200	0.038500	0.942300
H2671	H267	0.834600	0.035600	0.916000
C2511	C251	0.814800	0.063000	0.826500
H2681	H268	0.811700	0.029400	0.814100
H2691	H269	0.849300	0.069900	0.834100
H2701	H270	0.803100	0.086100	0.801600
C2521	C252	0.790600	0.121400	0.892700
H2711	H271	0.780500	0.144400	0.867000
H2721	H272	0.825400	0.126500	0.900300
H2731	H273	0.771000	0.127000	0.922200
O641	O64	0.973540	0.586420	0.387800
O651	O65	0.980870	0.546500	0.317690
O661	O66	0.079890	0.545310	0.324710
S221	S22	0.122270	0.463760	0.389030
C2531	C253	0.997600	0.567100	0.354700
C2541	C254	0.051300	0.568100	0.363000
H2741	H274	0.061800	0.602600	0.366400
H2751	H275	0.058500	0.551300	0.394400
C2551	C255	0.129650	0.549200	0.334750
C2561	C256	0.153160	0.513600	0.362270
C2571	C257	0.156200	0.589700	0.316800
C2581	C258	0.205300	0.595100	0.329900
H2761	H276	0.222900	0.622700	0.318000
C2591	C259	0.229400	0.561200	0.359800
C2601	C260	0.203100	0.519900	0.374100
H2771	H277	0.219300	0.495100	0.392500
C2611	C261	0.282900	0.568900	0.374800
C2621	C262	0.299100	0.532600	0.411100
H2781	H278	0.291300	0.499500	0.399400
H2791	H279	0.282200	0.538500	0.442300
H2801	H280	0.334600	0.535600	0.416000
C2631	C263	0.314800	0.563000	0.326500
H2811	H281	0.311700	0.529400	0.314100
H2821	H282	0.349300	0.569900	0.334100
H2831	H283	0.303100	0.586100	0.301600
C2641	C264	0.290600	0.621400	0.392700
H2841	H284	0.280500	0.644400	0.367000
H2851	H285	0.325400	0.626500	0.400300
H2861	H286	0.271000	0.627000	0.422200
O671	O67	0.526460	0.586420	0.612200
O681	O68	0.519130	0.546500	0.682310
O691	O69	0.420110	0.545310	0.675290
S231	S23	0.377730	0.463760	0.610970
C2651	C265	0.502400	0.567100	0.645300
C2661	C266	0.448700	0.568100	0.637000
H2871	H287	0.438200	0.602600	0.633600
H2881	H288	0.441500	0.551300	0.605600
C2671	C267	0.370350	0.549200	0.665250
C2681	C268	0.346840	0.513600	0.637730
C2691	C269	0.343800	0.589700	0.683200
C2701	C270	0.294700	0.595100	0.670100
H2891	H289	0.277100	0.622700	0.682000
C2711	C271	0.270600	0.561200	0.640200
C2721	C272	0.296900	0.519900	0.625900
H2901	H290	0.280700	0.495100	0.607500
C2731	C273	0.217100	0.568900	0.625200
C2741	C274	0.200900	0.532600	0.588900
H2911	H291	0.208700	0.499500	0.600600
H2921	H292	0.217800	0.538500	0.557700
H2931	H293	0.165400	0.535600	0.584000
C2751	C275	0.185200	0.563000	0.673500
H2941	H294	0.188300	0.529400	0.685900
H2951	H295	0.150700	0.569900	0.665900
H2961	H296	0.196900	0.586100	0.698400
C2761	C276	0.209400	0.621400	0.607300
H2971	H297	0.219500	0.644400	0.633000
H2981	H298	0.174600	0.626500	0.599700
H2991	H299	0.229000	0.627000	0.577800
O701	O70	0.026460	0.086420	0.112200
O711	O71	0.019130	0.046500	0.182310
O721	O72	0.920110	0.045310	0.175290
S241	S24	0.877730	0.963760	0.110970
C2771	C277	0.002400	0.067100	0.145300
C2781	C278	0.948700	0.068100	0.137000
H3001	H300	0.938200	0.102600	0.133600
H3011	H301	0.941500	0.051300	0.105600
C2791	C279	0.870350	0.049200	0.165250
C2801	C280	0.846840	0.013600	0.137730
C2811	C281	0.843800	0.089700	0.183200
C2821	C282	0.794700	0.095100	0.170100
H3021	H302	0.777100	0.122700	0.182000
C2831	C283	0.770600	0.061200	0.140200
C2841	C284	0.796900	0.019900	0.125900
H3031	H303	0.780700	0.995100	0.107500
C2851	C285	0.717100	0.068900	0.125200
C2861	C286	0.700900	0.032600	0.088900
H3041	H304	0.708700	0.999500	0.100600
H3051	H305	0.717800	0.038500	0.057700
H3061	H306	0.665400	0.035600	0.084000
C2871	C287	0.685200	0.063000	0.173500
H3071	H307	0.688300	0.029400	0.185900
H3081	H308	0.650700	0.069900	0.165900
H3091	H309	0.696900	0.086100	0.198400
C2881	C288	0.709400	0.121400	0.107300
H3101	H310	0.719500	0.144400	0.133000
H3111	H311	0.674600	0.126500	0.099700
H3121	H312	0.729000	0.127000	0.077800
O731	O73	0.223540	0.362200	0.663580
O741	O74	0.230870	0.432310	0.703500
O751	O75	0.329890	0.425290	0.704690
S251	S25	0.372270	0.360970	0.786240
C2891	C289	0.247600	0.395300	0.682900
C2901	C290	0.301300	0.387000	0.681900
H3131	H313	0.311800	0.383600	0.647400
H3141	H314	0.308500	0.355600	0.698700
C2911	C291	0.379650	0.415250	0.700800
C2921	C292	0.403160	0.387730	0.736400
C2931	C293	0.406200	0.433200	0.660300
C2941	C294	0.455300	0.420100	0.654900
H3151	H315	0.472900	0.432000	0.627300
C2951	C295	0.479400	0.390200	0.688800
C2961	C296	0.453100	0.375900	0.730100
H3161	H316	0.469300	0.357500	0.754900
C2971	C297	0.532900	0.375200	0.681100
C2981	C298	0.549100	0.338900	0.717400
H3171	H317	0.541300	0.350600	0.750500
H3181	H318	0.532200	0.307700	0.711500
H3191	H319	0.584600	0.334000	0.714400
C2991	C299	0.564800	0.423500	0.687000
H3201	H320	0.561700	0.435900	0.720600
H3211	H321	0.599300	0.415900	0.680100
H3221	H322	0.553100	0.448400	0.663900
C3001	C300	0.540600	0.357300	0.628600
H3231	H323	0.530500	0.383000	0.605600
H3241	H324	0.575400	0.349700	0.623500
H3251	H325	0.521000	0.327800	0.623000
O761	O76	0.723540	0.862200	0.163580
O771	O77	0.730870	0.932310	0.203500
O781	O78	0.829890	0.925290	0.204690
S261	S26	0.872270	0.860970	0.286240
C3011	C301	0.747600	0.895300	0.182900
C3021	C302	0.801300	0.887000	0.181900
H3261	H326	0.811800	0.883600	0.147400
H3271	H327	0.808500	0.855600	0.198700
C3031	C303	0.879650	0.915250	0.200800
C3041	C304	0.903160	0.887730	0.236400
C3051	C305	0.906200	0.933200	0.160300
C3061	C306	0.955300	0.920100	0.154900
H3281	H328	0.972900	0.932000	0.127300
C3071	C307	0.979400	0.890200	0.188800
C3081	C308	0.953100	0.875900	0.230100
H3291	H329	0.969300	0.857500	0.254900
C3091	C309	0.032900	0.875200	0.181100
C3101	C310	0.049100	0.838900	0.217400
H3301	H330	0.041300	0.850600	0.250500
H3311	H331	0.032200	0.807700	0.211500
H3321	H332	0.084600	0.834000	0.214400
C3111	C311	0.064800	0.923500	0.187000
H3331	H333	0.061700	0.935900	0.220600
H3341	H334	0.099300	0.915900	0.180100
H3351	H335	0.053100	0.948400	0.163900
C3121	C312	0.040600	0.857300	0.128600
H3361	H336	0.030500	0.883000	0.105600
H3371	H337	0.075400	0.849700	0.123500
H3381	H338	0.021000	0.827800	0.123000
O791	O79	0.276460	0.637800	0.163580
O801	O80	0.269130	0.567690	0.203500
O811	O81	0.170110	0.574710	0.204690
S271	S27	0.127730	0.639030	0.286240
C3131	C313	0.252400	0.604700	0.182900
C3141	C314	0.198700	0.613000	0.181900
H3391	H339	0.188200	0.616400	0.147400
H3401	H340	0.191500	0.644400	0.198700
C3151	C315	0.120350	0.584750	0.200800
C3161	C316	0.096840	0.612270	0.236400
C3171	C317	0.093800	0.566800	0.160300
C3181	C318	0.044700	0.579900	0.154900
H3411	H341	0.027100	0.568000	0.127300
C3191	C319	0.020600	0.609800	0.188800
C3201	C320	0.046900	0.624100	0.230100
H3421	H342	0.030700	0.642500	0.254900
C3211	C321	0.967100	0.624800	0.181100
C3221	C322	0.950900	0.661100	0.217400
H3431	H343	0.958700	0.649400	0.250500
H3441	H344	0.967800	0.692300	0.211500
H3451	H345	0.915400	0.666000	0.214400
C3231	C323	0.935200	0.576500	0.187000
H3461	H346	0.938300	0.564100	0.220600
H3471	H347	0.900700	0.584100	0.180100
H3481	H348	0.946900	0.551600	0.163900
C3241	C324	0.959400	0.642700	0.128600
H3491	H349	0.969500	0.617000	0.105600
H3501	H350	0.924600	0.650300	0.123500
H3511	H351	0.979000	0.672200	0.123000
O821	O82	0.776460	0.137800	0.663580
O831	O83	0.769130	0.067690	0.703500
O841	O84	0.670110	0.074710	0.704690
S281	S28	0.627730	0.139030	0.786240
C3251	C325	0.752400	0.104700	0.682900
C3261	C326	0.698700	0.113000	0.681900
H3521	H352	0.688200	0.116400	0.647400
H3531	H353	0.691500	0.144400	0.698700
C3271	C327	0.620350	0.084750	0.700800
C3281	C328	0.596840	0.112270	0.736400
C3291	C329	0.593800	0.066800	0.660300
C3301	C330	0.544700	0.079900	0.654900
H3541	H354	0.527100	0.068000	0.627300
C3311	C331	0.520600	0.109800	0.688800
C3321	C332	0.546900	0.124100	0.730100
H3551	H355	0.530700	0.142500	0.754900
C3331	C333	0.467100	0.124800	0.681100
C3341	C334	0.450900	0.161100	0.717400
H3561	H356	0.458700	0.149400	0.750500
H3571	H357	0.467800	0.192300	0.711500
H3581	H358	0.415400	0.166000	0.714400
C3351	C335	0.435200	0.076500	0.687000
H3591	H359	0.438300	0.064100	0.720600
H3601	H360	0.400700	0.084100	0.680100
H3611	H361	0.446900	0.051600	0.663900
C3361	C336	0.459400	0.142700	0.628600
H3621	H362	0.469500	0.117000	0.605600
H3631	H363	0.424600	0.150300	0.623500
H3641	H364	0.479000	0.172200	0.623000
O851	O85	0.723540	0.137800	0.336420
O861	O86	0.730870	0.067690	0.296500
O871	O87	0.829890	0.074710	0.295310
S291	S29	0.872270	0.139030	0.213760
C3371	C337	0.747600	0.104700	0.317100
C3381	C338	0.801300	0.113000	0.318100
H3651	H365	0.811800	0.116400	0.352600
H3661	H366	0.808500	0.144400	0.301300
C3391	C339	0.879650	0.084750	0.299200
C3401	C340	0.903160	0.112270	0.263600
C3411	C341	0.906200	0.066800	0.339700
C3421	C342	0.955300	0.079900	0.345100
H3671	H367	0.972900	0.068000	0.372700
C3431	C343	0.979400	0.109800	0.311200
C3441	C344	0.953100	0.124100	0.269900
H3681	H368	0.969300	0.142500	0.245100
C3451	C345	0.032900	0.124800	0.318900
C3461	C346	0.049100	0.161100	0.282600
H3691	H369	0.041300	0.149400	0.249500
H3701	H370	0.032200	0.192300	0.288500
H3711	H371	0.084600	0.166000	0.285600
C3471	C347	0.064800	0.076500	0.313000
H3721	H372	0.061700	0.064100	0.279400
H3731	H373	0.099300	0.084100	0.319900
H3741	H374	0.053100	0.051600	0.336100
C3481	C348	0.040600	0.142700	0.371400
H3751	H375	0.030500	0.117000	0.394400
H3761	H376	0.075400	0.150300	0.376500
H3771	H377	0.021000	0.172200	0.377000
O881	O88	0.223540	0.637800	0.836420
O891	O89	0.230870	0.567690	0.796500
O901	O90	0.329890	0.574710	0.795310
S301	S30	0.372270	0.639030	0.713760
C3491	C349	0.247600	0.604700	0.817100
C3501	C350	0.301300	0.613000	0.818100
H3781	H378	0.311800	0.616400	0.852600
H3791	H379	0.308500	0.644400	0.801300
C3511	C351	0.379650	0.584750	0.799200
C3521	C352	0.403160	0.612270	0.763600
C3531	C353	0.406200	0.566800	0.839700
C3541	C354	0.455300	0.579900	0.845100
H3801	H380	0.472900	0.568000	0.872700
C3551	C355	0.479400	0.609800	0.811200
C3561	C356	0.453100	0.624100	0.769900
H3811	H381	0.469300	0.642500	0.745100
C3571	C357	0.532900	0.624800	0.818900
C3581	C358	0.549100	0.661100	0.782600
H3821	H382	0.541300	0.649400	0.749500
H3831	H383	0.532200	0.692300	0.788500
H3841	H384	0.584600	0.666000	0.785600
C3591	C359	0.564800	0.576500	0.813000
H3851	H385	0.561700	0.564100	0.779400
H3861	H386	0.599300	0.584100	0.819900
H3871	H387	0.553100	0.551600	0.836100
C3601	C360	0.540600	0.642700	0.871400
H3881	H388	0.530500	0.617000	0.894400
H3891	H389	0.575400	0.650300	0.876500
H3901	H390	0.521000	0.672200	0.877000
O911	O91	0.776460	0.862200	0.836420
O921	O92	0.769130	0.932310	0.796500
O931	O93	0.670110	0.925290	0.795310
S311	S31	0.627730	0.860970	0.713760
C3611	C361	0.752400	0.895300	0.817100
C3621	C362	0.698700	0.887000	0.818100
H3911	H391	0.688200	0.883600	0.852600
H3921	H392	0.691500	0.855600	0.801300
C3631	C363	0.620350	0.915250	0.799200
C3641	C364	0.596840	0.887730	0.763600
C3651	C365	0.593800	0.933200	0.839700
C3661	C366	0.544700	0.920100	0.845100
H3931	H393	0.527100	0.932000	0.872700
C3671	C367	0.520600	0.890200	0.811200
C3681	C368	0.546900	0.875900	0.769900
H3941	H394	0.530700	0.857500	0.745100
C3691	C369	0.467100	0.875200	0.818900
C3701	C370	0.450900	0.838900	0.782600
H3951	H395	0.458700	0.850600	0.749500
H3961	H396	0.467800	0.807700	0.788500
H3971	H397	0.415400	0.834000	0.785600
C3711	C371	0.435200	0.923500	0.813000
H3981	H398	0.438300	0.935900	0.779400
H3991	H399	0.400700	0.915900	0.819900
H4001	H400	0.446900	0.948400	0.836100
C3721	C372	0.459400	0.857300	0.871400
H4011	H401	0.469500	0.883000	0.894400
H4021	H402	0.424600	0.849700	0.876500
H4031	H403	0.479000	0.827800	0.877000
O941	O94	0.276460	0.362200	0.336420
O951	O95	0.269130	0.432310	0.296500
O961	O96	0.170110	0.425290	0.295310
S321	S32	0.127730	0.360970	0.213760
C3731	C373	0.252400	0.395300	0.317100
C3741	C374	0.198700	0.387000	0.318100
H4041	H404	0.188200	0.383600	0.352600
H4051	H405	0.191500	0.355600	0.301300
C3751	C375	0.120350	0.415250	0.299200
C3761	C376	0.096840	0.387730	0.263600
C3771	C377	0.093800	0.433200	0.339700
C3781	C378	0.044700	0.420100	0.345100
H4061	H406	0.027100	0.432000	0.372700
C3791	C379	0.020600	0.390200	0.311200
C3801	C380	0.046900	0.375900	0.269900
H4071	H407	0.030700	0.357500	0.245100
C3811	C381	0.967100	0.375200	0.318900
C3821	C382	0.950900	0.338900	0.282600
H4081	H408	0.958700	0.350600	0.249500
H4091	H409	0.967800	0.307700	0.288500
H4101	H410	0.915400	0.334000	0.285600
C3831	C383	0.935200	0.423500	0.313000
H4111	H411	0.938300	0.435900	0.279400
H4121	H412	0.900700	0.415900	0.319900
H4131	H413	0.946900	0.448400	0.336100
C3841	C384	0.959400	0.357300	0.371400
H4141	H414	0.969500	0.383000	0.394400
H4151	H415	0.924600	0.349700	0.376500
H4161	H416	0.979000	0.327800	0.377000
O971	O97	0.362200	0.663580	0.223540
O981	O98	0.432310	0.703500	0.230870
O991	O99	0.425290	0.704690	0.329890
S331	S33	0.360970	0.786240	0.372270
C3851	C385	0.395300	0.682900	0.247600
C3861	C386	0.387000	0.681900	0.301300
H4171	H417	0.383600	0.647400	0.311800
H4181	H418	0.355600	0.698700	0.308500
C3871	C387	0.415250	0.700800	0.379650
C3881	C388	0.387730	0.736400	0.403160
C3891	C389	0.433200	0.660300	0.406200
C3901	C390	0.420100	0.654900	0.455300
H4191	H419	0.432000	0.627300	0.472900
C3911	C391	0.390200	0.688800	0.479400
C3921	C392	0.375900	0.730100	0.453100
H4201	H420	0.357500	0.754900	0.469300
C3931	C393	0.375200	0.681100	0.532900
C3941	C394	0.338900	0.717400	0.549100
H4211	H421	0.350600	0.750500	0.541300
H4221	H422	0.307700	0.711500	0.532200
H4231	H423	0.334000	0.714400	0.584600
C3951	C395	0.423500	0.687000	0.564800
H4241	H424	0.435900	0.720600	0.561700
H4251	H425	0.415900	0.680100	0.599300
H4261	H426	0.448400	0.663900	0.553100
C3961	C396	0.357300	0.628600	0.540600
H4271	H427	0.383000	0.605600	0.530500
H4281	H428	0.349700	0.623500	0.575400
H4291	H429	0.327800	0.623000	0.521000
O1001	O100	0.862200	0.163580	0.723540
O1011	O101	0.932310	0.203500	0.730870
O1021	O102	0.925290	0.204690	0.829890
S341	S34	0.860970	0.286240	0.872270
C3971	C397	0.895300	0.182900	0.747600
C3981	C398	0.887000	0.181900	0.801300
H4301	H430	0.883600	0.147400	0.811800
H4311	H431	0.855600	0.198700	0.808500
C3991	C399	0.915250	0.200800	0.879650
C4001	C400	0.887730	0.236400	0.903160
C4011	C401	0.933200	0.160300	0.906200
C4021	C402	0.920100	0.154900	0.955300
H4321	H432	0.932000	0.127300	0.972900
C4031	C403	0.890200	0.188800	0.979400
C4041	C404	0.875900	0.230100	0.953100
H4331	H433	0.857500	0.254900	0.969300
C4051	C405	0.875200	0.181100	0.032900
C4061	C406	0.838900	0.217400	0.049100
H4341	H434	0.850600	0.250500	0.041300
H4351	H435	0.807700	0.211500	0.032200
H4361	H436	0.834000	0.214400	0.084600
C4071	C407	0.923500	0.187000	0.064800
H4371	H437	0.935900	0.220600	0.061700
H4381	H438	0.915900	0.180100	0.099300
H4391	H439	0.948400	0.163900	0.053100
C4081	C408	0.857300	0.128600	0.040600
H4401	H440	0.883000	0.105600	0.030500
H4411	H441	0.849700	0.123500	0.075400
H4421	H442	0.827800	0.123000	0.021000
O1031	O103	0.637800	0.163580	0.276460
O1041	O104	0.567690	0.203500	0.269130
O1051	O105	0.574710	0.204690	0.170110
S351	S35	0.639030	0.286240	0.127730
C4091	C409	0.604700	0.182900	0.252400
C4101	C410	0.613000	0.181900	0.198700
H4431	H443	0.616400	0.147400	0.188200
H4441	H444	0.644400	0.198700	0.191500
C4111	C411	0.584750	0.200800	0.120350
C4121	C412	0.612270	0.236400	0.096840
C4131	C413	0.566800	0.160300	0.093800
C4141	C414	0.579900	0.154900	0.044700
H4451	H445	0.568000	0.127300	0.027100
C4151	C415	0.609800	0.188800	0.020600
C4161	C416	0.624100	0.230100	0.046900
H4461	H446	0.642500	0.254900	0.030700
C4171	C417	0.624800	0.181100	0.967100
C4181	C418	0.661100	0.217400	0.950900
H4471	H447	0.649400	0.250500	0.958700
H4481	H448	0.692300	0.211500	0.967800
H4491	H449	0.666000	0.214400	0.915400
C4191	C419	0.576500	0.187000	0.935200
H4501	H450	0.564100	0.220600	0.938300
H4511	H451	0.584100	0.180100	0.900700
H4521	H452	0.551600	0.163900	0.946900
C4201	C420	0.642700	0.128600	0.959400
H4531	H453	0.617000	0.105600	0.969500
H4541	H454	0.650300	0.123500	0.924600
H4551	H455	0.672200	0.123000	0.979000
O1061	O106	0.137800	0.663580	0.776460
O1071	O107	0.067690	0.703500	0.769130
O1081	O108	0.074710	0.704690	0.670110
S361	S36	0.139030	0.786240	0.627730
C4211	C421	0.104700	0.682900	0.752400
C4221	C422	0.113000	0.681900	0.698700
H4561	H456	0.116400	0.647400	0.688200
H4571	H457	0.144400	0.698700	0.691500
C4231	C423	0.084750	0.700800	0.620350
C4241	C424	0.112270	0.736400	0.596840
C4251	C425	0.066800	0.660300	0.593800
C4261	C426	0.079900	0.654900	0.544700
H4581	H458	0.068000	0.627300	0.527100
C4271	C427	0.109800	0.688800	0.520600
C4281	C428	0.124100	0.730100	0.546900
H4591	H459	0.142500	0.754900	0.530700
C4291	C429	0.124800	0.681100	0.467100
C4301	C430	0.161100	0.717400	0.450900
H4601	H460	0.149400	0.750500	0.458700
H4611	H461	0.192300	0.711500	0.467800
H4621	H462	0.166000	0.714400	0.415400
C4311	C431	0.076500	0.687000	0.435200
H4631	H463	0.064100	0.720600	0.438300
H4641	H464	0.084100	0.680100	0.400700
H4651	H465	0.051600	0.663900	0.446900
C4321	C432	0.142700	0.628600	0.459400
H4661	H466	0.117000	0.605600	0.469500
H4671	H467	0.150300	0.623500	0.424600
H4681	H468	0.172200	0.623000	0.479000
O1091	O109	0.137800	0.336420	0.723540
O1101	O110	0.067690	0.296500	0.730870
O1111	O111	0.074710	0.295310	0.829890
S371	S37	0.139030	0.213760	0.872270
C4331	C433	0.104700	0.317100	0.747600
C4341	C434	0.113000	0.318100	0.801300
H4691	H469	0.116400	0.352600	0.811800
H4701	H470	0.144400	0.301300	0.808500
C4351	C435	0.084750	0.299200	0.879650
C4361	C436	0.112270	0.263600	0.903160
C4371	C437	0.066800	0.339700	0.906200
C4381	C438	0.079900	0.345100	0.955300
H4711	H471	0.068000	0.372700	0.972900
C4391	C439	0.109800	0.311200	0.979400
C4401	C440	0.124100	0.269900	0.953100
H4721	H472	0.142500	0.245100	0.969300
C4411	C441	0.124800	0.318900	0.032900
C4421	C442	0.161100	0.282600	0.049100
H4731	H473	0.149400	0.249500	0.041300
H4741	H474	0.192300	0.288500	0.032200
H4751	H475	0.166000	0.285600	0.084600
C4431	C443	0.076500	0.313000	0.064800
H4761	H476	0.064100	0.279400	0.061700
H4771	H477	0.084100	0.319900	0.099300
H4781	H478	0.051600	0.336100	0.053100
C4441	C444	0.142700	0.371400	0.040600
H4791	H479	0.117000	0.394400	0.030500
H4801	H480	0.150300	0.376500	0.075400
H4811	H481	0.172200	0.377000	0.021000
O1121	O112	0.637800	0.836420	0.223540
O1131	O113	0.567690	0.796500	0.230870
O1141	O114	0.574710	0.795310	0.329890
S381	S38	0.639030	0.713760	0.372270
C4451	C445	0.604700	0.817100	0.247600
C4461	C446	0.613000	0.818100	0.301300
H4821	H482	0.616400	0.852600	0.311800
H4831	H483	0.644400	0.801300	0.308500
C4471	C447	0.584750	0.799200	0.379650
C4481	C448	0.612270	0.763600	0.403160
C4491	C449	0.566800	0.839700	0.406200
C4501	C450	0.579900	0.845100	0.455300
H4841	H484	0.568000	0.872700	0.472900
C4511	C451	0.609800	0.811200	0.479400
C4521	C452	0.624100	0.769900	0.453100
H4851	H485	0.642500	0.745100	0.469300
C4531	C453	0.624800	0.818900	0.532900
C4541	C454	0.661100	0.782600	0.549100
H4861	H486	0.649400	0.749500	0.541300
H4871	H487	0.692300	0.788500	0.532200
H4881	H488	0.666000	0.785600	0.584600
C4551	C455	0.576500	0.813000	0.564800
H4891	H489	0.564100	0.779400	0.561700
H4901	H490	0.584100	0.819900	0.599300
H4911	H491	0.551600	0.836100	0.553100
C4561	C456	0.642700	0.871400	0.540600
H4921	H492	0.617000	0.894400	0.530500
H4931	H493	0.650300	0.876500	0.575400
H4941	H494	0.672200	0.877000	0.521000
O1151	O115	0.862200	0.836420	0.776460
O1161	O116	0.932310	0.796500	0.769130
O1171	O117	0.925290	0.795310	0.670110
S391	S39	0.860970	0.713760	0.627730
C4571	C457	0.895300	0.817100	0.752400
C4581	C458	0.887000	0.818100	0.698700
H4951	H495	0.883600	0.852600	0.688200
H4961	H496	0.855600	0.801300	0.691500
C4591	C459	0.915250	0.799200	0.620350
C4601	C460	0.887730	0.763600	0.596840
C4611	C461	0.933200	0.839700	0.593800
C4621	C462	0.920100	0.845100	0.544700
H4971	H497	0.932000	0.872700	0.527100
C4631	C463	0.890200	0.811200	0.520600
C4641	C464	0.875900	0.769900	0.546900
H4981	H498	0.857500	0.745100	0.530700
C4651	C465	0.875200	0.818900	0.467100
C4661	C466	0.838900	0.782600	0.450900
H4991	H499	0.850600	0.749500	0.458700
H5001	H500	0.807700	0.788500	0.467800
H5011	H501	0.834000	0.785600	0.415400
C4671	C467	0.923500	0.813000	0.435200
H5021	H502	0.935900	0.779400	0.438300
H5031	H503	0.915900	0.819900	0.400700
H5041	H504	0.948400	0.836100	0.446900
C4681	C468	0.857300	0.871400	0.459400
H5051	H505	0.883000	0.894400	0.469500
H5061	H506	0.849700	0.876500	0.424600
H5071	H507	0.827800	0.877000	0.479000
O1181	O118	0.362200	0.336420	0.276460
O1191	O119	0.432310	0.296500	0.269130
O1201	O120	0.425290	0.295310	0.170110
S401	S40	0.360970	0.213760	0.127730
C4691	C469	0.395300	0.317100	0.252400
C4701	C470	0.387000	0.318100	0.198700
H5081	H508	0.383600	0.352600	0.188200
H5091	H509	0.355600	0.301300	0.191500
C4711	C471	0.415250	0.299200	0.120350
C4721	C472	0.387730	0.263600	0.096840
C4731	C473	0.433200	0.339700	0.093800
C4741	C474	0.420100	0.345100	0.044700
H5101	H510	0.432000	0.372700	0.027100
C4751	C475	0.390200	0.311200	0.020600
C4761	C476	0.375900	0.269900	0.046900
H5111	H511	0.357500	0.245100	0.030700
C4771	C477	0.375200	0.318900	0.967100
C4781	C478	0.338900	0.282600	0.950900
H5121	H512	0.350600	0.249500	0.958700
H5131	H513	0.307700	0.288500	0.967800
H5141	H514	0.334000	0.285600	0.915400
C4791	C479	0.423500	0.313000	0.935200
H5151	H515	0.435900	0.279400	0.938300
H5161	H516	0.415900	0.319900	0.900700
H5171	H517	0.448400	0.336100	0.946900
C4801	C480	0.357300	0.371400	0.959400
H5181	H518	0.383000	0.394400	0.969500
H5191	H519	0.349700	0.376500	0.924600
H5201	H520	0.327800	0.377000	0.979000
O1211	O121	0.663580	0.223540	0.362200
O1221	O122	0.703500	0.230870	0.432310
O1231	O123	0.704690	0.329890	0.425290
S411	S41	0.786240	0.372270	0.360970
C4811	C481	0.682900	0.247600	0.395300
C4821	C482	0.681900	0.301300	0.387000
H5211	H521	0.647400	0.311800	0.383600
H5221	H522	0.698700	0.308500	0.355600
C4831	C483	0.700800	0.379650	0.415250
C4841	C484	0.736400	0.403160	0.387730
C4851	C485	0.660300	0.406200	0.433200
C4861	C486	0.654900	0.455300	0.420100
H5231	H523	0.627300	0.472900	0.432000
C4871	C487	0.688800	0.479400	0.390200
C4881	C488	0.730100	0.453100	0.375900
H5241	H524	0.754900	0.469300	0.357500
C4891	C489	0.681100	0.532900	0.375200
C4901	C490	0.717400	0.549100	0.338900
H5251	H525	0.750500	0.541300	0.350600
H5261	H526	0.711500	0.532200	0.307700
H5271	H527	0.714400	0.584600	0.334000
C4911	C491	0.687000	0.564800	0.423500
H5281	H528	0.720600	0.561700	0.435900
H5291	H529	0.680100	0.599300	0.415900
H5301	H530	0.663900	0.553100	0.448400
C4921	C492	0.628600	0.540600	0.357300
H5311	H531	0.605600	0.530500	0.383000
H5321	H532	0.623500	0.575400	0.349700
H5331	H533	0.623000	0.521000	0.327800
O1241	O124	0.163580	0.723540	0.862200
O1251	O125	0.203500	0.730870	0.932310
O1261	O126	0.204690	0.829890	0.925290
S421	S42	0.286240	0.872270	0.860970
C4931	C493	0.182900	0.747600	0.895300
C4941	C494	0.181900	0.801300	0.887000
H5341	H534	0.147400	0.811800	0.883600
H5351	H535	0.198700	0.808500	0.855600
C4951	C495	0.200800	0.879650	0.915250
C4961	C496	0.236400	0.903160	0.887730
C4971	C497	0.160300	0.906200	0.933200
C4981	C498	0.154900	0.955300	0.920100
H5361	H536	0.127300	0.972900	0.932000
C4991	C499	0.188800	0.979400	0.890200
C5001	C500	0.230100	0.953100	0.875900
H5371	H537	0.254900	0.969300	0.857500
C5011	C501	0.181100	0.032900	0.875200
C5021	C502	0.217400	0.049100	0.838900
H5381	H538	0.250500	0.041300	0.850600
H5391	H539	0.211500	0.032200	0.807700
H5401	H540	0.214400	0.084600	0.834000
C5031	C503	0.187000	0.064800	0.923500
H5411	H541	0.220600	0.061700	0.935900
H5421	H542	0.180100	0.099300	0.915900
H5431	H543	0.163900	0.053100	0.948400
C5041	C504	0.128600	0.040600	0.857300
H5441	H544	0.105600	0.030500	0.883000
H5451	H545	0.123500	0.075400	0.849700
H5461	H546	0.123000	0.021000	0.827800
O1271	O127	0.163580	0.276460	0.637800
O1281	O128	0.203500	0.269130	0.567690
O1291	O129	0.204690	0.170110	0.574710
S431	S43	0.286240	0.127730	0.639030
C5051	C505	0.182900	0.252400	0.604700
C5061	C506	0.181900	0.198700	0.613000
H5471	H547	0.147400	0.188200	0.616400
H5481	H548	0.198700	0.191500	0.644400
C5071	C507	0.200800	0.120350	0.584750
C5081	C508	0.236400	0.096840	0.612270
C5091	C509	0.160300	0.093800	0.566800
C5101	C510	0.154900	0.044700	0.579900
H5491	H549	0.127300	0.027100	0.568000
C5111	C511	0.188800	0.020600	0.609800
C5121	C512	0.230100	0.046900	0.624100
H5501	H550	0.254900	0.030700	0.642500
C5131	C513	0.181100	0.967100	0.624800
C5141	C514	0.217400	0.950900	0.661100
H5511	H551	0.250500	0.958700	0.649400
H5521	H552	0.211500	0.967800	0.692300
H5531	H553	0.214400	0.915400	0.666000
C5151	C515	0.187000	0.935200	0.576500
H5541	H554	0.220600	0.938300	0.564100
H5551	H555	0.180100	0.900700	0.584100
H5561	H556	0.163900	0.946900	0.551600
C5161	C516	0.128600	0.959400	0.642700
H5571	H557	0.105600	0.969500	0.617000
H5581	H558	0.123500	0.924600	0.650300
H5591	H559	0.123000	0.979000	0.672200
O1301	O130	0.663580	0.776460	0.137800
O1311	O131	0.703500	0.769130	0.067690
O1321	O132	0.704690	0.670110	0.074710
S441	S44	0.786240	0.627730	0.139030
C5171	C517	0.682900	0.752400	0.104700
C5181	C518	0.681900	0.698700	0.113000
H5601	H560	0.647400	0.688200	0.116400
H5611	H561	0.698700	0.691500	0.144400
C5191	C519	0.700800	0.620350	0.084750
C5201	C520	0.736400	0.596840	0.112270
C5211	C521	0.660300	0.593800	0.066800
C5221	C522	0.654900	0.544700	0.079900
H5621	H562	0.627300	0.527100	0.068000
C5231	C523	0.688800	0.520600	0.109800
C5241	C524	0.730100	0.546900	0.124100
H5631	H563	0.754900	0.530700	0.142500
C5251	C525	0.681100	0.467100	0.124800
C5261	C526	0.717400	0.450900	0.161100
H5641	H564	0.750500	0.458700	0.149400
H5651	H565	0.711500	0.467800	0.192300
H5661	H566	0.714400	0.415400	0.166000
C5271	C527	0.687000	0.435200	0.076500
H5671	H567	0.720600	0.438300	0.064100
H5681	H568	0.680100	0.400700	0.084100
H5691	H569	0.663900	0.446900	0.051600
C5281	C528	0.628600	0.459400	0.142700
H5701	H570	0.605600	0.469500	0.117000
H5711	H571	0.623500	0.424600	0.150300
H5721	H572	0.623000	0.479000	0.172200
O1331	O133	0.336420	0.723540	0.137800
O1341	O134	0.296500	0.730870	0.067690
O1351	O135	0.295310	0.829890	0.074710
S451	S45	0.213760	0.872270	0.139030
C5291	C529	0.317100	0.747600	0.104700
C5301	C530	0.318100	0.801300	0.113000
H5731	H573	0.352600	0.811800	0.116400
H5741	H574	0.301300	0.808500	0.144400
C5311	C531	0.299200	0.879650	0.084750
C5321	C532	0.263600	0.903160	0.112270
C5331	C533	0.339700	0.906200	0.066800
C5341	C534	0.345100	0.955300	0.079900
H5751	H575	0.372700	0.972900	0.068000
C5351	C535	0.311200	0.979400	0.109800
C5361	C536	0.269900	0.953100	0.124100
H5761	H576	0.245100	0.969300	0.142500
C5371	C537	0.318900	0.032900	0.124800
C5381	C538	0.282600	0.049100	0.161100
H5771	H577	0.249500	0.041300	0.149400
H5781	H578	0.288500	0.032200	0.192300
H5791	H579	0.285600	0.084600	0.166000
C5391	C539	0.313000	0.064800	0.076500
H5801	H580	0.279400	0.061700	0.064100
H5811	H581	0.319900	0.099300	0.084100
H5821	H582	0.336100	0.053100	0.051600
C5401	C540	0.371400	0.040600	0.142700
H5831	H583	0.394400	0.030500	0.117000
H5841	H584	0.376500	0.075400	0.150300
H5851	H585	0.377000	0.021000	0.172200
O1361	O136	0.836420	0.223540	0.637800
O1371	O137	0.796500	0.230870	0.567690
O1381	O138	0.795310	0.329890	0.574710
S461	S46	0.713760	0.372270	0.639030
C5411	C541	0.817100	0.247600	0.604700
C5421	C542	0.818100	0.301300	0.613000
H5861	H586	0.852600	0.311800	0.616400
H5871	H587	0.801300	0.308500	0.644400
C5431	C543	0.799200	0.379650	0.584750
C5441	C544	0.763600	0.403160	0.612270
C5451	C545	0.839700	0.406200	0.566800
C5461	C546	0.845100	0.455300	0.579900
H5881	H588	0.872700	0.472900	0.568000
C5471	C547	0.811200	0.479400	0.609800
C5481	C548	0.769900	0.453100	0.624100
H5891	H589	0.745100	0.469300	0.642500
C5491	C549	0.818900	0.532900	0.624800
C5501	C550	0.782600	0.549100	0.661100
H5901	H590	0.749500	0.541300	0.649400
H5911	H591	0.788500	0.532200	0.692300
H5921	H592	0.785600	0.584600	0.666000
C5511	C551	0.813000	0.564800	0.576500
H5931	H593	0.779400	0.561700	0.564100
H5941	H594	0.819900	0.599300	0.584100
H5951	H595	0.836100	0.553100	0.551600
C5521	C552	0.871400	0.540600	0.642700
H5961	H596	0.894400	0.530500	0.617000
H5971	H597	0.876500	0.575400	0.650300
H5981	H598	0.877000	0.521000	0.672200
O1391	O139	0.836420	0.776460	0.862200
O1401	O140	0.796500	0.769130	0.932310
O1411	O141	0.795310	0.670110	0.925290
S471	S47	0.713760	0.627730	0.860970
C5531	C553	0.817100	0.752400	0.895300
C5541	C554	0.818100	0.698700	0.887000
H5991	H599	0.852600	0.688200	0.883600
H6001	H600	0.801300	0.691500	0.855600
C5551	C555	0.799200	0.620350	0.915250
C5561	C556	0.763600	0.596840	0.887730
C5571	C557	0.839700	0.593800	0.933200
C5581	C558	0.845100	0.544700	0.920100
H6011	H601	0.872700	0.527100	0.932000
C5591	C559	0.811200	0.520600	0.890200
C5601	C560	0.769900	0.546900	0.875900
H6021	H602	0.745100	0.530700	0.857500
C5611	C561	0.818900	0.467100	0.875200
C5621	C562	0.782600	0.450900	0.838900
H6031	H603	0.749500	0.458700	0.850600
H6041	H604	0.788500	0.467800	0.807700
H6051	H605	0.785600	0.415400	0.834000
C5631	C563	0.813000	0.435200	0.923500
H6061	H606	0.779400	0.438300	0.935900
H6071	H607	0.819900	0.400700	0.915900
H6081	H608	0.836100	0.446900	0.948400
C5641	C564	0.871400	0.459400	0.857300
H6091	H609	0.894400	0.469500	0.883000
H6101	H610	0.876500	0.424600	0.849700
H6111	H611	0.877000	0.479000	0.827800
O1421	O142	0.336420	0.276460	0.362200
O1431	O143	0.296500	0.269130	0.432310
O1441	O144	0.295310	0.170110	0.425290
S481	S48	0.213760	0.127730	0.360970
C5651	C565	0.317100	0.252400	0.395300
C5661	C566	0.318100	0.198700	0.387000
H6121	H612	0.352600	0.188200	0.383600
H6131	H613	0.301300	0.191500	0.355600
C5671	C567	0.299200	0.120350	0.415250
C5681	C568	0.263600	0.096840	0.387730
C5691	C569	0.339700	0.093800	0.433200
C5701	C570	0.345100	0.044700	0.420100
H6141	H614	0.372700	0.027100	0.432000
C5711	C571	0.311200	0.020600	0.390200
C5721	C572	0.269900	0.046900	0.375900
H6151	H615	0.245100	0.030700	0.357500
C5731	C573	0.318900	0.967100	0.375200
C5741	C574	0.282600	0.950900	0.338900
H6161	H616	0.249500	0.958700	0.350600
H6171	H617	0.288500	0.967800	0.307700
H6181	H618	0.285600	0.915400	0.334000
C5751	C575	0.313000	0.935200	0.423500
H6191	H619	0.279400	0.938300	0.435900
H6201	H620	0.319900	0.900700	0.415900
H6211	H621	0.336100	0.946900	0.448400
C5761	C576	0.371400	0.959400	0.357300
H6221	H622	0.394400	0.969500	0.383000
H6231	H623	0.376500	0.924600	0.349700
H6241	H624	0.377000	0.979000	0.327800
Co11	Co1	0.097420	0.902580	0.402580
Co21	Co2	0.597420	0.402580	0.902580
Co31	Co3	0.402580	0.097420	0.902580
Co41	Co4	0.902580	0.597420	0.402580
Co51	Co5	0.902580	0.402580	0.097420
Co61	Co6	0.402580	0.902580	0.597420
Co71	Co7	0.597420	0.597420	0.597420
Co81	Co8	0.097420	0.097420	0.097420
Co91	Co9	0.152580	0.347420	0.652580
Co101	Co10	0.652580	0.847420	0.152580
Co111	Co11	0.347420	0.652580	0.152580
Co121	Co12	0.847420	0.152580	0.652580
Co131	Co13	0.652580	0.152580	0.347420
Co141	Co14	0.152580	0.652580	0.847420
Co151	Co15	0.847420	0.847420	0.847420
Co161	Co16	0.347420	0.347420	0.347420
K11	K1	0.250000	0.030070	0.500000
K21	K2	0.250000	0.969930	0.000000
K31	K3	0.750000	0.530070	0.000000
K41	K4	0.750000	0.469930	0.500000
K51	K5	0.500000	0.250000	0.030070
K61	K6	0.000000	0.250000	0.969930
K71	K7	0.000000	0.750000	0.530070
K81	K8	0.500000	0.750000	0.469930
K91	K9	0.030070	0.500000	0.250000
K101	K10	0.969930	0.000000	0.250000
K111	K11	0.530070	0.000000	0.750000
K121	K12	0.469930	0.500000	0.750000
K131	K13	0.280070	0.500000	0.750000
K141	K14	0.219930	0.500000	0.250000
K151	K15	0.780070	0.000000	0.250000
K161	K16	0.719930	0.000000	0.750000
K171	K17	0.500000	0.750000	0.280070
K181	K18	0.500000	0.250000	0.219930
K191	K19	0.000000	0.250000	0.780070
K201	K20	0.000000	0.750000	0.719930
K211	K21	0.750000	0.280070	0.500000
K221	K22	0.250000	0.219930	0.500000
K231	K23	0.250000	0.780070	0.000000
K241	K24	0.750000	0.719930	0.000000
