data_QIWGOU_clean_PM
_symmetry_space_group_name_H-M	'P1'
_cell_length_a	15.008000
_cell_length_b	24.750000
_cell_length_c	25.792000
_cell_angle_alpha	111.957000
_cell_angle_beta	90.000000
_cell_angle_gamma	90.000000
_symmetry_Int_Tables_number 1

loop_
_symmetry_equiv_pos_as_xyz
'x,y,z'

loop_
_atom_site_label
_atom_site_type_symbol
_atom_site_fract_x
_atom_site_fract_y
_atom_site_fract_z
Sr11	Sr1	0.284790	0.267290	0.500140
Sr21	Sr2	0.944250	0.015050	0.292030
Sr31	Sr3	0.555750	0.515050	0.792030
Sr41	Sr4	0.065200	0.045280	0.869490
Sr51	Sr5	0.444250	0.484950	0.207970
Sr61	Sr6	0.534420	0.298130	0.963460
Sr71	Sr7	0.215210	0.767290	0.000140
Sr81	Sr8	0.055750	0.984950	0.707970
Sr91	Sr9	0.465580	0.701870	0.036540
Sr101	Sr10	0.715210	0.732710	0.499860
Sr111	Sr11	0.965580	0.798130	0.463460
Sr121	Sr12	0.565200	0.454720	0.630510
Sr131	Sr13	0.784790	0.232710	0.999860
Sr141	Sr14	0.034420	0.201870	0.536540
Sr151	Sr15	0.434800	0.545280	0.369490
Sr161	Sr16	0.934800	0.954720	0.130510
H11	H1	0.244000	0.551800	0.845300
H21	H2	0.094100	0.535100	0.317600
H31	H3	0.964100	0.421600	0.047800
H41	H4	0.263500	0.641200	0.167800
H51	H5	0.776700	0.861500	0.948900
H61	H6	0.509600	0.158500	0.591600
H71	H7	0.825300	0.692400	0.301100
H81	H8	0.062000	0.261900	0.206000
H91	H9	0.535900	0.921600	0.547800
H101	H10	0.162500	0.729500	0.807600
H111	H11	0.313800	0.098200	0.100600
H121	H12	0.200400	0.846100	0.433800
H131	H13	0.658100	0.434800	0.258600
H141	H14	0.662500	0.770500	0.692400
H151	H15	0.035900	0.578400	0.952200
H161	H16	0.007100	0.480900	0.372600
H171	H17	0.723300	0.361500	0.448900
H181	H18	0.744000	0.948200	0.654700
H191	H19	0.438000	0.761900	0.706000
H201	H20	0.594100	0.964900	0.182400
H211	H21	0.027300	0.435900	0.721200
H221	H22	0.955200	0.295800	0.699000
H231	H23	0.182500	0.198400	0.828300
H241	H24	0.440600	0.905500	0.633200
H251	H25	0.709600	0.506000	0.335600
H261	H26	0.790900	0.600800	0.103100
H271	H27	0.917900	0.837700	0.236700
H281	H28	0.077900	0.802300	0.345900
H291	H29	0.151500	0.346600	0.446100
H301	H30	0.012700	0.352400	0.407000
H311	H31	0.545800	0.877800	0.683700
H321	H32	0.972700	0.564100	0.278800
H331	H33	0.490400	0.841500	0.408400
H341	H34	0.562000	0.238100	0.294000
H351	H35	0.439800	0.928800	0.082800
H361	H36	0.321100	0.483900	0.780100
H371	H37	0.770800	0.121800	0.179900
H381	H38	0.689500	0.679000	0.339000
H391	H39	0.270800	0.378200	0.320100
H401	H40	0.619100	0.814200	0.442700
H411	H41	0.703000	0.270200	0.148700
H421	H42	0.325300	0.807600	0.198900
H431	H43	0.498300	0.980500	0.410500
H441	H44	0.512700	0.147600	0.093000
H451	H45	0.189500	0.821000	0.161000
H461	H46	0.337500	0.229500	0.307600
H471	H47	0.799600	0.153900	0.566200
H481	H48	0.009600	0.341500	0.908400
H491	H49	0.454200	0.122200	0.316300
H501	H50	0.472700	0.935900	0.221200
H511	H51	0.813800	0.401800	0.399400
H521	H52	0.236500	0.141200	0.667800
H531	H53	0.527300	0.064100	0.778800
H541	H54	0.203000	0.229800	0.351300
H551	H55	0.487300	0.852400	0.907000
H561	H56	0.060200	0.428800	0.582800
H571	H57	0.299600	0.346100	0.933800
H581	H58	0.729200	0.621800	0.679900
H591	H59	0.905900	0.464900	0.682400
H601	H60	0.044800	0.704200	0.301000
H611	H61	0.174700	0.307600	0.698900
H621	H62	0.544800	0.795800	0.199000
H631	H63	0.559400	0.094500	0.366800
H641	H64	0.817000	0.202000	0.353000
H651	H65	0.756800	0.906800	0.275900
H661	H66	0.001700	0.480500	0.910500
H671	H67	0.317000	0.298000	0.147000
H681	H68	0.954200	0.377800	0.183700
H691	H69	0.388500	0.347200	0.220600
H701	H70	0.756000	0.448200	0.154700
H711	H71	0.682500	0.301600	0.671700
H721	H72	0.754800	0.594400	0.752400
H731	H73	0.183000	0.798000	0.647000
H741	H74	0.290400	0.494000	0.664400
H751	H75	0.686200	0.901800	0.899400
H761	H76	0.297000	0.729800	0.851300
H771	H77	0.507100	0.019100	0.127400
H781	H78	0.256800	0.593200	0.224100
H791	H79	0.651500	0.153400	0.053900
H801	H80	0.940600	0.594500	0.866800
H811	H81	0.990400	0.658500	0.091600
H821	H82	0.674700	0.192400	0.801100
H831	H83	0.700400	0.653900	0.066200
H841	H84	0.987300	0.647600	0.593000
H851	H85	0.243200	0.093200	0.724100
H861	H86	0.254800	0.905600	0.747600
H871	H87	0.926100	0.840000	0.832700
H881	H88	0.422100	0.302300	0.845900
H891	H89	0.341900	0.565200	0.741400
H901	H90	0.045800	0.622200	0.816300
H911	H91	0.186200	0.598200	0.600600
H921	H92	0.810500	0.179000	0.839000
H931	H93	0.763500	0.858800	0.332200
H941	H94	0.848500	0.653400	0.553900
H951	H95	0.380900	0.185800	0.557300
H961	H96	0.082100	0.162300	0.763300
H971	H97	0.405900	0.035100	0.817600
H981	H98	0.560200	0.071200	0.917200
H991	H99	0.256000	0.051800	0.345300
H1001	H100	0.841900	0.934800	0.758600
H1011	H101	0.922100	0.197700	0.654100
H1021	H102	0.158100	0.065200	0.241400
H1031	H103	0.426100	0.660000	0.667300
H1041	H104	0.455200	0.204200	0.801000
H1051	H105	0.745200	0.094400	0.252400
H1061	H106	0.209600	0.994000	0.164400
H1071	H107	0.736500	0.358800	0.832200
H1081	H108	0.743200	0.406800	0.775900
H1091	H109	0.276700	0.638500	0.551100
H1101	H110	0.992900	0.519100	0.627400
H1111	H111	0.611500	0.652800	0.779400
H1121	H112	0.817500	0.801600	0.171700
H1131	H113	0.348500	0.846600	0.946100
H1141	H114	0.417900	0.662300	0.263300
H1151	H115	0.573900	0.340000	0.332700
H1161	H116	0.678900	0.516100	0.219900
H1171	H117	0.939800	0.571200	0.417200
H1181	H118	0.119100	0.685800	0.057300
H1191	H119	0.880900	0.314200	0.942700
H1201	H120	0.790400	0.006000	0.835600
H1211	H121	0.464100	0.078400	0.452200
H1221	H122	0.683000	0.702000	0.853000
H1231	H123	0.577900	0.697700	0.154100
H1241	H124	0.837500	0.270500	0.192400
H1251	H125	0.073900	0.160000	0.167300
H1261	H126	0.821100	0.016100	0.719900
H1271	H127	0.111500	0.847200	0.720600
H1281	H128	0.223300	0.138500	0.051100
H1291	H129	0.938000	0.738100	0.794000
H1301	H130	0.888500	0.152800	0.279400
H1311	H131	0.229200	0.878200	0.820100
H1321	H132	0.178900	0.983900	0.280100
H1331	H133	0.059400	0.405500	0.133200
H1341	H134	0.290900	0.899200	0.396900
H1351	H135	0.209100	0.399200	0.896900
H1361	H136	0.492900	0.980900	0.872600
H1371	H137	0.998300	0.519500	0.089500
H1381	H138	0.582100	0.337700	0.736700
H1391	H139	0.797000	0.770200	0.648700
H1401	H140	0.501700	0.019500	0.589500
H1411	H141	0.317500	0.698400	0.328300
H1421	H142	0.245200	0.405600	0.247600
H1431	H143	0.709100	0.100800	0.603100
H1441	H144	0.310500	0.321000	0.661000
Ru11	Ru1	0.939210	0.626220	0.194240
Ru21	Ru2	0.443990	0.144360	0.204870
Ru31	Ru3	0.556010	0.855640	0.795130
Ru41	Ru4	0.056010	0.644360	0.704870
Ru51	Ru5	0.060790	0.373780	0.805760
Ru61	Ru6	0.943990	0.355640	0.295130
Ru71	Ru7	0.439210	0.873780	0.305760
Ru81	Ru8	0.560790	0.126220	0.694240
C11	C1	0.961300	0.209900	0.685300
C21	C2	0.770400	0.501600	0.343400
C31	C3	0.525500	0.260600	0.279600
C41	C4	0.070700	0.553800	0.921800
C51	C5	0.946200	0.485800	0.365300
C61	C6	0.498400	0.330300	0.796200
C71	C7	0.929300	0.446200	0.078200
C81	C8	0.331900	0.646970	0.801890
C91	C9	0.721400	0.303800	0.179400
C101	C10	0.074900	0.248200	0.775100
C111	C11	0.186500	0.639200	0.610700
C121	C12	0.295600	0.857900	0.382400
C131	C13	0.814300	0.242900	0.362700
C141	C14	0.213700	0.851300	0.192600
C151	C15	0.814300	0.599600	0.766000
C161	C16	0.377100	0.171900	0.586900
C171	C17	0.270400	0.998400	0.156600
C181	C18	0.260700	0.222800	0.093400
C191	C19	0.707700	0.248500	0.439700
C201	C20	0.546300	0.844800	0.392500
C211	C21	0.810200	0.760500	0.157700
C221	C22	0.718700	0.128600	0.162300
C231	C23	0.752100	0.233600	0.615800
C241	C24	0.418200	0.416700	0.693520
C251	C25	0.128800	0.628300	0.170400
C261	C26	0.093900	0.460400	0.607700
C271	C27	0.776000	0.399210	0.269100
C281	C28	0.466800	0.678500	0.696900
C291	C29	0.692800	0.961800	0.641650
C301	C30	0.763600	0.572700	0.846500
C311	C31	0.375500	0.103000	0.713500
C321	C32	0.194900	0.098800	0.255700
C331	C33	0.079200	0.764640	0.714800
C341	C34	0.556000	0.310700	0.750400
C351	C35	0.582700	0.355700	0.167700
C361	C36	0.579200	0.735360	0.785200
C371	C37	0.185700	0.400400	0.234000
C381	C38	0.699000	0.804300	0.705700
C391	C39	0.292000	0.145200	0.651800
C401	C40	0.013700	0.384200	0.197000
C411	C41	0.686500	0.860800	0.889300
C421	C42	0.363800	0.230970	0.167200
C431	C43	0.189300	0.563570	0.276220
C441	C44	0.204400	0.357900	0.882400
C451	C45	0.294700	0.843510	0.215800
C461	C46	0.538700	0.709900	0.185300
C471	C47	0.801000	0.412600	0.763800
C481	C48	0.550200	0.004500	0.603600
C491	C49	0.270700	0.549200	0.303220
C501	C50	0.305100	0.598800	0.755700
C511	C51	0.225600	0.358400	0.385700
C521	C52	0.668100	0.353030	0.198110
C531	C53	0.205300	0.343510	0.715800
C541	C54	0.292300	0.751500	0.560300
C551	C55	0.969100	0.429800	0.732400
C561	C56	0.434300	0.856400	0.888700
C571	C57	0.446200	0.014200	0.134700
C581	C58	0.260100	0.163100	0.080400
C591	C59	0.897100	0.446700	0.708510
C601	C60	0.025500	0.239400	0.220400
C611	C61	0.513700	0.115800	0.303000
C621	C62	0.469100	0.070200	0.767600
C631	C63	0.521400	0.605800	0.176600
C641	C64	0.423900	0.325600	0.236500
C651	C65	0.185700	0.757100	0.637300
C661	C66	0.330700	0.404270	0.716580
C671	C67	0.205200	0.667800	0.110200
C681	C68	0.814600	0.270500	0.596000
C691	C69	0.880400	0.615040	0.736600
C701	C70	0.530900	0.929800	0.232400
C711	C71	0.046300	0.655200	0.107500
C721	C72	0.065700	0.356400	0.388700
C731	C73	0.533200	0.321500	0.303100
C741	C74	0.705300	0.156490	0.784200
C751	C75	0.774400	0.641600	0.614300
C761	C76	0.221400	0.196200	0.320600
C771	C77	0.707700	0.552750	0.236910
C781	C78	0.835000	0.591500	0.815300
C791	C79	0.593900	0.039600	0.892300
C801	C80	0.642900	0.923620	0.597410
C811	C81	0.148600	0.352900	0.412000
C821	C82	0.792000	0.354800	0.848200
C831	C83	0.830700	0.095730	0.783420
C841	C84	0.271300	0.895600	0.083500
C851	C85	0.294800	0.167800	0.610200
C861	C86	0.461300	0.290100	0.814700
C871	C87	0.833800	0.359100	0.071600
C881	C88	0.199000	0.695700	0.794300
C891	C89	0.739900	0.836900	0.919600
C901	C90	0.851400	0.647100	0.588000
C911	C91	0.360900	0.773000	0.321300
C921	C92	0.602900	0.946700	0.208510
C931	C93	0.729600	0.001600	0.843400
C941	C94	0.685400	0.770500	0.096000
C951	C95	0.699000	0.912600	0.263800
C961	C96	0.301000	0.087400	0.736200
C971	C97	0.139100	0.273000	0.821300
C981	C98	0.771300	0.604400	0.416500
C991	C99	0.286300	0.351300	0.692600
C1001	C100	0.316700	0.952710	0.117000
C1011	C101	0.208000	0.645200	0.151800
C1021	C102	0.949800	0.504500	0.103600
C1031	C103	0.449800	0.995500	0.396400
C1041	C104	0.038700	0.790100	0.314700
C1051	C105	0.136200	0.730970	0.667200
C1061	C106	0.739300	0.777200	0.906600
C1071	C107	0.725600	0.141600	0.114300
C1081	C108	0.314300	0.257100	0.137300
C1091	C109	0.923900	0.174400	0.263500
C1101	C110	0.274400	0.858400	0.885700
C1111	C111	0.476600	0.419650	0.307160
C1121	C112	0.917300	0.855700	0.667700
C1131	C113	0.314300	0.900400	0.734000
C1141	C114	0.124500	0.603000	0.213500
C1151	C115	0.301000	0.195700	0.294300
C1161	C116	0.877100	0.328100	0.913100
C1171	C117	0.335000	0.908500	0.684700
C1181	C118	0.287300	0.936710	0.284470
C1191	C119	0.981100	0.268400	0.712300
C1201	C120	0.189800	0.239500	0.842300
C1211	C121	0.628800	0.871700	0.329600
C1221	C122	0.758600	0.173500	0.595200
C1231	C123	0.481100	0.231600	0.787700
C1241	C124	0.313500	0.139200	0.110700
C1251	C125	0.289700	0.689100	0.091500
C1261	C126	0.705200	0.832200	0.389800
C1271	C127	0.056000	0.189300	0.749600
C1281	C128	0.122900	0.671900	0.086900
C1291	C129	0.239900	0.663100	0.580400
C1301	C130	0.669300	0.595730	0.283420
C1311	C131	0.792300	0.052750	0.736910
C1321	C132	0.001600	0.830300	0.296200
C1331	C133	0.315800	0.347600	0.407000
C1341	C134	0.760100	0.336900	0.419600
C1351	C135	0.934300	0.643600	0.611300
C1361	C136	0.581800	0.583300	0.306480
C1371	C137	0.310200	0.739500	0.342300
C1381	C138	0.794700	0.656490	0.284200
C1391	C139	0.417300	0.644300	0.832300
C1401	C140	0.478600	0.394200	0.823400
C1411	C141	0.694900	0.401200	0.244300
C1421	C142	0.689300	0.936430	0.223780
C1431	C143	0.397100	0.053300	0.791490
C1441	C144	0.724000	0.899210	0.769100
C1451	C145	0.685700	0.742900	0.862700
C1461	C146	0.278600	0.696200	0.820600
C1471	C147	0.023400	0.919650	0.807160
C1481	C148	0.333000	0.980100	0.333520
C1491	C149	0.520900	0.646020	0.718300
C1501	C150	0.760700	0.277200	0.406600
C1511	C151	0.920800	0.235360	0.285200
C1521	C152	0.666200	0.859100	0.571600
C1531	C153	0.357100	0.076380	0.402590
C1541	C154	0.425100	0.748200	0.275100
C1551	C155	0.814900	0.449000	0.315400
C1561	C156	0.863800	0.269030	0.332800
C1571	C157	0.787300	0.563290	0.215530
C1581	C158	0.565700	0.143600	0.111300
C1591	C159	0.076200	0.400100	0.166400
C1601	C160	0.523400	0.580350	0.692840
C1611	C161	0.875500	0.397000	0.786500
C1621	C162	0.501600	0.669700	0.203800
C1631	C163	0.944000	0.810700	0.250400
C1641	C164	0.429300	0.053800	0.421800
C1651	C165	0.986300	0.615800	0.803000
C1661	C166	0.030900	0.570200	0.267600
C1671	C167	0.033200	0.178500	0.196900
C1681	C168	0.239300	0.722800	0.593400
C1691	C169	0.102900	0.553300	0.291490
C1701	C170	0.639100	0.227000	0.678700
C1711	C171	0.576200	0.099900	0.333600
C1721	C172	0.224000	0.600790	0.730900
C1731	C173	0.741400	0.673500	0.095200
C1741	C174	0.018900	0.731600	0.287700
C1751	C175	0.998400	0.169700	0.703800
C1761	C176	0.199000	0.587400	0.236200
C1771	C177	0.553800	0.985800	0.865300
C1781	C178	0.167000	0.480100	0.833520
C1791	C179	0.166200	0.640900	0.928400
C1801	C180	0.683300	0.047290	0.883000
C1811	C181	0.770700	0.950800	0.196780
C1821	C182	0.479100	0.353980	0.281700
C1831	C183	0.252100	0.266400	0.884200
C1841	C184	0.365700	0.874180	0.815500
C1851	C185	0.119600	0.384960	0.263400
C1861	C186	0.183300	0.452710	0.617000
C1871	C187	0.795600	0.642100	0.117600
C1881	C188	0.310700	0.063570	0.776220
C1891	C189	0.736400	0.072700	0.346500
C1901	C190	0.576100	0.674400	0.763500
C1911	C191	0.966800	0.821500	0.803100
C1921	C192	0.816700	0.547290	0.383000
C1931	C193	0.165000	0.408500	0.184700
C1941	C194	0.778600	0.803800	0.679400
C1951	C195	0.169300	0.904270	0.216580
C1961	C196	0.314900	0.051000	0.184600
C1971	C197	0.444000	0.689300	0.249600
C1981	C198	0.976600	0.080350	0.192840
C1991	C199	0.185100	0.551000	0.684600
C2001	C200	0.134300	0.374180	0.315500
C2011	C201	0.624500	0.897000	0.286500
C2021	C202	0.871200	0.371700	0.829600
C2031	C203	0.168100	0.146970	0.301890
C2041	C204	0.710300	0.310900	0.908500
C2051	C205	0.082700	0.144300	0.332300
C2061	C206	0.684200	0.652400	0.593000
C2071	C207	0.685700	0.099600	0.266000
C2081	C208	0.247900	0.766400	0.384200
C2091	C209	0.689800	0.260500	0.657700
C2101	C210	0.236400	0.427300	0.153500
C2111	C211	0.713700	0.648700	0.307400
C2121	C212	0.634300	0.125820	0.184500
C2131	C213	0.263600	0.927300	0.653500
C2141	C214	0.925100	0.751800	0.224900
C2151	C215	0.833000	0.519900	0.166480
C2161	C216	0.241400	0.826500	0.404800
C2171	C217	0.728700	0.104400	0.916500
C2181	C218	0.076100	0.825600	0.736500
C2191	C219	0.807200	0.461800	0.141650
C2201	C220	0.081800	0.916700	0.193520
C2211	C221	0.923800	0.599900	0.833600
C2221	C222	0.857100	0.423620	0.097410
C2231	C223	0.622900	0.828100	0.413100
C2241	C224	0.423800	0.900100	0.666400
C2251	C225	0.665000	0.091500	0.315300
C2261	C226	0.518900	0.768400	0.212300
C2271	C227	0.636200	0.769030	0.832800
C2281	C228	0.380400	0.884960	0.763400
C2291	C229	0.906100	0.539600	0.392300
C2301	C230	0.229600	0.498400	0.656600
C2311	C231	0.207700	0.251500	0.060300
C2321	C232	0.974500	0.760600	0.779600
C2331	C233	0.781300	0.628600	0.662300
C2341	C234	0.794800	0.332200	0.889800
C2351	C235	0.218700	0.371400	0.337700
C2361	C236	0.292300	0.447250	0.763090
C2371	C237	0.667000	0.019900	0.666480
C2381	C238	0.619600	0.115040	0.236600
C2391	C239	0.574900	0.251800	0.724900
C2401	C240	0.704400	0.142100	0.617600
C2411	C241	0.786300	0.148700	0.807400
C2421	C242	0.860900	0.727000	0.178700
C2431	C243	0.307200	0.038200	0.358350
C2441	C244	0.212700	0.436710	0.784470
C2451	C245	0.351400	0.852900	0.912000
C2461	C246	0.918200	0.083300	0.806480
C2471	C247	0.729300	0.450800	0.696780
C2481	C248	0.486300	0.884200	0.697000
C2491	C249	0.815800	0.152400	0.093000
C2501	C250	0.708000	0.854800	0.348200
C2511	C251	0.453700	0.155200	0.607500
C2521	C252	0.406100	0.960400	0.107700
C2531	C253	0.020900	0.853980	0.781700
C2541	C254	0.207700	0.947250	0.263090
C2551	C255	0.979100	0.146020	0.218300
C2561	C256	0.801000	0.304300	0.205700
C2571	C257	0.210300	0.189100	0.591500
C2581	C258	0.978600	0.105800	0.676600
C2591	C259	0.314600	0.229500	0.904000
C2601	C260	0.333800	0.140900	0.428400
C2611	C261	0.474500	0.739400	0.720400
C2621	C262	0.792300	0.748500	0.939700
C2631	C263	0.053800	0.514200	0.634700
C2641	C264	0.789700	0.810900	0.408500
C2651	C265	0.276000	0.100790	0.230900
C2661	C266	0.685100	0.949000	0.815400
C2671	C267	0.228700	0.395600	0.583500
C2681	C268	0.185400	0.729500	0.404000
C2691	C269	0.648600	0.147100	0.088000
C2701	C270	0.831900	0.853030	0.698110
C2711	C271	0.184200	0.847600	0.907000
C2721	C272	0.953700	0.344800	0.892500
C2731	C273	0.813500	0.360800	0.389300
C2741	C274	0.192800	0.538200	0.858350
C2751	C275	0.258600	0.326500	0.904800
C2761	C276	0.747900	0.733600	0.115800
C2771	C277	0.371200	0.128300	0.670400
C2781	C278	0.021400	0.894200	0.323400
C2791	C279	0.229300	0.049200	0.803220
C2801	C280	0.050200	0.495500	0.896400
C2811	C281	0.142900	0.576380	0.902590
C2821	C282	0.420800	0.264640	0.214800
C2831	C283	0.865700	0.625820	0.684500
C2841	C284	0.281300	0.871400	0.837700
C2851	C285	0.570700	0.946200	0.578200
C2861	C286	0.805100	0.901200	0.744300
C2871	C287	0.712700	0.063290	0.715530
C2881	C288	0.810700	0.436430	0.723780
N11	N1	0.539600	0.905250	0.270730
N21	N2	0.645700	0.167830	0.658770
N31	N3	0.468900	0.232460	0.237580
N41	N4	0.669100	0.115190	0.738890
N51	N5	0.364700	0.172470	0.153630
N61	N6	0.939600	0.634590	0.659950
N71	N7	0.535900	0.212050	0.743050
N81	N8	0.466500	0.877180	0.745330
N91	N9	0.035900	0.287950	0.756950
N101	N10	0.854300	0.667830	0.158770
N111	N11	0.548000	0.865320	0.351180
N121	N12	0.635300	0.827530	0.846370
N131	N13	0.452000	0.134680	0.648820
N141	N14	0.596100	0.041430	0.647840
N151	N15	0.531100	0.767540	0.762420
N161	N16	0.329600	0.149070	0.250220
N171	N17	0.599500	0.939910	0.828710
N181	N18	0.033500	0.377180	0.245330
N191	N19	0.864700	0.327530	0.346370
N201	N20	0.829600	0.350930	0.249780
N211	N21	0.060400	0.365410	0.340050
N221	N22	0.960400	0.405250	0.770730
N231	N23	0.964100	0.712050	0.243050
N241	N24	0.099500	0.560090	0.671290
N251	N25	0.670400	0.850930	0.749780
N261	N26	0.048000	0.634680	0.148820
N271	N27	0.903900	0.541430	0.147840
N281	N28	0.031100	0.732460	0.737580
N291	N29	0.560400	0.134590	0.159950
N301	N30	0.354300	0.832170	0.341230
N311	N31	0.400500	0.060090	0.171290
N321	N32	0.439600	0.865410	0.840050
N331	N33	0.464100	0.787950	0.256950
N341	N34	0.135300	0.672470	0.653630
N351	N35	0.533500	0.122820	0.254670
N361	N36	0.900500	0.439910	0.328710
N371	N37	0.403900	0.958570	0.352160
N381	N38	0.830900	0.615190	0.238890
N391	N39	0.145700	0.332170	0.841230
N401	N40	0.096100	0.458570	0.852160
N411	N41	0.952000	0.365320	0.851180
N421	N42	0.966500	0.622820	0.754670
N431	N43	0.330900	0.884810	0.261110
N441	N44	0.169100	0.384810	0.761110
N451	N45	0.039600	0.594750	0.229270
N461	N46	0.968900	0.267540	0.262420
N471	N47	0.460400	0.094750	0.729270
N481	N48	0.170400	0.649070	0.750220
O11	O1	0.080600	0.944300	0.787500
O21	O2	0.541200	0.623880	0.343600
O31	O3	0.866200	0.773600	0.960000
O41	O4	0.972100	0.945450	0.846900
O51	O5	0.887200	0.247220	0.575440
O61	O6	0.062800	0.913300	0.368000
O71	O7	0.681200	0.147040	0.941800
O81	O8	0.818800	0.647040	0.441800
O91	O9	0.117600	0.869400	0.893820
O101	O10	0.281300	0.716860	0.058770
O111	O11	0.892500	0.325000	0.041770
O121	O12	0.318800	0.852960	0.058200
O131	O13	0.218700	0.216860	0.558770
O141	O14	0.846200	0.942860	0.215730
O151	O15	0.718700	0.283140	0.941230
O161	O16	0.183600	0.922400	0.666900
O171	O17	0.991400	0.924900	0.298800
O181	O18	0.781300	0.783140	0.441230
O191	O19	0.472100	0.554550	0.653100
O201	O20	0.958800	0.123880	0.843600
O211	O21	0.041200	0.876120	0.156400
O221	O22	0.683600	0.684600	0.565200
O231	O23	0.027900	0.054550	0.153100
O241	O24	0.261100	0.532550	0.342910
O251	O25	0.761100	0.967450	0.157090
O261	O26	0.241100	0.657310	0.919760
O271	O27	0.133800	0.226400	0.040000
O281	O28	0.116400	0.250120	0.471000
O291	O29	0.209000	0.678740	0.395500
O301	O30	0.446200	0.690200	0.868510
O311	O31	0.291000	0.178740	0.895500
O321	O32	0.944000	0.031030	0.787750
O331	O33	0.238300	0.295500	0.055600
O341	O34	0.761700	0.704500	0.944400
O351	O35	0.816400	0.077600	0.333100
O361	O36	0.816400	0.184600	0.065200
O371	O37	0.738900	0.467450	0.657090
O381	O38	0.919400	0.055700	0.212500
O391	O39	0.392500	0.175000	0.458230
O401	O40	0.346200	0.557140	0.284270
O411	O41	0.863100	0.822600	0.392400
O421	O42	0.616400	0.249880	0.029000
O431	O43	0.053800	0.190200	0.368510
O441	O44	0.791000	0.321260	0.604500
O451	O45	0.636900	0.322600	0.892400
O461	O46	0.181200	0.352960	0.558200
O471	O47	0.047200	0.095300	0.317900
O481	O48	0.689800	0.607700	0.415100
O491	O49	0.458800	0.376120	0.656400
O501	O50	0.363100	0.677400	0.107600
O511	O51	0.310200	0.392300	0.584900
O521	O52	0.547200	0.404700	0.182100
O531	O53	0.419400	0.444300	0.287500
O541	O54	0.288800	0.945900	0.616800
O551	O55	0.491400	0.575100	0.201200
O561	O56	0.437200	0.413300	0.868000
O571	O57	0.741100	0.842690	0.580240
O581	O58	0.617600	0.630600	0.606180
O591	O59	0.937200	0.086700	0.632000
O601	O60	0.444000	0.468970	0.712250
O611	O61	0.883600	0.749880	0.529000
O621	O62	0.112800	0.752780	0.424560
O631	O63	0.527900	0.445450	0.346900
O641	O64	0.056000	0.968970	0.212250
O651	O65	0.153800	0.057140	0.784270
O661	O66	0.211200	0.445900	0.116800
O671	O67	0.758900	0.342690	0.080240
O681	O68	0.653800	0.442860	0.715730
O691	O69	0.810200	0.107700	0.915100
O701	O70	0.316400	0.422400	0.166900
O711	O71	0.556000	0.531030	0.287750
O721	O72	0.383600	0.750120	0.971000
O731	O73	0.882400	0.130600	0.106180
O741	O74	0.952800	0.904700	0.682100
O751	O75	0.366200	0.726400	0.540000
O761	O76	0.387200	0.252780	0.924560
O771	O77	0.258900	0.157310	0.419760
O781	O78	0.452800	0.595300	0.817900
O791	O79	0.008600	0.075100	0.701200
O801	O80	0.189800	0.892300	0.084900
O811	O81	0.633800	0.273600	0.460000
O821	O82	0.738300	0.204500	0.444400
O831	O83	0.136900	0.177400	0.607600
O841	O84	0.709000	0.821260	0.104500
O851	O85	0.316400	0.315400	0.434800
O861	O86	0.183600	0.815400	0.934800
O871	O87	0.238900	0.032550	0.842910
O881	O88	0.553800	0.309800	0.131490
O891	O89	0.788800	0.554100	0.883200
O901	O90	0.107500	0.675000	0.958230
O911	O91	0.711200	0.054100	0.383200
O921	O92	0.683600	0.577600	0.833100
O931	O93	0.612800	0.747220	0.075440
O941	O94	0.607500	0.825000	0.541770
O951	O95	0.562800	0.586700	0.132000
O961	O96	0.508600	0.424900	0.798800
O971	O97	0.261700	0.795500	0.555600
O981	O98	0.946200	0.809800	0.631490
O991	O99	0.580600	0.555700	0.712500
O1001	O100	0.382400	0.369400	0.393820
