data_QIXSOG_clean_PM
_symmetry_space_group_name_H-M	'P1'
_cell_length_a	31.951000
_cell_length_b	10.636000
_cell_length_c	12.368000
_cell_angle_alpha	90.000000
_cell_angle_beta	96.030000
_cell_angle_gamma	90.000000
_symmetry_Int_Tables_number 1

loop_
_symmetry_equiv_pos_as_xyz
'x,y,z'

loop_
_atom_site_label
_atom_site_type_symbol
_atom_site_fract_x
_atom_site_fract_y
_atom_site_fract_z
Mn11	Mn1	0.249580	0.248250	0.499410
Cu11	Cu1	0.995770	0.257090	0.285610
C11	C1	0.074500	0.254700	0.434900
C21	C2	0.144900	0.243900	0.485200
C31	C3	0.353200	0.250900	0.538100
C41	C4	0.420500	0.238400	0.626100
C51	C5	0.254600	0.952100	0.412500
C61	C6	0.249800	0.543100	0.590200
C71	C7	0.253200	0.669500	0.737600
C81	C8	0.251400	0.823600	0.266200
N11	N1	0.043540	0.254100	0.380900
N21	N2	0.106400	0.258000	0.505200
N31	N3	0.180780	0.232800	0.480200
N41	N4	0.318300	0.260700	0.520900
N51	N5	0.392900	0.237100	0.542200
N61	N6	0.448400	0.240300	0.689800
N71	N7	0.250600	0.837700	0.369700
N81	N8	0.256600	0.044100	0.455600
N91	N9	0.245800	0.451100	0.542500
N101	N10	0.257000	0.652800	0.634500
N111	N11	0.250840	0.698600	0.825400
N121	N12	0.251000	0.797000	0.176200
Mn21	Mn2	0.250420	0.748250	0.000590
Cu21	Cu2	0.504230	0.757090	0.214390
C91	C9	0.425500	0.754700	0.065100
C101	C10	0.355100	0.743900	0.014800
C111	C11	0.146800	0.750900	0.961900
C121	C12	0.079500	0.738400	0.873900
C131	C13	0.245400	0.452100	0.087500
C141	C14	0.250200	0.043100	0.909800
C151	C15	0.246800	0.169500	0.762400
C161	C16	0.248600	0.323600	0.233800
N131	N13	0.456460	0.754100	0.119100
N141	N14	0.393600	0.758000	0.994800
N151	N15	0.319220	0.732800	0.019800
N161	N16	0.181700	0.760700	0.979100
N171	N17	0.107100	0.737100	0.957800
N181	N18	0.051600	0.740300	0.810200
N191	N19	0.249400	0.337700	0.130300
N201	N20	0.243400	0.544100	0.044400
N211	N21	0.254200	0.951100	0.957500
N221	N22	0.243000	0.152800	0.865500
N231	N23	0.249160	0.198600	0.674600
N241	N24	0.249000	0.297000	0.323800
Mn31	Mn3	0.750420	0.751750	0.500590
Cu31	Cu3	0.004230	0.742910	0.714390
C171	C17	0.925500	0.745300	0.565100
C181	C18	0.855100	0.756100	0.514800
C191	C19	0.646800	0.749100	0.461900
C201	C20	0.579500	0.761600	0.373900
C211	C21	0.745400	0.047900	0.587500
C221	C22	0.750200	0.456900	0.409800
C231	C23	0.746800	0.330500	0.262400
C241	C24	0.748600	0.176400	0.733800
N251	N25	0.956460	0.745900	0.619100
N261	N26	0.893600	0.742000	0.494800
N271	N27	0.819220	0.767200	0.519800
N281	N28	0.681700	0.739300	0.479100
N291	N29	0.607100	0.762900	0.457800
N301	N30	0.551600	0.759700	0.310200
N311	N31	0.749400	0.162300	0.630300
N321	N32	0.743400	0.955900	0.544400
N331	N33	0.754200	0.548900	0.457500
N341	N34	0.743000	0.347200	0.365500
N351	N35	0.749160	0.301400	0.174600
N361	N36	0.749000	0.203000	0.823800
Mn41	Mn4	0.749580	0.251750	0.999410
Cu41	Cu4	0.495770	0.242910	0.785610
C251	C25	0.574500	0.245300	0.934900
C261	C26	0.644900	0.256100	0.985200
C271	C27	0.853200	0.249100	0.038100
C281	C28	0.920500	0.261600	0.126100
C291	C29	0.754600	0.547900	0.912500
C301	C30	0.749800	0.956900	0.090200
C311	C31	0.753200	0.830500	0.237600
C321	C32	0.751400	0.676400	0.766200
N371	N37	0.543540	0.245900	0.880900
N381	N38	0.606400	0.242000	0.005200
N391	N39	0.680780	0.267200	0.980200
N401	N40	0.818300	0.239300	0.020900
N411	N41	0.892900	0.262900	0.042200
N421	N42	0.948400	0.259700	0.189800
N431	N43	0.750600	0.662300	0.869700
N441	N44	0.756600	0.455900	0.955600
N451	N45	0.745800	0.048900	0.042500
N461	N46	0.757000	0.847200	0.134500
N471	N47	0.750840	0.801400	0.325400
N481	N48	0.751000	0.703000	0.676200
