data_QIYDIN01_clean_PM
_symmetry_space_group_name_H-M	'P1'
_cell_length_a	47.493000
_cell_length_b	51.751500
_cell_length_c	32.967400
_cell_angle_alpha	90.000000
_cell_angle_beta	92.690000
_cell_angle_gamma	90.000000
_symmetry_Int_Tables_number 1

loop_
_symmetry_equiv_pos_as_xyz
'x,y,z'

loop_
_atom_site_label
_atom_site_type_symbol
_atom_site_fract_x
_atom_site_fract_y
_atom_site_fract_z
Cu11	Cu1	0.140080	0.853790	0.272090
Cu21	Cu2	0.182120	0.886850	0.276570
Cu31	Cu3	0.388360	0.876370	0.791450
Cu41	Cu4	0.432140	0.845310	0.795680
Cu51	Cu5	0.783880	0.003070	0.585150
Cu61	Cu6	0.778290	0.001190	0.505450
O11	O1	0.166670	0.832940	0.306820
O21	O2	0.199320	0.863640	0.316540
O31	O3	0.122530	0.119220	0.737230
O41	O4	0.160820	0.093340	0.737740
O51	O5	0.158020	0.839020	0.226130
O61	O6	0.195960	0.863640	0.234630
O71	O7	0.127410	0.871470	0.318490
O81	O8	0.160430	0.903020	0.318940
O91	O9	0.377120	0.855680	0.743810
O101	O10	0.413660	0.827360	0.749800
O111	O11	0.406010	0.108000	0.340160
O121	O12	0.444830	0.132040	0.340240
O131	O13	0.411840	0.897280	0.758510
O141	O14	0.448290	0.870190	0.758140
O151	O15	0.371610	0.850960	0.825290
O161	O16	0.408540	0.825240	0.833170
O171	O17	0.744180	0.006610	0.583840
O181	O18	0.738700	0.008020	0.515780
O191	O19	0.823800	0.998480	0.577720
O201	O20	0.819140	0.993410	0.511120
O211	O21	0.288720	0.540750	0.574710
O221	O22	0.286150	0.537870	0.508640
O231	O23	0.279610	0.534770	0.079870
O241	O24	0.271470	0.535370	0.013050
C11	C1	0.189290	0.840010	0.322900
C21	C2	0.207610	0.823420	0.346580
C31	C3	0.200410	0.797490	0.349660
H11	H1	0.184400	0.791100	0.335000
C41	C4	0.216810	0.781060	0.374340
H21	H2	0.211900	0.763500	0.376400
C51	C5	0.240420	0.790580	0.395960
C61	C6	0.247620	0.816510	0.392890
H31	H3	0.263600	0.822900	0.407500
C71	C7	0.231220	0.832940	0.368200
H41	H4	0.236100	0.850500	0.366100
C81	C8	0.257100	0.773830	0.425200
C91	C9	0.269730	0.761780	0.450400
C101	C10	0.285880	0.748930	0.480510
C111	C11	0.301250	0.763590	0.509090
H51	H5	0.300800	0.781700	0.507600
C121	C12	0.317310	0.751440	0.539840
C131	C13	0.317990	0.724620	0.542010
H61	H6	0.328900	0.716400	0.562800
C141	C14	0.302620	0.709960	0.513430
C151	C15	0.286560	0.722110	0.482680
H71	H7	0.276200	0.712200	0.463400
C161	C16	0.330600	0.766010	0.571900
C171	C17	0.342300	0.778700	0.601800
C181	C18	0.355560	0.793200	0.632960
C191	C19	0.343440	0.816550	0.643500
H81	H8	0.327600	0.822800	0.628500
C201	C20	0.354810	0.830630	0.676300
H91	H9	0.346600	0.846400	0.683400
C211	C21	0.378300	0.821360	0.698430
C221	C22	0.390420	0.798010	0.687900
H101	H10	0.406300	0.791700	0.702800
C231	C23	0.379060	0.783930	0.655100
H111	H11	0.387300	0.768100	0.648000
C241	C24	0.389600	0.835580	0.733500
C251	C25	0.301350	0.682310	0.517700
C261	C26	0.299990	0.658800	0.524100
C271	C27	0.298640	0.632300	0.528300
C281	C28	0.292310	0.617170	0.494270
H121	H12	0.290200	0.624900	0.468500
C291	C29	0.289160	0.590600	0.498320
H131	H13	0.284900	0.580400	0.475300
C301	C30	0.292340	0.579170	0.536420
C311	C31	0.298670	0.594310	0.570460
H141	H14	0.300800	0.586600	0.596200
C321	C32	0.301820	0.620880	0.566410
H151	H15	0.306100	0.631100	0.589400
C331	C33	0.288830	0.551610	0.541000
C341	C34	0.433000	0.891560	0.743060
C351	C35	0.450450	0.908140	0.718580
C361	C36	0.435890	0.929890	0.704470
H161	H16	0.417400	0.932900	0.712300
C371	C37	0.448670	0.947170	0.678810
H171	H17	0.438800	0.961900	0.669300
C381	C38	0.476020	0.942690	0.667260
C391	C39	0.490580	0.920930	0.681370
H181	H18	0.509100	0.917900	0.673600
C401	C40	0.477790	0.903650	0.707030
H191	H19	0.487600	0.888900	0.716600
C411	C41	0.488680	0.959800	0.642200
C421	C42	0.499170	0.975050	0.617500
C431	C43	0.511220	0.993610	0.589780
C441	C44	0.540460	0.994370	0.589320
H201	H20	0.551400	0.983800	0.607100
C451	C45	0.553520	0.010710	0.562530
C461	C46	0.537350	0.026310	0.536200
H211	H21	0.546200	0.037400	0.518100
C471	C47	0.508110	0.025550	0.536660
C481	C48	0.495040	0.009210	0.563450
H221	H22	0.475300	0.008700	0.563800
C491	C49	0.584100	0.011650	0.560900
C501	C50	0.609700	0.011760	0.559900
C511	C51	0.639560	0.012420	0.558500
C521	C52	0.657220	0.010620	0.593260
H231	H23	0.649500	0.010100	0.619000
C531	C53	0.686260	0.009610	0.589900
H241	H24	0.698200	0.008400	0.613400
C541	C54	0.697660	0.010410	0.551900
C551	C55	0.680000	0.012210	0.517150
H251	H25	0.687700	0.012800	0.491400
C561	C56	0.650950	0.013220	0.520500
H261	H26	0.639000	0.014400	0.497000
C571	C57	0.728590	0.008450	0.551900
C581	C58	0.491530	0.040130	0.509200
C591	C59	0.480090	0.054070	0.486100
C601	C60	0.465680	0.070060	0.453370
C611	C61	0.438010	0.065890	0.439300
H271	H27	0.427100	0.053200	0.451400
C621	C62	0.426520	0.080560	0.407300
H281	H28	0.407800	0.077700	0.397800
C631	C63	0.442700	0.099400	0.389400
C641	C64	0.470370	0.103570	0.403470
H291	H29	0.481300	0.116300	0.391400
C651	C65	0.481860	0.088900	0.435500
H301	H30	0.500600	0.091700	0.445000
C661	C66	0.430130	0.113650	0.355300
C671	C67	0.382400	0.831960	0.839800
C681	C68	0.368330	0.813210	0.866600
C691	C69	0.381360	0.791400	0.883400
H311	H31	0.399800	0.787100	0.876700
C701	C70	0.367110	0.775920	0.910100
H321	H32	0.375900	0.761200	0.921500
C711	C71	0.339830	0.782260	0.920060
C721	C72	0.326810	0.804080	0.903200
H331	H33	0.308400	0.808400	0.910000
C731	C73	0.341060	0.819550	0.876500
H341	H34	0.332300	0.834300	0.865100
C741	C74	0.323210	0.767510	0.946600
C751	C75	0.311050	0.756580	0.971500
C761	C76	0.294340	0.744480	0.002410
C771	C77	0.292940	0.717750	0.006020
H351	H35	0.302500	0.707200	0.988100
C781	C78	0.277380	0.706700	0.036190
C791	C79	0.263210	0.722370	0.062750
H361	H36	0.252700	0.714900	0.083200
C801	C80	0.264610	0.749100	0.059140
C811	C81	0.280180	0.760150	0.028970
H371	H37	0.281100	0.778200	0.026500
C821	C82	0.274960	0.680750	0.039400
C831	C83	0.273190	0.655640	0.042100
C841	C84	0.271930	0.628670	0.043200
C851	C85	0.268400	0.614540	0.007450
H381	H38	0.265800	0.623100	0.982400
C861	C86	0.268710	0.587690	0.008700
H391	H39	0.266300	0.578100	0.984500
C871	C87	0.272560	0.574980	0.045700
C881	C88	0.276090	0.589110	0.081420
H401	H40	0.278700	0.580500	0.106400
C891	C89	0.275780	0.615960	0.080160
H411	H41	0.278200	0.625500	0.104300
C901	C90	0.276320	0.547740	0.046700
C911	C91	0.249880	0.765920	0.084400
C921	C92	0.238490	0.780170	0.107300
C931	C93	0.223940	0.797290	0.133890
C941	C94	0.196530	0.791830	0.144200
H421	H42	0.187100	0.777300	0.133000
C951	C95	0.183040	0.807800	0.171100
H431	H43	0.164500	0.804100	0.178000
C961	C96	0.196960	0.829240	0.187640
C971	C97	0.224380	0.834700	0.177300
H441	H44	0.233800	0.849200	0.188500
C981	C98	0.237870	0.818730	0.150500
H451	H45	0.256400	0.822400	0.143500
C991	C99	0.182800	0.845520	0.216600
C1001	C100	0.834620	0.993730	0.545400
C1011	C101	0.864070	0.988160	0.543200
C1021	C102	0.875590	0.979470	0.507660
H461	H46	0.863900	0.976900	0.484200
C1031	C103	0.904330	0.974570	0.506890
H471	H47	0.912100	0.968700	0.482900
C1041	C104	0.921560	0.978350	0.541600
C1051	C105	0.910040	0.987040	0.577150
H481	H48	0.921700	0.989600	0.600600
C1061	C106	0.881300	0.991940	0.577920
H491	H49	0.873500	0.997800	0.601900
C1071	C107	0.952020	0.976490	0.538700
C1081	C108	0.976060	0.975600	0.538700
C1091	C109	0.007340	0.976710	0.540000
C1101	C110	0.023310	0.962750	0.513340
H501	H50	0.014400	0.951900	0.493900
C1111	C111	0.052520	0.964880	0.515470
C1121	C112	0.065750	0.980960	0.544250
H511	H51	0.085500	0.982400	0.545700
C1131	C113	0.049780	0.994920	0.570910
C1141	C114	0.020570	0.992800	0.568780
H521	H52	0.009800	0.002200	0.586800
C1151	C115	0.067540	0.951720	0.486100
C1161	C116	0.080940	0.941640	0.461400
C1171	C117	0.096870	0.928370	0.429520
C1181	C118	0.085300	0.906830	0.409830
H531	H53	0.067900	0.900200	0.417500
C1191	C119	0.099460	0.895090	0.378800
H541	H54	0.091600	0.880500	0.365500
C1201	C120	0.125190	0.904890	0.367470
C1211	C121	0.136750	0.926430	0.387170
H551	H55	0.154100	0.933100	0.379500
C1221	C122	0.122590	0.938170	0.418190
H561	H56	0.130400	0.952700	0.431500
C1231	C123	0.140200	0.893320	0.333460
C1241	C124	0.064290	0.012750	0.598400
C1251	C125	0.075750	0.028550	0.620300
C1261	C126	0.091250	0.046140	0.645980
C1271	C127	0.119360	0.042070	0.657870
H571	H57	0.129000	0.027600	0.648200
C1281	C128	0.133300	0.059400	0.684020
H581	H58	0.152300	0.056600	0.692100
C1291	C129	0.119110	0.080810	0.698280
C1301	C130	0.090990	0.084880	0.686390
H591	H59	0.081400	0.099400	0.696000
C1311	C131	0.077060	0.067550	0.660240
H601	H60	0.058000	0.070300	0.652200
C1321	C132	0.136500	0.097820	0.723400
Cu71	Cu7	0.640080	0.353790	0.272090
Cu81	Cu8	0.682120	0.386850	0.276570
Cu91	Cu9	0.888360	0.376370	0.791450
Cu101	Cu10	0.932140	0.345310	0.795680
Cu111	Cu11	0.283880	0.503070	0.585150
Cu121	Cu12	0.278290	0.501190	0.505450
O251	O25	0.666670	0.332940	0.306820
O261	O26	0.699320	0.363640	0.316540
O271	O27	0.622530	0.619220	0.737230
O281	O28	0.660820	0.593340	0.737740
O291	O29	0.658020	0.339020	0.226130
O301	O30	0.695960	0.363640	0.234630
O311	O31	0.627410	0.371470	0.318490
O321	O32	0.660430	0.403020	0.318940
O331	O33	0.877120	0.355680	0.743810
O341	O34	0.913660	0.327360	0.749800
O351	O35	0.906010	0.608000	0.340160
O361	O36	0.944830	0.632040	0.340240
O371	O37	0.911840	0.397280	0.758510
O381	O38	0.948290	0.370190	0.758140
O391	O39	0.871610	0.350960	0.825290
O401	O40	0.908540	0.325240	0.833170
O411	O41	0.244180	0.506610	0.583840
O421	O42	0.238700	0.508020	0.515780
O431	O43	0.323800	0.498480	0.577720
O441	O44	0.319140	0.493410	0.511120
O451	O45	0.788720	0.040750	0.574710
O461	O46	0.786150	0.037870	0.508640
O471	O47	0.779610	0.034770	0.079870
O481	O48	0.771470	0.035370	0.013050
C1331	C133	0.689290	0.340010	0.322900
C1341	C134	0.707610	0.323420	0.346580
C1351	C135	0.700410	0.297490	0.349660
H611	H61	0.684400	0.291100	0.335000
C1361	C136	0.716810	0.281060	0.374340
H621	H62	0.711900	0.263500	0.376400
C1371	C137	0.740420	0.290580	0.395960
C1381	C138	0.747620	0.316510	0.392890
H631	H63	0.763600	0.322900	0.407500
C1391	C139	0.731220	0.332940	0.368200
H641	H64	0.736100	0.350500	0.366100
C1401	C140	0.757100	0.273830	0.425200
C1411	C141	0.769730	0.261780	0.450400
C1421	C142	0.785880	0.248930	0.480510
C1431	C143	0.801250	0.263590	0.509090
H651	H65	0.800800	0.281700	0.507600
C1441	C144	0.817310	0.251440	0.539840
C1451	C145	0.817990	0.224620	0.542010
H661	H66	0.828900	0.216400	0.562800
C1461	C146	0.802620	0.209960	0.513430
C1471	C147	0.786560	0.222110	0.482680
H671	H67	0.776200	0.212200	0.463400
C1481	C148	0.830600	0.266010	0.571900
C1491	C149	0.842300	0.278700	0.601800
C1501	C150	0.855560	0.293200	0.632960
C1511	C151	0.843440	0.316550	0.643500
H681	H68	0.827600	0.322800	0.628500
C1521	C152	0.854810	0.330630	0.676300
H691	H69	0.846600	0.346400	0.683400
C1531	C153	0.878300	0.321360	0.698430
C1541	C154	0.890420	0.298010	0.687900
H701	H70	0.906300	0.291700	0.702800
C1551	C155	0.879060	0.283930	0.655100
H711	H71	0.887300	0.268100	0.648000
C1561	C156	0.889600	0.335580	0.733500
C1571	C157	0.801350	0.182310	0.517700
C1581	C158	0.799990	0.158800	0.524100
C1591	C159	0.798640	0.132300	0.528300
C1601	C160	0.792310	0.117170	0.494270
H721	H72	0.790200	0.124900	0.468500
C1611	C161	0.789160	0.090600	0.498320
H731	H73	0.784900	0.080400	0.475300
C1621	C162	0.792340	0.079170	0.536420
C1631	C163	0.798670	0.094310	0.570460
H741	H74	0.800800	0.086600	0.596200
C1641	C164	0.801820	0.120880	0.566410
H751	H75	0.806100	0.131100	0.589400
C1651	C165	0.788830	0.051610	0.541000
C1661	C166	0.933000	0.391560	0.743060
C1671	C167	0.950450	0.408140	0.718580
C1681	C168	0.935890	0.429890	0.704470
H761	H76	0.917400	0.432900	0.712300
C1691	C169	0.948670	0.447170	0.678810
H771	H77	0.938800	0.461900	0.669300
C1701	C170	0.976020	0.442690	0.667260
C1711	C171	0.990580	0.420930	0.681370
H781	H78	0.009100	0.417900	0.673600
C1721	C172	0.977790	0.403650	0.707030
H791	H79	0.987600	0.388900	0.716600
C1731	C173	0.988680	0.459800	0.642200
C1741	C174	0.999170	0.475050	0.617500
C1751	C175	0.011220	0.493610	0.589780
C1761	C176	0.040460	0.494370	0.589320
H801	H80	0.051400	0.483800	0.607100
C1771	C177	0.053520	0.510710	0.562530
C1781	C178	0.037350	0.526310	0.536200
H811	H81	0.046200	0.537400	0.518100
C1791	C179	0.008110	0.525550	0.536660
C1801	C180	0.995040	0.509210	0.563450
H821	H82	0.975300	0.508700	0.563800
C1811	C181	0.084100	0.511650	0.560900
C1821	C182	0.109700	0.511760	0.559900
C1831	C183	0.139560	0.512420	0.558500
C1841	C184	0.157220	0.510620	0.593260
H831	H83	0.149500	0.510100	0.619000
C1851	C185	0.186260	0.509610	0.589900
H841	H84	0.198200	0.508400	0.613400
C1861	C186	0.197660	0.510410	0.551900
C1871	C187	0.180000	0.512210	0.517150
H851	H85	0.187700	0.512800	0.491400
C1881	C188	0.150950	0.513220	0.520500
H861	H86	0.139000	0.514400	0.497000
C1891	C189	0.228590	0.508450	0.551900
C1901	C190	0.991530	0.540130	0.509200
C1911	C191	0.980090	0.554070	0.486100
C1921	C192	0.965680	0.570060	0.453370
C1931	C193	0.938010	0.565890	0.439300
H871	H87	0.927100	0.553200	0.451400
C1941	C194	0.926520	0.580560	0.407300
H881	H88	0.907800	0.577700	0.397800
C1951	C195	0.942700	0.599400	0.389400
C1961	C196	0.970370	0.603570	0.403470
H891	H89	0.981300	0.616300	0.391400
C1971	C197	0.981860	0.588900	0.435500
H901	H90	0.000600	0.591700	0.445000
C1981	C198	0.930130	0.613650	0.355300
C1991	C199	0.882400	0.331960	0.839800
C2001	C200	0.868330	0.313210	0.866600
C2011	C201	0.881360	0.291400	0.883400
H911	H91	0.899800	0.287100	0.876700
C2021	C202	0.867110	0.275920	0.910100
H921	H92	0.875900	0.261200	0.921500
C2031	C203	0.839830	0.282260	0.920060
C2041	C204	0.826810	0.304080	0.903200
H931	H93	0.808400	0.308400	0.910000
C2051	C205	0.841060	0.319550	0.876500
H941	H94	0.832300	0.334300	0.865100
C2061	C206	0.823210	0.267510	0.946600
C2071	C207	0.811050	0.256580	0.971500
C2081	C208	0.794340	0.244480	0.002410
C2091	C209	0.792940	0.217750	0.006020
H951	H95	0.802500	0.207200	0.988100
C2101	C210	0.777380	0.206700	0.036190
C2111	C211	0.763210	0.222370	0.062750
H961	H96	0.752700	0.214900	0.083200
C2121	C212	0.764610	0.249100	0.059140
C2131	C213	0.780180	0.260150	0.028970
H971	H97	0.781100	0.278200	0.026500
C2141	C214	0.774960	0.180750	0.039400
C2151	C215	0.773190	0.155640	0.042100
C2161	C216	0.771930	0.128670	0.043200
C2171	C217	0.768400	0.114540	0.007450
H981	H98	0.765800	0.123100	0.982400
C2181	C218	0.768710	0.087690	0.008700
H991	H99	0.766300	0.078100	0.984500
C2191	C219	0.772560	0.074980	0.045700
C2201	C220	0.776090	0.089110	0.081420
H1001	H100	0.778700	0.080500	0.106400
C2211	C221	0.775780	0.115960	0.080160
H1011	H101	0.778200	0.125500	0.104300
C2221	C222	0.776320	0.047740	0.046700
C2231	C223	0.749880	0.265920	0.084400
C2241	C224	0.738490	0.280170	0.107300
C2251	C225	0.723940	0.297290	0.133890
C2261	C226	0.696530	0.291830	0.144200
H1021	H102	0.687100	0.277300	0.133000
C2271	C227	0.683040	0.307800	0.171100
H1031	H103	0.664500	0.304100	0.178000
C2281	C228	0.696960	0.329240	0.187640
C2291	C229	0.724380	0.334700	0.177300
H1041	H104	0.733800	0.349200	0.188500
C2301	C230	0.737870	0.318730	0.150500
H1051	H105	0.756400	0.322400	0.143500
C2311	C231	0.682800	0.345520	0.216600
C2321	C232	0.334620	0.493730	0.545400
C2331	C233	0.364070	0.488160	0.543200
C2341	C234	0.375590	0.479470	0.507660
H1061	H106	0.363900	0.476900	0.484200
C2351	C235	0.404330	0.474570	0.506890
H1071	H107	0.412100	0.468700	0.482900
C2361	C236	0.421560	0.478350	0.541600
C2371	C237	0.410040	0.487040	0.577150
H1081	H108	0.421700	0.489600	0.600600
C2381	C238	0.381300	0.491940	0.577920
H1091	H109	0.373500	0.497800	0.601900
C2391	C239	0.452020	0.476490	0.538700
C2401	C240	0.476060	0.475600	0.538700
C2411	C241	0.507340	0.476710	0.540000
C2421	C242	0.523310	0.462750	0.513340
H1101	H110	0.514400	0.451900	0.493900
C2431	C243	0.552520	0.464880	0.515470
C2441	C244	0.565750	0.480960	0.544250
H1111	H111	0.585500	0.482400	0.545700
C2451	C245	0.549780	0.494920	0.570910
C2461	C246	0.520570	0.492800	0.568780
H1121	H112	0.509800	0.502200	0.586800
C2471	C247	0.567540	0.451720	0.486100
C2481	C248	0.580940	0.441640	0.461400
C2491	C249	0.596870	0.428370	0.429520
C2501	C250	0.585300	0.406830	0.409830
H1131	H113	0.567900	0.400200	0.417500
C2511	C251	0.599460	0.395090	0.378800
H1141	H114	0.591600	0.380500	0.365500
C2521	C252	0.625190	0.404890	0.367470
C2531	C253	0.636750	0.426430	0.387170
H1151	H115	0.654100	0.433100	0.379500
C2541	C254	0.622590	0.438170	0.418190
H1161	H116	0.630400	0.452700	0.431500
C2551	C255	0.640200	0.393320	0.333460
C2561	C256	0.564290	0.512750	0.598400
C2571	C257	0.575750	0.528550	0.620300
C2581	C258	0.591250	0.546140	0.645980
C2591	C259	0.619360	0.542070	0.657870
H1171	H117	0.629000	0.527600	0.648200
C2601	C260	0.633300	0.559400	0.684020
H1181	H118	0.652300	0.556600	0.692100
C2611	C261	0.619110	0.580810	0.698280
C2621	C262	0.590990	0.584880	0.686390
H1191	H119	0.581400	0.599400	0.696000
C2631	C263	0.577060	0.567550	0.660240
H1201	H120	0.558000	0.570300	0.652200
C2641	C264	0.636500	0.597820	0.723400
Cu131	Cu13	0.140080	0.146210	0.772090
Cu141	Cu14	0.182120	0.113150	0.776570
Cu151	Cu15	0.388360	0.123630	0.291450
Cu161	Cu16	0.432140	0.154690	0.295680
Cu171	Cu17	0.783880	0.996930	0.085150
Cu181	Cu18	0.778290	0.998810	0.005450
O491	O49	0.166670	0.167060	0.806820
O501	O50	0.199320	0.136360	0.816540
O511	O51	0.122530	0.880780	0.237230
O521	O52	0.160820	0.906660	0.237740
O531	O53	0.158020	0.160980	0.726130
O541	O54	0.195960	0.136360	0.734630
O551	O55	0.127410	0.128530	0.818490
O561	O56	0.160430	0.096980	0.818940
O571	O57	0.377120	0.144320	0.243810
O581	O58	0.413660	0.172640	0.249800
O591	O59	0.406010	0.892000	0.840160
O601	O60	0.444830	0.867960	0.840240
O611	O61	0.411840	0.102720	0.258510
O621	O62	0.448290	0.129810	0.258140
O631	O63	0.371610	0.149040	0.325290
O641	O64	0.408540	0.174760	0.333170
O651	O65	0.744180	0.993390	0.083840
O661	O66	0.738700	0.991980	0.015780
O671	O67	0.823800	0.001520	0.077720
O681	O68	0.819140	0.006590	0.011120
O691	O69	0.288720	0.459250	0.074710
O701	O70	0.286150	0.462130	0.008640
O711	O71	0.279610	0.465230	0.579870
O721	O72	0.271470	0.464630	0.513050
C2651	C265	0.189290	0.159990	0.822900
C2661	C266	0.207610	0.176580	0.846580
C2671	C267	0.200410	0.202510	0.849660
H1211	H121	0.184400	0.208900	0.835000
C2681	C268	0.216810	0.218940	0.874340
H1221	H122	0.211900	0.236500	0.876400
C2691	C269	0.240420	0.209420	0.895960
C2701	C270	0.247620	0.183490	0.892890
H1231	H123	0.263600	0.177100	0.907500
C2711	C271	0.231220	0.167060	0.868200
H1241	H124	0.236100	0.149500	0.866100
C2721	C272	0.257100	0.226170	0.925200
C2731	C273	0.269730	0.238220	0.950400
C2741	C274	0.285880	0.251070	0.980510
C2751	C275	0.301250	0.236410	0.009090
H1251	H125	0.300800	0.218300	0.007600
C2761	C276	0.317310	0.248560	0.039840
C2771	C277	0.317990	0.275380	0.042010
H1261	H126	0.328900	0.283600	0.062800
C2781	C278	0.302620	0.290040	0.013430
C2791	C279	0.286560	0.277890	0.982680
H1271	H127	0.276200	0.287800	0.963400
C2801	C280	0.330600	0.233990	0.071900
C2811	C281	0.342300	0.221300	0.101800
C2821	C282	0.355560	0.206800	0.132960
C2831	C283	0.343440	0.183450	0.143500
H1281	H128	0.327600	0.177200	0.128500
C2841	C284	0.354810	0.169370	0.176300
H1291	H129	0.346600	0.153600	0.183400
C2851	C285	0.378300	0.178640	0.198430
C2861	C286	0.390420	0.201990	0.187900
H1301	H130	0.406300	0.208300	0.202800
C2871	C287	0.379060	0.216070	0.155100
H1311	H131	0.387300	0.231900	0.148000
C2881	C288	0.389600	0.164420	0.233500
C2891	C289	0.301350	0.317690	0.017700
C2901	C290	0.299990	0.341200	0.024100
C2911	C291	0.298640	0.367700	0.028300
C2921	C292	0.292310	0.382830	0.994270
H1321	H132	0.290200	0.375100	0.968500
C2931	C293	0.289160	0.409400	0.998320
H1331	H133	0.284900	0.419600	0.975300
C2941	C294	0.292340	0.420830	0.036420
C2951	C295	0.298670	0.405690	0.070460
H1341	H134	0.300800	0.413400	0.096200
C2961	C296	0.301820	0.379120	0.066410
H1351	H135	0.306100	0.368900	0.089400
C2971	C297	0.288830	0.448390	0.041000
C2981	C298	0.433000	0.108440	0.243060
C2991	C299	0.450450	0.091860	0.218580
C3001	C300	0.435890	0.070110	0.204470
H1361	H136	0.417400	0.067100	0.212300
C3011	C301	0.448670	0.052830	0.178810
H1371	H137	0.438800	0.038100	0.169300
C3021	C302	0.476020	0.057310	0.167260
C3031	C303	0.490580	0.079070	0.181370
H1381	H138	0.509100	0.082100	0.173600
C3041	C304	0.477790	0.096350	0.207030
H1391	H139	0.487600	0.111100	0.216600
C3051	C305	0.488680	0.040200	0.142200
C3061	C306	0.499170	0.024950	0.117500
C3071	C307	0.511220	0.006390	0.089780
C3081	C308	0.540460	0.005630	0.089320
H1401	H140	0.551400	0.016200	0.107100
C3091	C309	0.553520	0.989290	0.062530
C3101	C310	0.537350	0.973690	0.036200
H1411	H141	0.546200	0.962600	0.018100
C3111	C311	0.508110	0.974450	0.036660
C3121	C312	0.495040	0.990790	0.063450
H1421	H142	0.475300	0.991300	0.063800
C3131	C313	0.584100	0.988350	0.060900
C3141	C314	0.609700	0.988240	0.059900
C3151	C315	0.639560	0.987580	0.058500
C3161	C316	0.657220	0.989380	0.093260
H1431	H143	0.649500	0.989900	0.119000
C3171	C317	0.686260	0.990390	0.089900
H1441	H144	0.698200	0.991600	0.113400
C3181	C318	0.697660	0.989590	0.051900
C3191	C319	0.680000	0.987790	0.017150
H1451	H145	0.687700	0.987200	0.991400
C3201	C320	0.650950	0.986780	0.020500
H1461	H146	0.639000	0.985600	0.997000
C3211	C321	0.728590	0.991550	0.051900
C3221	C322	0.491530	0.959870	0.009200
C3231	C323	0.480090	0.945930	0.986100
C3241	C324	0.465680	0.929940	0.953370
C3251	C325	0.438010	0.934110	0.939300
H1471	H147	0.427100	0.946800	0.951400
C3261	C326	0.426520	0.919440	0.907300
H1481	H148	0.407800	0.922300	0.897800
C3271	C327	0.442700	0.900600	0.889400
C3281	C328	0.470370	0.896430	0.903470
H1491	H149	0.481300	0.883700	0.891400
C3291	C329	0.481860	0.911100	0.935500
H1501	H150	0.500600	0.908300	0.945000
C3301	C330	0.430130	0.886350	0.855300
C3311	C331	0.382400	0.168040	0.339800
C3321	C332	0.368330	0.186790	0.366600
C3331	C333	0.381360	0.208600	0.383400
H1511	H151	0.399800	0.212900	0.376700
C3341	C334	0.367110	0.224080	0.410100
H1521	H152	0.375900	0.238800	0.421500
C3351	C335	0.339830	0.217740	0.420060
C3361	C336	0.326810	0.195920	0.403200
H1531	H153	0.308400	0.191600	0.410000
C3371	C337	0.341060	0.180450	0.376500
H1541	H154	0.332300	0.165700	0.365100
C3381	C338	0.323210	0.232490	0.446600
C3391	C339	0.311050	0.243420	0.471500
C3401	C340	0.294340	0.255520	0.502410
C3411	C341	0.292940	0.282250	0.506020
H1551	H155	0.302500	0.292800	0.488100
C3421	C342	0.277380	0.293300	0.536190
C3431	C343	0.263210	0.277630	0.562750
H1561	H156	0.252700	0.285100	0.583200
C3441	C344	0.264610	0.250900	0.559140
C3451	C345	0.280180	0.239850	0.528970
H1571	H157	0.281100	0.221800	0.526500
C3461	C346	0.274960	0.319250	0.539400
C3471	C347	0.273190	0.344360	0.542100
C3481	C348	0.271930	0.371330	0.543200
C3491	C349	0.268400	0.385460	0.507450
H1581	H158	0.265800	0.376900	0.482400
C3501	C350	0.268710	0.412310	0.508700
H1591	H159	0.266300	0.421900	0.484500
C3511	C351	0.272560	0.425020	0.545700
C3521	C352	0.276090	0.410890	0.581420
H1601	H160	0.278700	0.419500	0.606400
C3531	C353	0.275780	0.384040	0.580160
H1611	H161	0.278200	0.374500	0.604300
C3541	C354	0.276320	0.452260	0.546700
C3551	C355	0.249880	0.234080	0.584400
C3561	C356	0.238490	0.219830	0.607300
C3571	C357	0.223940	0.202710	0.633890
C3581	C358	0.196530	0.208170	0.644200
H1621	H162	0.187100	0.222700	0.633000
C3591	C359	0.183040	0.192200	0.671100
H1631	H163	0.164500	0.195900	0.678000
C3601	C360	0.196960	0.170760	0.687640
C3611	C361	0.224380	0.165300	0.677300
H1641	H164	0.233800	0.150800	0.688500
C3621	C362	0.237870	0.181270	0.650500
H1651	H165	0.256400	0.177600	0.643500
C3631	C363	0.182800	0.154480	0.716600
C3641	C364	0.834620	0.006270	0.045400
C3651	C365	0.864070	0.011840	0.043200
C3661	C366	0.875590	0.020530	0.007660
H1661	H166	0.863900	0.023100	0.984200
C3671	C367	0.904330	0.025430	0.006890
H1671	H167	0.912100	0.031300	0.982900
C3681	C368	0.921560	0.021650	0.041600
C3691	C369	0.910040	0.012960	0.077150
H1681	H168	0.921700	0.010400	0.100600
C3701	C370	0.881300	0.008060	0.077920
H1691	H169	0.873500	0.002200	0.101900
C3711	C371	0.952020	0.023510	0.038700
C3721	C372	0.976060	0.024400	0.038700
C3731	C373	0.007340	0.023290	0.040000
C3741	C374	0.023310	0.037250	0.013340
H1701	H170	0.014400	0.048100	0.993900
C3751	C375	0.052520	0.035120	0.015470
C3761	C376	0.065750	0.019040	0.044250
H1711	H171	0.085500	0.017600	0.045700
C3771	C377	0.049780	0.005080	0.070910
C3781	C378	0.020570	0.007200	0.068780
H1721	H172	0.009800	0.997800	0.086800
C3791	C379	0.067540	0.048280	0.986100
C3801	C380	0.080940	0.058360	0.961400
C3811	C381	0.096870	0.071630	0.929520
C3821	C382	0.085300	0.093170	0.909830
H1731	H173	0.067900	0.099800	0.917500
C3831	C383	0.099460	0.104910	0.878800
H1741	H174	0.091600	0.119500	0.865500
C3841	C384	0.125190	0.095110	0.867470
C3851	C385	0.136750	0.073570	0.887170
H1751	H175	0.154100	0.066900	0.879500
C3861	C386	0.122590	0.061830	0.918190
H1761	H176	0.130400	0.047300	0.931500
C3871	C387	0.140200	0.106680	0.833460
C3881	C388	0.064290	0.987250	0.098400
C3891	C389	0.075750	0.971450	0.120300
C3901	C390	0.091250	0.953860	0.145980
C3911	C391	0.119360	0.957930	0.157870
H1771	H177	0.129000	0.972400	0.148200
C3921	C392	0.133300	0.940600	0.184020
H1781	H178	0.152300	0.943400	0.192100
C3931	C393	0.119110	0.919190	0.198280
C3941	C394	0.090990	0.915120	0.186390
H1791	H179	0.081400	0.900600	0.196000
C3951	C395	0.077060	0.932450	0.160240
H1801	H180	0.058000	0.929700	0.152200
C3961	C396	0.136500	0.902180	0.223400
Cu191	Cu19	0.640080	0.646210	0.772090
Cu201	Cu20	0.682120	0.613150	0.776570
Cu211	Cu21	0.888360	0.623630	0.291450
Cu221	Cu22	0.932140	0.654690	0.295680
Cu231	Cu23	0.283880	0.496930	0.085150
Cu241	Cu24	0.278290	0.498810	0.005450
O731	O73	0.666670	0.667060	0.806820
O741	O74	0.699320	0.636360	0.816540
O751	O75	0.622530	0.380780	0.237230
O761	O76	0.660820	0.406660	0.237740
O771	O77	0.658020	0.660980	0.726130
O781	O78	0.695960	0.636360	0.734630
O791	O79	0.627410	0.628530	0.818490
O801	O80	0.660430	0.596980	0.818940
O811	O81	0.877120	0.644320	0.243810
O821	O82	0.913660	0.672640	0.249800
O831	O83	0.906010	0.392000	0.840160
O841	O84	0.944830	0.367960	0.840240
O851	O85	0.911840	0.602720	0.258510
O861	O86	0.948290	0.629810	0.258140
O871	O87	0.871610	0.649040	0.325290
O881	O88	0.908540	0.674760	0.333170
O891	O89	0.244180	0.493390	0.083840
O901	O90	0.238700	0.491980	0.015780
O911	O91	0.323800	0.501520	0.077720
O921	O92	0.319140	0.506590	0.011120
O931	O93	0.788720	0.959250	0.074710
O941	O94	0.786150	0.962130	0.008640
O951	O95	0.779610	0.965230	0.579870
O961	O96	0.771470	0.964630	0.513050
C3971	C397	0.689290	0.659990	0.822900
C3981	C398	0.707610	0.676580	0.846580
C3991	C399	0.700410	0.702510	0.849660
H1811	H181	0.684400	0.708900	0.835000
C4001	C400	0.716810	0.718940	0.874340
H1821	H182	0.711900	0.736500	0.876400
C4011	C401	0.740420	0.709420	0.895960
C4021	C402	0.747620	0.683490	0.892890
H1831	H183	0.763600	0.677100	0.907500
C4031	C403	0.731220	0.667060	0.868200
H1841	H184	0.736100	0.649500	0.866100
C4041	C404	0.757100	0.726170	0.925200
C4051	C405	0.769730	0.738220	0.950400
C4061	C406	0.785880	0.751070	0.980510
C4071	C407	0.801250	0.736410	0.009090
H1851	H185	0.800800	0.718300	0.007600
C4081	C408	0.817310	0.748560	0.039840
C4091	C409	0.817990	0.775380	0.042010
H1861	H186	0.828900	0.783600	0.062800
C4101	C410	0.802620	0.790040	0.013430
C4111	C411	0.786560	0.777890	0.982680
H1871	H187	0.776200	0.787800	0.963400
C4121	C412	0.830600	0.733990	0.071900
C4131	C413	0.842300	0.721300	0.101800
C4141	C414	0.855560	0.706800	0.132960
C4151	C415	0.843440	0.683450	0.143500
H1881	H188	0.827600	0.677200	0.128500
C4161	C416	0.854810	0.669370	0.176300
H1891	H189	0.846600	0.653600	0.183400
C4171	C417	0.878300	0.678640	0.198430
C4181	C418	0.890420	0.701990	0.187900
H1901	H190	0.906300	0.708300	0.202800
C4191	C419	0.879060	0.716070	0.155100
H1911	H191	0.887300	0.731900	0.148000
C4201	C420	0.889600	0.664420	0.233500
C4211	C421	0.801350	0.817690	0.017700
C4221	C422	0.799990	0.841200	0.024100
C4231	C423	0.798640	0.867700	0.028300
C4241	C424	0.792310	0.882830	0.994270
H1921	H192	0.790200	0.875100	0.968500
C4251	C425	0.789160	0.909400	0.998320
H1931	H193	0.784900	0.919600	0.975300
C4261	C426	0.792340	0.920830	0.036420
C4271	C427	0.798670	0.905690	0.070460
H1941	H194	0.800800	0.913400	0.096200
C4281	C428	0.801820	0.879120	0.066410
H1951	H195	0.806100	0.868900	0.089400
C4291	C429	0.788830	0.948390	0.041000
C4301	C430	0.933000	0.608440	0.243060
C4311	C431	0.950450	0.591860	0.218580
C4321	C432	0.935890	0.570110	0.204470
H1961	H196	0.917400	0.567100	0.212300
C4331	C433	0.948670	0.552830	0.178810
H1971	H197	0.938800	0.538100	0.169300
C4341	C434	0.976020	0.557310	0.167260
C4351	C435	0.990580	0.579070	0.181370
H1981	H198	0.009100	0.582100	0.173600
C4361	C436	0.977790	0.596350	0.207030
H1991	H199	0.987600	0.611100	0.216600
C4371	C437	0.988680	0.540200	0.142200
C4381	C438	0.999170	0.524950	0.117500
C4391	C439	0.011220	0.506390	0.089780
C4401	C440	0.040460	0.505630	0.089320
H2001	H200	0.051400	0.516200	0.107100
C4411	C441	0.053520	0.489290	0.062530
C4421	C442	0.037350	0.473690	0.036200
H2011	H201	0.046200	0.462600	0.018100
C4431	C443	0.008110	0.474450	0.036660
C4441	C444	0.995040	0.490790	0.063450
H2021	H202	0.975300	0.491300	0.063800
C4451	C445	0.084100	0.488350	0.060900
C4461	C446	0.109700	0.488240	0.059900
C4471	C447	0.139560	0.487580	0.058500
C4481	C448	0.157220	0.489380	0.093260
H2031	H203	0.149500	0.489900	0.119000
C4491	C449	0.186260	0.490390	0.089900
H2041	H204	0.198200	0.491600	0.113400
C4501	C450	0.197660	0.489590	0.051900
C4511	C451	0.180000	0.487790	0.017150
H2051	H205	0.187700	0.487200	0.991400
C4521	C452	0.150950	0.486780	0.020500
H2061	H206	0.139000	0.485600	0.997000
C4531	C453	0.228590	0.491550	0.051900
C4541	C454	0.991530	0.459870	0.009200
C4551	C455	0.980090	0.445930	0.986100
C4561	C456	0.965680	0.429940	0.953370
C4571	C457	0.938010	0.434110	0.939300
H2071	H207	0.927100	0.446800	0.951400
C4581	C458	0.926520	0.419440	0.907300
H2081	H208	0.907800	0.422300	0.897800
C4591	C459	0.942700	0.400600	0.889400
C4601	C460	0.970370	0.396430	0.903470
H2091	H209	0.981300	0.383700	0.891400
C4611	C461	0.981860	0.411100	0.935500
H2101	H210	0.000600	0.408300	0.945000
C4621	C462	0.930130	0.386350	0.855300
C4631	C463	0.882400	0.668040	0.339800
C4641	C464	0.868330	0.686790	0.366600
C4651	C465	0.881360	0.708600	0.383400
H2111	H211	0.899800	0.712900	0.376700
C4661	C466	0.867110	0.724080	0.410100
H2121	H212	0.875900	0.738800	0.421500
C4671	C467	0.839830	0.717740	0.420060
C4681	C468	0.826810	0.695920	0.403200
H2131	H213	0.808400	0.691600	0.410000
C4691	C469	0.841060	0.680450	0.376500
H2141	H214	0.832300	0.665700	0.365100
C4701	C470	0.823210	0.732490	0.446600
C4711	C471	0.811050	0.743420	0.471500
C4721	C472	0.794340	0.755520	0.502410
C4731	C473	0.792940	0.782250	0.506020
H2151	H215	0.802500	0.792800	0.488100
C4741	C474	0.777380	0.793300	0.536190
C4751	C475	0.763210	0.777630	0.562750
H2161	H216	0.752700	0.785100	0.583200
C4761	C476	0.764610	0.750900	0.559140
C4771	C477	0.780180	0.739850	0.528970
H2171	H217	0.781100	0.721800	0.526500
C4781	C478	0.774960	0.819250	0.539400
C4791	C479	0.773190	0.844360	0.542100
C4801	C480	0.771930	0.871330	0.543200
C4811	C481	0.768400	0.885460	0.507450
H2181	H218	0.765800	0.876900	0.482400
C4821	C482	0.768710	0.912310	0.508700
H2191	H219	0.766300	0.921900	0.484500
C4831	C483	0.772560	0.925020	0.545700
C4841	C484	0.776090	0.910890	0.581420
H2201	H220	0.778700	0.919500	0.606400
C4851	C485	0.775780	0.884040	0.580160
H2211	H221	0.778200	0.874500	0.604300
C4861	C486	0.776320	0.952260	0.546700
C4871	C487	0.749880	0.734080	0.584400
C4881	C488	0.738490	0.719830	0.607300
C4891	C489	0.723940	0.702710	0.633890
C4901	C490	0.696530	0.708170	0.644200
H2221	H222	0.687100	0.722700	0.633000
C4911	C491	0.683040	0.692200	0.671100
H2231	H223	0.664500	0.695900	0.678000
C4921	C492	0.696960	0.670760	0.687640
C4931	C493	0.724380	0.665300	0.677300
H2241	H224	0.733800	0.650800	0.688500
C4941	C494	0.737870	0.681270	0.650500
H2251	H225	0.756400	0.677600	0.643500
C4951	C495	0.682800	0.654480	0.716600
C4961	C496	0.334620	0.506270	0.045400
C4971	C497	0.364070	0.511840	0.043200
C4981	C498	0.375590	0.520530	0.007660
H2261	H226	0.363900	0.523100	0.984200
C4991	C499	0.404330	0.525430	0.006890
H2271	H227	0.412100	0.531300	0.982900
C5001	C500	0.421560	0.521650	0.041600
C5011	C501	0.410040	0.512960	0.077150
H2281	H228	0.421700	0.510400	0.100600
C5021	C502	0.381300	0.508060	0.077920
H2291	H229	0.373500	0.502200	0.101900
C5031	C503	0.452020	0.523510	0.038700
C5041	C504	0.476060	0.524400	0.038700
C5051	C505	0.507340	0.523290	0.040000
C5061	C506	0.523310	0.537250	0.013340
H2301	H230	0.514400	0.548100	0.993900
C5071	C507	0.552520	0.535120	0.015470
C5081	C508	0.565750	0.519040	0.044250
H2311	H231	0.585500	0.517600	0.045700
C5091	C509	0.549780	0.505080	0.070910
C5101	C510	0.520570	0.507200	0.068780
H2321	H232	0.509800	0.497800	0.086800
C5111	C511	0.567540	0.548280	0.986100
C5121	C512	0.580940	0.558360	0.961400
C5131	C513	0.596870	0.571630	0.929520
C5141	C514	0.585300	0.593170	0.909830
H2331	H233	0.567900	0.599800	0.917500
C5151	C515	0.599460	0.604910	0.878800
H2341	H234	0.591600	0.619500	0.865500
C5161	C516	0.625190	0.595110	0.867470
C5171	C517	0.636750	0.573570	0.887170
H2351	H235	0.654100	0.566900	0.879500
C5181	C518	0.622590	0.561830	0.918190
H2361	H236	0.630400	0.547300	0.931500
C5191	C519	0.640200	0.606680	0.833460
C5201	C520	0.564290	0.487250	0.098400
C5211	C521	0.575750	0.471450	0.120300
C5221	C522	0.591250	0.453860	0.145980
C5231	C523	0.619360	0.457930	0.157870
H2371	H237	0.629000	0.472400	0.148200
C5241	C524	0.633300	0.440600	0.184020
H2381	H238	0.652300	0.443400	0.192100
C5251	C525	0.619110	0.419190	0.198280
C5261	C526	0.590990	0.415120	0.186390
H2391	H239	0.581400	0.400600	0.196000
C5271	C527	0.577060	0.432450	0.160240
H2401	H240	0.558000	0.429700	0.152200
C5281	C528	0.636500	0.402180	0.223400
Cu251	Cu25	0.859920	0.853790	0.227910
Cu261	Cu26	0.817880	0.886850	0.223430
Cu271	Cu27	0.611640	0.876370	0.708550
Cu281	Cu28	0.567860	0.845310	0.704320
Cu291	Cu29	0.216120	0.003070	0.914850
Cu301	Cu30	0.221710	0.001190	0.994550
O971	O97	0.833330	0.832940	0.193180
O981	O98	0.800680	0.863640	0.183460
O991	O99	0.877470	0.119220	0.762770
O1001	O100	0.839180	0.093340	0.762260
O1011	O101	0.841980	0.839020	0.273870
O1021	O102	0.804040	0.863640	0.265370
O1031	O103	0.872590	0.871470	0.181510
O1041	O104	0.839570	0.903020	0.181060
O1051	O105	0.622880	0.855680	0.756190
O1061	O106	0.586340	0.827360	0.750200
O1071	O107	0.593990	0.108000	0.159840
O1081	O108	0.555170	0.132040	0.159760
O1091	O109	0.588160	0.897280	0.741490
O1101	O110	0.551710	0.870190	0.741860
O1111	O111	0.628390	0.850960	0.674710
O1121	O112	0.591460	0.825240	0.666830
O1131	O113	0.255820	0.006610	0.916160
O1141	O114	0.261300	0.008020	0.984220
O1151	O115	0.176200	0.998480	0.922280
O1161	O116	0.180860	0.993410	0.988880
O1171	O117	0.711280	0.540750	0.925290
O1181	O118	0.713850	0.537870	0.991360
O1191	O119	0.720390	0.534770	0.420130
O1201	O120	0.728530	0.535370	0.486950
C5291	C529	0.810710	0.840010	0.177100
C5301	C530	0.792390	0.823420	0.153420
C5311	C531	0.799590	0.797490	0.150340
H2411	H241	0.815600	0.791100	0.165000
C5321	C532	0.783190	0.781060	0.125660
H2421	H242	0.788100	0.763500	0.123600
C5331	C533	0.759580	0.790580	0.104040
C5341	C534	0.752380	0.816510	0.107110
H2431	H243	0.736400	0.822900	0.092500
C5351	C535	0.768780	0.832940	0.131800
H2441	H244	0.763900	0.850500	0.133900
C5361	C536	0.742900	0.773830	0.074800
C5371	C537	0.730270	0.761780	0.049600
C5381	C538	0.714120	0.748930	0.019490
C5391	C539	0.698750	0.763590	0.990910
H2451	H245	0.699200	0.781700	0.992400
C5401	C540	0.682690	0.751440	0.960160
C5411	C541	0.682010	0.724620	0.957990
H2461	H246	0.671100	0.716400	0.937200
C5421	C542	0.697380	0.709960	0.986570
C5431	C543	0.713440	0.722110	0.017320
H2471	H247	0.723800	0.712200	0.036600
C5441	C544	0.669400	0.766010	0.928100
C5451	C545	0.657700	0.778700	0.898200
C5461	C546	0.644440	0.793200	0.867040
C5471	C547	0.656560	0.816550	0.856500
H2481	H248	0.672400	0.822800	0.871500
C5481	C548	0.645190	0.830630	0.823700
H2491	H249	0.653400	0.846400	0.816600
C5491	C549	0.621700	0.821360	0.801570
C5501	C550	0.609580	0.798010	0.812100
H2501	H250	0.593700	0.791700	0.797200
C5511	C551	0.620940	0.783930	0.844900
H2511	H251	0.612700	0.768100	0.852000
C5521	C552	0.610400	0.835580	0.766500
C5531	C553	0.698650	0.682310	0.982300
C5541	C554	0.700010	0.658800	0.975900
C5551	C555	0.701360	0.632300	0.971700
C5561	C556	0.707690	0.617170	0.005730
H2521	H252	0.709800	0.624900	0.031500
C5571	C557	0.710840	0.590600	0.001680
H2531	H253	0.715100	0.580400	0.024700
C5581	C558	0.707660	0.579170	0.963580
C5591	C559	0.701330	0.594310	0.929540
H2541	H254	0.699200	0.586600	0.903800
C5601	C560	0.698180	0.620880	0.933590
H2551	H255	0.693900	0.631100	0.910600
C5611	C561	0.711170	0.551610	0.959000
C5621	C562	0.567000	0.891560	0.756940
C5631	C563	0.549550	0.908140	0.781420
C5641	C564	0.564110	0.929890	0.795530
H2561	H256	0.582600	0.932900	0.787700
C5651	C565	0.551330	0.947170	0.821190
H2571	H257	0.561200	0.961900	0.830700
C5661	C566	0.523980	0.942690	0.832740
C5671	C567	0.509420	0.920930	0.818630
H2581	H258	0.490900	0.917900	0.826400
C5681	C568	0.522210	0.903650	0.792970
H2591	H259	0.512400	0.888900	0.783400
C5691	C569	0.511320	0.959800	0.857800
C5701	C570	0.500830	0.975050	0.882500
C5711	C571	0.488780	0.993610	0.910220
C5721	C572	0.459540	0.994370	0.910680
H2601	H260	0.448600	0.983800	0.892900
C5731	C573	0.446480	0.010710	0.937470
C5741	C574	0.462650	0.026310	0.963800
H2611	H261	0.453800	0.037400	0.981900
C5751	C575	0.491890	0.025550	0.963340
C5761	C576	0.504960	0.009210	0.936550
H2621	H262	0.524700	0.008700	0.936200
C5771	C577	0.415900	0.011650	0.939100
C5781	C578	0.390300	0.011760	0.940100
C5791	C579	0.360440	0.012420	0.941500
C5801	C580	0.342780	0.010620	0.906740
H2631	H263	0.350500	0.010100	0.881000
C5811	C581	0.313740	0.009610	0.910100
H2641	H264	0.301800	0.008400	0.886600
C5821	C582	0.302340	0.010410	0.948100
C5831	C583	0.320000	0.012210	0.982850
H2651	H265	0.312300	0.012800	0.008600
C5841	C584	0.349050	0.013220	0.979500
H2661	H266	0.361000	0.014400	0.003000
C5851	C585	0.271410	0.008450	0.948100
C5861	C586	0.508470	0.040130	0.990800
C5871	C587	0.519910	0.054070	0.013900
C5881	C588	0.534320	0.070060	0.046630
C5891	C589	0.561990	0.065890	0.060700
H2671	H267	0.572900	0.053200	0.048600
C5901	C590	0.573480	0.080560	0.092700
H2681	H268	0.592200	0.077700	0.102200
C5911	C591	0.557300	0.099400	0.110600
C5921	C592	0.529630	0.103570	0.096530
H2691	H269	0.518700	0.116300	0.108600
C5931	C593	0.518140	0.088900	0.064500
H2701	H270	0.499400	0.091700	0.055000
C5941	C594	0.569870	0.113650	0.144700
C5951	C595	0.617600	0.831960	0.660200
C5961	C596	0.631670	0.813210	0.633400
C5971	C597	0.618640	0.791400	0.616600
H2711	H271	0.600200	0.787100	0.623300
C5981	C598	0.632890	0.775920	0.589900
H2721	H272	0.624100	0.761200	0.578500
C5991	C599	0.660170	0.782260	0.579940
C6001	C600	0.673190	0.804080	0.596800
H2731	H273	0.691600	0.808400	0.590000
C6011	C601	0.658940	0.819550	0.623500
H2741	H274	0.667700	0.834300	0.634900
C6021	C602	0.676790	0.767510	0.553400
C6031	C603	0.688950	0.756580	0.528500
C6041	C604	0.705660	0.744480	0.497590
C6051	C605	0.707060	0.717750	0.493980
H2751	H275	0.697500	0.707200	0.511900
C6061	C606	0.722620	0.706700	0.463810
C6071	C607	0.736790	0.722370	0.437250
H2761	H276	0.747300	0.714900	0.416800
C6081	C608	0.735390	0.749100	0.440860
C6091	C609	0.719820	0.760150	0.471030
H2771	H277	0.718900	0.778200	0.473500
C6101	C610	0.725040	0.680750	0.460600
C6111	C611	0.726810	0.655640	0.457900
C6121	C612	0.728070	0.628670	0.456800
C6131	C613	0.731600	0.614540	0.492550
H2781	H278	0.734200	0.623100	0.517600
C6141	C614	0.731290	0.587690	0.491300
H2791	H279	0.733700	0.578100	0.515500
C6151	C615	0.727440	0.574980	0.454300
C6161	C616	0.723910	0.589110	0.418580
H2801	H280	0.721300	0.580500	0.393600
C6171	C617	0.724220	0.615960	0.419840
H2811	H281	0.721800	0.625500	0.395700
C6181	C618	0.723680	0.547740	0.453300
C6191	C619	0.750120	0.765920	0.415600
C6201	C620	0.761510	0.780170	0.392700
C6211	C621	0.776060	0.797290	0.366110
C6221	C622	0.803470	0.791830	0.355800
H2821	H282	0.812900	0.777300	0.367000
C6231	C623	0.816960	0.807800	0.328900
H2831	H283	0.835500	0.804100	0.322000
C6241	C624	0.803040	0.829240	0.312360
C6251	C625	0.775620	0.834700	0.322700
H2841	H284	0.766200	0.849200	0.311500
C6261	C626	0.762130	0.818730	0.349500
H2851	H285	0.743600	0.822400	0.356500
C6271	C627	0.817200	0.845520	0.283400
C6281	C628	0.165380	0.993730	0.954600
C6291	C629	0.135930	0.988160	0.956800
C6301	C630	0.124410	0.979470	0.992340
H2861	H286	0.136100	0.976900	0.015800
C6311	C631	0.095670	0.974570	0.993110
H2871	H287	0.087900	0.968700	0.017100
C6321	C632	0.078440	0.978350	0.958400
C6331	C633	0.089960	0.987040	0.922850
H2881	H288	0.078300	0.989600	0.899400
C6341	C634	0.118700	0.991940	0.922080
H2891	H289	0.126500	0.997800	0.898100
C6351	C635	0.047980	0.976490	0.961300
C6361	C636	0.023940	0.975600	0.961300
C6371	C637	0.992660	0.976710	0.960000
C6381	C638	0.976690	0.962750	0.986660
H2901	H290	0.985600	0.951900	0.006100
C6391	C639	0.947480	0.964880	0.984530
C6401	C640	0.934250	0.980960	0.955750
H2911	H291	0.914500	0.982400	0.954300
C6411	C641	0.950220	0.994920	0.929090
C6421	C642	0.979430	0.992800	0.931220
H2921	H292	0.990200	0.002200	0.913200
C6431	C643	0.932460	0.951720	0.013900
C6441	C644	0.919060	0.941640	0.038600
C6451	C645	0.903130	0.928370	0.070480
C6461	C646	0.914700	0.906830	0.090170
H2931	H293	0.932100	0.900200	0.082500
C6471	C647	0.900540	0.895090	0.121200
H2941	H294	0.908400	0.880500	0.134500
C6481	C648	0.874810	0.904890	0.132530
C6491	C649	0.863250	0.926430	0.112830
H2951	H295	0.845900	0.933100	0.120500
C6501	C650	0.877410	0.938170	0.081810
H2961	H296	0.869600	0.952700	0.068500
C6511	C651	0.859800	0.893320	0.166540
C6521	C652	0.935710	0.012750	0.901600
C6531	C653	0.924250	0.028550	0.879700
C6541	C654	0.908750	0.046140	0.854020
C6551	C655	0.880640	0.042070	0.842130
H2971	H297	0.871000	0.027600	0.851800
C6561	C656	0.866700	0.059400	0.815980
H2981	H298	0.847700	0.056600	0.807900
C6571	C657	0.880890	0.080810	0.801720
C6581	C658	0.909010	0.084880	0.813610
H2991	H299	0.918600	0.099400	0.804000
C6591	C659	0.922940	0.067550	0.839760
H3001	H300	0.942000	0.070300	0.847800
C6601	C660	0.863500	0.097820	0.776600
Cu311	Cu31	0.359920	0.353790	0.227910
Cu321	Cu32	0.317880	0.386850	0.223430
Cu331	Cu33	0.111640	0.376370	0.708550
Cu341	Cu34	0.067860	0.345310	0.704320
Cu351	Cu35	0.716120	0.503070	0.914850
Cu361	Cu36	0.721710	0.501190	0.994550
O1211	O121	0.333330	0.332940	0.193180
O1221	O122	0.300680	0.363640	0.183460
O1231	O123	0.377470	0.619220	0.762770
O1241	O124	0.339180	0.593340	0.762260
O1251	O125	0.341980	0.339020	0.273870
O1261	O126	0.304040	0.363640	0.265370
O1271	O127	0.372590	0.371470	0.181510
O1281	O128	0.339570	0.403020	0.181060
O1291	O129	0.122880	0.355680	0.756190
O1301	O130	0.086340	0.327360	0.750200
O1311	O131	0.093990	0.608000	0.159840
O1321	O132	0.055170	0.632040	0.159760
O1331	O133	0.088160	0.397280	0.741490
O1341	O134	0.051710	0.370190	0.741860
O1351	O135	0.128390	0.350960	0.674710
O1361	O136	0.091460	0.325240	0.666830
O1371	O137	0.755820	0.506610	0.916160
O1381	O138	0.761300	0.508020	0.984220
O1391	O139	0.676200	0.498480	0.922280
O1401	O140	0.680860	0.493410	0.988880
O1411	O141	0.211280	0.040750	0.925290
O1421	O142	0.213850	0.037870	0.991360
O1431	O143	0.220390	0.034770	0.420130
O1441	O144	0.228530	0.035370	0.486950
C6611	C661	0.310710	0.340010	0.177100
C6621	C662	0.292390	0.323420	0.153420
C6631	C663	0.299590	0.297490	0.150340
H3011	H301	0.315600	0.291100	0.165000
C6641	C664	0.283190	0.281060	0.125660
H3021	H302	0.288100	0.263500	0.123600
C6651	C665	0.259580	0.290580	0.104040
C6661	C666	0.252380	0.316510	0.107110
H3031	H303	0.236400	0.322900	0.092500
C6671	C667	0.268780	0.332940	0.131800
H3041	H304	0.263900	0.350500	0.133900
C6681	C668	0.242900	0.273830	0.074800
C6691	C669	0.230270	0.261780	0.049600
C6701	C670	0.214120	0.248930	0.019490
C6711	C671	0.198750	0.263590	0.990910
H3051	H305	0.199200	0.281700	0.992400
C6721	C672	0.182690	0.251440	0.960160
C6731	C673	0.182010	0.224620	0.957990
H3061	H306	0.171100	0.216400	0.937200
C6741	C674	0.197380	0.209960	0.986570
C6751	C675	0.213440	0.222110	0.017320
H3071	H307	0.223800	0.212200	0.036600
C6761	C676	0.169400	0.266010	0.928100
C6771	C677	0.157700	0.278700	0.898200
C6781	C678	0.144440	0.293200	0.867040
C6791	C679	0.156560	0.316550	0.856500
H3081	H308	0.172400	0.322800	0.871500
C6801	C680	0.145190	0.330630	0.823700
H3091	H309	0.153400	0.346400	0.816600
C6811	C681	0.121700	0.321360	0.801570
C6821	C682	0.109580	0.298010	0.812100
H3101	H310	0.093700	0.291700	0.797200
C6831	C683	0.120940	0.283930	0.844900
H3111	H311	0.112700	0.268100	0.852000
C6841	C684	0.110400	0.335580	0.766500
C6851	C685	0.198650	0.182310	0.982300
C6861	C686	0.200010	0.158800	0.975900
C6871	C687	0.201360	0.132300	0.971700
C6881	C688	0.207690	0.117170	0.005730
H3121	H312	0.209800	0.124900	0.031500
C6891	C689	0.210840	0.090600	0.001680
H3131	H313	0.215100	0.080400	0.024700
C6901	C690	0.207660	0.079170	0.963580
C6911	C691	0.201330	0.094310	0.929540
H3141	H314	0.199200	0.086600	0.903800
C6921	C692	0.198180	0.120880	0.933590
H3151	H315	0.193900	0.131100	0.910600
C6931	C693	0.211170	0.051610	0.959000
C6941	C694	0.067000	0.391560	0.756940
C6951	C695	0.049550	0.408140	0.781420
C6961	C696	0.064110	0.429890	0.795530
H3161	H316	0.082600	0.432900	0.787700
C6971	C697	0.051330	0.447170	0.821190
H3171	H317	0.061200	0.461900	0.830700
C6981	C698	0.023980	0.442690	0.832740
C6991	C699	0.009420	0.420930	0.818630
H3181	H318	0.990900	0.417900	0.826400
C7001	C700	0.022210	0.403650	0.792970
H3191	H319	0.012400	0.388900	0.783400
C7011	C701	0.011320	0.459800	0.857800
C7021	C702	0.000830	0.475050	0.882500
C7031	C703	0.988780	0.493610	0.910220
C7041	C704	0.959540	0.494370	0.910680
H3201	H320	0.948600	0.483800	0.892900
C7051	C705	0.946480	0.510710	0.937470
C7061	C706	0.962650	0.526310	0.963800
H3211	H321	0.953800	0.537400	0.981900
C7071	C707	0.991890	0.525550	0.963340
C7081	C708	0.004960	0.509210	0.936550
H3221	H322	0.024700	0.508700	0.936200
C7091	C709	0.915900	0.511650	0.939100
C7101	C710	0.890300	0.511760	0.940100
C7111	C711	0.860440	0.512420	0.941500
C7121	C712	0.842780	0.510620	0.906740
H3231	H323	0.850500	0.510100	0.881000
C7131	C713	0.813740	0.509610	0.910100
H3241	H324	0.801800	0.508400	0.886600
C7141	C714	0.802340	0.510410	0.948100
C7151	C715	0.820000	0.512210	0.982850
H3251	H325	0.812300	0.512800	0.008600
C7161	C716	0.849050	0.513220	0.979500
H3261	H326	0.861000	0.514400	0.003000
C7171	C717	0.771410	0.508450	0.948100
C7181	C718	0.008470	0.540130	0.990800
C7191	C719	0.019910	0.554070	0.013900
C7201	C720	0.034320	0.570060	0.046630
C7211	C721	0.061990	0.565890	0.060700
H3271	H327	0.072900	0.553200	0.048600
C7221	C722	0.073480	0.580560	0.092700
H3281	H328	0.092200	0.577700	0.102200
C7231	C723	0.057300	0.599400	0.110600
C7241	C724	0.029630	0.603570	0.096530
H3291	H329	0.018700	0.616300	0.108600
C7251	C725	0.018140	0.588900	0.064500
H3301	H330	0.999400	0.591700	0.055000
C7261	C726	0.069870	0.613650	0.144700
C7271	C727	0.117600	0.331960	0.660200
C7281	C728	0.131670	0.313210	0.633400
C7291	C729	0.118640	0.291400	0.616600
H3311	H331	0.100200	0.287100	0.623300
C7301	C730	0.132890	0.275920	0.589900
H3321	H332	0.124100	0.261200	0.578500
C7311	C731	0.160170	0.282260	0.579940
C7321	C732	0.173190	0.304080	0.596800
H3331	H333	0.191600	0.308400	0.590000
C7331	C733	0.158940	0.319550	0.623500
H3341	H334	0.167700	0.334300	0.634900
C7341	C734	0.176790	0.267510	0.553400
C7351	C735	0.188950	0.256580	0.528500
C7361	C736	0.205660	0.244480	0.497590
C7371	C737	0.207060	0.217750	0.493980
H3351	H335	0.197500	0.207200	0.511900
C7381	C738	0.222620	0.206700	0.463810
C7391	C739	0.236790	0.222370	0.437250
H3361	H336	0.247300	0.214900	0.416800
C7401	C740	0.235390	0.249100	0.440860
C7411	C741	0.219820	0.260150	0.471030
H3371	H337	0.218900	0.278200	0.473500
C7421	C742	0.225040	0.180750	0.460600
C7431	C743	0.226810	0.155640	0.457900
C7441	C744	0.228070	0.128670	0.456800
C7451	C745	0.231600	0.114540	0.492550
H3381	H338	0.234200	0.123100	0.517600
C7461	C746	0.231290	0.087690	0.491300
H3391	H339	0.233700	0.078100	0.515500
C7471	C747	0.227440	0.074980	0.454300
C7481	C748	0.223910	0.089110	0.418580
H3401	H340	0.221300	0.080500	0.393600
C7491	C749	0.224220	0.115960	0.419840
H3411	H341	0.221800	0.125500	0.395700
C7501	C750	0.223680	0.047740	0.453300
C7511	C751	0.250120	0.265920	0.415600
C7521	C752	0.261510	0.280170	0.392700
C7531	C753	0.276060	0.297290	0.366110
C7541	C754	0.303470	0.291830	0.355800
H3421	H342	0.312900	0.277300	0.367000
C7551	C755	0.316960	0.307800	0.328900
H3431	H343	0.335500	0.304100	0.322000
C7561	C756	0.303040	0.329240	0.312360
C7571	C757	0.275620	0.334700	0.322700
H3441	H344	0.266200	0.349200	0.311500
C7581	C758	0.262130	0.318730	0.349500
H3451	H345	0.243600	0.322400	0.356500
C7591	C759	0.317200	0.345520	0.283400
C7601	C760	0.665380	0.493730	0.954600
C7611	C761	0.635930	0.488160	0.956800
C7621	C762	0.624410	0.479470	0.992340
H3461	H346	0.636100	0.476900	0.015800
C7631	C763	0.595670	0.474570	0.993110
H3471	H347	0.587900	0.468700	0.017100
C7641	C764	0.578440	0.478350	0.958400
C7651	C765	0.589960	0.487040	0.922850
H3481	H348	0.578300	0.489600	0.899400
C7661	C766	0.618700	0.491940	0.922080
H3491	H349	0.626500	0.497800	0.898100
C7671	C767	0.547980	0.476490	0.961300
C7681	C768	0.523940	0.475600	0.961300
C7691	C769	0.492660	0.476710	0.960000
C7701	C770	0.476690	0.462750	0.986660
H3501	H350	0.485600	0.451900	0.006100
C7711	C771	0.447480	0.464880	0.984530
C7721	C772	0.434250	0.480960	0.955750
H3511	H351	0.414500	0.482400	0.954300
C7731	C773	0.450220	0.494920	0.929090
C7741	C774	0.479430	0.492800	0.931220
H3521	H352	0.490200	0.502200	0.913200
C7751	C775	0.432460	0.451720	0.013900
C7761	C776	0.419060	0.441640	0.038600
C7771	C777	0.403130	0.428370	0.070480
C7781	C778	0.414700	0.406830	0.090170
H3531	H353	0.432100	0.400200	0.082500
C7791	C779	0.400540	0.395090	0.121200
H3541	H354	0.408400	0.380500	0.134500
C7801	C780	0.374810	0.404890	0.132530
C7811	C781	0.363250	0.426430	0.112830
H3551	H355	0.345900	0.433100	0.120500
C7821	C782	0.377410	0.438170	0.081810
H3561	H356	0.369600	0.452700	0.068500
C7831	C783	0.359800	0.393320	0.166540
C7841	C784	0.435710	0.512750	0.901600
C7851	C785	0.424250	0.528550	0.879700
C7861	C786	0.408750	0.546140	0.854020
C7871	C787	0.380640	0.542070	0.842130
H3571	H357	0.371000	0.527600	0.851800
C7881	C788	0.366700	0.559400	0.815980
H3581	H358	0.347700	0.556600	0.807900
C7891	C789	0.380890	0.580810	0.801720
C7901	C790	0.409010	0.584880	0.813610
H3591	H359	0.418600	0.599400	0.804000
C7911	C791	0.422940	0.567550	0.839760
H3601	H360	0.442000	0.570300	0.847800
C7921	C792	0.363500	0.597820	0.776600
Cu371	Cu37	0.859920	0.146210	0.727910
Cu381	Cu38	0.817880	0.113150	0.723430
Cu391	Cu39	0.611640	0.123630	0.208550
Cu401	Cu40	0.567860	0.154690	0.204320
Cu411	Cu41	0.216120	0.996930	0.414850
Cu421	Cu42	0.221710	0.998810	0.494550
O1451	O145	0.833330	0.167060	0.693180
O1461	O146	0.800680	0.136360	0.683460
O1471	O147	0.877470	0.880780	0.262770
O1481	O148	0.839180	0.906660	0.262260
O1491	O149	0.841980	0.160980	0.773870
O1501	O150	0.804040	0.136360	0.765370
O1511	O151	0.872590	0.128530	0.681510
O1521	O152	0.839570	0.096980	0.681060
O1531	O153	0.622880	0.144320	0.256190
O1541	O154	0.586340	0.172640	0.250200
O1551	O155	0.593990	0.892000	0.659840
O1561	O156	0.555170	0.867960	0.659760
O1571	O157	0.588160	0.102720	0.241490
O1581	O158	0.551710	0.129810	0.241860
O1591	O159	0.628390	0.149040	0.174710
O1601	O160	0.591460	0.174760	0.166830
O1611	O161	0.255820	0.993390	0.416160
O1621	O162	0.261300	0.991980	0.484220
O1631	O163	0.176200	0.001520	0.422280
O1641	O164	0.180860	0.006590	0.488880
O1651	O165	0.711280	0.459250	0.425290
O1661	O166	0.713850	0.462130	0.491360
O1671	O167	0.720390	0.465230	0.920130
O1681	O168	0.728530	0.464630	0.986950
C7931	C793	0.810710	0.159990	0.677100
C7941	C794	0.792390	0.176580	0.653420
C7951	C795	0.799590	0.202510	0.650340
H3611	H361	0.815600	0.208900	0.665000
C7961	C796	0.783190	0.218940	0.625660
H3621	H362	0.788100	0.236500	0.623600
C7971	C797	0.759580	0.209420	0.604040
C7981	C798	0.752380	0.183490	0.607110
H3631	H363	0.736400	0.177100	0.592500
C7991	C799	0.768780	0.167060	0.631800
H3641	H364	0.763900	0.149500	0.633900
C8001	C800	0.742900	0.226170	0.574800
C8011	C801	0.730270	0.238220	0.549600
C8021	C802	0.714120	0.251070	0.519490
C8031	C803	0.698750	0.236410	0.490910
H3651	H365	0.699200	0.218300	0.492400
C8041	C804	0.682690	0.248560	0.460160
C8051	C805	0.682010	0.275380	0.457990
H3661	H366	0.671100	0.283600	0.437200
C8061	C806	0.697380	0.290040	0.486570
C8071	C807	0.713440	0.277890	0.517320
H3671	H367	0.723800	0.287800	0.536600
C8081	C808	0.669400	0.233990	0.428100
C8091	C809	0.657700	0.221300	0.398200
C8101	C810	0.644440	0.206800	0.367040
C8111	C811	0.656560	0.183450	0.356500
H3681	H368	0.672400	0.177200	0.371500
C8121	C812	0.645190	0.169370	0.323700
H3691	H369	0.653400	0.153600	0.316600
C8131	C813	0.621700	0.178640	0.301570
C8141	C814	0.609580	0.201990	0.312100
H3701	H370	0.593700	0.208300	0.297200
C8151	C815	0.620940	0.216070	0.344900
H3711	H371	0.612700	0.231900	0.352000
C8161	C816	0.610400	0.164420	0.266500
C8171	C817	0.698650	0.317690	0.482300
C8181	C818	0.700010	0.341200	0.475900
C8191	C819	0.701360	0.367700	0.471700
C8201	C820	0.707690	0.382830	0.505730
H3721	H372	0.709800	0.375100	0.531500
C8211	C821	0.710840	0.409400	0.501680
H3731	H373	0.715100	0.419600	0.524700
C8221	C822	0.707660	0.420830	0.463580
C8231	C823	0.701330	0.405690	0.429540
H3741	H374	0.699200	0.413400	0.403800
C8241	C824	0.698180	0.379120	0.433590
H3751	H375	0.693900	0.368900	0.410600
C8251	C825	0.711170	0.448390	0.459000
C8261	C826	0.567000	0.108440	0.256940
C8271	C827	0.549550	0.091860	0.281420
C8281	C828	0.564110	0.070110	0.295530
H3761	H376	0.582600	0.067100	0.287700
C8291	C829	0.551330	0.052830	0.321190
H3771	H377	0.561200	0.038100	0.330700
C8301	C830	0.523980	0.057310	0.332740
C8311	C831	0.509420	0.079070	0.318630
H3781	H378	0.490900	0.082100	0.326400
C8321	C832	0.522210	0.096350	0.292970
H3791	H379	0.512400	0.111100	0.283400
C8331	C833	0.511320	0.040200	0.357800
C8341	C834	0.500830	0.024950	0.382500
C8351	C835	0.488780	0.006390	0.410220
C8361	C836	0.459540	0.005630	0.410680
H3801	H380	0.448600	0.016200	0.392900
C8371	C837	0.446480	0.989290	0.437470
C8381	C838	0.462650	0.973690	0.463800
H3811	H381	0.453800	0.962600	0.481900
C8391	C839	0.491890	0.974450	0.463340
C8401	C840	0.504960	0.990790	0.436550
H3821	H382	0.524700	0.991300	0.436200
C8411	C841	0.415900	0.988350	0.439100
C8421	C842	0.390300	0.988240	0.440100
C8431	C843	0.360440	0.987580	0.441500
C8441	C844	0.342780	0.989380	0.406740
H3831	H383	0.350500	0.989900	0.381000
C8451	C845	0.313740	0.990390	0.410100
H3841	H384	0.301800	0.991600	0.386600
C8461	C846	0.302340	0.989590	0.448100
C8471	C847	0.320000	0.987790	0.482850
H3851	H385	0.312300	0.987200	0.508600
C8481	C848	0.349050	0.986780	0.479500
H3861	H386	0.361000	0.985600	0.503000
C8491	C849	0.271410	0.991550	0.448100
C8501	C850	0.508470	0.959870	0.490800
C8511	C851	0.519910	0.945930	0.513900
C8521	C852	0.534320	0.929940	0.546630
C8531	C853	0.561990	0.934110	0.560700
H3871	H387	0.572900	0.946800	0.548600
C8541	C854	0.573480	0.919440	0.592700
H3881	H388	0.592200	0.922300	0.602200
C8551	C855	0.557300	0.900600	0.610600
C8561	C856	0.529630	0.896430	0.596530
H3891	H389	0.518700	0.883700	0.608600
C8571	C857	0.518140	0.911100	0.564500
H3901	H390	0.499400	0.908300	0.555000
C8581	C858	0.569870	0.886350	0.644700
C8591	C859	0.617600	0.168040	0.160200
C8601	C860	0.631670	0.186790	0.133400
C8611	C861	0.618640	0.208600	0.116600
H3911	H391	0.600200	0.212900	0.123300
C8621	C862	0.632890	0.224080	0.089900
H3921	H392	0.624100	0.238800	0.078500
C8631	C863	0.660170	0.217740	0.079940
C8641	C864	0.673190	0.195920	0.096800
H3931	H393	0.691600	0.191600	0.090000
C8651	C865	0.658940	0.180450	0.123500
H3941	H394	0.667700	0.165700	0.134900
C8661	C866	0.676790	0.232490	0.053400
C8671	C867	0.688950	0.243420	0.028500
C8681	C868	0.705660	0.255520	0.997590
C8691	C869	0.707060	0.282250	0.993980
H3951	H395	0.697500	0.292800	0.011900
C8701	C870	0.722620	0.293300	0.963810
C8711	C871	0.736790	0.277630	0.937250
H3961	H396	0.747300	0.285100	0.916800
C8721	C872	0.735390	0.250900	0.940860
C8731	C873	0.719820	0.239850	0.971030
H3971	H397	0.718900	0.221800	0.973500
C8741	C874	0.725040	0.319250	0.960600
C8751	C875	0.726810	0.344360	0.957900
C8761	C876	0.728070	0.371330	0.956800
C8771	C877	0.731600	0.385460	0.992550
H3981	H398	0.734200	0.376900	0.017600
C8781	C878	0.731290	0.412310	0.991300
H3991	H399	0.733700	0.421900	0.015500
C8791	C879	0.727440	0.425020	0.954300
C8801	C880	0.723910	0.410890	0.918580
H4001	H400	0.721300	0.419500	0.893600
C8811	C881	0.724220	0.384040	0.919840
H4011	H401	0.721800	0.374500	0.895700
C8821	C882	0.723680	0.452260	0.953300
C8831	C883	0.750120	0.234080	0.915600
C8841	C884	0.761510	0.219830	0.892700
C8851	C885	0.776060	0.202710	0.866110
C8861	C886	0.803470	0.208170	0.855800
H4021	H402	0.812900	0.222700	0.867000
C8871	C887	0.816960	0.192200	0.828900
H4031	H403	0.835500	0.195900	0.822000
C8881	C888	0.803040	0.170760	0.812360
C8891	C889	0.775620	0.165300	0.822700
H4041	H404	0.766200	0.150800	0.811500
C8901	C890	0.762130	0.181270	0.849500
H4051	H405	0.743600	0.177600	0.856500
C8911	C891	0.817200	0.154480	0.783400
C8921	C892	0.165380	0.006270	0.454600
C8931	C893	0.135930	0.011840	0.456800
C8941	C894	0.124410	0.020530	0.492340
H4061	H406	0.136100	0.023100	0.515800
C8951	C895	0.095670	0.025430	0.493110
H4071	H407	0.087900	0.031300	0.517100
C8961	C896	0.078440	0.021650	0.458400
C8971	C897	0.089960	0.012960	0.422850
H4081	H408	0.078300	0.010400	0.399400
C8981	C898	0.118700	0.008060	0.422080
H4091	H409	0.126500	0.002200	0.398100
C8991	C899	0.047980	0.023510	0.461300
C9001	C900	0.023940	0.024400	0.461300
C9011	C901	0.992660	0.023290	0.460000
C9021	C902	0.976690	0.037250	0.486660
H4101	H410	0.985600	0.048100	0.506100
C9031	C903	0.947480	0.035120	0.484530
C9041	C904	0.934250	0.019040	0.455750
H4111	H411	0.914500	0.017600	0.454300
C9051	C905	0.950220	0.005080	0.429090
C9061	C906	0.979430	0.007200	0.431220
H4121	H412	0.990200	0.997800	0.413200
C9071	C907	0.932460	0.048280	0.513900
C9081	C908	0.919060	0.058360	0.538600
C9091	C909	0.903130	0.071630	0.570480
C9101	C910	0.914700	0.093170	0.590170
H4131	H413	0.932100	0.099800	0.582500
C9111	C911	0.900540	0.104910	0.621200
H4141	H414	0.908400	0.119500	0.634500
C9121	C912	0.874810	0.095110	0.632530
C9131	C913	0.863250	0.073570	0.612830
H4151	H415	0.845900	0.066900	0.620500
C9141	C914	0.877410	0.061830	0.581810
H4161	H416	0.869600	0.047300	0.568500
C9151	C915	0.859800	0.106680	0.666540
C9161	C916	0.935710	0.987250	0.401600
C9171	C917	0.924250	0.971450	0.379700
C9181	C918	0.908750	0.953860	0.354020
C9191	C919	0.880640	0.957930	0.342130
H4171	H417	0.871000	0.972400	0.351800
C9201	C920	0.866700	0.940600	0.315980
H4181	H418	0.847700	0.943400	0.307900
C9211	C921	0.880890	0.919190	0.301720
C9221	C922	0.909010	0.915120	0.313610
H4191	H419	0.918600	0.900600	0.304000
C9231	C923	0.922940	0.932450	0.339760
H4201	H420	0.942000	0.929700	0.347800
C9241	C924	0.863500	0.902180	0.276600
Cu431	Cu43	0.359920	0.646210	0.727910
Cu441	Cu44	0.317880	0.613150	0.723430
Cu451	Cu45	0.111640	0.623630	0.208550
Cu461	Cu46	0.067860	0.654690	0.204320
Cu471	Cu47	0.716120	0.496930	0.414850
Cu481	Cu48	0.721710	0.498810	0.494550
O1691	O169	0.333330	0.667060	0.693180
O1701	O170	0.300680	0.636360	0.683460
O1711	O171	0.377470	0.380780	0.262770
O1721	O172	0.339180	0.406660	0.262260
O1731	O173	0.341980	0.660980	0.773870
O1741	O174	0.304040	0.636360	0.765370
O1751	O175	0.372590	0.628530	0.681510
O1761	O176	0.339570	0.596980	0.681060
O1771	O177	0.122880	0.644320	0.256190
O1781	O178	0.086340	0.672640	0.250200
O1791	O179	0.093990	0.392000	0.659840
O1801	O180	0.055170	0.367960	0.659760
O1811	O181	0.088160	0.602720	0.241490
O1821	O182	0.051710	0.629810	0.241860
O1831	O183	0.128390	0.649040	0.174710
O1841	O184	0.091460	0.674760	0.166830
O1851	O185	0.755820	0.493390	0.416160
O1861	O186	0.761300	0.491980	0.484220
O1871	O187	0.676200	0.501520	0.422280
O1881	O188	0.680860	0.506590	0.488880
O1891	O189	0.211280	0.959250	0.425290
O1901	O190	0.213850	0.962130	0.491360
O1911	O191	0.220390	0.965230	0.920130
O1921	O192	0.228530	0.964630	0.986950
C9251	C925	0.310710	0.659990	0.677100
C9261	C926	0.292390	0.676580	0.653420
C9271	C927	0.299590	0.702510	0.650340
H4211	H421	0.315600	0.708900	0.665000
C9281	C928	0.283190	0.718940	0.625660
H4221	H422	0.288100	0.736500	0.623600
C9291	C929	0.259580	0.709420	0.604040
C9301	C930	0.252380	0.683490	0.607110
H4231	H423	0.236400	0.677100	0.592500
C9311	C931	0.268780	0.667060	0.631800
H4241	H424	0.263900	0.649500	0.633900
C9321	C932	0.242900	0.726170	0.574800
C9331	C933	0.230270	0.738220	0.549600
C9341	C934	0.214120	0.751070	0.519490
C9351	C935	0.198750	0.736410	0.490910
H4251	H425	0.199200	0.718300	0.492400
C9361	C936	0.182690	0.748560	0.460160
C9371	C937	0.182010	0.775380	0.457990
H4261	H426	0.171100	0.783600	0.437200
C9381	C938	0.197380	0.790040	0.486570
C9391	C939	0.213440	0.777890	0.517320
H4271	H427	0.223800	0.787800	0.536600
C9401	C940	0.169400	0.733990	0.428100
C9411	C941	0.157700	0.721300	0.398200
C9421	C942	0.144440	0.706800	0.367040
C9431	C943	0.156560	0.683450	0.356500
H4281	H428	0.172400	0.677200	0.371500
C9441	C944	0.145190	0.669370	0.323700
H4291	H429	0.153400	0.653600	0.316600
C9451	C945	0.121700	0.678640	0.301570
C9461	C946	0.109580	0.701990	0.312100
H4301	H430	0.093700	0.708300	0.297200
C9471	C947	0.120940	0.716070	0.344900
H4311	H431	0.112700	0.731900	0.352000
C9481	C948	0.110400	0.664420	0.266500
C9491	C949	0.198650	0.817690	0.482300
C9501	C950	0.200010	0.841200	0.475900
C9511	C951	0.201360	0.867700	0.471700
C9521	C952	0.207690	0.882830	0.505730
H4321	H432	0.209800	0.875100	0.531500
C9531	C953	0.210840	0.909400	0.501680
H4331	H433	0.215100	0.919600	0.524700
C9541	C954	0.207660	0.920830	0.463580
C9551	C955	0.201330	0.905690	0.429540
H4341	H434	0.199200	0.913400	0.403800
C9561	C956	0.198180	0.879120	0.433590
H4351	H435	0.193900	0.868900	0.410600
C9571	C957	0.211170	0.948390	0.459000
C9581	C958	0.067000	0.608440	0.256940
C9591	C959	0.049550	0.591860	0.281420
C9601	C960	0.064110	0.570110	0.295530
H4361	H436	0.082600	0.567100	0.287700
C9611	C961	0.051330	0.552830	0.321190
H4371	H437	0.061200	0.538100	0.330700
C9621	C962	0.023980	0.557310	0.332740
C9631	C963	0.009420	0.579070	0.318630
H4381	H438	0.990900	0.582100	0.326400
C9641	C964	0.022210	0.596350	0.292970
H4391	H439	0.012400	0.611100	0.283400
C9651	C965	0.011320	0.540200	0.357800
C9661	C966	0.000830	0.524950	0.382500
C9671	C967	0.988780	0.506390	0.410220
C9681	C968	0.959540	0.505630	0.410680
H4401	H440	0.948600	0.516200	0.392900
C9691	C969	0.946480	0.489290	0.437470
C9701	C970	0.962650	0.473690	0.463800
H4411	H441	0.953800	0.462600	0.481900
C9711	C971	0.991890	0.474450	0.463340
C9721	C972	0.004960	0.490790	0.436550
H4421	H442	0.024700	0.491300	0.436200
C9731	C973	0.915900	0.488350	0.439100
C9741	C974	0.890300	0.488240	0.440100
C9751	C975	0.860440	0.487580	0.441500
C9761	C976	0.842780	0.489380	0.406740
H4431	H443	0.850500	0.489900	0.381000
C9771	C977	0.813740	0.490390	0.410100
H4441	H444	0.801800	0.491600	0.386600
C9781	C978	0.802340	0.489590	0.448100
C9791	C979	0.820000	0.487790	0.482850
H4451	H445	0.812300	0.487200	0.508600
C9801	C980	0.849050	0.486780	0.479500
H4461	H446	0.861000	0.485600	0.503000
C9811	C981	0.771410	0.491550	0.448100
C9821	C982	0.008470	0.459870	0.490800
C9831	C983	0.019910	0.445930	0.513900
C9841	C984	0.034320	0.429940	0.546630
C9851	C985	0.061990	0.434110	0.560700
H4471	H447	0.072900	0.446800	0.548600
C9861	C986	0.073480	0.419440	0.592700
H4481	H448	0.092200	0.422300	0.602200
C9871	C987	0.057300	0.400600	0.610600
C9881	C988	0.029630	0.396430	0.596530
H4491	H449	0.018700	0.383700	0.608600
C9891	C989	0.018140	0.411100	0.564500
H4501	H450	0.999400	0.408300	0.555000
C9901	C990	0.069870	0.386350	0.644700
C9911	C991	0.117600	0.668040	0.160200
C9921	C992	0.131670	0.686790	0.133400
C9931	C993	0.118640	0.708600	0.116600
H4511	H451	0.100200	0.712900	0.123300
C9941	C994	0.132890	0.724080	0.089900
H4521	H452	0.124100	0.738800	0.078500
C9951	C995	0.160170	0.717740	0.079940
C9961	C996	0.173190	0.695920	0.096800
H4531	H453	0.191600	0.691600	0.090000
C9971	C997	0.158940	0.680450	0.123500
H4541	H454	0.167700	0.665700	0.134900
C9981	C998	0.176790	0.732490	0.053400
C9991	C999	0.188950	0.743420	0.028500
C10001	C1000	0.205660	0.755520	0.997590
C10011	C1001	0.207060	0.782250	0.993980
H4551	H455	0.197500	0.792800	0.011900
C10021	C1002	0.222620	0.793300	0.963810
C10031	C1003	0.236790	0.777630	0.937250
H4561	H456	0.247300	0.785100	0.916800
C10041	C1004	0.235390	0.750900	0.940860
C10051	C1005	0.219820	0.739850	0.971030
H4571	H457	0.218900	0.721800	0.973500
C10061	C1006	0.225040	0.819250	0.960600
C10071	C1007	0.226810	0.844360	0.957900
C10081	C1008	0.228070	0.871330	0.956800
C10091	C1009	0.231600	0.885460	0.992550
H4581	H458	0.234200	0.876900	0.017600
C10101	C1010	0.231290	0.912310	0.991300
H4591	H459	0.233700	0.921900	0.015500
C10111	C1011	0.227440	0.925020	0.954300
C10121	C1012	0.223910	0.910890	0.918580
H4601	H460	0.221300	0.919500	0.893600
C10131	C1013	0.224220	0.884040	0.919840
H4611	H461	0.221800	0.874500	0.895700
C10141	C1014	0.223680	0.952260	0.953300
C10151	C1015	0.250120	0.734080	0.915600
C10161	C1016	0.261510	0.719830	0.892700
C10171	C1017	0.276060	0.702710	0.866110
C10181	C1018	0.303470	0.708170	0.855800
H4621	H462	0.312900	0.722700	0.867000
C10191	C1019	0.316960	0.692200	0.828900
H4631	H463	0.335500	0.695900	0.822000
C10201	C1020	0.303040	0.670760	0.812360
C10211	C1021	0.275620	0.665300	0.822700
H4641	H464	0.266200	0.650800	0.811500
C10221	C1022	0.262130	0.681270	0.849500
H4651	H465	0.243600	0.677600	0.856500
C10231	C1023	0.317200	0.654480	0.783400
C10241	C1024	0.665380	0.506270	0.454600
C10251	C1025	0.635930	0.511840	0.456800
C10261	C1026	0.624410	0.520530	0.492340
H4661	H466	0.636100	0.523100	0.515800
C10271	C1027	0.595670	0.525430	0.493110
H4671	H467	0.587900	0.531300	0.517100
C10281	C1028	0.578440	0.521650	0.458400
C10291	C1029	0.589960	0.512960	0.422850
H4681	H468	0.578300	0.510400	0.399400
C10301	C1030	0.618700	0.508060	0.422080
H4691	H469	0.626500	0.502200	0.398100
C10311	C1031	0.547980	0.523510	0.461300
C10321	C1032	0.523940	0.524400	0.461300
C10331	C1033	0.492660	0.523290	0.460000
C10341	C1034	0.476690	0.537250	0.486660
H4701	H470	0.485600	0.548100	0.506100
C10351	C1035	0.447480	0.535120	0.484530
C10361	C1036	0.434250	0.519040	0.455750
H4711	H471	0.414500	0.517600	0.454300
C10371	C1037	0.450220	0.505080	0.429090
C10381	C1038	0.479430	0.507200	0.431220
H4721	H472	0.490200	0.497800	0.413200
C10391	C1039	0.432460	0.548280	0.513900
C10401	C1040	0.419060	0.558360	0.538600
C10411	C1041	0.403130	0.571630	0.570480
C10421	C1042	0.414700	0.593170	0.590170
H4731	H473	0.432100	0.599800	0.582500
C10431	C1043	0.400540	0.604910	0.621200
H4741	H474	0.408400	0.619500	0.634500
C10441	C1044	0.374810	0.595110	0.632530
C10451	C1045	0.363250	0.573570	0.612830
H4751	H475	0.345900	0.566900	0.620500
C10461	C1046	0.377410	0.561830	0.581810
H4761	H476	0.369600	0.547300	0.568500
C10471	C1047	0.359800	0.606680	0.666540
C10481	C1048	0.435710	0.487250	0.401600
C10491	C1049	0.424250	0.471450	0.379700
C10501	C1050	0.408750	0.453860	0.354020
C10511	C1051	0.380640	0.457930	0.342130
H4771	H477	0.371000	0.472400	0.351800
C10521	C1052	0.366700	0.440600	0.315980
H4781	H478	0.347700	0.443400	0.307900
C10531	C1053	0.380890	0.419190	0.301720
C10541	C1054	0.409010	0.415120	0.313610
H4791	H479	0.418600	0.400600	0.304000
C10551	C1055	0.422940	0.432450	0.339760
H4801	H480	0.442000	0.429700	0.347800
C10561	C1056	0.363500	0.402180	0.276600
