data_QIYDIN_clean_PM
_symmetry_space_group_name_H-M	'P1'
_cell_length_a	34.346000
_cell_length_b	34.346000
_cell_length_c	34.346000
_cell_angle_alpha	90.000000
_cell_angle_beta	90.000000
_cell_angle_gamma	90.000000
_symmetry_Int_Tables_number 1

loop_
_symmetry_equiv_pos_as_xyz
'x,y,z'

loop_
_atom_site_label
_atom_site_type_symbol
_atom_site_fract_x
_atom_site_fract_y
_atom_site_fract_z
Cu11	Cu1	0.500000	0.833630	0.000000
Cu21	Cu2	0.000000	0.500000	0.833630
Cu31	Cu3	0.000000	0.500000	0.166370
Cu41	Cu4	0.000000	0.500000	0.242830
Cu51	Cu5	0.757170	0.000000	0.500000
Cu61	Cu6	0.242830	0.000000	0.500000
Cu71	Cu7	0.000000	0.500000	0.757170
Cu81	Cu8	0.833630	0.000000	0.500000
Cu91	Cu9	0.500000	0.242830	0.000000
Cu101	Cu10	0.500000	0.757170	0.000000
Cu111	Cu11	0.500000	0.166370	0.000000
Cu121	Cu12	0.166370	0.000000	0.500000
H11	H1	0.265600	0.117600	0.649300
H21	H2	0.226300	0.261600	0.831700
H31	H3	0.350700	0.265600	0.882400
H41	H4	0.590600	0.147300	0.086300
H51	H5	0.261600	0.168300	0.773700
H61	H6	0.264300	0.923400	0.595200
H71	H7	0.127300	0.644700	0.851400
H81	H8	0.831700	0.226300	0.738400
H91	H9	0.404800	0.735700	0.076600
H101	H10	0.913700	0.590600	0.147300
H111	H11	0.076600	0.404800	0.735700
H121	H12	0.852700	0.086300	0.409400
H131	H13	0.261600	0.168300	0.226300
H141	H14	0.852700	0.913700	0.590600
H151	H15	0.409400	0.147300	0.086300
H161	H16	0.595200	0.264300	0.923400
H171	H17	0.117600	0.649300	0.265600
H181	H18	0.872700	0.644700	0.851400
H191	H19	0.773700	0.738400	0.831700
H201	H20	0.644700	0.148600	0.872700
H211	H21	0.595200	0.264300	0.076600
H221	H22	0.076600	0.595200	0.735700
H231	H23	0.831700	0.773700	0.738400
H241	H24	0.076600	0.404800	0.264300
H251	H25	0.738400	0.168300	0.773700
H261	H26	0.872700	0.355300	0.851400
H271	H27	0.355300	0.851400	0.872700
H281	H28	0.168300	0.773700	0.261600
H291	H29	0.147300	0.913700	0.590600
H301	H30	0.852700	0.086300	0.590600
H311	H31	0.644700	0.851400	0.127300
H321	H32	0.147300	0.086300	0.409400
H331	H33	0.738400	0.831700	0.226300
H341	H34	0.261600	0.831700	0.773700
H351	H35	0.409400	0.147300	0.913700
H361	H36	0.168300	0.226300	0.261600
H371	H37	0.923400	0.595200	0.735700
H381	H38	0.265600	0.882400	0.649300
H391	H39	0.226300	0.738400	0.168300
H401	H40	0.404800	0.264300	0.076600
H411	H41	0.355300	0.148600	0.872700
H421	H42	0.851400	0.127300	0.355300
H431	H43	0.350700	0.265600	0.117600
H441	H44	0.644700	0.851400	0.872700
H451	H45	0.851400	0.872700	0.644700
H461	H46	0.076600	0.595200	0.264300
H471	H47	0.882400	0.350700	0.265600
H481	H48	0.923400	0.404800	0.735700
H491	H49	0.649300	0.734400	0.882400
H501	H50	0.735700	0.076600	0.595200
H511	H51	0.734400	0.882400	0.649300
H521	H52	0.735700	0.923400	0.404800
H531	H53	0.923400	0.404800	0.264300
H541	H54	0.852700	0.913700	0.409400
H551	H55	0.590600	0.147300	0.913700
H561	H56	0.590600	0.852700	0.913700
H571	H57	0.127300	0.355300	0.851400
H581	H58	0.147300	0.913700	0.409400
H591	H59	0.086300	0.409400	0.852700
H601	H60	0.086300	0.409400	0.147300
H611	H61	0.264300	0.923400	0.404800
H621	H62	0.404800	0.264300	0.923400
H631	H63	0.595200	0.735700	0.076600
H641	H64	0.117600	0.350700	0.265600
H651	H65	0.264300	0.076600	0.404800
H661	H66	0.649300	0.265600	0.882400
H671	H67	0.773700	0.738400	0.168300
H681	H68	0.148600	0.872700	0.644700
H691	H69	0.734400	0.117600	0.649300
H701	H70	0.265600	0.117600	0.350700
H711	H71	0.595200	0.735700	0.923400
H721	H72	0.872700	0.355300	0.148600
H731	H73	0.644700	0.148600	0.127300
H741	H74	0.882400	0.649300	0.265600
H751	H75	0.649300	0.265600	0.117600
H761	H76	0.831700	0.773700	0.261600
H771	H77	0.882400	0.649300	0.734400
H781	H78	0.148600	0.127300	0.644700
H791	H79	0.350700	0.734400	0.882400
H801	H80	0.773700	0.261600	0.831700
H811	H81	0.882400	0.350700	0.734400
H821	H82	0.409400	0.852700	0.913700
H831	H83	0.086300	0.590600	0.852700
H841	H84	0.409400	0.852700	0.086300
H851	H85	0.923400	0.595200	0.264300
H861	H86	0.264300	0.076600	0.595200
H871	H87	0.168300	0.226300	0.738400
H881	H88	0.913700	0.409400	0.852700
H891	H89	0.913700	0.409400	0.147300
H901	H90	0.261600	0.831700	0.226300
H911	H91	0.355300	0.148600	0.127300
H921	H92	0.117600	0.350700	0.734400
H931	H93	0.590600	0.852700	0.086300
H941	H94	0.127300	0.644700	0.148600
H951	H95	0.735700	0.923400	0.595200
H961	H96	0.738400	0.168300	0.226300
H971	H97	0.735700	0.076600	0.404800
H981	H98	0.872700	0.644700	0.148600
H991	H99	0.147300	0.086300	0.590600
H1001	H100	0.851400	0.872700	0.355300
H1011	H101	0.851400	0.127300	0.644700
H1021	H102	0.226300	0.738400	0.831700
H1031	H103	0.086300	0.590600	0.147300
H1041	H104	0.355300	0.851400	0.127300
H1051	H105	0.127300	0.355300	0.148600
H1061	H106	0.265600	0.882400	0.350700
H1071	H107	0.148600	0.127300	0.355300
H1081	H108	0.117600	0.649300	0.734400
H1091	H109	0.738400	0.831700	0.773700
H1101	H110	0.734400	0.882400	0.350700
H1111	H111	0.773700	0.261600	0.168300
H1121	H112	0.404800	0.735700	0.923400
H1131	H113	0.734400	0.117600	0.350700
H1141	H114	0.649300	0.734400	0.117600
H1151	H115	0.226300	0.261600	0.168300
H1161	H116	0.831700	0.226300	0.261600
H1171	H117	0.148600	0.872700	0.355300
H1181	H118	0.350700	0.734400	0.117600
H1191	H119	0.913700	0.590600	0.852700
H1201	H120	0.168300	0.773700	0.738400
C11	C1	0.776000	0.754640	0.190200
C21	C2	0.448010	0.203870	0.050970
C31	C3	0.224000	0.245360	0.190200
C41	C4	0.747470	0.214660	0.805430
C51	C5	0.652180	0.207190	0.126380
C61	C6	0.171910	0.117050	0.365310
C71	C7	0.172380	0.716030	0.212180
C81	C8	0.828840	0.092610	0.397570
C91	C9	0.848150	0.310500	0.206440
C101	C10	0.888730	0.637430	0.241720
C111	C11	0.283970	0.787820	0.827620
C121	C12	0.077500	0.412320	0.794320
C131	C13	0.785340	0.805430	0.252530
C141	C14	0.347820	0.792810	0.126380
C151	C15	0.171160	0.092610	0.397570
C161	C16	0.796130	0.050970	0.551990
C171	C17	0.793560	0.848150	0.310500
C181	C18	0.111270	0.637430	0.758280
C191	C19	0.194570	0.747470	0.214660
C201	C20	0.203870	0.949030	0.448010
C211	C21	0.747470	0.785340	0.805430
C221	C22	0.805430	0.747470	0.214660
C231	C23	0.203870	0.050970	0.448010
C241	C24	0.212180	0.827620	0.716030
C251	C25	0.828090	0.117050	0.365310
C261	C26	0.397570	0.171160	0.092610
C271	C27	0.310500	0.206440	0.848150
C281	C28	0.394830	0.240960	0.086840
C291	C29	0.111270	0.637430	0.241720
C301	C30	0.873620	0.652180	0.792810
C311	C31	0.205680	0.077500	0.587680
C321	C32	0.689500	0.206440	0.848150
C331	C33	0.949030	0.551990	0.203870
C341	C34	0.913160	0.605170	0.759040
C351	C35	0.206440	0.151850	0.689500
C361	C36	0.637430	0.758280	0.888730
C371	C37	0.754640	0.809800	0.776000
C381	C38	0.922500	0.412320	0.794320
C391	C39	0.241720	0.111270	0.637430
C401	C40	0.394830	0.759040	0.086840
C411	C41	0.882950	0.365310	0.828090
C421	C42	0.252530	0.785340	0.805430
C431	C43	0.117050	0.365310	0.828090
C441	C44	0.587680	0.794320	0.077500
C451	C45	0.907390	0.602430	0.828840
C461	C46	0.754640	0.809800	0.224000
C471	C47	0.283970	0.212180	0.827620
C481	C48	0.888730	0.362570	0.758280
C491	C49	0.194570	0.252530	0.785340
C501	C50	0.126380	0.347820	0.792810
C511	C51	0.397570	0.171160	0.907390
C521	C52	0.634690	0.828090	0.882950
C531	C53	0.412320	0.794320	0.922500
C541	C54	0.077500	0.412320	0.205680
C551	C55	0.605170	0.759040	0.086840
C561	C56	0.605170	0.240960	0.086840
C571	C57	0.241720	0.888730	0.637430
C581	C58	0.602430	0.171160	0.907390
C591	C59	0.362570	0.758280	0.888730
C601	C60	0.776000	0.754640	0.809800
C611	C61	0.652180	0.792810	0.126380
C621	C62	0.907390	0.397570	0.828840
C631	C63	0.117050	0.365310	0.171910
C641	C64	0.848150	0.689500	0.206440
C651	C65	0.283970	0.787820	0.172380
C661	C66	0.634690	0.171910	0.882950
C671	C67	0.605170	0.240960	0.913160
C681	C68	0.151850	0.310500	0.793560
C691	C69	0.716030	0.787820	0.827620
C701	C70	0.205680	0.922500	0.587680
C711	C71	0.448010	0.796130	0.949030
C721	C72	0.050970	0.448010	0.203870
C731	C73	0.759040	0.086840	0.605170
C741	C74	0.637430	0.241720	0.888730
C751	C75	0.190200	0.776000	0.245360
C761	C76	0.190200	0.224000	0.245360
C771	C77	0.747470	0.785340	0.194570
C781	C78	0.602430	0.828840	0.907390
C791	C79	0.412320	0.205680	0.922500
C801	C80	0.605170	0.759040	0.913160
C811	C81	0.362570	0.241720	0.888730
C821	C82	0.310500	0.793560	0.151850
C831	C83	0.587680	0.205680	0.077500
C841	C84	0.214660	0.194570	0.252530
C851	C85	0.207190	0.126380	0.347820
C861	C86	0.805430	0.252530	0.214660
C871	C87	0.776000	0.245360	0.809800
C881	C88	0.949030	0.448010	0.796130
C891	C89	0.092610	0.397570	0.828840
C901	C90	0.793560	0.848150	0.689500
C911	C91	0.394830	0.759040	0.913160
C921	C92	0.206440	0.151850	0.310500
C931	C93	0.787820	0.172380	0.716030
C941	C94	0.050970	0.448010	0.796130
C951	C95	0.602430	0.171160	0.092610
C961	C96	0.092610	0.602430	0.828840
C971	C97	0.759040	0.086840	0.394830
C981	C98	0.587680	0.794320	0.922500
C991	C99	0.873620	0.652180	0.207190
C1001	C100	0.448010	0.203870	0.949030
C1011	C101	0.551990	0.203870	0.050970
C1021	C102	0.205680	0.922500	0.412320
C1031	C103	0.172380	0.283970	0.212180
C1041	C104	0.805430	0.252530	0.785340
C1051	C105	0.203870	0.949030	0.551990
C1061	C106	0.796130	0.949030	0.551990
C1071	C107	0.873620	0.347820	0.207190
C1081	C108	0.171910	0.117050	0.634690
C1091	C109	0.283970	0.212180	0.172380
C1101	C110	0.412320	0.794320	0.077500
C1111	C111	0.190200	0.224000	0.754640
C1121	C112	0.758280	0.888730	0.362570
C1131	C113	0.827620	0.283970	0.787820
C1141	C114	0.828090	0.882950	0.365310
C1151	C115	0.888730	0.637430	0.758280
C1161	C116	0.205680	0.077500	0.412320
C1171	C117	0.759040	0.913160	0.605170
C1181	C118	0.310500	0.793560	0.848150
C1191	C119	0.397570	0.828840	0.907390
C1201	C120	0.241720	0.111270	0.362570
C1211	C121	0.240960	0.086840	0.394830
C1221	C122	0.347820	0.207190	0.873620
C1231	C123	0.050970	0.551990	0.796130
C1241	C124	0.362570	0.241720	0.111270
C1251	C125	0.758280	0.111270	0.362570
C1261	C126	0.117050	0.634690	0.828090
C1271	C127	0.050970	0.551990	0.203870
C1281	C128	0.758280	0.888730	0.637430
C1291	C129	0.716030	0.212180	0.172380
C1301	C130	0.077500	0.587680	0.205680
C1311	C131	0.637430	0.241720	0.111270
C1321	C132	0.365310	0.171910	0.117050
C1331	C133	0.194570	0.747470	0.785340
C1341	C134	0.240960	0.913160	0.605170
C1351	C135	0.151850	0.689500	0.793560
C1361	C136	0.224000	0.754640	0.190200
C1371	C137	0.412320	0.205680	0.077500
C1381	C138	0.448010	0.796130	0.050970
C1391	C139	0.252530	0.214660	0.194570
C1401	C140	0.086840	0.605170	0.240960
C1411	C141	0.347820	0.792810	0.873620
C1421	C142	0.551990	0.796130	0.050970
C1431	C143	0.171160	0.907390	0.397570
C1441	C144	0.809800	0.776000	0.245360
C1451	C145	0.203870	0.050970	0.551990
C1461	C146	0.882950	0.365310	0.171910
C1471	C147	0.207190	0.873620	0.347820
C1481	C148	0.828840	0.907390	0.397570
C1491	C149	0.587680	0.205680	0.922500
C1501	C150	0.214660	0.805430	0.747470
C1511	C151	0.171910	0.882950	0.365310
C1521	C152	0.362570	0.758280	0.111270
C1531	C153	0.634690	0.171910	0.117050
C1541	C154	0.922500	0.587680	0.205680
C1551	C155	0.151850	0.310500	0.206440
C1561	C156	0.827620	0.716030	0.787820
C1571	C157	0.245360	0.809800	0.224000
C1581	C158	0.754640	0.190200	0.224000
C1591	C159	0.776000	0.245360	0.190200
C1601	C160	0.785340	0.805430	0.747470
C1611	C161	0.922500	0.412320	0.205680
C1621	C162	0.888730	0.362570	0.241720
C1631	C163	0.245360	0.190200	0.776000
C1641	C164	0.809800	0.224000	0.754640
C1651	C165	0.716030	0.787820	0.172380
C1661	C166	0.907390	0.602430	0.171160
C1671	C167	0.086840	0.394830	0.759040
C1681	C168	0.827620	0.716030	0.212180
C1691	C169	0.907390	0.397570	0.171160
C1701	C170	0.882950	0.634690	0.828090
C1711	C171	0.365310	0.828090	0.882950
C1721	C172	0.212180	0.172380	0.283970
C1731	C173	0.077500	0.587680	0.794320
C1741	C174	0.241720	0.888730	0.362570
C1751	C175	0.551990	0.203870	0.949030
C1761	C176	0.787820	0.172380	0.283970
C1771	C177	0.809800	0.224000	0.245360
C1781	C178	0.207190	0.873620	0.652180
C1791	C179	0.637430	0.758280	0.111270
C1801	C180	0.828090	0.882950	0.634690
C1811	C181	0.792810	0.126380	0.347820
C1821	C182	0.240960	0.913160	0.394830
C1831	C183	0.212180	0.827620	0.283970
C1841	C184	0.787820	0.827620	0.283970
C1851	C185	0.754640	0.190200	0.776000
C1861	C186	0.794320	0.922500	0.587680
C1871	C187	0.873620	0.347820	0.792810
C1881	C188	0.794320	0.922500	0.412320
C1891	C189	0.206440	0.848150	0.689500
C1901	C190	0.086840	0.605170	0.759040
C1911	C191	0.092610	0.397570	0.171160
C1921	C192	0.214660	0.805430	0.252530
C1931	C193	0.394830	0.240960	0.913160
C1941	C194	0.828090	0.117050	0.634690
C1951	C195	0.922500	0.587680	0.794320
C1961	C196	0.172380	0.716030	0.787820
C1971	C197	0.207190	0.126380	0.652180
C1981	C198	0.092610	0.602430	0.171160
C1991	C199	0.796130	0.050970	0.448010
C2001	C200	0.126380	0.652180	0.792810
C2011	C201	0.793560	0.151850	0.310500
C2021	C202	0.245360	0.190200	0.224000
C2031	C203	0.652180	0.792810	0.873620
C2041	C204	0.785340	0.194570	0.747470
C2051	C205	0.747470	0.214660	0.194570
C2061	C206	0.151850	0.689500	0.206440
C2071	C207	0.949030	0.551990	0.796130
C2081	C208	0.224000	0.245360	0.809800
C2091	C209	0.758280	0.111270	0.637430
C2101	C210	0.848150	0.689500	0.793560
C2111	C211	0.365310	0.171910	0.882950
C2121	C212	0.794320	0.077500	0.412320
C2131	C213	0.787820	0.827620	0.716030
C2141	C214	0.224000	0.754640	0.809800
C2151	C215	0.828840	0.092610	0.602430
C2161	C216	0.793560	0.151850	0.689500
C2171	C217	0.913160	0.605170	0.240960
C2181	C218	0.913160	0.394830	0.759040
C2191	C219	0.111270	0.362570	0.758280
C2201	C220	0.794320	0.077500	0.587680
C2211	C221	0.117050	0.634690	0.171910
C2221	C222	0.365310	0.828090	0.117050
C2231	C223	0.171160	0.907390	0.602430
C2241	C224	0.111270	0.362570	0.241720
C2251	C225	0.171160	0.092610	0.602430
C2261	C226	0.634690	0.828090	0.117050
C2271	C227	0.347820	0.207190	0.126380
C2281	C228	0.397570	0.828840	0.092610
C2291	C229	0.809800	0.776000	0.754640
C2301	C230	0.792810	0.873620	0.347820
C2311	C231	0.785340	0.194570	0.252530
C2321	C232	0.828840	0.907390	0.602430
C2331	C233	0.212180	0.172380	0.716030
C2341	C234	0.126380	0.347820	0.207190
C2351	C235	0.689500	0.206440	0.151850
C2361	C236	0.190200	0.776000	0.754640
C2371	C237	0.827620	0.283970	0.212180
C2381	C238	0.689500	0.793560	0.848150
C2391	C239	0.716030	0.212180	0.827620
C2401	C240	0.171910	0.882950	0.634690
C2411	C241	0.310500	0.206440	0.151850
C2421	C242	0.949030	0.448010	0.203870
C2431	C243	0.689500	0.793560	0.151850
C2441	C244	0.792810	0.126380	0.652180
C2451	C245	0.551990	0.796130	0.949030
C2461	C246	0.848150	0.310500	0.793560
C2471	C247	0.792810	0.873620	0.652180
C2481	C248	0.252530	0.785340	0.194570
C2491	C249	0.805430	0.747470	0.785340
C2501	C250	0.172380	0.283970	0.787820
C2511	C251	0.245360	0.809800	0.776000
C2521	C252	0.652180	0.207190	0.873620
C2531	C253	0.086840	0.394830	0.240960
C2541	C254	0.252530	0.214660	0.805430
C2551	C255	0.126380	0.652180	0.207190
C2561	C256	0.796130	0.949030	0.448010
C2571	C257	0.240960	0.086840	0.605170
C2581	C258	0.759040	0.913160	0.394830
C2591	C259	0.206440	0.848150	0.310500
C2601	C260	0.882950	0.634690	0.171910
C2611	C261	0.194570	0.252530	0.214660
C2621	C262	0.214660	0.194570	0.747470
C2631	C263	0.602430	0.828840	0.092610
C2641	C264	0.913160	0.394830	0.240960
O11	O1	0.170490	0.039980	0.459100
O21	O2	0.540900	0.170490	0.039980
O31	O3	0.540500	0.761390	0.039640
O41	O4	0.459500	0.238610	0.960360
O51	O5	0.459500	0.761390	0.039640
O61	O6	0.238610	0.960360	0.459500
O71	O7	0.170490	0.960020	0.540900
O81	O8	0.039640	0.540500	0.238610
O91	O9	0.540500	0.238610	0.960360
O101	O10	0.170490	0.039980	0.540900
O111	O11	0.459100	0.170490	0.039980
O121	O12	0.238610	0.960360	0.540500
O131	O13	0.829510	0.039980	0.459100
O141	O14	0.459500	0.238610	0.039640
O151	O15	0.540900	0.829510	0.039980
O161	O16	0.039640	0.540500	0.761390
O171	O17	0.960020	0.540900	0.170490
O181	O18	0.459100	0.829510	0.960020
O191	O19	0.960360	0.540500	0.761390
O201	O20	0.039980	0.540900	0.829510
O211	O21	0.540500	0.761390	0.960360
O221	O22	0.960360	0.459500	0.761390
O231	O23	0.829510	0.039980	0.540900
O241	O24	0.761390	0.039640	0.540500
O251	O25	0.540500	0.238610	0.039640
O261	O26	0.540900	0.829510	0.960020
O271	O27	0.829510	0.960020	0.540900
O281	O28	0.170490	0.960020	0.459100
O291	O29	0.459100	0.170490	0.960020
O301	O30	0.761390	0.960360	0.459500
O311	O31	0.039980	0.540900	0.170490
O321	O32	0.761390	0.960360	0.540500
O331	O33	0.540900	0.170490	0.960020
O341	O34	0.960020	0.459100	0.170490
O351	O35	0.960020	0.459100	0.829510
O361	O36	0.039980	0.459100	0.829510
O371	O37	0.039980	0.459100	0.170490
O381	O38	0.960020	0.540900	0.829510
O391	O39	0.238610	0.039640	0.459500
O401	O40	0.238610	0.039640	0.540500
O411	O41	0.960360	0.540500	0.238610
O421	O42	0.039640	0.459500	0.238610
O431	O43	0.459500	0.761390	0.960360
O441	O44	0.459100	0.829510	0.039980
O451	O45	0.829510	0.960020	0.459100
O461	O46	0.039640	0.459500	0.761390
O471	O47	0.960360	0.459500	0.238610
O481	O48	0.761390	0.039640	0.459500
