data_QIYDEJ_clean_PM
_symmetry_space_group_name_H-M	'P1'
_cell_length_a	29.642500
_cell_length_b	29.642500
_cell_length_c	29.642500
_cell_angle_alpha	101.473000
_cell_angle_beta	113.612000
_cell_angle_gamma	113.612000
_symmetry_Int_Tables_number 1

loop_
_symmetry_equiv_pos_as_xyz
'x,y,z'

loop_
_atom_site_label
_atom_site_type_symbol
_atom_site_fract_x
_atom_site_fract_y
_atom_site_fract_z
Cu11	Cu1	0.350370	0.524480	0.825890
Cu21	Cu2	0.500000	0.785040	0.285040
Cu31	Cu3	0.206310	0.745560	0.460750
Cu41	Cu4	0.649630	0.475520	0.174110
Cu51	Cu5	0.301410	0.825890	0.475520
Cu61	Cu6	0.500000	0.285040	0.785040
Cu71	Cu7	0.793690	0.254440	0.539250
Cu81	Cu8	0.500000	0.214960	0.714960
Cu91	Cu9	0.698590	0.174110	0.524480
Cu101	Cu10	0.284810	0.539250	0.745560
Cu111	Cu11	0.500000	0.714960	0.214960
Cu121	Cu12	0.715190	0.460750	0.254440
H11	H1	0.575600	0.195400	0.128000
H21	H2	0.316900	0.198300	0.723600
H31	H3	0.779100	0.975100	0.409600
H41	H4	0.469800	0.694400	0.944400
H51	H5	0.547200	0.984900	0.958100
H61	H6	0.932600	0.128000	0.552400
H71	H7	0.781300	0.469200	0.920300
H81	H8	0.575600	0.447600	0.380200
H91	H9	0.530200	0.474600	0.224600
H101	H10	0.319500	0.691800	0.233700
H111	H11	0.263600	0.521100	0.915100
H121	H12	0.627400	0.288900	0.181100
H131	H13	0.391700	0.886200	0.907700
H141	H14	0.541100	0.565200	0.975900
H151	H15	0.425100	0.951000	0.744100
H161	H16	0.594700	0.556600	0.038100
H171	H17	0.250000	0.944400	0.474600
H181	H18	0.067400	0.619800	0.195400
H191	H19	0.680500	0.914200	0.372300
H201	H20	0.978500	0.494500	0.886200
H211	H21	0.932600	0.380200	0.804600
H221	H22	0.790900	0.003800	0.527300
H231	H23	0.541900	0.627700	0.308200
H241	H24	0.476500	0.472700	0.263600
H251	H25	0.474700	0.276400	0.593300
H261	H26	0.589300	0.024100	0.565200
H271	H27	0.067400	0.872000	0.447600
H281	H28	0.026800	0.437700	0.984900
H291	H29	0.736400	0.478900	0.084900
H301	H30	0.106000	0.284700	0.569300
H311	H31	0.424400	0.552400	0.619800
H321	H32	0.793100	0.744100	0.319000
H331	H33	0.680500	0.308200	0.766300
H341	H34	0.391700	0.484000	0.505500
H351	H35	0.973200	0.562300	0.015100
H361	H36	0.683100	0.406700	0.881400
H371	H37	0.570300	0.473900	0.601600
H381	H38	0.892200	0.338500	0.711100
H391	H39	0.127700	0.096400	0.526100
H401	H40	0.715400	0.430700	0.536700
H411	H41	0.209100	0.996200	0.472700
H421	H42	0.608300	0.516000	0.494500
H431	H43	0.894000	0.715300	0.430700
H441	H44	0.523000	0.429800	0.093200
H451	H45	0.747600	0.214000	0.374800
H461	H46	0.872300	0.903600	0.473900
H471	H47	0.574900	0.049000	0.255900
H481	H48	0.458100	0.372300	0.691800
H491	H49	0.715400	0.178700	0.284700
H501	H50	0.565500	0.196000	0.975100
H511	H51	0.574900	0.319000	0.525900
H521	H52	0.476500	0.212900	0.003800
H531	H53	0.523500	0.787100	0.996200
H541	H54	0.839200	0.625200	0.372800
H551	H55	0.372600	0.553700	0.661500
H561	H56	0.518500	0.961900	0.556600
H571	H57	0.627400	0.446300	0.338500
H581	H58	0.437500	0.892400	0.545100
H591	H59	0.779100	0.369500	0.804000
H601	H60	0.424400	0.804600	0.872000
H611	H61	0.474700	0.881400	0.198300
H621	H62	0.562500	0.107600	0.454900
H631	H63	0.127700	0.601600	0.031300
H641	H64	0.790900	0.263600	0.787100
H651	H65	0.319500	0.085800	0.627700
H661	H66	0.452800	0.410900	0.437700
H671	H67	0.372600	0.711100	0.818900
H681	H68	0.477000	0.570200	0.906800
H691	H69	0.565500	0.590400	0.369500
H701	H70	0.750000	0.055600	0.525400
H711	H71	0.220900	0.024900	0.590400
H721	H72	0.394000	0.742500	0.478900
H731	H73	0.429700	0.526100	0.398400
H741	H74	0.160800	0.533600	0.786000
H751	H75	0.284600	0.821300	0.715300
H761	H76	0.892200	0.181100	0.553700
H771	H77	0.218700	0.139000	0.687900
H781	H78	0.973200	0.958100	0.410900
H791	H79	0.750000	0.224600	0.694400
H801	H80	0.347300	0.454900	0.892400
H811	H81	0.250000	0.775400	0.305600
H821	H82	0.525300	0.118600	0.801700
H831	H83	0.606000	0.257500	0.521100
H841	H84	0.394000	0.915100	0.651500
H851	H85	0.451100	0.312100	0.530800
H861	H86	0.206900	0.525900	0.951000
H871	H87	0.452800	0.015100	0.041900
H881	H88	0.021500	0.907700	0.516000
H891	H89	0.652700	0.545100	0.107600
H901	H90	0.160800	0.374800	0.627200
H911	H91	0.220900	0.630500	0.196000
H921	H92	0.107800	0.661500	0.288900
H931	H93	0.525300	0.723600	0.406700
H941	H94	0.425100	0.681000	0.474100
H951	H95	0.252400	0.627200	0.466400
H961	H96	0.405300	0.443400	0.961900
H971	H97	0.458100	0.766300	0.085800
H981	H98	0.106000	0.536700	0.821300
H991	H99	0.026800	0.041900	0.589100
H1001	H100	0.458900	0.434800	0.024100
H1011	H101	0.747600	0.372800	0.533600
H1021	H102	0.606000	0.084900	0.348500
H1031	H103	0.451100	0.920300	0.139000
H1041	H104	0.481500	0.038100	0.443400
H1051	H105	0.793100	0.474100	0.049000
H1061	H106	0.284600	0.569300	0.463300
H1071	H107	0.978500	0.092300	0.484000
H1081	H108	0.541900	0.233700	0.914200
H1091	H109	0.608300	0.113800	0.092300
H1101	H110	0.336600	0.906800	0.429800
H1111	H111	0.683100	0.801700	0.276400
H1121	H112	0.410700	0.975900	0.434800
H1131	H113	0.663400	0.093200	0.570200
H1141	H114	0.523500	0.527300	0.736400
H1151	H115	0.530200	0.305600	0.055600
H1161	H116	0.434500	0.409600	0.630500
H1171	H117	0.547200	0.589100	0.562300
H1181	H118	0.839200	0.466400	0.214000
H1191	H119	0.570300	0.968700	0.096400
H1201	H120	0.209100	0.736400	0.212900
H1211	H121	0.206900	0.255900	0.681000
H1221	H122	0.107800	0.818900	0.446300
H1231	H123	0.872300	0.398400	0.968700
H1241	H124	0.894000	0.463300	0.178700
H1251	H125	0.434500	0.804000	0.024900
H1261	H126	0.469800	0.525400	0.775400
H1271	H127	0.548900	0.687900	0.469200
H1281	H128	0.252400	0.786000	0.625200
H1291	H129	0.736400	0.651500	0.257500
H1301	H130	0.263600	0.348500	0.742500
H1311	H131	0.548900	0.079700	0.861000
H1321	H132	0.316900	0.593300	0.118600
H1331	H133	0.781300	0.861000	0.312100
H1341	H134	0.429700	0.031300	0.903600
H1351	H135	0.218700	0.530800	0.079700
H1361	H136	0.021500	0.505500	0.113800
C11	C1	0.422400	0.470600	0.951800
C21	C2	0.416300	0.539260	0.722220
C31	C3	0.403000	0.547560	0.676580
C41	C4	0.945060	0.411200	0.968360
C51	C5	0.569320	0.608500	0.461460
C61	C6	0.760060	0.377230	0.820370
C71	C7	0.892110	0.028000	0.539050
C81	C8	0.239940	0.060310	0.617170
C91	C9	0.870980	0.144560	0.547560
C101	C10	0.595580	0.520620	0.518460
C111	C11	0.357180	0.890950	0.738450
C121	C12	0.406950	0.509770	0.451280
C131	C13	0.702660	0.399230	0.865590
C141	C14	0.543360	0.202540	0.903360
C151	C15	0.861550	0.465420	0.159010
C161	C16	0.556860	0.179630	0.939690
C171	C17	0.456640	0.360000	0.659180
C181	C18	0.374200	0.917600	0.456600
C191	C19	0.434050	0.782300	0.886990
C201	C20	0.306410	0.840990	0.702540
C211	C21	0.152500	0.261550	0.618730
C221	C22	0.852960	0.960820	0.391500
C231	C23	0.421090	0.441670	0.475320
C241	C24	0.478820	0.804730	0.940050
C251	C25	0.761440	0.436480	0.889480
C261	C26	0.829350	0.649230	0.361660
C271	C27	0.418800	0.959900	0.458900
C281	C28	0.642820	0.381270	0.533770
C291	C29	0.881020	0.795170	0.418170
C301	C30	0.086750	0.582520	0.009330
C311	C31	0.518760	0.496880	0.021880
C321	C32	0.002160	0.481540	0.077120
C331	C33	0.581200	0.040100	0.541100
C341	C34	0.703160	0.271970	0.527350
C351	C35	0.488950	0.460950	0.353060
C361	C36	0.442390	0.366530	0.575800
C371	C37	0.238560	0.563520	0.110520
C381	C38	0.453000	0.324960	0.563520
C391	C39	0.481200	0.951800	0.529400
C401	C40	0.790730	0.424200	0.866590
C411	C41	0.210140	0.842770	0.462110
C421	C42	0.107890	0.972000	0.460950
C431	C43	0.892110	0.353060	0.864110
C441	C44	0.557160	0.968360	0.023300
C451	C45	0.217970	0.528070	0.847560
C461	C46	0.440790	0.999860	0.005070
C471	C47	0.557610	0.633470	0.424200
C481	C48	0.387800	0.478200	0.909600
C491	C49	0.005210	0.440930	0.000140
C501	C50	0.466280	0.461890	0.377390
C511	C51	0.091740	0.158930	0.549310
C521	C52	0.966350	0.020580	0.441670
C531	C53	0.595580	0.077120	0.074960
C541	C54	0.466360	0.865590	0.162930
C551	C55	0.577600	0.529400	0.048200
C561	C56	0.811750	0.279910	0.772000
C571	C57	0.578910	0.558330	0.524680
C581	C58	0.547000	0.110520	0.871960
C591	C59	0.480530	0.793810	0.185400
C601	C60	0.002160	0.925040	0.520620
C611	C61	0.426810	0.504230	0.417480
C621	C62	0.319490	0.847560	0.629590
C631	C63	0.239940	0.622770	0.179630
C641	C64	0.511050	0.539050	0.646940
C651	C65	0.118980	0.537150	0.914150
C661	C66	0.488950	0.135890	0.028000
C671	C67	0.811750	0.039750	0.531840
C681	C68	0.693590	0.396130	0.534580
C691	C69	0.198080	0.527990	0.917590
C701	C70	0.680510	0.310100	0.528070
C711	C71	0.547000	0.675040	0.436480
C721	C72	0.492090	0.772000	0.960250
C731	C73	0.492090	0.531840	0.720090
C741	C74	0.908260	0.841070	0.450690
C751	C75	0.033650	0.979420	0.558330
C761	C76	0.210140	0.748030	0.367370
C771	C77	0.913250	0.417480	0.990670
C781	C78	0.440790	0.435720	0.440930
C791	C79	0.380660	0.632630	0.842770
C801	C80	0.578910	0.054230	0.020580
C811	C81	0.966350	0.524680	0.945770
C821	C82	0.371380	0.896430	0.664150
C831	C83	0.104690	0.886990	0.452940
C841	C84	0.406950	0.955670	0.897180
C851	C85	0.423730	0.412520	0.509210
C861	C86	0.761440	0.871960	0.324960
C871	C87	0.557610	0.133410	0.924140
C881	C88	0.895310	0.348250	0.782300
C891	C89	0.767720	0.664150	0.292770
C901	C90	0.829350	0.467690	0.180120
C911	C91	0.712430	0.180120	0.350770
C921	C92	0.118980	0.204830	0.581830
C931	C93	0.559210	0.000140	0.994930
C941	C94	0.475000	0.978120	0.496880
C951	C95	0.054940	0.588800	0.031640
C961	C96	0.941510	0.897180	0.490230
C971	C97	0.790730	0.924140	0.366530
C981	C98	0.625800	0.082400	0.543400
C991	C99	0.391590	0.185400	0.704870
C1001	C100	0.377000	0.914150	0.795170
C1011	C101	0.532210	0.180290	0.852360
C1021	C102	0.915500	0.004390	0.538110
C1031	C103	0.583700	0.305920	0.122960
C1041	C104	0.518800	0.048200	0.470600
C1051	C105	0.593050	0.044330	0.102820
C1061	C106	0.129020	0.676580	0.273580
C1071	C107	0.135320	0.674090	0.195270
C1081	C108	0.610400	0.082410	0.280490
C1091	C109	0.287570	0.819880	0.649230
C1101	C110	0.287570	0.638340	0.467690
C1111	C111	0.461000	0.543400	0.917600
C1121	C112	0.084500	0.995610	0.461890
C1131	C113	0.091740	0.542430	0.932810
C1141	C114	0.817040	0.122960	0.539260
C1151	C115	0.404420	0.922880	0.925040
C1161	C116	0.559210	0.564280	0.559070
C1171	C117	0.327930	0.648080	0.180290
C1181	C118	0.521180	0.461230	0.325910
C1191	C119	0.188250	0.960250	0.468160
C1201	C120	0.403000	0.726420	0.855440
C1211	C121	0.389600	0.917590	0.719510
C1221	C122	0.608410	0.814600	0.295130
C1231	C123	0.533720	0.911110	0.995610
C1241	C124	0.619340	0.462110	0.251970
C1251	C125	0.442840	0.466140	0.411200
C1261	C126	0.532210	0.679850	0.351920
C1271	C127	0.994790	0.559070	0.999860
C1281	C128	0.430680	0.391500	0.538540
C1291	C129	0.232280	0.525050	0.896430
C1301	C130	0.107890	0.646940	0.135890
C1311	C131	0.597000	0.273580	0.144560
C1321	C132	0.789860	0.251970	0.632630
C1331	C133	0.442390	0.866590	0.075860
C1341	C134	0.787570	0.256240	0.716690
C1351	C135	0.327930	0.147640	0.679850
C1361	C136	0.539550	0.468670	0.256240
C1371	C137	0.608410	0.313280	0.793810
C1381	C138	0.232280	0.335850	0.707230
C1391	C139	0.543360	0.640000	0.340820
C1401	C140	0.612200	0.521800	0.090400
C1411	C141	0.507910	0.468160	0.279910
C1421	C142	0.299180	0.659180	0.202540
C1431	C143	0.255380	0.527350	0.824190
C1441	C144	0.903310	0.988790	0.412520
C1451	C145	0.198080	0.280490	0.670090
C1461	C146	0.390380	0.932810	0.841070
C1471	C147	0.693590	0.159010	0.297460
C1481	C148	0.609620	0.450690	0.542430
C1491	C149	0.744620	0.472650	0.175810
C1501	C150	0.997840	0.518460	0.922880
C1511	C151	0.434050	0.547060	0.651750
C1521	C152	0.597000	0.452440	0.323420
C1531	C153	0.238560	0.128040	0.675040
C1541	C154	0.533720	0.538110	0.622610
C1551	C155	0.573190	0.990670	0.077420
C1561	C156	0.357180	0.618730	0.466230
C1571	C157	0.702660	0.837070	0.303430
C1581	C158	0.306410	0.603870	0.465420
C1591	C159	0.680510	0.152440	0.370410
C1601	C160	0.610400	0.329910	0.527990
C1611	C161	0.539000	0.456600	0.082400
C1621	C162	0.895310	0.113010	0.547060
C1631	C163	0.712430	0.361660	0.532310
C1641	C164	0.147040	0.538540	0.107860
C1651	C165	0.672070	0.852360	0.320150
C1661	C166	0.782030	0.471930	0.152440
C1671	C167	0.480530	0.295130	0.686720
C1681	C168	0.058490	0.548720	0.955670
C1691	C169	0.852960	0.461460	0.892140
C1701	C170	0.533640	0.134410	0.837070
C1711	C171	0.188250	0.720090	0.228000
C1721	C172	0.568600	0.090400	0.478200
C1731	C173	0.994790	0.994930	0.435720
C1741	C174	0.431400	0.909600	0.521800
C1751	C175	0.096690	0.509210	0.085480
C1761	C176	0.908260	0.457570	0.067190
C1771	C177	0.593050	0.490230	0.548720
C1781	C178	0.147040	0.039180	0.608500
C1791	C179	0.847500	0.466230	0.109050
C1801	C180	0.209270	0.075860	0.633470
C1811	C181	0.380660	0.537890	0.748030
C1821	C182	0.703160	0.175810	0.431190
C1831	C183	0.404420	0.479380	0.481540
C1841	C184	0.086750	0.077420	0.504230
C1851	C185	0.297340	0.162930	0.696570
C1861	C186	0.182960	0.722220	0.305920
C1871	C187	0.033650	0.475320	0.054230
C1881	C188	0.700820	0.340820	0.797460
C1891	C189	0.576270	0.587480	0.490790
C1901	C190	0.519470	0.206190	0.814600
C1911	C191	0.573190	0.495770	0.582520
C1921	C192	0.801920	0.472010	0.082410
C1931	C193	0.084500	0.622610	0.088890
C1941	C194	0.170650	0.350770	0.638340
C1951	C195	0.466280	0.088890	0.004390
C1961	C196	0.913250	0.922580	0.495770
C1971	C197	0.104690	0.651750	0.217700
C1981	C198	0.209270	0.575800	0.133410
C1991	C199	0.058490	0.102820	0.509770
C2001	C200	0.628620	0.103570	0.335850
C2011	C201	0.443140	0.820370	0.060310
C2021	C202	0.817040	0.277780	0.694080
C2031	C203	0.212430	0.929120	0.468670
C2041	C204	0.767720	0.474950	0.103570
C2051	C205	0.511050	0.864110	0.972000
C2061	C206	0.903310	0.490790	0.914520
C2071	C207	0.787570	0.070880	0.531330
C2081	C208	0.569320	0.107860	0.960820
C2091	C209	0.501000	0.541100	0.959900
C2101	C210	0.881020	0.462850	0.085850
C2111	C211	0.521180	0.195270	0.059950
C2121	C212	0.525000	0.021880	0.503120
C2131	C213	0.861550	0.702540	0.396130
C2141	C214	0.296840	0.824190	0.568810
C2151	C215	0.507910	0.228000	0.039750
C2161	C216	0.426810	0.009330	0.922580
C2171	C217	0.390380	0.549310	0.457570
C2181	C218	0.583700	0.460740	0.277780
C2191	C219	0.533640	0.696570	0.399230
C2201	C220	0.416300	0.694080	0.877040
C2211	C221	0.430680	0.892140	0.039180
C2221	C222	0.135320	0.940050	0.461230
C2231	C223	0.864680	0.325910	0.804730
C2241	C224	0.129020	0.855440	0.452440
C2251	C225	0.442840	0.031640	0.976700
C2261	C226	0.870980	0.323420	0.726420
C2271	C227	0.623000	0.418170	0.537150
C2281	C228	0.377000	0.581830	0.462850
C2291	C229	0.789860	0.157230	0.537890
C2301	C230	0.628620	0.292770	0.525050
C2311	C231	0.619340	0.367370	0.157230
C2321	C232	0.296840	0.728030	0.472650
C2331	C233	0.054940	0.023300	0.466140
C2341	C234	0.801920	0.719510	0.329910
C2351	C235	0.478820	0.538770	0.674090
C2361	C236	0.319490	0.689900	0.471930
C2371	C237	0.389600	0.670090	0.472010
C2381	C238	0.423730	0.914520	0.011210
C2391	C239	0.565950	0.217700	0.113010
C2401	C240	0.915500	0.377390	0.911110
C2411	C241	0.299180	0.096640	0.640000
C2421	C242	0.421090	0.945770	0.979420
C2431	C243	0.847500	0.738450	0.381270
C2441	C244	0.576270	0.085480	0.988790
C2451	C245	0.760060	0.939690	0.382830
C2461	C246	0.519470	0.704870	0.313280
C2471	C247	0.255380	0.431190	0.728030
C2481	C248	0.096690	0.011210	0.587480
C2491	C249	0.556860	0.617170	0.377230
C2501	C250	0.138450	0.297460	0.603870
C2511	C251	0.460450	0.531330	0.743760
C2521	C252	0.453000	0.889480	0.128040
C2531	C253	0.138450	0.534580	0.840990
C2541	C254	0.941510	0.451280	0.044330
C2551	C255	0.997840	0.074960	0.479380
C2561	C256	0.557160	0.533860	0.588800
C2571	C257	0.456640	0.797460	0.096640
C2581	C258	0.217970	0.370410	0.689900
C2591	C259	0.467790	0.819710	0.147640
C2601	C260	0.481240	0.503120	0.978120
C2611	C261	0.152500	0.533770	0.890950
C2621	C262	0.782030	0.629590	0.310100
C2631	C263	0.297340	0.600770	0.134410
C2641	C264	0.467790	0.320150	0.648080
C2651	C265	0.945060	0.976700	0.533860
C2661	C266	0.005210	0.005070	0.564280
C2671	C267	0.700820	0.903360	0.360000
C2681	C268	0.609620	0.067190	0.158930
C2691	C269	0.565950	0.452940	0.348250
C2701	C270	0.466360	0.303430	0.600770
C2711	C271	0.642820	0.109050	0.261550
C2721	C272	0.170650	0.532310	0.819880
C2731	C273	0.182960	0.877040	0.460740
C2741	C274	0.539550	0.283310	0.070880
C2751	C275	0.391590	0.686720	0.206190
C2761	C276	0.212430	0.743760	0.283310
C2771	C277	0.371380	0.707230	0.474950
C2781	C278	0.672070	0.351920	0.819710
C2791	C279	0.623000	0.085850	0.204830
C2801	C280	0.864680	0.059950	0.538770
C2811	C281	0.744620	0.568810	0.271970
C2821	C282	0.460450	0.716690	0.929120
C2831	C283	0.499000	0.458900	0.040100
C2841	C284	0.443140	0.382830	0.622770
N11	N1	0.376030	0.890530	0.485500
N21	N2	0.405030	0.514500	0.890530
N31	N3	0.623970	0.109470	0.514500
N41	N4	0.594970	0.485500	0.109470
O11	O1	0.394120	0.604150	0.863650
O21	O2	0.514810	0.185850	0.769200
O31	O3	0.605880	0.469530	0.210030
O41	O4	0.327860	0.849110	0.552850
O51	O5	0.416650	0.230800	0.745610
O61	O6	0.259500	0.789970	0.395850
O71	O7	0.416320	0.170380	0.685820
O81	O8	0.672140	0.150890	0.447150
O91	O9	0.583680	0.269500	0.754060
O101	O10	0.296260	0.447150	0.775010
O111	O11	0.583680	0.829620	0.314180
O121	O12	0.759180	0.539700	0.292540
O131	O13	0.515440	0.245940	0.829620
O141	O14	0.259500	0.863650	0.469530
O151	O15	0.416320	0.730500	0.245940
O161	O16	0.416650	0.671040	0.185850
O171	O17	0.240820	0.533360	0.780520
O181	O18	0.247160	0.780520	0.539700
O191	O19	0.484560	0.314180	0.730500
O201	O20	0.178860	0.795100	0.456360
O211	O21	0.821140	0.277500	0.616240
O221	O22	0.759180	0.466640	0.219480
O231	O23	0.485190	0.814150	0.230800
O241	O24	0.661260	0.456360	0.277500
O251	O25	0.752840	0.219480	0.460300
O261	O26	0.703740	0.478750	0.150890
O271	O27	0.514810	0.745610	0.328960
O281	O28	0.672140	0.224990	0.521250
O291	O29	0.752840	0.292540	0.533360
O301	O30	0.338740	0.543640	0.722500
O311	O31	0.338740	0.616240	0.795100
O321	O32	0.515440	0.685820	0.269500
O331	O33	0.821140	0.204900	0.543640
O341	O34	0.327860	0.775010	0.478750
O351	O35	0.661260	0.383760	0.204900
O361	O36	0.703740	0.552850	0.224990
O371	O37	0.240820	0.460300	0.707460
O381	O38	0.484560	0.754060	0.170380
O391	O39	0.583350	0.769200	0.254390
O401	O40	0.178860	0.722500	0.383760
O411	O41	0.247160	0.707460	0.466640
O421	O42	0.485190	0.254390	0.671040
O431	O43	0.583350	0.328960	0.814150
O441	O44	0.296260	0.521250	0.849110
O451	O45	0.394120	0.530470	0.789970
O461	O46	0.740500	0.210030	0.604150
O471	O47	0.605880	0.395850	0.136350
O481	O48	0.740500	0.136350	0.530470
