data_QIYQAR_clean_PM
_symmetry_space_group_name_H-M	'P1'
_cell_length_a	9.538600
_cell_length_b	14.067900
_cell_length_c	17.067900
_cell_angle_alpha	90.000000
_cell_angle_beta	97.466000
_cell_angle_gamma	90.000000
_symmetry_Int_Tables_number 1

loop_
_symmetry_equiv_pos_as_xyz
'x,y,z'

loop_
_atom_site_label
_atom_site_type_symbol
_atom_site_fract_x
_atom_site_fract_y
_atom_site_fract_z
La11	La1	0.882730	0.870410	0.528560
La21	La2	0.682300	0.628920	0.640400
La31	La3	0.617270	0.370410	0.971440
La41	La4	0.817700	0.128920	0.859600
La51	La5	0.117270	0.129590	0.471440
La61	La6	0.317700	0.371080	0.359600
La71	La7	0.382730	0.629590	0.028560
La81	La8	0.182300	0.871080	0.140400
H11	H1	0.349500	0.925400	0.433400
H21	H2	0.384500	0.775800	0.546900
H31	H3	0.388300	0.883500	0.570600
H41	H4	0.293700	0.730800	0.403400
H51	H5	0.437100	0.777400	0.389300
H61	H6	0.180400	0.617500	0.596000
H71	H7	0.179700	0.723900	0.622800
H81	H8	0.219100	0.570600	0.732100
H91	H9	0.123100	0.714800	0.778300
H101	H10	0.262200	0.767100	0.764000
H111	H11	0.150500	0.425400	0.066600
H121	H12	0.115500	0.275800	0.953100
H131	H13	0.111700	0.383500	0.929400
H141	H14	0.206300	0.230800	0.096600
H151	H15	0.062900	0.277400	0.110700
H161	H16	0.319600	0.117500	0.904000
H171	H17	0.320300	0.223900	0.877200
H181	H18	0.280900	0.070600	0.767900
H191	H19	0.376900	0.214800	0.721700
H201	H20	0.237800	0.267100	0.736000
H211	H21	0.650500	0.074600	0.566600
H221	H22	0.615500	0.224200	0.453100
H231	H23	0.611700	0.116500	0.429400
H241	H24	0.706300	0.269200	0.596600
H251	H25	0.562900	0.222600	0.610700
H261	H26	0.819600	0.382500	0.404000
H271	H27	0.820300	0.276100	0.377200
H281	H28	0.780900	0.429400	0.267900
H291	H29	0.876900	0.285200	0.221700
H301	H30	0.737800	0.232900	0.236000
H311	H31	0.849500	0.574600	0.933400
H321	H32	0.884500	0.724200	0.046900
H331	H33	0.888300	0.616500	0.070600
H341	H34	0.793700	0.769200	0.903400
H351	H35	0.937100	0.722600	0.889300
H361	H36	0.680400	0.882500	0.096000
H371	H37	0.679700	0.776100	0.122800
H381	H38	0.719100	0.929400	0.232100
H391	H39	0.623100	0.785200	0.278300
H401	H40	0.762200	0.732900	0.264000
C11	C1	0.168800	0.870800	0.468200
C21	C2	0.319600	0.863500	0.451600
C31	C3	0.409900	0.838900	0.530500
C41	C4	0.566500	0.841600	0.525700
C51	C5	0.336900	0.789500	0.388800
C61	C6	0.274700	0.814400	0.304900
C71	C7	0.999600	0.653800	0.640300
C81	C8	0.156400	0.659700	0.637200
C91	C9	0.247600	0.633400	0.715000
C101	C10	0.224100	0.706600	0.778400
C111	C11	0.289500	0.682100	0.862000
C121	C12	0.399100	0.629100	0.699300
C131	C13	0.331200	0.370800	0.031800
C141	C14	0.180400	0.363500	0.048400
C151	C15	0.090100	0.338900	0.969500
C161	C16	0.933500	0.341600	0.974300
C171	C17	0.163100	0.289500	0.111200
C181	C18	0.225300	0.314400	0.195100
C191	C19	0.500400	0.153800	0.859700
C201	C20	0.343600	0.159700	0.862800
C211	C21	0.252400	0.133400	0.785000
C221	C22	0.275900	0.206600	0.721600
C231	C23	0.210500	0.182100	0.638000
C241	C24	0.100900	0.129100	0.800700
C251	C25	0.831200	0.129200	0.531800
C261	C26	0.680400	0.136500	0.548400
C271	C27	0.590100	0.161100	0.469500
C281	C28	0.433500	0.158400	0.474300
C291	C29	0.663100	0.210500	0.611200
C301	C30	0.725300	0.185600	0.695100
C311	C31	0.000400	0.346200	0.359700
C321	C32	0.843600	0.340300	0.362800
C331	C33	0.752400	0.366600	0.285000
C341	C34	0.775900	0.293400	0.221600
C351	C35	0.710500	0.317900	0.138000
C361	C36	0.600900	0.370900	0.300700
C371	C37	0.668800	0.629200	0.968200
C381	C38	0.819600	0.636500	0.951600
C391	C39	0.909900	0.661100	0.030500
C401	C40	0.066500	0.658400	0.025700
C411	C41	0.836900	0.710500	0.888800
C421	C42	0.774700	0.685600	0.804900
C431	C43	0.499600	0.846200	0.140300
C441	C44	0.656400	0.840300	0.137200
C451	C45	0.747600	0.866600	0.215000
C461	C46	0.724100	0.793400	0.278400
C471	C47	0.789500	0.817900	0.362000
C481	C48	0.899100	0.870900	0.199300
O11	O1	0.115900	0.952100	0.479100
O21	O2	0.098200	0.797200	0.476100
O31	O3	0.647300	0.780800	0.563600
O41	O4	0.618400	0.907100	0.488900
O51	O5	0.223400	0.896900	0.289400
O61	O6	0.278900	0.753000	0.252200
O71	O7	0.919300	0.715300	0.601500
O81	O8	0.950000	0.590900	0.679600
O91	O9	0.283500	0.744200	0.914600
O101	O10	0.344200	0.602200	0.877900
O111	O11	0.451200	0.550600	0.683300
O121	O12	0.470400	0.704800	0.696700
O131	O13	0.384100	0.452100	0.020900
O141	O14	0.401800	0.297200	0.023900
O151	O15	0.852700	0.280800	0.936400
O161	O16	0.881600	0.407100	0.011100
O171	O17	0.276600	0.396900	0.210600
O181	O18	0.221100	0.253000	0.247800
O191	O19	0.580700	0.215300	0.898500
O201	O20	0.550000	0.090900	0.820400
O211	O21	0.216500	0.244200	0.585400
O221	O22	0.155800	0.102200	0.622100
O231	O23	0.048800	0.050600	0.816700
O241	O24	0.029600	0.204800	0.803300
O251	O25	0.884100	0.047900	0.520900
O261	O26	0.901800	0.202800	0.523900
O271	O27	0.352700	0.219200	0.436400
O281	O28	0.381600	0.092900	0.511100
O291	O29	0.776600	0.103100	0.710600
O301	O30	0.721100	0.247000	0.747800
O311	O31	0.080700	0.284700	0.398500
O321	O32	0.050000	0.409100	0.320400
O331	O33	0.716500	0.255800	0.085400
O341	O34	0.655800	0.397800	0.122100
O351	O35	0.548800	0.449400	0.316700
O361	O36	0.529600	0.295200	0.303300
O371	O37	0.615900	0.547900	0.979100
O381	O38	0.598200	0.702800	0.976100
O391	O39	0.147300	0.719200	0.063600
O401	O40	0.118400	0.592900	0.988900
O411	O41	0.723400	0.603100	0.789400
O421	O42	0.778900	0.747000	0.752200
O431	O43	0.419300	0.784700	0.101500
O441	O44	0.450000	0.909100	0.179600
O451	O45	0.783500	0.755800	0.414600
O461	O46	0.844200	0.897800	0.377900
O471	O47	0.951200	0.949400	0.183300
O481	O48	0.970400	0.795200	0.196700
