data_QOBGEV_clean_PM
_symmetry_space_group_name_H-M	'P1'
_cell_length_a	18.938100
_cell_length_b	18.938100
_cell_length_c	21.200800
_cell_angle_alpha	90.000000
_cell_angle_beta	90.000000
_cell_angle_gamma	90.000000
_symmetry_Int_Tables_number 1

loop_
_symmetry_equiv_pos_as_xyz
'x,y,z'

loop_
_atom_site_label
_atom_site_type_symbol
_atom_site_fract_x
_atom_site_fract_y
_atom_site_fract_z
O11	O1	0.285060	0.561370	0.075990
O21	O2	0.264600	0.621560	0.163660
C11	C1	0.279100	0.618800	0.106500
C21	C2	0.292300	0.685950	0.070390
O31	O3	0.266620	0.597920	0.940170
C31	C3	0.311900	0.685970	0.006580
C41	C4	0.322600	0.621290	0.965870
O41	O4	0.381710	0.599700	0.955160
O51	O5	0.785060	0.061370	0.575990
O61	O6	0.764600	0.121560	0.663660
C51	C5	0.779100	0.118800	0.606500
C61	C6	0.792300	0.185950	0.570390
O71	O7	0.766620	0.097920	0.440170
C71	C7	0.811900	0.185970	0.506580
C81	C8	0.822600	0.121290	0.465870
O81	O8	0.881710	0.099700	0.455160
O91	O9	0.214940	0.438630	0.575990
O101	O10	0.235400	0.378440	0.663660
C91	C9	0.220900	0.381200	0.606500
C101	C10	0.207700	0.314050	0.570390
O111	O11	0.233380	0.402080	0.440170
C111	C11	0.188100	0.314030	0.506580
C121	C12	0.177400	0.378710	0.465870
O121	O12	0.118290	0.400300	0.455160
O131	O13	0.714940	0.938630	0.075990
O141	O14	0.735400	0.878440	0.163660
C131	C13	0.720900	0.881200	0.106500
C141	C14	0.707700	0.814050	0.070390
O151	O15	0.733380	0.902080	0.940170
C151	C15	0.688100	0.814030	0.006580
C161	C16	0.677400	0.878710	0.965870
O161	O16	0.618290	0.900300	0.955160
O171	O17	0.688630	0.035060	0.325990
O181	O18	0.628440	0.014600	0.413660
C171	C17	0.631200	0.029100	0.356500
C181	C18	0.564050	0.042300	0.320390
O191	O19	0.652080	0.016620	0.190170
C191	C19	0.564030	0.061900	0.256580
C201	C20	0.628710	0.072600	0.215870
O201	O20	0.650300	0.131710	0.205160
O211	O21	0.188630	0.535060	0.825990
O221	O22	0.128440	0.514600	0.913660
C211	C21	0.131200	0.529100	0.856500
C221	C22	0.064050	0.542300	0.820390
O231	O23	0.152080	0.516620	0.690170
C231	C23	0.064030	0.561900	0.756580
C241	C24	0.128710	0.572600	0.715870
O241	O24	0.150300	0.631710	0.705160
O251	O25	0.811370	0.964940	0.825990
O261	O26	0.871560	0.985400	0.913660
C251	C25	0.868800	0.970900	0.856500
C261	C26	0.935950	0.957700	0.820390
O271	O27	0.847920	0.983380	0.690170
C271	C27	0.935970	0.938100	0.756580
C281	C28	0.871290	0.927400	0.715870
O281	O28	0.849700	0.868290	0.705160
O291	O29	0.311370	0.464940	0.325990
O301	O30	0.371560	0.485400	0.413660
C291	C29	0.368800	0.470900	0.356500
C301	C30	0.435950	0.457700	0.320390
O311	O31	0.347920	0.483380	0.190170
C311	C31	0.435970	0.438100	0.256580
C321	C32	0.371290	0.427400	0.215870
O321	O32	0.349700	0.368290	0.205160
O331	O33	0.214940	0.561370	0.424010
O341	O34	0.235400	0.621560	0.336340
C331	C33	0.220900	0.618800	0.393500
C341	C34	0.207700	0.685950	0.429610
O351	O35	0.233380	0.597920	0.559830
C351	C35	0.188100	0.685970	0.493420
C361	C36	0.177400	0.621290	0.534130
O361	O36	0.118290	0.599700	0.544840
O371	O37	0.714940	0.061370	0.924010
O381	O38	0.735400	0.121560	0.836340
C371	C37	0.720900	0.118800	0.893500
C381	C38	0.707700	0.185950	0.929610
O391	O39	0.733380	0.097920	0.059830
C391	C39	0.688100	0.185970	0.993420
C401	C40	0.677400	0.121290	0.034130
O401	O40	0.618290	0.099700	0.044840
O411	O41	0.285060	0.438630	0.924010
O421	O42	0.264600	0.378440	0.836340
C411	C41	0.279100	0.381200	0.893500
C421	C42	0.292300	0.314050	0.929610
O431	O43	0.266620	0.402080	0.059830
C431	C43	0.311900	0.314030	0.993420
C441	C44	0.322600	0.378710	0.034130
O441	O44	0.381710	0.400300	0.044840
O451	O45	0.785060	0.938630	0.424010
O461	O46	0.764600	0.878440	0.336340
C451	C45	0.779100	0.881200	0.393500
C461	C46	0.792300	0.814050	0.429610
O471	O47	0.766620	0.902080	0.559830
C471	C47	0.811900	0.814030	0.493420
C481	C48	0.822600	0.878710	0.534130
O481	O48	0.881710	0.900300	0.544840
O491	O49	0.811370	0.035060	0.174010
O501	O50	0.871560	0.014600	0.086340
C491	C49	0.868800	0.029100	0.143500
C501	C50	0.935950	0.042300	0.179610
O511	O51	0.847920	0.016620	0.309830
C511	C51	0.935970	0.061900	0.243420
C521	C52	0.871290	0.072600	0.284130
O521	O52	0.849700	0.131710	0.294840
O531	O53	0.311370	0.535060	0.674010
O541	O54	0.371560	0.514600	0.586340
C531	C53	0.368800	0.529100	0.643500
C541	C54	0.435950	0.542300	0.679610
O551	O55	0.347920	0.516620	0.809830
C551	C55	0.435970	0.561900	0.743420
C561	C56	0.371290	0.572600	0.784130
O561	O56	0.349700	0.631710	0.794840
O571	O57	0.688630	0.964940	0.674010
O581	O58	0.628440	0.985400	0.586340
C571	C57	0.631200	0.970900	0.643500
C581	C58	0.564050	0.957700	0.679610
O591	O59	0.652080	0.983380	0.809830
C591	C59	0.564030	0.938100	0.743420
C601	C60	0.628710	0.927400	0.784130
O601	O60	0.650300	0.868290	0.794840
O611	O61	0.188630	0.464940	0.174010
O621	O62	0.128440	0.485400	0.086340
C611	C61	0.131200	0.470900	0.143500
C621	C62	0.064050	0.457700	0.179610
O631	O63	0.152080	0.483380	0.309830
C631	C63	0.064030	0.438100	0.243420
C641	C64	0.128710	0.427400	0.284130
O641	O64	0.150300	0.368290	0.294840
O651	O65	0.714940	0.438630	0.924010
O661	O66	0.735400	0.378440	0.836340
C651	C65	0.720900	0.381200	0.893500
C661	C66	0.707700	0.314050	0.929610
O671	O67	0.733380	0.402080	0.059830
C671	C67	0.688100	0.314030	0.993420
C681	C68	0.677400	0.378710	0.034130
O681	O68	0.618290	0.400300	0.044840
O691	O69	0.214940	0.938630	0.424010
O701	O70	0.235400	0.878440	0.336340
C691	C69	0.220900	0.881200	0.393500
C701	C70	0.207700	0.814050	0.429610
O711	O71	0.233380	0.902080	0.559830
C711	C71	0.188100	0.814030	0.493420
C721	C72	0.177400	0.878710	0.534130
O721	O72	0.118290	0.900300	0.544840
O731	O73	0.785060	0.561370	0.424010
O741	O74	0.764600	0.621560	0.336340
C731	C73	0.779100	0.618800	0.393500
C741	C74	0.792300	0.685950	0.429610
O751	O75	0.766620	0.597920	0.559830
C751	C75	0.811900	0.685970	0.493420
C761	C76	0.822600	0.621290	0.534130
O761	O76	0.881710	0.599700	0.544840
O771	O77	0.285060	0.061370	0.924010
O781	O78	0.264600	0.121560	0.836340
C771	C77	0.279100	0.118800	0.893500
C781	C78	0.292300	0.185950	0.929610
O791	O79	0.266620	0.097920	0.059830
C791	C79	0.311900	0.185970	0.993420
C801	C80	0.322600	0.121290	0.034130
O801	O80	0.381710	0.099700	0.044840
O811	O81	0.311370	0.964940	0.674010
O821	O82	0.371560	0.985400	0.586340
C811	C81	0.368800	0.970900	0.643500
C821	C82	0.435950	0.957700	0.679610
O831	O83	0.347920	0.983380	0.809830
C831	C83	0.435970	0.938100	0.743420
C841	C84	0.371290	0.927400	0.784130
O841	O84	0.349700	0.868290	0.794840
O851	O85	0.811370	0.464940	0.174010
O861	O86	0.871560	0.485400	0.086340
C851	C85	0.868800	0.470900	0.143500
C861	C86	0.935950	0.457700	0.179610
O871	O87	0.847920	0.483380	0.309830
C871	C87	0.935970	0.438100	0.243420
C881	C88	0.871290	0.427400	0.284130
O881	O88	0.849700	0.368290	0.294840
O891	O89	0.188630	0.035060	0.174010
O901	O90	0.128440	0.014600	0.086340
C891	C89	0.131200	0.029100	0.143500
C901	C90	0.064050	0.042300	0.179610
O911	O91	0.152080	0.016620	0.309830
C911	C91	0.064030	0.061900	0.243420
C921	C92	0.128710	0.072600	0.284130
O921	O92	0.150300	0.131710	0.294840
O931	O93	0.688630	0.535060	0.674010
O941	O94	0.628440	0.514600	0.586340
C931	C93	0.631200	0.529100	0.643500
C941	C94	0.564050	0.542300	0.679610
O951	O95	0.652080	0.516620	0.809830
C951	C95	0.564030	0.561900	0.743420
C961	C96	0.628710	0.572600	0.784130
O961	O96	0.650300	0.631710	0.794840
O971	O97	0.785060	0.438630	0.575990
O981	O98	0.764600	0.378440	0.663660
C971	C97	0.779100	0.381200	0.606500
C981	C98	0.792300	0.314050	0.570390
O991	O99	0.766620	0.402080	0.440170
C991	C99	0.811900	0.314030	0.506580
C1001	C100	0.822600	0.378710	0.465870
O1001	O100	0.881710	0.400300	0.455160
O1011	O101	0.285060	0.938630	0.075990
O1021	O102	0.264600	0.878440	0.163660
C1011	C101	0.279100	0.881200	0.106500
C1021	C102	0.292300	0.814050	0.070390
O1031	O103	0.266620	0.902080	0.940170
C1031	C103	0.311900	0.814030	0.006580
C1041	C104	0.322600	0.878710	0.965870
O1041	O104	0.381710	0.900300	0.955160
O1051	O105	0.714940	0.561370	0.075990
O1061	O106	0.735400	0.621560	0.163660
C1051	C105	0.720900	0.618800	0.106500
C1061	C106	0.707700	0.685950	0.070390
O1071	O107	0.733380	0.597920	0.940170
C1071	C107	0.688100	0.685970	0.006580
C1081	C108	0.677400	0.621290	0.965870
O1081	O108	0.618290	0.599700	0.955160
O1091	O109	0.214940	0.061370	0.575990
O1101	O110	0.235400	0.121560	0.663660
C1091	C109	0.220900	0.118800	0.606500
C1101	C110	0.207700	0.185950	0.570390
O1111	O111	0.233380	0.097920	0.440170
C1111	C111	0.188100	0.185970	0.506580
C1121	C112	0.177400	0.121290	0.465870
O1121	O112	0.118290	0.099700	0.455160
O1131	O113	0.188630	0.964940	0.825990
O1141	O114	0.128440	0.985400	0.913660
C1131	C113	0.131200	0.970900	0.856500
C1141	C114	0.064050	0.957700	0.820390
O1151	O115	0.152080	0.983380	0.690170
C1151	C115	0.064030	0.938100	0.756580
C1161	C116	0.128710	0.927400	0.715870
O1161	O116	0.150300	0.868290	0.705160
O1171	O117	0.688630	0.464940	0.325990
O1181	O118	0.628440	0.485400	0.413660
C1171	C117	0.631200	0.470900	0.356500
C1181	C118	0.564050	0.457700	0.320390
O1191	O119	0.652080	0.483380	0.190170
C1191	C119	0.564030	0.438100	0.256580
C1201	C120	0.628710	0.427400	0.215870
O1201	O120	0.650300	0.368290	0.205160
O1211	O121	0.311370	0.035060	0.325990
O1221	O122	0.371560	0.014600	0.413660
C1211	C121	0.368800	0.029100	0.356500
C1221	C122	0.435950	0.042300	0.320390
O1231	O123	0.347920	0.016620	0.190170
C1231	C123	0.435970	0.061900	0.256580
C1241	C124	0.371290	0.072600	0.215870
O1241	O124	0.349700	0.131710	0.205160
O1251	O125	0.811370	0.535060	0.825990
O1261	O126	0.871560	0.514600	0.913660
C1251	C125	0.868800	0.529100	0.856500
C1261	C126	0.935950	0.542300	0.820390
O1271	O127	0.847920	0.516620	0.690170
C1271	C127	0.935970	0.561900	0.756580
C1281	C128	0.871290	0.572600	0.715870
O1281	O128	0.849700	0.631710	0.705160
Zn11	Zn1	0.276470	0.473530	0.125000
Zn21	Zn2	0.223530	0.526470	0.625000
Zn31	Zn3	0.776470	0.026470	0.375000
Zn41	Zn4	0.723530	0.973530	0.875000
Zn51	Zn5	0.223530	0.473530	0.375000
Zn61	Zn6	0.276470	0.526470	0.875000
Zn71	Zn7	0.723530	0.026470	0.125000
Zn81	Zn8	0.776470	0.973530	0.625000
Zn91	Zn9	0.723530	0.526470	0.875000
Zn101	Zn10	0.776470	0.473530	0.375000
Zn111	Zn11	0.223530	0.973530	0.625000
Zn121	Zn12	0.276470	0.026470	0.125000
Zn131	Zn13	0.776470	0.526470	0.625000
Zn141	Zn14	0.723530	0.473530	0.125000
Zn151	Zn15	0.276470	0.973530	0.875000
Zn161	Zn16	0.223530	0.026470	0.375000
C1291	C129	0.283600	0.750000	0.100200
H11	H1	0.271200	0.750000	0.142700
C1301	C130	0.321200	0.750000	0.976300
H21	H2	0.334200	0.750000	0.934000
C1311	C131	0.216400	0.250000	0.600200
H31	H3	0.228800	0.250000	0.642700
C1321	C132	0.178800	0.250000	0.476300
H41	H4	0.165800	0.250000	0.434000
C1331	C133	0.500000	0.033600	0.350200
H51	H5	0.500000	0.021200	0.392700
C1341	C134	0.500000	0.071200	0.226300
H61	H6	0.500000	0.084200	0.184000
C1351	C135	0.000000	0.533600	0.850200
H71	H7	0.000000	0.521200	0.892700
C1361	C136	0.000000	0.571200	0.726300
H81	H8	0.000000	0.584200	0.684000
C1371	C137	0.000000	0.966400	0.850200
H91	H9	0.000000	0.978800	0.892700
C1381	C138	0.000000	0.928800	0.726300
H101	H10	0.000000	0.915800	0.684000
C1391	C139	0.500000	0.466400	0.350200
H111	H11	0.500000	0.478800	0.392700
C1401	C140	0.500000	0.428800	0.226300
H121	H12	0.500000	0.415800	0.184000
C1411	C141	0.216400	0.750000	0.399800
H131	H13	0.228800	0.750000	0.357300
C1421	C142	0.178800	0.750000	0.523700
H141	H14	0.165800	0.750000	0.566000
C1431	C143	0.283600	0.250000	0.899800
H151	H15	0.271200	0.250000	0.857300
C1441	C144	0.321200	0.250000	0.023700
H161	H16	0.334200	0.250000	0.066000
C1451	C145	0.000000	0.033600	0.149800
H171	H17	0.000000	0.021200	0.107300
C1461	C146	0.000000	0.071200	0.273700
H181	H18	0.000000	0.084200	0.316000
C1471	C147	0.500000	0.533600	0.649800
H191	H19	0.500000	0.521200	0.607300
C1481	C148	0.500000	0.571200	0.773700
H201	H20	0.500000	0.584200	0.816000
C1491	C149	0.500000	0.966400	0.649800
H211	H21	0.500000	0.978800	0.607300
C1501	C150	0.500000	0.928800	0.773700
H221	H22	0.500000	0.915800	0.816000
C1511	C151	0.000000	0.466400	0.149800
H231	H23	0.000000	0.478800	0.107300
C1521	C152	0.000000	0.428800	0.273700
H241	H24	0.000000	0.415800	0.316000
C1531	C153	0.716400	0.250000	0.899800
H251	H25	0.728800	0.250000	0.857300
C1541	C154	0.678800	0.250000	0.023700
H261	H26	0.665800	0.250000	0.066000
C1551	C155	0.783600	0.750000	0.399800
H271	H27	0.771200	0.750000	0.357300
C1561	C156	0.821200	0.750000	0.523700
H281	H28	0.834200	0.750000	0.566000
C1571	C157	0.783600	0.250000	0.600200
H291	H29	0.771200	0.250000	0.642700
C1581	C158	0.821200	0.250000	0.476300
H301	H30	0.834200	0.250000	0.434000
C1591	C159	0.716400	0.750000	0.100200
H311	H31	0.728800	0.750000	0.142700
C1601	C160	0.678800	0.750000	0.976300
H321	H32	0.665800	0.750000	0.934000
