data_QODHUO07_clean_PM
_symmetry_space_group_name_H-M	'P1'
_cell_length_a	22.070000
_cell_length_b	16.432800
_cell_length_c	25.617300
_cell_angle_alpha	90.000000
_cell_angle_beta	115.315000
_cell_angle_gamma	90.000000
_symmetry_Int_Tables_number 1

loop_
_symmetry_equiv_pos_as_xyz
'x,y,z'

loop_
_atom_site_label
_atom_site_type_symbol
_atom_site_fract_x
_atom_site_fract_y
_atom_site_fract_z
Ag11	Ag1	0.344170	0.957610	0.367800
Ag21	Ag2	0.322820	0.252820	0.867200
C11	C1	0.123900	0.256800	0.501860
C21	C2	0.033200	0.312300	0.410900
H11	H1	0.054900	0.291400	0.389700
C31	C3	0.444100	0.343500	0.964800
H21	H2	0.424100	0.315600	0.984900
C41	C4	0.597800	0.470200	0.000700
C51	C5	0.778000	0.637900	0.009200
H31	H3	0.798900	0.634200	0.049200
C61	C6	0.060000	0.301800	0.469800
C71	C7	0.235200	0.064600	0.388400
H41	H4	0.213200	0.057500	0.348600
C81	C8	0.503600	0.383700	0.996300
H51	H5	0.523200	0.382300	0.036500
C91	C9	0.720100	0.652100	0.892200
H61	H6	0.699900	0.656600	0.852200
C101	C10	0.209700	0.226400	0.587300
C111	C11	0.297900	0.084300	0.504700
H71	H7	0.320200	0.088800	0.544600
C121	C12	0.533600	0.426400	0.966670
C131	C13	0.026000	0.335300	0.499600
H81	H8	0.043400	0.330600	0.539600
C141	C14	0.966900	0.375300	0.469400
H91	H9	0.944600	0.397100	0.489800
C151	C15	0.243300	0.237100	0.651000
C161	C16	0.682500	0.551800	0.006600
C171	C17	0.715500	0.601500	0.977500
C181	C18	0.680300	0.502200	0.087900
C191	C19	0.679100	0.455900	0.181000
H101	H10	0.635000	0.438400	0.160900
C201	C20	0.205400	0.172100	0.505100
C211	C21	0.973400	0.354500	0.383900
H111	H11	0.956200	0.362300	0.344100
C221	C22	0.807400	0.504900	0.242500
H121	H12	0.851500	0.521600	0.263400
C231	C23	0.235900	0.121400	0.474400
C241	C24	0.325600	0.040400	0.473800
H131	H13	0.367600	0.016900	0.494100
C251	C25	0.203800	0.109900	0.415000
H141	H14	0.161800	0.132500	0.393400
C261	C26	0.712400	0.491500	0.151700
C271	C27	0.807900	0.679800	0.979000
H151	H15	0.849300	0.704300	0.000100
C281	C28	0.686500	0.610000	0.918300
H161	H16	0.644600	0.587500	0.896200
C291	C29	0.502400	0.427100	0.907000
H171	H17	0.520600	0.456300	0.886000
C301	C30	0.443600	0.383500	0.879000
H181	H18	0.423700	0.382700	0.838800
C311	C31	0.711900	0.446600	0.240400
H191	H19	0.689000	0.422700	0.259600
C321	C32	0.215500	0.288600	0.677800
H201	H20	0.177000	0.318300	0.656100
C331	C33	0.245800	0.295200	0.737200
H211	H21	0.226900	0.330200	0.754700
C341	C34	0.302300	0.197800	0.684900
H221	H22	0.324100	0.165800	0.668200
C351	C35	0.778300	0.516700	0.183300
H231	H23	0.802200	0.540900	0.165100
C361	C36	0.328400	0.207200	0.744100
H241	H24	0.367600	0.179200	0.766700
N11	N1	0.939220	0.384600	0.411730
N21	N2	0.295470	0.030200	0.416700
N31	N3	0.300800	0.253900	0.770890
N41	N4	0.152950	0.268000	0.559100
N51	N5	0.148000	0.210900	0.472370
N61	N6	0.238130	0.177600	0.562650
N71	N7	0.413500	0.342300	0.906830
N81	N8	0.780200	0.686800	0.921430
N91	N9	0.775800	0.471000	0.271450
N101	N10	0.622870	0.462400	0.058530
N111	N11	0.626250	0.511500	0.972950
N121	N12	0.711520	0.549500	0.064600
Ag31	Ag3	0.844170	0.457610	0.367800
Ag41	Ag4	0.822820	0.752820	0.867200
C371	C37	0.623900	0.756800	0.501860
C381	C38	0.533200	0.812300	0.410900
H251	H25	0.554900	0.791400	0.389700
C391	C39	0.944100	0.843500	0.964800
H261	H26	0.924100	0.815600	0.984900
C401	C40	0.097800	0.970200	0.000700
C411	C41	0.278000	0.137900	0.009200
H271	H27	0.298900	0.134200	0.049200
C421	C42	0.560000	0.801800	0.469800
C431	C43	0.735200	0.564600	0.388400
H281	H28	0.713200	0.557500	0.348600
C441	C44	0.003600	0.883700	0.996300
H291	H29	0.023200	0.882300	0.036500
C451	C45	0.220100	0.152100	0.892200
H301	H30	0.199900	0.156600	0.852200
C461	C46	0.709700	0.726400	0.587300
C471	C47	0.797900	0.584300	0.504700
H311	H31	0.820200	0.588800	0.544600
C481	C48	0.033600	0.926400	0.966670
C491	C49	0.526000	0.835300	0.499600
H321	H32	0.543400	0.830600	0.539600
C501	C50	0.466900	0.875300	0.469400
H331	H33	0.444600	0.897100	0.489800
C511	C51	0.743300	0.737100	0.651000
C521	C52	0.182500	0.051800	0.006600
C531	C53	0.215500	0.101500	0.977500
C541	C54	0.180300	0.002200	0.087900
C551	C55	0.179100	0.955900	0.181000
H341	H34	0.135000	0.938400	0.160900
C561	C56	0.705400	0.672100	0.505100
C571	C57	0.473400	0.854500	0.383900
H351	H35	0.456200	0.862300	0.344100
C581	C58	0.307400	0.004900	0.242500
H361	H36	0.351500	0.021600	0.263400
C591	C59	0.735900	0.621400	0.474400
C601	C60	0.825600	0.540400	0.473800
H371	H37	0.867600	0.516900	0.494100
C611	C61	0.703800	0.609900	0.415000
H381	H38	0.661800	0.632500	0.393400
C621	C62	0.212400	0.991500	0.151700
C631	C63	0.307900	0.179800	0.979000
H391	H39	0.349300	0.204300	0.000100
C641	C64	0.186500	0.110000	0.918300
H401	H40	0.144600	0.087500	0.896200
C651	C65	0.002400	0.927100	0.907000
H411	H41	0.020600	0.956300	0.886000
C661	C66	0.943600	0.883500	0.879000
H421	H42	0.923700	0.882700	0.838800
C671	C67	0.211900	0.946600	0.240400
H431	H43	0.189000	0.922700	0.259600
C681	C68	0.715500	0.788600	0.677800
H441	H44	0.677000	0.818300	0.656100
C691	C69	0.745800	0.795200	0.737200
H451	H45	0.726900	0.830200	0.754700
C701	C70	0.802300	0.697800	0.684900
H461	H46	0.824100	0.665800	0.668200
C711	C71	0.278300	0.016700	0.183300
H471	H47	0.302200	0.040900	0.165100
C721	C72	0.828400	0.707200	0.744100
H481	H48	0.867600	0.679200	0.766700
N131	N13	0.439220	0.884600	0.411730
N141	N14	0.795470	0.530200	0.416700
N151	N15	0.800800	0.753900	0.770890
N161	N16	0.652950	0.768000	0.559100
N171	N17	0.648000	0.710900	0.472370
N181	N18	0.738130	0.677600	0.562650
N191	N19	0.913500	0.842300	0.906830
N201	N20	0.280200	0.186800	0.921430
N211	N21	0.275800	0.971000	0.271450
N221	N22	0.122870	0.962400	0.058530
N231	N23	0.126250	0.011500	0.972950
N241	N24	0.211520	0.049500	0.064600
Ag51	Ag5	0.655830	0.957610	0.132200
Ag61	Ag6	0.677180	0.252820	0.632800
C731	C73	0.876100	0.256800	0.998140
C741	C74	0.966800	0.312300	0.089100
H491	H49	0.945100	0.291400	0.110300
C751	C75	0.555900	0.343500	0.535200
H501	H50	0.575900	0.315600	0.515100
C761	C76	0.402200	0.470200	0.499300
C771	C77	0.222000	0.637900	0.490800
H511	H51	0.201100	0.634200	0.450800
C781	C78	0.940000	0.301800	0.030200
C791	C79	0.764800	0.064600	0.111600
H521	H52	0.786800	0.057500	0.151400
C801	C80	0.496400	0.383700	0.503700
H531	H53	0.476800	0.382300	0.463500
C811	C81	0.279900	0.652100	0.607800
H541	H54	0.300100	0.656600	0.647800
C821	C82	0.790300	0.226400	0.912700
C831	C83	0.702100	0.084300	0.995300
H551	H55	0.679800	0.088800	0.955400
C841	C84	0.466400	0.426400	0.533330
C851	C85	0.974000	0.335300	0.000400
H561	H56	0.956600	0.330600	0.960400
C861	C86	0.033100	0.375300	0.030600
H571	H57	0.055400	0.397100	0.010200
C871	C87	0.756700	0.237100	0.849000
C881	C88	0.317500	0.551800	0.493400
C891	C89	0.284500	0.601500	0.522500
C901	C90	0.319700	0.502200	0.412100
C911	C91	0.320900	0.455900	0.319000
H581	H58	0.365000	0.438400	0.339100
C921	C92	0.794600	0.172100	0.994900
C931	C93	0.026600	0.354500	0.116100
H591	H59	0.043800	0.362300	0.155900
C941	C94	0.192600	0.504900	0.257500
H601	H60	0.148500	0.521600	0.236600
C951	C95	0.764100	0.121400	0.025600
C961	C96	0.674400	0.040400	0.026200
H611	H61	0.632400	0.016900	0.005900
C971	C97	0.796200	0.109900	0.085000
H621	H62	0.838200	0.132500	0.106600
C981	C98	0.287600	0.491500	0.348300
C991	C99	0.192100	0.679800	0.521000
H631	H63	0.150700	0.704300	0.499900
C1001	C100	0.313500	0.610000	0.581700
H641	H64	0.355400	0.587500	0.603800
C1011	C101	0.497600	0.427100	0.593000
H651	H65	0.479400	0.456300	0.614000
C1021	C102	0.556400	0.383500	0.621000
H661	H66	0.576300	0.382700	0.661200
C1031	C103	0.288100	0.446600	0.259600
H671	H67	0.311000	0.422700	0.240400
C1041	C104	0.784500	0.288600	0.822200
H681	H68	0.823000	0.318300	0.843900
C1051	C105	0.754200	0.295200	0.762800
H691	H69	0.773100	0.330200	0.745300
C1061	C106	0.697700	0.197800	0.815100
H701	H70	0.675900	0.165800	0.831800
C1071	C107	0.221700	0.516700	0.316700
H711	H71	0.197800	0.540900	0.334900
C1081	C108	0.671600	0.207200	0.755900
H721	H72	0.632400	0.179200	0.733300
N251	N25	0.060780	0.384600	0.088270
N261	N26	0.704530	0.030200	0.083300
N271	N27	0.699200	0.253900	0.729110
N281	N28	0.847050	0.268000	0.940900
N291	N29	0.852000	0.210900	0.027630
N301	N30	0.761870	0.177600	0.937350
N311	N31	0.586500	0.342300	0.593170
N321	N32	0.219800	0.686800	0.578570
N331	N33	0.224200	0.471000	0.228550
N341	N34	0.377130	0.462400	0.441470
N351	N35	0.373750	0.511500	0.527050
N361	N36	0.288480	0.549500	0.435400
Ag71	Ag7	0.155830	0.457610	0.132200
Ag81	Ag8	0.177180	0.752820	0.632800
C1091	C109	0.376100	0.756800	0.998140
C1101	C110	0.466800	0.812300	0.089100
H731	H73	0.445100	0.791400	0.110300
C1111	C111	0.055900	0.843500	0.535200
H741	H74	0.075900	0.815600	0.515100
C1121	C112	0.902200	0.970200	0.499300
C1131	C113	0.722000	0.137900	0.490800
H751	H75	0.701100	0.134200	0.450800
C1141	C114	0.440000	0.801800	0.030200
C1151	C115	0.264800	0.564600	0.111600
H761	H76	0.286800	0.557500	0.151400
C1161	C116	0.996400	0.883700	0.503700
H771	H77	0.976800	0.882300	0.463500
C1171	C117	0.779900	0.152100	0.607800
H781	H78	0.800100	0.156600	0.647800
C1181	C118	0.290300	0.726400	0.912700
C1191	C119	0.202100	0.584300	0.995300
H791	H79	0.179800	0.588800	0.955400
C1201	C120	0.966400	0.926400	0.533330
C1211	C121	0.474000	0.835300	0.000400
H801	H80	0.456600	0.830600	0.960400
C1221	C122	0.533100	0.875300	0.030600
H811	H81	0.555400	0.897100	0.010200
C1231	C123	0.256700	0.737100	0.849000
C1241	C124	0.817500	0.051800	0.493400
C1251	C125	0.784500	0.101500	0.522500
C1261	C126	0.819700	0.002200	0.412100
C1271	C127	0.820900	0.955900	0.319000
H821	H82	0.865000	0.938400	0.339100
C1281	C128	0.294600	0.672100	0.994900
C1291	C129	0.526600	0.854500	0.116100
H831	H83	0.543800	0.862300	0.155900
C1301	C130	0.692600	0.004900	0.257500
H841	H84	0.648500	0.021600	0.236600
C1311	C131	0.264100	0.621400	0.025600
C1321	C132	0.174400	0.540400	0.026200
H851	H85	0.132400	0.516900	0.005900
C1331	C133	0.296200	0.609900	0.085000
H861	H86	0.338200	0.632500	0.106600
C1341	C134	0.787600	0.991500	0.348300
C1351	C135	0.692100	0.179800	0.521000
H871	H87	0.650700	0.204300	0.499900
C1361	C136	0.813500	0.110000	0.581700
H881	H88	0.855400	0.087500	0.603800
C1371	C137	0.997600	0.927100	0.593000
H891	H89	0.979400	0.956300	0.614000
C1381	C138	0.056400	0.883500	0.621000
H901	H90	0.076300	0.882700	0.661200
C1391	C139	0.788100	0.946600	0.259600
H911	H91	0.811000	0.922700	0.240400
C1401	C140	0.284500	0.788600	0.822200
H921	H92	0.323000	0.818300	0.843900
C1411	C141	0.254200	0.795200	0.762800
H931	H93	0.273100	0.830200	0.745300
C1421	C142	0.197700	0.697800	0.815100
H941	H94	0.175900	0.665800	0.831800
C1431	C143	0.721700	0.016700	0.316700
H951	H95	0.697800	0.040900	0.334900
C1441	C144	0.171600	0.707200	0.755900
H961	H96	0.132400	0.679200	0.733300
N371	N37	0.560780	0.884600	0.088270
N381	N38	0.204530	0.530200	0.083300
N391	N39	0.199200	0.753900	0.729110
N401	N40	0.347050	0.768000	0.940900
N411	N41	0.352000	0.710900	0.027630
N421	N42	0.261870	0.677600	0.937350
N431	N43	0.086500	0.842300	0.593170
N441	N44	0.719800	0.186800	0.578570
N451	N45	0.724200	0.971000	0.228550
N461	N46	0.877130	0.962400	0.441470
N471	N47	0.873750	0.011500	0.527050
N481	N48	0.788480	0.049500	0.435400
Ag91	Ag9	0.655830	0.042390	0.632200
Ag101	Ag10	0.677180	0.747180	0.132800
C1451	C145	0.876100	0.743200	0.498140
C1461	C146	0.966800	0.687700	0.589100
H971	H97	0.945100	0.708600	0.610300
C1471	C147	0.555900	0.656500	0.035200
H981	H98	0.575900	0.684400	0.015100
C1481	C148	0.402200	0.529800	0.999300
C1491	C149	0.222000	0.362100	0.990800
H991	H99	0.201100	0.365800	0.950800
C1501	C150	0.940000	0.698200	0.530200
C1511	C151	0.764800	0.935400	0.611600
H1001	H100	0.786800	0.942500	0.651400
C1521	C152	0.496400	0.616300	0.003700
H1011	H101	0.476800	0.617700	0.963500
C1531	C153	0.279900	0.347900	0.107800
H1021	H102	0.300100	0.343400	0.147800
C1541	C154	0.790300	0.773600	0.412700
C1551	C155	0.702100	0.915700	0.495300
H1031	H103	0.679800	0.911200	0.455400
C1561	C156	0.466400	0.573600	0.033330
C1571	C157	0.974000	0.664700	0.500400
H1041	H104	0.956600	0.669400	0.460400
C1581	C158	0.033100	0.624700	0.530600
H1051	H105	0.055400	0.602900	0.510200
C1591	C159	0.756700	0.762900	0.349000
C1601	C160	0.317500	0.448200	0.993400
C1611	C161	0.284500	0.398500	0.022500
C1621	C162	0.319700	0.497800	0.912100
C1631	C163	0.320900	0.544100	0.819000
H1061	H106	0.365000	0.561600	0.839100
C1641	C164	0.794600	0.827900	0.494900
C1651	C165	0.026600	0.645500	0.616100
H1071	H107	0.043800	0.637700	0.655900
C1661	C166	0.192600	0.495100	0.757500
H1081	H108	0.148500	0.478400	0.736600
C1671	C167	0.764100	0.878600	0.525600
C1681	C168	0.674400	0.959600	0.526200
H1091	H109	0.632400	0.983100	0.505900
C1691	C169	0.796200	0.890100	0.585000
H1101	H110	0.838200	0.867500	0.606600
C1701	C170	0.287600	0.508500	0.848300
C1711	C171	0.192100	0.320200	0.021000
H1111	H111	0.150700	0.295700	0.999900
C1721	C172	0.313500	0.390000	0.081700
H1121	H112	0.355400	0.412500	0.103800
C1731	C173	0.497600	0.572900	0.093000
H1131	H113	0.479400	0.543700	0.114000
C1741	C174	0.556400	0.616500	0.121000
H1141	H114	0.576300	0.617300	0.161200
C1751	C175	0.288100	0.553400	0.759600
H1151	H115	0.311000	0.577300	0.740400
C1761	C176	0.784500	0.711400	0.322200
H1161	H116	0.823000	0.681700	0.343900
C1771	C177	0.754200	0.704800	0.262800
H1171	H117	0.773100	0.669800	0.245300
C1781	C178	0.697700	0.802200	0.315100
H1181	H118	0.675900	0.834200	0.331800
C1791	C179	0.221700	0.483300	0.816700
H1191	H119	0.197800	0.459100	0.834900
C1801	C180	0.671600	0.792800	0.255900
H1201	H120	0.632400	0.820800	0.233300
N491	N49	0.060780	0.615400	0.588270
N501	N50	0.704530	0.969800	0.583300
N511	N51	0.699200	0.746100	0.229110
N521	N52	0.847050	0.732000	0.440900
N531	N53	0.852000	0.789100	0.527630
N541	N54	0.761870	0.822400	0.437350
N551	N55	0.586500	0.657700	0.093170
N561	N56	0.219800	0.313200	0.078570
N571	N57	0.224200	0.529000	0.728550
N581	N58	0.377130	0.537600	0.941470
N591	N59	0.373750	0.488500	0.027050
N601	N60	0.288480	0.450500	0.935400
Ag111	Ag11	0.155830	0.542390	0.632200
Ag121	Ag12	0.177180	0.247180	0.132800
C1811	C181	0.376100	0.243200	0.498140
C1821	C182	0.466800	0.187700	0.589100
H1211	H121	0.445100	0.208600	0.610300
C1831	C183	0.055900	0.156500	0.035200
H1221	H122	0.075900	0.184400	0.015100
C1841	C184	0.902200	0.029800	0.999300
C1851	C185	0.722000	0.862100	0.990800
H1231	H123	0.701100	0.865800	0.950800
C1861	C186	0.440000	0.198200	0.530200
C1871	C187	0.264800	0.435400	0.611600
H1241	H124	0.286800	0.442500	0.651400
C1881	C188	0.996400	0.116300	0.003700
H1251	H125	0.976800	0.117700	0.963500
C1891	C189	0.779900	0.847900	0.107800
H1261	H126	0.800100	0.843400	0.147800
C1901	C190	0.290300	0.273600	0.412700
C1911	C191	0.202100	0.415700	0.495300
H1271	H127	0.179800	0.411200	0.455400
C1921	C192	0.966400	0.073600	0.033330
C1931	C193	0.474000	0.164700	0.500400
H1281	H128	0.456600	0.169400	0.460400
C1941	C194	0.533100	0.124700	0.530600
H1291	H129	0.555400	0.102900	0.510200
C1951	C195	0.256700	0.262900	0.349000
C1961	C196	0.817500	0.948200	0.993400
C1971	C197	0.784500	0.898500	0.022500
C1981	C198	0.819700	0.997800	0.912100
C1991	C199	0.820900	0.044100	0.819000
H1301	H130	0.865000	0.061600	0.839100
C2001	C200	0.294600	0.327900	0.494900
C2011	C201	0.526600	0.145500	0.616100
H1311	H131	0.543800	0.137700	0.655900
C2021	C202	0.692600	0.995100	0.757500
H1321	H132	0.648500	0.978400	0.736600
C2031	C203	0.264100	0.378600	0.525600
C2041	C204	0.174400	0.459600	0.526200
H1331	H133	0.132400	0.483100	0.505900
C2051	C205	0.296200	0.390100	0.585000
H1341	H134	0.338200	0.367500	0.606600
C2061	C206	0.787600	0.008500	0.848300
C2071	C207	0.692100	0.820200	0.021000
H1351	H135	0.650700	0.795700	0.999900
C2081	C208	0.813500	0.890000	0.081700
H1361	H136	0.855400	0.912500	0.103800
C2091	C209	0.997600	0.072900	0.093000
H1371	H137	0.979400	0.043700	0.114000
C2101	C210	0.056400	0.116500	0.121000
H1381	H138	0.076300	0.117300	0.161200
C2111	C211	0.788100	0.053400	0.759600
H1391	H139	0.811000	0.077300	0.740400
C2121	C212	0.284500	0.211400	0.322200
H1401	H140	0.323000	0.181700	0.343900
C2131	C213	0.254200	0.204800	0.262800
H1411	H141	0.273100	0.169800	0.245300
C2141	C214	0.197700	0.302200	0.315100
H1421	H142	0.175900	0.334200	0.331800
C2151	C215	0.721700	0.983300	0.816700
H1431	H143	0.697800	0.959100	0.834900
C2161	C216	0.171600	0.292800	0.255900
H1441	H144	0.132400	0.320800	0.233300
N611	N61	0.560780	0.115400	0.588270
N621	N62	0.204530	0.469800	0.583300
N631	N63	0.199200	0.246100	0.229110
N641	N64	0.347050	0.232000	0.440900
N651	N65	0.352000	0.289100	0.527630
N661	N66	0.261870	0.322400	0.437350
N671	N67	0.086500	0.157700	0.093170
N681	N68	0.719800	0.813200	0.078570
N691	N69	0.724200	0.029000	0.728550
N701	N70	0.877130	0.037600	0.941470
N711	N71	0.873750	0.988500	0.027050
N721	N72	0.788480	0.950500	0.935400
Ag131	Ag13	0.344170	0.042390	0.867800
Ag141	Ag14	0.322820	0.747180	0.367200
C2171	C217	0.123900	0.743200	0.001860
C2181	C218	0.033200	0.687700	0.910900
H1451	H145	0.054900	0.708600	0.889700
C2191	C219	0.444100	0.656500	0.464800
H1461	H146	0.424100	0.684400	0.484900
C2201	C220	0.597800	0.529800	0.500700
C2211	C221	0.778000	0.362100	0.509200
H1471	H147	0.798900	0.365800	0.549200
C2221	C222	0.060000	0.698200	0.969800
C2231	C223	0.235200	0.935400	0.888400
H1481	H148	0.213200	0.942500	0.848600
C2241	C224	0.503600	0.616300	0.496300
H1491	H149	0.523200	0.617700	0.536500
C2251	C225	0.720100	0.347900	0.392200
H1501	H150	0.699900	0.343400	0.352200
C2261	C226	0.209700	0.773600	0.087300
C2271	C227	0.297900	0.915700	0.004700
H1511	H151	0.320200	0.911200	0.044600
C2281	C228	0.533600	0.573600	0.466670
C2291	C229	0.026000	0.664700	0.999600
H1521	H152	0.043400	0.669400	0.039600
C2301	C230	0.966900	0.624700	0.969400
H1531	H153	0.944600	0.602900	0.989800
C2311	C231	0.243300	0.762900	0.151000
C2321	C232	0.682500	0.448200	0.506600
C2331	C233	0.715500	0.398500	0.477500
C2341	C234	0.680300	0.497800	0.587900
C2351	C235	0.679100	0.544100	0.681000
H1541	H154	0.635000	0.561600	0.660900
C2361	C236	0.205400	0.827900	0.005100
C2371	C237	0.973400	0.645500	0.883900
H1551	H155	0.956200	0.637700	0.844100
C2381	C238	0.807400	0.495100	0.742500
H1561	H156	0.851500	0.478400	0.763400
C2391	C239	0.235900	0.878600	0.974400
C2401	C240	0.325600	0.959600	0.973800
H1571	H157	0.367600	0.983100	0.994100
C2411	C241	0.203800	0.890100	0.915000
H1581	H158	0.161800	0.867500	0.893400
C2421	C242	0.712400	0.508500	0.651700
C2431	C243	0.807900	0.320200	0.479000
H1591	H159	0.849300	0.295700	0.500100
C2441	C244	0.686500	0.390000	0.418300
H1601	H160	0.644600	0.412500	0.396200
C2451	C245	0.502400	0.572900	0.407000
H1611	H161	0.520600	0.543700	0.386000
C2461	C246	0.443600	0.616500	0.379000
H1621	H162	0.423700	0.617300	0.338800
C2471	C247	0.711900	0.553400	0.740400
H1631	H163	0.689000	0.577300	0.759600
C2481	C248	0.215500	0.711400	0.177800
H1641	H164	0.177000	0.681700	0.156100
C2491	C249	0.245800	0.704800	0.237200
H1651	H165	0.226900	0.669800	0.254700
C2501	C250	0.302300	0.802200	0.184900
H1661	H166	0.324100	0.834200	0.168200
C2511	C251	0.778300	0.483300	0.683300
H1671	H167	0.802200	0.459100	0.665100
C2521	C252	0.328400	0.792800	0.244100
H1681	H168	0.367600	0.820800	0.266700
N731	N73	0.939220	0.615400	0.911730
N741	N74	0.295470	0.969800	0.916700
N751	N75	0.300800	0.746100	0.270890
N761	N76	0.152950	0.732000	0.059100
N771	N77	0.148000	0.789100	0.972370
N781	N78	0.238130	0.822400	0.062650
N791	N79	0.413500	0.657700	0.406830
N801	N80	0.780200	0.313200	0.421430
N811	N81	0.775800	0.529000	0.771450
N821	N82	0.622870	0.537600	0.558530
N831	N83	0.626250	0.488500	0.472950
N841	N84	0.711520	0.450500	0.564600
Ag151	Ag15	0.844170	0.542390	0.867800
Ag161	Ag16	0.822820	0.247180	0.367200
C2531	C253	0.623900	0.243200	0.001860
C2541	C254	0.533200	0.187700	0.910900
H1691	H169	0.554900	0.208600	0.889700
C2551	C255	0.944100	0.156500	0.464800
H1701	H170	0.924100	0.184400	0.484900
C2561	C256	0.097800	0.029800	0.500700
C2571	C257	0.278000	0.862100	0.509200
H1711	H171	0.298900	0.865800	0.549200
C2581	C258	0.560000	0.198200	0.969800
C2591	C259	0.735200	0.435400	0.888400
H1721	H172	0.713200	0.442500	0.848600
C2601	C260	0.003600	0.116300	0.496300
H1731	H173	0.023200	0.117700	0.536500
C2611	C261	0.220100	0.847900	0.392200
H1741	H174	0.199900	0.843400	0.352200
C2621	C262	0.709700	0.273600	0.087300
C2631	C263	0.797900	0.415700	0.004700
H1751	H175	0.820200	0.411200	0.044600
C2641	C264	0.033600	0.073600	0.466670
C2651	C265	0.526000	0.164700	0.999600
H1761	H176	0.543400	0.169400	0.039600
C2661	C266	0.466900	0.124700	0.969400
H1771	H177	0.444600	0.102900	0.989800
C2671	C267	0.743300	0.262900	0.151000
C2681	C268	0.182500	0.948200	0.506600
C2691	C269	0.215500	0.898500	0.477500
C2701	C270	0.180300	0.997800	0.587900
C2711	C271	0.179100	0.044100	0.681000
H1781	H178	0.135000	0.061600	0.660900
C2721	C272	0.705400	0.327900	0.005100
C2731	C273	0.473400	0.145500	0.883900
H1791	H179	0.456200	0.137700	0.844100
C2741	C274	0.307400	0.995100	0.742500
H1801	H180	0.351500	0.978400	0.763400
C2751	C275	0.735900	0.378600	0.974400
C2761	C276	0.825600	0.459600	0.973800
H1811	H181	0.867600	0.483100	0.994100
C2771	C277	0.703800	0.390100	0.915000
H1821	H182	0.661800	0.367500	0.893400
C2781	C278	0.212400	0.008500	0.651700
C2791	C279	0.307900	0.820200	0.479000
H1831	H183	0.349300	0.795700	0.500100
C2801	C280	0.186500	0.890000	0.418300
H1841	H184	0.144600	0.912500	0.396200
C2811	C281	0.002400	0.072900	0.407000
H1851	H185	0.020600	0.043700	0.386000
C2821	C282	0.943600	0.116500	0.379000
H1861	H186	0.923700	0.117300	0.338800
C2831	C283	0.211900	0.053400	0.740400
H1871	H187	0.189000	0.077300	0.759600
C2841	C284	0.715500	0.211400	0.177800
H1881	H188	0.677000	0.181700	0.156100
C2851	C285	0.745800	0.204800	0.237200
H1891	H189	0.726900	0.169800	0.254700
C2861	C286	0.802300	0.302200	0.184900
H1901	H190	0.824100	0.334200	0.168200
C2871	C287	0.278300	0.983300	0.683300
H1911	H191	0.302200	0.959100	0.665100
C2881	C288	0.828400	0.292800	0.244100
H1921	H192	0.867600	0.320800	0.266700
N851	N85	0.439220	0.115400	0.911730
N861	N86	0.795470	0.469800	0.916700
N871	N87	0.800800	0.246100	0.270890
N881	N88	0.652950	0.232000	0.059100
N891	N89	0.648000	0.289100	0.972370
N901	N90	0.738130	0.322400	0.062650
N911	N91	0.913500	0.157700	0.406830
N921	N92	0.280200	0.813200	0.421430
N931	N93	0.275800	0.029000	0.771450
N941	N94	0.122870	0.037600	0.558530
N951	N95	0.126250	0.988500	0.472950
N961	N96	0.211520	0.950500	0.564600
