data_QODHUO09_clean_PM
_symmetry_space_group_name_H-M	'P1'
_cell_length_a	22.116200
_cell_length_b	16.283100
_cell_length_c	25.643300
_cell_angle_alpha	90.000000
_cell_angle_beta	115.366000
_cell_angle_gamma	90.000000
_symmetry_Int_Tables_number 1

loop_
_symmetry_equiv_pos_as_xyz
'x,y,z'

loop_
_atom_site_label
_atom_site_type_symbol
_atom_site_fract_x
_atom_site_fract_y
_atom_site_fract_z
Ag11	Ag1	0.343780	0.043130	0.367710
Ag21	Ag2	0.822790	0.248290	0.867180
N11	N1	0.122600	0.037600	0.059200
N21	N2	0.280000	0.813300	0.921400
N31	N3	0.438900	0.115700	0.412200
N41	N4	0.738400	0.322600	0.563100
N51	N5	0.912800	0.158200	0.907400
C11	C1	0.735400	0.434700	0.388100
H11	H1	0.713900	0.440500	0.348200
C21	C2	0.219400	0.848600	0.892100
H21	H2	0.199300	0.844400	0.852100
N61	N6	0.211200	0.950700	0.064800
C31	C3	0.533100	0.187200	0.411000
H31	H3	0.555200	0.207100	0.389900
N71	N7	0.795900	0.469700	0.416800
N81	N8	0.647900	0.289700	0.472600
N91	N9	0.800000	0.247100	0.771400
C41	C4	0.623900	0.243100	0.502500
C51	C5	0.097600	0.029800	0.001300
C61	C6	0.277800	0.861800	0.009200
H41	H4	0.298700	0.865400	0.049300
N101	N10	0.126300	0.988900	0.973300
C71	C7	0.798300	0.416300	0.505000
H51	H5	0.820500	0.412300	0.544900
N111	N11	0.276000	0.029100	0.271800
C81	C8	0.559600	0.198400	0.470200
C91	C9	0.003100	0.116000	0.996400
H61	H6	0.022600	0.117100	0.036500
C101	C10	0.943100	0.116700	0.879600
H71	H7	0.923300	0.117700	0.839400
C111	C11	0.709500	0.273600	0.587700
C121	C12	0.525300	0.165100	0.500200
H81	H8	0.542400	0.170000	0.540100
N121	N12	0.653000	0.231700	0.559600
C131	C13	0.307700	0.995500	0.243000
H91	H9	0.352000	0.979300	0.263700
C141	C14	0.742900	0.263000	0.651400
C151	C15	0.178700	0.044100	0.181400
H101	H10	0.134600	0.061600	0.161300
C161	C16	0.943000	0.156900	0.964900
H111	H11	0.922900	0.184600	0.985000
C171	C17	0.473200	0.145900	0.384100
H121	H12	0.455500	0.138600	0.344400
C181	C18	0.212500	0.008200	0.152100
C191	C19	0.826400	0.459800	0.474000
H131	H13	0.868500	0.483000	0.494200
C201	C20	0.001700	0.073200	0.907100
H141	H14	0.019900	0.044000	0.886000
C211	C21	0.828400	0.292700	0.745100
H151	H15	0.868300	0.319200	0.767900
C221	C22	0.033100	0.073900	0.967100
C231	C23	0.215300	0.898400	0.977600
C241	C24	0.185800	0.890800	0.918500
H161	H16	0.143900	0.913700	0.896600
C251	C25	0.704000	0.390400	0.415600
H171	H17	0.661600	0.368600	0.394300
C261	C26	0.706100	0.327800	0.505300
C271	C27	0.211600	0.053500	0.240900
H181	H18	0.188800	0.077300	0.260300
C281	C28	0.180100	0.997200	0.088200
C291	C29	0.182500	0.948000	0.007100
C301	C30	0.735600	0.378500	0.474500
C311	C31	0.308000	0.819900	0.979100
H191	H19	0.349400	0.795500	0.000000
C321	C32	0.801900	0.303500	0.685300
H201	H20	0.823200	0.336700	0.668800
C331	C33	0.466300	0.125300	0.469700
H211	H21	0.443700	0.103600	0.490000
C341	C34	0.714800	0.211300	0.677900
H221	H22	0.676500	0.181100	0.656100
C351	C35	0.744600	0.205300	0.737400
H231	H23	0.725400	0.170600	0.754900
C361	C36	0.278000	0.983500	0.183500
H241	H24	0.301900	0.959300	0.165200
Ag31	Ag3	0.843780	0.543130	0.367710
Ag41	Ag4	0.322790	0.748290	0.867180
N131	N13	0.622600	0.537600	0.059200
N141	N14	0.780000	0.313300	0.921400
N151	N15	0.938900	0.615700	0.412200
N161	N16	0.238400	0.822600	0.563100
N171	N17	0.412800	0.658200	0.907400
C371	C37	0.235400	0.934700	0.388100
H251	H25	0.213900	0.940500	0.348200
C381	C38	0.719400	0.348600	0.892100
H261	H26	0.699300	0.344400	0.852100
N181	N18	0.711200	0.450700	0.064800
C391	C39	0.033100	0.687200	0.411000
H271	H27	0.055200	0.707100	0.389900
N191	N19	0.295900	0.969700	0.416800
N201	N20	0.147900	0.789700	0.472600
N211	N21	0.300000	0.747100	0.771400
C401	C40	0.123900	0.743100	0.502500
C411	C41	0.597600	0.529800	0.001300
C421	C42	0.777800	0.361800	0.009200
H281	H28	0.798700	0.365400	0.049300
N221	N22	0.626300	0.488900	0.973300
C431	C43	0.298300	0.916300	0.505000
H291	H29	0.320500	0.912300	0.544900
N231	N23	0.776000	0.529100	0.271800
C441	C44	0.059600	0.698400	0.470200
C451	C45	0.503100	0.616000	0.996400
H301	H30	0.522600	0.617100	0.036500
C461	C46	0.443100	0.616700	0.879600
H311	H31	0.423300	0.617700	0.839400
C471	C47	0.209500	0.773600	0.587700
C481	C48	0.025300	0.665100	0.500200
H321	H32	0.042400	0.670000	0.540100
N241	N24	0.153000	0.731700	0.559600
C491	C49	0.807700	0.495500	0.243000
H331	H33	0.852000	0.479300	0.263700
C501	C50	0.242900	0.763000	0.651400
C511	C51	0.678700	0.544100	0.181400
H341	H34	0.634600	0.561600	0.161300
C521	C52	0.443000	0.656900	0.964900
H351	H35	0.422900	0.684600	0.985000
C531	C53	0.973200	0.645900	0.384100
H361	H36	0.955500	0.638600	0.344400
C541	C54	0.712500	0.508200	0.152100
C551	C55	0.326400	0.959800	0.474000
H371	H37	0.368500	0.983000	0.494200
C561	C56	0.501700	0.573200	0.907100
H381	H38	0.519900	0.544000	0.886000
C571	C57	0.328400	0.792700	0.745100
H391	H39	0.368300	0.819200	0.767900
C581	C58	0.533100	0.573900	0.967100
C591	C59	0.715300	0.398400	0.977600
C601	C60	0.685800	0.390800	0.918500
H401	H40	0.643900	0.413700	0.896600
C611	C61	0.204000	0.890400	0.415600
H411	H41	0.161600	0.868600	0.394300
C621	C62	0.206100	0.827800	0.505300
C631	C63	0.711600	0.553500	0.240900
H421	H42	0.688800	0.577300	0.260300
C641	C64	0.680100	0.497200	0.088200
C651	C65	0.682500	0.448000	0.007100
C661	C66	0.235600	0.878500	0.474500
C671	C67	0.808000	0.319900	0.979100
H431	H43	0.849400	0.295500	0.000000
C681	C68	0.301900	0.803500	0.685300
H441	H44	0.323200	0.836700	0.668800
C691	C69	0.966300	0.625300	0.469700
H451	H45	0.943700	0.603600	0.490000
C701	C70	0.214800	0.711300	0.677900
H461	H46	0.176500	0.681100	0.656100
C711	C71	0.244600	0.705300	0.737400
H471	H47	0.225400	0.670600	0.754900
C721	C72	0.778000	0.483500	0.183500
H481	H48	0.801900	0.459300	0.165200
Ag51	Ag5	0.656220	0.043130	0.132290
Ag61	Ag6	0.177210	0.248290	0.632820
N251	N25	0.877400	0.037600	0.440800
N261	N26	0.720000	0.813300	0.578600
N271	N27	0.561100	0.115700	0.087800
N281	N28	0.261600	0.322600	0.936900
N291	N29	0.087200	0.158200	0.592600
C731	C73	0.264600	0.434700	0.111900
H491	H49	0.286100	0.440500	0.151800
C741	C74	0.780600	0.848600	0.607900
H501	H50	0.800700	0.844400	0.647900
N301	N30	0.788800	0.950700	0.435200
C751	C75	0.466900	0.187200	0.089000
H511	H51	0.444800	0.207100	0.110100
N311	N31	0.204100	0.469700	0.083200
N321	N32	0.352100	0.289700	0.027400
N331	N33	0.200000	0.247100	0.728600
C761	C76	0.376100	0.243100	0.997500
C771	C77	0.902400	0.029800	0.498700
C781	C78	0.722200	0.861800	0.490800
H521	H52	0.701300	0.865400	0.450700
N341	N34	0.873700	0.988900	0.526700
C791	C79	0.201700	0.416300	0.995000
H531	H53	0.179500	0.412300	0.955100
N351	N35	0.724000	0.029100	0.228200
C801	C80	0.440400	0.198400	0.029800
C811	C81	0.996900	0.116000	0.503600
H541	H54	0.977400	0.117100	0.463500
C821	C82	0.056900	0.116700	0.620400
H551	H55	0.076700	0.117700	0.660600
C831	C83	0.290500	0.273600	0.912300
C841	C84	0.474700	0.165100	0.999800
H561	H56	0.457600	0.170000	0.959900
N361	N36	0.347000	0.231700	0.940400
C851	C85	0.692300	0.995500	0.257000
H571	H57	0.648000	0.979300	0.236300
C861	C86	0.257100	0.263000	0.848600
C871	C87	0.821300	0.044100	0.318600
H581	H58	0.865400	0.061600	0.338700
C881	C88	0.057000	0.156900	0.535100
H591	H59	0.077100	0.184600	0.515000
C891	C89	0.526800	0.145900	0.115900
H601	H60	0.544500	0.138600	0.155600
C901	C90	0.787500	0.008200	0.347900
C911	C91	0.173600	0.459800	0.026000
H611	H61	0.131500	0.483000	0.005800
C921	C92	0.998300	0.073200	0.592900
H621	H62	0.980100	0.044000	0.614000
C931	C93	0.171600	0.292700	0.754900
H631	H63	0.131700	0.319200	0.732100
C941	C94	0.966900	0.073900	0.532900
C951	C95	0.784700	0.898400	0.522400
C961	C96	0.814200	0.890800	0.581500
H641	H64	0.856100	0.913700	0.603400
C971	C97	0.296000	0.390400	0.084400
H651	H65	0.338400	0.368600	0.105700
C981	C98	0.293900	0.327800	0.994700
C991	C99	0.788400	0.053500	0.259100
H661	H66	0.811200	0.077300	0.239700
C1001	C100	0.819900	0.997200	0.411800
C1011	C101	0.817500	0.948000	0.492900
C1021	C102	0.264400	0.378500	0.025500
C1031	C103	0.692000	0.819900	0.520900
H671	H67	0.650600	0.795500	0.500000
C1041	C104	0.198100	0.303500	0.814700
H681	H68	0.176800	0.336700	0.831200
C1051	C105	0.533700	0.125300	0.030300
H691	H69	0.556300	0.103600	0.010000
C1061	C106	0.285200	0.211300	0.822100
H701	H70	0.323500	0.181100	0.843900
C1071	C107	0.255400	0.205300	0.762600
H711	H71	0.274600	0.170600	0.745100
C1081	C108	0.722000	0.983500	0.316500
H721	H72	0.698100	0.959300	0.334800
Ag71	Ag7	0.156220	0.543130	0.132290
Ag81	Ag8	0.677210	0.748290	0.632820
N371	N37	0.377400	0.537600	0.440800
N381	N38	0.220000	0.313300	0.578600
N391	N39	0.061100	0.615700	0.087800
N401	N40	0.761600	0.822600	0.936900
N411	N41	0.587200	0.658200	0.592600
C1091	C109	0.764600	0.934700	0.111900
H731	H73	0.786100	0.940500	0.151800
C1101	C110	0.280600	0.348600	0.607900
H741	H74	0.300700	0.344400	0.647900
N421	N42	0.288800	0.450700	0.435200
C1111	C111	0.966900	0.687200	0.089000
H751	H75	0.944800	0.707100	0.110100
N431	N43	0.704100	0.969700	0.083200
N441	N44	0.852100	0.789700	0.027400
N451	N45	0.700000	0.747100	0.728600
C1121	C112	0.876100	0.743100	0.997500
C1131	C113	0.402400	0.529800	0.498700
C1141	C114	0.222200	0.361800	0.490800
H761	H76	0.201300	0.365400	0.450700
N461	N46	0.373700	0.488900	0.526700
C1151	C115	0.701700	0.916300	0.995000
H771	H77	0.679500	0.912300	0.955100
N471	N47	0.224000	0.529100	0.228200
C1161	C116	0.940400	0.698400	0.029800
C1171	C117	0.496900	0.616000	0.503600
H781	H78	0.477400	0.617100	0.463500
C1181	C118	0.556900	0.616700	0.620400
H791	H79	0.576700	0.617700	0.660600
C1191	C119	0.790500	0.773600	0.912300
C1201	C120	0.974700	0.665100	0.999800
H801	H80	0.957600	0.670000	0.959900
N481	N48	0.847000	0.731700	0.940400
C1211	C121	0.192300	0.495500	0.257000
H811	H81	0.148000	0.479300	0.236300
C1221	C122	0.757100	0.763000	0.848600
C1231	C123	0.321300	0.544100	0.318600
H821	H82	0.365400	0.561600	0.338700
C1241	C124	0.557000	0.656900	0.535100
H831	H83	0.577100	0.684600	0.515000
C1251	C125	0.026800	0.645900	0.115900
H841	H84	0.044500	0.638600	0.155600
C1261	C126	0.287500	0.508200	0.347900
C1271	C127	0.673600	0.959800	0.026000
H851	H85	0.631500	0.983000	0.005800
C1281	C128	0.498300	0.573200	0.592900
H861	H86	0.480100	0.544000	0.614000
C1291	C129	0.671600	0.792700	0.754900
H871	H87	0.631700	0.819200	0.732100
C1301	C130	0.466900	0.573900	0.532900
C1311	C131	0.284700	0.398400	0.522400
C1321	C132	0.314200	0.390800	0.581500
H881	H88	0.356100	0.413700	0.603400
C1331	C133	0.796000	0.890400	0.084400
H891	H89	0.838400	0.868600	0.105700
C1341	C134	0.793900	0.827800	0.994700
C1351	C135	0.288400	0.553500	0.259100
H901	H90	0.311200	0.577300	0.239700
C1361	C136	0.319900	0.497200	0.411800
C1371	C137	0.317500	0.448000	0.492900
C1381	C138	0.764400	0.878500	0.025500
C1391	C139	0.192000	0.319900	0.520900
H911	H91	0.150600	0.295500	0.500000
C1401	C140	0.698100	0.803500	0.814700
H921	H92	0.676800	0.836700	0.831200
C1411	C141	0.033700	0.625300	0.030300
H931	H93	0.056300	0.603600	0.010000
C1421	C142	0.785200	0.711300	0.822100
H941	H94	0.823500	0.681100	0.843900
C1431	C143	0.755400	0.705300	0.762600
H951	H95	0.774600	0.670600	0.745100
C1441	C144	0.222000	0.483500	0.316500
H961	H96	0.198100	0.459300	0.334800
Ag91	Ag9	0.656220	0.956870	0.632290
Ag101	Ag10	0.177210	0.751710	0.132820
N491	N49	0.877400	0.962400	0.940800
N501	N50	0.720000	0.186700	0.078600
N511	N51	0.561100	0.884300	0.587800
N521	N52	0.261600	0.677400	0.436900
N531	N53	0.087200	0.841800	0.092600
C1451	C145	0.264600	0.565300	0.611900
H971	H97	0.286100	0.559500	0.651800
C1461	C146	0.780600	0.151400	0.107900
H981	H98	0.800700	0.155600	0.147900
N541	N54	0.788800	0.049300	0.935200
C1471	C147	0.466900	0.812800	0.589000
H991	H99	0.444800	0.792900	0.610100
N551	N55	0.204100	0.530300	0.583200
N561	N56	0.352100	0.710300	0.527400
N571	N57	0.200000	0.752900	0.228600
C1481	C148	0.376100	0.756900	0.497500
C1491	C149	0.902400	0.970200	0.998700
C1501	C150	0.722200	0.138200	0.990800
H1001	H100	0.701300	0.134600	0.950700
N581	N58	0.873700	0.011100	0.026700
C1511	C151	0.201700	0.583700	0.495000
H1011	H101	0.179500	0.587700	0.455100
N591	N59	0.724000	0.970900	0.728200
C1521	C152	0.440400	0.801600	0.529800
C1531	C153	0.996900	0.884000	0.003600
H1021	H102	0.977400	0.882900	0.963500
C1541	C154	0.056900	0.883300	0.120400
H1031	H103	0.076700	0.882300	0.160600
C1551	C155	0.290500	0.726400	0.412300
C1561	C156	0.474700	0.834900	0.499800
H1041	H104	0.457600	0.830000	0.459900
N601	N60	0.347000	0.768300	0.440400
C1571	C157	0.692300	0.004500	0.757000
H1051	H105	0.648000	0.020700	0.736300
C1581	C158	0.257100	0.737000	0.348600
C1591	C159	0.821300	0.955900	0.818600
H1061	H106	0.865400	0.938400	0.838700
C1601	C160	0.057000	0.843100	0.035100
H1071	H107	0.077100	0.815400	0.015000
C1611	C161	0.526800	0.854100	0.615900
H1081	H108	0.544500	0.861400	0.655600
C1621	C162	0.787500	0.991800	0.847900
C1631	C163	0.173600	0.540200	0.526000
H1091	H109	0.131500	0.517000	0.505800
C1641	C164	0.998300	0.926800	0.092900
H1101	H110	0.980100	0.956000	0.114000
C1651	C165	0.171600	0.707300	0.254900
H1111	H111	0.131700	0.680800	0.232100
C1661	C166	0.966900	0.926100	0.032900
C1671	C167	0.784700	0.101600	0.022400
C1681	C168	0.814200	0.109200	0.081500
H1121	H112	0.856100	0.086300	0.103400
C1691	C169	0.296000	0.609600	0.584400
H1131	H113	0.338400	0.631400	0.605700
C1701	C170	0.293900	0.672200	0.494700
C1711	C171	0.788400	0.946500	0.759100
H1141	H114	0.811200	0.922700	0.739700
C1721	C172	0.819900	0.002800	0.911800
C1731	C173	0.817500	0.052000	0.992900
C1741	C174	0.264400	0.621500	0.525500
C1751	C175	0.692000	0.180100	0.020900
H1151	H115	0.650600	0.204500	0.000000
C1761	C176	0.198100	0.696500	0.314700
H1161	H116	0.176800	0.663300	0.331200
C1771	C177	0.533700	0.874700	0.530300
H1171	H117	0.556300	0.896400	0.510000
C1781	C178	0.285200	0.788700	0.322100
H1181	H118	0.323500	0.818900	0.343900
C1791	C179	0.255400	0.794700	0.262600
H1191	H119	0.274600	0.829400	0.245100
C1801	C180	0.722000	0.016500	0.816500
H1201	H120	0.698100	0.040700	0.834800
Ag111	Ag11	0.156220	0.456870	0.632290
Ag121	Ag12	0.677210	0.251710	0.132820
N611	N61	0.377400	0.462400	0.940800
N621	N62	0.220000	0.686700	0.078600
N631	N63	0.061100	0.384300	0.587800
N641	N64	0.761600	0.177400	0.436900
N651	N65	0.587200	0.341800	0.092600
C1811	C181	0.764600	0.065300	0.611900
H1211	H121	0.786100	0.059500	0.651800
C1821	C182	0.280600	0.651400	0.107900
H1221	H122	0.300700	0.655600	0.147900
N661	N66	0.288800	0.549300	0.935200
C1831	C183	0.966900	0.312800	0.589000
H1231	H123	0.944800	0.292900	0.610100
N671	N67	0.704100	0.030300	0.583200
N681	N68	0.852100	0.210300	0.527400
N691	N69	0.700000	0.252900	0.228600
C1841	C184	0.876100	0.256900	0.497500
C1851	C185	0.402400	0.470200	0.998700
C1861	C186	0.222200	0.638200	0.990800
H1241	H124	0.201300	0.634600	0.950700
N701	N70	0.373700	0.511100	0.026700
C1871	C187	0.701700	0.083700	0.495000
H1251	H125	0.679500	0.087700	0.455100
N711	N71	0.224000	0.470900	0.728200
C1881	C188	0.940400	0.301600	0.529800
C1891	C189	0.496900	0.384000	0.003600
H1261	H126	0.477400	0.382900	0.963500
C1901	C190	0.556900	0.383300	0.120400
H1271	H127	0.576700	0.382300	0.160600
C1911	C191	0.790500	0.226400	0.412300
C1921	C192	0.974700	0.334900	0.499800
H1281	H128	0.957600	0.330000	0.459900
N721	N72	0.847000	0.268300	0.440400
C1931	C193	0.192300	0.504500	0.757000
H1291	H129	0.148000	0.520700	0.736300
C1941	C194	0.757100	0.237000	0.348600
C1951	C195	0.321300	0.455900	0.818600
H1301	H130	0.365400	0.438400	0.838700
C1961	C196	0.557000	0.343100	0.035100
H1311	H131	0.577100	0.315400	0.015000
C1971	C197	0.026800	0.354100	0.615900
H1321	H132	0.044500	0.361400	0.655600
C1981	C198	0.287500	0.491800	0.847900
C1991	C199	0.673600	0.040200	0.526000
H1331	H133	0.631500	0.017000	0.505800
C2001	C200	0.498300	0.426800	0.092900
H1341	H134	0.480100	0.456000	0.114000
C2011	C201	0.671600	0.207300	0.254900
H1351	H135	0.631700	0.180800	0.232100
C2021	C202	0.466900	0.426100	0.032900
C2031	C203	0.284700	0.601600	0.022400
C2041	C204	0.314200	0.609200	0.081500
H1361	H136	0.356100	0.586300	0.103400
C2051	C205	0.796000	0.109600	0.584400
H1371	H137	0.838400	0.131400	0.605700
C2061	C206	0.793900	0.172200	0.494700
C2071	C207	0.288400	0.446500	0.759100
H1381	H138	0.311200	0.422700	0.739700
C2081	C208	0.319900	0.502800	0.911800
C2091	C209	0.317500	0.552000	0.992900
C2101	C210	0.764400	0.121500	0.525500
C2111	C211	0.192000	0.680100	0.020900
H1391	H139	0.150600	0.704500	0.000000
C2121	C212	0.698100	0.196500	0.314700
H1401	H140	0.676800	0.163300	0.331200
C2131	C213	0.033700	0.374700	0.530300
H1411	H141	0.056300	0.396400	0.510000
C2141	C214	0.785200	0.288700	0.322100
H1421	H142	0.823500	0.318900	0.343900
C2151	C215	0.755400	0.294700	0.262600
H1431	H143	0.774600	0.329400	0.245100
C2161	C216	0.222000	0.516500	0.816500
H1441	H144	0.198100	0.540700	0.834800
Ag131	Ag13	0.343780	0.956870	0.867710
Ag141	Ag14	0.822790	0.751710	0.367180
N731	N73	0.122600	0.962400	0.559200
N741	N74	0.280000	0.186700	0.421400
N751	N75	0.438900	0.884300	0.912200
N761	N76	0.738400	0.677400	0.063100
N771	N77	0.912800	0.841800	0.407400
C2171	C217	0.735400	0.565300	0.888100
H1451	H145	0.713900	0.559500	0.848200
C2181	C218	0.219400	0.151400	0.392100
H1461	H146	0.199300	0.155600	0.352100
N781	N78	0.211200	0.049300	0.564800
C2191	C219	0.533100	0.812800	0.911000
H1471	H147	0.555200	0.792900	0.889900
N791	N79	0.795900	0.530300	0.916800
N801	N80	0.647900	0.710300	0.972600
N811	N81	0.800000	0.752900	0.271400
C2201	C220	0.623900	0.756900	0.002500
C2211	C221	0.097600	0.970200	0.501300
C2221	C222	0.277800	0.138200	0.509200
H1481	H148	0.298700	0.134600	0.549300
N821	N82	0.126300	0.011100	0.473300
C2231	C223	0.798300	0.583700	0.005000
H1491	H149	0.820500	0.587700	0.044900
N831	N83	0.276000	0.970900	0.771800
C2241	C224	0.559600	0.801600	0.970200
C2251	C225	0.003100	0.884000	0.496400
H1501	H150	0.022600	0.882900	0.536500
C2261	C226	0.943100	0.883300	0.379600
H1511	H151	0.923300	0.882300	0.339400
C2271	C227	0.709500	0.726400	0.087700
C2281	C228	0.525300	0.834900	0.000200
H1521	H152	0.542400	0.830000	0.040100
N841	N84	0.653000	0.768300	0.059600
C2291	C229	0.307700	0.004500	0.743000
H1531	H153	0.352000	0.020700	0.763700
C2301	C230	0.742900	0.737000	0.151400
C2311	C231	0.178700	0.955900	0.681400
H1541	H154	0.134600	0.938400	0.661300
C2321	C232	0.943000	0.843100	0.464900
H1551	H155	0.922900	0.815400	0.485000
C2331	C233	0.473200	0.854100	0.884100
H1561	H156	0.455500	0.861400	0.844400
C2341	C234	0.212500	0.991800	0.652100
C2351	C235	0.826400	0.540200	0.974000
H1571	H157	0.868500	0.517000	0.994200
C2361	C236	0.001700	0.926800	0.407100
H1581	H158	0.019900	0.956000	0.386000
C2371	C237	0.828400	0.707300	0.245100
H1591	H159	0.868300	0.680800	0.267900
C2381	C238	0.033100	0.926100	0.467100
C2391	C239	0.215300	0.101600	0.477600
C2401	C240	0.185800	0.109200	0.418500
H1601	H160	0.143900	0.086300	0.396600
C2411	C241	0.704000	0.609600	0.915600
H1611	H161	0.661600	0.631400	0.894300
C2421	C242	0.706100	0.672200	0.005300
C2431	C243	0.211600	0.946500	0.740900
H1621	H162	0.188800	0.922700	0.760300
C2441	C244	0.180100	0.002800	0.588200
C2451	C245	0.182500	0.052000	0.507100
C2461	C246	0.735600	0.621500	0.974500
C2471	C247	0.308000	0.180100	0.479100
H1631	H163	0.349400	0.204500	0.500000
C2481	C248	0.801900	0.696500	0.185300
H1641	H164	0.823200	0.663300	0.168800
C2491	C249	0.466300	0.874700	0.969700
H1651	H165	0.443700	0.896400	0.990000
C2501	C250	0.714800	0.788700	0.177900
H1661	H166	0.676500	0.818900	0.156100
C2511	C251	0.744600	0.794700	0.237400
H1671	H167	0.725400	0.829400	0.254900
C2521	C252	0.278000	0.016500	0.683500
H1681	H168	0.301900	0.040700	0.665200
Ag151	Ag15	0.843780	0.456870	0.867710
Ag161	Ag16	0.322790	0.251710	0.367180
N851	N85	0.622600	0.462400	0.559200
N861	N86	0.780000	0.686700	0.421400
N871	N87	0.938900	0.384300	0.912200
N881	N88	0.238400	0.177400	0.063100
N891	N89	0.412800	0.341800	0.407400
C2531	C253	0.235400	0.065300	0.888100
H1691	H169	0.213900	0.059500	0.848200
C2541	C254	0.719400	0.651400	0.392100
H1701	H170	0.699300	0.655600	0.352100
N901	N90	0.711200	0.549300	0.564800
C2551	C255	0.033100	0.312800	0.911000
H1711	H171	0.055200	0.292900	0.889900
N911	N91	0.295900	0.030300	0.916800
N921	N92	0.147900	0.210300	0.972600
N931	N93	0.300000	0.252900	0.271400
C2561	C256	0.123900	0.256900	0.002500
C2571	C257	0.597600	0.470200	0.501300
C2581	C258	0.777800	0.638200	0.509200
H1721	H172	0.798700	0.634600	0.549300
N941	N94	0.626300	0.511100	0.473300
C2591	C259	0.298300	0.083700	0.005000
H1731	H173	0.320500	0.087700	0.044900
N951	N95	0.776000	0.470900	0.771800
C2601	C260	0.059600	0.301600	0.970200
C2611	C261	0.503100	0.384000	0.496400
H1741	H174	0.522600	0.382900	0.536500
C2621	C262	0.443100	0.383300	0.379600
H1751	H175	0.423300	0.382300	0.339400
C2631	C263	0.209500	0.226400	0.087700
C2641	C264	0.025300	0.334900	0.000200
H1761	H176	0.042400	0.330000	0.040100
N961	N96	0.153000	0.268300	0.059600
C2651	C265	0.807700	0.504500	0.743000
H1771	H177	0.852000	0.520700	0.763700
C2661	C266	0.242900	0.237000	0.151400
C2671	C267	0.678700	0.455900	0.681400
H1781	H178	0.634600	0.438400	0.661300
C2681	C268	0.443000	0.343100	0.464900
H1791	H179	0.422900	0.315400	0.485000
C2691	C269	0.973200	0.354100	0.884100
H1801	H180	0.955500	0.361400	0.844400
C2701	C270	0.712500	0.491800	0.652100
C2711	C271	0.326400	0.040200	0.974000
H1811	H181	0.368500	0.017000	0.994200
C2721	C272	0.501700	0.426800	0.407100
H1821	H182	0.519900	0.456000	0.386000
C2731	C273	0.328400	0.207300	0.245100
H1831	H183	0.368300	0.180800	0.267900
C2741	C274	0.533100	0.426100	0.467100
C2751	C275	0.715300	0.601600	0.477600
C2761	C276	0.685800	0.609200	0.418500
H1841	H184	0.643900	0.586300	0.396600
C2771	C277	0.204000	0.109600	0.915600
H1851	H185	0.161600	0.131400	0.894300
C2781	C278	0.206100	0.172200	0.005300
C2791	C279	0.711600	0.446500	0.740900
H1861	H186	0.688800	0.422700	0.760300
C2801	C280	0.680100	0.502800	0.588200
C2811	C281	0.682500	0.552000	0.507100
C2821	C282	0.235600	0.121500	0.974500
C2831	C283	0.808000	0.680100	0.479100
H1871	H187	0.849400	0.704500	0.500000
C2841	C284	0.301900	0.196500	0.185300
H1881	H188	0.323200	0.163300	0.168800
C2851	C285	0.966300	0.374700	0.969700
H1891	H189	0.943700	0.396400	0.990000
C2861	C286	0.214800	0.288700	0.177900
H1901	H190	0.176500	0.318900	0.156100
C2871	C287	0.244600	0.294700	0.237400
H1911	H191	0.225400	0.329400	0.254900
C2881	C288	0.778000	0.516500	0.683500
H1921	H192	0.801900	0.540700	0.665200
