data_QODHUO04_clean_PM
_symmetry_space_group_name_H-M	'P1'
_cell_length_a	22.002000
_cell_length_b	16.735600
_cell_length_c	25.560700
_cell_angle_alpha	90.000000
_cell_angle_beta	115.199000
_cell_angle_gamma	90.000000
_symmetry_Int_Tables_number 1

loop_
_symmetry_equiv_pos_as_xyz
'x,y,z'

loop_
_atom_site_label
_atom_site_type_symbol
_atom_site_fract_x
_atom_site_fract_y
_atom_site_fract_z
Ag11	Ag1	0.844230	0.956670	0.366830
Ag21	Ag2	0.821710	0.256160	0.866440
C11	C1	0.097600	0.471600	0.999100
C21	C2	0.532600	0.310300	0.409000
H11	H1	0.554000	0.289600	0.387600
C31	C3	0.623400	0.255700	0.500300
C41	C4	0.003700	0.385000	0.994600
H21	H2	0.023500	0.383400	0.034800
C51	C5	0.559700	0.300200	0.468000
C61	C6	0.181700	0.552600	0.005300
C71	C7	0.033100	0.427400	0.965000
C81	C8	0.797500	0.083700	0.503700
H31	H3	0.819700	0.087700	0.543700
C91	C9	0.709400	0.225100	0.585800
C101	C10	0.944200	0.344800	0.962900
H41	H4	0.924600	0.316900	0.983200
C111	C11	0.277000	0.638500	0.008300
H51	H5	0.297800	0.634800	0.048500
C121	C12	0.220200	0.652700	0.890800
H61	H6	0.200400	0.657400	0.850800
C131	C13	0.742700	0.236700	0.649500
C141	C14	0.735200	0.121200	0.473000
C151	C15	0.178800	0.455800	0.179000
H71	H7	0.134800	0.438000	0.158700
C161	C16	0.214100	0.601500	0.975800
C171	C17	0.735400	0.064300	0.387400
H81	H8	0.713800	0.057300	0.347600
C181	C18	0.212100	0.491400	0.150600
C191	C19	0.525800	0.334300	0.497600
H91	H9	0.543200	0.330400	0.537600
C201	C20	0.467200	0.373500	0.467500
H101	H10	0.445300	0.395900	0.488000
C211	C21	0.179900	0.502100	0.086200
C221	C22	0.186300	0.609700	0.917100
H111	H11	0.144800	0.586700	0.894600
C231	C23	0.306800	0.680700	0.978200
H121	H12	0.347800	0.705500	0.999300
C241	C24	0.703800	0.109400	0.413700
H131	H13	0.661900	0.131700	0.391900
C251	C25	0.705100	0.171800	0.503400
C261	C26	0.472900	0.351900	0.382200
H141	H14	0.455600	0.359400	0.342400
C271	C27	0.825000	0.040600	0.472900
H151	H15	0.867000	0.017500	0.493400
C281	C28	0.001500	0.427700	0.905400
H161	H16	0.019200	0.457100	0.884200
C291	C29	0.305600	0.504800	0.240500
H171	H17	0.349500	0.522300	0.261500
C301	C30	0.211400	0.446800	0.238500
H181	H18	0.188200	0.423200	0.257600
C311	C31	0.943800	0.384300	0.877800
H191	H19	0.924500	0.382600	0.837600
C321	C32	0.744800	0.294800	0.735000
H201	H20	0.726200	0.330000	0.752400
C331	C33	0.277700	0.516500	0.181800
H211	H21	0.301900	0.540300	0.163800
C341	C34	0.714200	0.286900	0.676200
H221	H22	0.674900	0.314600	0.654400
C351	C35	0.802500	0.199400	0.683600
H231	H23	0.825000	0.168300	0.667300
C361	C36	0.827500	0.209800	0.742100
H241	H24	0.867000	0.183000	0.764800
N11	N1	0.795500	0.030000	0.416300
N21	N2	0.439000	0.381700	0.410000
N31	N3	0.800600	0.254200	0.769000
N41	N4	0.647800	0.210100	0.470800
N51	N5	0.652500	0.266000	0.557400
N61	N6	0.737500	0.177400	0.560900
N71	N7	0.279300	0.687200	0.920600
N81	N8	0.913400	0.343700	0.905600
N91	N9	0.274900	0.470400	0.269800
N101	N10	0.125500	0.512900	0.971800
N111	N11	0.123000	0.463000	0.056900
N121	N12	0.210900	0.549000	0.063100
Ag31	Ag3	0.344230	0.456670	0.366830
Ag41	Ag4	0.321710	0.756160	0.866440
C371	C37	0.597600	0.971600	0.999100
C381	C38	0.032600	0.810300	0.409000
H251	H25	0.054000	0.789600	0.387600
C391	C39	0.123400	0.755700	0.500300
C401	C40	0.503700	0.885000	0.994600
H261	H26	0.523500	0.883400	0.034800
C411	C41	0.059700	0.800200	0.468000
C421	C42	0.681700	0.052600	0.005300
C431	C43	0.533100	0.927400	0.965000
C441	C44	0.297500	0.583700	0.503700
H271	H27	0.319700	0.587700	0.543700
C451	C45	0.209400	0.725100	0.585800
C461	C46	0.444200	0.844800	0.962900
H281	H28	0.424600	0.816900	0.983200
C471	C47	0.777000	0.138500	0.008300
H291	H29	0.797800	0.134800	0.048500
C481	C48	0.720200	0.152700	0.890800
H301	H30	0.700400	0.157400	0.850800
C491	C49	0.242700	0.736700	0.649500
C501	C50	0.235200	0.621200	0.473000
C511	C51	0.678800	0.955800	0.179000
H311	H31	0.634800	0.938000	0.158700
C521	C52	0.714100	0.101500	0.975800
C531	C53	0.235400	0.564300	0.387400
H321	H32	0.213800	0.557300	0.347600
C541	C54	0.712100	0.991400	0.150600
C551	C55	0.025800	0.834300	0.497600
H331	H33	0.043200	0.830400	0.537600
C561	C56	0.967200	0.873500	0.467500
H341	H34	0.945300	0.895900	0.488000
C571	C57	0.679900	0.002100	0.086200
C581	C58	0.686300	0.109700	0.917100
H351	H35	0.644800	0.086700	0.894600
C591	C59	0.806800	0.180700	0.978200
H361	H36	0.847800	0.205500	0.999300
C601	C60	0.203800	0.609400	0.413700
H371	H37	0.161900	0.631700	0.391900
C611	C61	0.205100	0.671800	0.503400
C621	C62	0.972900	0.851900	0.382200
H381	H38	0.955600	0.859400	0.342400
C631	C63	0.325000	0.540600	0.472900
H391	H39	0.367000	0.517500	0.493400
C641	C64	0.501500	0.927700	0.905400
H401	H40	0.519200	0.957100	0.884200
C651	C65	0.805600	0.004800	0.240500
H411	H41	0.849500	0.022300	0.261500
C661	C66	0.711400	0.946800	0.238500
H421	H42	0.688200	0.923200	0.257600
C671	C67	0.443800	0.884300	0.877800
H431	H43	0.424500	0.882600	0.837600
C681	C68	0.244800	0.794800	0.735000
H441	H44	0.226200	0.830000	0.752400
C691	C69	0.777700	0.016500	0.181800
H451	H45	0.801900	0.040300	0.163800
C701	C70	0.214200	0.786900	0.676200
H461	H46	0.174900	0.814600	0.654400
C711	C71	0.302500	0.699400	0.683600
H471	H47	0.325000	0.668300	0.667300
C721	C72	0.327500	0.709800	0.742100
H481	H48	0.367000	0.683000	0.764800
N131	N13	0.295500	0.530000	0.416300
N141	N14	0.939000	0.881700	0.410000
N151	N15	0.300600	0.754200	0.769000
N161	N16	0.147800	0.710100	0.470800
N171	N17	0.152500	0.766000	0.557400
N181	N18	0.237500	0.677400	0.560900
N191	N19	0.779300	0.187200	0.920600
N201	N20	0.413400	0.843700	0.905600
N211	N21	0.774900	0.970400	0.269800
N221	N22	0.625500	0.012900	0.971800
N231	N23	0.623000	0.963000	0.056900
N241	N24	0.710900	0.049000	0.063100
Ag51	Ag5	0.155770	0.956670	0.133170
Ag61	Ag6	0.178290	0.256160	0.633560
C731	C73	0.902400	0.471600	0.500900
C741	C74	0.467400	0.310300	0.091000
H491	H49	0.446000	0.289600	0.112400
C751	C75	0.376600	0.255700	0.999700
C761	C76	0.996300	0.385000	0.505400
H501	H50	0.976500	0.383400	0.465200
C771	C77	0.440300	0.300200	0.032000
C781	C78	0.818300	0.552600	0.494700
C791	C79	0.966900	0.427400	0.535000
C801	C80	0.202500	0.083700	0.996300
H511	H51	0.180300	0.087700	0.956300
C811	C81	0.290600	0.225100	0.914200
C821	C82	0.055800	0.344800	0.537100
H521	H52	0.075400	0.316900	0.516800
C831	C83	0.723000	0.638500	0.491700
H531	H53	0.702200	0.634800	0.451500
C841	C84	0.779800	0.652700	0.609200
H541	H54	0.799600	0.657400	0.649200
C851	C85	0.257300	0.236700	0.850500
C861	C86	0.264800	0.121200	0.027000
C871	C87	0.821200	0.455800	0.321000
H551	H55	0.865200	0.438000	0.341300
C881	C88	0.785900	0.601500	0.524200
C891	C89	0.264600	0.064300	0.112600
H561	H56	0.286200	0.057300	0.152400
C901	C90	0.787900	0.491400	0.349400
C911	C91	0.474200	0.334300	0.002400
H571	H57	0.456800	0.330400	0.962400
C921	C92	0.532800	0.373500	0.032500
H581	H58	0.554700	0.395900	0.012000
C931	C93	0.820100	0.502100	0.413800
C941	C94	0.813700	0.609700	0.582900
H591	H59	0.855200	0.586700	0.605400
C951	C95	0.693200	0.680700	0.521800
H601	H60	0.652200	0.705500	0.500700
C961	C96	0.296200	0.109400	0.086300
H611	H61	0.338100	0.131700	0.108100
C971	C97	0.294900	0.171800	0.996600
C981	C98	0.527100	0.351900	0.117800
H621	H62	0.544400	0.359400	0.157600
C991	C99	0.175000	0.040600	0.027100
H631	H63	0.133000	0.017500	0.006600
C1001	C100	0.998500	0.427700	0.594600
H641	H64	0.980800	0.457100	0.615800
C1011	C101	0.694400	0.504800	0.259500
H651	H65	0.650500	0.522300	0.238500
C1021	C102	0.788600	0.446800	0.261500
H661	H66	0.811800	0.423200	0.242400
C1031	C103	0.056200	0.384300	0.622200
H671	H67	0.075500	0.382600	0.662400
C1041	C104	0.255200	0.294800	0.765000
H681	H68	0.273800	0.330000	0.747600
C1051	C105	0.722300	0.516500	0.318200
H691	H69	0.698100	0.540300	0.336200
C1061	C106	0.285800	0.286900	0.823800
H701	H70	0.325100	0.314600	0.845600
C1071	C107	0.197500	0.199400	0.816400
H711	H71	0.175000	0.168300	0.832700
C1081	C108	0.172500	0.209800	0.757900
H721	H72	0.133000	0.183000	0.735200
N251	N25	0.204500	0.030000	0.083700
N261	N26	0.561000	0.381700	0.090000
N271	N27	0.199400	0.254200	0.731000
N281	N28	0.352200	0.210100	0.029200
N291	N29	0.347500	0.266000	0.942600
N301	N30	0.262500	0.177400	0.939100
N311	N31	0.720700	0.687200	0.579400
N321	N32	0.086600	0.343700	0.594400
N331	N33	0.725100	0.470400	0.230200
N341	N34	0.874500	0.512900	0.528200
N351	N35	0.877000	0.463000	0.443100
N361	N36	0.789100	0.549000	0.436900
Ag71	Ag7	0.655770	0.456670	0.133170
Ag81	Ag8	0.678290	0.756160	0.633560
C1091	C109	0.402400	0.971600	0.500900
C1101	C110	0.967400	0.810300	0.091000
H731	H73	0.946000	0.789600	0.112400
C1111	C111	0.876600	0.755700	0.999700
C1121	C112	0.496300	0.885000	0.505400
H741	H74	0.476500	0.883400	0.465200
C1131	C113	0.940300	0.800200	0.032000
C1141	C114	0.318300	0.052600	0.494700
C1151	C115	0.466900	0.927400	0.535000
C1161	C116	0.702500	0.583700	0.996300
H751	H75	0.680300	0.587700	0.956300
C1171	C117	0.790600	0.725100	0.914200
C1181	C118	0.555800	0.844800	0.537100
H761	H76	0.575400	0.816900	0.516800
C1191	C119	0.223000	0.138500	0.491700
H771	H77	0.202200	0.134800	0.451500
C1201	C120	0.279800	0.152700	0.609200
H781	H78	0.299600	0.157400	0.649200
C1211	C121	0.757300	0.736700	0.850500
C1221	C122	0.764800	0.621200	0.027000
C1231	C123	0.321200	0.955800	0.321000
H791	H79	0.365200	0.938000	0.341300
C1241	C124	0.285900	0.101500	0.524200
C1251	C125	0.764600	0.564300	0.112600
H801	H80	0.786200	0.557300	0.152400
C1261	C126	0.287900	0.991400	0.349400
C1271	C127	0.974200	0.834300	0.002400
H811	H81	0.956800	0.830400	0.962400
C1281	C128	0.032800	0.873500	0.032500
H821	H82	0.054700	0.895900	0.012000
C1291	C129	0.320100	0.002100	0.413800
C1301	C130	0.313700	0.109700	0.582900
H831	H83	0.355200	0.086700	0.605400
C1311	C131	0.193200	0.180700	0.521800
H841	H84	0.152200	0.205500	0.500700
C1321	C132	0.796200	0.609400	0.086300
H851	H85	0.838100	0.631700	0.108100
C1331	C133	0.794900	0.671800	0.996600
C1341	C134	0.027100	0.851900	0.117800
H861	H86	0.044400	0.859400	0.157600
C1351	C135	0.675000	0.540600	0.027100
H871	H87	0.633000	0.517500	0.006600
C1361	C136	0.498500	0.927700	0.594600
H881	H88	0.480800	0.957100	0.615800
C1371	C137	0.194400	0.004800	0.259500
H891	H89	0.150500	0.022300	0.238500
C1381	C138	0.288600	0.946800	0.261500
H901	H90	0.311800	0.923200	0.242400
C1391	C139	0.556200	0.884300	0.622200
H911	H91	0.575500	0.882600	0.662400
C1401	C140	0.755200	0.794800	0.765000
H921	H92	0.773800	0.830000	0.747600
C1411	C141	0.222300	0.016500	0.318200
H931	H93	0.198100	0.040300	0.336200
C1421	C142	0.785800	0.786900	0.823800
H941	H94	0.825100	0.814600	0.845600
C1431	C143	0.697500	0.699400	0.816400
H951	H95	0.675000	0.668300	0.832700
C1441	C144	0.672500	0.709800	0.757900
H961	H96	0.633000	0.683000	0.735200
N371	N37	0.704500	0.530000	0.083700
N381	N38	0.061000	0.881700	0.090000
N391	N39	0.699400	0.754200	0.731000
N401	N40	0.852200	0.710100	0.029200
N411	N41	0.847500	0.766000	0.942600
N421	N42	0.762500	0.677400	0.939100
N431	N43	0.220700	0.187200	0.579400
N441	N44	0.586600	0.843700	0.594400
N451	N45	0.225100	0.970400	0.230200
N461	N46	0.374500	0.012900	0.528200
N471	N47	0.377000	0.963000	0.443100
N481	N48	0.289100	0.049000	0.436900
Ag91	Ag9	0.155770	0.043330	0.633170
Ag101	Ag10	0.178290	0.743840	0.133560
C1451	C145	0.902400	0.528400	0.000900
C1461	C146	0.467400	0.689700	0.591000
H971	H97	0.446000	0.710400	0.612400
C1471	C147	0.376600	0.744300	0.499700
C1481	C148	0.996300	0.615000	0.005400
H981	H98	0.976500	0.616600	0.965200
C1491	C149	0.440300	0.699800	0.532000
C1501	C150	0.818300	0.447400	0.994700
C1511	C151	0.966900	0.572600	0.035000
C1521	C152	0.202500	0.916300	0.496300
H991	H99	0.180300	0.912300	0.456300
C1531	C153	0.290600	0.774900	0.414200
C1541	C154	0.055800	0.655200	0.037100
H1001	H100	0.075400	0.683100	0.016800
C1551	C155	0.723000	0.361500	0.991700
H1011	H101	0.702200	0.365200	0.951500
C1561	C156	0.779800	0.347300	0.109200
H1021	H102	0.799600	0.342600	0.149200
C1571	C157	0.257300	0.763300	0.350500
C1581	C158	0.264800	0.878800	0.527000
C1591	C159	0.821200	0.544200	0.821000
H1031	H103	0.865200	0.562000	0.841300
C1601	C160	0.785900	0.398500	0.024200
C1611	C161	0.264600	0.935700	0.612600
H1041	H104	0.286200	0.942700	0.652400
C1621	C162	0.787900	0.508600	0.849400
C1631	C163	0.474200	0.665700	0.502400
H1051	H105	0.456800	0.669600	0.462400
C1641	C164	0.532800	0.626500	0.532500
H1061	H106	0.554700	0.604100	0.512000
C1651	C165	0.820100	0.497900	0.913800
C1661	C166	0.813700	0.390300	0.082900
H1071	H107	0.855200	0.413300	0.105400
C1671	C167	0.693200	0.319300	0.021800
H1081	H108	0.652200	0.294500	0.000700
C1681	C168	0.296200	0.890600	0.586300
H1091	H109	0.338100	0.868300	0.608100
C1691	C169	0.294900	0.828200	0.496600
C1701	C170	0.527100	0.648100	0.617800
H1101	H110	0.544400	0.640600	0.657600
C1711	C171	0.175000	0.959400	0.527100
H1111	H111	0.133000	0.982500	0.506600
C1721	C172	0.998500	0.572300	0.094600
H1121	H112	0.980800	0.542900	0.115800
C1731	C173	0.694400	0.495200	0.759500
H1131	H113	0.650500	0.477700	0.738500
C1741	C174	0.788600	0.553200	0.761500
H1141	H114	0.811800	0.576800	0.742400
C1751	C175	0.056200	0.615700	0.122200
H1151	H115	0.075500	0.617400	0.162400
C1761	C176	0.255200	0.705200	0.265000
H1161	H116	0.273800	0.670000	0.247600
C1771	C177	0.722300	0.483500	0.818200
H1171	H117	0.698100	0.459700	0.836200
C1781	C178	0.285800	0.713100	0.323800
H1181	H118	0.325100	0.685400	0.345600
C1791	C179	0.197500	0.800600	0.316400
H1191	H119	0.175000	0.831700	0.332700
C1801	C180	0.172500	0.790200	0.257900
H1201	H120	0.133000	0.817000	0.235200
N491	N49	0.204500	0.970000	0.583700
N501	N50	0.561000	0.618300	0.590000
N511	N51	0.199400	0.745800	0.231000
N521	N52	0.352200	0.789900	0.529200
N531	N53	0.347500	0.734000	0.442600
N541	N54	0.262500	0.822600	0.439100
N551	N55	0.720700	0.312800	0.079400
N561	N56	0.086600	0.656300	0.094400
N571	N57	0.725100	0.529600	0.730200
N581	N58	0.874500	0.487100	0.028200
N591	N59	0.877000	0.537000	0.943100
N601	N60	0.789100	0.451000	0.936900
Ag111	Ag11	0.655770	0.543330	0.633170
Ag121	Ag12	0.678290	0.243840	0.133560
C1811	C181	0.402400	0.028400	0.000900
C1821	C182	0.967400	0.189700	0.591000
H1211	H121	0.946000	0.210400	0.612400
C1831	C183	0.876600	0.244300	0.499700
C1841	C184	0.496300	0.115000	0.005400
H1221	H122	0.476500	0.116600	0.965200
C1851	C185	0.940300	0.199800	0.532000
C1861	C186	0.318300	0.947400	0.994700
C1871	C187	0.466900	0.072600	0.035000
C1881	C188	0.702500	0.416300	0.496300
H1231	H123	0.680300	0.412300	0.456300
C1891	C189	0.790600	0.274900	0.414200
C1901	C190	0.555800	0.155200	0.037100
H1241	H124	0.575400	0.183100	0.016800
C1911	C191	0.223000	0.861500	0.991700
H1251	H125	0.202200	0.865200	0.951500
C1921	C192	0.279800	0.847300	0.109200
H1261	H126	0.299600	0.842600	0.149200
C1931	C193	0.757300	0.263300	0.350500
C1941	C194	0.764800	0.378800	0.527000
C1951	C195	0.321200	0.044200	0.821000
H1271	H127	0.365200	0.062000	0.841300
C1961	C196	0.285900	0.898500	0.024200
C1971	C197	0.764600	0.435700	0.612600
H1281	H128	0.786200	0.442700	0.652400
C1981	C198	0.287900	0.008600	0.849400
C1991	C199	0.974200	0.165700	0.502400
H1291	H129	0.956800	0.169600	0.462400
C2001	C200	0.032800	0.126500	0.532500
H1301	H130	0.054700	0.104100	0.512000
C2011	C201	0.320100	0.997900	0.913800
C2021	C202	0.313700	0.890300	0.082900
H1311	H131	0.355200	0.913300	0.105400
C2031	C203	0.193200	0.819300	0.021800
H1321	H132	0.152200	0.794500	0.000700
C2041	C204	0.796200	0.390600	0.586300
H1331	H133	0.838100	0.368300	0.608100
C2051	C205	0.794900	0.328200	0.496600
C2061	C206	0.027100	0.148100	0.617800
H1341	H134	0.044400	0.140600	0.657600
C2071	C207	0.675000	0.459400	0.527100
H1351	H135	0.633000	0.482500	0.506600
C2081	C208	0.498500	0.072300	0.094600
H1361	H136	0.480800	0.042900	0.115800
C2091	C209	0.194400	0.995200	0.759500
H1371	H137	0.150500	0.977700	0.738500
C2101	C210	0.288600	0.053200	0.761500
H1381	H138	0.311800	0.076800	0.742400
C2111	C211	0.556200	0.115700	0.122200
H1391	H139	0.575500	0.117400	0.162400
C2121	C212	0.755200	0.205200	0.265000
H1401	H140	0.773800	0.170000	0.247600
C2131	C213	0.222300	0.983500	0.818200
H1411	H141	0.198100	0.959700	0.836200
C2141	C214	0.785800	0.213100	0.323800
H1421	H142	0.825100	0.185400	0.345600
C2151	C215	0.697500	0.300600	0.316400
H1431	H143	0.675000	0.331700	0.332700
C2161	C216	0.672500	0.290200	0.257900
H1441	H144	0.633000	0.317000	0.235200
N611	N61	0.704500	0.470000	0.583700
N621	N62	0.061000	0.118300	0.590000
N631	N63	0.699400	0.245800	0.231000
N641	N64	0.852200	0.289900	0.529200
N651	N65	0.847500	0.234000	0.442600
N661	N66	0.762500	0.322600	0.439100
N671	N67	0.220700	0.812800	0.079400
N681	N68	0.586600	0.156300	0.094400
N691	N69	0.225100	0.029600	0.730200
N701	N70	0.374500	0.987100	0.028200
N711	N71	0.377000	0.037000	0.943100
N721	N72	0.289100	0.951000	0.936900
Ag131	Ag13	0.844230	0.043330	0.866830
Ag141	Ag14	0.821710	0.743840	0.366440
C2171	C217	0.097600	0.528400	0.499100
C2181	C218	0.532600	0.689700	0.909000
H1451	H145	0.554000	0.710400	0.887600
C2191	C219	0.623400	0.744300	0.000300
C2201	C220	0.003700	0.615000	0.494600
H1461	H146	0.023500	0.616600	0.534800
C2211	C221	0.559700	0.699800	0.968000
C2221	C222	0.181700	0.447400	0.505300
C2231	C223	0.033100	0.572600	0.465000
C2241	C224	0.797500	0.916300	0.003700
H1471	H147	0.819700	0.912300	0.043700
C2251	C225	0.709400	0.774900	0.085800
C2261	C226	0.944200	0.655200	0.462900
H1481	H148	0.924600	0.683100	0.483200
C2271	C227	0.277000	0.361500	0.508300
H1491	H149	0.297800	0.365200	0.548500
C2281	C228	0.220200	0.347300	0.390800
H1501	H150	0.200400	0.342600	0.350800
C2291	C229	0.742700	0.763300	0.149500
C2301	C230	0.735200	0.878800	0.973000
C2311	C231	0.178800	0.544200	0.679000
H1511	H151	0.134800	0.562000	0.658700
C2321	C232	0.214100	0.398500	0.475800
C2331	C233	0.735400	0.935700	0.887400
H1521	H152	0.713800	0.942700	0.847600
C2341	C234	0.212100	0.508600	0.650600
C2351	C235	0.525800	0.665700	0.997600
H1531	H153	0.543200	0.669600	0.037600
C2361	C236	0.467200	0.626500	0.967500
H1541	H154	0.445300	0.604100	0.988000
C2371	C237	0.179900	0.497900	0.586200
C2381	C238	0.186300	0.390300	0.417100
H1551	H155	0.144800	0.413300	0.394600
C2391	C239	0.306800	0.319300	0.478200
H1561	H156	0.347800	0.294500	0.499300
C2401	C240	0.703800	0.890600	0.913700
H1571	H157	0.661900	0.868300	0.891900
C2411	C241	0.705100	0.828200	0.003400
C2421	C242	0.472900	0.648100	0.882200
H1581	H158	0.455600	0.640600	0.842400
C2431	C243	0.825000	0.959400	0.972900
H1591	H159	0.867000	0.982500	0.993400
C2441	C244	0.001500	0.572300	0.405400
H1601	H160	0.019200	0.542900	0.384200
C2451	C245	0.305600	0.495200	0.740500
H1611	H161	0.349500	0.477700	0.761500
C2461	C246	0.211400	0.553200	0.738500
H1621	H162	0.188200	0.576800	0.757600
C2471	C247	0.943800	0.615700	0.377800
H1631	H163	0.924500	0.617400	0.337600
C2481	C248	0.744800	0.705200	0.235000
H1641	H164	0.726200	0.670000	0.252400
C2491	C249	0.277700	0.483500	0.681800
H1651	H165	0.301900	0.459700	0.663800
C2501	C250	0.714200	0.713100	0.176200
H1661	H166	0.674900	0.685400	0.154400
C2511	C251	0.802500	0.800600	0.183600
H1671	H167	0.825000	0.831700	0.167300
C2521	C252	0.827500	0.790200	0.242100
H1681	H168	0.867000	0.817000	0.264800
N731	N73	0.795500	0.970000	0.916300
N741	N74	0.439000	0.618300	0.910000
N751	N75	0.800600	0.745800	0.269000
N761	N76	0.647800	0.789900	0.970800
N771	N77	0.652500	0.734000	0.057400
N781	N78	0.737500	0.822600	0.060900
N791	N79	0.279300	0.312800	0.420600
N801	N80	0.913400	0.656300	0.405600
N811	N81	0.274900	0.529600	0.769800
N821	N82	0.125500	0.487100	0.471800
N831	N83	0.123000	0.537000	0.556900
N841	N84	0.210900	0.451000	0.563100
Ag151	Ag15	0.344230	0.543330	0.866830
Ag161	Ag16	0.321710	0.243840	0.366440
C2531	C253	0.597600	0.028400	0.499100
C2541	C254	0.032600	0.189700	0.909000
H1691	H169	0.054000	0.210400	0.887600
C2551	C255	0.123400	0.244300	0.000300
C2561	C256	0.503700	0.115000	0.494600
H1701	H170	0.523500	0.116600	0.534800
C2571	C257	0.059700	0.199800	0.968000
C2581	C258	0.681700	0.947400	0.505300
C2591	C259	0.533100	0.072600	0.465000
C2601	C260	0.297500	0.416300	0.003700
H1711	H171	0.319700	0.412300	0.043700
C2611	C261	0.209400	0.274900	0.085800
C2621	C262	0.444200	0.155200	0.462900
H1721	H172	0.424600	0.183100	0.483200
C2631	C263	0.777000	0.861500	0.508300
H1731	H173	0.797800	0.865200	0.548500
C2641	C264	0.720200	0.847300	0.390800
H1741	H174	0.700400	0.842600	0.350800
C2651	C265	0.242700	0.263300	0.149500
C2661	C266	0.235200	0.378800	0.973000
C2671	C267	0.678800	0.044200	0.679000
H1751	H175	0.634800	0.062000	0.658700
C2681	C268	0.714100	0.898500	0.475800
C2691	C269	0.235400	0.435700	0.887400
H1761	H176	0.213800	0.442700	0.847600
C2701	C270	0.712100	0.008600	0.650600
C2711	C271	0.025800	0.165700	0.997600
H1771	H177	0.043200	0.169600	0.037600
C2721	C272	0.967200	0.126500	0.967500
H1781	H178	0.945300	0.104100	0.988000
C2731	C273	0.679900	0.997900	0.586200
C2741	C274	0.686300	0.890300	0.417100
H1791	H179	0.644800	0.913300	0.394600
C2751	C275	0.806800	0.819300	0.478200
H1801	H180	0.847800	0.794500	0.499300
C2761	C276	0.203800	0.390600	0.913700
H1811	H181	0.161900	0.368300	0.891900
C2771	C277	0.205100	0.328200	0.003400
C2781	C278	0.972900	0.148100	0.882200
H1821	H182	0.955600	0.140600	0.842400
C2791	C279	0.325000	0.459400	0.972900
H1831	H183	0.367000	0.482500	0.993400
C2801	C280	0.501500	0.072300	0.405400
H1841	H184	0.519200	0.042900	0.384200
C2811	C281	0.805600	0.995200	0.740500
H1851	H185	0.849500	0.977700	0.761500
C2821	C282	0.711400	0.053200	0.738500
H1861	H186	0.688200	0.076800	0.757600
C2831	C283	0.443800	0.115700	0.377800
H1871	H187	0.424500	0.117400	0.337600
C2841	C284	0.244800	0.205200	0.235000
H1881	H188	0.226200	0.170000	0.252400
C2851	C285	0.777700	0.983500	0.681800
H1891	H189	0.801900	0.959700	0.663800
C2861	C286	0.214200	0.213100	0.176200
H1901	H190	0.174900	0.185400	0.154400
C2871	C287	0.302500	0.300600	0.183600
H1911	H191	0.325000	0.331700	0.167300
C2881	C288	0.327500	0.290200	0.242100
H1921	H192	0.367000	0.317000	0.264800
N851	N85	0.295500	0.470000	0.916300
N861	N86	0.939000	0.118300	0.910000
N871	N87	0.300600	0.245800	0.269000
N881	N88	0.147800	0.289900	0.970800
N891	N89	0.152500	0.234000	0.057400
N901	N90	0.237500	0.322600	0.060900
N911	N91	0.779300	0.812800	0.420600
N921	N92	0.413400	0.156300	0.405600
N931	N93	0.774900	0.029600	0.769800
N941	N94	0.625500	0.987100	0.471800
N951	N95	0.623000	0.037000	0.556900
N961	N96	0.710900	0.951000	0.563100
