data_QODHUO03_clean_PM
_symmetry_space_group_name_H-M	'P1'
_cell_length_a	22.078000
_cell_length_b	16.381700
_cell_length_c	25.631100
_cell_angle_alpha	90.000000
_cell_angle_beta	115.334000
_cell_angle_gamma	90.000000
_symmetry_Int_Tables_number 1

loop_
_symmetry_equiv_pos_as_xyz
'x,y,z'

loop_
_atom_site_label
_atom_site_type_symbol
_atom_site_fract_x
_atom_site_fract_y
_atom_site_fract_z
Ag11	Ag1	0.344120	0.542250	0.367930
Ag21	Ag2	0.322880	0.247920	0.867280
C11	C1	0.124100	0.243000	0.502480
C21	C2	0.235100	0.435300	0.388600
H11	H1	0.212800	0.442500	0.348800
C31	C3	0.033100	0.187300	0.411000
H21	H2	0.054800	0.208000	0.389800
C41	C4	0.719800	0.847900	0.892100
H31	H3	0.699600	0.843000	0.852100
C51	C5	0.060000	0.198000	0.470240
C61	C6	0.597800	0.030200	0.001070
C71	C7	0.778400	0.862100	0.009600
H41	H4	0.799500	0.865700	0.049600
C81	C8	0.444000	0.156800	0.965100
H51	H5	0.423900	0.184400	0.985200
C91	C9	0.026300	0.164200	0.500000
H61	H6	0.043700	0.168600	0.539900
C101	C10	0.298000	0.415700	0.504900
H71	H7	0.320400	0.411400	0.544800
C111	C11	0.503500	0.116700	0.996300
H81	H8	0.523400	0.118300	0.036500
C121	C12	0.243500	0.262500	0.651380
C131	C13	0.209700	0.273000	0.587660
C141	C14	0.533200	0.073900	0.966890
C151	C15	0.205400	0.327600	0.505210
C161	C16	0.967000	0.124400	0.469600
H91	H9	0.944700	0.102600	0.490100
C171	C17	0.682500	0.948100	0.006980
C181	C18	0.678800	0.044700	0.181000
H101	H10	0.634900	0.062900	0.161000
C191	C19	0.715800	0.898600	0.978000
C201	C20	0.680200	0.998100	0.088380
C211	C21	0.326000	0.459400	0.474100
H111	H11	0.368000	0.482900	0.494400
C221	C22	0.807500	0.994900	0.242800
H121	H12	0.851600	0.978100	0.263600
C231	C23	0.236000	0.378700	0.474800
C241	C24	0.204000	0.389900	0.415300
H131	H13	0.162000	0.367000	0.393800
C251	C25	0.973400	0.145100	0.384100
H141	H14	0.956200	0.137200	0.344400
C261	C26	0.712300	0.008100	0.151800
C271	C27	0.808000	0.820600	0.979400
H151	H15	0.849500	0.796300	0.000300
C281	C28	0.712000	0.053500	0.240700
H161	H16	0.689100	0.077200	0.260000
C291	C29	0.302200	0.302500	0.685000
H171	H17	0.323700	0.335100	0.668400
C301	C30	0.502500	0.073200	0.907100
H181	H18	0.521000	0.044300	0.886100
C311	C31	0.443500	0.116700	0.879300
H191	H19	0.423500	0.117300	0.839200
C321	C32	0.245700	0.204600	0.737500
H201	H20	0.226900	0.169700	0.755200
C331	C33	0.215300	0.210600	0.677900
H211	H21	0.176900	0.180600	0.656100
C341	C34	0.328400	0.292900	0.744400
H221	H22	0.367700	0.320600	0.766900
C351	C35	0.686000	0.890700	0.918400
H231	H23	0.644200	0.913700	0.896400
C361	C36	0.778400	0.983200	0.183500
H241	H24	0.802400	0.959200	0.165300
N11	N1	0.939180	0.115100	0.412170
N21	N2	0.295620	0.469600	0.416680
N31	N3	0.300800	0.246500	0.771240
N41	N4	0.148090	0.289200	0.472590
N51	N5	0.238270	0.322400	0.562910
N61	N6	0.153010	0.232000	0.559380
N71	N7	0.413430	0.158400	0.907250
N81	N8	0.780200	0.813200	0.921450
N91	N9	0.776000	0.029100	0.271820
N101	N10	0.626310	0.988500	0.972990
N111	N11	0.711210	0.950400	0.064580
N121	N12	0.622790	0.037400	0.058940
Ag31	Ag3	0.844120	0.042250	0.367930
Ag41	Ag4	0.822880	0.747920	0.867280
C371	C37	0.624100	0.743000	0.502480
C381	C38	0.735100	0.935300	0.388600
H251	H25	0.712800	0.942500	0.348800
C391	C39	0.533100	0.687300	0.411000
H261	H26	0.554800	0.708000	0.389800
C401	C40	0.219800	0.347900	0.892100
H271	H27	0.199600	0.343000	0.852100
C411	C41	0.560000	0.698000	0.470240
C421	C42	0.097800	0.530200	0.001070
C431	C43	0.278400	0.362100	0.009600
H281	H28	0.299500	0.365700	0.049600
C441	C44	0.944000	0.656800	0.965100
H291	H29	0.923900	0.684400	0.985200
C451	C45	0.526300	0.664200	0.500000
H301	H30	0.543700	0.668600	0.539900
C461	C46	0.798000	0.915700	0.504900
H311	H31	0.820400	0.911400	0.544800
C471	C47	0.003500	0.616700	0.996300
H321	H32	0.023400	0.618300	0.036500
C481	C48	0.743500	0.762500	0.651380
C491	C49	0.709700	0.773000	0.587660
C501	C50	0.033200	0.573900	0.966890
C511	C51	0.705400	0.827600	0.505210
C521	C52	0.467000	0.624400	0.469600
H331	H33	0.444700	0.602600	0.490100
C531	C53	0.182500	0.448100	0.006980
C541	C54	0.178800	0.544700	0.181000
H341	H34	0.134900	0.562900	0.161000
C551	C55	0.215800	0.398600	0.978000
C561	C56	0.180200	0.498100	0.088380
C571	C57	0.826000	0.959400	0.474100
H351	H35	0.868000	0.982900	0.494400
C581	C58	0.307500	0.494900	0.242800
H361	H36	0.351600	0.478100	0.263600
C591	C59	0.736000	0.878700	0.474800
C601	C60	0.704000	0.889900	0.415300
H371	H37	0.662000	0.867000	0.393800
C611	C61	0.473400	0.645100	0.384100
H381	H38	0.456200	0.637200	0.344400
C621	C62	0.212300	0.508100	0.151800
C631	C63	0.308000	0.320600	0.979400
H391	H39	0.349500	0.296300	0.000300
C641	C64	0.212000	0.553500	0.240700
H401	H40	0.189100	0.577200	0.260000
C651	C65	0.802200	0.802500	0.685000
H411	H41	0.823700	0.835100	0.668400
C661	C66	0.002500	0.573200	0.907100
H421	H42	0.021000	0.544300	0.886100
C671	C67	0.943500	0.616700	0.879300
H431	H43	0.923500	0.617300	0.839200
C681	C68	0.745700	0.704600	0.737500
H441	H44	0.726900	0.669700	0.755200
C691	C69	0.715300	0.710600	0.677900
H451	H45	0.676900	0.680600	0.656100
C701	C70	0.828400	0.792900	0.744400
H461	H46	0.867700	0.820600	0.766900
C711	C71	0.186000	0.390700	0.918400
H471	H47	0.144200	0.413700	0.896400
C721	C72	0.278400	0.483200	0.183500
H481	H48	0.302400	0.459200	0.165300
N131	N13	0.439180	0.615100	0.412170
N141	N14	0.795620	0.969600	0.416680
N151	N15	0.800800	0.746500	0.771240
N161	N16	0.648090	0.789200	0.472590
N171	N17	0.738270	0.822400	0.562910
N181	N18	0.653010	0.732000	0.559380
N191	N19	0.913430	0.658400	0.907250
N201	N20	0.280200	0.313200	0.921450
N211	N21	0.276000	0.529100	0.271820
N221	N22	0.126310	0.488500	0.972990
N231	N23	0.211210	0.450400	0.064580
N241	N24	0.122790	0.537400	0.058940
Ag51	Ag5	0.655880	0.542250	0.132070
Ag61	Ag6	0.677120	0.247920	0.632720
C731	C73	0.875900	0.243000	0.997520
C741	C74	0.764900	0.435300	0.111400
H491	H49	0.787200	0.442500	0.151200
C751	C75	0.966900	0.187300	0.089000
H501	H50	0.945200	0.208000	0.110200
C761	C76	0.280200	0.847900	0.607900
H511	H51	0.300400	0.843000	0.647900
C771	C77	0.940000	0.198000	0.029760
C781	C78	0.402200	0.030200	0.498930
C791	C79	0.221600	0.862100	0.490400
H521	H52	0.200500	0.865700	0.450400
C801	C80	0.556000	0.156800	0.534900
H531	H53	0.576100	0.184400	0.514800
C811	C81	0.973700	0.164200	0.000000
H541	H54	0.956300	0.168600	0.960100
C821	C82	0.702000	0.415700	0.995100
H551	H55	0.679600	0.411400	0.955200
C831	C83	0.496500	0.116700	0.503700
H561	H56	0.476600	0.118300	0.463500
C841	C84	0.756500	0.262500	0.848620
C851	C85	0.790300	0.273000	0.912340
C861	C86	0.466800	0.073900	0.533110
C871	C87	0.794600	0.327600	0.994790
C881	C88	0.033000	0.124400	0.030400
H571	H57	0.055300	0.102600	0.009900
C891	C89	0.317500	0.948100	0.493020
C901	C90	0.321200	0.044700	0.319000
H581	H58	0.365100	0.062900	0.339000
C911	C91	0.284200	0.898600	0.522000
C921	C92	0.319800	0.998100	0.411620
C931	C93	0.674000	0.459400	0.025900
H591	H59	0.632000	0.482900	0.005600
C941	C94	0.192500	0.994900	0.257200
H601	H60	0.148400	0.978100	0.236400
C951	C95	0.764000	0.378700	0.025200
C961	C96	0.796000	0.389900	0.084700
H611	H61	0.838000	0.367000	0.106200
C971	C97	0.026600	0.145100	0.115900
H621	H62	0.043800	0.137200	0.155600
C981	C98	0.287700	0.008100	0.348200
C991	C99	0.192000	0.820600	0.520600
H631	H63	0.150500	0.796300	0.499700
C1001	C100	0.288000	0.053500	0.259300
H641	H64	0.310900	0.077200	0.240000
C1011	C101	0.697800	0.302500	0.815000
H651	H65	0.676300	0.335100	0.831600
C1021	C102	0.497500	0.073200	0.592900
H661	H66	0.479000	0.044300	0.613900
C1031	C103	0.556500	0.116700	0.620700
H671	H67	0.576500	0.117300	0.660800
C1041	C104	0.754300	0.204600	0.762500
H681	H68	0.773100	0.169700	0.744800
C1051	C105	0.784700	0.210600	0.822100
H691	H69	0.823100	0.180600	0.843900
C1061	C106	0.671600	0.292900	0.755600
H701	H70	0.632300	0.320600	0.733100
C1071	C107	0.314000	0.890700	0.581600
H711	H71	0.355800	0.913700	0.603600
C1081	C108	0.221600	0.983200	0.316500
H721	H72	0.197600	0.959200	0.334700
N251	N25	0.060820	0.115100	0.087830
N261	N26	0.704380	0.469600	0.083320
N271	N27	0.699200	0.246500	0.728760
N281	N28	0.851910	0.289200	0.027410
N291	N29	0.761730	0.322400	0.937090
N301	N30	0.846990	0.232000	0.940620
N311	N31	0.586570	0.158400	0.592750
N321	N32	0.219800	0.813200	0.578550
N331	N33	0.224000	0.029100	0.228180
N341	N34	0.373690	0.988500	0.527010
N351	N35	0.288790	0.950400	0.435420
N361	N36	0.377210	0.037400	0.441060
Ag71	Ag7	0.155880	0.042250	0.132070
Ag81	Ag8	0.177120	0.747920	0.632720
C1091	C109	0.375900	0.743000	0.997520
C1101	C110	0.264900	0.935300	0.111400
H731	H73	0.287200	0.942500	0.151200
C1111	C111	0.466900	0.687300	0.089000
H741	H74	0.445200	0.708000	0.110200
C1121	C112	0.780200	0.347900	0.607900
H751	H75	0.800400	0.343000	0.647900
C1131	C113	0.440000	0.698000	0.029760
C1141	C114	0.902200	0.530200	0.498930
C1151	C115	0.721600	0.362100	0.490400
H761	H76	0.700500	0.365700	0.450400
C1161	C116	0.056000	0.656800	0.534900
H771	H77	0.076100	0.684400	0.514800
C1171	C117	0.473700	0.664200	0.000000
H781	H78	0.456300	0.668600	0.960100
C1181	C118	0.202000	0.915700	0.995100
H791	H79	0.179600	0.911400	0.955200
C1191	C119	0.996500	0.616700	0.503700
H801	H80	0.976600	0.618300	0.463500
C1201	C120	0.256500	0.762500	0.848620
C1211	C121	0.290300	0.773000	0.912340
C1221	C122	0.966800	0.573900	0.533110
C1231	C123	0.294600	0.827600	0.994790
C1241	C124	0.533000	0.624400	0.030400
H811	H81	0.555300	0.602600	0.009900
C1251	C125	0.817500	0.448100	0.493020
C1261	C126	0.821200	0.544700	0.319000
H821	H82	0.865100	0.562900	0.339000
C1271	C127	0.784200	0.398600	0.522000
C1281	C128	0.819800	0.498100	0.411620
C1291	C129	0.174000	0.959400	0.025900
H831	H83	0.132000	0.982900	0.005600
C1301	C130	0.692500	0.494900	0.257200
H841	H84	0.648400	0.478100	0.236400
C1311	C131	0.264000	0.878700	0.025200
C1321	C132	0.296000	0.889900	0.084700
H851	H85	0.338000	0.867000	0.106200
C1331	C133	0.526600	0.645100	0.115900
H861	H86	0.543800	0.637200	0.155600
C1341	C134	0.787700	0.508100	0.348200
C1351	C135	0.692000	0.320600	0.520600
H871	H87	0.650500	0.296300	0.499700
C1361	C136	0.788000	0.553500	0.259300
H881	H88	0.810900	0.577200	0.240000
C1371	C137	0.197800	0.802500	0.815000
H891	H89	0.176300	0.835100	0.831600
C1381	C138	0.997500	0.573200	0.592900
H901	H90	0.979000	0.544300	0.613900
C1391	C139	0.056500	0.616700	0.620700
H911	H91	0.076500	0.617300	0.660800
C1401	C140	0.254300	0.704600	0.762500
H921	H92	0.273100	0.669700	0.744800
C1411	C141	0.284700	0.710600	0.822100
H931	H93	0.323100	0.680600	0.843900
C1421	C142	0.171600	0.792900	0.755600
H941	H94	0.132300	0.820600	0.733100
C1431	C143	0.814000	0.390700	0.581600
H951	H95	0.855800	0.413700	0.603600
C1441	C144	0.721600	0.483200	0.316500
H961	H96	0.697600	0.459200	0.334700
N371	N37	0.560820	0.615100	0.087830
N381	N38	0.204380	0.969600	0.083320
N391	N39	0.199200	0.746500	0.728760
N401	N40	0.351910	0.789200	0.027410
N411	N41	0.261730	0.822400	0.937090
N421	N42	0.346990	0.732000	0.940620
N431	N43	0.086570	0.658400	0.592750
N441	N44	0.719800	0.313200	0.578550
N451	N45	0.724000	0.529100	0.228180
N461	N46	0.873690	0.488500	0.527010
N471	N47	0.788790	0.450400	0.435420
N481	N48	0.877210	0.537400	0.441060
Ag91	Ag9	0.655880	0.457750	0.632070
Ag101	Ag10	0.677120	0.752080	0.132720
C1451	C145	0.875900	0.757000	0.497520
C1461	C146	0.764900	0.564700	0.611400
H971	H97	0.787200	0.557500	0.651200
C1471	C147	0.966900	0.812700	0.589000
H981	H98	0.945200	0.792000	0.610200
C1481	C148	0.280200	0.152100	0.107900
H991	H99	0.300400	0.157000	0.147900
C1491	C149	0.940000	0.802000	0.529760
C1501	C150	0.402200	0.969800	0.998930
C1511	C151	0.221600	0.137900	0.990400
H1001	H100	0.200500	0.134300	0.950400
C1521	C152	0.556000	0.843200	0.034900
H1011	H101	0.576100	0.815600	0.014800
C1531	C153	0.973700	0.835800	0.500000
H1021	H102	0.956300	0.831400	0.460100
C1541	C154	0.702000	0.584300	0.495100
H1031	H103	0.679600	0.588600	0.455200
C1551	C155	0.496500	0.883300	0.003700
H1041	H104	0.476600	0.881700	0.963500
C1561	C156	0.756500	0.737500	0.348620
C1571	C157	0.790300	0.727000	0.412340
C1581	C158	0.466800	0.926100	0.033110
C1591	C159	0.794600	0.672400	0.494790
C1601	C160	0.033000	0.875600	0.530400
H1051	H105	0.055300	0.897400	0.509900
C1611	C161	0.317500	0.051900	0.993020
C1621	C162	0.321200	0.955300	0.819000
H1061	H106	0.365100	0.937100	0.839000
C1631	C163	0.284200	0.101400	0.022000
C1641	C164	0.319800	0.001900	0.911620
C1651	C165	0.674000	0.540600	0.525900
H1071	H107	0.632000	0.517100	0.505600
C1661	C166	0.192500	0.005100	0.757200
H1081	H108	0.148400	0.021900	0.736400
C1671	C167	0.764000	0.621300	0.525200
C1681	C168	0.796000	0.610100	0.584700
H1091	H109	0.838000	0.633000	0.606200
C1691	C169	0.026600	0.854900	0.615900
H1101	H110	0.043800	0.862800	0.655600
C1701	C170	0.287700	0.991900	0.848200
C1711	C171	0.192000	0.179400	0.020600
H1111	H111	0.150500	0.203700	0.999700
C1721	C172	0.288000	0.946500	0.759300
H1121	H112	0.310900	0.922800	0.740000
C1731	C173	0.697800	0.697500	0.315000
H1131	H113	0.676300	0.664900	0.331600
C1741	C174	0.497500	0.926800	0.092900
H1141	H114	0.479000	0.955700	0.113900
C1751	C175	0.556500	0.883300	0.120700
H1151	H115	0.576500	0.882700	0.160800
C1761	C176	0.754300	0.795400	0.262500
H1161	H116	0.773100	0.830300	0.244800
C1771	C177	0.784700	0.789400	0.322100
H1171	H117	0.823100	0.819400	0.343900
C1781	C178	0.671600	0.707100	0.255600
H1181	H118	0.632300	0.679400	0.233100
C1791	C179	0.314000	0.109300	0.081600
H1191	H119	0.355800	0.086300	0.103600
C1801	C180	0.221600	0.016800	0.816500
H1201	H120	0.197600	0.040800	0.834700
N491	N49	0.060820	0.884900	0.587830
N501	N50	0.704380	0.530400	0.583320
N511	N51	0.699200	0.753500	0.228760
N521	N52	0.851910	0.710800	0.527410
N531	N53	0.761730	0.677600	0.437090
N541	N54	0.846990	0.768000	0.440620
N551	N55	0.586570	0.841600	0.092750
N561	N56	0.219800	0.186800	0.078550
N571	N57	0.224000	0.970900	0.728180
N581	N58	0.373690	0.011500	0.027010
N591	N59	0.288790	0.049600	0.935420
N601	N60	0.377210	0.962600	0.941060
Ag111	Ag11	0.155880	0.957750	0.632070
Ag121	Ag12	0.177120	0.252080	0.132720
C1811	C181	0.375900	0.257000	0.497520
C1821	C182	0.264900	0.064700	0.611400
H1211	H121	0.287200	0.057500	0.651200
C1831	C183	0.466900	0.312700	0.589000
H1221	H122	0.445200	0.292000	0.610200
C1841	C184	0.780200	0.652100	0.107900
H1231	H123	0.800400	0.657000	0.147900
C1851	C185	0.440000	0.302000	0.529760
C1861	C186	0.902200	0.469800	0.998930
C1871	C187	0.721600	0.637900	0.990400
H1241	H124	0.700500	0.634300	0.950400
C1881	C188	0.056000	0.343200	0.034900
H1251	H125	0.076100	0.315600	0.014800
C1891	C189	0.473700	0.335800	0.500000
H1261	H126	0.456300	0.331400	0.460100
C1901	C190	0.202000	0.084300	0.495100
H1271	H127	0.179600	0.088600	0.455200
C1911	C191	0.996500	0.383300	0.003700
H1281	H128	0.976600	0.381700	0.963500
C1921	C192	0.256500	0.237500	0.348620
C1931	C193	0.290300	0.227000	0.412340
C1941	C194	0.966800	0.426100	0.033110
C1951	C195	0.294600	0.172400	0.494790
C1961	C196	0.533000	0.375600	0.530400
H1291	H129	0.555300	0.397400	0.509900
C1971	C197	0.817500	0.551900	0.993020
C1981	C198	0.821200	0.455300	0.819000
H1301	H130	0.865100	0.437100	0.839000
C1991	C199	0.784200	0.601400	0.022000
C2001	C200	0.819800	0.501900	0.911620
C2011	C201	0.174000	0.040600	0.525900
H1311	H131	0.132000	0.017100	0.505600
C2021	C202	0.692500	0.505100	0.757200
H1321	H132	0.648400	0.521900	0.736400
C2031	C203	0.264000	0.121300	0.525200
C2041	C204	0.296000	0.110100	0.584700
H1331	H133	0.338000	0.133000	0.606200
C2051	C205	0.526600	0.354900	0.615900
H1341	H134	0.543800	0.362800	0.655600
C2061	C206	0.787700	0.491900	0.848200
C2071	C207	0.692000	0.679400	0.020600
H1351	H135	0.650500	0.703700	0.999700
C2081	C208	0.788000	0.446500	0.759300
H1361	H136	0.810900	0.422800	0.740000
C2091	C209	0.197800	0.197500	0.315000
H1371	H137	0.176300	0.164900	0.331600
C2101	C210	0.997500	0.426800	0.092900
H1381	H138	0.979000	0.455700	0.113900
C2111	C211	0.056500	0.383300	0.120700
H1391	H139	0.076500	0.382700	0.160800
C2121	C212	0.254300	0.295400	0.262500
H1401	H140	0.273100	0.330300	0.244800
C2131	C213	0.284700	0.289400	0.322100
H1411	H141	0.323100	0.319400	0.343900
C2141	C214	0.171600	0.207100	0.255600
H1421	H142	0.132300	0.179400	0.233100
C2151	C215	0.814000	0.609300	0.081600
H1431	H143	0.855800	0.586300	0.103600
C2161	C216	0.721600	0.516800	0.816500
H1441	H144	0.697600	0.540800	0.834700
N611	N61	0.560820	0.384900	0.587830
N621	N62	0.204380	0.030400	0.583320
N631	N63	0.199200	0.253500	0.228760
N641	N64	0.351910	0.210800	0.527410
N651	N65	0.261730	0.177600	0.437090
N661	N66	0.346990	0.268000	0.440620
N671	N67	0.086570	0.341600	0.092750
N681	N68	0.719800	0.686800	0.078550
N691	N69	0.724000	0.470900	0.728180
N701	N70	0.873690	0.511500	0.027010
N711	N71	0.788790	0.549600	0.935420
N721	N72	0.877210	0.462600	0.941060
Ag131	Ag13	0.344120	0.457750	0.867930
Ag141	Ag14	0.322880	0.752080	0.367280
C2171	C217	0.124100	0.757000	0.002480
C2181	C218	0.235100	0.564700	0.888600
H1451	H145	0.212800	0.557500	0.848800
C2191	C219	0.033100	0.812700	0.911000
H1461	H146	0.054800	0.792000	0.889800
C2201	C220	0.719800	0.152100	0.392100
H1471	H147	0.699600	0.157000	0.352100
C2211	C221	0.060000	0.802000	0.970240
C2221	C222	0.597800	0.969800	0.501070
C2231	C223	0.778400	0.137900	0.509600
H1481	H148	0.799500	0.134300	0.549600
C2241	C224	0.444000	0.843200	0.465100
H1491	H149	0.423900	0.815600	0.485200
C2251	C225	0.026300	0.835800	0.000000
H1501	H150	0.043700	0.831400	0.039900
C2261	C226	0.298000	0.584300	0.004900
H1511	H151	0.320400	0.588600	0.044800
C2271	C227	0.503500	0.883300	0.496300
H1521	H152	0.523400	0.881700	0.536500
C2281	C228	0.243500	0.737500	0.151380
C2291	C229	0.209700	0.727000	0.087660
C2301	C230	0.533200	0.926100	0.466890
C2311	C231	0.205400	0.672400	0.005210
C2321	C232	0.967000	0.875600	0.969600
H1531	H153	0.944700	0.897400	0.990100
C2331	C233	0.682500	0.051900	0.506980
C2341	C234	0.678800	0.955300	0.681000
H1541	H154	0.634900	0.937100	0.661000
C2351	C235	0.715800	0.101400	0.478000
C2361	C236	0.680200	0.001900	0.588380
C2371	C237	0.326000	0.540600	0.974100
H1551	H155	0.368000	0.517100	0.994400
C2381	C238	0.807500	0.005100	0.742800
H1561	H156	0.851600	0.021900	0.763600
C2391	C239	0.236000	0.621300	0.974800
C2401	C240	0.204000	0.610100	0.915300
H1571	H157	0.162000	0.633000	0.893800
C2411	C241	0.973400	0.854900	0.884100
H1581	H158	0.956200	0.862800	0.844400
C2421	C242	0.712300	0.991900	0.651800
C2431	C243	0.808000	0.179400	0.479400
H1591	H159	0.849500	0.203700	0.500300
C2441	C244	0.712000	0.946500	0.740700
H1601	H160	0.689100	0.922800	0.760000
C2451	C245	0.302200	0.697500	0.185000
H1611	H161	0.323700	0.664900	0.168400
C2461	C246	0.502500	0.926800	0.407100
H1621	H162	0.521000	0.955700	0.386100
C2471	C247	0.443500	0.883300	0.379300
H1631	H163	0.423500	0.882700	0.339200
C2481	C248	0.245700	0.795400	0.237500
H1641	H164	0.226900	0.830300	0.255200
C2491	C249	0.215300	0.789400	0.177900
H1651	H165	0.176900	0.819400	0.156100
C2501	C250	0.328400	0.707100	0.244400
H1661	H166	0.367700	0.679400	0.266900
C2511	C251	0.686000	0.109300	0.418400
H1671	H167	0.644200	0.086300	0.396400
C2521	C252	0.778400	0.016800	0.683500
H1681	H168	0.802400	0.040800	0.665300
N731	N73	0.939180	0.884900	0.912170
N741	N74	0.295620	0.530400	0.916680
N751	N75	0.300800	0.753500	0.271240
N761	N76	0.148090	0.710800	0.972590
N771	N77	0.238270	0.677600	0.062910
N781	N78	0.153010	0.768000	0.059380
N791	N79	0.413430	0.841600	0.407250
N801	N80	0.780200	0.186800	0.421450
N811	N81	0.776000	0.970900	0.771820
N821	N82	0.626310	0.011500	0.472990
N831	N83	0.711210	0.049600	0.564580
N841	N84	0.622790	0.962600	0.558940
Ag151	Ag15	0.844120	0.957750	0.867930
Ag161	Ag16	0.822880	0.252080	0.367280
C2531	C253	0.624100	0.257000	0.002480
C2541	C254	0.735100	0.064700	0.888600
H1691	H169	0.712800	0.057500	0.848800
C2551	C255	0.533100	0.312700	0.911000
H1701	H170	0.554800	0.292000	0.889800
C2561	C256	0.219800	0.652100	0.392100
H1711	H171	0.199600	0.657000	0.352100
C2571	C257	0.560000	0.302000	0.970240
C2581	C258	0.097800	0.469800	0.501070
C2591	C259	0.278400	0.637900	0.509600
H1721	H172	0.299500	0.634300	0.549600
C2601	C260	0.944000	0.343200	0.465100
H1731	H173	0.923900	0.315600	0.485200
C2611	C261	0.526300	0.335800	0.000000
H1741	H174	0.543700	0.331400	0.039900
C2621	C262	0.798000	0.084300	0.004900
H1751	H175	0.820400	0.088600	0.044800
C2631	C263	0.003500	0.383300	0.496300
H1761	H176	0.023400	0.381700	0.536500
C2641	C264	0.743500	0.237500	0.151380
C2651	C265	0.709700	0.227000	0.087660
C2661	C266	0.033200	0.426100	0.466890
C2671	C267	0.705400	0.172400	0.005210
C2681	C268	0.467000	0.375600	0.969600
H1771	H177	0.444700	0.397400	0.990100
C2691	C269	0.182500	0.551900	0.506980
C2701	C270	0.178800	0.455300	0.681000
H1781	H178	0.134900	0.437100	0.661000
C2711	C271	0.215800	0.601400	0.478000
C2721	C272	0.180200	0.501900	0.588380
C2731	C273	0.826000	0.040600	0.974100
H1791	H179	0.868000	0.017100	0.994400
C2741	C274	0.307500	0.505100	0.742800
H1801	H180	0.351600	0.521900	0.763600
C2751	C275	0.736000	0.121300	0.974800
C2761	C276	0.704000	0.110100	0.915300
H1811	H181	0.662000	0.133000	0.893800
C2771	C277	0.473400	0.354900	0.884100
H1821	H182	0.456200	0.362800	0.844400
C2781	C278	0.212300	0.491900	0.651800
C2791	C279	0.308000	0.679400	0.479400
H1831	H183	0.349500	0.703700	0.500300
C2801	C280	0.212000	0.446500	0.740700
H1841	H184	0.189100	0.422800	0.760000
C2811	C281	0.802200	0.197500	0.185000
H1851	H185	0.823700	0.164900	0.168400
C2821	C282	0.002500	0.426800	0.407100
H1861	H186	0.021000	0.455700	0.386100
C2831	C283	0.943500	0.383300	0.379300
H1871	H187	0.923500	0.382700	0.339200
C2841	C284	0.745700	0.295400	0.237500
H1881	H188	0.726900	0.330300	0.255200
C2851	C285	0.715300	0.289400	0.177900
H1891	H189	0.676900	0.319400	0.156100
C2861	C286	0.828400	0.207100	0.244400
H1901	H190	0.867700	0.179400	0.266900
C2871	C287	0.186000	0.609300	0.418400
H1911	H191	0.144200	0.586300	0.396400
C2881	C288	0.278400	0.516800	0.683500
H1921	H192	0.302400	0.540800	0.665300
N851	N85	0.439180	0.384900	0.912170
N861	N86	0.795620	0.030400	0.916680
N871	N87	0.800800	0.253500	0.271240
N881	N88	0.648090	0.210800	0.972590
N891	N89	0.738270	0.177600	0.062910
N901	N90	0.653010	0.268000	0.059380
N911	N91	0.913430	0.341600	0.407250
N921	N92	0.280200	0.686800	0.421450
N931	N93	0.276000	0.470900	0.771820
N941	N94	0.126310	0.511500	0.472990
N951	N95	0.211210	0.549600	0.564580
N961	N96	0.122790	0.462600	0.558940
