data_QODPOQ_clean_PM
_symmetry_space_group_name_H-M	'P1'
_cell_length_a	21.950400
_cell_length_b	16.709500
_cell_length_c	25.612800
_cell_angle_alpha	90.000000
_cell_angle_beta	115.366000
_cell_angle_gamma	90.000000
_symmetry_Int_Tables_number 1

loop_
_symmetry_equiv_pos_as_xyz
'x,y,z'

loop_
_atom_site_label
_atom_site_type_symbol
_atom_site_fract_x
_atom_site_fract_y
_atom_site_fract_z
Ag11	Ag1	0.273630	0.208790	0.867940
Ag21	Ag2	0.795570	0.503130	0.367440
C11	C1	0.653100	0.719800	0.500300
C21	C2	0.422200	0.899500	0.391900
H11	H1	0.401400	0.902500	0.351800
C31	C3	0.627600	0.561100	0.910600
H21	H2	0.584900	0.539700	0.889200
C41	C4	0.627500	0.506700	0.001700
C51	C5	0.574600	0.801600	0.506000
C61	C6	0.770700	0.593500	0.464600
H31	H3	0.810800	0.565900	0.484800
C71	C7	0.481900	0.887300	0.508700
H41	H4	0.501300	0.884200	0.548800
C81	C8	0.402900	0.315900	0.888800
H51	H5	0.384700	0.309500	0.848900
C91	C9	0.742800	0.633900	0.495600
H61	H6	0.763400	0.633100	0.535800
C101	C10	0.658900	0.551500	0.969000
C111	C11	0.722400	0.585100	0.998200
H71	H7	0.745300	0.580400	0.038100
C121	C12	0.683600	0.675900	0.466300
C131	C13	0.626900	0.475300	0.087200
C141	C14	0.658100	0.485800	0.150500
C151	C15	0.481900	0.858400	0.418000
H81	H8	0.501600	0.836200	0.395700
C161	C16	0.549600	0.422500	0.004600
C171	C17	0.689900	0.742000	0.651500
C181	C18	0.457200	0.334100	0.005300
H91	H9	0.475100	0.337600	0.045400
C191	C19	0.751000	0.624800	0.968100
H101	H10	0.793700	0.646500	0.988600
C201	C20	0.460700	0.360900	0.914900
H111	H11	0.480900	0.383300	0.893000
C211	C21	0.751800	0.707100	0.680000
H121	H12	0.775800	0.689500	0.659800
C221	C22	0.660500	0.603000	0.884200
H131	H13	0.638200	0.609800	0.844400
C231	C23	0.778300	0.698200	0.739600
H141	H14	0.820200	0.673800	0.758600
C241	C24	0.399000	0.290900	0.974300
H151	H15	0.377700	0.267100	0.994900
C251	C25	0.656100	0.767700	0.683300
H161	H16	0.614000	0.791800	0.665400
C261	C26	0.658300	0.751500	0.587200
C271	C27	0.512400	0.850000	0.476900
C281	C28	0.655000	0.675100	0.407000
H171	H17	0.615800	0.703900	0.385900
C291	C29	0.686400	0.756700	0.741900
H181	H18	0.663300	0.774000	0.762900
C301	C30	0.712400	0.537000	0.177300
H191	H19	0.729000	0.566700	0.155500
C311	C31	0.488500	0.372500	0.974500
C321	C32	0.422100	0.929100	0.479000
H201	H20	0.401900	0.953600	0.500200
C331	C33	0.741500	0.543300	0.236600
H211	H21	0.777600	0.578200	0.254000
C341	C34	0.633000	0.446000	0.184400
H221	H22	0.594400	0.414700	0.168100
C351	C35	0.667700	0.454600	0.243800
H231	H23	0.652600	0.424800	0.266700
C361	C36	0.685300	0.631000	0.379000
H241	H24	0.664200	0.628600	0.338900
N11	N1	0.371500	0.280900	0.917500
N21	N2	0.721600	0.634500	0.911100
N31	N3	0.720300	0.501400	0.270600
N41	N4	0.573900	0.461000	0.972100
N51	N5	0.655700	0.517100	0.058300
N61	N6	0.574900	0.427200	0.062600
N71	N7	0.743600	0.591400	0.406800
N81	N8	0.746300	0.723200	0.771000
N91	N9	0.392200	0.935800	0.422000
N101	N10	0.597300	0.761100	0.472900
N111	N11	0.685800	0.712900	0.558300
N121	N12	0.603500	0.798800	0.563900
Ag31	Ag3	0.773630	0.708790	0.867940
Ag41	Ag4	0.295570	0.003130	0.367440
C371	C37	0.153100	0.219800	0.500300
C381	C38	0.922200	0.399500	0.391900
H251	H25	0.901400	0.402500	0.351800
C391	C39	0.127600	0.061100	0.910600
H261	H26	0.084900	0.039700	0.889200
C401	C40	0.127500	0.006700	0.001700
C411	C41	0.074600	0.301600	0.506000
C421	C42	0.270700	0.093500	0.464600
H271	H27	0.310800	0.065900	0.484800
C431	C43	0.981900	0.387300	0.508700
H281	H28	0.001300	0.384200	0.548800
C441	C44	0.902900	0.815900	0.888800
H291	H29	0.884700	0.809500	0.848900
C451	C45	0.242800	0.133900	0.495600
H301	H30	0.263400	0.133100	0.535800
C461	C46	0.158900	0.051500	0.969000
C471	C47	0.222400	0.085100	0.998200
H311	H31	0.245300	0.080400	0.038100
C481	C48	0.183600	0.175900	0.466300
C491	C49	0.126900	0.975300	0.087200
C501	C50	0.158100	0.985800	0.150500
C511	C51	0.981900	0.358400	0.418000
H321	H32	0.001600	0.336200	0.395700
C521	C52	0.049600	0.922500	0.004600
C531	C53	0.189900	0.242000	0.651500
C541	C54	0.957200	0.834100	0.005300
H331	H33	0.975100	0.837600	0.045400
C551	C55	0.251000	0.124800	0.968100
H341	H34	0.293700	0.146500	0.988600
C561	C56	0.960700	0.860900	0.914900
H351	H35	0.980900	0.883300	0.893000
C571	C57	0.251800	0.207100	0.680000
H361	H36	0.275800	0.189500	0.659800
C581	C58	0.160500	0.103000	0.884200
H371	H37	0.138200	0.109800	0.844400
C591	C59	0.278300	0.198200	0.739600
H381	H38	0.320200	0.173800	0.758600
C601	C60	0.899000	0.790900	0.974300
H391	H39	0.877700	0.767100	0.994900
C611	C61	0.156100	0.267700	0.683300
H401	H40	0.114000	0.291800	0.665400
C621	C62	0.158300	0.251500	0.587200
C631	C63	0.012400	0.350000	0.476900
C641	C64	0.155000	0.175100	0.407000
H411	H41	0.115800	0.203900	0.385900
C651	C65	0.186400	0.256700	0.741900
H421	H42	0.163300	0.274000	0.762900
C661	C66	0.212400	0.037000	0.177300
H431	H43	0.229000	0.066700	0.155500
C671	C67	0.988500	0.872500	0.974500
C681	C68	0.922100	0.429100	0.479000
H441	H44	0.901900	0.453600	0.500200
C691	C69	0.241500	0.043300	0.236600
H451	H45	0.277600	0.078200	0.254000
C701	C70	0.133000	0.946000	0.184400
H461	H46	0.094400	0.914700	0.168100
C711	C71	0.167700	0.954600	0.243800
H471	H47	0.152600	0.924800	0.266700
C721	C72	0.185300	0.131000	0.379000
H481	H48	0.164200	0.128600	0.338900
N131	N13	0.871500	0.780900	0.917500
N141	N14	0.221600	0.134500	0.911100
N151	N15	0.220300	0.001400	0.270600
N161	N16	0.073900	0.961000	0.972100
N171	N17	0.155700	0.017100	0.058300
N181	N18	0.074900	0.927200	0.062600
N191	N19	0.243600	0.091400	0.406800
N201	N20	0.246300	0.223200	0.771000
N211	N21	0.892200	0.435800	0.422000
N221	N22	0.097300	0.261100	0.472900
N231	N23	0.185800	0.212900	0.558300
N241	N24	0.103500	0.298800	0.563900
Ag51	Ag5	0.726370	0.208790	0.632060
Ag61	Ag6	0.204430	0.503130	0.132560
C731	C73	0.346900	0.719800	0.999700
C741	C74	0.577800	0.899500	0.108100
H491	H49	0.598600	0.902500	0.148200
C751	C75	0.372400	0.561100	0.589400
H501	H50	0.415100	0.539700	0.610800
C761	C76	0.372500	0.506700	0.498300
C771	C77	0.425400	0.801600	0.994000
C781	C78	0.229300	0.593500	0.035400
H511	H51	0.189200	0.565900	0.015200
C791	C79	0.518100	0.887300	0.991300
H521	H52	0.498700	0.884200	0.951200
C801	C80	0.597100	0.315900	0.611200
H531	H53	0.615300	0.309500	0.651100
C811	C81	0.257200	0.633900	0.004400
H541	H54	0.236600	0.633100	0.964200
C821	C82	0.341100	0.551500	0.531000
C831	C83	0.277600	0.585100	0.501800
H551	H55	0.254700	0.580400	0.461900
C841	C84	0.316400	0.675900	0.033700
C851	C85	0.373100	0.475300	0.412800
C861	C86	0.341900	0.485800	0.349500
C871	C87	0.518100	0.858400	0.082000
H561	H56	0.498400	0.836200	0.104300
C881	C88	0.450400	0.422500	0.495400
C891	C89	0.310100	0.742000	0.848500
C901	C90	0.542800	0.334100	0.494700
H571	H57	0.524900	0.337600	0.454600
C911	C91	0.249000	0.624800	0.531900
H581	H58	0.206300	0.646500	0.511400
C921	C92	0.539300	0.360900	0.585100
H591	H59	0.519100	0.383300	0.607000
C931	C93	0.248200	0.707100	0.820000
H601	H60	0.224200	0.689500	0.840200
C941	C94	0.339500	0.603000	0.615800
H611	H61	0.361800	0.609800	0.655600
C951	C95	0.221700	0.698200	0.760400
H621	H62	0.179800	0.673800	0.741400
C961	C96	0.601000	0.290900	0.525700
H631	H63	0.622300	0.267100	0.505100
C971	C97	0.343900	0.767700	0.816700
H641	H64	0.386000	0.791800	0.834600
C981	C98	0.341700	0.751500	0.912800
C991	C99	0.487600	0.850000	0.023100
C1001	C100	0.345000	0.675100	0.093000
H651	H65	0.384200	0.703900	0.114100
C1011	C101	0.313600	0.756700	0.758100
H661	H66	0.336700	0.774000	0.737100
C1021	C102	0.287600	0.537000	0.322700
H671	H67	0.271000	0.566700	0.344500
C1031	C103	0.511500	0.372500	0.525500
C1041	C104	0.577900	0.929100	0.021000
H681	H68	0.598100	0.953600	0.999800
C1051	C105	0.258500	0.543300	0.263400
H691	H69	0.222400	0.578200	0.246000
C1061	C106	0.367000	0.446000	0.315600
H701	H70	0.405600	0.414700	0.331900
C1071	C107	0.332300	0.454600	0.256200
H711	H71	0.347400	0.424800	0.233300
C1081	C108	0.314700	0.631000	0.121000
H721	H72	0.335800	0.628600	0.161100
N251	N25	0.628500	0.280900	0.582500
N261	N26	0.278400	0.634500	0.588900
N271	N27	0.279700	0.501400	0.229400
N281	N28	0.426100	0.461000	0.527900
N291	N29	0.344300	0.517100	0.441700
N301	N30	0.425100	0.427200	0.437400
N311	N31	0.256400	0.591400	0.093200
N321	N32	0.253700	0.723200	0.729000
N331	N33	0.607800	0.935800	0.078000
N341	N34	0.402700	0.761100	0.027100
N351	N35	0.314200	0.712900	0.941700
N361	N36	0.396500	0.798800	0.936100
Ag71	Ag7	0.226370	0.708790	0.632060
Ag81	Ag8	0.704430	0.003130	0.132560
C1091	C109	0.846900	0.219800	0.999700
C1101	C110	0.077800	0.399500	0.108100
H731	H73	0.098600	0.402500	0.148200
C1111	C111	0.872400	0.061100	0.589400
H741	H74	0.915100	0.039700	0.610800
C1121	C112	0.872500	0.006700	0.498300
C1131	C113	0.925400	0.301600	0.994000
C1141	C114	0.729300	0.093500	0.035400
H751	H75	0.689200	0.065900	0.015200
C1151	C115	0.018100	0.387300	0.991300
H761	H76	0.998700	0.384200	0.951200
C1161	C116	0.097100	0.815900	0.611200
H771	H77	0.115300	0.809500	0.651100
C1171	C117	0.757200	0.133900	0.004400
H781	H78	0.736600	0.133100	0.964200
C1181	C118	0.841100	0.051500	0.531000
C1191	C119	0.777600	0.085100	0.501800
H791	H79	0.754700	0.080400	0.461900
C1201	C120	0.816400	0.175900	0.033700
C1211	C121	0.873100	0.975300	0.412800
C1221	C122	0.841900	0.985800	0.349500
C1231	C123	0.018100	0.358400	0.082000
H801	H80	0.998400	0.336200	0.104300
C1241	C124	0.950400	0.922500	0.495400
C1251	C125	0.810100	0.242000	0.848500
C1261	C126	0.042800	0.834100	0.494700
H811	H81	0.024900	0.837600	0.454600
C1271	C127	0.749000	0.124800	0.531900
H821	H82	0.706300	0.146500	0.511400
C1281	C128	0.039300	0.860900	0.585100
H831	H83	0.019100	0.883300	0.607000
C1291	C129	0.748200	0.207100	0.820000
H841	H84	0.724200	0.189500	0.840200
C1301	C130	0.839500	0.103000	0.615800
H851	H85	0.861800	0.109800	0.655600
C1311	C131	0.721700	0.198200	0.760400
H861	H86	0.679800	0.173800	0.741400
C1321	C132	0.101000	0.790900	0.525700
H871	H87	0.122300	0.767100	0.505100
C1331	C133	0.843900	0.267700	0.816700
H881	H88	0.886000	0.291800	0.834600
C1341	C134	0.841700	0.251500	0.912800
C1351	C135	0.987600	0.350000	0.023100
C1361	C136	0.845000	0.175100	0.093000
H891	H89	0.884200	0.203900	0.114100
C1371	C137	0.813600	0.256700	0.758100
H901	H90	0.836700	0.274000	0.737100
C1381	C138	0.787600	0.037000	0.322700
H911	H91	0.771000	0.066700	0.344500
C1391	C139	0.011500	0.872500	0.525500
C1401	C140	0.077900	0.429100	0.021000
H921	H92	0.098100	0.453600	0.999800
C1411	C141	0.758500	0.043300	0.263400
H931	H93	0.722400	0.078200	0.246000
C1421	C142	0.867000	0.946000	0.315600
H941	H94	0.905600	0.914700	0.331900
C1431	C143	0.832300	0.954600	0.256200
H951	H95	0.847400	0.924800	0.233300
C1441	C144	0.814700	0.131000	0.121000
H961	H96	0.835800	0.128600	0.161100
N371	N37	0.128500	0.780900	0.582500
N381	N38	0.778400	0.134500	0.588900
N391	N39	0.779700	0.001400	0.229400
N401	N40	0.926100	0.961000	0.527900
N411	N41	0.844300	0.017100	0.441700
N421	N42	0.925100	0.927200	0.437400
N431	N43	0.756400	0.091400	0.093200
N441	N44	0.753700	0.223200	0.729000
N451	N45	0.107800	0.435800	0.078000
N461	N46	0.902700	0.261100	0.027100
N471	N47	0.814200	0.212900	0.941700
N481	N48	0.896500	0.298800	0.936100
Ag91	Ag9	0.726370	0.791210	0.132060
Ag101	Ag10	0.204430	0.496870	0.632560
C1451	C145	0.346900	0.280200	0.499700
C1461	C146	0.577800	0.100500	0.608100
H971	H97	0.598600	0.097500	0.648200
C1471	C147	0.372400	0.438900	0.089400
H981	H98	0.415100	0.460300	0.110800
C1481	C148	0.372500	0.493300	0.998300
C1491	C149	0.425400	0.198400	0.494000
C1501	C150	0.229300	0.406500	0.535400
H991	H99	0.189200	0.434100	0.515200
C1511	C151	0.518100	0.112700	0.491300
H1001	H100	0.498700	0.115800	0.451200
C1521	C152	0.597100	0.684100	0.111200
H1011	H101	0.615300	0.690500	0.151100
C1531	C153	0.257200	0.366100	0.504400
H1021	H102	0.236600	0.366900	0.464200
C1541	C154	0.341100	0.448500	0.031000
C1551	C155	0.277600	0.414900	0.001800
H1031	H103	0.254700	0.419600	0.961900
C1561	C156	0.316400	0.324100	0.533700
C1571	C157	0.373100	0.524700	0.912800
C1581	C158	0.341900	0.514200	0.849500
C1591	C159	0.518100	0.141600	0.582000
H1041	H104	0.498400	0.163800	0.604300
C1601	C160	0.450400	0.577500	0.995400
C1611	C161	0.310100	0.258000	0.348500
C1621	C162	0.542800	0.665900	0.994700
H1051	H105	0.524900	0.662400	0.954600
C1631	C163	0.249000	0.375200	0.031900
H1061	H106	0.206300	0.353500	0.011400
C1641	C164	0.539300	0.639100	0.085100
H1071	H107	0.519100	0.616700	0.107000
C1651	C165	0.248200	0.292900	0.320000
H1081	H108	0.224200	0.310500	0.340200
C1661	C166	0.339500	0.397000	0.115800
H1091	H109	0.361800	0.390200	0.155600
C1671	C167	0.221700	0.301800	0.260400
H1101	H110	0.179800	0.326200	0.241400
C1681	C168	0.601000	0.709100	0.025700
H1111	H111	0.622300	0.732900	0.005100
C1691	C169	0.343900	0.232300	0.316700
H1121	H112	0.386000	0.208200	0.334600
C1701	C170	0.341700	0.248500	0.412800
C1711	C171	0.487600	0.150000	0.523100
C1721	C172	0.345000	0.324900	0.593000
H1131	H113	0.384200	0.296100	0.614100
C1731	C173	0.313600	0.243300	0.258100
H1141	H114	0.336700	0.226000	0.237100
C1741	C174	0.287600	0.463000	0.822700
H1151	H115	0.271000	0.433300	0.844500
C1751	C175	0.511500	0.627500	0.025500
C1761	C176	0.577900	0.070900	0.521000
H1161	H116	0.598100	0.046400	0.499800
C1771	C177	0.258500	0.456700	0.763400
H1171	H117	0.222400	0.421800	0.746000
C1781	C178	0.367000	0.554000	0.815600
H1181	H118	0.405600	0.585300	0.831900
C1791	C179	0.332300	0.545400	0.756200
H1191	H119	0.347400	0.575200	0.733300
C1801	C180	0.314700	0.369000	0.621000
H1201	H120	0.335800	0.371400	0.661100
N491	N49	0.628500	0.719100	0.082500
N501	N50	0.278400	0.365500	0.088900
N511	N51	0.279700	0.498600	0.729400
N521	N52	0.426100	0.539000	0.027900
N531	N53	0.344300	0.482900	0.941700
N541	N54	0.425100	0.572800	0.937400
N551	N55	0.256400	0.408600	0.593200
N561	N56	0.253700	0.276800	0.229000
N571	N57	0.607800	0.064200	0.578000
N581	N58	0.402700	0.238900	0.527100
N591	N59	0.314200	0.287100	0.441700
N601	N60	0.396500	0.201200	0.436100
Ag111	Ag11	0.226370	0.291210	0.132060
Ag121	Ag12	0.704430	0.996870	0.632560
C1811	C181	0.846900	0.780200	0.499700
C1821	C182	0.077800	0.600500	0.608100
H1211	H121	0.098600	0.597500	0.648200
C1831	C183	0.872400	0.938900	0.089400
H1221	H122	0.915100	0.960300	0.110800
C1841	C184	0.872500	0.993300	0.998300
C1851	C185	0.925400	0.698400	0.494000
C1861	C186	0.729300	0.906500	0.535400
H1231	H123	0.689200	0.934100	0.515200
C1871	C187	0.018100	0.612700	0.491300
H1241	H124	0.998700	0.615800	0.451200
C1881	C188	0.097100	0.184100	0.111200
H1251	H125	0.115300	0.190500	0.151100
C1891	C189	0.757200	0.866100	0.504400
H1261	H126	0.736600	0.866900	0.464200
C1901	C190	0.841100	0.948500	0.031000
C1911	C191	0.777600	0.914900	0.001800
H1271	H127	0.754700	0.919600	0.961900
C1921	C192	0.816400	0.824100	0.533700
C1931	C193	0.873100	0.024700	0.912800
C1941	C194	0.841900	0.014200	0.849500
C1951	C195	0.018100	0.641600	0.582000
H1281	H128	0.998400	0.663800	0.604300
C1961	C196	0.950400	0.077500	0.995400
C1971	C197	0.810100	0.758000	0.348500
C1981	C198	0.042800	0.165900	0.994700
H1291	H129	0.024900	0.162400	0.954600
C1991	C199	0.749000	0.875200	0.031900
H1301	H130	0.706300	0.853500	0.011400
C2001	C200	0.039300	0.139100	0.085100
H1311	H131	0.019100	0.116700	0.107000
C2011	C201	0.748200	0.792900	0.320000
H1321	H132	0.724200	0.810500	0.340200
C2021	C202	0.839500	0.897000	0.115800
H1331	H133	0.861800	0.890200	0.155600
C2031	C203	0.721700	0.801800	0.260400
H1341	H134	0.679800	0.826200	0.241400
C2041	C204	0.101000	0.209100	0.025700
H1351	H135	0.122300	0.232900	0.005100
C2051	C205	0.843900	0.732300	0.316700
H1361	H136	0.886000	0.708200	0.334600
C2061	C206	0.841700	0.748500	0.412800
C2071	C207	0.987600	0.650000	0.523100
C2081	C208	0.845000	0.824900	0.593000
H1371	H137	0.884200	0.796100	0.614100
C2091	C209	0.813600	0.743300	0.258100
H1381	H138	0.836700	0.726000	0.237100
C2101	C210	0.787600	0.963000	0.822700
H1391	H139	0.771000	0.933300	0.844500
C2111	C211	0.011500	0.127500	0.025500
C2121	C212	0.077900	0.570900	0.521000
H1401	H140	0.098100	0.546400	0.499800
C2131	C213	0.758500	0.956700	0.763400
H1411	H141	0.722400	0.921800	0.746000
C2141	C214	0.867000	0.054000	0.815600
H1421	H142	0.905600	0.085300	0.831900
C2151	C215	0.832300	0.045400	0.756200
H1431	H143	0.847400	0.075200	0.733300
C2161	C216	0.814700	0.869000	0.621000
H1441	H144	0.835800	0.871400	0.661100
N611	N61	0.128500	0.219100	0.082500
N621	N62	0.778400	0.865500	0.088900
N631	N63	0.779700	0.998600	0.729400
N641	N64	0.926100	0.039000	0.027900
N651	N65	0.844300	0.982900	0.941700
N661	N66	0.925100	0.072800	0.937400
N671	N67	0.756400	0.908600	0.593200
N681	N68	0.753700	0.776800	0.229000
N691	N69	0.107800	0.564200	0.578000
N701	N70	0.902700	0.738900	0.527100
N711	N71	0.814200	0.787100	0.441700
N721	N72	0.896500	0.701200	0.436100
Ag131	Ag13	0.273630	0.791210	0.367940
Ag141	Ag14	0.795570	0.496870	0.867440
C2171	C217	0.653100	0.280200	0.000300
C2181	C218	0.422200	0.100500	0.891900
H1451	H145	0.401400	0.097500	0.851800
C2191	C219	0.627600	0.438900	0.410600
H1461	H146	0.584900	0.460300	0.389200
C2201	C220	0.627500	0.493300	0.501700
C2211	C221	0.574600	0.198400	0.006000
C2221	C222	0.770700	0.406500	0.964600
H1471	H147	0.810800	0.434100	0.984800
C2231	C223	0.481900	0.112700	0.008700
H1481	H148	0.501300	0.115800	0.048800
C2241	C224	0.402900	0.684100	0.388800
H1491	H149	0.384700	0.690500	0.348900
C2251	C225	0.742800	0.366100	0.995600
H1501	H150	0.763400	0.366900	0.035800
C2261	C226	0.658900	0.448500	0.469000
C2271	C227	0.722400	0.414900	0.498200
H1511	H151	0.745300	0.419600	0.538100
C2281	C228	0.683600	0.324100	0.966300
C2291	C229	0.626900	0.524700	0.587200
C2301	C230	0.658100	0.514200	0.650500
C2311	C231	0.481900	0.141600	0.918000
H1521	H152	0.501600	0.163800	0.895700
C2321	C232	0.549600	0.577500	0.504600
C2331	C233	0.689900	0.258000	0.151500
C2341	C234	0.457200	0.665900	0.505300
H1531	H153	0.475100	0.662400	0.545400
C2351	C235	0.751000	0.375200	0.468100
H1541	H154	0.793700	0.353500	0.488600
C2361	C236	0.460700	0.639100	0.414900
H1551	H155	0.480900	0.616700	0.393000
C2371	C237	0.751800	0.292900	0.180000
H1561	H156	0.775800	0.310500	0.159800
C2381	C238	0.660500	0.397000	0.384200
H1571	H157	0.638200	0.390200	0.344400
C2391	C239	0.778300	0.301800	0.239600
H1581	H158	0.820200	0.326200	0.258600
C2401	C240	0.399000	0.709100	0.474300
H1591	H159	0.377700	0.732900	0.494900
C2411	C241	0.656100	0.232300	0.183300
H1601	H160	0.614000	0.208200	0.165400
C2421	C242	0.658300	0.248500	0.087200
C2431	C243	0.512400	0.150000	0.976900
C2441	C244	0.655000	0.324900	0.907000
H1611	H161	0.615800	0.296100	0.885900
C2451	C245	0.686400	0.243300	0.241900
H1621	H162	0.663300	0.226000	0.262900
C2461	C246	0.712400	0.463000	0.677300
H1631	H163	0.729000	0.433300	0.655500
C2471	C247	0.488500	0.627500	0.474500
C2481	C248	0.422100	0.070900	0.979000
H1641	H164	0.401900	0.046400	0.000200
C2491	C249	0.741500	0.456700	0.736600
H1651	H165	0.777600	0.421800	0.754000
C2501	C250	0.633000	0.554000	0.684400
H1661	H166	0.594400	0.585300	0.668100
C2511	C251	0.667700	0.545400	0.743800
H1671	H167	0.652600	0.575200	0.766700
C2521	C252	0.685300	0.369000	0.879000
H1681	H168	0.664200	0.371400	0.838900
N731	N73	0.371500	0.719100	0.417500
N741	N74	0.721600	0.365500	0.411100
N751	N75	0.720300	0.498600	0.770600
N761	N76	0.573900	0.539000	0.472100
N771	N77	0.655700	0.482900	0.558300
N781	N78	0.574900	0.572800	0.562600
N791	N79	0.743600	0.408600	0.906800
N801	N80	0.746300	0.276800	0.271000
N811	N81	0.392200	0.064200	0.922000
N821	N82	0.597300	0.238900	0.972900
N831	N83	0.685800	0.287100	0.058300
N841	N84	0.603500	0.201200	0.063900
Ag151	Ag15	0.773630	0.291210	0.367940
Ag161	Ag16	0.295570	0.996870	0.867440
C2531	C253	0.153100	0.780200	0.000300
C2541	C254	0.922200	0.600500	0.891900
H1691	H169	0.901400	0.597500	0.851800
C2551	C255	0.127600	0.938900	0.410600
H1701	H170	0.084900	0.960300	0.389200
C2561	C256	0.127500	0.993300	0.501700
C2571	C257	0.074600	0.698400	0.006000
C2581	C258	0.270700	0.906500	0.964600
H1711	H171	0.310800	0.934100	0.984800
C2591	C259	0.981900	0.612700	0.008700
H1721	H172	0.001300	0.615800	0.048800
C2601	C260	0.902900	0.184100	0.388800
H1731	H173	0.884700	0.190500	0.348900
C2611	C261	0.242800	0.866100	0.995600
H1741	H174	0.263400	0.866900	0.035800
C2621	C262	0.158900	0.948500	0.469000
C2631	C263	0.222400	0.914900	0.498200
H1751	H175	0.245300	0.919600	0.538100
C2641	C264	0.183600	0.824100	0.966300
C2651	C265	0.126900	0.024700	0.587200
C2661	C266	0.158100	0.014200	0.650500
C2671	C267	0.981900	0.641600	0.918000
H1761	H176	0.001600	0.663800	0.895700
C2681	C268	0.049600	0.077500	0.504600
C2691	C269	0.189900	0.758000	0.151500
C2701	C270	0.957200	0.165900	0.505300
H1771	H177	0.975100	0.162400	0.545400
C2711	C271	0.251000	0.875200	0.468100
H1781	H178	0.293700	0.853500	0.488600
C2721	C272	0.960700	0.139100	0.414900
H1791	H179	0.980900	0.116700	0.393000
C2731	C273	0.251800	0.792900	0.180000
H1801	H180	0.275800	0.810500	0.159800
C2741	C274	0.160500	0.897000	0.384200
H1811	H181	0.138200	0.890200	0.344400
C2751	C275	0.278300	0.801800	0.239600
H1821	H182	0.320200	0.826200	0.258600
C2761	C276	0.899000	0.209100	0.474300
H1831	H183	0.877700	0.232900	0.494900
C2771	C277	0.156100	0.732300	0.183300
H1841	H184	0.114000	0.708200	0.165400
C2781	C278	0.158300	0.748500	0.087200
C2791	C279	0.012400	0.650000	0.976900
C2801	C280	0.155000	0.824900	0.907000
H1851	H185	0.115800	0.796100	0.885900
C2811	C281	0.186400	0.743300	0.241900
H1861	H186	0.163300	0.726000	0.262900
C2821	C282	0.212400	0.963000	0.677300
H1871	H187	0.229000	0.933300	0.655500
C2831	C283	0.988500	0.127500	0.474500
C2841	C284	0.922100	0.570900	0.979000
H1881	H188	0.901900	0.546400	0.000200
C2851	C285	0.241500	0.956700	0.736600
H1891	H189	0.277600	0.921800	0.754000
C2861	C286	0.133000	0.054000	0.684400
H1901	H190	0.094400	0.085300	0.668100
C2871	C287	0.167700	0.045400	0.743800
H1911	H191	0.152600	0.075200	0.766700
C2881	C288	0.185300	0.869000	0.879000
H1921	H192	0.164200	0.871400	0.838900
N851	N85	0.871500	0.219100	0.417500
N861	N86	0.221600	0.865500	0.411100
N871	N87	0.220300	0.998600	0.770600
N881	N88	0.073900	0.039000	0.472100
N891	N89	0.155700	0.982900	0.558300
N901	N90	0.074900	0.072800	0.562600
N911	N91	0.243600	0.908600	0.906800
N921	N92	0.246300	0.776800	0.271000
N931	N93	0.892200	0.564200	0.922000
N941	N94	0.097300	0.738900	0.972900
N951	N95	0.185800	0.787100	0.058300
N961	N96	0.103500	0.701200	0.063900
