data_QODQEH_clean_PM
_symmetry_space_group_name_H-M	'P1'
_cell_length_a	21.936800
_cell_length_b	16.815500
_cell_length_c	25.499800
_cell_angle_alpha	90.000000
_cell_angle_beta	115.121000
_cell_angle_gamma	90.000000
_symmetry_Int_Tables_number 1

loop_
_symmetry_equiv_pos_as_xyz
'x,y,z'

loop_
_atom_site_label
_atom_site_type_symbol
_atom_site_fract_x
_atom_site_fract_y
_atom_site_fract_z
Ag11	Ag1	0.655770	0.456430	0.633450
Ag21	Ag2	0.678830	0.756990	0.133740
C11	C1	0.402600	0.971600	0.001700
C21	C2	0.967800	0.809200	0.591400
H11	H1	0.946500	0.787900	0.612900
C31	C3	0.877100	0.755700	0.500500
C41	C4	0.940400	0.799500	0.532700
C51	C5	0.702300	0.583400	0.496300
H21	H2	0.680300	0.587100	0.456100
C61	C6	0.556000	0.845300	0.037300
H31	H3	0.575700	0.817600	0.017000
C71	C7	0.496700	0.884800	0.006100
H41	H4	0.476700	0.882900	0.965800
C81	C8	0.319500	0.052300	0.995800
C91	C9	0.467300	0.927500	0.035600
C101	C10	0.279900	0.152200	0.109400
H51	H5	0.299500	0.156500	0.149500
C111	C11	0.223700	0.139000	0.991900
H61	H6	0.203400	0.136100	0.951700
C121	C12	0.790300	0.725300	0.414500
C131	C13	0.757700	0.736600	0.351000
C141	C14	0.764500	0.564300	0.612800
H71	H7	0.785800	0.557600	0.652700
C151	C15	0.288100	0.991400	0.850000
C161	C16	0.765000	0.621000	0.527700
C171	C17	0.286300	0.101300	0.025000
C181	C18	0.974800	0.834000	0.502700
H81	H8	0.957800	0.830200	0.462600
C191	C19	0.796200	0.609400	0.586600
H91	H9	0.838200	0.631800	0.608500
C201	C20	0.321600	0.955600	0.821800
H101	H10	0.365400	0.937400	0.842200
C211	C21	0.320200	0.001600	0.913900
C221	C22	0.794900	0.671500	0.497000
C231	C23	0.675200	0.541000	0.527400
H111	H11	0.632800	0.518700	0.507100
C241	C24	0.193900	0.180800	0.022400
H121	H12	0.152700	0.205500	0.001300
C251	C25	0.313800	0.109500	0.083300
H131	H13	0.355400	0.086600	0.105800
C261	C26	0.032900	0.872700	0.533400
H141	H14	0.055100	0.894800	0.512900
C271	C27	0.498900	0.927600	0.095200
H151	H15	0.481100	0.956200	0.116600
C281	C28	0.027500	0.851200	0.618500
H161	H16	0.045100	0.858200	0.658400
C291	C29	0.288700	0.947000	0.761900
H171	H17	0.312100	0.924000	0.742800
C301	C30	0.195100	0.005000	0.759400
H181	H18	0.151400	0.023300	0.738100
C311	C31	0.755500	0.794200	0.265600
H191	H19	0.773900	0.829600	0.248300
C321	C32	0.222900	0.016900	0.819000
H201	H20	0.198600	0.040800	0.837100
C331	C33	0.556400	0.885100	0.122100
H211	H21	0.576200	0.884400	0.162300
C341	C34	0.786400	0.785500	0.324100
H221	H22	0.826300	0.812200	0.345800
C351	C35	0.697500	0.699200	0.317000
H231	H23	0.674800	0.668500	0.333300
C361	C36	0.672900	0.709200	0.258300
H241	H24	0.633700	0.681900	0.235500
N11	N1	0.704600	0.529700	0.583700
N21	N2	0.060800	0.881700	0.590300
N31	N3	0.699700	0.754100	0.231500
N41	N4	0.763000	0.677100	0.439700
N51	N5	0.852400	0.709900	0.529800
N61	N6	0.847900	0.765500	0.443200
N71	N7	0.586700	0.844100	0.094700
N81	N8	0.220700	0.187200	0.079500
N91	N9	0.225500	0.970000	0.730700
N101	N10	0.377400	0.962300	0.943700
N111	N11	0.375200	0.013000	0.029100
N121	N12	0.290000	0.049300	0.937800
Ag31	Ag3	0.155770	0.956430	0.633450
Ag41	Ag4	0.178830	0.256990	0.133740
C371	C37	0.902600	0.471600	0.001700
C381	C38	0.467800	0.309200	0.591400
H251	H25	0.446500	0.287900	0.612900
C391	C39	0.377100	0.255700	0.500500
C401	C40	0.440400	0.299500	0.532700
C411	C41	0.202300	0.083400	0.496300
H261	H26	0.180300	0.087100	0.456100
C421	C42	0.056000	0.345300	0.037300
H271	H27	0.075700	0.317600	0.017000
C431	C43	0.996700	0.384800	0.006100
H281	H28	0.976700	0.382900	0.965800
C441	C44	0.819500	0.552300	0.995800
C451	C45	0.967300	0.427500	0.035600
C461	C46	0.779900	0.652200	0.109400
H291	H29	0.799500	0.656500	0.149500
C471	C47	0.723700	0.639000	0.991900
H301	H30	0.703400	0.636100	0.951700
C481	C48	0.290300	0.225300	0.414500
C491	C49	0.257700	0.236600	0.351000
C501	C50	0.264500	0.064300	0.612800
H311	H31	0.285800	0.057600	0.652700
C511	C51	0.788100	0.491400	0.850000
C521	C52	0.265000	0.121000	0.527700
C531	C53	0.786300	0.601300	0.025000
C541	C54	0.474800	0.334000	0.502700
H321	H32	0.457800	0.330200	0.462600
C551	C55	0.296200	0.109400	0.586600
H331	H33	0.338200	0.131800	0.608500
C561	C56	0.821600	0.455600	0.821800
H341	H34	0.865400	0.437400	0.842200
C571	C57	0.820200	0.501600	0.913900
C581	C58	0.294900	0.171500	0.497000
C591	C59	0.175200	0.041000	0.527400
H351	H35	0.132800	0.018700	0.507100
C601	C60	0.693900	0.680800	0.022400
H361	H36	0.652700	0.705500	0.001300
C611	C61	0.813800	0.609500	0.083300
H371	H37	0.855400	0.586600	0.105800
C621	C62	0.532900	0.372700	0.533400
H381	H38	0.555100	0.394800	0.512900
C631	C63	0.998900	0.427600	0.095200
H391	H39	0.981100	0.456200	0.116600
C641	C64	0.527500	0.351200	0.618500
H401	H40	0.545100	0.358200	0.658400
C651	C65	0.788700	0.447000	0.761900
H411	H41	0.812100	0.424000	0.742800
C661	C66	0.695100	0.505000	0.759400
H421	H42	0.651400	0.523300	0.738100
C671	C67	0.255500	0.294200	0.265600
H431	H43	0.273900	0.329600	0.248300
C681	C68	0.722900	0.516900	0.819000
H441	H44	0.698600	0.540800	0.837100
C691	C69	0.056400	0.385100	0.122100
H451	H45	0.076200	0.384400	0.162300
C701	C70	0.286400	0.285500	0.324100
H461	H46	0.326300	0.312200	0.345800
C711	C71	0.197500	0.199200	0.317000
H471	H47	0.174800	0.168500	0.333300
C721	C72	0.172900	0.209200	0.258300
H481	H48	0.133700	0.181900	0.235500
N131	N13	0.204600	0.029700	0.583700
N141	N14	0.560800	0.381700	0.590300
N151	N15	0.199700	0.254100	0.231500
N161	N16	0.263000	0.177100	0.439700
N171	N17	0.352400	0.209900	0.529800
N181	N18	0.347900	0.265500	0.443200
N191	N19	0.086700	0.344100	0.094700
N201	N20	0.720700	0.687200	0.079500
N211	N21	0.725500	0.470000	0.730700
N221	N22	0.877400	0.462300	0.943700
N231	N23	0.875200	0.513000	0.029100
N241	N24	0.790000	0.549300	0.937800
Ag51	Ag5	0.344230	0.456430	0.866550
Ag61	Ag6	0.321170	0.756990	0.366260
C731	C73	0.597400	0.971600	0.498300
C741	C74	0.032200	0.809200	0.908600
H491	H49	0.053500	0.787900	0.887100
C751	C75	0.122900	0.755700	0.999500
C761	C76	0.059600	0.799500	0.967300
C771	C77	0.297700	0.583400	0.003700
H501	H50	0.319700	0.587100	0.043900
C781	C78	0.444000	0.845300	0.462700
H511	H51	0.424300	0.817600	0.483000
C791	C79	0.503300	0.884800	0.493900
H521	H52	0.523300	0.882900	0.534200
C801	C80	0.680500	0.052300	0.504200
C811	C81	0.532700	0.927500	0.464400
C821	C82	0.720100	0.152200	0.390600
H531	H53	0.700500	0.156500	0.350500
C831	C83	0.776300	0.139000	0.508100
H541	H54	0.796600	0.136100	0.548300
C841	C84	0.209700	0.725300	0.085500
C851	C85	0.242300	0.736600	0.149000
C861	C86	0.235500	0.564300	0.887200
H551	H55	0.214200	0.557600	0.847300
C871	C87	0.711900	0.991400	0.650000
C881	C88	0.235000	0.621000	0.972300
C891	C89	0.713700	0.101300	0.475000
C901	C90	0.025200	0.834000	0.997300
H561	H56	0.042200	0.830200	0.037400
C911	C91	0.203800	0.609400	0.913400
H571	H57	0.161800	0.631800	0.891500
C921	C92	0.678400	0.955600	0.678200
H581	H58	0.634600	0.937400	0.657800
C931	C93	0.679800	0.001600	0.586100
C941	C94	0.205100	0.671500	0.003000
C951	C95	0.324800	0.541000	0.972600
H591	H59	0.367200	0.518700	0.992900
C961	C96	0.806100	0.180800	0.477600
H601	H60	0.847300	0.205500	0.498700
C971	C97	0.686200	0.109500	0.416700
H611	H61	0.644600	0.086600	0.394200
C981	C98	0.967100	0.872700	0.966600
H621	H62	0.944900	0.894800	0.987100
C991	C99	0.501100	0.927600	0.404800
H631	H63	0.518900	0.956200	0.383400
C1001	C100	0.972500	0.851200	0.881500
H641	H64	0.954900	0.858200	0.841600
C1011	C101	0.711300	0.947000	0.738100
H651	H65	0.687900	0.924000	0.757200
C1021	C102	0.804900	0.005000	0.740600
H661	H66	0.848600	0.023300	0.761900
C1031	C103	0.244500	0.794200	0.234400
H671	H67	0.226100	0.829600	0.251700
C1041	C104	0.777100	0.016900	0.681000
H681	H68	0.801400	0.040800	0.662900
C1051	C105	0.443600	0.885100	0.377900
H691	H69	0.423800	0.884400	0.337700
C1061	C106	0.213600	0.785500	0.175900
H701	H70	0.173700	0.812200	0.154200
C1071	C107	0.302500	0.699200	0.183000
H711	H71	0.325200	0.668500	0.166700
C1081	C108	0.327100	0.709200	0.241700
H721	H72	0.366300	0.681900	0.264500
N251	N25	0.295400	0.529700	0.916300
N261	N26	0.939200	0.881700	0.909700
N271	N27	0.300300	0.754100	0.268500
N281	N28	0.237000	0.677100	0.060300
N291	N29	0.147600	0.709900	0.970200
N301	N30	0.152100	0.765500	0.056800
N311	N31	0.413300	0.844100	0.405300
N321	N32	0.779300	0.187200	0.420500
N331	N33	0.774500	0.970000	0.769300
N341	N34	0.622600	0.962300	0.556300
N351	N35	0.624800	0.013000	0.470900
N361	N36	0.710000	0.049300	0.562200
Ag71	Ag7	0.844230	0.956430	0.866550
Ag81	Ag8	0.821170	0.256990	0.366260
C1091	C109	0.097400	0.471600	0.498300
C1101	C110	0.532200	0.309200	0.908600
H731	H73	0.553500	0.287900	0.887100
C1111	C111	0.622900	0.255700	0.999500
C1121	C112	0.559600	0.299500	0.967300
C1131	C113	0.797700	0.083400	0.003700
H741	H74	0.819700	0.087100	0.043900
C1141	C114	0.944000	0.345300	0.462700
H751	H75	0.924300	0.317600	0.483000
C1151	C115	0.003300	0.384800	0.493900
H761	H76	0.023300	0.382900	0.534200
C1161	C116	0.180500	0.552300	0.504200
C1171	C117	0.032700	0.427500	0.464400
C1181	C118	0.220100	0.652200	0.390600
H771	H77	0.200500	0.656500	0.350500
C1191	C119	0.276300	0.639000	0.508100
H781	H78	0.296600	0.636100	0.548300
C1201	C120	0.709700	0.225300	0.085500
C1211	C121	0.742300	0.236600	0.149000
C1221	C122	0.735500	0.064300	0.887200
H791	H79	0.714200	0.057600	0.847300
C1231	C123	0.211900	0.491400	0.650000
C1241	C124	0.735000	0.121000	0.972300
C1251	C125	0.213700	0.601300	0.475000
C1261	C126	0.525200	0.334000	0.997300
H801	H80	0.542200	0.330200	0.037400
C1271	C127	0.703800	0.109400	0.913400
H811	H81	0.661800	0.131800	0.891500
C1281	C128	0.178400	0.455600	0.678200
H821	H82	0.134600	0.437400	0.657800
C1291	C129	0.179800	0.501600	0.586100
C1301	C130	0.705100	0.171500	0.003000
C1311	C131	0.824800	0.041000	0.972600
H831	H83	0.867200	0.018700	0.992900
C1321	C132	0.306100	0.680800	0.477600
H841	H84	0.347300	0.705500	0.498700
C1331	C133	0.186200	0.609500	0.416700
H851	H85	0.144600	0.586600	0.394200
C1341	C134	0.467100	0.372700	0.966600
H861	H86	0.444900	0.394800	0.987100
C1351	C135	0.001100	0.427600	0.404800
H871	H87	0.018900	0.456200	0.383400
C1361	C136	0.472500	0.351200	0.881500
H881	H88	0.454900	0.358200	0.841600
C1371	C137	0.211300	0.447000	0.738100
H891	H89	0.187900	0.424000	0.757200
C1381	C138	0.304900	0.505000	0.740600
H901	H90	0.348600	0.523300	0.761900
C1391	C139	0.744500	0.294200	0.234400
H911	H91	0.726100	0.329600	0.251700
C1401	C140	0.277100	0.516900	0.681000
H921	H92	0.301400	0.540800	0.662900
C1411	C141	0.943600	0.385100	0.377900
H931	H93	0.923800	0.384400	0.337700
C1421	C142	0.713600	0.285500	0.175900
H941	H94	0.673700	0.312200	0.154200
C1431	C143	0.802500	0.199200	0.183000
H951	H95	0.825200	0.168500	0.166700
C1441	C144	0.827100	0.209200	0.241700
H961	H96	0.866300	0.181900	0.264500
N371	N37	0.795400	0.029700	0.916300
N381	N38	0.439200	0.381700	0.909700
N391	N39	0.800300	0.254100	0.268500
N401	N40	0.737000	0.177100	0.060300
N411	N41	0.647600	0.209900	0.970200
N421	N42	0.652100	0.265500	0.056800
N431	N43	0.913300	0.344100	0.405300
N441	N44	0.279300	0.687200	0.420500
N451	N45	0.274500	0.470000	0.769300
N461	N46	0.122600	0.462300	0.556300
N471	N47	0.124800	0.513000	0.470900
N481	N48	0.210000	0.549300	0.562200
Ag91	Ag9	0.344230	0.543570	0.366550
Ag101	Ag10	0.321170	0.243010	0.866260
C1451	C145	0.597400	0.028400	0.998300
C1461	C146	0.032200	0.190800	0.408600
H971	H97	0.053500	0.212100	0.387100
C1471	C147	0.122900	0.244300	0.499500
C1481	C148	0.059600	0.200500	0.467300
C1491	C149	0.297700	0.416600	0.503700
H981	H98	0.319700	0.412900	0.543900
C1501	C150	0.444000	0.154700	0.962700
H991	H99	0.424300	0.182400	0.983000
C1511	C151	0.503300	0.115200	0.993900
H1001	H100	0.523300	0.117100	0.034200
C1521	C152	0.680500	0.947700	0.004200
C1531	C153	0.532700	0.072500	0.964400
C1541	C154	0.720100	0.847800	0.890600
H1011	H101	0.700500	0.843500	0.850500
C1551	C155	0.776300	0.861000	0.008100
H1021	H102	0.796600	0.863900	0.048300
C1561	C156	0.209700	0.274700	0.585500
C1571	C157	0.242300	0.263400	0.649000
C1581	C158	0.235500	0.435700	0.387200
H1031	H103	0.214200	0.442400	0.347300
C1591	C159	0.711900	0.008600	0.150000
C1601	C160	0.235000	0.379000	0.472300
C1611	C161	0.713700	0.898700	0.975000
C1621	C162	0.025200	0.166000	0.497300
H1041	H104	0.042200	0.169800	0.537400
C1631	C163	0.203800	0.390600	0.413400
H1051	H105	0.161800	0.368200	0.391500
C1641	C164	0.678400	0.044400	0.178200
H1061	H106	0.634600	0.062600	0.157800
C1651	C165	0.679800	0.998400	0.086100
C1661	C166	0.205100	0.328500	0.503000
C1671	C167	0.324800	0.459000	0.472600
H1071	H107	0.367200	0.481300	0.492900
C1681	C168	0.806100	0.819200	0.977600
H1081	H108	0.847300	0.794500	0.998700
C1691	C169	0.686200	0.890500	0.916700
H1091	H109	0.644600	0.913400	0.894200
C1701	C170	0.967100	0.127300	0.466600
H1101	H110	0.944900	0.105200	0.487100
C1711	C171	0.501100	0.072400	0.904800
H1111	H111	0.518900	0.043800	0.883400
C1721	C172	0.972500	0.148800	0.381500
H1121	H112	0.954900	0.141800	0.341600
C1731	C173	0.711300	0.053000	0.238100
H1131	H113	0.687900	0.076000	0.257200
C1741	C174	0.804900	0.995000	0.240600
H1141	H114	0.848600	0.976700	0.261900
C1751	C175	0.244500	0.205800	0.734400
H1151	H115	0.226100	0.170400	0.751700
C1761	C176	0.777100	0.983100	0.181000
H1161	H116	0.801400	0.959200	0.162900
C1771	C177	0.443600	0.114900	0.877900
H1171	H117	0.423800	0.115600	0.837700
C1781	C178	0.213600	0.214500	0.675900
H1181	H118	0.173700	0.187800	0.654200
C1791	C179	0.302500	0.300800	0.683000
H1191	H119	0.325200	0.331500	0.666700
C1801	C180	0.327100	0.290800	0.741700
H1201	H120	0.366300	0.318100	0.764500
N491	N49	0.295400	0.470300	0.416300
N501	N50	0.939200	0.118300	0.409700
N511	N51	0.300300	0.245900	0.768500
N521	N52	0.237000	0.322900	0.560300
N531	N53	0.147600	0.290100	0.470200
N541	N54	0.152100	0.234500	0.556800
N551	N55	0.413300	0.155900	0.905300
N561	N56	0.779300	0.812800	0.920500
N571	N57	0.774500	0.030000	0.269300
N581	N58	0.622600	0.037700	0.056300
N591	N59	0.624800	0.987000	0.970900
N601	N60	0.710000	0.950700	0.062200
Ag111	Ag11	0.844230	0.043570	0.366550
Ag121	Ag12	0.821170	0.743010	0.866260
C1811	C181	0.097400	0.528400	0.998300
C1821	C182	0.532200	0.690800	0.408600
H1211	H121	0.553500	0.712100	0.387100
C1831	C183	0.622900	0.744300	0.499500
C1841	C184	0.559600	0.700500	0.467300
C1851	C185	0.797700	0.916600	0.503700
H1221	H122	0.819700	0.912900	0.543900
C1861	C186	0.944000	0.654700	0.962700
H1231	H123	0.924300	0.682400	0.983000
C1871	C187	0.003300	0.615200	0.993900
H1241	H124	0.023300	0.617100	0.034200
C1881	C188	0.180500	0.447700	0.004200
C1891	C189	0.032700	0.572500	0.964400
C1901	C190	0.220100	0.347800	0.890600
H1251	H125	0.200500	0.343500	0.850500
C1911	C191	0.276300	0.361000	0.008100
H1261	H126	0.296600	0.363900	0.048300
C1921	C192	0.709700	0.774700	0.585500
C1931	C193	0.742300	0.763400	0.649000
C1941	C194	0.735500	0.935700	0.387200
H1271	H127	0.714200	0.942400	0.347300
C1951	C195	0.211900	0.508600	0.150000
C1961	C196	0.735000	0.879000	0.472300
C1971	C197	0.213700	0.398700	0.975000
C1981	C198	0.525200	0.666000	0.497300
H1281	H128	0.542200	0.669800	0.537400
C1991	C199	0.703800	0.890600	0.413400
H1291	H129	0.661800	0.868200	0.391500
C2001	C200	0.178400	0.544400	0.178200
H1301	H130	0.134600	0.562600	0.157800
C2011	C201	0.179800	0.498400	0.086100
C2021	C202	0.705100	0.828500	0.503000
C2031	C203	0.824800	0.959000	0.472600
H1311	H131	0.867200	0.981300	0.492900
C2041	C204	0.306100	0.319200	0.977600
H1321	H132	0.347300	0.294500	0.998700
C2051	C205	0.186200	0.390500	0.916700
H1331	H133	0.144600	0.413400	0.894200
C2061	C206	0.467100	0.627300	0.466600
H1341	H134	0.444900	0.605200	0.487100
C2071	C207	0.001100	0.572400	0.904800
H1351	H135	0.018900	0.543800	0.883400
C2081	C208	0.472500	0.648800	0.381500
H1361	H136	0.454900	0.641800	0.341600
C2091	C209	0.211300	0.553000	0.238100
H1371	H137	0.187900	0.576000	0.257200
C2101	C210	0.304900	0.495000	0.240600
H1381	H138	0.348600	0.476700	0.261900
C2111	C211	0.744500	0.705800	0.734400
H1391	H139	0.726100	0.670400	0.751700
C2121	C212	0.277100	0.483100	0.181000
H1401	H140	0.301400	0.459200	0.162900
C2131	C213	0.943600	0.614900	0.877900
H1411	H141	0.923800	0.615600	0.837700
C2141	C214	0.713600	0.714500	0.675900
H1421	H142	0.673700	0.687800	0.654200
C2151	C215	0.802500	0.800800	0.683000
H1431	H143	0.825200	0.831500	0.666700
C2161	C216	0.827100	0.790800	0.741700
H1441	H144	0.866300	0.818100	0.764500
N611	N61	0.795400	0.970300	0.416300
N621	N62	0.439200	0.618300	0.409700
N631	N63	0.800300	0.745900	0.768500
N641	N64	0.737000	0.822900	0.560300
N651	N65	0.647600	0.790100	0.470200
N661	N66	0.652100	0.734500	0.556800
N671	N67	0.913300	0.655900	0.905300
N681	N68	0.279300	0.312800	0.920500
N691	N69	0.274500	0.530000	0.269300
N701	N70	0.122600	0.537700	0.056300
N711	N71	0.124800	0.487000	0.970900
N721	N72	0.210000	0.450700	0.062200
Ag131	Ag13	0.655770	0.543570	0.133450
Ag141	Ag14	0.678830	0.243010	0.633740
C2171	C217	0.402600	0.028400	0.501700
C2181	C218	0.967800	0.190800	0.091400
H1451	H145	0.946500	0.212100	0.112900
C2191	C219	0.877100	0.244300	0.000500
C2201	C220	0.940400	0.200500	0.032700
C2211	C221	0.702300	0.416600	0.996300
H1461	H146	0.680300	0.412900	0.956100
C2221	C222	0.556000	0.154700	0.537300
H1471	H147	0.575700	0.182400	0.517000
C2231	C223	0.496700	0.115200	0.506100
H1481	H148	0.476700	0.117100	0.465800
C2241	C224	0.319500	0.947700	0.495800
C2251	C225	0.467300	0.072500	0.535600
C2261	C226	0.279900	0.847800	0.609400
H1491	H149	0.299500	0.843500	0.649500
C2271	C227	0.223700	0.861000	0.491900
H1501	H150	0.203400	0.863900	0.451700
C2281	C228	0.790300	0.274700	0.914500
C2291	C229	0.757700	0.263400	0.851000
C2301	C230	0.764500	0.435700	0.112800
H1511	H151	0.785800	0.442400	0.152700
C2311	C231	0.288100	0.008600	0.350000
C2321	C232	0.765000	0.379000	0.027700
C2331	C233	0.286300	0.898700	0.525000
C2341	C234	0.974800	0.166000	0.002700
H1521	H152	0.957800	0.169800	0.962600
C2351	C235	0.796200	0.390600	0.086600
H1531	H153	0.838200	0.368200	0.108500
C2361	C236	0.321600	0.044400	0.321800
H1541	H154	0.365400	0.062600	0.342200
C2371	C237	0.320200	0.998400	0.413900
C2381	C238	0.794900	0.328500	0.997000
C2391	C239	0.675200	0.459000	0.027400
H1551	H155	0.632800	0.481300	0.007100
C2401	C240	0.193900	0.819200	0.522400
H1561	H156	0.152700	0.794500	0.501300
C2411	C241	0.313800	0.890500	0.583300
H1571	H157	0.355400	0.913400	0.605800
C2421	C242	0.032900	0.127300	0.033400
H1581	H158	0.055100	0.105200	0.012900
C2431	C243	0.498900	0.072400	0.595200
H1591	H159	0.481100	0.043800	0.616600
C2441	C244	0.027500	0.148800	0.118500
H1601	H160	0.045100	0.141800	0.158400
C2451	C245	0.288700	0.053000	0.261900
H1611	H161	0.312100	0.076000	0.242800
C2461	C246	0.195100	0.995000	0.259400
H1621	H162	0.151400	0.976700	0.238100
C2471	C247	0.755500	0.205800	0.765600
H1631	H163	0.773900	0.170400	0.748300
C2481	C248	0.222900	0.983100	0.319000
H1641	H164	0.198600	0.959200	0.337100
C2491	C249	0.556400	0.114900	0.622100
H1651	H165	0.576200	0.115600	0.662300
C2501	C250	0.786400	0.214500	0.824100
H1661	H166	0.826300	0.187800	0.845800
C2511	C251	0.697500	0.300800	0.817000
H1671	H167	0.674800	0.331500	0.833300
C2521	C252	0.672900	0.290800	0.758300
H1681	H168	0.633700	0.318100	0.735500
N731	N73	0.704600	0.470300	0.083700
N741	N74	0.060800	0.118300	0.090300
N751	N75	0.699700	0.245900	0.731500
N761	N76	0.763000	0.322900	0.939700
N771	N77	0.852400	0.290100	0.029800
N781	N78	0.847900	0.234500	0.943200
N791	N79	0.586700	0.155900	0.594700
N801	N80	0.220700	0.812800	0.579500
N811	N81	0.225500	0.030000	0.230700
N821	N82	0.377400	0.037700	0.443700
N831	N83	0.375200	0.987000	0.529100
N841	N84	0.290000	0.950700	0.437800
Ag151	Ag15	0.155770	0.043570	0.133450
Ag161	Ag16	0.178830	0.743010	0.633740
C2531	C253	0.902600	0.528400	0.501700
C2541	C254	0.467800	0.690800	0.091400
H1691	H169	0.446500	0.712100	0.112900
C2551	C255	0.377100	0.744300	0.000500
C2561	C256	0.440400	0.700500	0.032700
C2571	C257	0.202300	0.916600	0.996300
H1701	H170	0.180300	0.912900	0.956100
C2581	C258	0.056000	0.654700	0.537300
H1711	H171	0.075700	0.682400	0.517000
C2591	C259	0.996700	0.615200	0.506100
H1721	H172	0.976700	0.617100	0.465800
C2601	C260	0.819500	0.447700	0.495800
C2611	C261	0.967300	0.572500	0.535600
C2621	C262	0.779900	0.347800	0.609400
H1731	H173	0.799500	0.343500	0.649500
C2631	C263	0.723700	0.361000	0.491900
H1741	H174	0.703400	0.363900	0.451700
C2641	C264	0.290300	0.774700	0.914500
C2651	C265	0.257700	0.763400	0.851000
C2661	C266	0.264500	0.935700	0.112800
H1751	H175	0.285800	0.942400	0.152700
C2671	C267	0.788100	0.508600	0.350000
C2681	C268	0.265000	0.879000	0.027700
C2691	C269	0.786300	0.398700	0.525000
C2701	C270	0.474800	0.666000	0.002700
H1761	H176	0.457800	0.669800	0.962600
C2711	C271	0.296200	0.890600	0.086600
H1771	H177	0.338200	0.868200	0.108500
C2721	C272	0.821600	0.544400	0.321800
H1781	H178	0.865400	0.562600	0.342200
C2731	C273	0.820200	0.498400	0.413900
C2741	C274	0.294900	0.828500	0.997000
C2751	C275	0.175200	0.959000	0.027400
H1791	H179	0.132800	0.981300	0.007100
C2761	C276	0.693900	0.319200	0.522400
H1801	H180	0.652700	0.294500	0.501300
C2771	C277	0.813800	0.390500	0.583300
H1811	H181	0.855400	0.413400	0.605800
C2781	C278	0.532900	0.627300	0.033400
H1821	H182	0.555100	0.605200	0.012900
C2791	C279	0.998900	0.572400	0.595200
H1831	H183	0.981100	0.543800	0.616600
C2801	C280	0.527500	0.648800	0.118500
H1841	H184	0.545100	0.641800	0.158400
C2811	C281	0.788700	0.553000	0.261900
H1851	H185	0.812100	0.576000	0.242800
C2821	C282	0.695100	0.495000	0.259400
H1861	H186	0.651400	0.476700	0.238100
C2831	C283	0.255500	0.705800	0.765600
H1871	H187	0.273900	0.670400	0.748300
C2841	C284	0.722900	0.483100	0.319000
H1881	H188	0.698600	0.459200	0.337100
C2851	C285	0.056400	0.614900	0.622100
H1891	H189	0.076200	0.615600	0.662300
C2861	C286	0.286400	0.714500	0.824100
H1901	H190	0.326300	0.687800	0.845800
C2871	C287	0.197500	0.800800	0.817000
H1911	H191	0.174800	0.831500	0.833300
C2881	C288	0.172900	0.790800	0.758300
H1921	H192	0.133700	0.818100	0.735500
N851	N85	0.204600	0.970300	0.083700
N861	N86	0.560800	0.618300	0.090300
N871	N87	0.199700	0.745900	0.731500
N881	N88	0.263000	0.822900	0.939700
N891	N89	0.352400	0.790100	0.029800
N901	N90	0.347900	0.734500	0.943200
N911	N91	0.086700	0.655900	0.594700
N921	N92	0.720700	0.312800	0.579500
N931	N93	0.725500	0.530000	0.230700
N941	N94	0.877400	0.537700	0.443700
N951	N95	0.875200	0.487000	0.529100
N961	N96	0.790000	0.450700	0.437800
