data_QODSUZ_clean_PM
_symmetry_space_group_name_H-M	'P1'
_cell_length_a	21.947500
_cell_length_b	16.674100
_cell_length_c	25.522600
_cell_angle_alpha	90.000000
_cell_angle_beta	115.119000
_cell_angle_gamma	90.000000
_symmetry_Int_Tables_number 1

loop_
_symmetry_equiv_pos_as_xyz
'x,y,z'

loop_
_atom_site_label
_atom_site_type_symbol
_atom_site_fract_x
_atom_site_fract_y
_atom_site_fract_z
Ag11	Ag1	0.321700	0.743860	0.866430
Ag21	Ag2	0.844250	0.543320	0.366890
C11	C1	0.597500	0.528300	0.998900
C21	C2	0.623400	0.244000	0.500400
C31	C3	0.559700	0.198700	0.468000
C41	C4	0.776400	0.361500	0.008100
H11	H1	0.796900	0.364600	0.048300
C51	C5	0.503600	0.615000	0.994800
H21	H2	0.523300	0.616500	0.035000
C61	C6	0.797500	0.416400	0.503800
H31	H3	0.819500	0.412300	0.543900
C71	C7	0.532500	0.190400	0.409400
H41	H4	0.553500	0.212900	0.388000
C81	C8	0.681400	0.447800	0.005000
C91	C9	0.719800	0.347100	0.890500
H51	H5	0.700400	0.342500	0.850400
C101	C10	0.443700	0.655100	0.962800
H61	H6	0.423800	0.683300	0.982900
C111	C11	0.679000	0.544000	0.179400
H71	H7	0.635000	0.561800	0.159000
C121	C12	0.709600	0.274000	0.585800
C131	C13	0.533000	0.572700	0.964900
C141	C14	0.742700	0.263700	0.649200
C151	C15	0.735200	0.379100	0.473000
C161	C16	0.679900	0.498000	0.085700
C171	C17	0.712000	0.507600	0.150400
C181	C18	0.735800	0.435100	0.387200
H81	H8	0.714800	0.441200	0.347300
C191	C19	0.703800	0.390500	0.413800
H91	H9	0.661700	0.368400	0.392000
C201	C20	0.704600	0.327800	0.503100
C211	C21	0.714600	0.399000	0.976100
C221	C22	0.525600	0.165000	0.497800
H101	H10	0.542800	0.169000	0.537900
C231	C23	0.825200	0.459000	0.473400
H111	H11	0.867400	0.481700	0.493800
C241	C24	0.685600	0.389400	0.916700
H121	H12	0.643400	0.411100	0.894400
C251	C25	0.806500	0.319200	0.977900
H131	H13	0.847600	0.294300	0.999100
C261	C26	0.806200	0.494900	0.240800
H141	H14	0.850100	0.477200	0.261800
C271	C27	0.466900	0.126500	0.467300
H151	H15	0.444300	0.104500	0.487600
C281	C28	0.473000	0.147900	0.382000
H161	H16	0.455900	0.139800	0.342200
C291	C29	0.711100	0.553900	0.238400
H171	H17	0.688100	0.578500	0.257400
C301	C30	0.745600	0.205800	0.735500
H181	H18	0.726800	0.171000	0.753100
C311	C31	0.501500	0.572200	0.905300
H191	H19	0.519100	0.542500	0.884000
C321	C32	0.443800	0.616300	0.877800
H201	H20	0.424800	0.618800	0.837600
C331	C33	0.802000	0.300200	0.682800
H211	H21	0.824800	0.330800	0.666300
C341	C34	0.714500	0.212900	0.676500
H221	H22	0.675300	0.184400	0.654900
C351	C35	0.777700	0.484000	0.181600
H231	H23	0.802200	0.461400	0.163200
C361	C36	0.827700	0.290500	0.742600
H241	H24	0.866900	0.318200	0.765300
N11	N1	0.413200	0.655800	0.905500
N21	N2	0.779300	0.312900	0.920700
N31	N3	0.775300	0.529000	0.269900
N41	N4	0.622800	0.537200	0.057100
N51	N5	0.625200	0.486900	0.971100
N61	N6	0.710900	0.450200	0.062800
N71	N7	0.795500	0.469800	0.416600
N81	N8	0.439600	0.118200	0.410500
N91	N9	0.800800	0.245500	0.769200
N101	N10	0.737700	0.322900	0.561000
N111	N11	0.647600	0.290000	0.470600
N121	N12	0.652500	0.233700	0.557500
Ag31	Ag3	0.821700	0.243860	0.866430
Ag41	Ag4	0.344250	0.043320	0.366890
C371	C37	0.097500	0.028300	0.998900
C381	C38	0.123400	0.744000	0.500400
C391	C39	0.059700	0.698700	0.468000
C401	C40	0.276400	0.861500	0.008100
H251	H25	0.296900	0.864600	0.048300
C411	C41	0.003600	0.115000	0.994800
H261	H26	0.023300	0.116500	0.035000
C421	C42	0.297500	0.916400	0.503800
H271	H27	0.319500	0.912300	0.543900
C431	C43	0.032500	0.690400	0.409400
H281	H28	0.053500	0.712900	0.388000
C441	C44	0.181400	0.947800	0.005000
C451	C45	0.219800	0.847100	0.890500
H291	H29	0.200400	0.842500	0.850400
C461	C46	0.943700	0.155100	0.962800
H301	H30	0.923800	0.183300	0.982900
C471	C47	0.179000	0.044000	0.179400
H311	H31	0.135000	0.061800	0.159000
C481	C48	0.209600	0.774000	0.585800
C491	C49	0.033000	0.072700	0.964900
C501	C50	0.242700	0.763700	0.649200
C511	C51	0.235200	0.879100	0.473000
C521	C52	0.179900	0.998000	0.085700
C531	C53	0.212000	0.007600	0.150400
C541	C54	0.235800	0.935100	0.387200
H321	H32	0.214800	0.941200	0.347300
C551	C55	0.203800	0.890500	0.413800
H331	H33	0.161700	0.868400	0.392000
C561	C56	0.204600	0.827800	0.503100
C571	C57	0.214600	0.899000	0.976100
C581	C58	0.025600	0.665000	0.497800
H341	H34	0.042800	0.669000	0.537900
C591	C59	0.325200	0.959000	0.473400
H351	H35	0.367400	0.981700	0.493800
C601	C60	0.185600	0.889400	0.916700
H361	H36	0.143400	0.911100	0.894400
C611	C61	0.306500	0.819200	0.977900
H371	H37	0.347600	0.794300	0.999100
C621	C62	0.306200	0.994900	0.240800
H381	H38	0.350100	0.977200	0.261800
C631	C63	0.966900	0.626500	0.467300
H391	H39	0.944300	0.604500	0.487600
C641	C64	0.973000	0.647900	0.382000
H401	H40	0.955900	0.639800	0.342200
C651	C65	0.211100	0.053900	0.238400
H411	H41	0.188100	0.078500	0.257400
C661	C66	0.245600	0.705800	0.735500
H421	H42	0.226800	0.671000	0.753100
C671	C67	0.001500	0.072200	0.905300
H431	H43	0.019100	0.042500	0.884000
C681	C68	0.943800	0.116300	0.877800
H441	H44	0.924800	0.118800	0.837600
C691	C69	0.302000	0.800200	0.682800
H451	H45	0.324800	0.830800	0.666300
C701	C70	0.214500	0.712900	0.676500
H461	H46	0.175300	0.684400	0.654900
C711	C71	0.277700	0.984000	0.181600
H471	H47	0.302200	0.961400	0.163200
C721	C72	0.327700	0.790500	0.742600
H481	H48	0.366900	0.818200	0.765300
N131	N13	0.913200	0.155800	0.905500
N141	N14	0.279300	0.812900	0.920700
N151	N15	0.275300	0.029000	0.269900
N161	N16	0.122800	0.037200	0.057100
N171	N17	0.125200	0.986900	0.971100
N181	N18	0.210900	0.950200	0.062800
N191	N19	0.295500	0.969800	0.416600
N201	N20	0.939600	0.618200	0.410500
N211	N21	0.300800	0.745500	0.769200
N221	N22	0.237700	0.822900	0.561000
N231	N23	0.147600	0.790000	0.470600
N241	N24	0.152500	0.733700	0.557500
Ag51	Ag5	0.678300	0.743860	0.633570
Ag61	Ag6	0.155750	0.543320	0.133110
C731	C73	0.402500	0.528300	0.501100
C741	C74	0.376600	0.244000	0.999600
C751	C75	0.440300	0.198700	0.032000
C761	C76	0.223600	0.361500	0.491900
H491	H49	0.203100	0.364600	0.451700
C771	C77	0.496400	0.615000	0.505200
H501	H50	0.476700	0.616500	0.465000
C781	C78	0.202500	0.416400	0.996200
H511	H51	0.180500	0.412300	0.956100
C791	C79	0.467500	0.190400	0.090600
H521	H52	0.446500	0.212900	0.112000
C801	C80	0.318600	0.447800	0.495000
C811	C81	0.280200	0.347100	0.609500
H531	H53	0.299600	0.342500	0.649600
C821	C82	0.556300	0.655100	0.537200
H541	H54	0.576200	0.683300	0.517100
C831	C83	0.321000	0.544000	0.320600
H551	H55	0.365000	0.561800	0.341000
C841	C84	0.290400	0.274000	0.914200
C851	C85	0.467000	0.572700	0.535100
C861	C86	0.257300	0.263700	0.850800
C871	C87	0.264800	0.379100	0.027000
C881	C88	0.320100	0.498000	0.414300
C891	C89	0.288000	0.507600	0.349600
C901	C90	0.264200	0.435100	0.112800
H561	H56	0.285200	0.441200	0.152700
C911	C91	0.296200	0.390500	0.086200
H571	H57	0.338300	0.368400	0.108000
C921	C92	0.295400	0.327800	0.996900
C931	C93	0.285400	0.399000	0.523900
C941	C94	0.474400	0.165000	0.002200
H581	H58	0.457200	0.169000	0.962100
C951	C95	0.174800	0.459000	0.026600
H591	H59	0.132600	0.481700	0.006200
C961	C96	0.314400	0.389400	0.583300
H601	H60	0.356600	0.411100	0.605600
C971	C97	0.193500	0.319200	0.522100
H611	H61	0.152400	0.294300	0.500900
C981	C98	0.193800	0.494900	0.259200
H621	H62	0.149900	0.477200	0.238200
C991	C99	0.533100	0.126500	0.032700
H631	H63	0.555700	0.104500	0.012400
C1001	C100	0.527000	0.147900	0.118000
H641	H64	0.544100	0.139800	0.157800
C1011	C101	0.288900	0.553900	0.261600
H651	H65	0.311900	0.578500	0.242600
C1021	C102	0.254400	0.205800	0.764500
H661	H66	0.273200	0.171000	0.746900
C1031	C103	0.498500	0.572200	0.594700
H671	H67	0.480900	0.542500	0.616000
C1041	C104	0.556200	0.616300	0.622200
H681	H68	0.575200	0.618800	0.662400
C1051	C105	0.198000	0.300200	0.817200
H691	H69	0.175200	0.330800	0.833700
C1061	C106	0.285500	0.212900	0.823500
H701	H70	0.324700	0.184400	0.845100
C1071	C107	0.222300	0.484000	0.318400
H711	H71	0.197800	0.461400	0.336800
C1081	C108	0.172300	0.290500	0.757400
H721	H72	0.133100	0.318200	0.734700
N251	N25	0.586800	0.655800	0.594500
N261	N26	0.220700	0.312900	0.579300
N271	N27	0.224700	0.529000	0.230100
N281	N28	0.377200	0.537200	0.442900
N291	N29	0.374800	0.486900	0.528900
N301	N30	0.289100	0.450200	0.437200
N311	N31	0.204500	0.469800	0.083400
N321	N32	0.560400	0.118200	0.089500
N331	N33	0.199200	0.245500	0.730800
N341	N34	0.262300	0.322900	0.939000
N351	N35	0.352400	0.290000	0.029400
N361	N36	0.347500	0.233700	0.942500
Ag71	Ag7	0.178300	0.243860	0.633570
Ag81	Ag8	0.655750	0.043320	0.133110
C1091	C109	0.902500	0.028300	0.501100
C1101	C110	0.876600	0.744000	0.999600
C1111	C111	0.940300	0.698700	0.032000
C1121	C112	0.723600	0.861500	0.491900
H731	H73	0.703100	0.864600	0.451700
C1131	C113	0.996400	0.115000	0.505200
H741	H74	0.976700	0.116500	0.465000
C1141	C114	0.702500	0.916400	0.996200
H751	H75	0.680500	0.912300	0.956100
C1151	C115	0.967500	0.690400	0.090600
H761	H76	0.946500	0.712900	0.112000
C1161	C116	0.818600	0.947800	0.495000
C1171	C117	0.780200	0.847100	0.609500
H771	H77	0.799600	0.842500	0.649600
C1181	C118	0.056300	0.155100	0.537200
H781	H78	0.076200	0.183300	0.517100
C1191	C119	0.821000	0.044000	0.320600
H791	H79	0.865000	0.061800	0.341000
C1201	C120	0.790400	0.774000	0.914200
C1211	C121	0.967000	0.072700	0.535100
C1221	C122	0.757300	0.763700	0.850800
C1231	C123	0.764800	0.879100	0.027000
C1241	C124	0.820100	0.998000	0.414300
C1251	C125	0.788000	0.007600	0.349600
C1261	C126	0.764200	0.935100	0.112800
H801	H80	0.785200	0.941200	0.152700
C1271	C127	0.796200	0.890500	0.086200
H811	H81	0.838300	0.868400	0.108000
C1281	C128	0.795400	0.827800	0.996900
C1291	C129	0.785400	0.899000	0.523900
C1301	C130	0.974400	0.665000	0.002200
H821	H82	0.957200	0.669000	0.962100
C1311	C131	0.674800	0.959000	0.026600
H831	H83	0.632600	0.981700	0.006200
C1321	C132	0.814400	0.889400	0.583300
H841	H84	0.856600	0.911100	0.605600
C1331	C133	0.693500	0.819200	0.522100
H851	H85	0.652400	0.794300	0.500900
C1341	C134	0.693800	0.994900	0.259200
H861	H86	0.649900	0.977200	0.238200
C1351	C135	0.033100	0.626500	0.032700
H871	H87	0.055700	0.604500	0.012400
C1361	C136	0.027000	0.647900	0.118000
H881	H88	0.044100	0.639800	0.157800
C1371	C137	0.788900	0.053900	0.261600
H891	H89	0.811900	0.078500	0.242600
C1381	C138	0.754400	0.705800	0.764500
H901	H90	0.773200	0.671000	0.746900
C1391	C139	0.998500	0.072200	0.594700
H911	H91	0.980900	0.042500	0.616000
C1401	C140	0.056200	0.116300	0.622200
H921	H92	0.075200	0.118800	0.662400
C1411	C141	0.698000	0.800200	0.817200
H931	H93	0.675200	0.830800	0.833700
C1421	C142	0.785500	0.712900	0.823500
H941	H94	0.824700	0.684400	0.845100
C1431	C143	0.722300	0.984000	0.318400
H951	H95	0.697800	0.961400	0.336800
C1441	C144	0.672300	0.790500	0.757400
H961	H96	0.633100	0.818200	0.734700
N371	N37	0.086800	0.155800	0.594500
N381	N38	0.720700	0.812900	0.579300
N391	N39	0.724700	0.029000	0.230100
N401	N40	0.877200	0.037200	0.442900
N411	N41	0.874800	0.986900	0.528900
N421	N42	0.789100	0.950200	0.437200
N431	N43	0.704500	0.969800	0.083400
N441	N44	0.060400	0.618200	0.089500
N451	N45	0.699200	0.745500	0.730800
N461	N46	0.762300	0.822900	0.939000
N471	N47	0.852400	0.790000	0.029400
N481	N48	0.847500	0.733700	0.942500
Ag91	Ag9	0.678300	0.256140	0.133570
Ag101	Ag10	0.155750	0.456680	0.633110
C1451	C145	0.402500	0.471700	0.001100
C1461	C146	0.376600	0.756000	0.499600
C1471	C147	0.440300	0.801300	0.532000
C1481	C148	0.223600	0.638500	0.991900
H971	H97	0.203100	0.635400	0.951700
C1491	C149	0.496400	0.385000	0.005200
H981	H98	0.476700	0.383500	0.965000
C1501	C150	0.202500	0.583600	0.496200
H991	H99	0.180500	0.587700	0.456100
C1511	C151	0.467500	0.809600	0.590600
H1001	H100	0.446500	0.787100	0.612000
C1521	C152	0.318600	0.552200	0.995000
C1531	C153	0.280200	0.652900	0.109500
H1011	H101	0.299600	0.657500	0.149600
C1541	C154	0.556300	0.344900	0.037200
H1021	H102	0.576200	0.316700	0.017100
C1551	C155	0.321000	0.456000	0.820600
H1031	H103	0.365000	0.438200	0.841000
C1561	C156	0.290400	0.726000	0.414200
C1571	C157	0.467000	0.427300	0.035100
C1581	C158	0.257300	0.736300	0.350800
C1591	C159	0.264800	0.620900	0.527000
C1601	C160	0.320100	0.502000	0.914300
C1611	C161	0.288000	0.492400	0.849600
C1621	C162	0.264200	0.564900	0.612800
H1041	H104	0.285200	0.558800	0.652700
C1631	C163	0.296200	0.609500	0.586200
H1051	H105	0.338300	0.631600	0.608000
C1641	C164	0.295400	0.672200	0.496900
C1651	C165	0.285400	0.601000	0.023900
C1661	C166	0.474400	0.835000	0.502200
H1061	H106	0.457200	0.831000	0.462100
C1671	C167	0.174800	0.541000	0.526600
H1071	H107	0.132600	0.518300	0.506200
C1681	C168	0.314400	0.610600	0.083300
H1081	H108	0.356600	0.588900	0.105600
C1691	C169	0.193500	0.680800	0.022100
H1091	H109	0.152400	0.705700	0.000900
C1701	C170	0.193800	0.505100	0.759200
H1101	H110	0.149900	0.522800	0.738200
C1711	C171	0.533100	0.873500	0.532700
H1111	H111	0.555700	0.895500	0.512400
C1721	C172	0.527000	0.852100	0.618000
H1121	H112	0.544100	0.860200	0.657800
C1731	C173	0.288900	0.446100	0.761600
H1131	H113	0.311900	0.421500	0.742600
C1741	C174	0.254400	0.794200	0.264500
H1141	H114	0.273200	0.829000	0.246900
C1751	C175	0.498500	0.427800	0.094700
H1151	H115	0.480900	0.457500	0.116000
C1761	C176	0.556200	0.383700	0.122200
H1161	H116	0.575200	0.381200	0.162400
C1771	C177	0.198000	0.699800	0.317200
H1171	H117	0.175200	0.669200	0.333700
C1781	C178	0.285500	0.787100	0.323500
H1181	H118	0.324700	0.815600	0.345100
C1791	C179	0.222300	0.516000	0.818400
H1191	H119	0.197800	0.538600	0.836800
C1801	C180	0.172300	0.709500	0.257400
H1201	H120	0.133100	0.681800	0.234700
N491	N49	0.586800	0.344200	0.094500
N501	N50	0.220700	0.687100	0.079300
N511	N51	0.224700	0.471000	0.730100
N521	N52	0.377200	0.462800	0.942900
N531	N53	0.374800	0.513100	0.028900
N541	N54	0.289100	0.549800	0.937200
N551	N55	0.204500	0.530200	0.583400
N561	N56	0.560400	0.881800	0.589500
N571	N57	0.199200	0.754500	0.230800
N581	N58	0.262300	0.677100	0.439000
N591	N59	0.352400	0.710000	0.529400
N601	N60	0.347500	0.766300	0.442500
Ag111	Ag11	0.178300	0.756140	0.133570
Ag121	Ag12	0.655750	0.956680	0.633110
C1811	C181	0.902500	0.971700	0.001100
C1821	C182	0.876600	0.256000	0.499600
C1831	C183	0.940300	0.301300	0.532000
C1841	C184	0.723600	0.138500	0.991900
H1211	H121	0.703100	0.135400	0.951700
C1851	C185	0.996400	0.885000	0.005200
H1221	H122	0.976700	0.883500	0.965000
C1861	C186	0.702500	0.083600	0.496200
H1231	H123	0.680500	0.087700	0.456100
C1871	C187	0.967500	0.309600	0.590600
H1241	H124	0.946500	0.287100	0.612000
C1881	C188	0.818600	0.052200	0.995000
C1891	C189	0.780200	0.152900	0.109500
H1251	H125	0.799600	0.157500	0.149600
C1901	C190	0.056300	0.844900	0.037200
H1261	H126	0.076200	0.816700	0.017100
C1911	C191	0.821000	0.956000	0.820600
H1271	H127	0.865000	0.938200	0.841000
C1921	C192	0.790400	0.226000	0.414200
C1931	C193	0.967000	0.927300	0.035100
C1941	C194	0.757300	0.236300	0.350800
C1951	C195	0.764800	0.120900	0.527000
C1961	C196	0.820100	0.002000	0.914300
C1971	C197	0.788000	0.992400	0.849600
C1981	C198	0.764200	0.064900	0.612800
H1281	H128	0.785200	0.058800	0.652700
C1991	C199	0.796200	0.109500	0.586200
H1291	H129	0.838300	0.131600	0.608000
C2001	C200	0.795400	0.172200	0.496900
C2011	C201	0.785400	0.101000	0.023900
C2021	C202	0.974400	0.335000	0.502200
H1301	H130	0.957200	0.331000	0.462100
C2031	C203	0.674800	0.041000	0.526600
H1311	H131	0.632600	0.018300	0.506200
C2041	C204	0.814400	0.110600	0.083300
H1321	H132	0.856600	0.088900	0.105600
C2051	C205	0.693500	0.180800	0.022100
H1331	H133	0.652400	0.205700	0.000900
C2061	C206	0.693800	0.005100	0.759200
H1341	H134	0.649900	0.022800	0.738200
C2071	C207	0.033100	0.373500	0.532700
H1351	H135	0.055700	0.395500	0.512400
C2081	C208	0.027000	0.352100	0.618000
H1361	H136	0.044100	0.360200	0.657800
C2091	C209	0.788900	0.946100	0.761600
H1371	H137	0.811900	0.921500	0.742600
C2101	C210	0.754400	0.294200	0.264500
H1381	H138	0.773200	0.329000	0.246900
C2111	C211	0.998500	0.927800	0.094700
H1391	H139	0.980900	0.957500	0.116000
C2121	C212	0.056200	0.883700	0.122200
H1401	H140	0.075200	0.881200	0.162400
C2131	C213	0.698000	0.199800	0.317200
H1411	H141	0.675200	0.169200	0.333700
C2141	C214	0.785500	0.287100	0.323500
H1421	H142	0.824700	0.315600	0.345100
C2151	C215	0.722300	0.016000	0.818400
H1431	H143	0.697800	0.038600	0.836800
C2161	C216	0.672300	0.209500	0.257400
H1441	H144	0.633100	0.181800	0.234700
N611	N61	0.086800	0.844200	0.094500
N621	N62	0.720700	0.187100	0.079300
N631	N63	0.724700	0.971000	0.730100
N641	N64	0.877200	0.962800	0.942900
N651	N65	0.874800	0.013100	0.028900
N661	N66	0.789100	0.049800	0.937200
N671	N67	0.704500	0.030200	0.583400
N681	N68	0.060400	0.381800	0.589500
N691	N69	0.699200	0.254500	0.230800
N701	N70	0.762300	0.177100	0.439000
N711	N71	0.852400	0.210000	0.529400
N721	N72	0.847500	0.266300	0.442500
Ag131	Ag13	0.321700	0.256140	0.366430
Ag141	Ag14	0.844250	0.456680	0.866890
C2171	C217	0.597500	0.471700	0.498900
C2181	C218	0.623400	0.756000	0.000400
C2191	C219	0.559700	0.801300	0.968000
C2201	C220	0.776400	0.638500	0.508100
H1451	H145	0.796900	0.635400	0.548300
C2211	C221	0.503600	0.385000	0.494800
H1461	H146	0.523300	0.383500	0.535000
C2221	C222	0.797500	0.583600	0.003800
H1471	H147	0.819500	0.587700	0.043900
C2231	C223	0.532500	0.809600	0.909400
H1481	H148	0.553500	0.787100	0.888000
C2241	C224	0.681400	0.552200	0.505000
C2251	C225	0.719800	0.652900	0.390500
H1491	H149	0.700400	0.657500	0.350400
C2261	C226	0.443700	0.344900	0.462800
H1501	H150	0.423800	0.316700	0.482900
C2271	C227	0.679000	0.456000	0.679400
H1511	H151	0.635000	0.438200	0.659000
C2281	C228	0.709600	0.726000	0.085800
C2291	C229	0.533000	0.427300	0.464900
C2301	C230	0.742700	0.736300	0.149200
C2311	C231	0.735200	0.620900	0.973000
C2321	C232	0.679900	0.502000	0.585700
C2331	C233	0.712000	0.492400	0.650400
C2341	C234	0.735800	0.564900	0.887200
H1521	H152	0.714800	0.558800	0.847300
C2351	C235	0.703800	0.609500	0.913800
H1531	H153	0.661700	0.631600	0.892000
C2361	C236	0.704600	0.672200	0.003100
C2371	C237	0.714600	0.601000	0.476100
C2381	C238	0.525600	0.835000	0.997800
H1541	H154	0.542800	0.831000	0.037900
C2391	C239	0.825200	0.541000	0.973400
H1551	H155	0.867400	0.518300	0.993800
C2401	C240	0.685600	0.610600	0.416700
H1561	H156	0.643400	0.588900	0.394400
C2411	C241	0.806500	0.680800	0.477900
H1571	H157	0.847600	0.705700	0.499100
C2421	C242	0.806200	0.505100	0.740800
H1581	H158	0.850100	0.522800	0.761800
C2431	C243	0.466900	0.873500	0.967300
H1591	H159	0.444300	0.895500	0.987600
C2441	C244	0.473000	0.852100	0.882000
H1601	H160	0.455900	0.860200	0.842200
C2451	C245	0.711100	0.446100	0.738400
H1611	H161	0.688100	0.421500	0.757400
C2461	C246	0.745600	0.794200	0.235500
H1621	H162	0.726800	0.829000	0.253100
C2471	C247	0.501500	0.427800	0.405300
H1631	H163	0.519100	0.457500	0.384000
C2481	C248	0.443800	0.383700	0.377800
H1641	H164	0.424800	0.381200	0.337600
C2491	C249	0.802000	0.699800	0.182800
H1651	H165	0.824800	0.669200	0.166300
C2501	C250	0.714500	0.787100	0.176500
H1661	H166	0.675300	0.815600	0.154900
C2511	C251	0.777700	0.516000	0.681600
H1671	H167	0.802200	0.538600	0.663200
C2521	C252	0.827700	0.709500	0.242600
H1681	H168	0.866900	0.681800	0.265300
N731	N73	0.413200	0.344200	0.405500
N741	N74	0.779300	0.687100	0.420700
N751	N75	0.775300	0.471000	0.769900
N761	N76	0.622800	0.462800	0.557100
N771	N77	0.625200	0.513100	0.471100
N781	N78	0.710900	0.549800	0.562800
N791	N79	0.795500	0.530200	0.916600
N801	N80	0.439600	0.881800	0.910500
N811	N81	0.800800	0.754500	0.269200
N821	N82	0.737700	0.677100	0.061000
N831	N83	0.647600	0.710000	0.970600
N841	N84	0.652500	0.766300	0.057500
Ag151	Ag15	0.821700	0.756140	0.366430
Ag161	Ag16	0.344250	0.956680	0.866890
C2531	C253	0.097500	0.971700	0.498900
C2541	C254	0.123400	0.256000	0.000400
C2551	C255	0.059700	0.301300	0.968000
C2561	C256	0.276400	0.138500	0.508100
H1691	H169	0.296900	0.135400	0.548300
C2571	C257	0.003600	0.885000	0.494800
H1701	H170	0.023300	0.883500	0.535000
C2581	C258	0.297500	0.083600	0.003800
H1711	H171	0.319500	0.087700	0.043900
C2591	C259	0.032500	0.309600	0.909400
H1721	H172	0.053500	0.287100	0.888000
C2601	C260	0.181400	0.052200	0.505000
C2611	C261	0.219800	0.152900	0.390500
H1731	H173	0.200400	0.157500	0.350400
C2621	C262	0.943700	0.844900	0.462800
H1741	H174	0.923800	0.816700	0.482900
C2631	C263	0.179000	0.956000	0.679400
H1751	H175	0.135000	0.938200	0.659000
C2641	C264	0.209600	0.226000	0.085800
C2651	C265	0.033000	0.927300	0.464900
C2661	C266	0.242700	0.236300	0.149200
C2671	C267	0.235200	0.120900	0.973000
C2681	C268	0.179900	0.002000	0.585700
C2691	C269	0.212000	0.992400	0.650400
C2701	C270	0.235800	0.064900	0.887200
H1761	H176	0.214800	0.058800	0.847300
C2711	C271	0.203800	0.109500	0.913800
H1771	H177	0.161700	0.131600	0.892000
C2721	C272	0.204600	0.172200	0.003100
C2731	C273	0.214600	0.101000	0.476100
C2741	C274	0.025600	0.335000	0.997800
H1781	H178	0.042800	0.331000	0.037900
C2751	C275	0.325200	0.041000	0.973400
H1791	H179	0.367400	0.018300	0.993800
C2761	C276	0.185600	0.110600	0.416700
H1801	H180	0.143400	0.088900	0.394400
C2771	C277	0.306500	0.180800	0.477900
H1811	H181	0.347600	0.205700	0.499100
C2781	C278	0.306200	0.005100	0.740800
H1821	H182	0.350100	0.022800	0.761800
C2791	C279	0.966900	0.373500	0.967300
H1831	H183	0.944300	0.395500	0.987600
C2801	C280	0.973000	0.352100	0.882000
H1841	H184	0.955900	0.360200	0.842200
C2811	C281	0.211100	0.946100	0.738400
H1851	H185	0.188100	0.921500	0.757400
C2821	C282	0.245600	0.294200	0.235500
H1861	H186	0.226800	0.329000	0.253100
C2831	C283	0.001500	0.927800	0.405300
H1871	H187	0.019100	0.957500	0.384000
C2841	C284	0.943800	0.883700	0.377800
H1881	H188	0.924800	0.881200	0.337600
C2851	C285	0.302000	0.199800	0.182800
H1891	H189	0.324800	0.169200	0.166300
C2861	C286	0.214500	0.287100	0.176500
H1901	H190	0.175300	0.315600	0.154900
C2871	C287	0.277700	0.016000	0.681600
H1911	H191	0.302200	0.038600	0.663200
C2881	C288	0.327700	0.209500	0.242600
H1921	H192	0.366900	0.181800	0.265300
N851	N85	0.913200	0.844200	0.405500
N861	N86	0.279300	0.187100	0.420700
N871	N87	0.275300	0.971000	0.769900
N881	N88	0.122800	0.962800	0.557100
N891	N89	0.125200	0.013100	0.471100
N901	N90	0.210900	0.049800	0.562800
N911	N91	0.295500	0.030200	0.916600
N921	N92	0.939600	0.381800	0.910500
N931	N93	0.300800	0.254500	0.269200
N941	N94	0.237700	0.177100	0.061000
N951	N95	0.147600	0.210000	0.970600
N961	N96	0.152500	0.266300	0.057500
