data_QOFCIZ_clean_PM
_symmetry_space_group_name_H-M	'P1'
_cell_length_a	22.024800
_cell_length_b	16.493300
_cell_length_c	25.676600
_cell_angle_alpha	90.000000
_cell_angle_beta	115.385000
_cell_angle_gamma	90.000000
_symmetry_Int_Tables_number 1

loop_
_symmetry_equiv_pos_as_xyz
'x,y,z'

loop_
_atom_site_label
_atom_site_type_symbol
_atom_site_fract_x
_atom_site_fract_y
_atom_site_fract_z
Ag11	Ag1	0.273960	0.708710	0.868250
Ag21	Ag2	0.794720	0.000570	0.367700
C11	C1	0.627990	0.062200	0.911310
H11	H1	0.585300	0.040800	0.890000
C21	C2	0.422690	0.400000	0.392690
H21	H2	0.403000	0.404300	0.352700
C31	C3	0.654170	0.219100	0.501590
C41	C4	0.628280	0.007200	0.002730
C51	C5	0.481850	0.386900	0.509670
H31	H3	0.501100	0.383900	0.549700
C61	C6	0.403180	0.816400	0.889270
H41	H4	0.385100	0.810500	0.849400
C71	C7	0.743520	0.133200	0.496570
H51	H5	0.764100	0.132700	0.536700
C81	C8	0.575220	0.301000	0.507410
C91	C9	0.723380	0.086700	0.000100
H61	H6	0.745900	0.082500	0.040000
C101	C10	0.772080	0.092300	0.465520
H71	H7	0.812300	0.064800	0.485700
C111	C11	0.627970	0.976700	0.088170
C121	C12	0.660350	0.052400	0.970600
C131	C13	0.461020	0.861200	0.915940
H81	H8	0.481300	0.884200	0.894300
C141	C14	0.752000	0.126900	0.969490
H91	H9	0.794400	0.149400	0.989700
C151	C15	0.683960	0.175000	0.467140
C161	C16	0.658260	0.986600	0.151770
C171	C17	0.457070	0.834100	0.005510
H101	H10	0.474600	0.838100	0.045400
C181	C18	0.779800	0.198600	0.740710
H111	H11	0.821900	0.174600	0.759800
C191	C19	0.712300	0.038400	0.178440
H121	H12	0.728500	0.068900	0.156700
C201	C20	0.482270	0.357800	0.419110
H131	H13	0.502000	0.334800	0.397000
C211	C21	0.690740	0.242700	0.652240
C221	C22	0.661050	0.104700	0.884750
H141	H14	0.638900	0.112100	0.845100
C231	C23	0.549880	0.922700	0.005790
C241	C24	0.753400	0.207400	0.681720
H151	H15	0.777500	0.189800	0.661700
C251	C25	0.656600	0.268100	0.684120
H161	H16	0.614400	0.292100	0.666100
C261	C26	0.686800	0.257100	0.743190
H171	H17	0.663700	0.274200	0.764100
C271	C27	0.741700	0.043900	0.237650
H181	H18	0.777500	0.079500	0.255100
C281	C28	0.398900	0.790600	0.974920
H191	H19	0.377600	0.766600	0.995400
C291	C29	0.512520	0.349900	0.478170
C301	C30	0.658740	0.252400	0.588610
C311	C31	0.655600	0.174600	0.407850
H201	H20	0.616200	0.203100	0.386800
C321	C32	0.633500	0.944500	0.185420
H211	H21	0.595700	0.911700	0.168800
C331	C33	0.422100	0.428300	0.479930
H221	H22	0.401900	0.452800	0.501100
C341	C34	0.489230	0.872000	0.975310
C351	C35	0.667200	0.953300	0.244400
H231	H23	0.651100	0.924200	0.266900
C361	C36	0.686700	0.131100	0.380100
H241	H24	0.666500	0.129900	0.340000
N11	N1	0.371250	0.780790	0.917620
N21	N2	0.722370	0.135600	0.912180
N31	N3	0.721200	0.000200	0.271800
N41	N4	0.574680	0.961000	0.973000
N51	N5	0.656270	0.018500	0.059840
N61	N6	0.574880	0.927500	0.063150
N71	N7	0.744710	0.090200	0.408040
N81	N8	0.747010	0.223300	0.771970
N91	N9	0.391730	0.435200	0.422120
N101	N10	0.597510	0.260200	0.473490
N111	N11	0.686990	0.212600	0.559330
N121	N12	0.604050	0.299300	0.564810
Ag31	Ag3	0.773960	0.208710	0.868250
Ag41	Ag4	0.294720	0.500570	0.367700
C371	C37	0.127990	0.562200	0.911310
H251	H25	0.085300	0.540800	0.890000
C381	C38	0.922690	0.900000	0.392690
H261	H26	0.903000	0.904300	0.352700
C391	C39	0.154170	0.719100	0.501590
C401	C40	0.128280	0.507200	0.002730
C411	C41	0.981850	0.886900	0.509670
H271	H27	0.001100	0.883900	0.549700
C421	C42	0.903180	0.316400	0.889270
H281	H28	0.885100	0.310500	0.849400
C431	C43	0.243520	0.633200	0.496570
H291	H29	0.264100	0.632700	0.536700
C441	C44	0.075220	0.801000	0.507410
C451	C45	0.223380	0.586700	0.000100
H301	H30	0.245900	0.582500	0.040000
C461	C46	0.272080	0.592300	0.465520
H311	H31	0.312300	0.564800	0.485700
C471	C47	0.127970	0.476700	0.088170
C481	C48	0.160350	0.552400	0.970600
C491	C49	0.961020	0.361200	0.915940
H321	H32	0.981300	0.384200	0.894300
C501	C50	0.252000	0.626900	0.969490
H331	H33	0.294400	0.649400	0.989700
C511	C51	0.183960	0.675000	0.467140
C521	C52	0.158260	0.486600	0.151770
C531	C53	0.957070	0.334100	0.005510
H341	H34	0.974600	0.338100	0.045400
C541	C54	0.279800	0.698600	0.740710
H351	H35	0.321900	0.674600	0.759800
C551	C55	0.212300	0.538400	0.178440
H361	H36	0.228500	0.568900	0.156700
C561	C56	0.982270	0.857800	0.419110
H371	H37	0.002000	0.834800	0.397000
C571	C57	0.190740	0.742700	0.652240
C581	C58	0.161050	0.604700	0.884750
H381	H38	0.138900	0.612100	0.845100
C591	C59	0.049880	0.422700	0.005790
C601	C60	0.253400	0.707400	0.681720
H391	H39	0.277500	0.689800	0.661700
C611	C61	0.156600	0.768100	0.684120
H401	H40	0.114400	0.792100	0.666100
C621	C62	0.186800	0.757100	0.743190
H411	H41	0.163700	0.774200	0.764100
C631	C63	0.241700	0.543900	0.237650
H421	H42	0.277500	0.579500	0.255100
C641	C64	0.898900	0.290600	0.974920
H431	H43	0.877600	0.266600	0.995400
C651	C65	0.012520	0.849900	0.478170
C661	C66	0.158740	0.752400	0.588610
C671	C67	0.155600	0.674600	0.407850
H441	H44	0.116200	0.703100	0.386800
C681	C68	0.133500	0.444500	0.185420
H451	H45	0.095700	0.411700	0.168800
C691	C69	0.922100	0.928300	0.479930
H461	H46	0.901900	0.952800	0.501100
C701	C70	0.989230	0.372000	0.975310
C711	C71	0.167200	0.453300	0.244400
H471	H47	0.151100	0.424200	0.266900
C721	C72	0.186700	0.631100	0.380100
H481	H48	0.166500	0.629900	0.340000
N131	N13	0.871250	0.280790	0.917620
N141	N14	0.222370	0.635600	0.912180
N151	N15	0.221200	0.500200	0.271800
N161	N16	0.074680	0.461000	0.973000
N171	N17	0.156270	0.518500	0.059840
N181	N18	0.074880	0.427500	0.063150
N191	N19	0.244710	0.590200	0.408040
N201	N20	0.247010	0.723300	0.771970
N211	N21	0.891730	0.935200	0.422120
N221	N22	0.097510	0.760200	0.473490
N231	N23	0.186990	0.712600	0.559330
N241	N24	0.104050	0.799300	0.564810
Ag51	Ag5	0.726040	0.708710	0.631750
Ag61	Ag6	0.205280	0.000570	0.132300
C731	C73	0.372010	0.062200	0.588690
H491	H49	0.414700	0.040800	0.610000
C741	C74	0.577310	0.400000	0.107310
H501	H50	0.597000	0.404300	0.147300
C751	C75	0.345830	0.219100	0.998410
C761	C76	0.371720	0.007200	0.497270
C771	C77	0.518150	0.386900	0.990330
H511	H51	0.498900	0.383900	0.950300
C781	C78	0.596820	0.816400	0.610730
H521	H52	0.614900	0.810500	0.650600
C791	C79	0.256480	0.133200	0.003430
H531	H53	0.235900	0.132700	0.963300
C801	C80	0.424780	0.301000	0.992590
C811	C81	0.276620	0.086700	0.499900
H541	H54	0.254100	0.082500	0.460000
C821	C82	0.227920	0.092300	0.034480
H551	H55	0.187700	0.064800	0.014300
C831	C83	0.372030	0.976700	0.411830
C841	C84	0.339650	0.052400	0.529400
C851	C85	0.538980	0.861200	0.584060
H561	H56	0.518700	0.884200	0.605700
C861	C86	0.248000	0.126900	0.530510
H571	H57	0.205600	0.149400	0.510300
C871	C87	0.316040	0.175000	0.032860
C881	C88	0.341740	0.986600	0.348230
C891	C89	0.542930	0.834100	0.494490
H581	H58	0.525400	0.838100	0.454600
C901	C90	0.220200	0.198600	0.759290
H591	H59	0.178100	0.174600	0.740200
C911	C91	0.287700	0.038400	0.321560
H601	H60	0.271500	0.068900	0.343300
C921	C92	0.517730	0.357800	0.080890
H611	H61	0.498000	0.334800	0.103000
C931	C93	0.309260	0.242700	0.847760
C941	C94	0.338950	0.104700	0.615250
H621	H62	0.361100	0.112100	0.654900
C951	C95	0.450120	0.922700	0.494210
C961	C96	0.246600	0.207400	0.818280
H631	H63	0.222500	0.189800	0.838300
C971	C97	0.343400	0.268100	0.815880
H641	H64	0.385600	0.292100	0.833900
C981	C98	0.313200	0.257100	0.756810
H651	H65	0.336300	0.274200	0.735900
C991	C99	0.258300	0.043900	0.262350
H661	H66	0.222500	0.079500	0.244900
C1001	C100	0.601100	0.790600	0.525080
H671	H67	0.622400	0.766600	0.504600
C1011	C101	0.487480	0.349900	0.021830
C1021	C102	0.341260	0.252400	0.911390
C1031	C103	0.344400	0.174600	0.092150
H681	H68	0.383800	0.203100	0.113200
C1041	C104	0.366500	0.944500	0.314580
H691	H69	0.404300	0.911700	0.331200
C1051	C105	0.577900	0.428300	0.020070
H701	H70	0.598100	0.452800	0.998900
C1061	C106	0.510770	0.872000	0.524690
C1071	C107	0.332800	0.953300	0.255600
H711	H71	0.348900	0.924200	0.233100
C1081	C108	0.313300	0.131100	0.119900
H721	H72	0.333500	0.129900	0.160000
N251	N25	0.628750	0.780790	0.582380
N261	N26	0.277630	0.135600	0.587820
N271	N27	0.278800	0.000200	0.228200
N281	N28	0.425320	0.961000	0.527000
N291	N29	0.343730	0.018500	0.440160
N301	N30	0.425120	0.927500	0.436850
N311	N31	0.255290	0.090200	0.091960
N321	N32	0.252990	0.223300	0.728030
N331	N33	0.608270	0.435200	0.077880
N341	N34	0.402490	0.260200	0.026510
N351	N35	0.313010	0.212600	0.940670
N361	N36	0.395950	0.299300	0.935190
Ag71	Ag7	0.226040	0.208710	0.631750
Ag81	Ag8	0.705280	0.500570	0.132300
C1091	C109	0.872010	0.562200	0.588690
H731	H73	0.914700	0.540800	0.610000
C1101	C110	0.077310	0.900000	0.107310
H741	H74	0.097000	0.904300	0.147300
C1111	C111	0.845830	0.719100	0.998410
C1121	C112	0.871720	0.507200	0.497270
C1131	C113	0.018150	0.886900	0.990330
H751	H75	0.998900	0.883900	0.950300
C1141	C114	0.096820	0.316400	0.610730
H761	H76	0.114900	0.310500	0.650600
C1151	C115	0.756480	0.633200	0.003430
H771	H77	0.735900	0.632700	0.963300
C1161	C116	0.924780	0.801000	0.992590
C1171	C117	0.776620	0.586700	0.499900
H781	H78	0.754100	0.582500	0.460000
C1181	C118	0.727920	0.592300	0.034480
H791	H79	0.687700	0.564800	0.014300
C1191	C119	0.872030	0.476700	0.411830
C1201	C120	0.839650	0.552400	0.529400
C1211	C121	0.038980	0.361200	0.584060
H801	H80	0.018700	0.384200	0.605700
C1221	C122	0.748000	0.626900	0.530510
H811	H81	0.705600	0.649400	0.510300
C1231	C123	0.816040	0.675000	0.032860
C1241	C124	0.841740	0.486600	0.348230
C1251	C125	0.042930	0.334100	0.494490
H821	H82	0.025400	0.338100	0.454600
C1261	C126	0.720200	0.698600	0.759290
H831	H83	0.678100	0.674600	0.740200
C1271	C127	0.787700	0.538400	0.321560
H841	H84	0.771500	0.568900	0.343300
C1281	C128	0.017730	0.857800	0.080890
H851	H85	0.998000	0.834800	0.103000
C1291	C129	0.809260	0.742700	0.847760
C1301	C130	0.838950	0.604700	0.615250
H861	H86	0.861100	0.612100	0.654900
C1311	C131	0.950120	0.422700	0.494210
C1321	C132	0.746600	0.707400	0.818280
H871	H87	0.722500	0.689800	0.838300
C1331	C133	0.843400	0.768100	0.815880
H881	H88	0.885600	0.792100	0.833900
C1341	C134	0.813200	0.757100	0.756810
H891	H89	0.836300	0.774200	0.735900
C1351	C135	0.758300	0.543900	0.262350
H901	H90	0.722500	0.579500	0.244900
C1361	C136	0.101100	0.290600	0.525080
H911	H91	0.122400	0.266600	0.504600
C1371	C137	0.987480	0.849900	0.021830
C1381	C138	0.841260	0.752400	0.911390
C1391	C139	0.844400	0.674600	0.092150
H921	H92	0.883800	0.703100	0.113200
C1401	C140	0.866500	0.444500	0.314580
H931	H93	0.904300	0.411700	0.331200
C1411	C141	0.077900	0.928300	0.020070
H941	H94	0.098100	0.952800	0.998900
C1421	C142	0.010770	0.372000	0.524690
C1431	C143	0.832800	0.453300	0.255600
H951	H95	0.848900	0.424200	0.233100
C1441	C144	0.813300	0.631100	0.119900
H961	H96	0.833500	0.629900	0.160000
N371	N37	0.128750	0.280790	0.582380
N381	N38	0.777630	0.635600	0.587820
N391	N39	0.778800	0.500200	0.228200
N401	N40	0.925320	0.461000	0.527000
N411	N41	0.843730	0.518500	0.440160
N421	N42	0.925120	0.427500	0.436850
N431	N43	0.755290	0.590200	0.091960
N441	N44	0.752990	0.723300	0.728030
N451	N45	0.108270	0.935200	0.077880
N461	N46	0.902490	0.760200	0.026510
N471	N47	0.813010	0.712600	0.940670
N481	N48	0.895950	0.799300	0.935190
Ag91	Ag9	0.726040	0.291290	0.131750
Ag101	Ag10	0.205280	0.999430	0.632300
C1451	C145	0.372010	0.937800	0.088690
H971	H97	0.414700	0.959200	0.110000
C1461	C146	0.577310	0.600000	0.607310
H981	H98	0.597000	0.595700	0.647300
C1471	C147	0.345830	0.780900	0.498410
C1481	C148	0.371720	0.992800	0.997270
C1491	C149	0.518150	0.613100	0.490330
H991	H99	0.498900	0.616100	0.450300
C1501	C150	0.596820	0.183600	0.110730
H1001	H100	0.614900	0.189500	0.150600
C1511	C151	0.256480	0.866800	0.503430
H1011	H101	0.235900	0.867300	0.463300
C1521	C152	0.424780	0.699000	0.492590
C1531	C153	0.276620	0.913300	0.999900
H1021	H102	0.254100	0.917500	0.960000
C1541	C154	0.227920	0.907700	0.534480
H1031	H103	0.187700	0.935200	0.514300
C1551	C155	0.372030	0.023300	0.911830
C1561	C156	0.339650	0.947600	0.029400
C1571	C157	0.538980	0.138800	0.084060
H1041	H104	0.518700	0.115800	0.105700
C1581	C158	0.248000	0.873100	0.030510
H1051	H105	0.205600	0.850600	0.010300
C1591	C159	0.316040	0.825000	0.532860
C1601	C160	0.341740	0.013400	0.848230
C1611	C161	0.542930	0.165900	0.994490
H1061	H106	0.525400	0.161900	0.954600
C1621	C162	0.220200	0.801400	0.259290
H1071	H107	0.178100	0.825400	0.240200
C1631	C163	0.287700	0.961600	0.821560
H1081	H108	0.271500	0.931100	0.843300
C1641	C164	0.517730	0.642200	0.580890
H1091	H109	0.498000	0.665200	0.603000
C1651	C165	0.309260	0.757300	0.347760
C1661	C166	0.338950	0.895300	0.115250
H1101	H110	0.361100	0.887900	0.154900
C1671	C167	0.450120	0.077300	0.994210
C1681	C168	0.246600	0.792600	0.318280
H1111	H111	0.222500	0.810200	0.338300
C1691	C169	0.343400	0.731900	0.315880
H1121	H112	0.385600	0.707900	0.333900
C1701	C170	0.313200	0.742900	0.256810
H1131	H113	0.336300	0.725800	0.235900
C1711	C171	0.258300	0.956100	0.762350
H1141	H114	0.222500	0.920500	0.744900
C1721	C172	0.601100	0.209400	0.025080
H1151	H115	0.622400	0.233400	0.004600
C1731	C173	0.487480	0.650100	0.521830
C1741	C174	0.341260	0.747600	0.411390
C1751	C175	0.344400	0.825400	0.592150
H1161	H116	0.383800	0.796900	0.613200
C1761	C176	0.366500	0.055500	0.814580
H1171	H117	0.404300	0.088300	0.831200
C1771	C177	0.577900	0.571700	0.520070
H1181	H118	0.598100	0.547200	0.498900
C1781	C178	0.510770	0.128000	0.024690
C1791	C179	0.332800	0.046700	0.755600
H1191	H119	0.348900	0.075800	0.733100
C1801	C180	0.313300	0.868900	0.619900
H1201	H120	0.333500	0.870100	0.660000
N491	N49	0.628750	0.219210	0.082380
N501	N50	0.277630	0.864400	0.087820
N511	N51	0.278800	0.999800	0.728200
N521	N52	0.425320	0.039000	0.027000
N531	N53	0.343730	0.981500	0.940160
N541	N54	0.425120	0.072500	0.936850
N551	N55	0.255290	0.909800	0.591960
N561	N56	0.252990	0.776700	0.228030
N571	N57	0.608270	0.564800	0.577880
N581	N58	0.402490	0.739800	0.526510
N591	N59	0.313010	0.787400	0.440670
N601	N60	0.395950	0.700700	0.435190
Ag111	Ag11	0.226040	0.791290	0.131750
Ag121	Ag12	0.705280	0.499430	0.632300
C1811	C181	0.872010	0.437800	0.088690
H1211	H121	0.914700	0.459200	0.110000
C1821	C182	0.077310	0.100000	0.607310
H1221	H122	0.097000	0.095700	0.647300
C1831	C183	0.845830	0.280900	0.498410
C1841	C184	0.871720	0.492800	0.997270
C1851	C185	0.018150	0.113100	0.490330
H1231	H123	0.998900	0.116100	0.450300
C1861	C186	0.096820	0.683600	0.110730
H1241	H124	0.114900	0.689500	0.150600
C1871	C187	0.756480	0.366800	0.503430
H1251	H125	0.735900	0.367300	0.463300
C1881	C188	0.924780	0.199000	0.492590
C1891	C189	0.776620	0.413300	0.999900
H1261	H126	0.754100	0.417500	0.960000
C1901	C190	0.727920	0.407700	0.534480
H1271	H127	0.687700	0.435200	0.514300
C1911	C191	0.872030	0.523300	0.911830
C1921	C192	0.839650	0.447600	0.029400
C1931	C193	0.038980	0.638800	0.084060
H1281	H128	0.018700	0.615800	0.105700
C1941	C194	0.748000	0.373100	0.030510
H1291	H129	0.705600	0.350600	0.010300
C1951	C195	0.816040	0.325000	0.532860
C1961	C196	0.841740	0.513400	0.848230
C1971	C197	0.042930	0.665900	0.994490
H1301	H130	0.025400	0.661900	0.954600
C1981	C198	0.720200	0.301400	0.259290
H1311	H131	0.678100	0.325400	0.240200
C1991	C199	0.787700	0.461600	0.821560
H1321	H132	0.771500	0.431100	0.843300
C2001	C200	0.017730	0.142200	0.580890
H1331	H133	0.998000	0.165200	0.603000
C2011	C201	0.809260	0.257300	0.347760
C2021	C202	0.838950	0.395300	0.115250
H1341	H134	0.861100	0.387900	0.154900
C2031	C203	0.950120	0.577300	0.994210
C2041	C204	0.746600	0.292600	0.318280
H1351	H135	0.722500	0.310200	0.338300
C2051	C205	0.843400	0.231900	0.315880
H1361	H136	0.885600	0.207900	0.333900
C2061	C206	0.813200	0.242900	0.256810
H1371	H137	0.836300	0.225800	0.235900
C2071	C207	0.758300	0.456100	0.762350
H1381	H138	0.722500	0.420500	0.744900
C2081	C208	0.101100	0.709400	0.025080
H1391	H139	0.122400	0.733400	0.004600
C2091	C209	0.987480	0.150100	0.521830
C2101	C210	0.841260	0.247600	0.411390
C2111	C211	0.844400	0.325400	0.592150
H1401	H140	0.883800	0.296900	0.613200
C2121	C212	0.866500	0.555500	0.814580
H1411	H141	0.904300	0.588300	0.831200
C2131	C213	0.077900	0.071700	0.520070
H1421	H142	0.098100	0.047200	0.498900
C2141	C214	0.010770	0.628000	0.024690
C2151	C215	0.832800	0.546700	0.755600
H1431	H143	0.848900	0.575800	0.733100
C2161	C216	0.813300	0.368900	0.619900
H1441	H144	0.833500	0.370100	0.660000
N611	N61	0.128750	0.719210	0.082380
N621	N62	0.777630	0.364400	0.087820
N631	N63	0.778800	0.499800	0.728200
N641	N64	0.925320	0.539000	0.027000
N651	N65	0.843730	0.481500	0.940160
N661	N66	0.925120	0.572500	0.936850
N671	N67	0.755290	0.409800	0.591960
N681	N68	0.752990	0.276700	0.228030
N691	N69	0.108270	0.064800	0.577880
N701	N70	0.902490	0.239800	0.526510
N711	N71	0.813010	0.287400	0.440670
N721	N72	0.895950	0.200700	0.435190
Ag131	Ag13	0.273960	0.291290	0.368250
Ag141	Ag14	0.794720	0.999430	0.867700
C2171	C217	0.627990	0.937800	0.411310
H1451	H145	0.585300	0.959200	0.390000
C2181	C218	0.422690	0.600000	0.892690
H1461	H146	0.403000	0.595700	0.852700
C2191	C219	0.654170	0.780900	0.001590
C2201	C220	0.628280	0.992800	0.502730
C2211	C221	0.481850	0.613100	0.009670
H1471	H147	0.501100	0.616100	0.049700
C2221	C222	0.403180	0.183600	0.389270
H1481	H148	0.385100	0.189500	0.349400
C2231	C223	0.743520	0.866800	0.996570
H1491	H149	0.764100	0.867300	0.036700
C2241	C224	0.575220	0.699000	0.007410
C2251	C225	0.723380	0.913300	0.500100
H1501	H150	0.745900	0.917500	0.540000
C2261	C226	0.772080	0.907700	0.965520
H1511	H151	0.812300	0.935200	0.985700
C2271	C227	0.627970	0.023300	0.588170
C2281	C228	0.660350	0.947600	0.470600
C2291	C229	0.461020	0.138800	0.415940
H1521	H152	0.481300	0.115800	0.394300
C2301	C230	0.752000	0.873100	0.469490
H1531	H153	0.794400	0.850600	0.489700
C2311	C231	0.683960	0.825000	0.967140
C2321	C232	0.658260	0.013400	0.651770
C2331	C233	0.457070	0.165900	0.505510
H1541	H154	0.474600	0.161900	0.545400
C2341	C234	0.779800	0.801400	0.240710
H1551	H155	0.821900	0.825400	0.259800
C2351	C235	0.712300	0.961600	0.678440
H1561	H156	0.728500	0.931100	0.656700
C2361	C236	0.482270	0.642200	0.919110
H1571	H157	0.502000	0.665200	0.897000
C2371	C237	0.690740	0.757300	0.152240
C2381	C238	0.661050	0.895300	0.384750
H1581	H158	0.638900	0.887900	0.345100
C2391	C239	0.549880	0.077300	0.505790
C2401	C240	0.753400	0.792600	0.181720
H1591	H159	0.777500	0.810200	0.161700
C2411	C241	0.656600	0.731900	0.184120
H1601	H160	0.614400	0.707900	0.166100
C2421	C242	0.686800	0.742900	0.243190
H1611	H161	0.663700	0.725800	0.264100
C2431	C243	0.741700	0.956100	0.737650
H1621	H162	0.777500	0.920500	0.755100
C2441	C244	0.398900	0.209400	0.474920
H1631	H163	0.377600	0.233400	0.495400
C2451	C245	0.512520	0.650100	0.978170
C2461	C246	0.658740	0.747600	0.088610
C2471	C247	0.655600	0.825400	0.907850
H1641	H164	0.616200	0.796900	0.886800
C2481	C248	0.633500	0.055500	0.685420
H1651	H165	0.595700	0.088300	0.668800
C2491	C249	0.422100	0.571700	0.979930
H1661	H166	0.401900	0.547200	0.001100
C2501	C250	0.489230	0.128000	0.475310
C2511	C251	0.667200	0.046700	0.744400
H1671	H167	0.651100	0.075800	0.766900
C2521	C252	0.686700	0.868900	0.880100
H1681	H168	0.666500	0.870100	0.840000
N731	N73	0.371250	0.219210	0.417620
N741	N74	0.722370	0.864400	0.412180
N751	N75	0.721200	0.999800	0.771800
N761	N76	0.574680	0.039000	0.473000
N771	N77	0.656270	0.981500	0.559840
N781	N78	0.574880	0.072500	0.563150
N791	N79	0.744710	0.909800	0.908040
N801	N80	0.747010	0.776700	0.271970
N811	N81	0.391730	0.564800	0.922120
N821	N82	0.597510	0.739800	0.973490
N831	N83	0.686990	0.787400	0.059330
N841	N84	0.604050	0.700700	0.064810
Ag151	Ag15	0.773960	0.791290	0.368250
Ag161	Ag16	0.294720	0.499430	0.867700
C2531	C253	0.127990	0.437800	0.411310
H1691	H169	0.085300	0.459200	0.390000
C2541	C254	0.922690	0.100000	0.892690
H1701	H170	0.903000	0.095700	0.852700
C2551	C255	0.154170	0.280900	0.001590
C2561	C256	0.128280	0.492800	0.502730
C2571	C257	0.981850	0.113100	0.009670
H1711	H171	0.001100	0.116100	0.049700
C2581	C258	0.903180	0.683600	0.389270
H1721	H172	0.885100	0.689500	0.349400
C2591	C259	0.243520	0.366800	0.996570
H1731	H173	0.264100	0.367300	0.036700
C2601	C260	0.075220	0.199000	0.007410
C2611	C261	0.223380	0.413300	0.500100
H1741	H174	0.245900	0.417500	0.540000
C2621	C262	0.272080	0.407700	0.965520
H1751	H175	0.312300	0.435200	0.985700
C2631	C263	0.127970	0.523300	0.588170
C2641	C264	0.160350	0.447600	0.470600
C2651	C265	0.961020	0.638800	0.415940
H1761	H176	0.981300	0.615800	0.394300
C2661	C266	0.252000	0.373100	0.469490
H1771	H177	0.294400	0.350600	0.489700
C2671	C267	0.183960	0.325000	0.967140
C2681	C268	0.158260	0.513400	0.651770
C2691	C269	0.957070	0.665900	0.505510
H1781	H178	0.974600	0.661900	0.545400
C2701	C270	0.279800	0.301400	0.240710
H1791	H179	0.321900	0.325400	0.259800
C2711	C271	0.212300	0.461600	0.678440
H1801	H180	0.228500	0.431100	0.656700
C2721	C272	0.982270	0.142200	0.919110
H1811	H181	0.002000	0.165200	0.897000
C2731	C273	0.190740	0.257300	0.152240
C2741	C274	0.161050	0.395300	0.384750
H1821	H182	0.138900	0.387900	0.345100
C2751	C275	0.049880	0.577300	0.505790
C2761	C276	0.253400	0.292600	0.181720
H1831	H183	0.277500	0.310200	0.161700
C2771	C277	0.156600	0.231900	0.184120
H1841	H184	0.114400	0.207900	0.166100
C2781	C278	0.186800	0.242900	0.243190
H1851	H185	0.163700	0.225800	0.264100
C2791	C279	0.241700	0.456100	0.737650
H1861	H186	0.277500	0.420500	0.755100
C2801	C280	0.898900	0.709400	0.474920
H1871	H187	0.877600	0.733400	0.495400
C2811	C281	0.012520	0.150100	0.978170
C2821	C282	0.158740	0.247600	0.088610
C2831	C283	0.155600	0.325400	0.907850
H1881	H188	0.116200	0.296900	0.886800
C2841	C284	0.133500	0.555500	0.685420
H1891	H189	0.095700	0.588300	0.668800
C2851	C285	0.922100	0.071700	0.979930
H1901	H190	0.901900	0.047200	0.001100
C2861	C286	0.989230	0.628000	0.475310
C2871	C287	0.167200	0.546700	0.744400
H1911	H191	0.151100	0.575800	0.766900
C2881	C288	0.186700	0.368900	0.880100
H1921	H192	0.166500	0.370100	0.840000
N851	N85	0.871250	0.719210	0.417620
N861	N86	0.222370	0.364400	0.412180
N871	N87	0.221200	0.499800	0.771800
N881	N88	0.074680	0.539000	0.473000
N891	N89	0.156270	0.481500	0.559840
N901	N90	0.074880	0.572500	0.563150
N911	N91	0.244710	0.409800	0.908040
N921	N92	0.247010	0.276700	0.271970
N931	N93	0.891730	0.064800	0.922120
N941	N94	0.097510	0.239800	0.973490
N951	N95	0.186990	0.287400	0.059330
N961	N96	0.104050	0.200700	0.064810
