data_QOFDIA03_clean_PM
_symmetry_space_group_name_H-M	'P1'
_cell_length_a	22.046600
_cell_length_b	16.425000
_cell_length_c	25.593100
_cell_angle_alpha	90.000000
_cell_angle_beta	115.293000
_cell_angle_gamma	90.000000
_symmetry_Int_Tables_number 1

loop_
_symmetry_equiv_pos_as_xyz
'x,y,z'

loop_
_atom_site_label
_atom_site_type_symbol
_atom_site_fract_x
_atom_site_fract_y
_atom_site_fract_z
Ag11	Ag1	0.844240	0.457670	0.367850
Ag21	Ag2	0.322850	0.252730	0.867210
C11	C1	0.777900	0.637600	0.009100
H11	H1	0.798800	0.633800	0.049200
C21	C2	0.123700	0.256900	0.502100
C31	C3	0.597700	0.470400	0.000600
C41	C4	0.060000	0.302200	0.469900
C51	C5	0.297700	0.084200	0.504600
H21	H2	0.320000	0.088600	0.544600
C61	C6	0.235100	0.064800	0.388200
H31	H3	0.213200	0.057800	0.348400
C71	C7	0.443900	0.343200	0.964400
H41	H4	0.424100	0.314800	0.984400
C81	C8	0.033100	0.311700	0.410900
H51	H5	0.054400	0.290000	0.389600
C91	C9	0.533100	0.426500	0.966700
C101	C10	0.503500	0.384000	0.996000
H61	H6	0.523000	0.382700	0.036200
C111	C11	0.682600	0.552000	0.006600
C121	C12	0.719900	0.651900	0.892000
H71	H7	0.699900	0.656000	0.851900
C131	C13	0.210000	0.226900	0.587800
C141	C14	0.679300	0.456100	0.181000
H81	H8	0.635400	0.438200	0.160900
C151	C15	0.680100	0.502100	0.087900
C161	C16	0.715400	0.601400	0.977400
C171	C17	0.026000	0.335600	0.499600
H91	H9	0.043100	0.330800	0.539600
C181	C18	0.243400	0.237400	0.651200
C191	C19	0.686000	0.609900	0.918400
H101	H10	0.643900	0.587700	0.896400
C201	C20	0.205400	0.172300	0.504800
C211	C21	0.235900	0.120900	0.474400
C221	C22	0.973300	0.354500	0.383700
H111	H11	0.956100	0.362600	0.344000
C231	C23	0.967000	0.375600	0.469100
H121	H12	0.944700	0.397800	0.489500
C241	C24	0.325700	0.041000	0.474100
H131	H13	0.367900	0.018000	0.494400
C251	C25	0.808000	0.679400	0.979000
H141	H14	0.849700	0.703300	0.000100
C261	C26	0.203800	0.110100	0.415100
H151	H15	0.161800	0.133000	0.393600
C271	C27	0.712300	0.492400	0.151700
C281	C28	0.807500	0.504700	0.242500
H161	H16	0.851800	0.521000	0.263400
C291	C29	0.502100	0.427200	0.906900
H171	H17	0.520200	0.456500	0.885900
C301	C30	0.443900	0.383400	0.879500
H181	H18	0.424200	0.382200	0.839300
C311	C31	0.778200	0.516900	0.183200
H191	H19	0.802300	0.540900	0.164900
C321	C32	0.328400	0.207500	0.744100
H201	H20	0.367900	0.180200	0.766800
C331	C33	0.215700	0.289300	0.678000
H211	H21	0.177400	0.319500	0.656300
C341	C34	0.302300	0.197300	0.685000
H221	H22	0.323700	0.164500	0.668400
C351	C35	0.245900	0.295000	0.737000
H231	H23	0.226900	0.329900	0.754600
C361	C36	0.711800	0.446500	0.240200
H241	H24	0.688800	0.422300	0.259300
N11	N1	0.939400	0.384800	0.411990
N21	N2	0.295400	0.030500	0.416710
N31	N3	0.300600	0.253900	0.770700
N41	N4	0.153200	0.267900	0.559160
N51	N5	0.147900	0.210300	0.472150
N61	N6	0.238200	0.177700	0.562750
N71	N7	0.413600	0.342300	0.907080
N81	N8	0.780100	0.687100	0.921420
N91	N9	0.775900	0.471100	0.271500
N101	N10	0.622800	0.462700	0.058600
N111	N11	0.626200	0.511600	0.972940
N121	N12	0.711400	0.549600	0.064460
Ag31	Ag3	0.344240	0.957670	0.367840
Ag41	Ag4	0.822850	0.752730	0.867210
C371	C37	0.277900	0.137600	0.009100
H251	H25	0.298800	0.133800	0.049200
C381	C38	0.623700	0.756900	0.502100
C391	C39	0.097700	0.970400	0.000600
C401	C40	0.560000	0.802200	0.469900
C411	C41	0.797700	0.584200	0.504600
H261	H26	0.820000	0.588600	0.544600
C421	C42	0.735100	0.564800	0.388200
H271	H27	0.713200	0.557800	0.348400
C431	C43	0.943900	0.843200	0.964400
H281	H28	0.924100	0.814800	0.984400
C441	C44	0.533100	0.811700	0.410900
H291	H29	0.554400	0.790000	0.389600
C451	C45	0.033100	0.926500	0.966700
C461	C46	0.003500	0.884000	0.996000
H301	H30	0.023000	0.882700	0.036200
C471	C47	0.182600	0.052000	0.006600
C481	C48	0.219900	0.151900	0.892000
H311	H31	0.199900	0.156000	0.851900
C491	C49	0.710000	0.726900	0.587800
C501	C50	0.179300	0.956100	0.181000
H321	H32	0.135400	0.938200	0.160900
C511	C51	0.180100	0.002100	0.087900
C521	C52	0.215400	0.101400	0.977400
C531	C53	0.526000	0.835600	0.499600
H331	H33	0.543100	0.830800	0.539600
C541	C54	0.743400	0.737400	0.651200
C551	C55	0.186000	0.109900	0.918400
H341	H34	0.143900	0.087700	0.896400
C561	C56	0.705400	0.672300	0.504800
C571	C57	0.735900	0.620900	0.474400
C581	C58	0.473300	0.854500	0.383700
H351	H35	0.456100	0.862600	0.344000
C591	C59	0.467000	0.875600	0.469100
H361	H36	0.444700	0.897800	0.489500
C601	C60	0.825700	0.541000	0.474100
H371	H37	0.867900	0.518000	0.494400
C611	C61	0.308000	0.179400	0.979000
H381	H38	0.349700	0.203300	0.000100
C621	C62	0.703800	0.610100	0.415100
H391	H39	0.661800	0.633000	0.393600
C631	C63	0.212300	0.992400	0.151700
C641	C64	0.307500	0.004700	0.242500
H401	H40	0.351800	0.021000	0.263400
C651	C65	0.002100	0.927200	0.906900
H411	H41	0.020200	0.956500	0.885900
C661	C66	0.943900	0.883400	0.879500
H421	H42	0.924200	0.882200	0.839300
C671	C67	0.278200	0.016900	0.183200
H431	H43	0.302300	0.040900	0.164900
C681	C68	0.828400	0.707500	0.744100
H441	H44	0.867900	0.680200	0.766800
C691	C69	0.715700	0.789300	0.678000
H451	H45	0.677400	0.819500	0.656300
C701	C70	0.802300	0.697300	0.685000
H461	H46	0.823700	0.664500	0.668400
C711	C71	0.745900	0.795000	0.737000
H471	H47	0.726900	0.829900	0.754600
C721	C72	0.211800	0.946500	0.240200
H481	H48	0.188800	0.922300	0.259300
N131	N13	0.439400	0.884800	0.411990
N141	N14	0.795400	0.530500	0.416710
N151	N15	0.800600	0.753900	0.770700
N161	N16	0.653200	0.767900	0.559160
N171	N17	0.647900	0.710300	0.472150
N181	N18	0.738200	0.677700	0.562750
N191	N19	0.913600	0.842300	0.907080
N201	N20	0.280100	0.187100	0.921420
N211	N21	0.275900	0.971100	0.271500
N221	N22	0.122800	0.962700	0.058600
N231	N23	0.126200	0.011600	0.972940
N241	N24	0.211400	0.049600	0.064460
Ag51	Ag5	0.155760	0.457670	0.132160
Ag61	Ag6	0.677150	0.252730	0.632790
C731	C73	0.222100	0.637600	0.490900
H491	H49	0.201200	0.633800	0.450800
C741	C74	0.876300	0.256900	0.997900
C751	C75	0.402300	0.470400	0.499400
C761	C76	0.940000	0.302200	0.030100
C771	C77	0.702300	0.084200	0.995400
H501	H50	0.680000	0.088600	0.955400
C781	C78	0.764900	0.064800	0.111800
H511	H51	0.786800	0.057800	0.151600
C791	C79	0.556100	0.343200	0.535600
H521	H52	0.575900	0.314800	0.515600
C801	C80	0.966900	0.311700	0.089100
H531	H53	0.945600	0.290000	0.110400
C811	C81	0.466900	0.426500	0.533300
C821	C82	0.496500	0.384000	0.504000
H541	H54	0.477000	0.382700	0.463800
C831	C83	0.317400	0.552000	0.493400
C841	C84	0.280100	0.651900	0.608000
H551	H55	0.300100	0.656000	0.648100
C851	C85	0.790000	0.226900	0.912200
C861	C86	0.320700	0.456100	0.319000
H561	H56	0.364600	0.438200	0.339100
C871	C87	0.319900	0.502100	0.412100
C881	C88	0.284600	0.601400	0.522600
C891	C89	0.974000	0.335600	0.000400
H571	H57	0.956900	0.330800	0.960400
C901	C90	0.756600	0.237400	0.848800
C911	C91	0.314000	0.609900	0.581600
H581	H58	0.356100	0.587700	0.603600
C921	C92	0.794600	0.172300	0.995200
C931	C93	0.764100	0.120900	0.025600
C941	C94	0.026700	0.354500	0.116300
H591	H59	0.043900	0.362600	0.156000
C951	C95	0.033000	0.375600	0.030900
H601	H60	0.055300	0.397800	0.010500
C961	C96	0.674300	0.041000	0.025900
H611	H61	0.632100	0.018000	0.005600
C971	C97	0.192000	0.679400	0.521000
H621	H62	0.150300	0.703300	0.499900
C981	C98	0.796200	0.110100	0.084900
H631	H63	0.838200	0.133000	0.106400
C991	C99	0.287700	0.492400	0.348300
C1001	C100	0.192500	0.504700	0.257500
H641	H64	0.148200	0.521000	0.236600
C1011	C101	0.497900	0.427200	0.593100
H651	H65	0.479800	0.456500	0.614100
C1021	C102	0.556100	0.383400	0.620500
H661	H66	0.575800	0.382200	0.660700
C1031	C103	0.221800	0.516900	0.316800
H671	H67	0.197700	0.540900	0.335100
C1041	C104	0.671600	0.207500	0.755900
H681	H68	0.632100	0.180200	0.733200
C1051	C105	0.784300	0.289300	0.822000
H691	H69	0.822600	0.319500	0.843700
C1061	C106	0.697700	0.197300	0.815000
H701	H70	0.676300	0.164500	0.831600
C1071	C107	0.754100	0.295000	0.763000
H711	H71	0.773100	0.329900	0.745400
C1081	C108	0.288200	0.446500	0.259800
H721	H72	0.311200	0.422300	0.240700
N251	N25	0.060600	0.384800	0.088010
N261	N26	0.704600	0.030500	0.083290
N271	N27	0.699400	0.253900	0.729300
N281	N28	0.846800	0.267900	0.940840
N291	N29	0.852100	0.210300	0.027850
N301	N30	0.761800	0.177700	0.937250
N311	N31	0.586400	0.342300	0.592920
N321	N32	0.219900	0.687100	0.578580
N331	N33	0.224100	0.471100	0.228500
N341	N34	0.377200	0.462700	0.441400
N351	N35	0.373800	0.511600	0.527060
N361	N36	0.288600	0.549600	0.435540
Ag71	Ag7	0.655760	0.957670	0.132160
Ag81	Ag8	0.177150	0.752730	0.632790
C1091	C109	0.722100	0.137600	0.490900
H731	H73	0.701200	0.133800	0.450800
C1101	C110	0.376300	0.756900	0.997900
C1111	C111	0.902300	0.970400	0.499400
C1121	C112	0.440000	0.802200	0.030100
C1131	C113	0.202300	0.584200	0.995400
H741	H74	0.180000	0.588600	0.955400
C1141	C114	0.264900	0.564800	0.111800
H751	H75	0.286800	0.557800	0.151600
C1151	C115	0.056100	0.843200	0.535600
H761	H76	0.075900	0.814800	0.515600
C1161	C116	0.466900	0.811700	0.089100
H771	H77	0.445600	0.790000	0.110400
C1171	C117	0.966900	0.926500	0.533300
C1181	C118	0.996500	0.884000	0.504000
H781	H78	0.977000	0.882700	0.463800
C1191	C119	0.817400	0.052000	0.493400
C1201	C120	0.780100	0.151900	0.608000
H791	H79	0.800100	0.156000	0.648100
C1211	C121	0.290000	0.726900	0.912200
C1221	C122	0.820700	0.956100	0.319000
H801	H80	0.864600	0.938200	0.339100
C1231	C123	0.819900	0.002100	0.412100
C1241	C124	0.784600	0.101400	0.522600
C1251	C125	0.474000	0.835600	0.000400
H811	H81	0.456900	0.830800	0.960400
C1261	C126	0.256600	0.737400	0.848800
C1271	C127	0.814000	0.109900	0.581600
H821	H82	0.856100	0.087700	0.603600
C1281	C128	0.294600	0.672300	0.995200
C1291	C129	0.264100	0.620900	0.025600
C1301	C130	0.526700	0.854500	0.116300
H831	H83	0.543900	0.862600	0.156000
C1311	C131	0.533000	0.875600	0.030900
H841	H84	0.555300	0.897800	0.010500
C1321	C132	0.174300	0.541000	0.025900
H851	H85	0.132100	0.518000	0.005600
C1331	C133	0.692000	0.179400	0.521000
H861	H86	0.650300	0.203300	0.499900
C1341	C134	0.296200	0.610100	0.084900
H871	H87	0.338200	0.633000	0.106400
C1351	C135	0.787700	0.992400	0.348300
C1361	C136	0.692500	0.004700	0.257500
H881	H88	0.648200	0.021000	0.236600
C1371	C137	0.997900	0.927200	0.593100
H891	H89	0.979800	0.956500	0.614100
C1381	C138	0.056100	0.883400	0.620500
H901	H90	0.075800	0.882200	0.660700
C1391	C139	0.721800	0.016900	0.316800
H911	H91	0.697700	0.040900	0.335100
C1401	C140	0.171600	0.707500	0.755900
H921	H92	0.132100	0.680200	0.733200
C1411	C141	0.284300	0.789300	0.822000
H931	H93	0.322600	0.819500	0.843700
C1421	C142	0.197700	0.697300	0.815000
H941	H94	0.176300	0.664500	0.831600
C1431	C143	0.254100	0.795000	0.763000
H951	H95	0.273100	0.829900	0.745400
C1441	C144	0.788200	0.946500	0.259800
H961	H96	0.811200	0.922300	0.240700
N371	N37	0.560600	0.884800	0.088010
N381	N38	0.204600	0.530500	0.083290
N391	N39	0.199400	0.753900	0.729300
N401	N40	0.346800	0.767900	0.940840
N411	N41	0.352100	0.710300	0.027850
N421	N42	0.261800	0.677700	0.937250
N431	N43	0.086400	0.842300	0.592920
N441	N44	0.719900	0.187100	0.578580
N451	N45	0.724100	0.971100	0.228500
N461	N46	0.877200	0.962700	0.441400
N471	N47	0.873800	0.011600	0.527060
N481	N48	0.788600	0.049600	0.435540
Ag91	Ag9	0.155760	0.542330	0.632160
Ag101	Ag10	0.677150	0.747270	0.132790
C1451	C145	0.222100	0.362400	0.990900
H971	H97	0.201200	0.366200	0.950800
C1461	C146	0.876300	0.743100	0.497900
C1471	C147	0.402300	0.529600	0.999400
C1481	C148	0.940000	0.697800	0.530100
C1491	C149	0.702300	0.915800	0.495400
H981	H98	0.680000	0.911400	0.455400
C1501	C150	0.764900	0.935200	0.611800
H991	H99	0.786800	0.942200	0.651600
C1511	C151	0.556100	0.656800	0.035600
H1001	H100	0.575900	0.685200	0.015600
C1521	C152	0.966900	0.688300	0.589100
H1011	H101	0.945600	0.710000	0.610400
C1531	C153	0.466900	0.573500	0.033300
C1541	C154	0.496500	0.616000	0.004000
H1021	H102	0.477000	0.617300	0.963800
C1551	C155	0.317400	0.448000	0.993400
C1561	C156	0.280100	0.348100	0.108000
H1031	H103	0.300100	0.344000	0.148100
C1571	C157	0.790000	0.773100	0.412200
C1581	C158	0.320700	0.543900	0.819000
H1041	H104	0.364600	0.561800	0.839100
C1591	C159	0.319900	0.497900	0.912100
C1601	C160	0.284600	0.398600	0.022600
C1611	C161	0.974000	0.664400	0.500400
H1051	H105	0.956900	0.669200	0.460400
C1621	C162	0.756600	0.762600	0.348800
C1631	C163	0.314000	0.390100	0.081600
H1061	H106	0.356100	0.412300	0.103600
C1641	C164	0.794600	0.827700	0.495200
C1651	C165	0.764100	0.879100	0.525600
C1661	C166	0.026700	0.645500	0.616300
H1071	H107	0.043900	0.637400	0.656000
C1671	C167	0.033000	0.624400	0.530900
H1081	H108	0.055300	0.602200	0.510500
C1681	C168	0.674300	0.959000	0.525900
H1091	H109	0.632100	0.982000	0.505600
C1691	C169	0.192000	0.320600	0.021000
H1101	H110	0.150300	0.296700	0.999900
C1701	C170	0.796200	0.889900	0.584900
H1111	H111	0.838200	0.867000	0.606400
C1711	C171	0.287700	0.507600	0.848300
C1721	C172	0.192500	0.495300	0.757500
H1121	H112	0.148200	0.479000	0.736600
C1731	C173	0.497900	0.572800	0.093100
H1131	H113	0.479800	0.543500	0.114100
C1741	C174	0.556100	0.616600	0.120500
H1141	H114	0.575800	0.617800	0.160700
C1751	C175	0.221800	0.483100	0.816800
H1151	H115	0.197700	0.459100	0.835100
C1761	C176	0.671600	0.792500	0.255900
H1161	H116	0.632100	0.819800	0.233200
C1771	C177	0.784300	0.710700	0.322000
H1171	H117	0.822600	0.680500	0.343700
C1781	C178	0.697700	0.802700	0.315000
H1181	H118	0.676300	0.835500	0.331600
C1791	C179	0.754100	0.705000	0.263000
H1191	H119	0.773100	0.670100	0.245400
C1801	C180	0.288200	0.553500	0.759800
H1201	H120	0.311200	0.577700	0.740700
N491	N49	0.060600	0.615200	0.588010
N501	N50	0.704600	0.969500	0.583290
N511	N51	0.699400	0.746100	0.229300
N521	N52	0.846800	0.732100	0.440840
N531	N53	0.852100	0.789700	0.527850
N541	N54	0.761800	0.822300	0.437250
N551	N55	0.586400	0.657700	0.092920
N561	N56	0.219900	0.312900	0.078580
N571	N57	0.224100	0.528900	0.728500
N581	N58	0.377200	0.537300	0.941400
N591	N59	0.373800	0.488400	0.027060
N601	N60	0.288600	0.450400	0.935540
Ag111	Ag11	0.655760	0.042330	0.632160
Ag121	Ag12	0.177150	0.247270	0.132790
C1811	C181	0.722100	0.862400	0.990900
H1211	H121	0.701200	0.866200	0.950800
C1821	C182	0.376300	0.243100	0.497900
C1831	C183	0.902300	0.029600	0.999400
C1841	C184	0.440000	0.197800	0.530100
C1851	C185	0.202300	0.415800	0.495400
H1221	H122	0.180000	0.411400	0.455400
C1861	C186	0.264900	0.435200	0.611800
H1231	H123	0.286800	0.442200	0.651600
C1871	C187	0.056100	0.156800	0.035600
H1241	H124	0.075900	0.185200	0.015600
C1881	C188	0.466900	0.188300	0.589100
H1251	H125	0.445600	0.210000	0.610400
C1891	C189	0.966900	0.073500	0.033300
C1901	C190	0.996500	0.116000	0.004000
H1261	H126	0.977000	0.117300	0.963800
C1911	C191	0.817400	0.948000	0.993400
C1921	C192	0.780100	0.848100	0.108000
H1271	H127	0.800100	0.844000	0.148100
C1931	C193	0.290000	0.273100	0.412200
C1941	C194	0.820700	0.043900	0.819000
H1281	H128	0.864600	0.061800	0.839100
C1951	C195	0.819900	0.997900	0.912100
C1961	C196	0.784600	0.898600	0.022600
C1971	C197	0.474000	0.164400	0.500400
H1291	H129	0.456900	0.169200	0.460400
C1981	C198	0.256600	0.262600	0.348800
C1991	C199	0.814000	0.890100	0.081600
H1301	H130	0.856100	0.912300	0.103600
C2001	C200	0.294600	0.327700	0.495200
C2011	C201	0.264100	0.379100	0.525600
C2021	C202	0.526700	0.145500	0.616300
H1311	H131	0.543900	0.137400	0.656000
C2031	C203	0.533000	0.124400	0.530900
H1321	H132	0.555300	0.102200	0.510500
C2041	C204	0.174300	0.459000	0.525900
H1331	H133	0.132100	0.482000	0.505600
C2051	C205	0.692000	0.820600	0.021000
H1341	H134	0.650300	0.796700	0.999900
C2061	C206	0.296200	0.389900	0.584900
H1351	H135	0.338200	0.367000	0.606400
C2071	C207	0.787700	0.007600	0.848300
C2081	C208	0.692500	0.995300	0.757500
H1361	H136	0.648200	0.979000	0.736600
C2091	C209	0.997900	0.072800	0.093100
H1371	H137	0.979800	0.043500	0.114100
C2101	C210	0.056100	0.116600	0.120500
H1381	H138	0.075800	0.117800	0.160700
C2111	C211	0.721800	0.983100	0.816800
H1391	H139	0.697700	0.959100	0.835100
C2121	C212	0.171600	0.292500	0.255900
H1401	H140	0.132100	0.319800	0.233200
C2131	C213	0.284300	0.210700	0.322000
H1411	H141	0.322600	0.180500	0.343700
C2141	C214	0.197700	0.302700	0.315000
H1421	H142	0.176300	0.335500	0.331600
C2151	C215	0.254100	0.205000	0.263000
H1431	H143	0.273100	0.170100	0.245400
C2161	C216	0.788200	0.053500	0.759800
H1441	H144	0.811200	0.077700	0.740700
N611	N61	0.560600	0.115200	0.588010
N621	N62	0.204600	0.469500	0.583290
N631	N63	0.199400	0.246100	0.229300
N641	N64	0.346800	0.232100	0.440840
N651	N65	0.352100	0.289700	0.527850
N661	N66	0.261800	0.322300	0.437250
N671	N67	0.086400	0.157700	0.092920
N681	N68	0.719900	0.812900	0.078580
N691	N69	0.724100	0.028900	0.728500
N701	N70	0.877200	0.037300	0.941400
N711	N71	0.873800	0.988400	0.027060
N721	N72	0.788600	0.950400	0.935540
Ag131	Ag13	0.844240	0.542330	0.867850
Ag141	Ag14	0.322850	0.747270	0.367210
C2171	C217	0.777900	0.362400	0.509100
H1451	H145	0.798800	0.366200	0.549200
C2181	C218	0.123700	0.743100	0.002100
C2191	C219	0.597700	0.529600	0.500600
C2201	C220	0.060000	0.697800	0.969900
C2211	C221	0.297700	0.915800	0.004600
H1461	H146	0.320000	0.911400	0.044600
C2221	C222	0.235100	0.935200	0.888200
H1471	H147	0.213200	0.942200	0.848400
C2231	C223	0.443900	0.656800	0.464400
H1481	H148	0.424100	0.685200	0.484400
C2241	C224	0.033100	0.688300	0.910900
H1491	H149	0.054400	0.710000	0.889600
C2251	C225	0.533100	0.573500	0.466700
C2261	C226	0.503500	0.616000	0.496000
H1501	H150	0.523000	0.617300	0.536200
C2271	C227	0.682600	0.448000	0.506600
C2281	C228	0.719900	0.348100	0.392000
H1511	H151	0.699900	0.344000	0.351900
C2291	C229	0.210000	0.773100	0.087800
C2301	C230	0.679300	0.543900	0.681000
H1521	H152	0.635400	0.561800	0.660900
C2311	C231	0.680100	0.497900	0.587900
C2321	C232	0.715400	0.398600	0.477400
C2331	C233	0.026000	0.664400	0.999600
H1531	H153	0.043100	0.669200	0.039600
C2341	C234	0.243400	0.762600	0.151200
C2351	C235	0.686000	0.390100	0.418400
H1541	H154	0.643900	0.412300	0.396400
C2361	C236	0.205400	0.827700	0.004800
C2371	C237	0.235900	0.879100	0.974400
C2381	C238	0.973300	0.645500	0.883700
H1551	H155	0.956100	0.637400	0.844000
C2391	C239	0.967000	0.624400	0.969100
H1561	H156	0.944700	0.602200	0.989500
C2401	C240	0.325700	0.959000	0.974100
H1571	H157	0.367900	0.982000	0.994400
C2411	C241	0.808000	0.320600	0.479000
H1581	H158	0.849700	0.296700	0.500100
C2421	C242	0.203800	0.889900	0.915100
H1591	H159	0.161800	0.867000	0.893600
C2431	C243	0.712300	0.507600	0.651700
C2441	C244	0.807500	0.495300	0.742500
H1601	H160	0.851800	0.479000	0.763400
C2451	C245	0.502100	0.572800	0.406900
H1611	H161	0.520200	0.543500	0.385900
C2461	C246	0.443900	0.616600	0.379500
H1621	H162	0.424200	0.617800	0.339300
C2471	C247	0.778200	0.483100	0.683200
H1631	H163	0.802300	0.459100	0.664900
C2481	C248	0.328400	0.792500	0.244100
H1641	H164	0.367900	0.819800	0.266800
C2491	C249	0.215700	0.710700	0.178000
H1651	H165	0.177400	0.680500	0.156300
C2501	C250	0.302300	0.802700	0.185000
H1661	H166	0.323700	0.835500	0.168400
C2511	C251	0.245900	0.705000	0.237000
H1671	H167	0.226900	0.670100	0.254600
C2521	C252	0.711800	0.553500	0.740200
H1681	H168	0.688800	0.577700	0.759300
N731	N73	0.939400	0.615200	0.911990
N741	N74	0.295400	0.969500	0.916710
N751	N75	0.300600	0.746100	0.270700
N761	N76	0.153200	0.732100	0.059160
N771	N77	0.147900	0.789700	0.972150
N781	N78	0.238200	0.822300	0.062750
N791	N79	0.413600	0.657700	0.407080
N801	N80	0.780100	0.312900	0.421420
N811	N81	0.775900	0.528900	0.771500
N821	N82	0.622800	0.537300	0.558600
N831	N83	0.626200	0.488400	0.472940
N841	N84	0.711400	0.450400	0.564460
Ag151	Ag15	0.344240	0.042330	0.867850
Ag161	Ag16	0.822850	0.247270	0.367210
C2531	C253	0.277900	0.862400	0.509100
H1691	H169	0.298800	0.866200	0.549200
C2541	C254	0.623700	0.243100	0.002100
C2551	C255	0.097700	0.029600	0.500600
C2561	C256	0.560000	0.197800	0.969900
C2571	C257	0.797700	0.415800	0.004600
H1701	H170	0.820000	0.411400	0.044600
C2581	C258	0.735100	0.435200	0.888200
H1711	H171	0.713200	0.442200	0.848400
C2591	C259	0.943900	0.156800	0.464400
H1721	H172	0.924100	0.185200	0.484400
C2601	C260	0.533100	0.188300	0.910900
H1731	H173	0.554400	0.210000	0.889600
C2611	C261	0.033100	0.073500	0.466700
C2621	C262	0.003500	0.116000	0.496000
H1741	H174	0.023000	0.117300	0.536200
C2631	C263	0.182600	0.948000	0.506600
C2641	C264	0.219900	0.848100	0.392000
H1751	H175	0.199900	0.844000	0.351900
C2651	C265	0.710000	0.273100	0.087800
C2661	C266	0.179300	0.043900	0.681000
H1761	H176	0.135400	0.061800	0.660900
C2671	C267	0.180100	0.997900	0.587900
C2681	C268	0.215400	0.898600	0.477400
C2691	C269	0.526000	0.164400	0.999600
H1771	H177	0.543100	0.169200	0.039600
C2701	C270	0.743400	0.262600	0.151200
C2711	C271	0.186000	0.890100	0.418400
H1781	H178	0.143900	0.912300	0.396400
C2721	C272	0.705400	0.327700	0.004800
C2731	C273	0.735900	0.379100	0.974400
C2741	C274	0.473300	0.145500	0.883700
H1791	H179	0.456100	0.137400	0.844000
C2751	C275	0.467000	0.124400	0.969100
H1801	H180	0.444700	0.102200	0.989500
C2761	C276	0.825700	0.459000	0.974100
H1811	H181	0.867900	0.482000	0.994400
C2771	C277	0.308000	0.820600	0.479000
H1821	H182	0.349700	0.796700	0.500100
C2781	C278	0.703800	0.389900	0.915100
H1831	H183	0.661800	0.367000	0.893600
C2791	C279	0.212300	0.007600	0.651700
C2801	C280	0.307500	0.995300	0.742500
H1841	H184	0.351800	0.979000	0.763400
C2811	C281	0.002100	0.072800	0.406900
H1851	H185	0.020200	0.043500	0.385900
C2821	C282	0.943900	0.116600	0.379500
H1861	H186	0.924200	0.117800	0.339300
C2831	C283	0.278200	0.983100	0.683200
H1871	H187	0.302300	0.959100	0.664900
C2841	C284	0.828400	0.292500	0.244100
H1881	H188	0.867900	0.319800	0.266800
C2851	C285	0.715700	0.210700	0.178000
H1891	H189	0.677400	0.180500	0.156300
C2861	C286	0.802300	0.302700	0.185000
H1901	H190	0.823700	0.335500	0.168400
C2871	C287	0.745900	0.205000	0.237000
H1911	H191	0.726900	0.170100	0.254600
C2881	C288	0.211800	0.053500	0.740200
H1921	H192	0.188800	0.077700	0.759300
N851	N85	0.439400	0.115200	0.911990
N861	N86	0.795400	0.469500	0.916710
N871	N87	0.800600	0.246100	0.270700
N881	N88	0.653200	0.232100	0.059160
N891	N89	0.647900	0.289700	0.972150
N901	N90	0.738200	0.322300	0.062750
N911	N91	0.913600	0.157700	0.407080
N921	N92	0.280100	0.812900	0.421420
N931	N93	0.275900	0.028900	0.771500
N941	N94	0.122800	0.037300	0.558600
N951	N95	0.126200	0.988400	0.472940
N961	N96	0.211400	0.950400	0.564460
