data_QOFDAS_clean_PM
_symmetry_space_group_name_H-M	'P1'
_cell_length_a	21.984800
_cell_length_b	16.561700
_cell_length_c	25.644300
_cell_angle_alpha	90.000000
_cell_angle_beta	115.366000
_cell_angle_gamma	90.000000
_symmetry_Int_Tables_number 1

loop_
_symmetry_equiv_pos_as_xyz
'x,y,z'

loop_
_atom_site_label
_atom_site_type_symbol
_atom_site_fract_x
_atom_site_fract_y
_atom_site_fract_z
Ag11	Ag1	0.273900	0.208970	0.868250
Ag21	Ag2	0.795000	0.501320	0.367690
C11	C1	0.627800	0.476000	0.087820
C21	C2	0.422700	0.900400	0.392600
H11	H1	0.402900	0.905000	0.352600
C31	C3	0.653800	0.719700	0.501290
C41	C4	0.628000	0.561600	0.911300
H21	H2	0.585500	0.539800	0.890000
C51	C5	0.628000	0.507000	0.002440
C61	C6	0.482100	0.887200	0.509400
H31	H3	0.501400	0.884200	0.549500
C71	C7	0.403100	0.316900	0.889200
H41	H4	0.384600	0.311300	0.849300
C81	C8	0.743400	0.633500	0.496290
H51	H5	0.763900	0.633000	0.536400
C91	C9	0.575300	0.800700	0.507200
C101	C10	0.659900	0.552300	0.970320
C111	C11	0.722900	0.586500	0.999400
H61	H6	0.745500	0.582100	0.039400
C121	C12	0.771900	0.592700	0.465600
H71	H7	0.812200	0.565400	0.485800
C131	C13	0.751700	0.626600	0.969200
H81	H8	0.794200	0.649000	0.989600
C141	C14	0.457300	0.334100	0.005600
H91	H9	0.475000	0.338000	0.045600
C151	C15	0.658300	0.486200	0.151800
C161	C16	0.460900	0.361000	0.915600
H101	H10	0.481300	0.383600	0.893900
C171	C17	0.683700	0.675100	0.466860
C181	C18	0.690200	0.742600	0.651900
C191	C19	0.482300	0.857600	0.418650
H111	H11	0.501600	0.834100	0.396400
C201	C20	0.549800	0.422800	0.005650
C211	C21	0.779300	0.698700	0.740300
H121	H12	0.821500	0.675000	0.759400
C221	C22	0.752700	0.707000	0.681100
H131	H13	0.776700	0.688900	0.661000
C231	C23	0.661000	0.604200	0.884400
H141	H14	0.638800	0.611200	0.844600
C241	C24	0.656500	0.768000	0.684100
H151	H15	0.614200	0.791800	0.666200
C251	C25	0.712200	0.538000	0.178300
H161	H16	0.728400	0.568600	0.156600
C261	C26	0.686900	0.757300	0.742900
H171	H17	0.664000	0.775000	0.764000
C271	C27	0.398900	0.290600	0.974700
H181	H18	0.377600	0.266400	0.995100
C281	C28	0.658300	0.752200	0.587900
C291	C29	0.741400	0.543400	0.237700
H191	H19	0.777300	0.578800	0.255300
C301	C30	0.512700	0.850200	0.477970
C311	C31	0.655600	0.674600	0.407500
H201	H20	0.616300	0.703300	0.386400
C321	C32	0.489100	0.372000	0.975110
C331	C33	0.633500	0.445000	0.185300
H211	H21	0.595300	0.412700	0.168700
C341	C34	0.422300	0.928600	0.479700
H221	H22	0.402100	0.953000	0.501000
C351	C35	0.667500	0.453500	0.244500
H231	H23	0.651800	0.424300	0.267100
C361	C36	0.686400	0.631200	0.379900
H241	H24	0.666000	0.629900	0.339800
N11	N1	0.371540	0.281300	0.917670
N21	N2	0.722090	0.635600	0.911840
N31	N3	0.720900	0.500300	0.271430
N41	N4	0.574740	0.461000	0.972880
N51	N5	0.656280	0.518200	0.059680
N61	N6	0.575040	0.427500	0.063150
N71	N7	0.744110	0.590500	0.407490
N81	N8	0.746800	0.723400	0.771590
N91	N9	0.392000	0.935500	0.422180
N101	N10	0.597610	0.760400	0.473290
N111	N11	0.686820	0.712400	0.558940
N121	N12	0.604150	0.798900	0.564590
Ag31	Ag3	0.773900	0.708970	0.868250
Ag41	Ag4	0.295000	0.001320	0.367690
C371	C37	0.127800	0.976000	0.087820
C381	C38	0.922700	0.400400	0.392600
H251	H25	0.902900	0.405000	0.352600
C391	C39	0.153800	0.219700	0.501290
C401	C40	0.128000	0.061600	0.911300
H261	H26	0.085500	0.039800	0.890000
C411	C41	0.128000	0.007000	0.002440
C421	C42	0.982100	0.387200	0.509400
H271	H27	0.001400	0.384200	0.549500
C431	C43	0.903100	0.816900	0.889200
H281	H28	0.884600	0.811300	0.849300
C441	C44	0.243400	0.133500	0.496290
H291	H29	0.263900	0.133000	0.536400
C451	C45	0.075300	0.300700	0.507200
C461	C46	0.159900	0.052300	0.970320
C471	C47	0.222900	0.086500	0.999400
H301	H30	0.245500	0.082100	0.039400
C481	C48	0.271900	0.092700	0.465600
H311	H31	0.312200	0.065400	0.485800
C491	C49	0.251700	0.126600	0.969200
H321	H32	0.294200	0.149000	0.989600
C501	C50	0.957300	0.834100	0.005600
H331	H33	0.975000	0.838000	0.045600
C511	C51	0.158300	0.986200	0.151800
C521	C52	0.960900	0.861000	0.915600
H341	H34	0.981300	0.883600	0.893900
C531	C53	0.183700	0.175100	0.466860
C541	C54	0.190200	0.242600	0.651900
C551	C55	0.982300	0.357600	0.418650
H351	H35	0.001600	0.334100	0.396400
C561	C56	0.049800	0.922800	0.005650
C571	C57	0.279300	0.198700	0.740300
H361	H36	0.321500	0.175000	0.759400
C581	C58	0.252700	0.207000	0.681100
H371	H37	0.276700	0.188900	0.661000
C591	C59	0.161000	0.104200	0.884400
H381	H38	0.138800	0.111200	0.844600
C601	C60	0.156500	0.268000	0.684100
H391	H39	0.114200	0.291800	0.666200
C611	C61	0.212200	0.038000	0.178300
H401	H40	0.228400	0.068600	0.156600
C621	C62	0.186900	0.257300	0.742900
H411	H41	0.164000	0.275000	0.764000
C631	C63	0.898900	0.790600	0.974700
H421	H42	0.877600	0.766400	0.995100
C641	C64	0.158300	0.252200	0.587900
C651	C65	0.241400	0.043400	0.237700
H431	H43	0.277300	0.078800	0.255300
C661	C66	0.012700	0.350200	0.477970
C671	C67	0.155600	0.174600	0.407500
H441	H44	0.116300	0.203300	0.386400
C681	C68	0.989100	0.872000	0.975110
C691	C69	0.133500	0.945000	0.185300
H451	H45	0.095300	0.912700	0.168700
C701	C70	0.922300	0.428600	0.479700
H461	H46	0.902100	0.453000	0.501000
C711	C71	0.167500	0.953500	0.244500
H471	H47	0.151800	0.924300	0.267100
C721	C72	0.186400	0.131200	0.379900
H481	H48	0.166000	0.129900	0.339800
N131	N13	0.871540	0.781300	0.917670
N141	N14	0.222090	0.135600	0.911840
N151	N15	0.220900	0.000300	0.271430
N161	N16	0.074740	0.961000	0.972880
N171	N17	0.156280	0.018200	0.059680
N181	N18	0.075040	0.927500	0.063150
N191	N19	0.244110	0.090500	0.407490
N201	N20	0.246800	0.223400	0.771590
N211	N21	0.892000	0.435500	0.422180
N221	N22	0.097610	0.260400	0.473290
N231	N23	0.186820	0.212400	0.558940
N241	N24	0.104150	0.298900	0.564590
Ag51	Ag5	0.726100	0.208970	0.631750
Ag61	Ag6	0.205000	0.501320	0.132310
C731	C73	0.372200	0.476000	0.412180
C741	C74	0.577300	0.900400	0.107400
H491	H49	0.597100	0.905000	0.147400
C751	C75	0.346200	0.719700	0.998710
C761	C76	0.372000	0.561600	0.588700
H501	H50	0.414500	0.539800	0.610000
C771	C77	0.372000	0.507000	0.497560
C781	C78	0.517900	0.887200	0.990600
H511	H51	0.498600	0.884200	0.950500
C791	C79	0.596900	0.316900	0.610800
H521	H52	0.615400	0.311300	0.650700
C801	C80	0.256600	0.633500	0.003710
H531	H53	0.236100	0.633000	0.963600
C811	C81	0.424700	0.800700	0.992800
C821	C82	0.340100	0.552300	0.529680
C831	C83	0.277100	0.586500	0.500600
H541	H54	0.254500	0.582100	0.460600
C841	C84	0.228100	0.592700	0.034400
H551	H55	0.187800	0.565400	0.014200
C851	C85	0.248300	0.626600	0.530800
H561	H56	0.205800	0.649000	0.510400
C861	C86	0.542700	0.334100	0.494400
H571	H57	0.525000	0.338000	0.454400
C871	C87	0.341700	0.486200	0.348200
C881	C88	0.539100	0.361000	0.584400
H581	H58	0.518700	0.383600	0.606100
C891	C89	0.316300	0.675100	0.033140
C901	C90	0.309800	0.742600	0.848100
C911	C91	0.517700	0.857600	0.081350
H591	H59	0.498400	0.834100	0.103600
C921	C92	0.450200	0.422800	0.494350
C931	C93	0.220700	0.698700	0.759700
H601	H60	0.178500	0.675000	0.740600
C941	C94	0.247300	0.707000	0.818900
H611	H61	0.223300	0.688900	0.839000
C951	C95	0.339000	0.604200	0.615600
H621	H62	0.361200	0.611200	0.655400
C961	C96	0.343500	0.768000	0.815900
H631	H63	0.385800	0.791800	0.833800
C971	C97	0.287800	0.538000	0.321700
H641	H64	0.271600	0.568600	0.343400
C981	C98	0.313100	0.757300	0.757100
H651	H65	0.336000	0.775000	0.736000
C991	C99	0.601100	0.290600	0.525300
H661	H66	0.622400	0.266400	0.504900
C1001	C100	0.341700	0.752200	0.912100
C1011	C101	0.258600	0.543400	0.262300
H671	H67	0.222700	0.578800	0.244700
C1021	C102	0.487300	0.850200	0.022030
C1031	C103	0.344400	0.674600	0.092500
H681	H68	0.383700	0.703300	0.113600
C1041	C104	0.510900	0.372000	0.524890
C1051	C105	0.366500	0.445000	0.314700
H691	H69	0.404700	0.412700	0.331300
C1061	C106	0.577700	0.928600	0.020300
H701	H70	0.597900	0.953000	0.999000
C1071	C107	0.332500	0.453500	0.255500
H711	H71	0.348200	0.424300	0.232900
C1081	C108	0.313600	0.631200	0.120100
H721	H72	0.334000	0.629900	0.160200
N251	N25	0.628460	0.281300	0.582330
N261	N26	0.277910	0.635600	0.588160
N271	N27	0.279100	0.500300	0.228570
N281	N28	0.425260	0.461000	0.527120
N291	N29	0.343720	0.518200	0.440320
N301	N30	0.424960	0.427500	0.436850
N311	N31	0.255890	0.590500	0.092510
N321	N32	0.253200	0.723400	0.728410
N331	N33	0.608000	0.935500	0.077820
N341	N34	0.402390	0.760400	0.026710
N351	N35	0.313180	0.712400	0.941060
N361	N36	0.395850	0.798900	0.935410
Ag71	Ag7	0.226100	0.708970	0.631750
Ag81	Ag8	0.705000	0.001320	0.132310
C1091	C109	0.872200	0.976000	0.412180
C1101	C110	0.077300	0.400400	0.107400
H731	H73	0.097100	0.405000	0.147400
C1111	C111	0.846200	0.219700	0.998710
C1121	C112	0.872000	0.061600	0.588700
H741	H74	0.914500	0.039800	0.610000
C1131	C113	0.872000	0.007000	0.497560
C1141	C114	0.017900	0.387200	0.990600
H751	H75	0.998600	0.384200	0.950500
C1151	C115	0.096900	0.816900	0.610800
H761	H76	0.115400	0.811300	0.650700
C1161	C116	0.756600	0.133500	0.003710
H771	H77	0.736100	0.133000	0.963600
C1171	C117	0.924700	0.300700	0.992800
C1181	C118	0.840100	0.052300	0.529680
C1191	C119	0.777100	0.086500	0.500600
H781	H78	0.754500	0.082100	0.460600
C1201	C120	0.728100	0.092700	0.034400
H791	H79	0.687800	0.065400	0.014200
C1211	C121	0.748300	0.126600	0.530800
H801	H80	0.705800	0.149000	0.510400
C1221	C122	0.042700	0.834100	0.494400
H811	H81	0.025000	0.838000	0.454400
C1231	C123	0.841700	0.986200	0.348200
C1241	C124	0.039100	0.861000	0.584400
H821	H82	0.018700	0.883600	0.606100
C1251	C125	0.816300	0.175100	0.033140
C1261	C126	0.809800	0.242600	0.848100
C1271	C127	0.017700	0.357600	0.081350
H831	H83	0.998400	0.334100	0.103600
C1281	C128	0.950200	0.922800	0.494350
C1291	C129	0.720700	0.198700	0.759700
H841	H84	0.678500	0.175000	0.740600
C1301	C130	0.747300	0.207000	0.818900
H851	H85	0.723300	0.188900	0.839000
C1311	C131	0.839000	0.104200	0.615600
H861	H86	0.861200	0.111200	0.655400
C1321	C132	0.843500	0.268000	0.815900
H871	H87	0.885800	0.291800	0.833800
C1331	C133	0.787800	0.038000	0.321700
H881	H88	0.771600	0.068600	0.343400
C1341	C134	0.813100	0.257300	0.757100
H891	H89	0.836000	0.275000	0.736000
C1351	C135	0.101100	0.790600	0.525300
H901	H90	0.122400	0.766400	0.504900
C1361	C136	0.841700	0.252200	0.912100
C1371	C137	0.758600	0.043400	0.262300
H911	H91	0.722700	0.078800	0.244700
C1381	C138	0.987300	0.350200	0.022030
C1391	C139	0.844400	0.174600	0.092500
H921	H92	0.883700	0.203300	0.113600
C1401	C140	0.010900	0.872000	0.524890
C1411	C141	0.866500	0.945000	0.314700
H931	H93	0.904700	0.912700	0.331300
C1421	C142	0.077700	0.428600	0.020300
H941	H94	0.097900	0.453000	0.999000
C1431	C143	0.832500	0.953500	0.255500
H951	H95	0.848200	0.924300	0.232900
C1441	C144	0.813600	0.131200	0.120100
H961	H96	0.834000	0.129900	0.160200
N371	N37	0.128460	0.781300	0.582330
N381	N38	0.777910	0.135600	0.588160
N391	N39	0.779100	0.000300	0.228570
N401	N40	0.925260	0.961000	0.527120
N411	N41	0.843720	0.018200	0.440320
N421	N42	0.924960	0.927500	0.436850
N431	N43	0.755890	0.090500	0.092510
N441	N44	0.753200	0.223400	0.728410
N451	N45	0.108000	0.435500	0.077820
N461	N46	0.902390	0.260400	0.026710
N471	N47	0.813180	0.212400	0.941060
N481	N48	0.895850	0.298900	0.935410
Ag91	Ag9	0.726100	0.791030	0.131750
Ag101	Ag10	0.205000	0.498680	0.632310
C1451	C145	0.372200	0.524000	0.912180
C1461	C146	0.577300	0.099600	0.607400
H971	H97	0.597100	0.095000	0.647400
C1471	C147	0.346200	0.280300	0.498710
C1481	C148	0.372000	0.438400	0.088700
H981	H98	0.414500	0.460200	0.110000
C1491	C149	0.372000	0.493000	0.997560
C1501	C150	0.517900	0.112800	0.490600
H991	H99	0.498600	0.115800	0.450500
C1511	C151	0.596900	0.683100	0.110800
H1001	H100	0.615400	0.688700	0.150700
C1521	C152	0.256600	0.366500	0.503710
H1011	H101	0.236100	0.367000	0.463600
C1531	C153	0.424700	0.199300	0.492800
C1541	C154	0.340100	0.447700	0.029680
C1551	C155	0.277100	0.413500	0.000600
H1021	H102	0.254500	0.417900	0.960600
C1561	C156	0.228100	0.407300	0.534400
H1031	H103	0.187800	0.434600	0.514200
C1571	C157	0.248300	0.373400	0.030800
H1041	H104	0.205800	0.351000	0.010400
C1581	C158	0.542700	0.665900	0.994400
H1051	H105	0.525000	0.662000	0.954400
C1591	C159	0.341700	0.513800	0.848200
C1601	C160	0.539100	0.639000	0.084400
H1061	H106	0.518700	0.616400	0.106100
C1611	C161	0.316300	0.324900	0.533140
C1621	C162	0.309800	0.257400	0.348100
C1631	C163	0.517700	0.142400	0.581350
H1071	H107	0.498400	0.165900	0.603600
C1641	C164	0.450200	0.577200	0.994350
C1651	C165	0.220700	0.301300	0.259700
H1081	H108	0.178500	0.325000	0.240600
C1661	C166	0.247300	0.293000	0.318900
H1091	H109	0.223300	0.311100	0.339000
C1671	C167	0.339000	0.395800	0.115600
H1101	H110	0.361200	0.388800	0.155400
C1681	C168	0.343500	0.232000	0.315900
H1111	H111	0.385800	0.208200	0.333800
C1691	C169	0.287800	0.462000	0.821700
H1121	H112	0.271600	0.431400	0.843400
C1701	C170	0.313100	0.242700	0.257100
H1131	H113	0.336000	0.225000	0.236000
C1711	C171	0.601100	0.709400	0.025300
H1141	H114	0.622400	0.733600	0.004900
C1721	C172	0.341700	0.247800	0.412100
C1731	C173	0.258600	0.456600	0.762300
H1151	H115	0.222700	0.421200	0.744700
C1741	C174	0.487300	0.149800	0.522030
C1751	C175	0.344400	0.325400	0.592500
H1161	H116	0.383700	0.296700	0.613600
C1761	C176	0.510900	0.628000	0.024890
C1771	C177	0.366500	0.555000	0.814700
H1171	H117	0.404700	0.587300	0.831300
C1781	C178	0.577700	0.071400	0.520300
H1181	H118	0.597900	0.047000	0.499000
C1791	C179	0.332500	0.546500	0.755500
H1191	H119	0.348200	0.575700	0.732900
C1801	C180	0.313600	0.368800	0.620100
H1201	H120	0.334000	0.370100	0.660200
N491	N49	0.628460	0.718700	0.082330
N501	N50	0.277910	0.364400	0.088160
N511	N51	0.279100	0.499700	0.728570
N521	N52	0.425260	0.539000	0.027120
N531	N53	0.343720	0.481800	0.940320
N541	N54	0.424960	0.572500	0.936850
N551	N55	0.255890	0.409500	0.592510
N561	N56	0.253200	0.276600	0.228410
N571	N57	0.608000	0.064500	0.577820
N581	N58	0.402390	0.239600	0.526710
N591	N59	0.313180	0.287600	0.441060
N601	N60	0.395850	0.201100	0.435410
Ag111	Ag11	0.226100	0.291030	0.131750
Ag121	Ag12	0.705000	0.998680	0.632310
C1811	C181	0.872200	0.024000	0.912180
C1821	C182	0.077300	0.599600	0.607400
H1211	H121	0.097100	0.595000	0.647400
C1831	C183	0.846200	0.780300	0.498710
C1841	C184	0.872000	0.938400	0.088700
H1221	H122	0.914500	0.960200	0.110000
C1851	C185	0.872000	0.993000	0.997560
C1861	C186	0.017900	0.612800	0.490600
H1231	H123	0.998600	0.615800	0.450500
C1871	C187	0.096900	0.183100	0.110800
H1241	H124	0.115400	0.188700	0.150700
C1881	C188	0.756600	0.866500	0.503710
H1251	H125	0.736100	0.867000	0.463600
C1891	C189	0.924700	0.699300	0.492800
C1901	C190	0.840100	0.947700	0.029680
C1911	C191	0.777100	0.913500	0.000600
H1261	H126	0.754500	0.917900	0.960600
C1921	C192	0.728100	0.907300	0.534400
H1271	H127	0.687800	0.934600	0.514200
C1931	C193	0.748300	0.873400	0.030800
H1281	H128	0.705800	0.851000	0.010400
C1941	C194	0.042700	0.165900	0.994400
H1291	H129	0.025000	0.162000	0.954400
C1951	C195	0.841700	0.013800	0.848200
C1961	C196	0.039100	0.139000	0.084400
H1301	H130	0.018700	0.116400	0.106100
C1971	C197	0.816300	0.824900	0.533140
C1981	C198	0.809800	0.757400	0.348100
C1991	C199	0.017700	0.642400	0.581350
H1311	H131	0.998400	0.665900	0.603600
C2001	C200	0.950200	0.077200	0.994350
C2011	C201	0.720700	0.801300	0.259700
H1321	H132	0.678500	0.825000	0.240600
C2021	C202	0.747300	0.793000	0.318900
H1331	H133	0.723300	0.811100	0.339000
C2031	C203	0.839000	0.895800	0.115600
H1341	H134	0.861200	0.888800	0.155400
C2041	C204	0.843500	0.732000	0.315900
H1351	H135	0.885800	0.708200	0.333800
C2051	C205	0.787800	0.962000	0.821700
H1361	H136	0.771600	0.931400	0.843400
C2061	C206	0.813100	0.742700	0.257100
H1371	H137	0.836000	0.725000	0.236000
C2071	C207	0.101100	0.209400	0.025300
H1381	H138	0.122400	0.233600	0.004900
C2081	C208	0.841700	0.747800	0.412100
C2091	C209	0.758600	0.956600	0.762300
H1391	H139	0.722700	0.921200	0.744700
C2101	C210	0.987300	0.649800	0.522030
C2111	C211	0.844400	0.825400	0.592500
H1401	H140	0.883700	0.796700	0.613600
C2121	C212	0.010900	0.128000	0.024890
C2131	C213	0.866500	0.055000	0.814700
H1411	H141	0.904700	0.087300	0.831300
C2141	C214	0.077700	0.571400	0.520300
H1421	H142	0.097900	0.547000	0.499000
C2151	C215	0.832500	0.046500	0.755500
H1431	H143	0.848200	0.075700	0.732900
C2161	C216	0.813600	0.868800	0.620100
H1441	H144	0.834000	0.870100	0.660200
N611	N61	0.128460	0.218700	0.082330
N621	N62	0.777910	0.864400	0.088160
N631	N63	0.779100	0.999700	0.728570
N641	N64	0.925260	0.039000	0.027120
N651	N65	0.843720	0.981800	0.940320
N661	N66	0.924960	0.072500	0.936850
N671	N67	0.755890	0.909500	0.592510
N681	N68	0.753200	0.776600	0.228410
N691	N69	0.108000	0.564500	0.577820
N701	N70	0.902390	0.739600	0.526710
N711	N71	0.813180	0.787600	0.441060
N721	N72	0.895850	0.701100	0.435410
Ag131	Ag13	0.273900	0.791030	0.368250
Ag141	Ag14	0.795000	0.498680	0.867690
C2171	C217	0.627800	0.524000	0.587820
C2181	C218	0.422700	0.099600	0.892600
H1451	H145	0.402900	0.095000	0.852600
C2191	C219	0.653800	0.280300	0.001290
C2201	C220	0.628000	0.438400	0.411300
H1461	H146	0.585500	0.460200	0.390000
C2211	C221	0.628000	0.493000	0.502440
C2221	C222	0.482100	0.112800	0.009400
H1471	H147	0.501400	0.115800	0.049500
C2231	C223	0.403100	0.683100	0.389200
H1481	H148	0.384600	0.688700	0.349300
C2241	C224	0.743400	0.366500	0.996290
H1491	H149	0.763900	0.367000	0.036400
C2251	C225	0.575300	0.199300	0.007200
C2261	C226	0.659900	0.447700	0.470320
C2271	C227	0.722900	0.413500	0.499400
H1501	H150	0.745500	0.417900	0.539400
C2281	C228	0.771900	0.407300	0.965600
H1511	H151	0.812200	0.434600	0.985800
C2291	C229	0.751700	0.373400	0.469200
H1521	H152	0.794200	0.351000	0.489600
C2301	C230	0.457300	0.665900	0.505600
H1531	H153	0.475000	0.662000	0.545600
C2311	C231	0.658300	0.513800	0.651800
C2321	C232	0.460900	0.639000	0.415600
H1541	H154	0.481300	0.616400	0.393900
C2331	C233	0.683700	0.324900	0.966860
C2341	C234	0.690200	0.257400	0.151900
C2351	C235	0.482300	0.142400	0.918650
H1551	H155	0.501600	0.165900	0.896400
C2361	C236	0.549800	0.577200	0.505650
C2371	C237	0.779300	0.301300	0.240300
H1561	H156	0.821500	0.325000	0.259400
C2381	C238	0.752700	0.293000	0.181100
H1571	H157	0.776700	0.311100	0.161000
C2391	C239	0.661000	0.395800	0.384400
H1581	H158	0.638800	0.388800	0.344600
C2401	C240	0.656500	0.232000	0.184100
H1591	H159	0.614200	0.208200	0.166200
C2411	C241	0.712200	0.462000	0.678300
H1601	H160	0.728400	0.431400	0.656600
C2421	C242	0.686900	0.242700	0.242900
H1611	H161	0.664000	0.225000	0.264000
C2431	C243	0.398900	0.709400	0.474700
H1621	H162	0.377600	0.733600	0.495100
C2441	C244	0.658300	0.247800	0.087900
C2451	C245	0.741400	0.456600	0.737700
H1631	H163	0.777300	0.421200	0.755300
C2461	C246	0.512700	0.149800	0.977970
C2471	C247	0.655600	0.325400	0.907500
H1641	H164	0.616300	0.296700	0.886400
C2481	C248	0.489100	0.628000	0.475110
C2491	C249	0.633500	0.555000	0.685300
H1651	H165	0.595300	0.587300	0.668700
C2501	C250	0.422300	0.071400	0.979700
H1661	H166	0.402100	0.047000	0.001000
C2511	C251	0.667500	0.546500	0.744500
H1671	H167	0.651800	0.575700	0.767100
C2521	C252	0.686400	0.368800	0.879900
H1681	H168	0.666000	0.370100	0.839800
N731	N73	0.371540	0.718700	0.417670
N741	N74	0.722090	0.364400	0.411840
N751	N75	0.720900	0.499700	0.771430
N761	N76	0.574740	0.539000	0.472880
N771	N77	0.656280	0.481800	0.559680
N781	N78	0.575040	0.572500	0.563150
N791	N79	0.744110	0.409500	0.907490
N801	N80	0.746800	0.276600	0.271590
N811	N81	0.392000	0.064500	0.922180
N821	N82	0.597610	0.239600	0.973290
N831	N83	0.686820	0.287600	0.058940
N841	N84	0.604150	0.201100	0.064590
Ag151	Ag15	0.773900	0.291030	0.368250
Ag161	Ag16	0.295000	0.998680	0.867690
C2531	C253	0.127800	0.024000	0.587820
C2541	C254	0.922700	0.599600	0.892600
H1691	H169	0.902900	0.595000	0.852600
C2551	C255	0.153800	0.780300	0.001290
C2561	C256	0.128000	0.938400	0.411300
H1701	H170	0.085500	0.960200	0.390000
C2571	C257	0.128000	0.993000	0.502440
C2581	C258	0.982100	0.612800	0.009400
H1711	H171	0.001400	0.615800	0.049500
C2591	C259	0.903100	0.183100	0.389200
H1721	H172	0.884600	0.188700	0.349300
C2601	C260	0.243400	0.866500	0.996290
H1731	H173	0.263900	0.867000	0.036400
C2611	C261	0.075300	0.699300	0.007200
C2621	C262	0.159900	0.947700	0.470320
C2631	C263	0.222900	0.913500	0.499400
H1741	H174	0.245500	0.917900	0.539400
C2641	C264	0.271900	0.907300	0.965600
H1751	H175	0.312200	0.934600	0.985800
C2651	C265	0.251700	0.873400	0.469200
H1761	H176	0.294200	0.851000	0.489600
C2661	C266	0.957300	0.165900	0.505600
H1771	H177	0.975000	0.162000	0.545600
C2671	C267	0.158300	0.013800	0.651800
C2681	C268	0.960900	0.139000	0.415600
H1781	H178	0.981300	0.116400	0.393900
C2691	C269	0.183700	0.824900	0.966860
C2701	C270	0.190200	0.757400	0.151900
C2711	C271	0.982300	0.642400	0.918650
H1791	H179	0.001600	0.665900	0.896400
C2721	C272	0.049800	0.077200	0.505650
C2731	C273	0.279300	0.801300	0.240300
H1801	H180	0.321500	0.825000	0.259400
C2741	C274	0.252700	0.793000	0.181100
H1811	H181	0.276700	0.811100	0.161000
C2751	C275	0.161000	0.895800	0.384400
H1821	H182	0.138800	0.888800	0.344600
C2761	C276	0.156500	0.732000	0.184100
H1831	H183	0.114200	0.708200	0.166200
C2771	C277	0.212200	0.962000	0.678300
H1841	H184	0.228400	0.931400	0.656600
C2781	C278	0.186900	0.742700	0.242900
H1851	H185	0.164000	0.725000	0.264000
C2791	C279	0.898900	0.209400	0.474700
H1861	H186	0.877600	0.233600	0.495100
C2801	C280	0.158300	0.747800	0.087900
C2811	C281	0.241400	0.956600	0.737700
H1871	H187	0.277300	0.921200	0.755300
C2821	C282	0.012700	0.649800	0.977970
C2831	C283	0.155600	0.825400	0.907500
H1881	H188	0.116300	0.796700	0.886400
C2841	C284	0.989100	0.128000	0.475110
C2851	C285	0.133500	0.055000	0.685300
H1891	H189	0.095300	0.087300	0.668700
C2861	C286	0.922300	0.571400	0.979700
H1901	H190	0.902100	0.547000	0.001000
C2871	C287	0.167500	0.046500	0.744500
H1911	H191	0.151800	0.075700	0.767100
C2881	C288	0.186400	0.868800	0.879900
H1921	H192	0.166000	0.870100	0.839800
N851	N85	0.871540	0.218700	0.417670
N861	N86	0.222090	0.864400	0.411840
N871	N87	0.220900	0.999700	0.771430
N881	N88	0.074740	0.039000	0.472880
N891	N89	0.156280	0.981800	0.559680
N901	N90	0.075040	0.072500	0.563150
N911	N91	0.244110	0.909500	0.907490
N921	N92	0.246800	0.776600	0.271590
N931	N93	0.892000	0.564500	0.922180
N941	N94	0.097610	0.739600	0.973290
N951	N95	0.186820	0.787600	0.058940
N961	N96	0.104150	0.701100	0.064590
