data_QOFDIA06_clean_PM
_symmetry_space_group_name_H-M	'P1'
_cell_length_a	21.994300
_cell_length_b	16.577300
_cell_length_c	25.558000
_cell_angle_alpha	90.000000
_cell_angle_beta	115.203000
_cell_angle_gamma	90.000000
_symmetry_Int_Tables_number 1

loop_
_symmetry_equiv_pos_as_xyz
'x,y,z'

loop_
_atom_site_label
_atom_site_type_symbol
_atom_site_fract_x
_atom_site_fract_y
_atom_site_fract_z
Ag11	Ag1	0.844270	0.457140	0.367300
Ag21	Ag2	0.822280	0.754920	0.866770
C11	C1	0.097800	0.970800	0.999600
C21	C2	0.797500	0.584100	0.504200
H11	H1	0.819700	0.588200	0.544200
C31	C3	0.003400	0.884600	0.995200
H21	H2	0.022900	0.883400	0.035400
C41	C4	0.277300	0.137800	0.008600
H31	H3	0.298300	0.133800	0.048700
C51	C5	0.181700	0.052200	0.005700
C61	C6	0.709800	0.726400	0.586400
C71	C7	0.559800	0.801400	0.468300
C81	C8	0.533000	0.811200	0.410200
H41	H4	0.554600	0.790100	0.389000
C91	C9	0.623300	0.756300	0.500900
C101	C10	0.944000	0.844100	0.963500
H51	H5	0.924200	0.815500	0.983500
C111	C11	0.033100	0.927200	0.965400
C121	C12	0.219900	0.153200	0.891100
H61	H6	0.200200	0.158100	0.851100
C131	C13	0.179100	0.956300	0.180000
H71	H7	0.135000	0.938800	0.159900
C141	C14	0.735400	0.564400	0.387700
H81	H8	0.713800	0.557500	0.347800
C151	C15	0.743200	0.736900	0.650500
C161	C16	0.180100	0.002000	0.086600
C171	C17	0.214900	0.101300	0.976800
C181	C18	0.735700	0.621000	0.473700
C191	C19	0.525600	0.835600	0.498000
H91	H9	0.543100	0.831900	0.538100
C201	C20	0.212200	0.992000	0.151100
C211	C21	0.185900	0.110700	0.917300
H101	H10	0.143900	0.088600	0.895000
C221	C22	0.704000	0.609300	0.414200
H111	H11	0.661900	0.631600	0.392500
C231	C23	0.307300	0.180500	0.978500
H121	H12	0.348500	0.205400	0.999600
C241	C24	0.705000	0.672100	0.503800
C251	C25	0.473200	0.852900	0.382700
H131	H13	0.455900	0.860400	0.342900
C261	C26	0.825100	0.541100	0.473400
H141	H14	0.867200	0.518100	0.493900
C271	C27	0.466800	0.874200	0.467800
H151	H15	0.444400	0.896000	0.488200
C281	C28	0.002000	0.927600	0.905900
H161	H16	0.019800	0.957000	0.884700
C291	C29	0.306700	0.005300	0.241400
H171	H17	0.350800	0.022500	0.262200
C301	C30	0.944000	0.883700	0.878600
H181	H18	0.924700	0.881900	0.838400
C311	C31	0.211700	0.946600	0.239200
H191	H19	0.188800	0.921900	0.258300
C321	C32	0.714900	0.788200	0.677100
H201	H20	0.676300	0.817500	0.655300
C331	C33	0.745400	0.794600	0.736400
H211	H21	0.726300	0.828800	0.754100
C341	C34	0.277600	0.016300	0.181800
H221	H22	0.301600	0.039500	0.163300
C351	C35	0.828300	0.708900	0.743300
H231	H23	0.867800	0.681700	0.765900
C361	C36	0.802200	0.699400	0.684100
H241	H24	0.824300	0.668100	0.667400
N11	N1	0.795600	0.530400	0.416700
N21	N2	0.439400	0.882700	0.411000
N31	N3	0.800800	0.754300	0.769700
N41	N4	0.737800	0.677300	0.561800
N51	N5	0.647800	0.710000	0.471200
N61	N6	0.652500	0.766600	0.558000
N71	N7	0.913500	0.843600	0.905900
N81	N8	0.275300	0.971500	0.270300
N91	N9	0.279700	0.187100	0.921300
N101	N10	0.125700	0.012700	0.971800
N111	N11	0.122900	0.963200	0.057700
N121	N12	0.211100	0.049800	0.063600
Ag31	Ag3	0.344270	0.957140	0.367300
Ag41	Ag4	0.322280	0.254920	0.866770
C371	C37	0.597800	0.470800	0.999600
C381	C38	0.297500	0.084100	0.504200
H251	H25	0.319700	0.088200	0.544200
C391	C39	0.503400	0.384600	0.995200
H261	H26	0.522900	0.383400	0.035400
C401	C40	0.777300	0.637800	0.008600
H271	H27	0.798300	0.633800	0.048700
C411	C41	0.681700	0.552200	0.005700
C421	C42	0.209800	0.226400	0.586400
C431	C43	0.059800	0.301400	0.468300
C441	C44	0.033000	0.311200	0.410200
H281	H28	0.054600	0.290100	0.389000
C451	C45	0.123300	0.256300	0.500900
C461	C46	0.444000	0.344100	0.963500
H291	H29	0.424200	0.315500	0.983500
C471	C47	0.533100	0.427200	0.965400
C481	C48	0.719900	0.653200	0.891100
H301	H30	0.700200	0.658100	0.851100
C491	C49	0.679100	0.456300	0.180000
H311	H31	0.635000	0.438800	0.159900
C501	C50	0.235400	0.064400	0.387700
H321	H32	0.213800	0.057500	0.347800
C511	C51	0.243200	0.236900	0.650500
C521	C52	0.680100	0.502000	0.086600
C531	C53	0.714900	0.601300	0.976800
C541	C54	0.235700	0.121000	0.473700
C551	C55	0.025600	0.335600	0.498000
H331	H33	0.043100	0.331900	0.538100
C561	C56	0.712200	0.492000	0.151100
C571	C57	0.685900	0.610700	0.917300
H341	H34	0.643900	0.588600	0.895000
C581	C58	0.204000	0.109300	0.414200
H351	H35	0.161900	0.131600	0.392500
C591	C59	0.807300	0.680500	0.978500
H361	H36	0.848500	0.705400	0.999600
C601	C60	0.205000	0.172100	0.503800
C611	C61	0.973200	0.352900	0.382700
H371	H37	0.955900	0.360400	0.342900
C621	C62	0.325100	0.041100	0.473400
H381	H38	0.367200	0.018100	0.493900
C631	C63	0.966800	0.374200	0.467800
H391	H39	0.944400	0.396000	0.488200
C641	C64	0.502000	0.427600	0.905900
H401	H40	0.519800	0.457000	0.884700
C651	C65	0.806700	0.505300	0.241400
H411	H41	0.850800	0.522500	0.262200
C661	C66	0.444000	0.383700	0.878600
H421	H42	0.424700	0.381900	0.838400
C671	C67	0.711700	0.446600	0.239200
H431	H43	0.688800	0.421900	0.258300
C681	C68	0.214900	0.288200	0.677100
H441	H44	0.176300	0.317500	0.655300
C691	C69	0.245400	0.294600	0.736400
H451	H45	0.226300	0.328800	0.754100
C701	C70	0.777600	0.516300	0.181800
H461	H46	0.801600	0.539500	0.163300
C711	C71	0.328300	0.208900	0.743300
H471	H47	0.367800	0.181700	0.765900
C721	C72	0.302200	0.199400	0.684100
H481	H48	0.324300	0.168100	0.667400
N131	N13	0.295600	0.030400	0.416700
N141	N14	0.939400	0.382700	0.411000
N151	N15	0.300800	0.254300	0.769700
N161	N16	0.237800	0.177300	0.561800
N171	N17	0.147800	0.210000	0.471200
N181	N18	0.152500	0.266600	0.558000
N191	N19	0.413500	0.343600	0.905900
N201	N20	0.775300	0.471500	0.270300
N211	N21	0.779700	0.687100	0.921300
N221	N22	0.625700	0.512700	0.971800
N231	N23	0.622900	0.463200	0.057700
N241	N24	0.711100	0.549800	0.063600
Ag51	Ag5	0.155730	0.457140	0.132700
Ag61	Ag6	0.177720	0.754920	0.633230
C731	C73	0.902200	0.970800	0.500400
C741	C74	0.202500	0.584100	0.995800
H491	H49	0.180300	0.588200	0.955800
C751	C75	0.996600	0.884600	0.504800
H501	H50	0.977100	0.883400	0.464600
C761	C76	0.722700	0.137800	0.491400
H511	H51	0.701700	0.133800	0.451300
C771	C77	0.818300	0.052200	0.494300
C781	C78	0.290200	0.726400	0.913600
C791	C79	0.440200	0.801400	0.031700
C801	C80	0.467000	0.811200	0.089800
H521	H52	0.445400	0.790100	0.111000
C811	C81	0.376700	0.756300	0.999100
C821	C82	0.056000	0.844100	0.536500
H531	H53	0.075800	0.815500	0.516500
C831	C83	0.966900	0.927200	0.534600
C841	C84	0.780100	0.153200	0.608900
H541	H54	0.799800	0.158100	0.648900
C851	C85	0.820900	0.956300	0.320000
H551	H55	0.865000	0.938800	0.340100
C861	C86	0.264600	0.564400	0.112300
H561	H56	0.286200	0.557500	0.152200
C871	C87	0.256800	0.736900	0.849500
C881	C88	0.819900	0.002000	0.413400
C891	C89	0.785100	0.101300	0.523200
C901	C90	0.264300	0.621000	0.026300
C911	C91	0.474400	0.835600	0.002000
H571	H57	0.456900	0.831900	0.961900
C921	C92	0.787800	0.992000	0.348900
C931	C93	0.814100	0.110700	0.582700
H581	H58	0.856100	0.088600	0.605000
C941	C94	0.296000	0.609300	0.085800
H591	H59	0.338100	0.631600	0.107500
C951	C95	0.692700	0.180500	0.521500
H601	H60	0.651500	0.205400	0.500400
C961	C96	0.295000	0.672100	0.996200
C971	C97	0.526800	0.852900	0.117300
H611	H61	0.544100	0.860400	0.157100
C981	C98	0.174900	0.541100	0.026600
H621	H62	0.132800	0.518100	0.006100
C991	C99	0.533200	0.874200	0.032200
H631	H63	0.555600	0.896000	0.011800
C1001	C100	0.998000	0.927600	0.594100
H641	H64	0.980200	0.957000	0.615300
C1011	C101	0.693300	0.005300	0.258600
H651	H65	0.649200	0.022500	0.237800
C1021	C102	0.056000	0.883700	0.621400
H661	H66	0.075300	0.881900	0.661600
C1031	C103	0.788300	0.946600	0.260800
H671	H67	0.811200	0.921900	0.241700
C1041	C104	0.285100	0.788200	0.822900
H681	H68	0.323700	0.817500	0.844700
C1051	C105	0.254600	0.794600	0.763600
H691	H69	0.273700	0.828800	0.745900
C1061	C106	0.722400	0.016300	0.318200
H701	H70	0.698400	0.039500	0.336700
C1071	C107	0.171700	0.708900	0.756700
H711	H71	0.132200	0.681700	0.734100
C1081	C108	0.197800	0.699400	0.815900
H721	H72	0.175700	0.668100	0.832600
N251	N25	0.204400	0.530400	0.083300
N261	N26	0.560600	0.882700	0.089000
N271	N27	0.199200	0.754300	0.730300
N281	N28	0.262200	0.677300	0.938200
N291	N29	0.352200	0.710000	0.028800
N301	N30	0.347500	0.766600	0.942000
N311	N31	0.086500	0.843600	0.594100
N321	N32	0.724700	0.971500	0.229700
N331	N33	0.720300	0.187100	0.578700
N341	N34	0.874300	0.012700	0.528200
N351	N35	0.877100	0.963200	0.442300
N361	N36	0.788900	0.049800	0.436400
Ag71	Ag7	0.655730	0.957140	0.132700
Ag81	Ag8	0.677720	0.254920	0.633230
C1091	C109	0.402200	0.470800	0.500400
C1101	C110	0.702500	0.084100	0.995800
H731	H73	0.680300	0.088200	0.955800
C1111	C111	0.496600	0.384600	0.504800
H741	H74	0.477100	0.383400	0.464600
C1121	C112	0.222700	0.637800	0.491400
H751	H75	0.201700	0.633800	0.451300
C1131	C113	0.318300	0.552200	0.494300
C1141	C114	0.790200	0.226400	0.913600
C1151	C115	0.940200	0.301400	0.031700
C1161	C116	0.967000	0.311200	0.089800
H761	H76	0.945400	0.290100	0.111000
C1171	C117	0.876700	0.256300	0.999100
C1181	C118	0.556000	0.344100	0.536500
H771	H77	0.575800	0.315500	0.516500
C1191	C119	0.466900	0.427200	0.534600
C1201	C120	0.280100	0.653200	0.608900
H781	H78	0.299800	0.658100	0.648900
C1211	C121	0.320900	0.456300	0.320000
H791	H79	0.365000	0.438800	0.340100
C1221	C122	0.764600	0.064400	0.112300
H801	H80	0.786200	0.057500	0.152200
C1231	C123	0.756800	0.236900	0.849500
C1241	C124	0.319900	0.502000	0.413400
C1251	C125	0.285100	0.601300	0.523200
C1261	C126	0.764300	0.121000	0.026300
C1271	C127	0.974400	0.335600	0.002000
H811	H81	0.956900	0.331900	0.961900
C1281	C128	0.287800	0.492000	0.348900
C1291	C129	0.314100	0.610700	0.582700
H821	H82	0.356100	0.588600	0.605000
C1301	C130	0.796000	0.109300	0.085800
H831	H83	0.838100	0.131600	0.107500
C1311	C131	0.192700	0.680500	0.521500
H841	H84	0.151500	0.705400	0.500400
C1321	C132	0.795000	0.172100	0.996200
C1331	C133	0.026800	0.352900	0.117300
H851	H85	0.044100	0.360400	0.157100
C1341	C134	0.674900	0.041100	0.026600
H861	H86	0.632800	0.018100	0.006100
C1351	C135	0.033200	0.374200	0.032200
H871	H87	0.055600	0.396000	0.011800
C1361	C136	0.498000	0.427600	0.594100
H881	H88	0.480200	0.457000	0.615300
C1371	C137	0.193300	0.505300	0.258600
H891	H89	0.149200	0.522500	0.237800
C1381	C138	0.556000	0.383700	0.621400
H901	H90	0.575300	0.381900	0.661600
C1391	C139	0.288300	0.446600	0.260800
H911	H91	0.311200	0.421900	0.241700
C1401	C140	0.785100	0.288200	0.822900
H921	H92	0.823700	0.317500	0.844700
C1411	C141	0.754600	0.294600	0.763600
H931	H93	0.773700	0.328800	0.745900
C1421	C142	0.222400	0.516300	0.318200
H941	H94	0.198400	0.539500	0.336700
C1431	C143	0.671700	0.208900	0.756700
H951	H95	0.632200	0.181700	0.734100
C1441	C144	0.697800	0.199400	0.815900
H961	H96	0.675700	0.168100	0.832600
N371	N37	0.704400	0.030400	0.083300
N381	N38	0.060600	0.382700	0.089000
N391	N39	0.699200	0.254300	0.730300
N401	N40	0.762200	0.177300	0.938200
N411	N41	0.852200	0.210000	0.028800
N421	N42	0.847500	0.266600	0.942000
N431	N43	0.586500	0.343600	0.594100
N441	N44	0.224700	0.471500	0.229700
N451	N45	0.220300	0.687100	0.578700
N461	N46	0.374300	0.512700	0.528200
N471	N47	0.377100	0.463200	0.442300
N481	N48	0.288900	0.549800	0.436400
Ag91	Ag9	0.155730	0.542860	0.632700
Ag101	Ag10	0.177720	0.245080	0.133230
C1451	C145	0.902200	0.029200	0.000400
C1461	C146	0.202500	0.415900	0.495800
H971	H97	0.180300	0.411800	0.455800
C1471	C147	0.996600	0.115400	0.004800
H981	H98	0.977100	0.116600	0.964600
C1481	C148	0.722700	0.862200	0.991400
H991	H99	0.701700	0.866200	0.951300
C1491	C149	0.818300	0.947800	0.994300
C1501	C150	0.290200	0.273600	0.413600
C1511	C151	0.440200	0.198600	0.531700
C1521	C152	0.467000	0.188800	0.589800
H1001	H100	0.445400	0.209900	0.611000
C1531	C153	0.376700	0.243700	0.499100
C1541	C154	0.056000	0.155900	0.036500
H1011	H101	0.075800	0.184500	0.016500
C1551	C155	0.966900	0.072800	0.034600
C1561	C156	0.780100	0.846800	0.108900
H1021	H102	0.799800	0.841900	0.148900
C1571	C157	0.820900	0.043700	0.820000
H1031	H103	0.865000	0.061200	0.840100
C1581	C158	0.264600	0.435600	0.612300
H1041	H104	0.286200	0.442500	0.652200
C1591	C159	0.256800	0.263100	0.349500
C1601	C160	0.819900	0.998000	0.913400
C1611	C161	0.785100	0.898700	0.023200
C1621	C162	0.264300	0.379000	0.526300
C1631	C163	0.474400	0.164400	0.502000
H1051	H105	0.456900	0.168100	0.461900
C1641	C164	0.787800	0.008000	0.848900
C1651	C165	0.814100	0.889300	0.082700
H1061	H106	0.856100	0.911400	0.105000
C1661	C166	0.296000	0.390700	0.585800
H1071	H107	0.338100	0.368400	0.607500
C1671	C167	0.692700	0.819500	0.021500
H1081	H108	0.651500	0.794600	0.000400
C1681	C168	0.295000	0.327900	0.496200
C1691	C169	0.526800	0.147100	0.617300
H1091	H109	0.544100	0.139600	0.657100
C1701	C170	0.174900	0.458900	0.526600
H1101	H110	0.132800	0.481900	0.506100
C1711	C171	0.533200	0.125800	0.532200
H1111	H111	0.555600	0.104000	0.511800
C1721	C172	0.998000	0.072400	0.094100
H1121	H112	0.980200	0.043000	0.115300
C1731	C173	0.693300	0.994700	0.758600
H1131	H113	0.649200	0.977500	0.737800
C1741	C174	0.056000	0.116300	0.121400
H1141	H114	0.075300	0.118100	0.161600
C1751	C175	0.788300	0.053400	0.760800
H1151	H115	0.811200	0.078100	0.741700
C1761	C176	0.285100	0.211800	0.322900
H1161	H116	0.323700	0.182500	0.344700
C1771	C177	0.254600	0.205400	0.263600
H1171	H117	0.273700	0.171200	0.245900
C1781	C178	0.722400	0.983700	0.818200
H1181	H118	0.698400	0.960500	0.836700
C1791	C179	0.171700	0.291100	0.256700
H1191	H119	0.132200	0.318300	0.234100
C1801	C180	0.197800	0.300600	0.315900
H1201	H120	0.175700	0.331900	0.332600
N491	N49	0.204400	0.469600	0.583300
N501	N50	0.560600	0.117300	0.589000
N511	N51	0.199200	0.245700	0.230300
N521	N52	0.262200	0.322700	0.438200
N531	N53	0.352200	0.290000	0.528800
N541	N54	0.347500	0.233400	0.442000
N551	N55	0.086500	0.156400	0.094100
N561	N56	0.724700	0.028500	0.729700
N571	N57	0.720300	0.812900	0.078700
N581	N58	0.874300	0.987300	0.028200
N591	N59	0.877100	0.036800	0.942300
N601	N60	0.788900	0.950200	0.936400
Ag111	Ag11	0.655730	0.042860	0.632700
Ag121	Ag12	0.677720	0.745080	0.133230
C1811	C181	0.402200	0.529200	0.000400
C1821	C182	0.702500	0.915900	0.495800
H1211	H121	0.680300	0.911800	0.455800
C1831	C183	0.496600	0.615400	0.004800
H1221	H122	0.477100	0.616600	0.964600
C1841	C184	0.222700	0.362200	0.991400
H1231	H123	0.201700	0.366200	0.951300
C1851	C185	0.318300	0.447800	0.994300
C1861	C186	0.790200	0.773600	0.413600
C1871	C187	0.940200	0.698600	0.531700
C1881	C188	0.967000	0.688800	0.589800
H1241	H124	0.945400	0.709900	0.611000
C1891	C189	0.876700	0.743700	0.499100
C1901	C190	0.556000	0.655900	0.036500
H1251	H125	0.575800	0.684500	0.016500
C1911	C191	0.466900	0.572800	0.034600
C1921	C192	0.280100	0.346800	0.108900
H1261	H126	0.299800	0.341900	0.148900
C1931	C193	0.320900	0.543700	0.820000
H1271	H127	0.365000	0.561200	0.840100
C1941	C194	0.764600	0.935600	0.612300
H1281	H128	0.786200	0.942500	0.652200
C1951	C195	0.756800	0.763100	0.349500
C1961	C196	0.319900	0.498000	0.913400
C1971	C197	0.285100	0.398700	0.023200
C1981	C198	0.764300	0.879000	0.526300
C1991	C199	0.974400	0.664400	0.502000
H1291	H129	0.956900	0.668100	0.461900
C2001	C200	0.287800	0.508000	0.848900
C2011	C201	0.314100	0.389300	0.082700
H1301	H130	0.356100	0.411400	0.105000
C2021	C202	0.796000	0.890700	0.585800
H1311	H131	0.838100	0.868400	0.607500
C2031	C203	0.192700	0.319500	0.021500
H1321	H132	0.151500	0.294600	0.000400
C2041	C204	0.795000	0.827900	0.496200
C2051	C205	0.026800	0.647100	0.617300
H1331	H133	0.044100	0.639600	0.657100
C2061	C206	0.674900	0.958900	0.526600
H1341	H134	0.632800	0.981900	0.506100
C2071	C207	0.033200	0.625800	0.532200
H1351	H135	0.055600	0.604000	0.511800
C2081	C208	0.498000	0.572400	0.094100
H1361	H136	0.480200	0.543000	0.115300
C2091	C209	0.193300	0.494700	0.758600
H1371	H137	0.149200	0.477500	0.737800
C2101	C210	0.556000	0.616300	0.121400
H1381	H138	0.575300	0.618100	0.161600
C2111	C211	0.288300	0.553400	0.760800
H1391	H139	0.311200	0.578100	0.741700
C2121	C212	0.785100	0.711800	0.322900
H1401	H140	0.823700	0.682500	0.344700
C2131	C213	0.754600	0.705400	0.263600
H1411	H141	0.773700	0.671200	0.245900
C2141	C214	0.222400	0.483700	0.818200
H1421	H142	0.198400	0.460500	0.836700
C2151	C215	0.671700	0.791100	0.256700
H1431	H143	0.632200	0.818300	0.234100
C2161	C216	0.697800	0.800600	0.315900
H1441	H144	0.675700	0.831900	0.332600
N611	N61	0.704400	0.969600	0.583300
N621	N62	0.060600	0.617300	0.589000
N631	N63	0.699200	0.745700	0.230300
N641	N64	0.762200	0.822700	0.438200
N651	N65	0.852200	0.790000	0.528800
N661	N66	0.847500	0.733400	0.442000
N671	N67	0.586500	0.656400	0.094100
N681	N68	0.224700	0.528500	0.729700
N691	N69	0.220300	0.312900	0.078700
N701	N70	0.374300	0.487300	0.028200
N711	N71	0.377100	0.536800	0.942300
N721	N72	0.288900	0.450200	0.936400
Ag131	Ag13	0.844270	0.542860	0.867300
Ag141	Ag14	0.822280	0.245080	0.366770
C2171	C217	0.097800	0.029200	0.499600
C2181	C218	0.797500	0.415900	0.004200
H1451	H145	0.819700	0.411800	0.044200
C2191	C219	0.003400	0.115400	0.495200
H1461	H146	0.022900	0.116600	0.535400
C2201	C220	0.277300	0.862200	0.508600
H1471	H147	0.298300	0.866200	0.548700
C2211	C221	0.181700	0.947800	0.505700
C2221	C222	0.709800	0.273600	0.086400
C2231	C223	0.559800	0.198600	0.968300
C2241	C224	0.533000	0.188800	0.910200
H1481	H148	0.554600	0.209900	0.889000
C2251	C225	0.623300	0.243700	0.000900
C2261	C226	0.944000	0.155900	0.463500
H1491	H149	0.924200	0.184500	0.483500
C2271	C227	0.033100	0.072800	0.465400
C2281	C228	0.219900	0.846800	0.391100
H1501	H150	0.200200	0.841900	0.351100
C2291	C229	0.179100	0.043700	0.680000
H1511	H151	0.135000	0.061200	0.659900
C2301	C230	0.735400	0.435600	0.887700
H1521	H152	0.713800	0.442500	0.847800
C2311	C231	0.743200	0.263100	0.150500
C2321	C232	0.180100	0.998000	0.586600
C2331	C233	0.214900	0.898700	0.476800
C2341	C234	0.735700	0.379000	0.973700
C2351	C235	0.525600	0.164400	0.998000
H1531	H153	0.543100	0.168100	0.038100
C2361	C236	0.212200	0.008000	0.651100
C2371	C237	0.185900	0.889300	0.417300
H1541	H154	0.143900	0.911400	0.395000
C2381	C238	0.704000	0.390700	0.914200
H1551	H155	0.661900	0.368400	0.892500
C2391	C239	0.307300	0.819500	0.478500
H1561	H156	0.348500	0.794600	0.499600
C2401	C240	0.705000	0.327900	0.003800
C2411	C241	0.473200	0.147100	0.882700
H1571	H157	0.455900	0.139600	0.842900
C2421	C242	0.825100	0.458900	0.973400
H1581	H158	0.867200	0.481900	0.993900
C2431	C243	0.466800	0.125800	0.967800
H1591	H159	0.444400	0.104000	0.988200
C2441	C244	0.002000	0.072400	0.405900
H1601	H160	0.019800	0.043000	0.384700
C2451	C245	0.306700	0.994700	0.741400
H1611	H161	0.350800	0.977500	0.762200
C2461	C246	0.944000	0.116300	0.378600
H1621	H162	0.924700	0.118100	0.338400
C2471	C247	0.211700	0.053400	0.739200
H1631	H163	0.188800	0.078100	0.758300
C2481	C248	0.714900	0.211800	0.177100
H1641	H164	0.676300	0.182500	0.155300
C2491	C249	0.745400	0.205400	0.236400
H1651	H165	0.726300	0.171200	0.254100
C2501	C250	0.277600	0.983700	0.681800
H1661	H166	0.301600	0.960500	0.663300
C2511	C251	0.828300	0.291100	0.243300
H1671	H167	0.867800	0.318300	0.265900
C2521	C252	0.802200	0.300600	0.184100
H1681	H168	0.824300	0.331900	0.167400
N731	N73	0.795600	0.469600	0.916700
N741	N74	0.439400	0.117300	0.911000
N751	N75	0.800800	0.245700	0.269700
N761	N76	0.737800	0.322700	0.061800
N771	N77	0.647800	0.290000	0.971200
N781	N78	0.652500	0.233400	0.058000
N791	N79	0.913500	0.156400	0.405900
N801	N80	0.275300	0.028500	0.770300
N811	N81	0.279700	0.812900	0.421300
N821	N82	0.125700	0.987300	0.471800
N831	N83	0.122900	0.036800	0.557700
N841	N84	0.211100	0.950200	0.563600
Ag151	Ag15	0.344270	0.042860	0.867300
Ag161	Ag16	0.322280	0.745080	0.366770
C2531	C253	0.597800	0.529200	0.499600
C2541	C254	0.297500	0.915900	0.004200
H1691	H169	0.319700	0.911800	0.044200
C2551	C255	0.503400	0.615400	0.495200
H1701	H170	0.522900	0.616600	0.535400
C2561	C256	0.777300	0.362200	0.508600
H1711	H171	0.798300	0.366200	0.548700
C2571	C257	0.681700	0.447800	0.505700
C2581	C258	0.209800	0.773600	0.086400
C2591	C259	0.059800	0.698600	0.968300
C2601	C260	0.033000	0.688800	0.910200
H1721	H172	0.054600	0.709900	0.889000
C2611	C261	0.123300	0.743700	0.000900
C2621	C262	0.444000	0.655900	0.463500
H1731	H173	0.424200	0.684500	0.483500
C2631	C263	0.533100	0.572800	0.465400
C2641	C264	0.719900	0.346800	0.391100
H1741	H174	0.700200	0.341900	0.351100
C2651	C265	0.679100	0.543700	0.680000
H1751	H175	0.635000	0.561200	0.659900
C2661	C266	0.235400	0.935600	0.887700
H1761	H176	0.213800	0.942500	0.847800
C2671	C267	0.243200	0.763100	0.150500
C2681	C268	0.680100	0.498000	0.586600
C2691	C269	0.714900	0.398700	0.476800
C2701	C270	0.235700	0.879000	0.973700
C2711	C271	0.025600	0.664400	0.998000
H1771	H177	0.043100	0.668100	0.038100
C2721	C272	0.712200	0.508000	0.651100
C2731	C273	0.685900	0.389300	0.417300
H1781	H178	0.643900	0.411400	0.395000
C2741	C274	0.204000	0.890700	0.914200
H1791	H179	0.161900	0.868400	0.892500
C2751	C275	0.807300	0.319500	0.478500
H1801	H180	0.848500	0.294600	0.499600
C2761	C276	0.205000	0.827900	0.003800
C2771	C277	0.973200	0.647100	0.882700
H1811	H181	0.955900	0.639600	0.842900
C2781	C278	0.325100	0.958900	0.973400
H1821	H182	0.367200	0.981900	0.993900
C2791	C279	0.966800	0.625800	0.967800
H1831	H183	0.944400	0.604000	0.988200
C2801	C280	0.502000	0.572400	0.405900
H1841	H184	0.519800	0.543000	0.384700
C2811	C281	0.806700	0.494700	0.741400
H1851	H185	0.850800	0.477500	0.762200
C2821	C282	0.444000	0.616300	0.378600
H1861	H186	0.424700	0.618100	0.338400
C2831	C283	0.711700	0.553400	0.739200
H1871	H187	0.688800	0.578100	0.758300
C2841	C284	0.214900	0.711800	0.177100
H1881	H188	0.176300	0.682500	0.155300
C2851	C285	0.245400	0.705400	0.236400
H1891	H189	0.226300	0.671200	0.254100
C2861	C286	0.777600	0.483700	0.681800
H1901	H190	0.801600	0.460500	0.663300
C2871	C287	0.328300	0.791100	0.243300
H1911	H191	0.367800	0.818300	0.265900
C2881	C288	0.302200	0.800600	0.184100
H1921	H192	0.324300	0.831900	0.167400
N851	N85	0.295600	0.969600	0.916700
N861	N86	0.939400	0.617300	0.911000
N871	N87	0.300800	0.745700	0.269700
N881	N88	0.237800	0.822700	0.061800
N891	N89	0.147800	0.790000	0.971200
N901	N90	0.152500	0.733400	0.058000
N911	N91	0.413500	0.656400	0.405900
N921	N92	0.775300	0.528500	0.770300
N931	N93	0.779700	0.312900	0.421300
N941	N94	0.625700	0.487300	0.471800
N951	N95	0.622900	0.536800	0.557700
N961	N96	0.711100	0.450200	0.563600
