data_QOFDIA08_clean_PM
_symmetry_space_group_name_H-M	'P1'
_cell_length_a	21.966000
_cell_length_b	16.628800
_cell_length_c	25.531500
_cell_angle_alpha	90.000000
_cell_angle_beta	115.158000
_cell_angle_gamma	90.000000
_symmetry_Int_Tables_number 1

loop_
_symmetry_equiv_pos_as_xyz
'x,y,z'

loop_
_atom_site_label
_atom_site_type_symbol
_atom_site_fract_x
_atom_site_fract_y
_atom_site_fract_z
Ag11	Ag1	0.344230	0.956930	0.367060
Ag21	Ag2	0.321950	0.255580	0.866590
C11	C1	0.597600	0.471000	0.999300
C21	C2	0.777100	0.638200	0.008500
H11	H1	0.798000	0.634600	0.048600
C31	C3	0.297400	0.084200	0.504000
H21	H2	0.319600	0.088400	0.544000
C41	C4	0.123300	0.256500	0.500700
C51	C5	0.503400	0.384800	0.994800
H31	H3	0.522900	0.383500	0.035000
C61	C6	0.032800	0.310300	0.409600
H41	H4	0.054000	0.288600	0.388200
C71	C7	0.059600	0.301400	0.468200
C81	C8	0.681600	0.552400	0.005600
C91	C9	0.209400	0.226000	0.586000
C101	C10	0.444200	0.344400	0.963200
H51	H5	0.424600	0.315800	0.983400
C111	C11	0.533300	0.427200	0.965400
C121	C12	0.242600	0.236600	0.649700
C131	C13	0.719900	0.653200	0.890700
H61	H6	0.700000	0.658300	0.850700
C141	C14	0.679300	0.456500	0.179800
H71	H7	0.635000	0.439500	0.159700
C151	C15	0.235500	0.121300	0.473700
C161	C16	0.235500	0.064400	0.387500
H81	H8	0.214200	0.057500	0.347500
C171	C17	0.714500	0.601100	0.976400
C181	C18	0.025600	0.335000	0.498000
H91	H9	0.042800	0.330800	0.538100
C191	C19	0.204800	0.172400	0.503300
C201	C20	0.679700	0.502100	0.086200
C211	C21	0.712200	0.491800	0.150600
C221	C22	0.203900	0.109500	0.413800
H101	H10	0.161800	0.132000	0.392000
C231	C23	0.686100	0.610000	0.917200
H111	H11	0.644400	0.587200	0.894800
C241	C24	0.325200	0.041200	0.473300
H121	H12	0.367500	0.018700	0.493800
C251	C25	0.973100	0.352600	0.382800
H131	H13	0.955900	0.360500	0.343000
C261	C26	0.967200	0.373800	0.467700
H141	H14	0.945000	0.396100	0.488100
C271	C27	0.806100	0.504800	0.241000
H151	H15	0.850300	0.521600	0.261900
C281	C28	0.806600	0.680600	0.978100
H161	H16	0.847700	0.705600	0.999200
C291	C29	0.502200	0.428000	0.905700
H171	H17	0.519900	0.457700	0.884600
C301	C30	0.777900	0.516100	0.182000
H181	H18	0.802300	0.539500	0.163900
C311	C31	0.444300	0.383500	0.878200
H191	H19	0.425400	0.380800	0.838000
C321	C32	0.711800	0.446200	0.238800
H201	H20	0.689100	0.420800	0.257700
C331	C33	0.245000	0.294400	0.735600
H211	H21	0.225700	0.328900	0.753000
C341	C34	0.302100	0.199000	0.683200
H221	H22	0.324600	0.167900	0.666700
C351	C35	0.214600	0.287100	0.676500
H231	H23	0.175700	0.315800	0.654700
C361	C36	0.327400	0.209200	0.742500
H241	H24	0.366600	0.181600	0.765300
N11	N1	0.295500	0.030000	0.416600
N21	N2	0.939400	0.382300	0.410700
N31	N3	0.300500	0.254700	0.769300
N41	N4	0.237500	0.177000	0.561300
N51	N5	0.147800	0.210300	0.471100
N61	N6	0.152500	0.266400	0.557800
N71	N7	0.413400	0.343900	0.905800
N81	N8	0.775300	0.471800	0.270100
N91	N9	0.779600	0.687300	0.920700
N101	N10	0.625400	0.512800	0.971600
N111	N11	0.622600	0.463100	0.057300
N121	N12	0.711100	0.549500	0.063400
Ag31	Ag3	0.844230	0.456930	0.367060
Ag41	Ag4	0.821950	0.755580	0.866590
C371	C37	0.097600	0.971000	0.999300
C381	C38	0.277100	0.138200	0.008500
H251	H25	0.298000	0.134600	0.048600
C391	C39	0.797400	0.584200	0.504000
H261	H26	0.819600	0.588400	0.544000
C401	C40	0.623300	0.756500	0.500700
C411	C41	0.003400	0.884800	0.994800
H271	H27	0.022900	0.883500	0.035000
C421	C42	0.532800	0.810300	0.409600
H281	H28	0.554000	0.788600	0.388200
C431	C43	0.559600	0.801400	0.468200
C441	C44	0.181600	0.052400	0.005600
C451	C45	0.709400	0.726000	0.586000
C461	C46	0.944200	0.844400	0.963200
H291	H29	0.924600	0.815800	0.983400
C471	C47	0.033300	0.927200	0.965400
C481	C48	0.742600	0.736600	0.649700
C491	C49	0.219900	0.153200	0.890700
H301	H30	0.200000	0.158300	0.850700
C501	C50	0.179300	0.956500	0.179800
H311	H31	0.135000	0.939500	0.159700
C511	C51	0.735500	0.621300	0.473700
C521	C52	0.735500	0.564400	0.387500
H321	H32	0.714200	0.557500	0.347500
C531	C53	0.214500	0.101100	0.976400
C541	C54	0.525600	0.835000	0.498000
H331	H33	0.542800	0.830800	0.538100
C551	C55	0.704800	0.672400	0.503300
C561	C56	0.179700	0.002100	0.086200
C571	C57	0.212200	0.991800	0.150600
C581	C58	0.703900	0.609500	0.413800
H341	H34	0.661800	0.632000	0.392000
C591	C59	0.186100	0.110000	0.917200
H351	H35	0.144400	0.087200	0.894800
C601	C60	0.825200	0.541200	0.473300
H361	H36	0.867500	0.518700	0.493800
C611	C61	0.473100	0.852600	0.382800
H371	H37	0.455900	0.860500	0.343000
C621	C62	0.467200	0.873800	0.467700
H381	H38	0.445000	0.896100	0.488100
C631	C63	0.306100	0.004800	0.241000
H391	H39	0.350300	0.021600	0.261900
C641	C64	0.306600	0.180600	0.978100
H401	H40	0.347700	0.205600	0.999200
C651	C65	0.002200	0.928000	0.905700
H411	H41	0.019900	0.957700	0.884600
C661	C66	0.277900	0.016100	0.182000
H421	H42	0.302300	0.039500	0.163900
C671	C67	0.944300	0.883500	0.878200
H431	H43	0.925400	0.880800	0.838000
C681	C68	0.211800	0.946200	0.238800
H441	H44	0.189100	0.920800	0.257700
C691	C69	0.745000	0.794400	0.735600
H451	H45	0.725700	0.828900	0.753000
C701	C70	0.802100	0.699000	0.683200
H461	H46	0.824600	0.667900	0.666700
C711	C71	0.714600	0.787100	0.676500
H471	H47	0.675700	0.815800	0.654700
C721	C72	0.827400	0.709200	0.742500
H481	H48	0.866600	0.681600	0.765300
N131	N13	0.795500	0.530000	0.416600
N141	N14	0.439400	0.882300	0.410700
N151	N15	0.800500	0.754700	0.769300
N161	N16	0.737500	0.677000	0.561300
N171	N17	0.647800	0.710300	0.471100
N181	N18	0.652500	0.766400	0.557800
N191	N19	0.913400	0.843900	0.905800
N201	N20	0.275300	0.971800	0.270100
N211	N21	0.279600	0.187300	0.920700
N221	N22	0.125400	0.012800	0.971600
N231	N23	0.122600	0.963100	0.057300
N241	N24	0.211100	0.049500	0.063400
Ag51	Ag5	0.655770	0.956930	0.132940
Ag61	Ag6	0.678050	0.255580	0.633410
C731	C73	0.402400	0.471000	0.500700
C741	C74	0.222900	0.638200	0.491500
H491	H49	0.202000	0.634600	0.451400
C751	C75	0.702600	0.084200	0.996000
H501	H50	0.680400	0.088400	0.956000
C761	C76	0.876700	0.256500	0.999300
C771	C77	0.496600	0.384800	0.505200
H511	H51	0.477100	0.383500	0.465000
C781	C78	0.967200	0.310300	0.090400
H521	H52	0.946000	0.288600	0.111800
C791	C79	0.940400	0.301400	0.031800
C801	C80	0.318400	0.552400	0.494400
C811	C81	0.790600	0.226000	0.914000
C821	C82	0.555800	0.344400	0.536800
H531	H53	0.575400	0.315800	0.516600
C831	C83	0.466700	0.427200	0.534600
C841	C84	0.757400	0.236600	0.850300
C851	C85	0.280100	0.653200	0.609300
H541	H54	0.300000	0.658300	0.649300
C861	C86	0.320700	0.456500	0.320200
H551	H55	0.365000	0.439500	0.340300
C871	C87	0.764500	0.121300	0.026300
C881	C88	0.764500	0.064400	0.112500
H561	H56	0.785800	0.057500	0.152500
C891	C89	0.285500	0.601100	0.523600
C901	C90	0.974400	0.335000	0.002000
H571	H57	0.957200	0.330800	0.961900
C911	C91	0.795200	0.172400	0.996700
C921	C92	0.320300	0.502100	0.413800
C931	C93	0.287800	0.491800	0.349400
C941	C94	0.796100	0.109500	0.086200
H581	H58	0.838200	0.132000	0.108000
C951	C95	0.313900	0.610000	0.582800
H591	H59	0.355600	0.587200	0.605200
C961	C96	0.674800	0.041200	0.026700
H601	H60	0.632500	0.018700	0.006200
C971	C97	0.026900	0.352600	0.117200
H611	H61	0.044100	0.360500	0.157000
C981	C98	0.032800	0.373800	0.032300
H621	H62	0.055000	0.396100	0.011900
C991	C99	0.193900	0.504800	0.259000
H631	H63	0.149700	0.521600	0.238100
C1001	C100	0.193400	0.680600	0.521900
H641	H64	0.152300	0.705600	0.500800
C1011	C101	0.497800	0.428000	0.594300
H651	H65	0.480100	0.457700	0.615400
C1021	C102	0.222100	0.516100	0.318000
H661	H66	0.197700	0.539500	0.336100
C1031	C103	0.555700	0.383500	0.621800
H671	H67	0.574600	0.380800	0.662000
C1041	C104	0.288200	0.446200	0.261200
H681	H68	0.310900	0.420800	0.242300
C1051	C105	0.755000	0.294400	0.764400
H691	H69	0.774300	0.328900	0.747000
C1061	C106	0.697900	0.199000	0.816800
H701	H70	0.675400	0.167900	0.833300
C1071	C107	0.785400	0.287100	0.823500
H711	H71	0.824300	0.315800	0.845300
C1081	C108	0.672600	0.209200	0.757500
H721	H72	0.633400	0.181600	0.734700
N251	N25	0.704500	0.030000	0.083400
N261	N26	0.060600	0.382300	0.089300
N271	N27	0.699500	0.254700	0.730700
N281	N28	0.762500	0.177000	0.938700
N291	N29	0.852200	0.210300	0.028900
N301	N30	0.847500	0.266400	0.942200
N311	N31	0.586600	0.343900	0.594200
N321	N32	0.224700	0.471800	0.229900
N331	N33	0.220400	0.687300	0.579300
N341	N34	0.374600	0.512800	0.528400
N351	N35	0.377400	0.463100	0.442700
N361	N36	0.288900	0.549500	0.436600
Ag71	Ag7	0.155770	0.456930	0.132940
Ag81	Ag8	0.178050	0.755580	0.633410
C1091	C109	0.902400	0.971000	0.500700
C1101	C110	0.722900	0.138200	0.491500
H731	H73	0.702000	0.134600	0.451400
C1111	C111	0.202600	0.584200	0.996000
H741	H74	0.180400	0.588400	0.956000
C1121	C112	0.376700	0.756500	0.999300
C1131	C113	0.996600	0.884800	0.505200
H751	H75	0.977100	0.883500	0.465000
C1141	C114	0.467200	0.810300	0.090400
H761	H76	0.446000	0.788600	0.111800
C1151	C115	0.440400	0.801400	0.031800
C1161	C116	0.818400	0.052400	0.494400
C1171	C117	0.290600	0.726000	0.914000
C1181	C118	0.055800	0.844400	0.536800
H771	H77	0.075400	0.815800	0.516600
C1191	C119	0.966700	0.927200	0.534600
C1201	C120	0.257400	0.736600	0.850300
C1211	C121	0.780100	0.153200	0.609300
H781	H78	0.800000	0.158300	0.649300
C1221	C122	0.820700	0.956500	0.320200
H791	H79	0.865000	0.939500	0.340300
C1231	C123	0.264500	0.621300	0.026300
C1241	C124	0.264500	0.564400	0.112500
H801	H80	0.285800	0.557500	0.152500
C1251	C125	0.785500	0.101100	0.523600
C1261	C126	0.474400	0.835000	0.002000
H811	H81	0.457200	0.830800	0.961900
C1271	C127	0.295200	0.672400	0.996700
C1281	C128	0.820300	0.002100	0.413800
C1291	C129	0.787800	0.991800	0.349400
C1301	C130	0.296100	0.609500	0.086200
H821	H82	0.338200	0.632000	0.108000
C1311	C131	0.813900	0.110000	0.582800
H831	H83	0.855600	0.087200	0.605200
C1321	C132	0.174800	0.541200	0.026700
H841	H84	0.132500	0.518700	0.006200
C1331	C133	0.526900	0.852600	0.117200
H851	H85	0.544100	0.860500	0.157000
C1341	C134	0.532800	0.873800	0.032300
H861	H86	0.555000	0.896100	0.011900
C1351	C135	0.693900	0.004800	0.259000
H871	H87	0.649700	0.021600	0.238100
C1361	C136	0.693400	0.180600	0.521900
H881	H88	0.652300	0.205600	0.500800
C1371	C137	0.997800	0.928000	0.594300
H891	H89	0.980100	0.957700	0.615400
C1381	C138	0.722100	0.016100	0.318000
H901	H90	0.697700	0.039500	0.336100
C1391	C139	0.055700	0.883500	0.621800
H911	H91	0.074600	0.880800	0.662000
C1401	C140	0.788200	0.946200	0.261200
H921	H92	0.810900	0.920800	0.242300
C1411	C141	0.255000	0.794400	0.764400
H931	H93	0.274300	0.828900	0.747000
C1421	C142	0.197900	0.699000	0.816800
H941	H94	0.175400	0.667900	0.833300
C1431	C143	0.285400	0.787100	0.823500
H951	H95	0.324300	0.815800	0.845300
C1441	C144	0.172600	0.709200	0.757500
H961	H96	0.133400	0.681600	0.734700
N371	N37	0.204500	0.530000	0.083400
N381	N38	0.560600	0.882300	0.089300
N391	N39	0.199500	0.754700	0.730700
N401	N40	0.262500	0.677000	0.938700
N411	N41	0.352200	0.710300	0.028900
N421	N42	0.347500	0.766400	0.942200
N431	N43	0.086600	0.843900	0.594200
N441	N44	0.724700	0.971800	0.229900
N451	N45	0.720400	0.187300	0.579300
N461	N46	0.874600	0.012800	0.528400
N471	N47	0.877400	0.963100	0.442700
N481	N48	0.788900	0.049500	0.436600
Ag91	Ag9	0.655770	0.043070	0.632940
Ag101	Ag10	0.678050	0.744420	0.133410
C1451	C145	0.402400	0.529000	0.000700
C1461	C146	0.222900	0.361800	0.991500
H971	H97	0.202000	0.365400	0.951400
C1471	C147	0.702600	0.915800	0.496000
H981	H98	0.680400	0.911600	0.456000
C1481	C148	0.876700	0.743500	0.499300
C1491	C149	0.496600	0.615200	0.005200
H991	H99	0.477100	0.616500	0.965000
C1501	C150	0.967200	0.689700	0.590400
H1001	H100	0.946000	0.711400	0.611800
C1511	C151	0.940400	0.698600	0.531800
C1521	C152	0.318400	0.447600	0.994400
C1531	C153	0.790600	0.774000	0.414000
C1541	C154	0.555800	0.655600	0.036800
H1011	H101	0.575400	0.684200	0.016600
C1551	C155	0.466700	0.572800	0.034600
C1561	C156	0.757400	0.763400	0.350300
C1571	C157	0.280100	0.346800	0.109300
H1021	H102	0.300000	0.341700	0.149300
C1581	C158	0.320700	0.543500	0.820200
H1031	H103	0.365000	0.560500	0.840300
C1591	C159	0.764500	0.878700	0.526300
C1601	C160	0.764500	0.935600	0.612500
H1041	H104	0.785800	0.942500	0.652500
C1611	C161	0.285500	0.398900	0.023600
C1621	C162	0.974400	0.665000	0.502000
H1051	H105	0.957200	0.669200	0.461900
C1631	C163	0.795200	0.827600	0.496700
C1641	C164	0.320300	0.497900	0.913800
C1651	C165	0.287800	0.508200	0.849400
C1661	C166	0.796100	0.890500	0.586200
H1061	H106	0.838200	0.868000	0.608000
C1671	C167	0.313900	0.390000	0.082800
H1071	H107	0.355600	0.412800	0.105200
C1681	C168	0.674800	0.958800	0.526700
H1081	H108	0.632500	0.981300	0.506200
C1691	C169	0.026900	0.647400	0.617200
H1091	H109	0.044100	0.639500	0.657000
C1701	C170	0.032800	0.626200	0.532300
H1101	H110	0.055000	0.603900	0.511900
C1711	C171	0.193900	0.495200	0.759000
H1111	H111	0.149700	0.478400	0.738100
C1721	C172	0.193400	0.319400	0.021900
H1121	H112	0.152300	0.294400	0.000800
C1731	C173	0.497800	0.572000	0.094300
H1131	H113	0.480100	0.542300	0.115400
C1741	C174	0.222100	0.483900	0.818000
H1141	H114	0.197700	0.460500	0.836100
C1751	C175	0.555700	0.616500	0.121800
H1151	H115	0.574600	0.619200	0.162000
C1761	C176	0.288200	0.553800	0.761200
H1161	H116	0.310900	0.579200	0.742300
C1771	C177	0.755000	0.705600	0.264400
H1171	H117	0.774300	0.671100	0.247000
C1781	C178	0.697900	0.801000	0.316800
H1181	H118	0.675400	0.832100	0.333300
C1791	C179	0.785400	0.712900	0.323500
H1191	H119	0.824300	0.684200	0.345300
C1801	C180	0.672600	0.790800	0.257500
H1201	H120	0.633400	0.818400	0.234700
N491	N49	0.704500	0.970000	0.583400
N501	N50	0.060600	0.617700	0.589300
N511	N51	0.699500	0.745300	0.230700
N521	N52	0.762500	0.823000	0.438700
N531	N53	0.852200	0.789700	0.528900
N541	N54	0.847500	0.733600	0.442200
N551	N55	0.586600	0.656100	0.094200
N561	N56	0.224700	0.528200	0.729900
N571	N57	0.220400	0.312700	0.079300
N581	N58	0.374600	0.487200	0.028400
N591	N59	0.377400	0.536900	0.942700
N601	N60	0.288900	0.450500	0.936600
Ag111	Ag11	0.155770	0.543070	0.632940
Ag121	Ag12	0.178050	0.244420	0.133410
C1811	C181	0.902400	0.029000	0.000700
C1821	C182	0.722900	0.861800	0.991500
H1211	H121	0.702000	0.865400	0.951400
C1831	C183	0.202600	0.415800	0.496000
H1221	H122	0.180400	0.411600	0.456000
C1841	C184	0.376700	0.243500	0.499300
C1851	C185	0.996600	0.115200	0.005200
H1231	H123	0.977100	0.116500	0.965000
C1861	C186	0.467200	0.189700	0.590400
H1241	H124	0.446000	0.211400	0.611800
C1871	C187	0.440400	0.198600	0.531800
C1881	C188	0.818400	0.947600	0.994400
C1891	C189	0.290600	0.274000	0.414000
C1901	C190	0.055800	0.155600	0.036800
H1251	H125	0.075400	0.184200	0.016600
C1911	C191	0.966700	0.072800	0.034600
C1921	C192	0.257400	0.263400	0.350300
C1931	C193	0.780100	0.846800	0.109300
H1261	H126	0.800000	0.841700	0.149300
C1941	C194	0.820700	0.043500	0.820200
H1271	H127	0.865000	0.060500	0.840300
C1951	C195	0.264500	0.378700	0.526300
C1961	C196	0.264500	0.435600	0.612500
H1281	H128	0.285800	0.442500	0.652500
C1971	C197	0.785500	0.898900	0.023600
C1981	C198	0.474400	0.165000	0.502000
H1291	H129	0.457200	0.169200	0.461900
C1991	C199	0.295200	0.327600	0.496700
C2001	C200	0.820300	0.997900	0.913800
C2011	C201	0.787800	0.008200	0.849400
C2021	C202	0.296100	0.390500	0.586200
H1301	H130	0.338200	0.368000	0.608000
C2031	C203	0.813900	0.890000	0.082800
H1311	H131	0.855600	0.912800	0.105200
C2041	C204	0.174800	0.458800	0.526700
H1321	H132	0.132500	0.481300	0.506200
C2051	C205	0.526900	0.147400	0.617200
H1331	H133	0.544100	0.139500	0.657000
C2061	C206	0.532800	0.126200	0.532300
H1341	H134	0.555000	0.103900	0.511900
C2071	C207	0.693900	0.995200	0.759000
H1351	H135	0.649700	0.978400	0.738100
C2081	C208	0.693400	0.819400	0.021900
H1361	H136	0.652300	0.794400	0.000800
C2091	C209	0.997800	0.072000	0.094300
H1371	H137	0.980100	0.042300	0.115400
C2101	C210	0.722100	0.983900	0.818000
H1381	H138	0.697700	0.960500	0.836100
C2111	C211	0.055700	0.116500	0.121800
H1391	H139	0.074600	0.119200	0.162000
C2121	C212	0.788200	0.053800	0.761200
H1401	H140	0.810900	0.079200	0.742300
C2131	C213	0.255000	0.205600	0.264400
H1411	H141	0.274300	0.171100	0.247000
C2141	C214	0.197900	0.301000	0.316800
H1421	H142	0.175400	0.332100	0.333300
C2151	C215	0.285400	0.212900	0.323500
H1431	H143	0.324300	0.184200	0.345300
C2161	C216	0.172600	0.290800	0.257500
H1441	H144	0.133400	0.318400	0.234700
N611	N61	0.204500	0.470000	0.583400
N621	N62	0.560600	0.117700	0.589300
N631	N63	0.199500	0.245300	0.230700
N641	N64	0.262500	0.323000	0.438700
N651	N65	0.352200	0.289700	0.528900
N661	N66	0.347500	0.233600	0.442200
N671	N67	0.086600	0.156100	0.094200
N681	N68	0.724700	0.028200	0.729900
N691	N69	0.720400	0.812700	0.079300
N701	N70	0.874600	0.987200	0.028400
N711	N71	0.877400	0.036900	0.942700
N721	N72	0.788900	0.950500	0.936600
Ag131	Ag13	0.344230	0.043070	0.867060
Ag141	Ag14	0.321950	0.744420	0.366590
C2171	C217	0.597600	0.529000	0.499300
C2181	C218	0.777100	0.361800	0.508500
H1451	H145	0.798000	0.365400	0.548600
C2191	C219	0.297400	0.915800	0.004000
H1461	H146	0.319600	0.911600	0.044000
C2201	C220	0.123300	0.743500	0.000700
C2211	C221	0.503400	0.615200	0.494800
H1471	H147	0.522900	0.616500	0.535000
C2221	C222	0.032800	0.689700	0.909600
H1481	H148	0.054000	0.711400	0.888200
C2231	C223	0.059600	0.698600	0.968200
C2241	C224	0.681600	0.447600	0.505600
C2251	C225	0.209400	0.774000	0.086000
C2261	C226	0.444200	0.655600	0.463200
H1491	H149	0.424600	0.684200	0.483400
C2271	C227	0.533300	0.572800	0.465400
C2281	C228	0.242600	0.763400	0.149700
C2291	C229	0.719900	0.346800	0.390700
H1501	H150	0.700000	0.341700	0.350700
C2301	C230	0.679300	0.543500	0.679800
H1511	H151	0.635000	0.560500	0.659700
C2311	C231	0.235500	0.878700	0.973700
C2321	C232	0.235500	0.935600	0.887500
H1521	H152	0.214200	0.942500	0.847500
C2331	C233	0.714500	0.398900	0.476400
C2341	C234	0.025600	0.665000	0.998000
H1531	H153	0.042800	0.669200	0.038100
C2351	C235	0.204800	0.827600	0.003300
C2361	C236	0.679700	0.497900	0.586200
C2371	C237	0.712200	0.508200	0.650600
C2381	C238	0.203900	0.890500	0.913800
H1541	H154	0.161800	0.868000	0.892000
C2391	C239	0.686100	0.390000	0.417200
H1551	H155	0.644400	0.412800	0.394800
C2401	C240	0.325200	0.958800	0.973300
H1561	H156	0.367500	0.981300	0.993800
C2411	C241	0.973100	0.647400	0.882800
H1571	H157	0.955900	0.639500	0.843000
C2421	C242	0.967200	0.626200	0.967700
H1581	H158	0.945000	0.603900	0.988100
C2431	C243	0.806100	0.495200	0.741000
H1591	H159	0.850300	0.478400	0.761900
C2441	C244	0.806600	0.319400	0.478100
H1601	H160	0.847700	0.294400	0.499200
C2451	C245	0.502200	0.572000	0.405700
H1611	H161	0.519900	0.542300	0.384600
C2461	C246	0.777900	0.483900	0.682000
H1621	H162	0.802300	0.460500	0.663900
C2471	C247	0.444300	0.616500	0.378200
H1631	H163	0.425400	0.619200	0.338000
C2481	C248	0.711800	0.553800	0.738800
H1641	H164	0.689100	0.579200	0.757700
C2491	C249	0.245000	0.705600	0.235600
H1651	H165	0.225700	0.671100	0.253000
C2501	C250	0.302100	0.801000	0.183200
H1661	H166	0.324600	0.832100	0.166700
C2511	C251	0.214600	0.712900	0.176500
H1671	H167	0.175700	0.684200	0.154700
C2521	C252	0.327400	0.790800	0.242500
H1681	H168	0.366600	0.818400	0.265300
N731	N73	0.295500	0.970000	0.916600
N741	N74	0.939400	0.617700	0.910700
N751	N75	0.300500	0.745300	0.269300
N761	N76	0.237500	0.823000	0.061300
N771	N77	0.147800	0.789700	0.971100
N781	N78	0.152500	0.733600	0.057800
N791	N79	0.413400	0.656100	0.405800
N801	N80	0.775300	0.528200	0.770100
N811	N81	0.779600	0.312700	0.420700
N821	N82	0.625400	0.487200	0.471600
N831	N83	0.622600	0.536900	0.557300
N841	N84	0.711100	0.450500	0.563400
Ag151	Ag15	0.844230	0.543070	0.867060
Ag161	Ag16	0.821950	0.244420	0.366590
C2531	C253	0.097600	0.029000	0.499300
C2541	C254	0.277100	0.861800	0.508500
H1691	H169	0.298000	0.865400	0.548600
C2551	C255	0.797400	0.415800	0.004000
H1701	H170	0.819600	0.411600	0.044000
C2561	C256	0.623300	0.243500	0.000700
C2571	C257	0.003400	0.115200	0.494800
H1711	H171	0.022900	0.116500	0.535000
C2581	C258	0.532800	0.189700	0.909600
H1721	H172	0.554000	0.211400	0.888200
C2591	C259	0.559600	0.198600	0.968200
C2601	C260	0.181600	0.947600	0.505600
C2611	C261	0.709400	0.274000	0.086000
C2621	C262	0.944200	0.155600	0.463200
H1731	H173	0.924600	0.184200	0.483400
C2631	C263	0.033300	0.072800	0.465400
C2641	C264	0.742600	0.263400	0.149700
C2651	C265	0.219900	0.846800	0.390700
H1741	H174	0.200000	0.841700	0.350700
C2661	C266	0.179300	0.043500	0.679800
H1751	H175	0.135000	0.060500	0.659700
C2671	C267	0.735500	0.378700	0.973700
C2681	C268	0.735500	0.435600	0.887500
H1761	H176	0.714200	0.442500	0.847500
C2691	C269	0.214500	0.898900	0.476400
C2701	C270	0.525600	0.165000	0.998000
H1771	H177	0.542800	0.169200	0.038100
C2711	C271	0.704800	0.327600	0.003300
C2721	C272	0.179700	0.997900	0.586200
C2731	C273	0.212200	0.008200	0.650600
C2741	C274	0.703900	0.390500	0.913800
H1781	H178	0.661800	0.368000	0.892000
C2751	C275	0.186100	0.890000	0.417200
H1791	H179	0.144400	0.912800	0.394800
C2761	C276	0.825200	0.458800	0.973300
H1801	H180	0.867500	0.481300	0.993800
C2771	C277	0.473100	0.147400	0.882800
H1811	H181	0.455900	0.139500	0.843000
C2781	C278	0.467200	0.126200	0.967700
H1821	H182	0.445000	0.103900	0.988100
C2791	C279	0.306100	0.995200	0.741000
H1831	H183	0.350300	0.978400	0.761900
C2801	C280	0.306600	0.819400	0.478100
H1841	H184	0.347700	0.794400	0.499200
C2811	C281	0.002200	0.072000	0.405700
H1851	H185	0.019900	0.042300	0.384600
C2821	C282	0.277900	0.983900	0.682000
H1861	H186	0.302300	0.960500	0.663900
C2831	C283	0.944300	0.116500	0.378200
H1871	H187	0.925400	0.119200	0.338000
C2841	C284	0.211800	0.053800	0.738800
H1881	H188	0.189100	0.079200	0.757700
C2851	C285	0.745000	0.205600	0.235600
H1891	H189	0.725700	0.171100	0.253000
C2861	C286	0.802100	0.301000	0.183200
H1901	H190	0.824600	0.332100	0.166700
C2871	C287	0.714600	0.212900	0.176500
H1911	H191	0.675700	0.184200	0.154700
C2881	C288	0.827400	0.290800	0.242500
H1921	H192	0.866600	0.318400	0.265300
N851	N85	0.795500	0.470000	0.916600
N861	N86	0.439400	0.117700	0.910700
N871	N87	0.800500	0.245300	0.269300
N881	N88	0.737500	0.323000	0.061300
N891	N89	0.647800	0.289700	0.971100
N901	N90	0.652500	0.233600	0.057800
N911	N91	0.913400	0.156100	0.405800
N921	N92	0.275300	0.028200	0.770100
N931	N93	0.279600	0.812700	0.420700
N941	N94	0.125400	0.987200	0.471600
N951	N95	0.122600	0.036900	0.557300
N961	N96	0.211100	0.950500	0.563400
