data_QOFDIA07_clean_PM
_symmetry_space_group_name_H-M	'P1'
_cell_length_a	21.986700
_cell_length_b	16.591600
_cell_length_c	25.552000
_cell_angle_alpha	90.000000
_cell_angle_beta	115.203000
_cell_angle_gamma	90.000000
_symmetry_Int_Tables_number 1

loop_
_symmetry_equiv_pos_as_xyz
'x,y,z'

loop_
_atom_site_label
_atom_site_type_symbol
_atom_site_fract_x
_atom_site_fract_y
_atom_site_fract_z
Ag11	Ag1	0.844270	0.457090	0.367250
Ag21	Ag2	0.822210	0.755080	0.866740
C11	C1	0.097800	0.970500	0.999400
C21	C2	0.623700	0.755900	0.501200
C31	C3	0.277200	0.138400	0.008400
H11	H1	0.297900	0.135000	0.048500
C41	C4	0.559600	0.801400	0.468400
C51	C5	0.181800	0.052500	0.005500
C61	C6	0.003800	0.884700	0.995100
H21	H2	0.023700	0.883100	0.035300
C71	C7	0.797400	0.583600	0.503900
H31	H3	0.819400	0.587500	0.544000
C81	C8	0.532900	0.811000	0.410100
H41	H4	0.554500	0.789800	0.388800
C91	C9	0.710000	0.726200	0.586400
C101	C10	0.944100	0.844200	0.963600
H51	H5	0.924100	0.816200	0.983700
C111	C11	0.220100	0.153000	0.891200
H61	H6	0.200400	0.158100	0.851100
C121	C12	0.180100	0.002300	0.086700
C131	C13	0.178900	0.955900	0.179800
H71	H7	0.134900	0.938100	0.159600
C141	C14	0.743100	0.736400	0.650200
C151	C15	0.033300	0.927500	0.965500
C161	C16	0.735600	0.564800	0.387800
H81	H8	0.714300	0.558500	0.347800
C171	C17	0.735500	0.620900	0.473300
C181	C18	0.525600	0.835100	0.498000
H91	H9	0.542900	0.830800	0.538100
C191	C19	0.214700	0.101300	0.976600
C201	C20	0.703900	0.609500	0.414000
H101	H10	0.661800	0.631800	0.392300
C211	C21	0.212300	0.991800	0.151000
C221	C22	0.186000	0.110300	0.917200
H111	H11	0.144200	0.087800	0.894700
C231	C23	0.705000	0.672300	0.503600
C241	C24	0.473300	0.852800	0.382800
H121	H12	0.455900	0.860300	0.343000
C251	C25	0.467000	0.874400	0.467900
H131	H13	0.444800	0.896800	0.488400
C261	C26	0.825300	0.541000	0.473400
H141	H14	0.867600	0.518400	0.493900
C271	C27	0.307400	0.180700	0.978300
H151	H15	0.348700	0.205400	0.999300
C281	C28	0.002000	0.928000	0.905700
H161	H16	0.019700	0.957700	0.884600
C291	C29	0.306800	0.005000	0.241600
H171	H17	0.351100	0.021600	0.262600
C301	C30	0.714500	0.788000	0.676700
H181	H18	0.675800	0.817200	0.655000
C311	C31	0.944100	0.883700	0.878100
H191	H19	0.924800	0.881700	0.837900
C321	C32	0.211400	0.946600	0.239000
H201	H20	0.188500	0.922200	0.258100
C331	C33	0.277800	0.016800	0.182500
H211	H21	0.301800	0.040900	0.164300
C341	C34	0.745500	0.794200	0.736000
H221	H22	0.726500	0.828700	0.753600
C351	C35	0.828100	0.708500	0.743200
H231	H23	0.867300	0.680800	0.765900
C361	C36	0.802100	0.699100	0.684000
H241	H24	0.824400	0.667800	0.667500
N11	N1	0.795400	0.530200	0.416500
N21	N2	0.439400	0.882700	0.411000
N31	N3	0.800500	0.754900	0.769700
N41	N4	0.737600	0.677300	0.561500
N51	N5	0.647900	0.710100	0.471300
N61	N6	0.652700	0.766900	0.558200
N71	N7	0.913700	0.843300	0.905800
N81	N8	0.275100	0.971400	0.270300
N91	N9	0.279800	0.187000	0.921200
N101	N10	0.125600	0.012700	0.971800
N111	N11	0.122700	0.963300	0.057300
N121	N12	0.211100	0.049900	0.063500
Ag31	Ag3	0.344270	0.957090	0.367250
Ag41	Ag4	0.322210	0.255080	0.866740
C371	C37	0.597800	0.470500	0.999400
C381	C38	0.123700	0.255900	0.501200
C391	C39	0.777200	0.638400	0.008400
H251	H25	0.797900	0.635000	0.048500
C401	C40	0.059600	0.301400	0.468400
C411	C41	0.681800	0.552500	0.005500
C421	C42	0.503800	0.384700	0.995100
H261	H26	0.523700	0.383100	0.035300
C431	C43	0.297400	0.083600	0.503900
H271	H27	0.319400	0.087500	0.544000
C441	C44	0.032900	0.311000	0.410100
H281	H28	0.054500	0.289800	0.388800
C451	C45	0.210000	0.226200	0.586400
C461	C46	0.444100	0.344200	0.963600
H291	H29	0.424100	0.316200	0.983700
C471	C47	0.720100	0.653000	0.891200
H301	H30	0.700400	0.658100	0.851100
C481	C48	0.680100	0.502300	0.086700
C491	C49	0.678900	0.455900	0.179800
H311	H31	0.634900	0.438100	0.159600
C501	C50	0.243100	0.236400	0.650200
C511	C51	0.533300	0.427500	0.965500
C521	C52	0.235600	0.064800	0.387800
H321	H32	0.214300	0.058500	0.347800
C531	C53	0.235500	0.120900	0.473300
C541	C54	0.025600	0.335100	0.498000
H331	H33	0.042900	0.330800	0.538100
C551	C55	0.714700	0.601300	0.976600
C561	C56	0.203900	0.109500	0.414000
H341	H34	0.161800	0.131800	0.392300
C571	C57	0.712300	0.491800	0.151000
C581	C58	0.686000	0.610300	0.917200
H351	H35	0.644200	0.587800	0.894700
C591	C59	0.205000	0.172300	0.503600
C601	C60	0.973300	0.352800	0.382800
H361	H36	0.955900	0.360300	0.343000
C611	C61	0.967000	0.374400	0.467900
H371	H37	0.944800	0.396800	0.488400
C621	C62	0.325300	0.041000	0.473400
H381	H38	0.367600	0.018400	0.493900
C631	C63	0.807400	0.680700	0.978300
H391	H39	0.848700	0.705400	0.999300
C641	C64	0.502000	0.428000	0.905700
H401	H40	0.519700	0.457700	0.884600
C651	C65	0.806800	0.505000	0.241600
H411	H41	0.851100	0.521600	0.262600
C661	C66	0.214500	0.288000	0.676700
H421	H42	0.175800	0.317200	0.655000
C671	C67	0.444100	0.383700	0.878100
H431	H43	0.424800	0.381700	0.837900
C681	C68	0.711400	0.446600	0.239000
H441	H44	0.688500	0.422200	0.258100
C691	C69	0.777800	0.516800	0.182500
H451	H45	0.801800	0.540900	0.164300
C701	C70	0.245500	0.294200	0.736000
H461	H46	0.226500	0.328700	0.753600
C711	C71	0.328100	0.208500	0.743200
H471	H47	0.367300	0.180800	0.765900
C721	C72	0.302100	0.199100	0.684000
H481	H48	0.324400	0.167800	0.667500
N131	N13	0.295400	0.030200	0.416500
N141	N14	0.939400	0.382700	0.411000
N151	N15	0.300500	0.254900	0.769700
N161	N16	0.237600	0.177300	0.561500
N171	N17	0.147900	0.210100	0.471300
N181	N18	0.152700	0.266900	0.558200
N191	N19	0.413700	0.343300	0.905800
N201	N20	0.775100	0.471400	0.270300
N211	N21	0.779800	0.687000	0.921200
N221	N22	0.625600	0.512700	0.971800
N231	N23	0.622700	0.463300	0.057300
N241	N24	0.711100	0.549900	0.063500
Ag51	Ag5	0.155730	0.457090	0.132750
Ag61	Ag6	0.177790	0.755080	0.633260
C731	C73	0.902200	0.970500	0.500600
C741	C74	0.376300	0.755900	0.998800
C751	C75	0.722800	0.138400	0.491600
H491	H49	0.702100	0.135000	0.451500
C761	C76	0.440400	0.801400	0.031600
C771	C77	0.818200	0.052500	0.494500
C781	C78	0.996200	0.884700	0.504900
H501	H50	0.976300	0.883100	0.464700
C791	C79	0.202600	0.583600	0.996100
H511	H51	0.180600	0.587500	0.956000
C801	C80	0.467100	0.811000	0.089900
H521	H52	0.445500	0.789800	0.111200
C811	C81	0.290000	0.726200	0.913600
C821	C82	0.055900	0.844200	0.536400
H531	H53	0.075900	0.816200	0.516300
C831	C83	0.779900	0.153000	0.608800
H541	H54	0.799600	0.158100	0.648900
C841	C84	0.819900	0.002300	0.413300
C851	C85	0.821100	0.955900	0.320200
H551	H55	0.865100	0.938100	0.340400
C861	C86	0.256900	0.736400	0.849800
C871	C87	0.966700	0.927500	0.534500
C881	C88	0.264400	0.564800	0.112200
H561	H56	0.285700	0.558500	0.152200
C891	C89	0.264500	0.620900	0.026700
C901	C90	0.474400	0.835100	0.002000
H571	H57	0.457100	0.830800	0.961900
C911	C91	0.785300	0.101300	0.523400
C921	C92	0.296100	0.609500	0.086000
H581	H58	0.338200	0.631800	0.107700
C931	C93	0.787700	0.991800	0.349000
C941	C94	0.814000	0.110300	0.582800
H591	H59	0.855800	0.087800	0.605300
C951	C95	0.295000	0.672300	0.996400
C961	C96	0.526700	0.852800	0.117200
H601	H60	0.544100	0.860300	0.157000
C971	C97	0.533000	0.874400	0.032100
H611	H61	0.555200	0.896800	0.011600
C981	C98	0.174700	0.541000	0.026600
H621	H62	0.132400	0.518400	0.006100
C991	C99	0.692600	0.180700	0.521700
H631	H63	0.651300	0.205400	0.500700
C1001	C100	0.998000	0.928000	0.594300
H641	H64	0.980300	0.957700	0.615400
C1011	C101	0.693200	0.005000	0.258400
H651	H65	0.648900	0.021600	0.237400
C1021	C102	0.285500	0.788000	0.823300
H661	H66	0.324200	0.817200	0.845000
C1031	C103	0.055900	0.883700	0.621900
H671	H67	0.075200	0.881700	0.662100
C1041	C104	0.788600	0.946600	0.261000
H681	H68	0.811500	0.922200	0.241900
C1051	C105	0.722200	0.016800	0.317500
H691	H69	0.698200	0.040900	0.335700
C1061	C106	0.254500	0.794200	0.764000
H701	H70	0.273500	0.828700	0.746400
C1071	C107	0.171900	0.708500	0.756800
H711	H71	0.132700	0.680800	0.734100
C1081	C108	0.197900	0.699100	0.816000
H721	H72	0.175600	0.667800	0.832500
N251	N25	0.204600	0.530200	0.083500
N261	N26	0.560600	0.882700	0.089000
N271	N27	0.199500	0.754900	0.730300
N281	N28	0.262400	0.677300	0.938500
N291	N29	0.352100	0.710100	0.028700
N301	N30	0.347300	0.766900	0.941800
N311	N31	0.086300	0.843300	0.594200
N321	N32	0.724900	0.971400	0.229700
N331	N33	0.720200	0.187000	0.578800
N341	N34	0.874400	0.012700	0.528200
N351	N35	0.877300	0.963300	0.442700
N361	N36	0.788900	0.049900	0.436500
Ag71	Ag7	0.655730	0.957090	0.132750
Ag81	Ag8	0.677790	0.255080	0.633260
C1091	C109	0.402200	0.470500	0.500600
C1101	C110	0.876300	0.255900	0.998800
C1111	C111	0.222800	0.638400	0.491600
H731	H73	0.202100	0.635000	0.451500
C1121	C112	0.940400	0.301400	0.031600
C1131	C113	0.318200	0.552500	0.494500
C1141	C114	0.496200	0.384700	0.504900
H741	H74	0.476300	0.383100	0.464700
C1151	C115	0.702600	0.083600	0.996100
H751	H75	0.680600	0.087500	0.956000
C1161	C116	0.967100	0.311000	0.089900
H761	H76	0.945500	0.289800	0.111200
C1171	C117	0.790000	0.226200	0.913600
C1181	C118	0.555900	0.344200	0.536400
H771	H77	0.575900	0.316200	0.516300
C1191	C119	0.279900	0.653000	0.608800
H781	H78	0.299600	0.658100	0.648900
C1201	C120	0.319900	0.502300	0.413300
C1211	C121	0.321100	0.455900	0.320200
H791	H79	0.365100	0.438100	0.340400
C1221	C122	0.756900	0.236400	0.849800
C1231	C123	0.466700	0.427500	0.534500
C1241	C124	0.764400	0.064800	0.112200
H801	H80	0.785700	0.058500	0.152200
C1251	C125	0.764500	0.120900	0.026700
C1261	C126	0.974400	0.335100	0.002000
H811	H81	0.957100	0.330800	0.961900
C1271	C127	0.285300	0.601300	0.523400
C1281	C128	0.796100	0.109500	0.086000
H821	H82	0.838200	0.131800	0.107700
C1291	C129	0.287700	0.491800	0.349000
C1301	C130	0.314000	0.610300	0.582800
H831	H83	0.355800	0.587800	0.605300
C1311	C131	0.795000	0.172300	0.996400
C1321	C132	0.026700	0.352800	0.117200
H841	H84	0.044100	0.360300	0.157000
C1331	C133	0.033000	0.374400	0.032100
H851	H85	0.055200	0.396800	0.011600
C1341	C134	0.674700	0.041000	0.026600
H861	H86	0.632400	0.018400	0.006100
C1351	C135	0.192600	0.680700	0.521700
H871	H87	0.151300	0.705400	0.500700
C1361	C136	0.498000	0.428000	0.594300
H881	H88	0.480300	0.457700	0.615400
C1371	C137	0.193200	0.505000	0.258400
H891	H89	0.148900	0.521600	0.237400
C1381	C138	0.785500	0.288000	0.823300
H901	H90	0.824200	0.317200	0.845000
C1391	C139	0.555900	0.383700	0.621900
H911	H91	0.575200	0.381700	0.662100
C1401	C140	0.288600	0.446600	0.261000
H921	H92	0.311500	0.422200	0.241900
C1411	C141	0.222200	0.516800	0.317500
H931	H93	0.198200	0.540900	0.335700
C1421	C142	0.754500	0.294200	0.764000
H941	H94	0.773500	0.328700	0.746400
C1431	C143	0.671900	0.208500	0.756800
H951	H95	0.632700	0.180800	0.734100
C1441	C144	0.697900	0.199100	0.816000
H961	H96	0.675600	0.167800	0.832500
N371	N37	0.704600	0.030200	0.083500
N381	N38	0.060600	0.382700	0.089000
N391	N39	0.699500	0.254900	0.730300
N401	N40	0.762400	0.177300	0.938500
N411	N41	0.852100	0.210100	0.028700
N421	N42	0.847300	0.266900	0.941800
N431	N43	0.586300	0.343300	0.594200
N441	N44	0.224900	0.471400	0.229700
N451	N45	0.220200	0.687000	0.578800
N461	N46	0.374400	0.512700	0.528200
N471	N47	0.377300	0.463300	0.442700
N481	N48	0.288900	0.549900	0.436500
Ag91	Ag9	0.155730	0.542910	0.632750
Ag101	Ag10	0.177790	0.244920	0.133260
C1451	C145	0.902200	0.029500	0.000600
C1461	C146	0.376300	0.244100	0.498800
C1471	C147	0.722800	0.861600	0.991600
H971	H97	0.702100	0.865000	0.951500
C1481	C148	0.440400	0.198600	0.531600
C1491	C149	0.818200	0.947500	0.994500
C1501	C150	0.996200	0.115300	0.004900
H981	H98	0.976300	0.116900	0.964700
C1511	C151	0.202600	0.416400	0.496100
H991	H99	0.180600	0.412500	0.456000
C1521	C152	0.467100	0.189000	0.589900
H1001	H100	0.445500	0.210200	0.611200
C1531	C153	0.290000	0.273800	0.413600
C1541	C154	0.055900	0.155800	0.036400
H1011	H101	0.075900	0.183800	0.016300
C1551	C155	0.779900	0.847000	0.108800
H1021	H102	0.799600	0.841900	0.148900
C1561	C156	0.819900	0.997700	0.913300
C1571	C157	0.821100	0.044100	0.820200
H1031	H103	0.865100	0.061900	0.840400
C1581	C158	0.256900	0.263600	0.349800
C1591	C159	0.966700	0.072500	0.034500
C1601	C160	0.264400	0.435200	0.612200
H1041	H104	0.285700	0.441500	0.652200
C1611	C161	0.264500	0.379100	0.526700
C1621	C162	0.474400	0.164900	0.502000
H1051	H105	0.457100	0.169200	0.461900
C1631	C163	0.785300	0.898700	0.023400
C1641	C164	0.296100	0.390500	0.586000
H1061	H106	0.338200	0.368200	0.607700
C1651	C165	0.787700	0.008200	0.849000
C1661	C166	0.814000	0.889700	0.082800
H1071	H107	0.855800	0.912200	0.105300
C1671	C167	0.295000	0.327700	0.496400
C1681	C168	0.526700	0.147200	0.617200
H1081	H108	0.544100	0.139700	0.657000
C1691	C169	0.533000	0.125600	0.532100
H1091	H109	0.555200	0.103200	0.511600
C1701	C170	0.174700	0.459000	0.526600
H1101	H110	0.132400	0.481600	0.506100
C1711	C171	0.692600	0.819300	0.021700
H1111	H111	0.651300	0.794600	0.000700
C1721	C172	0.998000	0.072000	0.094300
H1121	H112	0.980300	0.042300	0.115400
C1731	C173	0.693200	0.995000	0.758400
H1131	H113	0.648900	0.978400	0.737400
C1741	C174	0.285500	0.212000	0.323300
H1141	H114	0.324200	0.182800	0.345000
C1751	C175	0.055900	0.116300	0.121900
H1151	H115	0.075200	0.118300	0.162100
C1761	C176	0.788600	0.053400	0.761000
H1161	H116	0.811500	0.077800	0.741900
C1771	C177	0.722200	0.983200	0.817500
H1171	H117	0.698200	0.959100	0.835700
C1781	C178	0.254500	0.205800	0.264000
H1181	H118	0.273500	0.171300	0.246400
C1791	C179	0.171900	0.291500	0.256800
H1191	H119	0.132700	0.319200	0.234100
C1801	C180	0.197900	0.300900	0.316000
H1201	H120	0.175600	0.332200	0.332500
N491	N49	0.204600	0.469800	0.583500
N501	N50	0.560600	0.117300	0.589000
N511	N51	0.199500	0.245100	0.230300
N521	N52	0.262400	0.322700	0.438500
N531	N53	0.352100	0.289900	0.528700
N541	N54	0.347300	0.233100	0.441800
N551	N55	0.086300	0.156700	0.094200
N561	N56	0.724900	0.028600	0.729700
N571	N57	0.720200	0.813000	0.078800
N581	N58	0.874400	0.987300	0.028200
N591	N59	0.877300	0.036700	0.942700
N601	N60	0.788900	0.950100	0.936500
Ag111	Ag11	0.655730	0.042910	0.632750
Ag121	Ag12	0.677790	0.744920	0.133260
C1811	C181	0.402200	0.529500	0.000600
C1821	C182	0.876300	0.744100	0.498800
C1831	C183	0.222800	0.361600	0.991600
H1211	H121	0.202100	0.365000	0.951500
C1841	C184	0.940400	0.698600	0.531600
C1851	C185	0.318200	0.447500	0.994500
C1861	C186	0.496200	0.615300	0.004900
H1221	H122	0.476300	0.616900	0.964700
C1871	C187	0.702600	0.916400	0.496100
H1231	H123	0.680600	0.912500	0.456000
C1881	C188	0.967100	0.689000	0.589900
H1241	H124	0.945500	0.710200	0.611200
C1891	C189	0.790000	0.773800	0.413600
C1901	C190	0.555900	0.655800	0.036400
H1251	H125	0.575900	0.683800	0.016300
C1911	C191	0.279900	0.347000	0.108800
H1261	H126	0.299600	0.341900	0.148900
C1921	C192	0.319900	0.497700	0.913300
C1931	C193	0.321100	0.544100	0.820200
H1271	H127	0.365100	0.561900	0.840400
C1941	C194	0.756900	0.763600	0.349800
C1951	C195	0.466700	0.572500	0.034500
C1961	C196	0.764400	0.935200	0.612200
H1281	H128	0.785700	0.941500	0.652200
C1971	C197	0.764500	0.879100	0.526700
C1981	C198	0.974400	0.664900	0.502000
H1291	H129	0.957100	0.669200	0.461900
C1991	C199	0.285300	0.398700	0.023400
C2001	C200	0.796100	0.890500	0.586000
H1301	H130	0.838200	0.868200	0.607700
C2011	C201	0.287700	0.508200	0.849000
C2021	C202	0.314000	0.389700	0.082800
H1311	H131	0.355800	0.412200	0.105300
C2031	C203	0.795000	0.827700	0.496400
C2041	C204	0.026700	0.647200	0.617200
H1321	H132	0.044100	0.639700	0.657000
C2051	C205	0.033000	0.625600	0.532100
H1331	H133	0.055200	0.603200	0.511600
C2061	C206	0.674700	0.959000	0.526600
H1341	H134	0.632400	0.981600	0.506100
C2071	C207	0.192600	0.319300	0.021700
H1351	H135	0.151300	0.294600	0.000700
C2081	C208	0.498000	0.572000	0.094300
H1361	H136	0.480300	0.542300	0.115400
C2091	C209	0.193200	0.495000	0.758400
H1371	H137	0.148900	0.478400	0.737400
C2101	C210	0.785500	0.712000	0.323300
H1381	H138	0.824200	0.682800	0.345000
C2111	C211	0.555900	0.616300	0.121900
H1391	H139	0.575200	0.618300	0.162100
C2121	C212	0.288600	0.553400	0.761000
H1401	H140	0.311500	0.577800	0.741900
C2131	C213	0.222200	0.483200	0.817500
H1411	H141	0.198200	0.459100	0.835700
C2141	C214	0.754500	0.705800	0.264000
H1421	H142	0.773500	0.671300	0.246400
C2151	C215	0.671900	0.791500	0.256800
H1431	H143	0.632700	0.819200	0.234100
C2161	C216	0.697900	0.800900	0.316000
H1441	H144	0.675600	0.832200	0.332500
N611	N61	0.704600	0.969800	0.583500
N621	N62	0.060600	0.617300	0.589000
N631	N63	0.699500	0.745100	0.230300
N641	N64	0.762400	0.822700	0.438500
N651	N65	0.852100	0.789900	0.528700
N661	N66	0.847300	0.733100	0.441800
N671	N67	0.586300	0.656700	0.094200
N681	N68	0.224900	0.528600	0.729700
N691	N69	0.220200	0.313000	0.078800
N701	N70	0.374400	0.487300	0.028200
N711	N71	0.377300	0.536700	0.942700
N721	N72	0.288900	0.450100	0.936500
Ag131	Ag13	0.844270	0.542910	0.867250
Ag141	Ag14	0.822210	0.244920	0.366740
C2171	C217	0.097800	0.029500	0.499400
C2181	C218	0.623700	0.244100	0.001200
C2191	C219	0.277200	0.861600	0.508400
H1451	H145	0.297900	0.865000	0.548500
C2201	C220	0.559600	0.198600	0.968400
C2211	C221	0.181800	0.947500	0.505500
C2221	C222	0.003800	0.115300	0.495100
H1461	H146	0.023700	0.116900	0.535300
C2231	C223	0.797400	0.416400	0.003900
H1471	H147	0.819400	0.412500	0.044000
C2241	C224	0.532900	0.189000	0.910100
H1481	H148	0.554500	0.210200	0.888800
C2251	C225	0.710000	0.273800	0.086400
C2261	C226	0.944100	0.155800	0.463600
H1491	H149	0.924100	0.183800	0.483700
C2271	C227	0.220100	0.847000	0.391200
H1501	H150	0.200400	0.841900	0.351100
C2281	C228	0.180100	0.997700	0.586700
C2291	C229	0.178900	0.044100	0.679800
H1511	H151	0.134900	0.061900	0.659600
C2301	C230	0.743100	0.263600	0.150200
C2311	C231	0.033300	0.072500	0.465500
C2321	C232	0.735600	0.435200	0.887800
H1521	H152	0.714300	0.441500	0.847800
C2331	C233	0.735500	0.379100	0.973300
C2341	C234	0.525600	0.164900	0.998000
H1531	H153	0.542900	0.169200	0.038100
C2351	C235	0.214700	0.898700	0.476600
C2361	C236	0.703900	0.390500	0.914000
H1541	H154	0.661800	0.368200	0.892300
C2371	C237	0.212300	0.008200	0.651000
C2381	C238	0.186000	0.889700	0.417200
H1551	H155	0.144200	0.912200	0.394700
C2391	C239	0.705000	0.327700	0.003600
C2401	C240	0.473300	0.147200	0.882800
H1561	H156	0.455900	0.139700	0.843000
C2411	C241	0.467000	0.125600	0.967900
H1571	H157	0.444800	0.103200	0.988400
C2421	C242	0.825300	0.459000	0.973400
H1581	H158	0.867600	0.481600	0.993900
C2431	C243	0.307400	0.819300	0.478300
H1591	H159	0.348700	0.794600	0.499300
C2441	C244	0.002000	0.072000	0.405700
H1601	H160	0.019700	0.042300	0.384600
C2451	C245	0.306800	0.995000	0.741600
H1611	H161	0.351100	0.978400	0.762600
C2461	C246	0.714500	0.212000	0.176700
H1621	H162	0.675800	0.182800	0.155000
C2471	C247	0.944100	0.116300	0.378100
H1631	H163	0.924800	0.118300	0.337900
C2481	C248	0.211400	0.053400	0.739000
H1641	H164	0.188500	0.077800	0.758100
C2491	C249	0.277800	0.983200	0.682500
H1651	H165	0.301800	0.959100	0.664300
C2501	C250	0.745500	0.205800	0.236000
H1661	H166	0.726500	0.171300	0.253600
C2511	C251	0.828100	0.291500	0.243200
H1671	H167	0.867300	0.319200	0.265900
C2521	C252	0.802100	0.300900	0.184000
H1681	H168	0.824400	0.332200	0.167500
N731	N73	0.795400	0.469800	0.916500
N741	N74	0.439400	0.117300	0.911000
N751	N75	0.800500	0.245100	0.269700
N761	N76	0.737600	0.322700	0.061500
N771	N77	0.647900	0.289900	0.971300
N781	N78	0.652700	0.233100	0.058200
N791	N79	0.913700	0.156700	0.405800
N801	N80	0.275100	0.028600	0.770300
N811	N81	0.279800	0.813000	0.421200
N821	N82	0.125600	0.987300	0.471800
N831	N83	0.122700	0.036700	0.557300
N841	N84	0.211100	0.950100	0.563500
Ag151	Ag15	0.344270	0.042910	0.867250
Ag161	Ag16	0.322210	0.744920	0.366740
C2531	C253	0.597800	0.529500	0.499400
C2541	C254	0.123700	0.744100	0.001200
C2551	C255	0.777200	0.361600	0.508400
H1691	H169	0.797900	0.365000	0.548500
C2561	C256	0.059600	0.698600	0.968400
C2571	C257	0.681800	0.447500	0.505500
C2581	C258	0.503800	0.615300	0.495100
H1701	H170	0.523700	0.616900	0.535300
C2591	C259	0.297400	0.916400	0.003900
H1711	H171	0.319400	0.912500	0.044000
C2601	C260	0.032900	0.689000	0.910100
H1721	H172	0.054500	0.710200	0.888800
C2611	C261	0.210000	0.773800	0.086400
C2621	C262	0.444100	0.655800	0.463600
H1731	H173	0.424100	0.683800	0.483700
C2631	C263	0.720100	0.347000	0.391200
H1741	H174	0.700400	0.341900	0.351100
C2641	C264	0.680100	0.497700	0.586700
C2651	C265	0.678900	0.544100	0.679800
H1751	H175	0.634900	0.561900	0.659600
C2661	C266	0.243100	0.763600	0.150200
C2671	C267	0.533300	0.572500	0.465500
C2681	C268	0.235600	0.935200	0.887800
H1761	H176	0.214300	0.941500	0.847800
C2691	C269	0.235500	0.879100	0.973300
C2701	C270	0.025600	0.664900	0.998000
H1771	H177	0.042900	0.669200	0.038100
C2711	C271	0.714700	0.398700	0.476600
C2721	C272	0.203900	0.890500	0.914000
H1781	H178	0.161800	0.868200	0.892300
C2731	C273	0.712300	0.508200	0.651000
C2741	C274	0.686000	0.389700	0.417200
H1791	H179	0.644200	0.412200	0.394700
C2751	C275	0.205000	0.827700	0.003600
C2761	C276	0.973300	0.647200	0.882800
H1801	H180	0.955900	0.639700	0.843000
C2771	C277	0.967000	0.625600	0.967900
H1811	H181	0.944800	0.603200	0.988400
C2781	C278	0.325300	0.959000	0.973400
H1821	H182	0.367600	0.981600	0.993900
C2791	C279	0.807400	0.319300	0.478300
H1831	H183	0.848700	0.294600	0.499300
C2801	C280	0.502000	0.572000	0.405700
H1841	H184	0.519700	0.542300	0.384600
C2811	C281	0.806800	0.495000	0.741600
H1851	H185	0.851100	0.478400	0.762600
C2821	C282	0.214500	0.712000	0.176700
H1861	H186	0.175800	0.682800	0.155000
C2831	C283	0.444100	0.616300	0.378100
H1871	H187	0.424800	0.618300	0.337900
C2841	C284	0.711400	0.553400	0.739000
H1881	H188	0.688500	0.577800	0.758100
C2851	C285	0.777800	0.483200	0.682500
H1891	H189	0.801800	0.459100	0.664300
C2861	C286	0.245500	0.705800	0.236000
H1901	H190	0.226500	0.671300	0.253600
C2871	C287	0.328100	0.791500	0.243200
H1911	H191	0.367300	0.819200	0.265900
C2881	C288	0.302100	0.800900	0.184000
H1921	H192	0.324400	0.832200	0.167500
N851	N85	0.295400	0.969800	0.916500
N861	N86	0.939400	0.617300	0.911000
N871	N87	0.300500	0.745100	0.269700
N881	N88	0.237600	0.822700	0.061500
N891	N89	0.147900	0.789900	0.971300
N901	N90	0.152700	0.733100	0.058200
N911	N91	0.413700	0.656700	0.405800
N921	N92	0.775100	0.528600	0.770300
N931	N93	0.779800	0.313000	0.421200
N941	N94	0.625600	0.487300	0.471800
N951	N95	0.622700	0.536700	0.557300
N961	N96	0.711100	0.450100	0.563500
