data_QOHTUD_clean_PM
_symmetry_space_group_name_H-M	'P1'
_cell_length_a	9.404400
_cell_length_b	13.125700
_cell_length_c	19.889900
_cell_angle_alpha	109.266000
_cell_angle_beta	102.466000
_cell_angle_gamma	90.000000
_symmetry_Int_Tables_number 1

loop_
_symmetry_equiv_pos_as_xyz
'x,y,z'

loop_
_atom_site_label
_atom_site_type_symbol
_atom_site_fract_x
_atom_site_fract_y
_atom_site_fract_z
Co11	Co1	0.175720	0.142900	0.725020
Co21	Co2	0.324280	0.417880	0.274980
Co31	Co3	0.824280	0.857100	0.274980
Co41	Co4	0.675720	0.582120	0.725020
H11	H1	0.859300	0.175400	0.742400
H21	H2	0.623500	0.132200	0.675800
H31	H3	0.779800	0.979500	0.497800
H41	H4	0.010300	0.026800	0.569600
H51	H5	0.150400	0.230300	0.887000
H61	H6	0.087600	0.173900	0.974600
H71	H7	0.021300	0.872300	0.831800
H81	H8	0.078600	0.937300	0.746800
H91	H9	0.446800	0.043700	0.561800
H101	H10	0.980900	0.896900	0.950800
H111	H11	0.441500	0.309700	0.581600
H121	H12	0.160600	0.212000	0.520800
H131	H13	0.059800	0.212200	0.394600
H141	H14	0.345900	0.297800	0.453000
H151	H15	0.640700	0.433000	0.257600
H161	H16	0.876500	0.456400	0.324200
H171	H17	0.720200	0.481700	0.502200
H181	H18	0.489700	0.457200	0.430400
H191	H19	0.349600	0.343300	0.113000
H201	H20	0.412400	0.199300	0.025400
H211	H21	0.478700	0.040500	0.168200
H221	H22	0.421400	0.190500	0.253200
H231	H23	0.053200	0.481900	0.438200
H241	H24	0.519100	0.946100	0.049200
H251	H25	0.058500	0.728100	0.418400
H261	H26	0.339400	0.691200	0.479200
H271	H27	0.440200	0.817600	0.605400
H281	H28	0.154100	0.844800	0.547000
H291	H29	0.140700	0.824600	0.257600
H301	H30	0.376500	0.867800	0.324200
H311	H31	0.220200	0.020500	0.502200
H321	H32	0.989700	0.973200	0.430400
H331	H33	0.849600	0.769700	0.113000
H341	H34	0.912400	0.826100	0.025400
H351	H35	0.978700	0.127700	0.168200
H361	H36	0.921400	0.062700	0.253200
H371	H37	0.553200	0.956300	0.438200
H381	H38	0.019100	0.103100	0.049200
H391	H39	0.558500	0.690300	0.418400
H401	H40	0.839400	0.788000	0.479200
H411	H41	0.940200	0.787800	0.605400
H421	H42	0.654100	0.702200	0.547000
H431	H43	0.359300	0.567000	0.742400
H441	H44	0.123500	0.543600	0.675800
H451	H45	0.279800	0.518300	0.497800
H461	H46	0.510300	0.542800	0.569600
H471	H47	0.650400	0.656700	0.887000
H481	H48	0.587600	0.800700	0.974600
H491	H49	0.521300	0.959500	0.831800
H501	H50	0.578600	0.809500	0.746800
H511	H51	0.946800	0.518100	0.561800
H521	H52	0.480900	0.053900	0.950800
H531	H53	0.941500	0.271900	0.581600
H541	H54	0.660600	0.308800	0.520800
H551	H55	0.559800	0.182400	0.394600
H561	H56	0.845900	0.155200	0.453000
C11	C1	0.842400	0.135340	0.692280
C21	C2	0.700800	0.109730	0.652660
C31	C3	0.671200	0.050400	0.578140
C41	C4	0.793100	0.019660	0.547720
C51	C5	0.930600	0.048460	0.591120
C61	C6	0.122600	0.156510	0.875220
C71	C7	0.085700	0.123230	0.928260
C81	C8	0.045900	0.015620	0.913640
C91	C9	0.046000	0.946650	0.844500
C101	C10	0.081900	0.986160	0.793920
C111	C11	0.520800	0.024340	0.535880
C121	C12	0.004100	0.972080	0.966560
C131	C13	0.339200	0.252810	0.648060
C141	C14	0.353800	0.274920	0.581120
C151	C15	0.247300	0.247380	0.520520
C161	C16	0.156500	0.282920	0.332840
C171	C17	0.146800	0.248970	0.396140
C181	C18	0.256200	0.268280	0.454600
C191	C19	0.657600	0.443060	0.307720
C201	C20	0.799200	0.457070	0.347340
C211	C21	0.828800	0.472260	0.421860
C221	C22	0.706900	0.471940	0.452280
C231	C23	0.569400	0.457340	0.408880
C241	C24	0.377400	0.281290	0.124780
C251	C25	0.414300	0.194970	0.071740
C261	C26	0.454100	0.101980	0.086360
C271	C27	0.454000	0.102150	0.155500
C281	C28	0.418100	0.192240	0.206080
C291	C29	0.979200	0.488460	0.464120
C301	C30	0.495900	0.005520	0.033440
C311	C31	0.160800	0.604750	0.351940
C321	C32	0.146200	0.693800	0.418880
C331	C33	0.252700	0.726860	0.479480
C341	C34	0.343500	0.950080	0.667160
C351	C35	0.353200	0.852830	0.603860
C361	C36	0.243800	0.813680	0.545400
C371	C37	0.157600	0.864660	0.307720
C381	C38	0.299200	0.890270	0.347340
C391	C39	0.328800	0.949600	0.421860
C401	C40	0.206900	0.980340	0.452280
C411	C41	0.069400	0.951540	0.408880
C421	C42	0.877400	0.843490	0.124780
C431	C43	0.914300	0.876770	0.071740
C441	C44	0.954100	0.984380	0.086360
C451	C45	0.954000	0.053350	0.155500
C461	C46	0.918100	0.013840	0.206080
C471	C47	0.479200	0.975660	0.464120
C481	C48	0.995900	0.027920	0.033440
C491	C49	0.660800	0.747190	0.351940
C501	C50	0.646200	0.725080	0.418880
C511	C51	0.752700	0.752620	0.479480
C521	C52	0.843500	0.717080	0.667160
C531	C53	0.853200	0.751030	0.603860
C541	C54	0.743800	0.731720	0.545400
C551	C55	0.342400	0.556940	0.692280
C561	C56	0.200800	0.542930	0.652660
C571	C57	0.171200	0.527740	0.578140
C581	C58	0.293100	0.528060	0.547720
C591	C59	0.430600	0.542660	0.591120
C601	C60	0.622600	0.718710	0.875220
C611	C61	0.585700	0.805030	0.928260
C621	C62	0.545900	0.898020	0.913640
C631	C63	0.546000	0.897850	0.844500
C641	C64	0.581900	0.807760	0.793920
C651	C65	0.020800	0.511540	0.535880
C661	C66	0.504100	0.994480	0.966560
C671	C67	0.839200	0.395250	0.648060
C681	C68	0.853800	0.306200	0.581120
C691	C69	0.747300	0.273140	0.520520
C701	C70	0.656500	0.049920	0.332840
C711	C71	0.646800	0.147170	0.396140
C721	C72	0.756200	0.186320	0.454600
N11	N1	0.958200	0.105920	0.662760
N21	N2	0.121100	0.090060	0.808100
N31	N3	0.541800	0.443160	0.337240
N41	N4	0.378900	0.281960	0.191900
N51	N5	0.041800	0.894080	0.337240
N61	N6	0.878900	0.909940	0.191900
N71	N7	0.458200	0.556840	0.662760
N81	N8	0.621100	0.718040	0.808100
O11	O1	0.231200	0.192410	0.643740
O21	O2	0.438500	0.294660	0.705200
O31	O3	0.279400	0.321410	0.332640
O41	O4	0.040200	0.275100	0.285260
O51	O5	0.268800	0.548670	0.356260
O61	O6	0.061500	0.589460	0.294800
O71	O7	0.220600	0.988770	0.667360
O81	O8	0.459800	0.989840	0.714740
O91	O9	0.768800	0.807590	0.356260
O101	O10	0.561500	0.705340	0.294800
O111	O11	0.720600	0.678590	0.667360
O121	O12	0.959800	0.724900	0.714740
O131	O13	0.731200	0.451330	0.643740
O141	O14	0.938500	0.410540	0.705200
O151	O15	0.779400	0.011230	0.332640
O161	O16	0.540200	0.010160	0.285260
