data_QOJKAB_clean_PM
_symmetry_space_group_name_H-M	'P1'
_cell_length_a	9.093100
_cell_length_b	9.093100
_cell_length_c	38.333000
_cell_angle_alpha	90.000000
_cell_angle_beta	90.000000
_cell_angle_gamma	90.000000
_symmetry_Int_Tables_number 1

loop_
_symmetry_equiv_pos_as_xyz
'x,y,z'

loop_
_atom_site_label
_atom_site_type_symbol
_atom_site_fract_x
_atom_site_fract_y
_atom_site_fract_z
Zn11	Zn1	0.750850	0.251630	0.916270
C11	C1	0.519730	0.182080	0.868740
C21	C2	0.750070	0.006060	0.963900
C31	C3	0.703080	0.508020	0.952880
O11	O1	0.652210	0.442840	0.924890
O21	O2	0.661440	0.198560	0.871680
O31	O3	0.462370	0.231840	0.840050
O41	O4	0.696610	0.135090	0.956780
O51	O5	0.648510	0.638300	0.959460
O61	O6	0.695960	0.945010	0.991540
O71	O7	0.444480	0.119580	0.891670
O81	O8	0.848570	0.946390	0.945730
O91	O9	0.796500	0.448780	0.971910
Zn21	Zn2	0.249150	0.748370	0.416270
C41	C4	0.480270	0.817920	0.368740
C51	C5	0.249930	0.993940	0.463900
C61	C6	0.296920	0.491980	0.452880
O101	O10	0.347790	0.557160	0.424890
O111	O11	0.338560	0.801440	0.371680
O121	O12	0.537630	0.768160	0.340050
O131	O13	0.303390	0.864910	0.456780
O141	O14	0.351490	0.361700	0.459460
O151	O15	0.304040	0.054990	0.491540
O161	O16	0.555520	0.880420	0.391670
O171	O17	0.151430	0.053610	0.445730
O181	O18	0.203500	0.551220	0.471910
Zn31	Zn3	0.248370	0.250850	0.166270
C71	C7	0.317920	0.019730	0.118740
C81	C8	0.493940	0.250070	0.213900
C91	C9	0.991980	0.203080	0.202880
O191	O19	0.057160	0.152210	0.174890
O201	O20	0.301440	0.161440	0.121680
O211	O21	0.268160	0.962370	0.090050
O221	O22	0.364910	0.196610	0.206780
O231	O23	0.861700	0.148510	0.209460
O241	O24	0.554990	0.195960	0.241540
O251	O25	0.380420	0.944480	0.141670
O261	O26	0.553610	0.348570	0.195730
O271	O27	0.051220	0.296500	0.221910
Zn41	Zn4	0.751630	0.749150	0.666270
C101	C10	0.682080	0.980270	0.618740
C111	C11	0.506060	0.749930	0.713900
C121	C12	0.008020	0.796920	0.702880
O281	O28	0.942840	0.847790	0.674890
O291	O29	0.698560	0.838560	0.621680
O301	O30	0.731840	0.037630	0.590050
O311	O31	0.635090	0.803390	0.706780
O321	O32	0.138300	0.851490	0.709460
O331	O33	0.445010	0.804040	0.741540
O341	O34	0.619580	0.055520	0.641670
O351	O35	0.446390	0.651430	0.695730
O361	O36	0.948780	0.703500	0.721910
Zn51	Zn5	0.749150	0.751630	0.333730
C131	C13	0.980270	0.682080	0.381260
C141	C14	0.749930	0.506060	0.286100
C151	C15	0.796920	0.008020	0.297120
O371	O37	0.847790	0.942840	0.325110
O381	O38	0.838560	0.698560	0.378320
O391	O39	0.037630	0.731840	0.409950
O401	O40	0.803390	0.635090	0.293220
O411	O41	0.851490	0.138300	0.290540
O421	O42	0.804040	0.445010	0.258460
O431	O43	0.055520	0.619580	0.358330
O441	O44	0.651430	0.446390	0.304270
O451	O45	0.703500	0.948780	0.278090
Zn61	Zn6	0.250850	0.248370	0.833730
C161	C16	0.019730	0.317920	0.881260
C171	C17	0.250070	0.493940	0.786100
C181	C18	0.203080	0.991980	0.797120
O461	O46	0.152210	0.057160	0.825110
O471	O47	0.161440	0.301440	0.878320
O481	O48	0.962370	0.268160	0.909950
O491	O49	0.196610	0.364910	0.793220
O501	O50	0.148510	0.861700	0.790540
O511	O51	0.195960	0.554990	0.758460
O521	O52	0.944480	0.380420	0.858330
O531	O53	0.348570	0.553610	0.804270
O541	O54	0.296500	0.051220	0.778090
Zn71	Zn7	0.251630	0.750850	0.083730
C191	C19	0.182080	0.519730	0.131260
C201	C20	0.006060	0.750070	0.036100
C211	C21	0.508020	0.703080	0.047120
O551	O55	0.442840	0.652210	0.075110
O561	O56	0.198560	0.661440	0.128320
O571	O57	0.231840	0.462370	0.159950
O581	O58	0.135090	0.696610	0.043220
O591	O59	0.638300	0.648510	0.040540
O601	O60	0.945010	0.695960	0.008460
O611	O61	0.119580	0.444480	0.108330
O621	O62	0.946390	0.848570	0.054270
O631	O63	0.448780	0.796500	0.028090
Zn81	Zn8	0.748370	0.249150	0.583730
C221	C22	0.817920	0.480270	0.631260
C231	C23	0.993940	0.249930	0.536100
C241	C24	0.491980	0.296920	0.547120
O641	O64	0.557160	0.347790	0.575110
O651	O65	0.801440	0.338560	0.628320
O661	O66	0.768160	0.537630	0.659950
O671	O67	0.864910	0.303390	0.543220
O681	O68	0.361700	0.351490	0.540540
O691	O69	0.054990	0.304040	0.508460
O701	O70	0.880420	0.555520	0.608330
O711	O71	0.053610	0.151430	0.554270
O721	O72	0.551220	0.203500	0.528090
Zn91	Zn9	0.738050	0.738050	0.000000
Zn101	Zn10	0.261950	0.261950	0.500000
Zn111	Zn11	0.761950	0.238050	0.250000
Zn121	Zn12	0.238050	0.761950	0.750000
