data_QOJYEV_clean_PM
_symmetry_space_group_name_H-M	'P1'
_cell_length_a	7.510600
_cell_length_b	31.195900
_cell_length_c	10.553700
_cell_angle_alpha	90.000000
_cell_angle_beta	118.658000
_cell_angle_gamma	90.000000
_symmetry_Int_Tables_number 1

loop_
_symmetry_equiv_pos_as_xyz
'x,y,z'

loop_
_atom_site_label
_atom_site_type_symbol
_atom_site_fract_x
_atom_site_fract_y
_atom_site_fract_z
C11	C1	0.953600	0.087030	0.524800
C21	C2	0.848400	0.049760	0.499700
H11	H1	0.731200	0.043000	0.411200
C31	C3	0.093200	0.044610	0.719300
C41	C4	0.234200	0.033100	0.862200
H21	H2	0.227000	0.005900	0.899800
C51	C5	0.379700	0.061570	0.944400
H31	H3	0.476800	0.054100	0.040300
C61	C6	0.389000	0.101780	0.890100
H41	H4	0.490800	0.121500	0.950600
C71	C7	0.256500	0.113230	0.753600
H51	H5	0.263300	0.140800	0.718000
C81	C8	0.327400	0.922050	0.269500
C91	C9	0.195800	0.934040	0.127500
H61	H6	0.205200	0.962000	0.095500
C101	C10	0.050600	0.905560	0.032000
C111	C11	0.036700	0.864960	0.080600
H71	H7	0.935900	0.845600	0.017000
C121	C12	0.169600	0.852370	0.222300
C131	C13	0.317400	0.880640	0.315700
H81	H8	0.411300	0.871800	0.410800
C141	C14	0.478800	0.953270	0.371000
C151	C15	0.153800	0.808540	0.274900
C161	C16	0.034100	0.179140	0.329800
H91	H9	0.143400	0.195100	0.332300
C171	C17	0.077200	0.146180	0.425100
H101	H10	0.214200	0.138900	0.489700
C181	C18	0.919100	0.123160	0.427200
C191	C19	0.719400	0.134260	0.326100
H111	H11	0.607300	0.119200	0.322800
C201	C20	0.689800	0.167550	0.231700
H121	H12	0.554500	0.174900	0.163200
C211	C21	0.906100	0.918750	0.879700
N11	N1	0.930500	0.023270	0.615900
N21	N2	0.110300	0.083980	0.666200
N31	N3	0.841800	0.190060	0.231600
O11	O1	0.629300	0.937860	0.481900
O21	O2	0.449100	0.992940	0.344700
O31	O3	0.964400	0.951800	0.836400
O41	O4	0.748900	0.898700	0.806600
O51	O5	0.283000	0.797570	0.402400
O61	O6	0.013900	0.783530	0.194300
Zn11	Zn1	0.780980	0.974940	0.650100
Zn21	Zn2	0.195960	0.737850	0.409210
C221	C22	0.046400	0.587030	0.975200
C231	C23	0.151600	0.549760	0.000300
H131	H13	0.268800	0.543000	0.088800
C241	C24	0.906800	0.544610	0.780700
C251	C25	0.765800	0.533100	0.637800
H141	H14	0.773000	0.505900	0.600200
C261	C26	0.620300	0.561570	0.555600
H151	H15	0.523200	0.554100	0.459700
C271	C27	0.611000	0.601780	0.609900
H161	H16	0.509200	0.621500	0.549400
C281	C28	0.743500	0.613230	0.746400
H171	H17	0.736700	0.640800	0.782000
C291	C29	0.672600	0.422050	0.230500
C301	C30	0.804200	0.434040	0.372500
H181	H18	0.794800	0.462000	0.404500
C311	C31	0.949400	0.405560	0.468000
C321	C32	0.963300	0.364960	0.419400
H191	H19	0.064100	0.345600	0.483000
C331	C33	0.830400	0.352370	0.277700
C341	C34	0.682600	0.380640	0.184300
H201	H20	0.588700	0.371800	0.089200
C351	C35	0.521200	0.453270	0.129000
C361	C36	0.846200	0.308540	0.225100
C371	C37	0.965900	0.679140	0.170200
H211	H21	0.856600	0.695100	0.167700
C381	C38	0.922800	0.646180	0.074900
H221	H22	0.785800	0.638900	0.010300
C391	C39	0.080900	0.623160	0.072800
C401	C40	0.280600	0.634260	0.173900
H231	H23	0.392700	0.619200	0.177200
C411	C41	0.310200	0.667550	0.268300
H241	H24	0.445500	0.674900	0.336800
C421	C42	0.093900	0.418750	0.620300
N41	N4	0.069500	0.523270	0.884100
N51	N5	0.889700	0.583980	0.833800
N61	N6	0.158200	0.690060	0.268400
O71	O7	0.370700	0.437860	0.018100
O81	O8	0.550900	0.492940	0.155300
O91	O9	0.035600	0.451800	0.663600
O101	O10	0.251100	0.398700	0.693400
O111	O11	0.717000	0.297570	0.097600
O121	O12	0.986100	0.283530	0.305700
Zn31	Zn3	0.219020	0.474940	0.849900
Zn41	Zn4	0.804040	0.237850	0.090790
C431	C43	0.046400	0.912970	0.475200
C441	C44	0.151600	0.950240	0.500300
H251	H25	0.268800	0.957000	0.588800
C451	C45	0.906800	0.955390	0.280700
C461	C46	0.765800	0.966900	0.137800
H261	H26	0.773000	0.994100	0.100200
C471	C47	0.620300	0.938430	0.055600
H271	H27	0.523200	0.945900	0.959700
C481	C48	0.611000	0.898220	0.109900
H281	H28	0.509200	0.878500	0.049400
C491	C49	0.743500	0.886770	0.246400
H291	H29	0.736700	0.859200	0.282000
C501	C50	0.672600	0.077950	0.730500
C511	C51	0.804200	0.065960	0.872500
H301	H30	0.794800	0.038000	0.904500
C521	C52	0.949400	0.094440	0.968000
C531	C53	0.963300	0.135040	0.919400
H311	H31	0.064100	0.154400	0.983000
C541	C54	0.830400	0.147630	0.777700
C551	C55	0.682600	0.119360	0.684300
H321	H32	0.588700	0.128200	0.589200
C561	C56	0.521200	0.046730	0.629000
C571	C57	0.846200	0.191460	0.725100
C581	C58	0.965900	0.820860	0.670200
H331	H33	0.856600	0.804900	0.667700
C591	C59	0.922800	0.853820	0.574900
H341	H34	0.785800	0.861100	0.510300
C601	C60	0.080900	0.876840	0.572800
C611	C61	0.280600	0.865740	0.673900
H351	H35	0.392700	0.880800	0.677200
C621	C62	0.310200	0.832450	0.768300
H361	H36	0.445500	0.825100	0.836800
C631	C63	0.093900	0.081250	0.120300
N71	N7	0.069500	0.976730	0.384100
N81	N8	0.889700	0.916020	0.333800
N91	N9	0.158200	0.809940	0.768400
O131	O13	0.370700	0.062140	0.518100
O141	O14	0.550900	0.007060	0.655300
O151	O15	0.035600	0.048200	0.163600
O161	O16	0.251100	0.101300	0.193400
O171	O17	0.717000	0.202430	0.597600
O181	O18	0.986100	0.216470	0.805700
Zn51	Zn5	0.219020	0.025060	0.349900
Zn61	Zn6	0.804040	0.262150	0.590790
C641	C64	0.953600	0.412970	0.024800
C651	C65	0.848400	0.450240	0.999700
H371	H37	0.731200	0.457000	0.911200
C661	C66	0.093200	0.455390	0.219300
C671	C67	0.234200	0.466900	0.362200
H381	H38	0.227000	0.494100	0.399800
C681	C68	0.379700	0.438430	0.444400
H391	H39	0.476800	0.445900	0.540300
C691	C69	0.389000	0.398220	0.390100
H401	H40	0.490800	0.378500	0.450600
C701	C70	0.256500	0.386770	0.253600
H411	H41	0.263300	0.359200	0.218000
C711	C71	0.327400	0.577950	0.769500
C721	C72	0.195800	0.565960	0.627500
H421	H42	0.205200	0.538000	0.595500
C731	C73	0.050600	0.594440	0.532000
C741	C74	0.036700	0.635040	0.580600
H431	H43	0.935900	0.654400	0.517000
C751	C75	0.169600	0.647630	0.722300
C761	C76	0.317400	0.619360	0.815700
H441	H44	0.411300	0.628200	0.910800
C771	C77	0.478800	0.546730	0.871000
C781	C78	0.153800	0.691460	0.774900
C791	C79	0.034100	0.320860	0.829800
H451	H45	0.143400	0.304900	0.832300
C801	C80	0.077200	0.353820	0.925100
H461	H46	0.214200	0.361100	0.989700
C811	C81	0.919100	0.376840	0.927200
C821	C82	0.719400	0.365740	0.826100
H471	H47	0.607300	0.380800	0.822800
C831	C83	0.689800	0.332450	0.731700
H481	H48	0.554500	0.325100	0.663200
C841	C84	0.906100	0.581250	0.379700
N101	N10	0.930500	0.476730	0.115900
N111	N11	0.110300	0.416020	0.166200
N121	N12	0.841800	0.309940	0.731600
O191	O19	0.629300	0.562140	0.981900
O201	O20	0.449100	0.507060	0.844700
O211	O21	0.964400	0.548200	0.336400
O221	O22	0.748900	0.601300	0.306600
O231	O23	0.283000	0.702430	0.902400
O241	O24	0.013900	0.716470	0.694300
Zn71	Zn7	0.780980	0.525060	0.150100
Zn81	Zn8	0.195960	0.762150	0.909210
