data_QOMRUH_clean_PM
_symmetry_space_group_name_H-M	'P1'
_cell_length_a	13.244000
_cell_length_b	14.521000
_cell_length_c	15.695000
_cell_angle_alpha	90.000000
_cell_angle_beta	92.746000
_cell_angle_gamma	90.000000
_symmetry_Int_Tables_number 1

loop_
_symmetry_equiv_pos_as_xyz
'x,y,z'

loop_
_atom_site_label
_atom_site_type_symbol
_atom_site_fract_x
_atom_site_fract_y
_atom_site_fract_z
Cu11	Cu1	0.529730	0.200300	0.390050
C11	C1	0.824700	0.852700	0.126600
H11	H1	0.846400	0.869800	0.073400
C21	C2	0.758400	0.910200	0.165300
H21	H2	0.737800	0.965300	0.139700
C31	C3	0.723500	0.884600	0.242500
C41	C4	0.758700	0.802100	0.278300
H31	H3	0.736900	0.782700	0.330800
C51	C5	0.826000	0.749700	0.235300
H41	H4	0.849100	0.694800	0.259500
C61	C6	0.655800	0.943200	0.290600
C71	C7	0.091000	0.826700	0.216100
H51	H5	0.058100	0.870500	0.181600
C81	C8	0.164300	0.857300	0.275800
H61	H6	0.184500	0.918700	0.276400
C91	C9	0.205300	0.798100	0.332200
C101	C10	0.174200	0.709200	0.326400
H71	H7	0.198800	0.665900	0.365900
C111	C11	0.105700	0.683300	0.261300
H81	H8	0.087100	0.621700	0.256700
C121	C12	0.283200	0.828200	0.397000
N11	N1	0.859400	0.775200	0.159500
N21	N2	0.633400	0.031000	0.270800
N31	N3	0.576300	0.058700	0.334200
N41	N4	0.565600	0.989500	0.387000
N51	N5	0.614300	0.915900	0.362000
N61	N6	0.065800	0.742700	0.205500
N71	N7	0.331400	0.907800	0.393900
N81	N8	0.394200	0.905400	0.462000
N91	N9	0.383600	0.828400	0.504000
N101	N10	0.312700	0.776300	0.464100
N111	N11	0.420000	0.131300	0.441900
N121	N12	0.339800	0.153100	0.443700
N131	N13	0.250900	0.162900	0.433400
Cu21	Cu2	0.970270	0.700300	0.109950
C131	C13	0.675300	0.352700	0.373400
H91	H9	0.653600	0.369800	0.426600
C141	C14	0.741600	0.410200	0.334700
H101	H10	0.762200	0.465300	0.360300
C151	C15	0.776500	0.384600	0.257500
C161	C16	0.741300	0.302100	0.221700
H111	H11	0.763100	0.282700	0.169200
C171	C17	0.674000	0.249700	0.264700
H121	H12	0.650900	0.194800	0.240500
C181	C18	0.844200	0.443200	0.209400
C191	C19	0.409000	0.326700	0.283900
H131	H13	0.441900	0.370500	0.318400
C201	C20	0.335700	0.357300	0.224200
H141	H14	0.315500	0.418700	0.223600
C211	C21	0.294700	0.298100	0.167800
C221	C22	0.325800	0.209200	0.173600
H151	H15	0.301200	0.165900	0.134100
C231	C23	0.394300	0.183300	0.238700
H161	H16	0.412900	0.121700	0.243300
C241	C24	0.216800	0.328200	0.103000
N141	N14	0.640600	0.275200	0.340500
N151	N15	0.866600	0.531000	0.229200
N161	N16	0.923700	0.558700	0.165800
N171	N17	0.934400	0.489500	0.113000
N181	N18	0.885700	0.415900	0.138000
N191	N19	0.434200	0.242700	0.294500
N201	N20	0.168600	0.407800	0.106100
N211	N21	0.105800	0.405400	0.038000
N221	N22	0.116400	0.328400	0.996000
N231	N23	0.187300	0.276300	0.035900
N241	N24	0.080000	0.631300	0.058100
N251	N25	0.160200	0.653100	0.056300
N261	N26	0.249100	0.662900	0.066600
Cu31	Cu3	0.470270	0.799700	0.609950
C251	C25	0.175300	0.147300	0.873400
H171	H17	0.153600	0.130200	0.926600
C261	C26	0.241600	0.089800	0.834700
H181	H18	0.262200	0.034700	0.860300
C271	C27	0.276500	0.115400	0.757500
C281	C28	0.241300	0.197900	0.721700
H191	H19	0.263100	0.217300	0.669200
C291	C29	0.174000	0.250300	0.764700
H201	H20	0.150900	0.305200	0.740500
C301	C30	0.344200	0.056800	0.709400
C311	C31	0.909000	0.173300	0.783900
H211	H21	0.941900	0.129500	0.818400
C321	C32	0.835700	0.142700	0.724200
H221	H22	0.815500	0.081300	0.723600
C331	C33	0.794700	0.201900	0.667800
C341	C34	0.825800	0.290800	0.673600
H231	H23	0.801200	0.334100	0.634100
C351	C35	0.894300	0.316700	0.738700
H241	H24	0.912900	0.378300	0.743300
C361	C36	0.716800	0.171800	0.603000
N271	N27	0.140600	0.224800	0.840500
N281	N28	0.366600	0.969000	0.729200
N291	N29	0.423700	0.941300	0.665800
N301	N30	0.434400	0.010500	0.613000
N311	N31	0.385700	0.084100	0.638000
N321	N32	0.934200	0.257300	0.794500
N331	N33	0.668600	0.092200	0.606100
N341	N34	0.605800	0.094600	0.538000
N351	N35	0.616400	0.171600	0.496000
N361	N36	0.687300	0.223700	0.535900
N371	N37	0.580000	0.868700	0.558100
N381	N38	0.660200	0.846900	0.556300
N391	N39	0.749100	0.837100	0.566600
Cu41	Cu4	0.029730	0.299700	0.890050
C371	C37	0.324700	0.647300	0.626600
H251	H25	0.346400	0.630200	0.573400
C381	C38	0.258400	0.589800	0.665300
H261	H26	0.237800	0.534700	0.639700
C391	C39	0.223500	0.615400	0.742500
C401	C40	0.258700	0.697900	0.778300
H271	H27	0.236900	0.717300	0.830800
C411	C41	0.326000	0.750300	0.735300
H281	H28	0.349100	0.805200	0.759500
C421	C42	0.155800	0.556800	0.790600
C431	C43	0.591000	0.673300	0.716100
H291	H29	0.558100	0.629500	0.681600
C441	C44	0.664300	0.642700	0.775800
H301	H30	0.684500	0.581300	0.776400
C451	C45	0.705300	0.701900	0.832200
C461	C46	0.674200	0.790800	0.826400
H311	H31	0.698800	0.834100	0.865900
C471	C47	0.605700	0.816700	0.761300
H321	H32	0.587100	0.878300	0.756700
C481	C48	0.783200	0.671800	0.897000
N401	N40	0.359400	0.724800	0.659500
N411	N41	0.133400	0.469000	0.770800
N421	N42	0.076300	0.441300	0.834200
N431	N43	0.065600	0.510500	0.887000
N441	N44	0.114300	0.584100	0.862000
N451	N45	0.565800	0.757300	0.705500
N461	N46	0.831400	0.592200	0.893900
N471	N47	0.894200	0.594600	0.962000
N481	N48	0.883600	0.671600	0.004000
N491	N49	0.812700	0.723700	0.964100
N501	N50	0.920000	0.368700	0.941900
N511	N51	0.839800	0.346900	0.943700
N521	N52	0.750900	0.337100	0.933400
Cu51	Cu5	0.500000	0.000000	0.500000
Cu61	Cu6	0.000000	0.500000	0.000000
