data_QONKUB_clean_PM
_symmetry_space_group_name_H-M	'P1'
_cell_length_a	13.261000
_cell_length_b	15.134000
_cell_length_c	15.547000
_cell_angle_alpha	90.000000
_cell_angle_beta	93.449000
_cell_angle_gamma	90.000000
_symmetry_Int_Tables_number 1

loop_
_symmetry_equiv_pos_as_xyz
'x,y,z'

loop_
_atom_site_label
_atom_site_type_symbol
_atom_site_fract_x
_atom_site_fract_y
_atom_site_fract_z
Cu11	Cu1	0.949710	0.188750	0.102400
C11	C1	0.583600	0.322900	0.760400
H11	H1	0.559700	0.380600	0.762500
C21	C2	0.652700	0.294400	0.823800
H21	H2	0.674900	0.332800	0.867700
C31	C3	0.688800	0.210100	0.822600
C41	C4	0.654400	0.155600	0.754700
H31	H3	0.677300	0.097800	0.750700
C51	C5	0.585900	0.189600	0.694200
H41	H4	0.563300	0.153100	0.648900
C61	C6	0.763200	0.176800	0.886600
C71	C7	0.311100	0.258000	0.730500
H51	H5	0.329100	0.312900	0.753400
C81	C8	0.250600	0.204700	0.776200
H61	H6	0.226500	0.224800	0.827700
C91	C9	0.225200	0.122000	0.746600
C101	C10	0.261100	0.097600	0.667500
H71	H7	0.245100	0.042800	0.643300
C111	C11	0.320400	0.156200	0.626200
H81	H8	0.344500	0.138500	0.574000
C121	C12	0.163800	0.062500	0.794300
N11	N1	0.549800	0.270900	0.696000
N21	N2	0.794300	0.221400	0.957900
N31	N3	0.860300	0.166700	0.995400
N41	N4	0.871400	0.093000	0.951300
N51	N5	0.808200	0.098000	0.880900
N61	N6	0.345800	0.235200	0.654600
N71	N7	0.116000	0.087300	0.864000
N81	N8	0.072500	0.014200	0.890400
N91	N9	0.093200	0.946900	0.840100
N101	N10	0.151700	0.975800	0.778100
N111	N11	0.055000	0.117100	0.050100
N121	N12	0.142600	0.133700	0.057800
N131	N13	0.225100	0.151700	0.064300
Cu21	Cu2	0.550290	0.688750	0.397600
C131	C13	0.916400	0.822900	0.739600
H91	H9	0.940300	0.880600	0.737500
C141	C14	0.847300	0.794400	0.676200
H101	H10	0.825100	0.832800	0.632300
C151	C15	0.811200	0.710100	0.677400
C161	C16	0.845600	0.655600	0.745300
H111	H11	0.822700	0.597800	0.749300
C171	C17	0.914100	0.689600	0.805800
H121	H12	0.936700	0.653100	0.851100
C181	C18	0.736800	0.676800	0.613400
C191	C19	0.188900	0.758000	0.769500
H131	H13	0.170900	0.812900	0.746600
C201	C20	0.249400	0.704700	0.723800
H141	H14	0.273500	0.724800	0.672300
C211	C21	0.274800	0.622000	0.753400
C221	C22	0.238900	0.597600	0.832500
H151	H15	0.254900	0.542800	0.856700
C231	C23	0.179600	0.656200	0.873800
H161	H16	0.155500	0.638500	0.926000
C241	C24	0.336200	0.562500	0.705700
N141	N14	0.950200	0.770900	0.804000
N151	N15	0.705700	0.721400	0.542100
N161	N16	0.639700	0.666700	0.504600
N171	N17	0.628600	0.593000	0.548700
N181	N18	0.691800	0.598000	0.619100
N191	N19	0.154200	0.735200	0.845400
N201	N20	0.384000	0.587300	0.636000
N211	N21	0.427500	0.514200	0.609600
N221	N22	0.406800	0.446900	0.659900
N231	N23	0.348300	0.475800	0.721900
N241	N24	0.445000	0.617100	0.449900
N251	N25	0.357400	0.633700	0.442200
N261	N26	0.274900	0.651700	0.435700
Cu31	Cu3	0.050290	0.811250	0.897600
C251	C25	0.416400	0.677100	0.239600
H171	H17	0.440300	0.619400	0.237500
C261	C26	0.347300	0.705600	0.176200
H181	H18	0.325100	0.667200	0.132300
C271	C27	0.311200	0.789900	0.177400
C281	C28	0.345600	0.844400	0.245300
H191	H19	0.322700	0.902200	0.249300
C291	C29	0.414100	0.810400	0.305800
H201	H20	0.436700	0.846900	0.351100
C301	C30	0.236800	0.823200	0.113400
C311	C31	0.688900	0.742000	0.269500
H211	H21	0.670900	0.687100	0.246600
C321	C32	0.749400	0.795300	0.223800
H221	H22	0.773500	0.775200	0.172300
C331	C33	0.774800	0.878000	0.253400
C341	C34	0.738900	0.902400	0.332500
H231	H23	0.754900	0.957200	0.356700
C351	C35	0.679600	0.843800	0.373800
H241	H24	0.655500	0.861500	0.426000
C361	C36	0.836200	0.937500	0.205700
N271	N27	0.450200	0.729100	0.304000
N281	N28	0.205700	0.778600	0.042100
N291	N29	0.139700	0.833300	0.004600
N301	N30	0.128600	0.907000	0.048700
N311	N31	0.191800	0.902000	0.119100
N321	N32	0.654200	0.764800	0.345400
N331	N33	0.884000	0.912700	0.136000
N341	N34	0.927500	0.985800	0.109600
N351	N35	0.906800	0.053100	0.159900
N361	N36	0.848300	0.024200	0.221900
N371	N37	0.945000	0.882900	0.949900
N381	N38	0.857400	0.866300	0.942200
N391	N39	0.774900	0.848300	0.935700
Cu41	Cu4	0.449710	0.311250	0.602400
C371	C37	0.083600	0.177100	0.260400
H251	H25	0.059700	0.119400	0.262500
C381	C38	0.152700	0.205600	0.323800
H261	H26	0.174900	0.167200	0.367700
C391	C39	0.188800	0.289900	0.322600
C401	C40	0.154400	0.344400	0.254700
H271	H27	0.177300	0.402200	0.250700
C411	C41	0.085900	0.310400	0.194200
H281	H28	0.063300	0.346900	0.148900
C421	C42	0.263200	0.323200	0.386600
C431	C43	0.811100	0.242000	0.230500
H291	H29	0.829100	0.187100	0.253400
C441	C44	0.750600	0.295300	0.276200
H301	H30	0.726500	0.275200	0.327700
C451	C45	0.725200	0.378000	0.246600
C461	C46	0.761100	0.402400	0.167500
H311	H31	0.745100	0.457200	0.143300
C471	C47	0.820400	0.343800	0.126200
H321	H32	0.844500	0.361500	0.074000
C481	C48	0.663800	0.437500	0.294300
N401	N40	0.049800	0.229100	0.196000
N411	N41	0.294300	0.278600	0.457900
N421	N42	0.360300	0.333300	0.495400
N431	N43	0.371400	0.407000	0.451300
N441	N44	0.308200	0.402000	0.380900
N451	N45	0.845800	0.264800	0.154600
N461	N46	0.616000	0.412700	0.364000
N471	N47	0.572500	0.485800	0.390400
N481	N48	0.593200	0.553100	0.340100
N491	N49	0.651700	0.524200	0.278100
N501	N50	0.555000	0.382900	0.550100
N511	N51	0.642600	0.366300	0.557800
N521	N52	0.725100	0.348300	0.564300
Cu51	Cu5	0.000000	0.000000	0.000000
Cu61	Cu6	0.500000	0.500000	0.500000
