data_QONLEM_clean_PM
_symmetry_space_group_name_H-M	'P1'
_cell_length_a	12.825000
_cell_length_b	14.903000
_cell_length_c	15.963000
_cell_angle_alpha	90.000000
_cell_angle_beta	92.847000
_cell_angle_gamma	90.000000
_symmetry_Int_Tables_number 1

loop_
_symmetry_equiv_pos_as_xyz
'x,y,z'

loop_
_atom_site_label
_atom_site_type_symbol
_atom_site_fract_x
_atom_site_fract_y
_atom_site_fract_z
Cu11	Cu1	0.971220	0.196700	0.107490
C11	C1	0.598800	0.314600	0.765000
H11	H1	0.572400	0.372600	0.766500
C21	C2	0.667400	0.286500	0.829200
H21	H2	0.684900	0.325100	0.873500
C31	C3	0.709600	0.202100	0.827900
C41	C4	0.680000	0.147400	0.760800
H31	H3	0.706200	0.089500	0.757200
C51	C5	0.611200	0.180300	0.699900
H41	H4	0.592700	0.143300	0.654600
C61	C6	0.783000	0.170200	0.894200
C71	C7	0.322500	0.252600	0.731300
H51	H5	0.345500	0.306600	0.754900
C81	C8	0.256200	0.201200	0.775000
H61	H6	0.234700	0.220500	0.826800
C91	C9	0.221100	0.120600	0.742300
C101	C10	0.254000	0.096800	0.664000
H71	H7	0.231100	0.043700	0.638600
C111	C11	0.321200	0.153200	0.624200
H81	H8	0.343200	0.136500	0.571800
C121	C12	0.155500	0.060400	0.790000
N11	N1	0.569500	0.261600	0.701500
N21	N2	0.810600	0.218400	0.962900
N31	N3	0.879100	0.166100	0.004400
N41	N4	0.892700	0.091500	0.961600
N51	N5	0.832700	0.092400	0.892200
N61	N6	0.355900	0.229900	0.657100
N71	N7	0.117500	0.084500	0.863100
N81	N8	0.069700	0.012100	0.888500
N91	N9	0.079200	0.945600	0.833700
N101	N10	0.134400	0.975200	0.770500
N111	N11	0.084300	0.126100	0.057800
N121	N12	0.170100	0.137800	0.070900
N131	N13	0.256000	0.145300	0.086800
Cu21	Cu2	0.528780	0.696700	0.392510
C131	C13	0.901200	0.814600	0.735000
H91	H9	0.927600	0.872600	0.733500
C141	C14	0.832600	0.786500	0.670800
H101	H10	0.815100	0.825100	0.626500
C151	C15	0.790400	0.702100	0.672100
C161	C16	0.820000	0.647400	0.739200
H111	H11	0.793800	0.589500	0.742800
C171	C17	0.888800	0.680300	0.800100
H121	H12	0.907300	0.643300	0.845400
C181	C18	0.717000	0.670200	0.605800
C191	C19	0.177500	0.752600	0.768700
H131	H13	0.154500	0.806600	0.745100
C201	C20	0.243800	0.701200	0.725000
H141	H14	0.265300	0.720500	0.673200
C211	C21	0.278900	0.620600	0.757700
C221	C22	0.246000	0.596800	0.836000
H151	H15	0.268900	0.543700	0.861400
C231	C23	0.178800	0.653200	0.875800
H161	H16	0.156800	0.636500	0.928200
C241	C24	0.344500	0.560400	0.710000
N141	N14	0.930500	0.761600	0.798500
N151	N15	0.689400	0.718400	0.537100
N161	N16	0.620900	0.666100	0.495600
N171	N17	0.607300	0.591500	0.538400
N181	N18	0.667300	0.592400	0.607800
N191	N19	0.144100	0.729900	0.842900
N201	N20	0.382500	0.584500	0.636900
N211	N21	0.430300	0.512100	0.611500
N221	N22	0.420800	0.445600	0.666300
N231	N23	0.365600	0.475200	0.729500
N241	N24	0.415700	0.626100	0.442200
N251	N25	0.329900	0.637800	0.429100
N261	N26	0.244000	0.645300	0.413200
Cu31	Cu3	0.028780	0.803300	0.892510
C251	C25	0.401200	0.685400	0.235000
H171	H17	0.427600	0.627400	0.233500
C261	C26	0.332600	0.713500	0.170800
H181	H18	0.315100	0.674900	0.126500
C271	C27	0.290400	0.797900	0.172100
C281	C28	0.320000	0.852600	0.239200
H191	H19	0.293800	0.910500	0.242800
C291	C29	0.388800	0.819700	0.300100
H201	H20	0.407300	0.856700	0.345400
C301	C30	0.217000	0.829800	0.105800
C311	C31	0.677500	0.747400	0.268700
H211	H21	0.654500	0.693400	0.245100
C321	C32	0.743800	0.798800	0.225000
H221	H22	0.765300	0.779500	0.173200
C331	C33	0.778900	0.879400	0.257700
C341	C34	0.746000	0.903200	0.336000
H231	H23	0.768900	0.956300	0.361400
C351	C35	0.678800	0.846800	0.375800
H241	H24	0.656800	0.863500	0.428200
C361	C36	0.844500	0.939600	0.210000
N271	N27	0.430500	0.738400	0.298500
N281	N28	0.189400	0.781600	0.037100
N291	N29	0.120900	0.833900	0.995600
N301	N30	0.107300	0.908500	0.038400
N311	N31	0.167300	0.907600	0.107800
N321	N32	0.644100	0.770100	0.342900
N331	N33	0.882500	0.915500	0.136900
N341	N34	0.930300	0.987900	0.111500
N351	N35	0.920800	0.054400	0.166300
N361	N36	0.865600	0.024800	0.229500
N371	N37	0.915700	0.873900	0.942200
N381	N38	0.829900	0.862200	0.929100
N391	N39	0.744000	0.854700	0.913200
Cu41	Cu4	0.471220	0.303300	0.607490
C371	C37	0.098800	0.185400	0.265000
H251	H25	0.072400	0.127400	0.266500
C381	C38	0.167400	0.213500	0.329200
H261	H26	0.184900	0.174900	0.373500
C391	C39	0.209600	0.297900	0.327900
C401	C40	0.180000	0.352600	0.260800
H271	H27	0.206200	0.410500	0.257200
C411	C41	0.111200	0.319700	0.199900
H281	H28	0.092700	0.356700	0.154600
C421	C42	0.283000	0.329800	0.394200
C431	C43	0.822500	0.247400	0.231300
H291	H29	0.845500	0.193400	0.254900
C441	C44	0.756200	0.298800	0.275000
H301	H30	0.734700	0.279500	0.326800
C451	C45	0.721100	0.379400	0.242300
C461	C46	0.754000	0.403200	0.164000
H311	H31	0.731100	0.456300	0.138600
C471	C47	0.821200	0.346800	0.124200
H321	H32	0.843200	0.363500	0.071800
C481	C48	0.655500	0.439600	0.290000
N401	N40	0.069500	0.238400	0.201500
N411	N41	0.310600	0.281600	0.462900
N421	N42	0.379100	0.333900	0.504400
N431	N43	0.392700	0.408500	0.461600
N441	N44	0.332700	0.407600	0.392200
N451	N45	0.855900	0.270100	0.157100
N461	N46	0.617500	0.415500	0.363100
N471	N47	0.569700	0.487900	0.388500
N481	N48	0.579200	0.554400	0.333700
N491	N49	0.634400	0.524800	0.270500
N501	N50	0.584300	0.373900	0.557800
N511	N51	0.670100	0.362200	0.570900
N521	N52	0.756000	0.354700	0.586800
Cu51	Cu5	0.000000	0.000000	0.000000
Cu61	Cu6	0.500000	0.500000	0.500000
