data_QONLAI_clean_PM
_symmetry_space_group_name_H-M	'P1'
_cell_length_a	13.111000
_cell_length_b	14.791000
_cell_length_c	15.671000
_cell_angle_alpha	90.000000
_cell_angle_beta	92.625000
_cell_angle_gamma	90.000000
_symmetry_Int_Tables_number 1

loop_
_symmetry_equiv_pos_as_xyz
'x,y,z'

loop_
_atom_site_label
_atom_site_type_symbol
_atom_site_fract_x
_atom_site_fract_y
_atom_site_fract_z
Cu11	Cu1	0.525860	0.198200	0.391800
C11	C1	0.887400	0.178900	0.799900
H11	H1	0.906300	0.141200	0.845500
C21	C2	0.818400	0.147200	0.738300
H21	H2	0.792300	0.089000	0.741600
C31	C3	0.788600	0.203700	0.671100
C41	C4	0.829600	0.288700	0.669400
H31	H3	0.810600	0.328500	0.625500
C51	C5	0.899200	0.315200	0.732900
H41	H4	0.926900	0.373000	0.730900
C61	C6	0.713300	0.172800	0.606000
C71	C7	0.169300	0.248100	0.765200
H51	H5	0.147400	0.302700	0.741200
C81	C8	0.235300	0.195100	0.720800
H61	H6	0.257300	0.213700	0.668000
C91	C9	0.268400	0.113500	0.755900
C101	C10	0.233200	0.090000	0.834200
H71	H7	0.253700	0.035800	0.859800
C111	C11	0.167700	0.146400	0.874500
H81	H8	0.145000	0.129300	0.927600
C121	C12	0.336000	0.055500	0.708610
N11	N1	0.928000	0.260720	0.797240
N21	N2	0.685400	0.221220	0.536080
N31	N3	0.616100	0.169570	0.496120
N41	N4	0.603000	0.093810	0.539720
N51	N5	0.663900	0.093770	0.609680
N61	N6	0.135400	0.224340	0.840970
N71	N7	0.378500	0.081840	0.636260
N81	N8	0.429600	0.009540	0.612460
N91	N9	0.418800	0.942680	0.666980
N101	N10	0.360000	0.969760	0.729150
N111	N11	0.416900	0.125030	0.442350
N121	N12	0.330600	0.135600	0.428100
N131	N13	0.245100	0.144900	0.414800
Cu21	Cu2	0.974140	0.698200	0.108200
C131	C13	0.612600	0.678900	0.700100
H91	H9	0.593700	0.641200	0.654500
C141	C14	0.681600	0.647200	0.761700
H101	H10	0.707700	0.589000	0.758400
C151	C15	0.711400	0.703700	0.828900
C161	C16	0.670400	0.788700	0.830600
H111	H11	0.689400	0.828500	0.874500
C171	C17	0.600800	0.815200	0.767100
H121	H12	0.573100	0.873000	0.769100
C181	C18	0.786700	0.672800	0.894000
C191	C19	0.330700	0.748100	0.734800
H131	H13	0.352600	0.802700	0.758800
C201	C20	0.264700	0.695100	0.779200
H141	H14	0.242700	0.713700	0.832000
C211	C21	0.231600	0.613500	0.744100
C221	C22	0.266800	0.590000	0.665800
H151	H15	0.246300	0.535800	0.640200
C231	C23	0.332300	0.646400	0.625500
H161	H16	0.355000	0.629300	0.572400
C241	C24	0.164000	0.555500	0.791390
N141	N14	0.572000	0.760720	0.702760
N151	N15	0.814600	0.721220	0.963920
N161	N16	0.883900	0.669570	0.003880
N171	N17	0.897000	0.593810	0.960280
N181	N18	0.836100	0.593770	0.890320
N191	N19	0.364600	0.724340	0.659030
N201	N20	0.121500	0.581840	0.863740
N211	N21	0.070400	0.509540	0.887540
N221	N22	0.081200	0.442680	0.833020
N231	N23	0.140000	0.469760	0.770850
N241	N24	0.083100	0.625030	0.057650
N251	N25	0.169400	0.635600	0.071900
N261	N26	0.254900	0.644900	0.085200
Cu31	Cu3	0.474140	0.801800	0.608200
C251	C25	0.112600	0.821100	0.200100
H171	H17	0.093700	0.858800	0.154500
C261	C26	0.181600	0.852800	0.261700
H181	H18	0.207700	0.911000	0.258400
C271	C27	0.211400	0.796300	0.328900
C281	C28	0.170400	0.711300	0.330600
H191	H19	0.189400	0.671500	0.374500
C291	C29	0.100800	0.684800	0.267100
H201	H20	0.073100	0.627000	0.269100
C301	C30	0.286700	0.827200	0.394000
C311	C31	0.830700	0.751900	0.234800
H211	H21	0.852600	0.697300	0.258800
C321	C32	0.764700	0.804900	0.279200
H221	H22	0.742700	0.786300	0.332000
C331	C33	0.731600	0.886500	0.244100
C341	C34	0.766800	0.910000	0.165800
H231	H23	0.746300	0.964200	0.140200
C351	C35	0.832300	0.853600	0.125500
H241	H24	0.855000	0.870700	0.072400
C361	C36	0.664000	0.944500	0.291390
N271	N27	0.072000	0.739280	0.202760
N281	N28	0.314600	0.778780	0.463920
N291	N29	0.383900	0.830430	0.503880
N301	N30	0.397000	0.906190	0.460280
N311	N31	0.336100	0.906230	0.390320
N321	N32	0.864600	0.775660	0.159030
N331	N33	0.621500	0.918160	0.363740
N341	N34	0.570400	0.990460	0.387540
N351	N35	0.581200	0.057320	0.333020
N361	N36	0.640000	0.030240	0.270850
N371	N37	0.583100	0.874970	0.557650
N381	N38	0.669400	0.864400	0.571900
N391	N39	0.754900	0.855100	0.585200
Cu41	Cu4	0.025860	0.301800	0.891800
C371	C37	0.387400	0.321100	0.299900
H251	H25	0.406300	0.358800	0.345500
C381	C38	0.318400	0.352800	0.238300
H261	H26	0.292300	0.411000	0.241600
C391	C39	0.288600	0.296300	0.171100
C401	C40	0.329600	0.211300	0.169400
H271	H27	0.310600	0.171500	0.125500
C411	C41	0.399200	0.184800	0.232900
H281	H28	0.426900	0.127000	0.230900
C421	C42	0.213300	0.327200	0.106000
C431	C43	0.669300	0.251900	0.265200
H291	H29	0.647400	0.197300	0.241200
C441	C44	0.735300	0.304900	0.220800
H301	H30	0.757300	0.286300	0.168000
C451	C45	0.768400	0.386500	0.255900
C461	C46	0.733200	0.410000	0.334200
H311	H31	0.753700	0.464200	0.359800
C471	C47	0.667700	0.353600	0.374500
H321	H32	0.645000	0.370700	0.427600
C481	C48	0.836000	0.444500	0.208610
N401	N40	0.428000	0.239280	0.297240
N411	N41	0.185400	0.278780	0.036080
N421	N42	0.116100	0.330430	0.996120
N431	N43	0.103000	0.406190	0.039720
N441	N44	0.163900	0.406230	0.109680
N451	N45	0.635400	0.275660	0.340970
N461	N46	0.878500	0.418160	0.136260
N471	N47	0.929600	0.490460	0.112460
N481	N48	0.918800	0.557320	0.166980
N491	N49	0.860000	0.530240	0.229150
N501	N50	0.916900	0.374970	0.942350
N511	N51	0.830600	0.364400	0.928100
N521	N52	0.745100	0.355100	0.914800
Cu51	Cu5	0.500000	0.000000	0.500000
Cu61	Cu6	0.000000	0.500000	0.000000
