data_QONLIQ_clean_PM
_symmetry_space_group_name_H-M	'P1'
_cell_length_a	13.299000
_cell_length_b	14.710000
_cell_length_c	15.689000
_cell_angle_alpha	90.000000
_cell_angle_beta	93.375000
_cell_angle_gamma	90.000000
_symmetry_Int_Tables_number 1

loop_
_symmetry_equiv_pos_as_xyz
'x,y,z'

loop_
_atom_site_label
_atom_site_type_symbol
_atom_site_fract_x
_atom_site_fract_y
_atom_site_fract_z
N11	N1	0.606800	0.906700	0.038600
N21	N2	0.432200	0.986600	0.111600
N31	N3	0.424100	0.872900	0.940100
N41	N4	0.619000	0.830900	0.994200
N51	N5	0.668500	0.906600	0.107500
N61	N6	0.383700	0.913100	0.135600
N71	N7	0.420900	0.053500	0.166600
Cu11	Cu1	0.533540	0.806770	0.885970
N81	N8	0.341500	0.853700	0.938500
N91	N9	0.689000	0.779000	0.033000
C11	C1	0.718000	0.827800	0.102600
C21	C2	0.342400	0.938700	0.207400
N101	N10	0.364200	0.024800	0.227800
N111	N11	0.936100	0.737600	0.291900
N121	N12	0.142300	0.768600	0.336100
N131	N13	0.258800	0.837200	0.938300
C31	C3	0.795000	0.795900	0.166700
C41	C4	0.275700	0.879600	0.253300
C51	C5	0.832200	0.711000	0.167000
C61	C6	0.829300	0.852100	0.231500
C71	C7	0.243000	0.797500	0.219300
C81	C8	0.240400	0.902700	0.330500
C91	C9	0.902800	0.683900	0.229800
H11	H1	0.810200	0.670200	0.124500
H21	H2	0.806400	0.911700	0.234500
C101	C10	0.899300	0.818300	0.292800
C111	C11	0.177700	0.744500	0.261300
H31	H3	0.265700	0.778200	0.167300
H41	H4	0.261600	0.956600	0.356900
C121	C12	0.173400	0.846600	0.369500
H51	H5	0.927900	0.625000	0.228000
H61	H6	0.920900	0.856600	0.337300
H71	H7	0.157000	0.689500	0.236900
H81	H8	0.149400	0.864600	0.421400
N141	N14	0.893200	0.406700	0.461400
N151	N15	0.067800	0.486600	0.388400
N161	N16	0.075900	0.372900	0.559900
N171	N17	0.881000	0.330900	0.505800
N181	N18	0.831500	0.406600	0.392500
N191	N19	0.116300	0.413100	0.364400
N201	N20	0.079100	0.553500	0.333400
Cu21	Cu2	0.966460	0.306770	0.614030
N211	N21	0.158500	0.353700	0.561500
N221	N22	0.811000	0.279000	0.467000
C131	C13	0.782000	0.327800	0.397400
C141	C14	0.157600	0.438700	0.292600
N231	N23	0.135800	0.524800	0.272200
N241	N24	0.563900	0.237600	0.208100
N251	N25	0.357700	0.268600	0.163900
N261	N26	0.241200	0.337200	0.561700
C151	C15	0.705000	0.295900	0.333300
C161	C16	0.224300	0.379600	0.246700
C171	C17	0.667800	0.211000	0.333000
C181	C18	0.670700	0.352100	0.268500
C191	C19	0.257000	0.297500	0.280700
C201	C20	0.259600	0.402700	0.169500
C211	C21	0.597200	0.183900	0.270200
H91	H9	0.689800	0.170200	0.375500
H101	H10	0.693600	0.411700	0.265500
C221	C22	0.600700	0.318300	0.207200
C231	C23	0.322300	0.244500	0.238700
H111	H11	0.234300	0.278200	0.332700
H121	H12	0.238400	0.456600	0.143100
C241	C24	0.326600	0.346600	0.130500
H131	H13	0.572100	0.125000	0.272000
H141	H14	0.579100	0.356600	0.162700
H151	H15	0.343000	0.189500	0.263100
H161	H16	0.350600	0.364600	0.078600
N271	N27	0.393200	0.093300	0.961400
N281	N28	0.567800	0.013400	0.888400
N291	N29	0.575900	0.127100	0.059900
N301	N30	0.381000	0.169100	0.005800
N311	N31	0.331500	0.093400	0.892500
N321	N32	0.616300	0.086900	0.864400
N331	N33	0.579100	0.946500	0.833400
Cu31	Cu3	0.466460	0.193230	0.114030
N341	N34	0.658500	0.146300	0.061500
N351	N35	0.311000	0.221000	0.967000
C251	C25	0.282000	0.172200	0.897400
C261	C26	0.657600	0.061300	0.792600
N361	N36	0.635800	0.975200	0.772200
N371	N37	0.063900	0.262400	0.708100
N381	N38	0.857700	0.231400	0.663900
N391	N39	0.741200	0.162800	0.061700
C271	C27	0.205000	0.204100	0.833300
C281	C28	0.724300	0.120400	0.746700
C291	C29	0.167800	0.289000	0.833000
C301	C30	0.170700	0.147900	0.768500
C311	C31	0.757000	0.202500	0.780700
C321	C32	0.759600	0.097300	0.669500
C331	C33	0.097200	0.316100	0.770200
H171	H17	0.189800	0.329800	0.875500
H181	H18	0.193600	0.088300	0.765500
C341	C34	0.100700	0.181700	0.707200
C351	C35	0.822300	0.255500	0.738700
H191	H19	0.734300	0.221800	0.832700
H201	H20	0.738400	0.043400	0.643100
C361	C36	0.826600	0.153400	0.630500
H211	H21	0.072100	0.375000	0.772000
H221	H22	0.079100	0.143400	0.662700
H231	H23	0.843000	0.310500	0.763100
H241	H24	0.850600	0.135400	0.578600
N401	N40	0.106800	0.593300	0.538600
N411	N41	0.932200	0.513400	0.611600
N421	N42	0.924100	0.627100	0.440100
N431	N43	0.119000	0.669100	0.494200
N441	N44	0.168500	0.593400	0.607500
N451	N45	0.883700	0.586900	0.635600
N461	N46	0.920900	0.446500	0.666600
Cu41	Cu4	0.033540	0.693230	0.385970
N471	N47	0.841500	0.646300	0.438500
N481	N48	0.189000	0.721000	0.533000
C371	C37	0.218000	0.672200	0.602600
C381	C38	0.842400	0.561300	0.707400
N491	N49	0.864200	0.475200	0.727800
N501	N50	0.436100	0.762400	0.791900
N511	N51	0.642300	0.731400	0.836100
N521	N52	0.758800	0.662800	0.438300
C391	C39	0.295000	0.704100	0.666700
C401	C40	0.775700	0.620400	0.753300
C411	C41	0.332200	0.789000	0.667000
C421	C42	0.329300	0.647900	0.731500
C431	C43	0.743000	0.702500	0.719300
C441	C44	0.740400	0.597300	0.830500
C451	C45	0.402800	0.816100	0.729800
H251	H25	0.310200	0.829800	0.624500
H261	H26	0.306400	0.588300	0.734500
C461	C46	0.399300	0.681700	0.792800
C471	C47	0.677700	0.755500	0.761300
H271	H27	0.765700	0.721800	0.667300
H281	H28	0.761600	0.543400	0.856900
C481	C48	0.673400	0.653400	0.869500
H291	H29	0.427900	0.875000	0.728000
H301	H30	0.420900	0.643400	0.837300
H311	H31	0.657000	0.810500	0.736900
H321	H32	0.649400	0.635400	0.921400
Cu51	Cu5	0.500000	0.000000	0.000000
Cu61	Cu6	0.000000	0.500000	0.500000
