data_QONQEQ_manual_PM
_symmetry_space_group_name_H-M	'P1'
_cell_length_a	6.654000
_cell_length_b	16.448000
_cell_length_c	13.375000
_cell_angle_alpha	90.000000
_cell_angle_beta	90.000000
_cell_angle_gamma	90.000000
_symmetry_Int_Tables_number 1

loop_
_symmetry_equiv_pos_as_xyz
'x,y,z'

loop_
_atom_site_label
_atom_site_type_symbol
_atom_site_fract_x
_atom_site_fract_y
_atom_site_fract_z
O11	O1	0.167350	0.174170	0.836470
C21	C2	0.815410	0.036640	0.968250
H31	H3	0.672910	0.061650	0.944640
O41	O4	0.667430	0.673920	0.336140
C51	C5	0.315430	0.536260	0.467680
H61	H6	0.172980	0.561260	0.443980
O71	O7	0.825410	0.331090	0.836510
C81	C8	0.177300	0.468150	0.969110
H91	H9	0.319800	0.443080	0.945630
O101	O10	0.325100	0.831000	0.336670
C111	C11	0.677220	0.967670	0.469740
H121	H12	0.819680	0.942470	0.446410
O131	O13	0.825130	0.674200	0.164400
C141	C14	0.177220	0.536920	0.032340
H151	H15	0.319660	0.562000	0.055920
O161	O16	0.325330	0.174110	0.664510
C171	C17	0.677300	0.036430	0.532980
H181	H18	0.819780	0.061400	0.556670
O191	O19	0.167410	0.831040	0.164360
C201	C20	0.815420	0.967850	0.031450
H211	H21	0.672960	0.942680	0.054830
O221	O22	0.667230	0.330950	0.664270
C231	C23	0.315400	0.467540	0.530970
H241	H24	0.172890	0.442400	0.554360
O251	O25	0.825330	0.831000	0.164300
C261	C26	0.177260	0.967850	0.031430
H271	H27	0.319760	0.942690	0.054780
O281	O28	0.325240	0.330930	0.664180
C291	C29	0.677240	0.467540	0.531000
H301	H30	0.819690	0.442390	0.554420
O311	O31	0.167200	0.674250	0.164370
C321	C32	0.815380	0.536760	0.032490
H331	H33	0.672900	0.561730	0.056190
O341	O34	0.667510	0.174020	0.664650
C351	C35	0.315460	0.036570	0.532840
H361	H36	0.173030	0.061660	0.556400
O371	O37	0.167440	0.331180	0.836380
C381	C38	0.815460	0.468000	0.969260
H391	H39	0.673010	0.442810	0.945910
O401	O40	0.667230	0.830940	0.336700
C411	C41	0.315380	0.967820	0.469610
H421	H42	0.172880	0.942730	0.446150
O431	O43	0.825120	0.174190	0.836560
C441	C44	0.177240	0.036640	0.968230
H451	H45	0.319670	0.061670	0.944580
O461	O46	0.325310	0.673960	0.336210
C471	C47	0.677260	0.536260	0.467700
H481	H48	0.819730	0.561250	0.444040
Al491	Al49	0.246140	0.252620	0.750410
Al501	Al50	0.746280	0.252630	0.750480
Al511	Al51	0.746030	0.752630	0.250410
Al521	Al52	0.246110	0.752610	0.250490
O531	O53	0.996210	0.252680	0.696820
O541	O54	0.496050	0.752810	0.196870
O551	O55	0.996040	0.752710	0.304090
O561	O56	0.496200	0.252780	0.804040
C571	C57	0.996300	0.072590	0.935600
C581	C58	0.996250	0.145060	0.865730
C591	C59	0.496350	0.572210	0.435040
C601	C60	0.496370	0.644750	0.365300
C611	C61	0.996420	0.432330	0.936200
C621	C62	0.996430	0.360160	0.865860
C631	C63	0.496250	0.932000	0.436670
C641	C64	0.496180	0.859940	0.366170
C651	C65	0.996250	0.572730	0.065140
C661	C66	0.996180	0.645110	0.135120
C671	C67	0.496410	0.072450	0.565560
C681	C68	0.496430	0.144910	0.635410
C691	C69	0.996360	0.932100	0.064430
C701	C70	0.996360	0.860010	0.134870
C711	C71	0.496310	0.431860	0.564080
C721	C72	0.496250	0.359890	0.634700
H731	H73	0.496010	0.753080	0.132410
H741	H74	0.496200	0.252990	0.868490
H751	H75	0.996200	0.252780	0.632370
H761	H76	0.996000	0.752840	0.368540
