data_QOSJOZ_clean_PM
_symmetry_space_group_name_H-M	'P1'
_cell_length_a	13.958000
_cell_length_b	20.529000
_cell_length_c	30.682000
_cell_angle_alpha	90.000000
_cell_angle_beta	90.000000
_cell_angle_gamma	98.820000
_symmetry_Int_Tables_number 1

loop_
_symmetry_equiv_pos_as_xyz
'x,y,z'

loop_
_atom_site_label
_atom_site_type_symbol
_atom_site_fract_x
_atom_site_fract_y
_atom_site_fract_z
Gd11	Gd1	0.461300	0.104370	0.310330
Gd21	Gd2	0.961300	0.604370	0.189670
Gd31	Gd3	0.975810	0.625070	0.449140
Gd41	Gd4	0.038700	0.395630	0.810330
Gd51	Gd5	0.475810	0.125070	0.050860
Gd61	Gd6	0.024190	0.374930	0.550860
Gd71	Gd7	0.524190	0.874930	0.949140
Gd81	Gd8	0.538700	0.895630	0.689670
Cu11	Cu1	0.026680	0.888620	0.315230
Cu21	Cu2	0.508300	0.779600	0.477990
Cu31	Cu3	0.504560	0.242630	0.842330
Cu41	Cu4	0.526680	0.388620	0.184770
Cu51	Cu5	0.995440	0.257370	0.342330
Cu61	Cu6	0.491700	0.220400	0.522010
Cu71	Cu7	0.008300	0.279600	0.022010
Cu81	Cu8	0.991700	0.720400	0.977990
Cu91	Cu9	0.004560	0.742630	0.657670
Cu101	Cu10	0.473320	0.611380	0.815230
Cu111	Cu11	0.495440	0.757370	0.157670
Cu121	Cu12	0.973320	0.111380	0.684770
H11	H1	0.186900	0.779800	0.960800
H21	H2	0.448100	0.312500	0.105900
H31	H3	0.683900	0.719400	0.469500
H41	H4	0.304700	0.294000	0.067500
H51	H5	0.237600	0.390000	0.244700
H61	H6	0.813100	0.220200	0.039200
H71	H7	0.542500	0.113200	0.584400
H81	H8	0.804700	0.794000	0.432500
H91	H9	0.301400	0.231900	0.384200
H101	H10	0.940200	0.260900	0.438900
H111	H11	0.569100	0.294500	0.253200
H121	H12	0.821500	0.410700	0.120700
H131	H13	0.200300	0.772700	0.205700
H141	H14	0.321500	0.910700	0.379300
H151	H15	0.206700	0.795600	0.668000
H161	H16	0.195300	0.206000	0.567500
H171	H17	0.659700	0.694700	0.178800
H181	H18	0.698600	0.768100	0.615800
H191	H19	0.957500	0.386800	0.084400
H201	H20	0.221100	0.957100	0.293900
H211	H21	0.686900	0.279800	0.539200
H221	H22	0.930900	0.205500	0.753200
H231	H23	0.051900	0.187500	0.605900
H241	H24	0.159700	0.194700	0.321200
H251	H25	0.803500	0.229800	0.481200
H261	H26	0.073000	0.293500	0.927100
H271	H27	0.427000	0.206500	0.427100
H281	H28	0.316100	0.280600	0.530500
H291	H29	0.908200	0.635300	0.718300
H301	H30	0.340300	0.305300	0.821200
H311	H31	0.430900	0.705500	0.746800
H321	H32	0.059800	0.739100	0.561100
H331	H33	0.927000	0.706500	0.072900
H341	H34	0.737600	0.890000	0.255300
H351	H35	0.262400	0.110000	0.744700
H361	H36	0.408200	0.135300	0.781700
H371	H37	0.643900	0.546600	0.826300
H381	H38	0.801400	0.731900	0.115800
H391	H39	0.678500	0.089300	0.620700
H401	H40	0.778900	0.042900	0.706100
H411	H41	0.793300	0.204400	0.332000
H421	H42	0.299700	0.727300	0.705700
H431	H43	0.948100	0.812500	0.394100
H441	H44	0.700300	0.272700	0.294300
H451	H45	0.799700	0.227300	0.794300
H461	H46	0.695300	0.706000	0.932500
H471	H47	0.721100	0.457100	0.206100
H481	H48	0.178500	0.589300	0.879300
H491	H49	0.591800	0.864700	0.218300
H501	H50	0.573000	0.793500	0.572900
H511	H51	0.143900	0.046600	0.673700
H521	H52	0.551900	0.687500	0.894100
H531	H53	0.196500	0.770200	0.518800
H541	H54	0.091800	0.364700	0.281700
H551	H55	0.278900	0.542900	0.793900
H561	H56	0.069100	0.794500	0.246800
H571	H57	0.840300	0.805300	0.678800
H581	H58	0.457500	0.886800	0.415600
H591	H59	0.706700	0.295600	0.832000
H601	H60	0.356100	0.453400	0.173700
H611	H61	0.293300	0.704400	0.168000
H621	H62	0.696500	0.270200	0.981200
H631	H63	0.440200	0.760900	0.061100
H641	H64	0.183900	0.219400	0.030500
H651	H65	0.313100	0.720200	0.460800
H661	H66	0.559800	0.239100	0.938900
H671	H67	0.856100	0.953400	0.326300
H681	H68	0.042500	0.613200	0.915600
H691	H69	0.198600	0.268100	0.884200
H701	H70	0.762400	0.610000	0.755300
H711	H71	0.303500	0.729800	0.018800
H721	H72	0.816100	0.780600	0.969500
C11	C1	0.258400	0.134300	0.596900
C21	C2	0.728100	0.770900	0.067200
C31	C3	0.311700	0.269200	0.500500
C41	C4	0.710200	0.202000	0.431100
C51	C5	0.382900	0.830000	0.639600
C61	C6	0.855700	0.165900	0.629920
C71	C7	0.622500	0.773200	0.559800
C81	C8	0.101100	0.161900	0.612500
C91	C9	0.717100	0.419400	0.224300
C101	C10	0.651200	0.856100	0.430700
C111	C11	0.767200	0.747400	0.214600
C121	C12	0.176700	0.235000	0.305800
C131	C13	0.776400	0.650100	0.739500
C141	C14	0.209600	0.193600	0.762000
C151	C15	0.223600	0.349900	0.260500
C161	C16	0.276400	0.150100	0.760500
C171	C17	0.636600	0.834200	0.217600
C181	C18	0.289800	0.798000	0.568900
C191	C19	0.197700	0.258300	0.914500
C201	C20	0.681900	0.128900	0.604400
C211	C21	0.298600	0.909500	0.251900
C221	C22	0.849900	0.709100	0.596600
C231	C23	0.242000	0.086700	0.629500
C241	C24	0.122500	0.273200	0.940200
C251	C25	0.650100	0.790900	0.096600
C261	C26	0.269700	0.729400	0.923700
C271	C27	0.101200	0.643400	0.917500
C281	C28	0.817900	0.545100	0.856900
C291	C29	0.863400	0.665800	0.717600
C301	C30	0.709600	0.693600	0.738000
C311	C31	0.644300	0.334100	0.129920
C321	C32	0.814000	0.827500	0.410900
C331	C33	0.282900	0.580600	0.775700
C341	C34	0.640000	0.220900	0.069000
C351	C35	0.241600	0.365700	0.096900
C361	C36	0.758400	0.634300	0.903100
C371	C37	0.371800	0.675800	0.748200
C381	C38	0.798600	0.409500	0.248100
C391	C39	0.186000	0.172500	0.589100
C401	C40	0.758000	0.913300	0.370500
C411	C41	0.185800	0.740700	0.944200
C421	C42	0.377500	0.226800	0.440200
C431	C43	0.617100	0.170000	0.360400
C441	C44	0.875300	0.341200	0.304500
C451	C45	0.232800	0.252600	0.785400
C461	C46	0.654800	0.811800	0.998300
C471	C47	0.292200	0.806000	0.614400
C481	C48	0.154800	0.311800	0.501700
C491	C49	0.898900	0.838100	0.387500
C501	C50	0.793700	0.189100	0.776500
C511	C51	0.802300	0.741700	0.085500
C521	C52	0.116900	0.182100	0.735300
C531	C53	0.122400	0.684100	0.040200
C541	C54	0.318100	0.871100	0.395600
C551	C55	0.685800	0.240700	0.555800
C561	C56	0.267200	0.247400	0.285400
C571	C57	0.601100	0.661900	0.887500
C581	C58	0.299100	0.725600	0.049600
C591	C59	0.682100	0.954900	0.356900
C601	C60	0.381100	0.743100	0.074900
C611	C61	0.200900	0.774400	0.549600
C621	C62	0.109300	0.541800	0.757500
C631	C63	0.144300	0.834100	0.370080
C641	C64	0.663100	0.800700	0.708400
C651	C65	0.706300	0.310900	0.276500
C661	C66	0.814200	0.259300	0.055800
C671	C67	0.383100	0.317900	0.235300
C681	C68	0.818100	0.371100	0.104400
C691	C69	0.293400	0.854100	0.225200
C701	C70	0.317900	0.045100	0.643100
C711	C71	0.345200	0.188200	0.001700
C721	C72	0.314000	0.327500	0.089100
C731	C73	0.766800	0.716400	0.522700
C741	C74	0.741600	0.865700	0.403100
C751	C75	0.268700	0.673400	0.897700
C761	C76	0.290400	0.306400	0.262000
C771	C77	0.271900	0.229100	0.932800
C781	C78	0.794500	0.210900	0.362700
C791	C79	0.188300	0.230800	0.000500
C801	C80	0.140000	0.720900	0.431000
C811	C81	0.258000	0.413300	0.129500
C821	C82	0.628200	0.324200	0.251800
C831	C83	0.344800	0.420500	0.151800
C841	C84	0.201400	0.590500	0.751900
C851	C85	0.205500	0.789100	0.637300
C861	C86	0.730300	0.270600	0.076300
C871	C87	0.700900	0.274400	0.950400
C881	C88	0.206300	0.810900	0.223500
C891	C89	0.233200	0.283600	0.477300
C901	C90	0.618900	0.256900	0.925100
C911	C91	0.731300	0.326600	0.102300
C921	C92	0.882900	0.330000	0.860400
C931	C93	0.360000	0.779100	0.931000
C941	C94	0.860000	0.279100	0.569000
C951	C95	0.624700	0.158800	0.804500
C961	C96	0.890700	0.458200	0.242500
C971	C97	0.348800	0.143900	0.569300
C981	C98	0.742000	0.586700	0.870500
C991	C99	0.294500	0.710900	0.137300
C1001	C100	0.622400	0.184100	0.459800
C1011	C101	0.266800	0.216400	0.977300
C1021	C102	0.768700	0.173400	0.602300
C1031	C103	0.848800	0.643900	0.930700
C1041	C104	0.705500	0.289100	0.862700
C1051	C105	0.844800	0.920500	0.348200
C1061	C106	0.136600	0.334200	0.282400
C1071	C107	0.150100	0.290900	0.403400
C1081	C108	0.155200	0.079500	0.651800
C1091	C109	0.706600	0.145900	0.774800
C1101	C110	0.697700	0.758300	0.585500
C1111	C111	0.323300	0.265000	0.805800
C1121	C112	0.686000	0.672500	0.910900
C1131	C113	0.151200	0.356100	0.069300
C1141	C114	0.799100	0.225600	0.450400
C1151	C115	0.732800	0.752600	0.714600
C1161	C116	0.881100	0.243100	0.425100
C1171	C117	0.206600	0.645900	0.725200
C1181	C118	0.883100	0.817900	0.264700
C1191	C119	0.231300	0.826600	0.397700
C1201	C120	0.349900	0.209100	0.903400
C1211	C121	0.230300	0.770600	0.423700
C1221	C122	0.124700	0.658800	0.695500
C1231	C123	0.877500	0.726800	0.059800
C1241	C124	0.609300	0.041800	0.742500
C1251	C125	0.676700	0.735000	0.194200
C1261	C126	0.210200	0.702000	0.068900
C1271	C127	0.117100	0.670000	0.139600
C1281	C128	0.390700	0.958200	0.257500
C1291	C129	0.616900	0.682100	0.764700
C1301	C130	0.723600	0.849900	0.239500
C1311	C131	0.655200	0.579500	0.848200
C1321	C132	0.782900	0.080600	0.724300
C1331	C133	0.898800	0.356600	0.082500
C1341	C134	0.128200	0.824200	0.248200
C1351	C135	0.790400	0.806400	0.238000
C1361	C136	0.707800	0.194000	0.385600
C1371	C137	0.293700	0.689100	0.723500
C1381	C138	0.793400	0.354100	0.274800
C1391	C139	0.771900	0.729100	0.567200
C1401	C140	0.789800	0.298000	0.931100
C1411	C141	0.217100	0.919400	0.275700
C1421	C142	0.836900	0.699300	0.208400
C1431	C143	0.769700	0.229400	0.576300
C1441	C144	0.375300	0.841200	0.195500
C1451	C145	0.792200	0.306000	0.885600
C1461	C146	0.701400	0.090500	0.748100
C1471	C147	0.355700	0.665900	0.870080
C1481	C148	0.181900	0.628900	0.895600
C1491	C149	0.811700	0.769200	0.999500
C1501	C150	0.688300	0.730800	0.499500
C1511	C151	0.228100	0.270900	0.432800
C1521	C152	0.845200	0.688200	0.498300
C1531	C153	0.302300	0.241700	0.414500
C1541	C154	0.823300	0.765000	0.694200
C1551	C155	0.398800	0.856600	0.417500
C1561	C156	0.363400	0.165800	0.782400
C1571	C157	0.207800	0.694000	0.114400
C1581	C158	0.336900	0.199300	0.291600
C1591	C159	0.182100	0.454900	0.143100
C1601	C160	0.871800	0.175800	0.751800
C1611	C161	0.163100	0.300700	0.791600
C1621	C162	0.877600	0.315900	0.959800
C1631	C163	0.377600	0.815900	0.540200
C1641	C164	0.398900	0.338100	0.112500
C1651	C165	0.601200	0.143400	0.582500
C1661	C166	0.314200	0.759300	0.444200
C1671	C167	0.733200	0.783600	0.022700
C1681	C168	0.118900	0.756900	0.574900
N11	N1	0.620500	0.264300	0.881270
N21	N2	0.585500	0.617000	0.856030
N31	N3	0.133000	0.877800	0.273990
N41	N4	0.085500	0.117000	0.643970
N51	N5	0.397800	0.801900	0.441380
N61	N6	0.914500	0.883000	0.356030
N71	N7	0.879500	0.235700	0.381270
N81	N8	0.102200	0.698100	0.941380
N91	N9	0.367000	0.622200	0.773990
N101	N10	0.379500	0.735700	0.118730
N111	N11	0.120500	0.764300	0.618730
N121	N12	0.112800	0.277500	0.304620
N131	N13	0.882900	0.739800	0.017040
N141	N14	0.602200	0.198100	0.558620
N151	N15	0.633000	0.377800	0.226010
N161	N16	0.382900	0.239800	0.482960
N171	N17	0.414500	0.383000	0.143970
N181	N18	0.897800	0.301900	0.058620
N191	N19	0.617100	0.760200	0.517040
N201	N20	0.612800	0.777500	0.195380
N211	N21	0.867000	0.122200	0.726010
N221	N22	0.887200	0.722500	0.695380
N231	N23	0.117100	0.260200	0.982960
N241	N24	0.387200	0.222500	0.804620
O11	O1	0.932600	0.260000	0.551190
O21	O2	0.668800	0.825100	0.958350
O31	O3	0.961500	0.346100	0.880230
O41	O4	0.585600	0.209000	0.796650
O51	O5	0.641700	0.162000	0.079000
O61	O6	0.809400	0.639300	0.218340
O71	O7	0.903900	0.572800	0.855970
O81	O8	0.392000	0.878000	0.163120
O91	O9	0.875500	0.108700	0.636360
O101	O10	0.067400	0.740000	0.448810
O111	O11	0.398700	0.201700	0.570550
O121	O12	0.211900	0.513400	0.154700
O131	O13	0.120100	0.485100	0.770530
O141	O14	0.091600	0.230200	0.716010
O151	O15	0.030700	0.562100	0.750500
O161	O16	0.624500	0.391300	0.136360
O171	O17	0.416700	0.254300	0.892030
O181	O18	0.581800	0.781100	0.691370
O191	O19	0.900800	0.372700	0.972450
O201	O20	0.096100	0.427200	0.144030
O211	O21	0.572000	0.623200	0.766500
O221	O22	0.530700	0.062100	0.749500
O231	O23	0.428000	0.376800	0.233500
O241	O24	0.288100	0.986600	0.654700
O251	O25	0.596100	0.927200	0.355970
O261	O26	0.969300	0.437900	0.249500
O271	O27	0.918600	0.266900	0.971750
O281	O28	0.400800	0.872700	0.527550
O291	O29	0.591600	0.730200	0.783990
O301	O30	0.331200	0.174900	0.041650
O311	O31	0.414400	0.791000	0.203350
O321	O32	0.190600	0.360700	0.781660
O331	O33	0.711900	0.013400	0.345300
O341	O34	0.469300	0.937900	0.250500
O351	O35	0.858300	0.338000	0.579000
O361	O36	0.099200	0.627300	0.027550
O371	O37	0.358300	0.838000	0.921000
O381	O38	0.141700	0.662000	0.421000
O391	O39	0.579100	0.821100	0.017300
O401	O40	0.831200	0.674900	0.458350
O411	O41	0.400400	0.717600	0.853480
O421	O42	0.583300	0.745700	0.107970
O431	O43	0.083300	0.245700	0.392030
O441	O44	0.108000	0.622000	0.663120
O451	O45	0.620100	0.985100	0.729470
O461	O46	0.124500	0.891300	0.363640
O471	O47	0.876600	0.333200	0.819490
O481	O48	0.839600	0.650600	0.609310
O491	O49	0.160400	0.349400	0.390690
O501	O50	0.914400	0.291000	0.296650
O511	O51	0.581400	0.233100	0.471750
O521	O52	0.376600	0.833200	0.680510
O531	O53	0.920900	0.678900	0.517300
O541	O54	0.879900	0.514900	0.229470
O551	O55	0.339600	0.150600	0.890690
O561	O56	0.868400	0.599400	0.953800
O571	O57	0.420900	0.178900	0.982700
O581	O58	0.408400	0.269800	0.216010
O591	O59	0.567400	0.240000	0.051190
O601	O60	0.898700	0.701700	0.929450
O611	O61	0.379900	0.014900	0.270530
O621	O62	0.608000	0.122000	0.836880
O631	O63	0.101300	0.298300	0.070550
O641	O64	0.432600	0.760000	0.948810
O651	O65	0.099600	0.782400	0.353480
O661	O66	0.038500	0.653900	0.119770
O671	O67	0.085600	0.709000	0.703350
O681	O68	0.918200	0.718900	0.191370
O691	O69	0.081400	0.733100	0.028250
O701	O70	0.309400	0.139300	0.281660
O711	O71	0.538500	0.153900	0.380230
O721	O72	0.660400	0.849400	0.109310
O731	O73	0.631600	0.900600	0.453800
O741	O74	0.072000	0.123200	0.733500
O751	O75	0.690600	0.860700	0.718340
O761	O76	0.928000	0.876800	0.266500
O771	O77	0.461500	0.846100	0.619770
O781	O78	0.601300	0.798300	0.429450
O791	O79	0.375500	0.608700	0.863640
O801	O80	0.892000	0.378000	0.336880
O811	O81	0.908400	0.769800	0.283990
O821	O82	0.123400	0.666800	0.180510
O831	O83	0.418200	0.218900	0.308630
O841	O84	0.916700	0.754300	0.607970
O851	O85	0.900400	0.217600	0.646520
O861	O86	0.168800	0.325100	0.541650
O871	O87	0.418600	0.766900	0.528250
O881	O88	0.131600	0.400600	0.046200
O891	O89	0.081800	0.281100	0.808630
O901	O90	0.403900	0.072800	0.644030
O911	O91	0.079100	0.321100	0.482700
O921	O92	0.788100	0.486600	0.845300
O931	O93	0.599200	0.127300	0.472450
O941	O94	0.368400	0.099400	0.546200
O951	O95	0.599600	0.282400	0.146520
O961	O96	0.623400	0.166800	0.319490
