data_QOSXOM_clean_PM
_symmetry_space_group_name_H-M	'P1'
_cell_length_a	17.635600
_cell_length_b	48.064400
_cell_length_c	24.553900
_cell_angle_alpha	90.000000
_cell_angle_beta	90.000000
_cell_angle_gamma	90.000000
_symmetry_Int_Tables_number 1

loop_
_symmetry_equiv_pos_as_xyz
'x,y,z'

loop_
_atom_site_label
_atom_site_type_symbol
_atom_site_fract_x
_atom_site_fract_y
_atom_site_fract_z
Zn11	Zn1	0.431440	0.310680	0.190660
Zn21	Zn2	0.373100	0.419090	0.090060
Zn31	Zn3	0.431220	0.527160	0.195970
Zn41	Zn4	0.743930	0.524470	0.105640
Zn51	Zn5	0.688350	0.416840	0.999380
Zn61	Zn6	0.748580	0.310820	0.105690
N11	N1	0.371400	0.341200	0.157400
N21	N2	0.346200	0.382700	0.123500
N31	N3	0.344300	0.453400	0.128900
N41	N4	0.367600	0.495200	0.168400
N51	N5	0.539900	0.514900	0.188500
N61	N6	0.655900	0.512800	0.155700
N71	N7	0.770200	0.493900	0.052600
N81	N8	0.741700	0.452800	0.015900
N91	N9	0.738500	0.380700	0.012900
N101	N10	0.766700	0.338800	0.049600
N111	N11	0.658800	0.322000	0.150800
N121	N12	0.538900	0.321400	0.182800
N131	N13	0.487400	0.419100	0.087600
N141	N14	0.601500	0.416800	0.054900
N151	N15	0.419900	0.273400	0.159500
N161	N16	0.592300	0.441000	0.855400
N171	N17	0.642500	0.420100	0.927300
N181	N18	0.404800	0.536300	0.274500
N191	N19	0.331300	0.534200	0.345500
N201	N20	0.286200	0.444100	0.939300
N211	N21	0.331100	0.422300	0.014700
N221	N22	0.335700	0.307500	0.346000
N231	N23	0.726500	0.273500	0.075200
N241	N24	0.405500	0.307600	0.268600
C11	C1	0.401400	0.364500	0.138600
C21	C2	0.294000	0.343600	0.152100
C31	C3	0.235100	0.324600	0.157600
C41	C4	0.162200	0.331800	0.141200
C51	C5	0.148300	0.358000	0.119400
C61	C6	0.207200	0.377000	0.113900
C71	C7	0.280100	0.369800	0.130300
C81	C8	0.067600	0.362600	0.089400
C91	C9	0.398600	0.470600	0.147400
C101	C10	0.278400	0.466800	0.136200
C111	C11	0.204500	0.460800	0.120300
C121	C12	0.147200	0.480200	0.128800
C131	C13	0.163700	0.505500	0.153300
C141	C14	0.237600	0.511500	0.169200
C151	C15	0.294900	0.492200	0.160700
C161	C16	0.062300	0.476300	0.104400
C171	C17	0.588800	0.528800	0.152600
C181	C18	0.587000	0.494200	0.210100
C191	C19	0.555000	0.474800	0.245300
C201	C20	0.595000	0.451000	0.259600
C211	C21	0.668000	0.446600	0.238700
C221	C22	0.699600	0.466000	0.203600
C231	C23	0.659000	0.489800	0.189300
C241	C24	0.716000	0.418900	0.251000
C251	C25	0.723700	0.472200	0.055400
C261	C26	0.813000	0.461000	0.976000
C271	C27	0.821100	0.486100	0.008900
C281	C28	0.722500	0.360500	0.050200
C291	C29	0.799000	0.370600	0.981000
C301	C30	0.814800	0.346800	0.002800
C311	C31	0.586000	0.308200	0.147900
C321	C32	0.573700	0.343900	0.207900
C331	C33	0.548800	0.365100	0.242000
C341	C34	0.598000	0.386400	0.256700
C351	C35	0.672000	0.386500	0.237400
C361	C36	0.696900	0.365300	0.203300
C371	C37	0.647800	0.344000	0.188600
C381	C38	0.576000	0.413800	0.292100
C391	C39	0.525300	0.418000	0.041400
C401	C40	0.536200	0.418100	0.129900
C411	C41	0.524000	0.418300	0.185800
C421	C42	0.585000	0.416800	0.221400
C431	C43	0.658600	0.415300	0.201000
C441	C44	0.670800	0.415100	0.145100
C451	C45	0.609600	0.416500	0.109500
C461	C46	0.412000	0.265400	0.110800
C471	C47	0.392000	0.278600	0.052000
C481	C48	0.634300	0.444000	0.899500
C491	C49	0.603600	0.401200	0.898900
C501	C50	0.588000	0.373900	0.913500
C511	C51	0.536000	0.358400	0.883000
C521	C52	0.500000	0.370300	0.839000
C531	C53	0.516000	0.397600	0.824300
C541	C54	0.567000	0.413100	0.854300
C551	C55	0.436000	0.359000	0.799000
C561	C56	0.344300	0.524900	0.293800
C571	C57	0.452000	0.553500	0.314000
C581	C58	0.393000	0.552800	0.354100
C591	C59	0.306400	0.446800	0.991400
C601	C60	0.325700	0.403700	0.974900
C611	C61	0.359700	0.377600	0.971400
C621	C62	0.366000	0.364400	0.921000
C631	C63	0.338000	0.377100	0.874600
C641	C64	0.304000	0.403200	0.878000
C651	C65	0.297900	0.416400	0.928100
C661	C66	0.407000	0.335100	0.916000
C671	C67	0.355000	0.358000	0.823000
C681	C68	0.338200	0.310700	0.293000
C691	C69	0.409000	0.300600	0.360700
C701	C70	0.449300	0.298800	0.310900
C711	C71	0.676300	0.264300	0.034500
C721	C72	0.621000	0.279200	0.002000
C731	C73	0.565000	0.262300	0.972000
C741	C74	0.460000	0.278000	0.072000
Zn71	Zn7	0.068560	0.689320	0.690660
Zn81	Zn8	0.126900	0.580910	0.590060
Zn91	Zn9	0.068780	0.472840	0.695970
Zn101	Zn10	0.756070	0.475530	0.605640
Zn111	Zn11	0.811650	0.583160	0.499380
Zn121	Zn12	0.751420	0.689180	0.605690
N251	N25	0.128600	0.658800	0.657400
N261	N26	0.153800	0.617300	0.623500
N271	N27	0.155700	0.546600	0.628900
N281	N28	0.132400	0.504800	0.668400
N291	N29	0.960100	0.485100	0.688500
N301	N30	0.844100	0.487200	0.655700
N311	N31	0.729800	0.506100	0.552600
N321	N32	0.758300	0.547200	0.515900
N331	N33	0.761500	0.619300	0.512900
N341	N34	0.733300	0.661200	0.549600
N351	N35	0.841200	0.678000	0.650800
N361	N36	0.961100	0.678600	0.682800
N371	N37	0.012600	0.580900	0.587600
N381	N38	0.898500	0.583200	0.554900
N391	N39	0.080100	0.726600	0.659500
N401	N40	0.907700	0.559000	0.355400
N411	N41	0.857500	0.579900	0.427300
N421	N42	0.095200	0.463700	0.774500
N431	N43	0.168700	0.465800	0.845500
N441	N44	0.213800	0.555900	0.439300
N451	N45	0.168900	0.577700	0.514700
N461	N46	0.164300	0.692500	0.846000
N471	N47	0.773500	0.726500	0.575200
N481	N48	0.094500	0.692400	0.768600
C751	C75	0.098600	0.635500	0.638600
C761	C76	0.206000	0.656400	0.652100
C771	C77	0.264900	0.675400	0.657600
C781	C78	0.337800	0.668200	0.641200
C791	C79	0.351700	0.642000	0.619400
C801	C80	0.292800	0.623000	0.613900
C811	C81	0.219900	0.630200	0.630300
C821	C82	0.432400	0.637400	0.589400
C831	C83	0.101400	0.529400	0.647400
C841	C84	0.221600	0.533200	0.636200
C851	C85	0.295500	0.539200	0.620300
C861	C86	0.352800	0.519800	0.628800
C871	C87	0.336300	0.494500	0.653300
C881	C88	0.262400	0.488500	0.669200
C891	C89	0.205100	0.507800	0.660700
C901	C90	0.437700	0.523700	0.604400
C911	C91	0.911200	0.471200	0.652600
C921	C92	0.913000	0.505800	0.710100
C931	C93	0.945000	0.525200	0.745300
C941	C94	0.905000	0.549000	0.759600
C951	C95	0.832000	0.553400	0.738700
C961	C96	0.800400	0.534000	0.703600
C971	C97	0.841000	0.510200	0.689300
C981	C98	0.784000	0.581100	0.751000
C991	C99	0.776300	0.527800	0.555400
C1001	C100	0.687000	0.539000	0.476000
C1011	C101	0.678900	0.513900	0.508900
C1021	C102	0.777500	0.639500	0.550200
C1031	C103	0.701000	0.629400	0.481000
C1041	C104	0.685200	0.653200	0.502800
C1051	C105	0.914000	0.691800	0.647900
C1061	C106	0.926300	0.656100	0.707900
C1071	C107	0.951200	0.634900	0.742000
C1081	C108	0.902000	0.613600	0.756700
C1091	C109	0.828000	0.613500	0.737400
C1101	C110	0.803100	0.634700	0.703300
C1111	C111	0.852200	0.656000	0.688600
C1121	C112	0.924000	0.586200	0.792100
C1131	C113	0.974700	0.582000	0.541400
C1141	C114	0.963800	0.581900	0.629900
C1151	C115	0.976000	0.581700	0.685800
C1161	C116	0.915000	0.583200	0.721400
C1171	C117	0.841400	0.584700	0.701000
C1181	C118	0.829200	0.584900	0.645100
C1191	C119	0.890400	0.583500	0.609500
C1201	C120	0.088000	0.734600	0.610800
C1211	C121	0.108000	0.721400	0.552000
C1221	C122	0.865700	0.556000	0.399500
C1231	C123	0.896400	0.598800	0.398900
C1241	C124	0.912000	0.626100	0.413500
C1251	C125	0.964000	0.641600	0.383000
C1261	C126	0.000000	0.629700	0.339000
C1271	C127	0.984000	0.602400	0.324300
C1281	C128	0.933000	0.586900	0.354300
C1291	C129	0.064000	0.641000	0.299000
C1301	C130	0.155700	0.475100	0.793800
C1311	C131	0.048000	0.446500	0.814000
C1321	C132	0.107000	0.447200	0.854100
C1331	C133	0.193600	0.553200	0.491400
C1341	C134	0.174300	0.596300	0.474900
C1351	C135	0.140300	0.622400	0.471400
C1361	C136	0.134000	0.635600	0.421000
C1371	C137	0.162000	0.622900	0.374600
C1381	C138	0.196000	0.596800	0.378000
C1391	C139	0.202100	0.583600	0.428100
C1401	C140	0.093000	0.664900	0.416000
C1411	C141	0.145000	0.642000	0.323000
C1421	C142	0.161800	0.689300	0.793000
C1431	C143	0.091000	0.699400	0.860700
C1441	C144	0.050700	0.701200	0.810900
C1451	C145	0.823700	0.735700	0.534500
C1461	C146	0.879000	0.720800	0.502000
C1471	C147	0.935000	0.737700	0.472000
C1481	C148	0.040000	0.722000	0.572000
Zn131	Zn13	0.568560	0.810680	0.809340
Zn141	Zn14	0.626900	0.919090	0.909940
Zn151	Zn15	0.568780	0.027160	0.804030
Zn161	Zn16	0.256070	0.024470	0.894360
Zn171	Zn17	0.311650	0.916840	0.000620
Zn181	Zn18	0.251420	0.810820	0.894310
N491	N49	0.628600	0.841200	0.842600
N501	N50	0.653800	0.882700	0.876500
N511	N51	0.655700	0.953400	0.871100
N521	N52	0.632400	0.995200	0.831600
N531	N53	0.460100	0.014900	0.811500
N541	N54	0.344100	0.012800	0.844300
N551	N55	0.229800	0.993900	0.947400
N561	N56	0.258300	0.952800	0.984100
N571	N57	0.261500	0.880700	0.987100
N581	N58	0.233300	0.838800	0.950400
N591	N59	0.341200	0.822000	0.849200
N601	N60	0.461100	0.821400	0.817200
N611	N61	0.512600	0.919100	0.912400
N621	N62	0.398500	0.916800	0.945100
N631	N63	0.580100	0.773400	0.840500
N641	N64	0.407700	0.941000	0.144600
N651	N65	0.357500	0.920100	0.072700
N661	N66	0.595200	0.036300	0.725500
N671	N67	0.668700	0.034200	0.654500
N681	N68	0.713800	0.944100	0.060700
N691	N69	0.668900	0.922300	0.985300
N701	N70	0.664300	0.807500	0.654000
N711	N71	0.273500	0.773500	0.924800
N721	N72	0.594500	0.807600	0.731400
C1491	C149	0.598600	0.864500	0.861400
C1501	C150	0.706000	0.843600	0.847900
C1511	C151	0.764900	0.824600	0.842400
C1521	C152	0.837800	0.831800	0.858800
C1531	C153	0.851700	0.858000	0.880600
C1541	C154	0.792800	0.877000	0.886100
C1551	C155	0.719900	0.869800	0.869700
C1561	C156	0.932400	0.862600	0.910600
C1571	C157	0.601400	0.970600	0.852600
C1581	C158	0.721600	0.966800	0.863800
C1591	C159	0.795500	0.960800	0.879700
C1601	C160	0.852800	0.980200	0.871200
C1611	C161	0.836300	0.005500	0.846700
C1621	C162	0.762400	0.011500	0.830800
C1631	C163	0.705100	0.992200	0.839300
C1641	C164	0.937700	0.976300	0.895600
C1651	C165	0.411200	0.028800	0.847400
C1661	C166	0.413000	0.994200	0.789900
C1671	C167	0.445000	0.974800	0.754700
C1681	C168	0.405000	0.951000	0.740400
C1691	C169	0.332000	0.946600	0.761300
C1701	C170	0.300400	0.966000	0.796400
C1711	C171	0.341000	0.989800	0.810700
C1721	C172	0.284000	0.918900	0.749000
C1731	C173	0.276300	0.972200	0.944600
C1741	C174	0.187000	0.961000	0.024000
C1751	C175	0.178900	0.986100	0.991100
C1761	C176	0.277500	0.860500	0.949800
C1771	C177	0.201000	0.870600	0.019000
C1781	C178	0.185200	0.846800	0.997200
C1791	C179	0.414000	0.808200	0.852100
C1801	C180	0.426300	0.843900	0.792100
C1811	C181	0.451200	0.865100	0.758000
C1821	C182	0.402000	0.886400	0.743300
C1831	C183	0.328000	0.886500	0.762600
C1841	C184	0.303100	0.865300	0.796700
C1851	C185	0.352200	0.844000	0.811400
C1861	C186	0.424000	0.913800	0.707900
C1871	C187	0.474700	0.918000	0.958600
C1881	C188	0.463800	0.918100	0.870100
C1891	C189	0.476000	0.918300	0.814200
C1901	C190	0.415000	0.916800	0.778600
C1911	C191	0.341400	0.915300	0.799000
C1921	C192	0.329200	0.915100	0.854900
C1931	C193	0.390400	0.916500	0.890500
C1941	C194	0.588000	0.765400	0.889200
C1951	C195	0.608000	0.778600	0.948000
C1961	C196	0.365700	0.944000	0.100500
C1971	C197	0.396400	0.901200	0.101100
C1981	C198	0.412000	0.873900	0.086500
C1991	C199	0.464000	0.858400	0.117000
C2001	C200	0.500000	0.870300	0.161000
C2011	C201	0.484000	0.897600	0.175700
C2021	C202	0.433000	0.913100	0.145700
C2031	C203	0.564000	0.859000	0.201000
C2041	C204	0.655700	0.024900	0.706200
C2051	C205	0.548000	0.053500	0.686000
C2061	C206	0.607000	0.052800	0.645900
C2071	C207	0.693600	0.946800	0.008600
C2081	C208	0.674300	0.903700	0.025100
C2091	C209	0.640300	0.877600	0.028600
C2101	C210	0.634000	0.864400	0.079000
C2111	C211	0.662000	0.877100	0.125400
C2121	C212	0.696000	0.903200	0.122000
C2131	C213	0.702100	0.916400	0.071900
C2141	C214	0.593000	0.835100	0.084000
C2151	C215	0.645000	0.858000	0.177000
C2161	C216	0.661800	0.810700	0.707000
C2171	C217	0.591000	0.800600	0.639300
C2181	C218	0.550700	0.798800	0.689100
C2191	C219	0.323700	0.764300	0.965500
C2201	C220	0.379000	0.779200	0.998000
C2211	C221	0.435000	0.762300	0.028000
C2221	C222	0.540000	0.778000	0.928000
Zn191	Zn19	0.931440	0.189320	0.309340
Zn201	Zn20	0.873100	0.080910	0.409940
Zn211	Zn21	0.931220	0.972840	0.304030
Zn221	Zn22	0.243930	0.975530	0.394360
Zn231	Zn23	0.188350	0.083160	0.500620
Zn241	Zn24	0.248580	0.189180	0.394310
N731	N73	0.871400	0.158800	0.342600
N741	N74	0.846200	0.117300	0.376500
N751	N75	0.844300	0.046600	0.371100
N761	N76	0.867600	0.004800	0.331600
N771	N77	0.039900	0.985100	0.311500
N781	N78	0.155900	0.987200	0.344300
N791	N79	0.270200	0.006100	0.447400
N801	N80	0.241700	0.047200	0.484100
N811	N81	0.238500	0.119300	0.487100
N821	N82	0.266700	0.161200	0.450400
N831	N83	0.158800	0.178000	0.349200
N841	N84	0.038900	0.178600	0.317200
N851	N85	0.987400	0.080900	0.412400
N861	N86	0.101500	0.083200	0.445100
N871	N87	0.919900	0.226600	0.340500
N881	N88	0.092300	0.059000	0.644600
N891	N89	0.142500	0.079900	0.572700
N901	N90	0.904800	0.963700	0.225500
N911	N91	0.831300	0.965800	0.154500
N921	N92	0.786200	0.055900	0.560700
N931	N93	0.831100	0.077700	0.485300
N941	N94	0.835700	0.192500	0.154000
N951	N95	0.226500	0.226500	0.424800
N961	N96	0.905500	0.192400	0.231400
C2231	C223	0.901400	0.135500	0.361400
C2241	C224	0.794000	0.156400	0.347900
C2251	C225	0.735100	0.175400	0.342400
C2261	C226	0.662200	0.168200	0.358800
C2271	C227	0.648300	0.142000	0.380600
C2281	C228	0.707200	0.123000	0.386100
C2291	C229	0.780100	0.130200	0.369700
C2301	C230	0.567600	0.137400	0.410600
C2311	C231	0.898600	0.029400	0.352600
C2321	C232	0.778400	0.033200	0.363800
C2331	C233	0.704500	0.039200	0.379700
C2341	C234	0.647200	0.019800	0.371200
C2351	C235	0.663700	0.994500	0.346700
C2361	C236	0.737600	0.988500	0.330800
C2371	C237	0.794900	0.007800	0.339300
C2381	C238	0.562300	0.023700	0.395600
C2391	C239	0.088800	0.971200	0.347400
C2401	C240	0.087000	0.005800	0.289900
C2411	C241	0.055000	0.025200	0.254700
C2421	C242	0.095000	0.049000	0.240400
C2431	C243	0.168000	0.053400	0.261300
C2441	C244	0.199600	0.034000	0.296400
C2451	C245	0.159000	0.010200	0.310700
C2461	C246	0.216000	0.081100	0.249000
C2471	C247	0.223700	0.027800	0.444600
C2481	C248	0.313000	0.039000	0.524000
C2491	C249	0.321100	0.013900	0.491100
C2501	C250	0.222500	0.139500	0.449800
C2511	C251	0.299000	0.129400	0.519000
C2521	C252	0.314800	0.153200	0.497200
C2531	C253	0.086000	0.191800	0.352100
C2541	C254	0.073700	0.156100	0.292100
C2551	C255	0.048800	0.134900	0.258000
C2561	C256	0.098000	0.113600	0.243300
C2571	C257	0.172000	0.113500	0.262600
C2581	C258	0.196900	0.134700	0.296700
C2591	C259	0.147800	0.156000	0.311400
C2601	C260	0.076000	0.086200	0.207900
C2611	C261	0.025300	0.082000	0.458600
C2621	C262	0.036200	0.081900	0.370100
C2631	C263	0.024000	0.081700	0.314200
C2641	C264	0.085000	0.083200	0.278600
C2651	C265	0.158600	0.084700	0.299000
C2661	C266	0.170800	0.084900	0.354900
C2671	C267	0.109600	0.083500	0.390500
C2681	C268	0.912000	0.234600	0.389200
C2691	C269	0.892000	0.221400	0.448000
C2701	C270	0.134300	0.056000	0.600500
C2711	C271	0.103600	0.098800	0.601100
C2721	C272	0.088000	0.126100	0.586500
C2731	C273	0.036000	0.141600	0.617000
C2741	C274	0.000000	0.129700	0.661000
C2751	C275	0.016000	0.102400	0.675700
C2761	C276	0.067000	0.086900	0.645700
C2771	C277	0.936000	0.141000	0.701000
C2781	C278	0.844300	0.975100	0.206200
C2791	C279	0.952000	0.946500	0.186000
C2801	C280	0.893000	0.947200	0.145900
C2811	C281	0.806400	0.053200	0.508600
C2821	C282	0.825700	0.096300	0.525100
C2831	C283	0.859700	0.122400	0.528600
C2841	C284	0.866000	0.135600	0.579000
C2851	C285	0.838000	0.122900	0.625400
C2861	C286	0.804000	0.096800	0.622000
C2871	C287	0.797900	0.083600	0.571900
C2881	C288	0.907000	0.164900	0.584000
C2891	C289	0.855000	0.142000	0.677000
C2901	C290	0.838200	0.189300	0.207000
C2911	C291	0.909000	0.199400	0.139300
C2921	C292	0.949300	0.201200	0.189100
C2931	C293	0.176300	0.235700	0.465500
C2941	C294	0.121000	0.220800	0.498000
C2951	C295	0.065000	0.237700	0.528000
C2961	C296	0.960000	0.222000	0.428000
Zn251	Zn25	0.568560	0.689320	0.809340
Zn261	Zn26	0.626900	0.580910	0.909940
Zn271	Zn27	0.568780	0.472840	0.804030
Zn281	Zn28	0.256070	0.475530	0.894360
Zn291	Zn29	0.311650	0.583160	0.000620
Zn301	Zn30	0.251420	0.689180	0.894310
N971	N97	0.628600	0.658800	0.842600
N981	N98	0.653800	0.617300	0.876500
N991	N99	0.655700	0.546600	0.871100
N1001	N100	0.632400	0.504800	0.831600
N1011	N101	0.460100	0.485100	0.811500
N1021	N102	0.344100	0.487200	0.844300
N1031	N103	0.229800	0.506100	0.947400
N1041	N104	0.258300	0.547200	0.984100
N1051	N105	0.261500	0.619300	0.987100
N1061	N106	0.233300	0.661200	0.950400
N1071	N107	0.341200	0.678000	0.849200
N1081	N108	0.461100	0.678600	0.817200
N1091	N109	0.512600	0.580900	0.912400
N1101	N110	0.398500	0.583200	0.945100
N1111	N111	0.580100	0.726600	0.840500
N1121	N112	0.407700	0.559000	0.144600
N1131	N113	0.357500	0.579900	0.072700
N1141	N114	0.595200	0.463700	0.725500
N1151	N115	0.668700	0.465800	0.654500
N1161	N116	0.713800	0.555900	0.060700
N1171	N117	0.668900	0.577700	0.985300
N1181	N118	0.664300	0.692500	0.654000
N1191	N119	0.273500	0.726500	0.924800
N1201	N120	0.594500	0.692400	0.731400
C2971	C297	0.598600	0.635500	0.861400
C2981	C298	0.706000	0.656400	0.847900
C2991	C299	0.764900	0.675400	0.842400
C3001	C300	0.837800	0.668200	0.858800
C3011	C301	0.851700	0.642000	0.880600
C3021	C302	0.792800	0.623000	0.886100
C3031	C303	0.719900	0.630200	0.869700
C3041	C304	0.932400	0.637400	0.910600
C3051	C305	0.601400	0.529400	0.852600
C3061	C306	0.721600	0.533200	0.863800
C3071	C307	0.795500	0.539200	0.879700
C3081	C308	0.852800	0.519800	0.871200
C3091	C309	0.836300	0.494500	0.846700
C3101	C310	0.762400	0.488500	0.830800
C3111	C311	0.705100	0.507800	0.839300
C3121	C312	0.937700	0.523700	0.895600
C3131	C313	0.411200	0.471200	0.847400
C3141	C314	0.413000	0.505800	0.789900
C3151	C315	0.445000	0.525200	0.754700
C3161	C316	0.405000	0.549000	0.740400
C3171	C317	0.332000	0.553400	0.761300
C3181	C318	0.300400	0.534000	0.796400
C3191	C319	0.341000	0.510200	0.810700
C3201	C320	0.284000	0.581100	0.749000
C3211	C321	0.276300	0.527800	0.944600
C3221	C322	0.187000	0.539000	0.024000
C3231	C323	0.178900	0.513900	0.991100
C3241	C324	0.277500	0.639500	0.949800
C3251	C325	0.201000	0.629400	0.019000
C3261	C326	0.185200	0.653200	0.997200
C3271	C327	0.414000	0.691800	0.852100
C3281	C328	0.426300	0.656100	0.792100
C3291	C329	0.451200	0.634900	0.758000
C3301	C330	0.402000	0.613600	0.743300
C3311	C331	0.328000	0.613500	0.762600
C3321	C332	0.303100	0.634700	0.796700
C3331	C333	0.352200	0.656000	0.811400
C3341	C334	0.424000	0.586200	0.707900
C3351	C335	0.474700	0.582000	0.958600
C3361	C336	0.463800	0.581900	0.870100
C3371	C337	0.476000	0.581700	0.814200
C3381	C338	0.415000	0.583200	0.778600
C3391	C339	0.341400	0.584700	0.799000
C3401	C340	0.329200	0.584900	0.854900
C3411	C341	0.390400	0.583500	0.890500
C3421	C342	0.588000	0.734600	0.889200
C3431	C343	0.608000	0.721400	0.948000
C3441	C344	0.365700	0.556000	0.100500
C3451	C345	0.396400	0.598800	0.101100
C3461	C346	0.412000	0.626100	0.086500
C3471	C347	0.464000	0.641600	0.117000
C3481	C348	0.500000	0.629700	0.161000
C3491	C349	0.484000	0.602400	0.175700
C3501	C350	0.433000	0.586900	0.145700
C3511	C351	0.564000	0.641000	0.201000
C3521	C352	0.655700	0.475100	0.706200
C3531	C353	0.548000	0.446500	0.686000
C3541	C354	0.607000	0.447200	0.645900
C3551	C355	0.693600	0.553200	0.008600
C3561	C356	0.674300	0.596300	0.025100
C3571	C357	0.640300	0.622400	0.028600
C3581	C358	0.634000	0.635600	0.079000
C3591	C359	0.662000	0.622900	0.125400
C3601	C360	0.696000	0.596800	0.122000
C3611	C361	0.702100	0.583600	0.071900
C3621	C362	0.593000	0.664900	0.084000
C3631	C363	0.645000	0.642000	0.177000
C3641	C364	0.661800	0.689300	0.707000
C3651	C365	0.591000	0.699400	0.639300
C3661	C366	0.550700	0.701200	0.689100
C3671	C367	0.323700	0.735700	0.965500
C3681	C368	0.379000	0.720800	0.998000
C3691	C369	0.435000	0.737700	0.028000
C3701	C370	0.540000	0.722000	0.928000
Zn311	Zn31	0.931440	0.310680	0.309340
Zn321	Zn32	0.873100	0.419090	0.409940
Zn331	Zn33	0.931220	0.527160	0.304030
Zn341	Zn34	0.243930	0.524470	0.394360
Zn351	Zn35	0.188350	0.416840	0.500620
Zn361	Zn36	0.248580	0.310820	0.394310
N1211	N121	0.871400	0.341200	0.342600
N1221	N122	0.846200	0.382700	0.376500
N1231	N123	0.844300	0.453400	0.371100
N1241	N124	0.867600	0.495200	0.331600
N1251	N125	0.039900	0.514900	0.311500
N1261	N126	0.155900	0.512800	0.344300
N1271	N127	0.270200	0.493900	0.447400
N1281	N128	0.241700	0.452800	0.484100
N1291	N129	0.238500	0.380700	0.487100
N1301	N130	0.266700	0.338800	0.450400
N1311	N131	0.158800	0.322000	0.349200
N1321	N132	0.038900	0.321400	0.317200
N1331	N133	0.987400	0.419100	0.412400
N1341	N134	0.101500	0.416800	0.445100
N1351	N135	0.919900	0.273400	0.340500
N1361	N136	0.092300	0.441000	0.644600
N1371	N137	0.142500	0.420100	0.572700
N1381	N138	0.904800	0.536300	0.225500
N1391	N139	0.831300	0.534200	0.154500
N1401	N140	0.786200	0.444100	0.560700
N1411	N141	0.831100	0.422300	0.485300
N1421	N142	0.835700	0.307500	0.154000
N1431	N143	0.226500	0.273500	0.424800
N1441	N144	0.905500	0.307600	0.231400
C3711	C371	0.901400	0.364500	0.361400
C3721	C372	0.794000	0.343600	0.347900
C3731	C373	0.735100	0.324600	0.342400
C3741	C374	0.662200	0.331800	0.358800
C3751	C375	0.648300	0.358000	0.380600
C3761	C376	0.707200	0.377000	0.386100
C3771	C377	0.780100	0.369800	0.369700
C3781	C378	0.567600	0.362600	0.410600
C3791	C379	0.898600	0.470600	0.352600
C3801	C380	0.778400	0.466800	0.363800
C3811	C381	0.704500	0.460800	0.379700
C3821	C382	0.647200	0.480200	0.371200
C3831	C383	0.663700	0.505500	0.346700
C3841	C384	0.737600	0.511500	0.330800
C3851	C385	0.794900	0.492200	0.339300
C3861	C386	0.562300	0.476300	0.395600
C3871	C387	0.088800	0.528800	0.347400
C3881	C388	0.087000	0.494200	0.289900
C3891	C389	0.055000	0.474800	0.254700
C3901	C390	0.095000	0.451000	0.240400
C3911	C391	0.168000	0.446600	0.261300
C3921	C392	0.199600	0.466000	0.296400
C3931	C393	0.159000	0.489800	0.310700
C3941	C394	0.216000	0.418900	0.249000
C3951	C395	0.223700	0.472200	0.444600
C3961	C396	0.313000	0.461000	0.524000
C3971	C397	0.321100	0.486100	0.491100
C3981	C398	0.222500	0.360500	0.449800
C3991	C399	0.299000	0.370600	0.519000
C4001	C400	0.314800	0.346800	0.497200
C4011	C401	0.086000	0.308200	0.352100
C4021	C402	0.073700	0.343900	0.292100
C4031	C403	0.048800	0.365100	0.258000
C4041	C404	0.098000	0.386400	0.243300
C4051	C405	0.172000	0.386500	0.262600
C4061	C406	0.196900	0.365300	0.296700
C4071	C407	0.147800	0.344000	0.311400
C4081	C408	0.076000	0.413800	0.207900
C4091	C409	0.025300	0.418000	0.458600
C4101	C410	0.036200	0.418100	0.370100
C4111	C411	0.024000	0.418300	0.314200
C4121	C412	0.085000	0.416800	0.278600
C4131	C413	0.158600	0.415300	0.299000
C4141	C414	0.170800	0.415100	0.354900
C4151	C415	0.109600	0.416500	0.390500
C4161	C416	0.912000	0.265400	0.389200
C4171	C417	0.892000	0.278600	0.448000
C4181	C418	0.134300	0.444000	0.600500
C4191	C419	0.103600	0.401200	0.601100
C4201	C420	0.088000	0.373900	0.586500
C4211	C421	0.036000	0.358400	0.617000
C4221	C422	0.000000	0.370300	0.661000
C4231	C423	0.016000	0.397600	0.675700
C4241	C424	0.067000	0.413100	0.645700
C4251	C425	0.936000	0.359000	0.701000
C4261	C426	0.844300	0.524900	0.206200
C4271	C427	0.952000	0.553500	0.186000
C4281	C428	0.893000	0.552800	0.145900
C4291	C429	0.806400	0.446800	0.508600
C4301	C430	0.825700	0.403700	0.525100
C4311	C431	0.859700	0.377600	0.528600
C4321	C432	0.866000	0.364400	0.579000
C4331	C433	0.838000	0.377100	0.625400
C4341	C434	0.804000	0.403200	0.622000
C4351	C435	0.797900	0.416400	0.571900
C4361	C436	0.907000	0.335100	0.584000
C4371	C437	0.855000	0.358000	0.677000
C4381	C438	0.838200	0.310700	0.207000
C4391	C439	0.909000	0.300600	0.139300
C4401	C440	0.949300	0.298800	0.189100
C4411	C441	0.176300	0.264300	0.465500
C4421	C442	0.121000	0.279200	0.498000
C4431	C443	0.065000	0.262300	0.528000
C4441	C444	0.960000	0.278000	0.428000
Zn371	Zn37	0.431440	0.189320	0.190660
Zn381	Zn38	0.373100	0.080910	0.090060
Zn391	Zn39	0.431220	0.972840	0.195970
Zn401	Zn40	0.743930	0.975530	0.105640
Zn411	Zn41	0.688350	0.083160	0.999380
Zn421	Zn42	0.748580	0.189180	0.105690
N1451	N145	0.371400	0.158800	0.157400
N1461	N146	0.346200	0.117300	0.123500
N1471	N147	0.344300	0.046600	0.128900
N1481	N148	0.367600	0.004800	0.168400
N1491	N149	0.539900	0.985100	0.188500
N1501	N150	0.655900	0.987200	0.155700
N1511	N151	0.770200	0.006100	0.052600
N1521	N152	0.741700	0.047200	0.015900
N1531	N153	0.738500	0.119300	0.012900
N1541	N154	0.766700	0.161200	0.049600
N1551	N155	0.658800	0.178000	0.150800
N1561	N156	0.538900	0.178600	0.182800
N1571	N157	0.487400	0.080900	0.087600
N1581	N158	0.601500	0.083200	0.054900
N1591	N159	0.419900	0.226600	0.159500
N1601	N160	0.592300	0.059000	0.855400
N1611	N161	0.642500	0.079900	0.927300
N1621	N162	0.404800	0.963700	0.274500
N1631	N163	0.331300	0.965800	0.345500
N1641	N164	0.286200	0.055900	0.939300
N1651	N165	0.331100	0.077700	0.014700
N1661	N166	0.335700	0.192500	0.346000
N1671	N167	0.726500	0.226500	0.075200
N1681	N168	0.405500	0.192400	0.268600
C4451	C445	0.401400	0.135500	0.138600
C4461	C446	0.294000	0.156400	0.152100
C4471	C447	0.235100	0.175400	0.157600
C4481	C448	0.162200	0.168200	0.141200
C4491	C449	0.148300	0.142000	0.119400
C4501	C450	0.207200	0.123000	0.113900
C4511	C451	0.280100	0.130200	0.130300
C4521	C452	0.067600	0.137400	0.089400
C4531	C453	0.398600	0.029400	0.147400
C4541	C454	0.278400	0.033200	0.136200
C4551	C455	0.204500	0.039200	0.120300
C4561	C456	0.147200	0.019800	0.128800
C4571	C457	0.163700	0.994500	0.153300
C4581	C458	0.237600	0.988500	0.169200
C4591	C459	0.294900	0.007800	0.160700
C4601	C460	0.062300	0.023700	0.104400
C4611	C461	0.588800	0.971200	0.152600
C4621	C462	0.587000	0.005800	0.210100
C4631	C463	0.555000	0.025200	0.245300
C4641	C464	0.595000	0.049000	0.259600
C4651	C465	0.668000	0.053400	0.238700
C4661	C466	0.699600	0.034000	0.203600
C4671	C467	0.659000	0.010200	0.189300
C4681	C468	0.716000	0.081100	0.251000
C4691	C469	0.723700	0.027800	0.055400
C4701	C470	0.813000	0.039000	0.976000
C4711	C471	0.821100	0.013900	0.008900
C4721	C472	0.722500	0.139500	0.050200
C4731	C473	0.799000	0.129400	0.981000
C4741	C474	0.814800	0.153200	0.002800
C4751	C475	0.586000	0.191800	0.147900
C4761	C476	0.573700	0.156100	0.207900
C4771	C477	0.548800	0.134900	0.242000
C4781	C478	0.598000	0.113600	0.256700
C4791	C479	0.672000	0.113500	0.237400
C4801	C480	0.696900	0.134700	0.203300
C4811	C481	0.647800	0.156000	0.188600
C4821	C482	0.576000	0.086200	0.292100
C4831	C483	0.525300	0.082000	0.041400
C4841	C484	0.536200	0.081900	0.129900
C4851	C485	0.524000	0.081700	0.185800
C4861	C486	0.585000	0.083200	0.221400
C4871	C487	0.658600	0.084700	0.201000
C4881	C488	0.670800	0.084900	0.145100
C4891	C489	0.609600	0.083500	0.109500
C4901	C490	0.412000	0.234600	0.110800
C4911	C491	0.392000	0.221400	0.052000
C4921	C492	0.634300	0.056000	0.899500
C4931	C493	0.603600	0.098800	0.898900
C4941	C494	0.588000	0.126100	0.913500
C4951	C495	0.536000	0.141600	0.883000
C4961	C496	0.500000	0.129700	0.839000
C4971	C497	0.516000	0.102400	0.824300
C4981	C498	0.567000	0.086900	0.854300
C4991	C499	0.436000	0.141000	0.799000
C5001	C500	0.344300	0.975100	0.293800
C5011	C501	0.452000	0.946500	0.314000
C5021	C502	0.393000	0.947200	0.354100
C5031	C503	0.306400	0.053200	0.991400
C5041	C504	0.325700	0.096300	0.974900
C5051	C505	0.359700	0.122400	0.971400
C5061	C506	0.366000	0.135600	0.921000
C5071	C507	0.338000	0.122900	0.874600
C5081	C508	0.304000	0.096800	0.878000
C5091	C509	0.297900	0.083600	0.928100
C5101	C510	0.407000	0.164900	0.916000
C5111	C511	0.355000	0.142000	0.823000
C5121	C512	0.338200	0.189300	0.293000
C5131	C513	0.409000	0.199400	0.360700
C5141	C514	0.449300	0.201200	0.310900
C5151	C515	0.676300	0.235700	0.034500
C5161	C516	0.621000	0.220800	0.002000
C5171	C517	0.565000	0.237700	0.972000
C5181	C518	0.460000	0.222000	0.072000
Zn431	Zn43	0.068560	0.810680	0.690660
Zn441	Zn44	0.126900	0.919090	0.590060
Zn451	Zn45	0.068780	0.027160	0.695970
Zn461	Zn46	0.756070	0.024470	0.605640
Zn471	Zn47	0.811650	0.916840	0.499380
Zn481	Zn48	0.751420	0.810820	0.605690
N1691	N169	0.128600	0.841200	0.657400
N1701	N170	0.153800	0.882700	0.623500
N1711	N171	0.155700	0.953400	0.628900
N1721	N172	0.132400	0.995200	0.668400
N1731	N173	0.960100	0.014900	0.688500
N1741	N174	0.844100	0.012800	0.655700
N1751	N175	0.729800	0.993900	0.552600
N1761	N176	0.758300	0.952800	0.515900
N1771	N177	0.761500	0.880700	0.512900
N1781	N178	0.733300	0.838800	0.549600
N1791	N179	0.841200	0.822000	0.650800
N1801	N180	0.961100	0.821400	0.682800
N1811	N181	0.012600	0.919100	0.587600
N1821	N182	0.898500	0.916800	0.554900
N1831	N183	0.080100	0.773400	0.659500
N1841	N184	0.907700	0.941000	0.355400
N1851	N185	0.857500	0.920100	0.427300
N1861	N186	0.095200	0.036300	0.774500
N1871	N187	0.168700	0.034200	0.845500
N1881	N188	0.213800	0.944100	0.439300
N1891	N189	0.168900	0.922300	0.514700
N1901	N190	0.164300	0.807500	0.846000
N1911	N191	0.773500	0.773500	0.575200
N1921	N192	0.094500	0.807600	0.768600
C5191	C519	0.098600	0.864500	0.638600
C5201	C520	0.206000	0.843600	0.652100
C5211	C521	0.264900	0.824600	0.657600
C5221	C522	0.337800	0.831800	0.641200
C5231	C523	0.351700	0.858000	0.619400
C5241	C524	0.292800	0.877000	0.613900
C5251	C525	0.219900	0.869800	0.630300
C5261	C526	0.432400	0.862600	0.589400
C5271	C527	0.101400	0.970600	0.647400
C5281	C528	0.221600	0.966800	0.636200
C5291	C529	0.295500	0.960800	0.620300
C5301	C530	0.352800	0.980200	0.628800
C5311	C531	0.336300	0.005500	0.653300
C5321	C532	0.262400	0.011500	0.669200
C5331	C533	0.205100	0.992200	0.660700
C5341	C534	0.437700	0.976300	0.604400
C5351	C535	0.911200	0.028800	0.652600
C5361	C536	0.913000	0.994200	0.710100
C5371	C537	0.945000	0.974800	0.745300
C5381	C538	0.905000	0.951000	0.759600
C5391	C539	0.832000	0.946600	0.738700
C5401	C540	0.800400	0.966000	0.703600
C5411	C541	0.841000	0.989800	0.689300
C5421	C542	0.784000	0.918900	0.751000
C5431	C543	0.776300	0.972200	0.555400
C5441	C544	0.687000	0.961000	0.476000
C5451	C545	0.678900	0.986100	0.508900
C5461	C546	0.777500	0.860500	0.550200
C5471	C547	0.701000	0.870600	0.481000
C5481	C548	0.685200	0.846800	0.502800
C5491	C549	0.914000	0.808200	0.647900
C5501	C550	0.926300	0.843900	0.707900
C5511	C551	0.951200	0.865100	0.742000
C5521	C552	0.902000	0.886400	0.756700
C5531	C553	0.828000	0.886500	0.737400
C5541	C554	0.803100	0.865300	0.703300
C5551	C555	0.852200	0.844000	0.688600
C5561	C556	0.924000	0.913800	0.792100
C5571	C557	0.974700	0.918000	0.541400
C5581	C558	0.963800	0.918100	0.629900
C5591	C559	0.976000	0.918300	0.685800
C5601	C560	0.915000	0.916800	0.721400
C5611	C561	0.841400	0.915300	0.701000
C5621	C562	0.829200	0.915100	0.645100
C5631	C563	0.890400	0.916500	0.609500
C5641	C564	0.088000	0.765400	0.610800
C5651	C565	0.108000	0.778600	0.552000
C5661	C566	0.865700	0.944000	0.399500
C5671	C567	0.896400	0.901200	0.398900
C5681	C568	0.912000	0.873900	0.413500
C5691	C569	0.964000	0.858400	0.383000
C5701	C570	0.000000	0.870300	0.339000
C5711	C571	0.984000	0.897600	0.324300
C5721	C572	0.933000	0.913100	0.354300
C5731	C573	0.064000	0.859000	0.299000
C5741	C574	0.155700	0.024900	0.793800
C5751	C575	0.048000	0.053500	0.814000
C5761	C576	0.107000	0.052800	0.854100
C5771	C577	0.193600	0.946800	0.491400
C5781	C578	0.174300	0.903700	0.474900
C5791	C579	0.140300	0.877600	0.471400
C5801	C580	0.134000	0.864400	0.421000
C5811	C581	0.162000	0.877100	0.374600
C5821	C582	0.196000	0.903200	0.378000
C5831	C583	0.202100	0.916400	0.428100
C5841	C584	0.093000	0.835100	0.416000
C5851	C585	0.145000	0.858000	0.323000
C5861	C586	0.161800	0.810700	0.793000
C5871	C587	0.091000	0.800600	0.860700
C5881	C588	0.050700	0.798800	0.810900
C5891	C589	0.823700	0.764300	0.534500
C5901	C590	0.879000	0.779200	0.502000
C5911	C591	0.935000	0.762300	0.472000
C5921	C592	0.040000	0.778000	0.572000
C5931	C593	0.421000	0.250000	0.192500
C5941	C594	0.753500	0.250000	0.097300
C5951	C595	0.079000	0.750000	0.692500
C5961	C596	0.746500	0.750000	0.597300
C5971	C597	0.579000	0.750000	0.807500
C5981	C598	0.246500	0.750000	0.902700
C5991	C599	0.921000	0.250000	0.307500
C6001	C600	0.253500	0.250000	0.402700
