data_QOTWON_clean_PM
_symmetry_space_group_name_H-M	'P1'
_cell_length_a	12.722800
_cell_length_b	18.137200
_cell_length_c	18.137200
_cell_angle_alpha	82.933800
_cell_angle_beta	69.467600
_cell_angle_gamma	69.467700
_symmetry_Int_Tables_number 1

loop_
_symmetry_equiv_pos_as_xyz
'x,y,z'

loop_
_atom_site_label
_atom_site_type_symbol
_atom_site_fract_x
_atom_site_fract_y
_atom_site_fract_z
Mn11	Mn1	0.965190	0.173600	0.907920
Mn21	Mn2	0.873110	0.092080	0.673600
Mn31	Mn3	0.201740	0.218310	0.817580
Mn41	Mn4	0.980670	0.817580	0.281700
Mn51	Mn5	0.034810	0.826400	0.092080
Mn61	Mn6	0.453290	0.673600	0.407920
Mn71	Mn7	0.500000	0.500000	0.500000
Mn81	Mn8	0.579950	0.682420	0.218300
Mn91	Mn9	0.262360	0.718310	0.317580
Mn101	Mn10	0.861210	0.592080	0.173600
Mn111	Mn11	0.000000	0.500000	0.000000
Mn121	Mn12	0.737640	0.281690	0.682420
Mn131	Mn13	0.126890	0.907920	0.326400
Mn141	Mn14	0.420050	0.317580	0.781700
Mn151	Mn15	0.000000	0.000000	0.000000
Mn161	Mn16	0.000000	0.000000	0.500000
Mn171	Mn17	0.546710	0.326400	0.592080
Mn181	Mn18	0.138790	0.407920	0.826400
Mn191	Mn19	0.019330	0.182420	0.718300
Mn201	Mn20	0.798260	0.781690	0.182420
H11	H1	0.679100	0.098700	0.891900
H21	H2	0.551100	0.886800	0.411800
H31	H3	0.696800	0.049900	0.446900
H41	H4	0.895100	0.686200	0.813000
H51	H5	0.205600	0.351400	0.177400
H61	H6	0.735300	0.516400	0.489800
H71	H7	0.164800	0.564300	0.698900
H81	H8	0.140100	0.864600	0.584400
H91	H9	0.222200	0.608100	0.098700
H101	H10	0.459500	0.753800	0.629400
H111	H11	0.941700	0.205100	0.603100
H121	H12	0.105700	0.186200	0.313000
H131	H13	0.633900	0.532300	0.016300
H141	H14	0.928000	0.935700	0.801100
H151	H15	0.262500	0.678700	0.049300
H161	H16	0.894300	0.813800	0.687000
H171	H17	0.066500	0.925100	0.773700
H181	H18	0.265300	0.574900	0.726300
H191	H19	0.270900	0.801100	0.564300
H201	H20	0.169700	0.401300	0.608100
H211	H21	0.225100	0.510200	0.016400
H221	H22	0.058300	0.794900	0.396900
H231	H23	0.443000	0.322600	0.351400
H241	H24	0.291900	0.813000	0.813800
H251	H25	0.737500	0.321300	0.950700
H261	H26	0.544800	0.396900	0.705100
H271	H27	0.072000	0.064300	0.198900
H281	H28	0.910900	0.364600	0.084400
H291	H29	0.933500	0.074900	0.226300
H301	H30	0.540500	0.246200	0.370600
H311	H31	0.490500	0.821300	0.450700
H321	H32	0.777800	0.391900	0.901300
H331	H33	0.657300	0.253800	0.129400
H341	H34	0.429000	0.891900	0.401300
H351	H35	0.058800	0.450700	0.678700
H361	H36	0.349700	0.613200	0.088200
H371	H37	0.840200	0.226300	0.425100
H381	H38	0.830300	0.598700	0.391900
H391	H39	0.234400	0.148600	0.322600
H401	H40	0.008400	0.726300	0.925100
H411	H41	0.786700	0.870600	0.753800
H421	H42	0.794400	0.648600	0.822600
H431	H43	0.941200	0.549300	0.321300
H441	H44	0.213300	0.129400	0.246200
H451	H45	0.682500	0.967700	0.483700
H461	H46	0.241500	0.983600	0.010200
H471	H47	0.724500	0.415600	0.364600
H481	H48	0.765600	0.851400	0.677400
H491	H49	0.509500	0.178700	0.549300
H501	H50	0.856300	0.446900	0.450100
H511	H51	0.991600	0.273700	0.074900
H521	H52	0.571000	0.108100	0.598700
H531	H53	0.366100	0.467700	0.983700
H541	H54	0.383000	0.822600	0.851400
H551	H55	0.995300	0.915600	0.864600
H561	H56	0.734700	0.425100	0.273700
H571	H57	0.004700	0.084400	0.135400
H581	H58	0.774900	0.489800	0.983600
H591	H59	0.911100	0.629400	0.746200
H601	H60	0.835200	0.435700	0.301100
H611	H61	0.089100	0.635400	0.915600
H621	H62	0.833800	0.483700	0.532300
H631	H63	0.253300	0.053100	0.049900
H641	H64	0.617000	0.177400	0.148600
H651	H65	0.650300	0.386800	0.911800
H661	H66	0.581300	0.313000	0.313800
H671	H67	0.249900	0.294900	0.896900
H681	H68	0.275500	0.584400	0.635400
H691	H69	0.166200	0.516300	0.467700
H701	H70	0.146800	0.103100	0.794900
H711	H71	0.708100	0.187000	0.186200
H721	H72	0.037100	0.411800	0.613200
H731	H73	0.962900	0.588200	0.386800
H741	H74	0.143700	0.553100	0.549900
H751	H75	0.557000	0.677400	0.648600
H761	H76	0.317500	0.032300	0.516300
H771	H77	0.088900	0.370600	0.253800
H781	H78	0.863700	0.301100	0.064300
H791	H79	0.306400	0.549900	0.946900
H801	H80	0.251700	0.989800	0.483600
H811	H81	0.748300	0.010200	0.516400
H821	H82	0.349800	0.016300	0.967700
H831	H83	0.859900	0.135400	0.415600
H841	H84	0.746700	0.946900	0.950100
H851	H85	0.264700	0.483600	0.510200
H861	H86	0.650200	0.983700	0.032300
H871	H87	0.342700	0.746200	0.870600
H881	H88	0.853200	0.896900	0.205100
H891	H89	0.729100	0.198900	0.435700
H901	H90	0.693600	0.450100	0.053100
H911	H91	0.448900	0.113200	0.588200
H921	H92	0.320900	0.901300	0.108100
H931	H93	0.311800	0.950700	0.178700
H941	H94	0.455200	0.603100	0.294900
H951	H95	0.136300	0.698900	0.935700
H961	H96	0.758500	0.016400	0.989800
H971	H97	0.303200	0.950100	0.553100
H981	H98	0.418700	0.687000	0.686200
H991	H99	0.750100	0.705100	0.103100
H1001	H100	0.437900	0.911800	0.113200
H1011	H101	0.159800	0.773700	0.574900
H1021	H102	0.562100	0.088200	0.886800
H1031	H103	0.104900	0.313800	0.187000
H1041	H104	0.688200	0.049300	0.821300
C11	C1	0.796020	0.469400	0.500160
C21	C2	0.381380	0.831780	0.192260
C31	C3	0.734420	0.969400	0.000160
C41	C4	0.213770	0.844580	0.930680
C51	C5	0.144450	0.069320	0.344580
C61	C6	0.316920	0.802930	0.860430
C71	C7	0.265420	0.000160	0.530600
C81	C8	0.959090	0.031020	0.828600
C91	C9	0.855550	0.930680	0.655420
C101	C10	0.040910	0.968980	0.171400
C111	C11	0.009890	0.671400	0.031020
C121	C12	0.266470	0.643880	0.094780
C131	C13	0.618620	0.168220	0.807740
C141	C14	0.734580	0.999840	0.469400
C151	C15	0.010090	0.055740	0.184080
C161	C16	0.510970	0.344580	0.430680
C171	C17	0.203980	0.530600	0.499840
C181	C18	0.480280	0.697070	0.639570
C191	C19	0.905420	0.668220	0.307740
C201	C20	0.733530	0.356120	0.905220
C211	C21	0.989910	0.944260	0.815920
C221	C22	0.807830	0.909780	0.043360
C231	C23	0.065830	0.684080	0.944260
C241	C24	0.805830	0.184080	0.444260
C251	C25	0.318710	0.468980	0.671400
C261	C26	0.851190	0.956640	0.409780
C271	C27	0.489030	0.655420	0.569320
C281	C28	0.148810	0.043360	0.590220
C291	C29	0.786840	0.307740	0.831780
C301	C30	0.880150	0.639570	0.802930
C311	C31	0.260970	0.590220	0.456640
C321	C32	0.212310	0.828600	0.468980
C331	C33	0.941650	0.569320	0.844580
C341	C34	0.505130	0.856120	0.405220
C351	C35	0.573640	0.807740	0.331780
C361	C36	0.749910	0.444260	0.315920
C371	C37	0.296180	0.499840	0.969400
C381	C38	0.739030	0.409780	0.543360
C391	C39	0.192170	0.090220	0.956640
C401	C40	0.194170	0.815920	0.555740
C411	C41	0.703820	0.500160	0.030600
C421	C42	0.910350	0.594780	0.356120
C431	C43	0.265580	0.030600	0.999840
C441	C44	0.213160	0.692260	0.168220
C451	C45	0.934170	0.315920	0.055740
C461	C46	0.058350	0.430680	0.155420
C471	C47	0.717610	0.543360	0.090220
C481	C48	0.638750	0.094780	0.856120
C491	C49	0.089650	0.405220	0.643880
C501	C50	0.282390	0.456640	0.909780
C511	C51	0.250090	0.555740	0.684080
C521	C52	0.426360	0.192260	0.668220
C531	C53	0.494870	0.143880	0.594780
C541	C54	0.822650	0.860430	0.697070
C551	C55	0.519720	0.302930	0.360430
C561	C56	0.990110	0.328600	0.968980
C571	C57	0.361250	0.905220	0.143880
C581	C58	0.094580	0.331780	0.692260
C591	C59	0.119850	0.360430	0.197070
C601	C60	0.787690	0.171400	0.531020
C611	C61	0.683080	0.197070	0.139570
C621	C62	0.681290	0.531020	0.328600
C631	C63	0.177350	0.139570	0.302930
C641	C64	0.786230	0.155420	0.069320
O11	O1	0.915110	0.908320	0.029180
O21	O2	0.259230	0.300560	0.848260
O31	O3	0.883010	0.672040	0.244380
O41	O4	0.477130	0.777930	0.166010
O51	O5	0.559790	0.348260	0.699440
O61	O6	0.286600	0.774410	0.421750
O71	O7	0.017240	0.274410	0.921750
O81	O8	0.216680	0.634580	0.410120
O91	O9	0.091950	0.800560	0.348260
O101	O10	0.643140	0.833990	0.277930
O111	O11	0.524690	0.302780	0.489000
O121	O12	0.172530	0.011000	0.302780
O131	O13	0.078930	0.277930	0.666010
O141	O14	0.008170	0.393800	0.945960
O151	O15	0.176570	0.470820	0.908320
O161	O16	0.013690	0.511000	0.802780
O171	O17	0.598030	0.554040	0.393800
O181	O18	0.522870	0.222070	0.833990
O191	O19	0.761380	0.865420	0.089880
O201	O20	0.475310	0.697220	0.511000
O211	O21	0.356860	0.166010	0.722070
O221	O22	0.164130	0.917870	0.925770
O231	O23	0.823430	0.529180	0.091680
O241	O24	0.148740	0.089880	0.634580
O251	O25	0.986310	0.489000	0.197220
O261	O26	0.700570	0.172040	0.744380
O271	O27	0.152070	0.893800	0.445960
O281	O28	0.847930	0.106200	0.554040
O291	O29	0.555050	0.744380	0.327960
O301	O30	0.238620	0.134580	0.910120
O311	O31	0.872610	0.244380	0.827960
O321	O32	0.107490	0.151740	0.800560
O331	O33	0.910100	0.925770	0.582130
O341	O34	0.835870	0.082130	0.074230
O351	O35	0.647390	0.408320	0.529180
O361	O36	0.708350	0.578250	0.274410
O371	O37	0.183530	0.802780	0.989000
O381	O38	0.851260	0.910120	0.365420
O391	O39	0.740770	0.699440	0.151740
O401	O40	0.783320	0.365420	0.589880
O411	O41	0.991830	0.606200	0.054040
O421	O42	0.921070	0.722070	0.333990
O431	O43	0.352610	0.591680	0.470820
O441	O44	0.401970	0.445960	0.606200
O451	O45	0.713400	0.225590	0.578250
O461	O46	0.373200	0.410120	0.865420
O471	O47	0.116990	0.327960	0.755620
O481	O48	0.827470	0.989000	0.697220
O491	O49	0.255060	0.666010	0.222070
O501	O50	0.744940	0.333990	0.777930
O511	O51	0.299430	0.827960	0.255620
O521	O52	0.082000	0.425770	0.082130
O531	O53	0.055710	0.029180	0.591680
O541	O54	0.982760	0.725590	0.078250
O551	O55	0.892510	0.848260	0.199440
O561	O56	0.089900	0.074230	0.417870
O571	O57	0.816470	0.197220	0.011000
O581	O58	0.061010	0.921750	0.225590
O591	O59	0.045870	0.945960	0.106200
O601	O60	0.084890	0.091680	0.970820
O611	O61	0.918000	0.574230	0.917870
O621	O62	0.908050	0.199440	0.651740
O631	O63	0.444950	0.255620	0.672040
O641	O64	0.954130	0.054040	0.893800
O651	O65	0.291650	0.421750	0.725590
O661	O66	0.507770	0.582130	0.574230
O671	O67	0.626800	0.589880	0.134580
O681	O68	0.938990	0.078250	0.774410
O691	O69	0.492230	0.417870	0.425770
O701	O70	0.440210	0.651740	0.300560
O711	O71	0.944290	0.970820	0.408320
O721	O72	0.127390	0.755620	0.172040
