data_QOVDEL_clean_PM
_symmetry_space_group_name_H-M	'P1'
_cell_length_a	27.914400
_cell_length_b	27.914400
_cell_length_c	6.165500
_cell_angle_alpha	90.000000
_cell_angle_beta	90.000000
_cell_angle_gamma	120.000000
_symmetry_Int_Tables_number 1

loop_
_symmetry_equiv_pos_as_xyz
'x,y,z'

loop_
_atom_site_label
_atom_site_type_symbol
_atom_site_fract_x
_atom_site_fract_y
_atom_site_fract_z
Ni11	Ni1	0.304850	0.028630	0.719160
P11	P1	0.423970	0.039000	0.570000
O11	O1	0.478780	0.093480	0.501800
O21	O2	0.387540	0.053010	0.733900
O31	O3	0.390050	0.011540	0.374600
N11	N1	0.454900	0.007400	0.946500
C11	C1	0.446400	0.958100	0.097300
C21	C2	0.510900	0.056200	0.984800
C31	C3	0.437500	0.984400	0.716100
Ni21	Ni2	0.971520	0.361960	0.052490
P21	P2	0.090640	0.372330	0.903330
O41	O4	0.145450	0.426810	0.835130
O51	O5	0.054210	0.386340	0.067230
O61	O6	0.056720	0.344870	0.707930
N21	N2	0.121570	0.340730	0.279830
C41	C4	0.113070	0.291430	0.430630
C51	C5	0.177570	0.389530	0.318130
C61	C6	0.104170	0.317730	0.049430
Ni31	Ni3	0.638180	0.695300	0.385830
P31	P3	0.757300	0.705670	0.236670
O71	O7	0.812110	0.760150	0.168470
O81	O8	0.720870	0.719680	0.400570
O91	O9	0.723380	0.678210	0.041270
N31	N3	0.788230	0.674070	0.613170
C71	C7	0.779730	0.624770	0.763970
C81	C8	0.844230	0.722870	0.651470
C91	C9	0.770830	0.651070	0.382770
Ni41	Ni4	0.971370	0.276220	0.719160
P41	P4	0.961000	0.384970	0.570000
O101	O10	0.906520	0.385300	0.501800
O111	O11	0.946990	0.334530	0.733900
O121	O12	0.988460	0.378510	0.374600
N41	N4	0.992600	0.447500	0.946500
C101	C10	0.041900	0.488300	0.097300
C111	C11	0.943800	0.454700	0.984800
C121	C12	0.015600	0.453100	0.716100
Ni51	Ni5	0.638040	0.609550	0.052490
P51	P5	0.627670	0.718300	0.903330
O131	O13	0.573190	0.718630	0.835130
O141	O14	0.613660	0.667860	0.067230
O151	O15	0.655130	0.711840	0.707930
N51	N5	0.659270	0.780830	0.279830
C131	C13	0.708570	0.821630	0.430630
C141	C14	0.610470	0.788030	0.318130
C151	C15	0.682270	0.786430	0.049430
Ni61	Ni6	0.304700	0.942890	0.385830
P61	P6	0.294330	0.051640	0.236670
O161	O16	0.239850	0.051970	0.168470
O171	O17	0.280320	0.001200	0.400570
O181	O18	0.321790	0.045180	0.041270
N61	N6	0.325930	0.114170	0.613170
C161	C16	0.375230	0.154970	0.763970
C171	C17	0.277130	0.121370	0.651470
C181	C18	0.348930	0.119770	0.382770
Ni71	Ni7	0.723780	0.695150	0.719160
P71	P7	0.615030	0.576030	0.570000
O191	O19	0.614700	0.521220	0.501800
O201	O20	0.665470	0.612460	0.733900
O211	O21	0.621490	0.609950	0.374600
N71	N7	0.552500	0.545100	0.946500
C191	C19	0.511700	0.553600	0.097300
C201	C20	0.545300	0.489100	0.984800
C211	C21	0.546900	0.562500	0.716100
Ni81	Ni8	0.390450	0.028480	0.052490
P81	P8	0.281700	0.909360	0.903330
O221	O22	0.281370	0.854550	0.835130
O231	O23	0.332140	0.945790	0.067230
O241	O24	0.288160	0.943280	0.707930
N81	N8	0.219170	0.878430	0.279830
C221	C22	0.178370	0.886930	0.430630
C231	C23	0.211970	0.822430	0.318130
C241	C24	0.213570	0.895830	0.049430
Ni91	Ni9	0.057110	0.361820	0.385830
P91	P9	0.948360	0.242700	0.236670
O251	O25	0.948030	0.187890	0.168470
O261	O26	0.998800	0.279130	0.400570
O271	O27	0.954820	0.276620	0.041270
N91	N9	0.885830	0.211770	0.613170
C251	C25	0.845030	0.220270	0.763970
C261	C26	0.878630	0.155770	0.651470
C271	C27	0.880230	0.229170	0.382770
Ni101	Ni10	0.695150	0.971370	0.280840
P101	P10	0.576030	0.961000	0.430000
O281	O28	0.521220	0.906520	0.498200
O291	O29	0.612460	0.946990	0.266100
O301	O30	0.609950	0.988460	0.625400
N101	N10	0.545100	0.992600	0.053500
C281	C28	0.553600	0.041900	0.902700
C291	C29	0.489100	0.943800	0.015200
C301	C30	0.562500	0.015600	0.283900
Ni111	Ni11	0.361820	0.304700	0.614170
P111	P11	0.242700	0.294330	0.763330
O311	O31	0.187890	0.239850	0.831530
O321	O32	0.279130	0.280320	0.599430
O331	O33	0.276620	0.321790	0.958730
N111	N11	0.211770	0.325930	0.386830
C311	C31	0.220270	0.375230	0.236030
C321	C32	0.155770	0.277130	0.348530
C331	C33	0.229170	0.348930	0.617230
Ni121	Ni12	0.028480	0.638040	0.947510
P121	P12	0.909360	0.627670	0.096670
O341	O34	0.854550	0.573190	0.164870
O351	O35	0.945790	0.613660	0.932770
O361	O36	0.943280	0.655130	0.292070
N121	N12	0.878430	0.659270	0.720170
C341	C34	0.886930	0.708570	0.569370
C351	C35	0.822430	0.610470	0.681870
C361	C36	0.895830	0.682270	0.950570
Ni131	Ni13	0.028630	0.723780	0.280840
P131	P13	0.039000	0.615030	0.430000
O371	O37	0.093480	0.614700	0.498200
O381	O38	0.053010	0.665470	0.266100
O391	O39	0.011540	0.621490	0.625400
N131	N13	0.007400	0.552500	0.053500
C371	C37	0.958100	0.511700	0.902700
C381	C38	0.056200	0.545300	0.015200
C391	C39	0.984400	0.546900	0.283900
Ni141	Ni14	0.695300	0.057110	0.614170
P141	P14	0.705670	0.948360	0.763330
O401	O40	0.760150	0.948030	0.831530
O411	O41	0.719680	0.998800	0.599430
O421	O42	0.678210	0.954820	0.958730
N141	N14	0.674070	0.885830	0.386830
C401	C40	0.624770	0.845030	0.236030
C411	C41	0.722870	0.878630	0.348530
C421	C42	0.651070	0.880230	0.617230
Ni151	Ni15	0.361960	0.390450	0.947510
P151	P15	0.372330	0.281700	0.096670
O431	O43	0.426810	0.281370	0.164870
O441	O44	0.386340	0.332140	0.932770
O451	O45	0.344870	0.288160	0.292070
N151	N15	0.340730	0.219170	0.720170
C431	C43	0.291430	0.178370	0.569370
C441	C44	0.389530	0.211970	0.681870
C451	C45	0.317730	0.213570	0.950570
Ni161	Ni16	0.276220	0.304850	0.280840
P161	P16	0.384970	0.423970	0.430000
O461	O46	0.385300	0.478780	0.498200
O471	O47	0.334530	0.387540	0.266100
O481	O48	0.378510	0.390050	0.625400
N161	N16	0.447500	0.454900	0.053500
C461	C46	0.488300	0.446400	0.902700
C471	C47	0.454700	0.510900	0.015200
C481	C48	0.453100	0.437500	0.283900
Ni171	Ni17	0.942890	0.638180	0.614170
P171	P17	0.051640	0.757300	0.763330
O491	O49	0.051970	0.812110	0.831530
O501	O50	0.001200	0.720870	0.599430
O511	O51	0.045180	0.723380	0.958730
N171	N17	0.114170	0.788230	0.386830
C491	C49	0.154970	0.779730	0.236030
C501	C50	0.121370	0.844230	0.348530
C511	C51	0.119770	0.770830	0.617230
Ni181	Ni18	0.609550	0.971520	0.947510
P181	P18	0.718300	0.090640	0.096670
O521	O52	0.718630	0.145450	0.164870
O531	O53	0.667860	0.054210	0.932770
O541	O54	0.711840	0.056720	0.292070
N181	N18	0.780830	0.121570	0.720170
C521	C52	0.821630	0.113070	0.569370
C531	C53	0.788030	0.177570	0.681870
C541	C54	0.786430	0.104170	0.950570
