data_QOVGOY_clean_PM
_symmetry_space_group_name_H-M	'P1'
_cell_length_a	10.743500
_cell_length_b	10.743500
_cell_length_c	10.743500
_cell_angle_alpha	103.564000
_cell_angle_beta	112.503000
_cell_angle_gamma	112.503000
_symmetry_Int_Tables_number 1

loop_
_symmetry_equiv_pos_as_xyz
'x,y,z'

loop_
_atom_site_label
_atom_site_type_symbol
_atom_site_fract_x
_atom_site_fract_y
_atom_site_fract_z
Mn11	Mn1	0.109560	0.303160	0.806400
Mn21	Mn2	0.890440	0.696840	0.193600
Mn31	Mn3	0.503240	0.806400	0.696840
Mn41	Mn4	0.496760	0.193600	0.303160
Mo11	Mo1	0.000000	0.248130	0.248130
Mo21	Mo2	0.000000	0.751870	0.751870
C11	C1	0.053060	0.258900	0.467760
C21	C2	0.096120	0.303410	0.111150
C31	C3	0.946940	0.414700	0.205840
C41	C4	0.903880	0.015030	0.207290
C51	C5	0.208860	0.467760	0.414700
C61	C6	0.807740	0.111150	0.015030
C71	C7	0.791140	0.205840	0.258900
C81	C8	0.192260	0.207290	0.303410
C91	C9	0.946940	0.741100	0.532240
C101	C10	0.903880	0.696590	0.888850
C111	C11	0.053060	0.585300	0.794160
C121	C12	0.096120	0.984970	0.792710
C131	C13	0.791140	0.532240	0.585300
C141	C14	0.192260	0.888850	0.984970
C151	C15	0.208860	0.794160	0.741100
C161	C16	0.807740	0.792710	0.696590
N11	N1	0.073760	0.257110	0.579930
N21	N2	0.139460	0.332930	0.033190
N31	N3	0.926240	0.506170	0.183350
N41	N4	0.860540	0.893730	0.193470
N51	N5	0.322820	0.579930	0.506170
N61	N6	0.700260	0.033190	0.893730
N71	N7	0.677180	0.183350	0.257110
N81	N8	0.299740	0.193470	0.332930
N91	N9	0.926240	0.742890	0.420070
N101	N10	0.860540	0.667070	0.966810
N111	N11	0.073760	0.493830	0.816650
N121	N12	0.139460	0.106270	0.806530
N131	N13	0.677180	0.420070	0.493830
N141	N14	0.299740	0.966810	0.106270
N151	N15	0.322820	0.816650	0.742890
N161	N16	0.700260	0.806530	0.667070
