data_QOWRAV08_clean_PM
_symmetry_space_group_name_H-M	'P1'
_cell_length_a	26.973000
_cell_length_b	26.973000
_cell_length_c	26.973000
_cell_angle_alpha	90.000000
_cell_angle_beta	90.000000
_cell_angle_gamma	90.000000
_symmetry_Int_Tables_number 1

loop_
_symmetry_equiv_pos_as_xyz
'x,y,z'

loop_
_atom_site_label
_atom_site_type_symbol
_atom_site_fract_x
_atom_site_fract_y
_atom_site_fract_z
O11	O1	0.447610	0.050330	0.148770
O21	O2	0.448350	0.049100	0.231180
C11	C1	0.294500	0.145590	0.197500
C21	C2	0.430470	0.062060	0.190400
C31	C3	0.359800	0.106700	0.149200
H11	H1	0.373000	0.098100	0.118100
C41	C4	0.319600	0.129800	0.241200
H21	H2	0.305900	0.136800	0.272500
C51	C5	0.315300	0.133900	0.151800
H31	H3	0.299500	0.144100	0.122500
C61	C6	0.364100	0.104200	0.237900
H41	H4	0.380700	0.094700	0.267000
C71	C7	0.216550	0.169900	0.241700
H51	H5	0.221000	0.142800	0.263200
C81	C8	0.384380	0.092510	0.192280
C91	C9	0.249600	0.177100	0.202330
O31	O3	0.552390	0.949670	0.148770
O41	O4	0.551650	0.950900	0.231180
C101	C10	0.705500	0.854410	0.197500
C111	C11	0.569530	0.937940	0.190400
C121	C12	0.640200	0.893300	0.149200
H61	H6	0.627000	0.901900	0.118100
C131	C13	0.680400	0.870200	0.241200
H71	H7	0.694100	0.863200	0.272500
C141	C14	0.684700	0.866100	0.151800
H81	H8	0.700500	0.855900	0.122500
C151	C15	0.635900	0.895800	0.237900
H91	H9	0.619300	0.905300	0.267000
C161	C16	0.783450	0.830100	0.241700
H101	H10	0.779000	0.857200	0.263200
C171	C17	0.615620	0.907490	0.192280
C181	C18	0.750400	0.822900	0.202330
O51	O5	0.552390	0.050330	0.851230
O61	O6	0.551650	0.049100	0.768820
C191	C19	0.705500	0.145590	0.802500
C201	C20	0.569530	0.062060	0.809600
C211	C21	0.640200	0.106700	0.850800
H111	H11	0.627000	0.098100	0.881900
C221	C22	0.680400	0.129800	0.758800
H121	H12	0.694100	0.136800	0.727500
C231	C23	0.684700	0.133900	0.848200
H131	H13	0.700500	0.144100	0.877500
C241	C24	0.635900	0.104200	0.762100
H141	H14	0.619300	0.094700	0.733000
C251	C25	0.783450	0.169900	0.758300
H151	H15	0.779000	0.142800	0.736800
C261	C26	0.615620	0.092510	0.807720
C271	C27	0.750400	0.177100	0.797670
O71	O7	0.447610	0.949670	0.851230
O81	O8	0.448350	0.950900	0.768820
C281	C28	0.294500	0.854410	0.802500
C291	C29	0.430470	0.937940	0.809600
C301	C30	0.359800	0.893300	0.850800
H161	H16	0.373000	0.901900	0.881900
C311	C31	0.319600	0.870200	0.758800
H171	H17	0.305900	0.863200	0.727500
C321	C32	0.315300	0.866100	0.848200
H181	H18	0.299500	0.855900	0.877500
C331	C33	0.364100	0.895800	0.762100
H191	H19	0.380700	0.905300	0.733000
C341	C34	0.216550	0.830100	0.758300
H201	H20	0.221000	0.857200	0.736800
C351	C35	0.384380	0.907490	0.807720
C361	C36	0.249600	0.822900	0.797670
O91	O9	0.148770	0.447610	0.050330
O101	O10	0.231180	0.448350	0.049100
C371	C37	0.197500	0.294500	0.145590
C381	C38	0.190400	0.430470	0.062060
C391	C39	0.149200	0.359800	0.106700
H211	H21	0.118100	0.373000	0.098100
C401	C40	0.241200	0.319600	0.129800
H221	H22	0.272500	0.305900	0.136800
C411	C41	0.151800	0.315300	0.133900
H231	H23	0.122500	0.299500	0.144100
C421	C42	0.237900	0.364100	0.104200
H241	H24	0.267000	0.380700	0.094700
C431	C43	0.241700	0.216550	0.169900
H251	H25	0.263200	0.221000	0.142800
C441	C44	0.192280	0.384380	0.092510
C451	C45	0.202330	0.249600	0.177100
O111	O11	0.148770	0.552390	0.949670
O121	O12	0.231180	0.551650	0.950900
C461	C46	0.197500	0.705500	0.854410
C471	C47	0.190400	0.569530	0.937940
C481	C48	0.149200	0.640200	0.893300
H261	H26	0.118100	0.627000	0.901900
C491	C49	0.241200	0.680400	0.870200
H271	H27	0.272500	0.694100	0.863200
C501	C50	0.151800	0.684700	0.866100
H281	H28	0.122500	0.700500	0.855900
C511	C51	0.237900	0.635900	0.895800
H291	H29	0.267000	0.619300	0.905300
C521	C52	0.241700	0.783450	0.830100
H301	H30	0.263200	0.779000	0.857200
C531	C53	0.192280	0.615620	0.907490
C541	C54	0.202330	0.750400	0.822900
O131	O13	0.851230	0.552390	0.050330
O141	O14	0.768820	0.551650	0.049100
C551	C55	0.802500	0.705500	0.145590
C561	C56	0.809600	0.569530	0.062060
C571	C57	0.850800	0.640200	0.106700
H311	H31	0.881900	0.627000	0.098100
C581	C58	0.758800	0.680400	0.129800
H321	H32	0.727500	0.694100	0.136800
C591	C59	0.848200	0.684700	0.133900
H331	H33	0.877500	0.700500	0.144100
C601	C60	0.762100	0.635900	0.104200
H341	H34	0.733000	0.619300	0.094700
C611	C61	0.758300	0.783450	0.169900
H351	H35	0.736800	0.779000	0.142800
C621	C62	0.807720	0.615620	0.092510
C631	C63	0.797670	0.750400	0.177100
O151	O15	0.851230	0.447610	0.949670
O161	O16	0.768820	0.448350	0.950900
C641	C64	0.802500	0.294500	0.854410
C651	C65	0.809600	0.430470	0.937940
C661	C66	0.850800	0.359800	0.893300
H361	H36	0.881900	0.373000	0.901900
C671	C67	0.758800	0.319600	0.870200
H371	H37	0.727500	0.305900	0.863200
C681	C68	0.848200	0.315300	0.866100
H381	H38	0.877500	0.299500	0.855900
C691	C69	0.762100	0.364100	0.895800
H391	H39	0.733000	0.380700	0.905300
C701	C70	0.758300	0.216550	0.830100
H401	H40	0.736800	0.221000	0.857200
C711	C71	0.807720	0.384380	0.907490
C721	C72	0.797670	0.249600	0.822900
O171	O17	0.050330	0.148770	0.447610
O181	O18	0.049100	0.231180	0.448350
C731	C73	0.145590	0.197500	0.294500
C741	C74	0.062060	0.190400	0.430470
C751	C75	0.106700	0.149200	0.359800
H411	H41	0.098100	0.118100	0.373000
C761	C76	0.129800	0.241200	0.319600
H421	H42	0.136800	0.272500	0.305900
C771	C77	0.133900	0.151800	0.315300
H431	H43	0.144100	0.122500	0.299500
C781	C78	0.104200	0.237900	0.364100
H441	H44	0.094700	0.267000	0.380700
C791	C79	0.169900	0.241700	0.216550
H451	H45	0.142800	0.263200	0.221000
C801	C80	0.092510	0.192280	0.384380
C811	C81	0.177100	0.202330	0.249600
O191	O19	0.949670	0.148770	0.552390
O201	O20	0.950900	0.231180	0.551650
C821	C82	0.854410	0.197500	0.705500
C831	C83	0.937940	0.190400	0.569530
C841	C84	0.893300	0.149200	0.640200
H461	H46	0.901900	0.118100	0.627000
C851	C85	0.870200	0.241200	0.680400
H471	H47	0.863200	0.272500	0.694100
C861	C86	0.866100	0.151800	0.684700
H481	H48	0.855900	0.122500	0.700500
C871	C87	0.895800	0.237900	0.635900
H491	H49	0.905300	0.267000	0.619300
C881	C88	0.830100	0.241700	0.783450
H501	H50	0.857200	0.263200	0.779000
C891	C89	0.907490	0.192280	0.615620
C901	C90	0.822900	0.202330	0.750400
O211	O21	0.050330	0.851230	0.552390
O221	O22	0.049100	0.768820	0.551650
C911	C91	0.145590	0.802500	0.705500
C921	C92	0.062060	0.809600	0.569530
C931	C93	0.106700	0.850800	0.640200
H511	H51	0.098100	0.881900	0.627000
C941	C94	0.129800	0.758800	0.680400
H521	H52	0.136800	0.727500	0.694100
C951	C95	0.133900	0.848200	0.684700
H531	H53	0.144100	0.877500	0.700500
C961	C96	0.104200	0.762100	0.635900
H541	H54	0.094700	0.733000	0.619300
C971	C97	0.169900	0.758300	0.783450
H551	H55	0.142800	0.736800	0.779000
C981	C98	0.092510	0.807720	0.615620
C991	C99	0.177100	0.797670	0.750400
O231	O23	0.949670	0.851230	0.447610
O241	O24	0.950900	0.768820	0.448350
C1001	C100	0.854410	0.802500	0.294500
C1011	C101	0.937940	0.809600	0.430470
C1021	C102	0.893300	0.850800	0.359800
H561	H56	0.901900	0.881900	0.373000
C1031	C103	0.870200	0.758800	0.319600
H571	H57	0.863200	0.727500	0.305900
C1041	C104	0.866100	0.848200	0.315300
H581	H58	0.855900	0.877500	0.299500
C1051	C105	0.895800	0.762100	0.364100
H591	H59	0.905300	0.733000	0.380700
C1061	C106	0.830100	0.758300	0.216550
H601	H60	0.857200	0.736800	0.221000
C1071	C107	0.907490	0.807720	0.384380
C1081	C108	0.822900	0.797670	0.249600
O251	O25	0.552390	0.949670	0.851230
O261	O26	0.551650	0.950900	0.768820
C1091	C109	0.705500	0.854410	0.802500
C1101	C110	0.569530	0.937940	0.809600
C1111	C111	0.640200	0.893300	0.850800
H611	H61	0.627000	0.901900	0.881900
C1121	C112	0.680400	0.870200	0.758800
H621	H62	0.694100	0.863200	0.727500
C1131	C113	0.684700	0.866100	0.848200
H631	H63	0.700500	0.855900	0.877500
C1141	C114	0.635900	0.895800	0.762100
H641	H64	0.619300	0.905300	0.733000
C1151	C115	0.783450	0.830100	0.758300
H651	H65	0.779000	0.857200	0.736800
C1161	C116	0.615620	0.907490	0.807720
C1171	C117	0.750400	0.822900	0.797670
O271	O27	0.447610	0.050330	0.851230
O281	O28	0.448350	0.049100	0.768820
C1181	C118	0.294500	0.145590	0.802500
C1191	C119	0.430470	0.062060	0.809600
C1201	C120	0.359800	0.106700	0.850800
H661	H66	0.373000	0.098100	0.881900
C1211	C121	0.319600	0.129800	0.758800
H671	H67	0.305900	0.136800	0.727500
C1221	C122	0.315300	0.133900	0.848200
H681	H68	0.299500	0.144100	0.877500
C1231	C123	0.364100	0.104200	0.762100
H691	H69	0.380700	0.094700	0.733000
C1241	C124	0.216550	0.169900	0.758300
H701	H70	0.221000	0.142800	0.736800
C1251	C125	0.384380	0.092510	0.807720
C1261	C126	0.249600	0.177100	0.797670
O291	O29	0.447610	0.949670	0.148770
O301	O30	0.448350	0.950900	0.231180
C1271	C127	0.294500	0.854410	0.197500
C1281	C128	0.430470	0.937940	0.190400
C1291	C129	0.359800	0.893300	0.149200
H711	H71	0.373000	0.901900	0.118100
C1301	C130	0.319600	0.870200	0.241200
H721	H72	0.305900	0.863200	0.272500
C1311	C131	0.315300	0.866100	0.151800
H731	H73	0.299500	0.855900	0.122500
C1321	C132	0.364100	0.895800	0.237900
H741	H74	0.380700	0.905300	0.267000
C1331	C133	0.216550	0.830100	0.241700
H751	H75	0.221000	0.857200	0.263200
C1341	C134	0.384380	0.907490	0.192280
C1351	C135	0.249600	0.822900	0.202330
O311	O31	0.552390	0.050330	0.148770
O321	O32	0.551650	0.049100	0.231180
C1361	C136	0.705500	0.145590	0.197500
C1371	C137	0.569530	0.062060	0.190400
C1381	C138	0.640200	0.106700	0.149200
H761	H76	0.627000	0.098100	0.118100
C1391	C139	0.680400	0.129800	0.241200
H771	H77	0.694100	0.136800	0.272500
C1401	C140	0.684700	0.133900	0.151800
H781	H78	0.700500	0.144100	0.122500
C1411	C141	0.635900	0.104200	0.237900
H791	H79	0.619300	0.094700	0.267000
C1421	C142	0.783450	0.169900	0.241700
H801	H80	0.779000	0.142800	0.263200
C1431	C143	0.615620	0.092510	0.192280
C1441	C144	0.750400	0.177100	0.202330
O331	O33	0.851230	0.552390	0.949670
O341	O34	0.768820	0.551650	0.950900
C1451	C145	0.802500	0.705500	0.854410
C1461	C146	0.809600	0.569530	0.937940
C1471	C147	0.850800	0.640200	0.893300
H811	H81	0.881900	0.627000	0.901900
C1481	C148	0.758800	0.680400	0.870200
H821	H82	0.727500	0.694100	0.863200
C1491	C149	0.848200	0.684700	0.866100
H831	H83	0.877500	0.700500	0.855900
C1501	C150	0.762100	0.635900	0.895800
H841	H84	0.733000	0.619300	0.905300
C1511	C151	0.758300	0.783450	0.830100
H851	H85	0.736800	0.779000	0.857200
C1521	C152	0.807720	0.615620	0.907490
C1531	C153	0.797670	0.750400	0.822900
O351	O35	0.851230	0.447610	0.050330
O361	O36	0.768820	0.448350	0.049100
C1541	C154	0.802500	0.294500	0.145590
C1551	C155	0.809600	0.430470	0.062060
C1561	C156	0.850800	0.359800	0.106700
H861	H86	0.881900	0.373000	0.098100
C1571	C157	0.758800	0.319600	0.129800
H871	H87	0.727500	0.305900	0.136800
C1581	C158	0.848200	0.315300	0.133900
H881	H88	0.877500	0.299500	0.144100
C1591	C159	0.762100	0.364100	0.104200
H891	H89	0.733000	0.380700	0.094700
C1601	C160	0.758300	0.216550	0.169900
H901	H90	0.736800	0.221000	0.142800
C1611	C161	0.807720	0.384380	0.092510
C1621	C162	0.797670	0.249600	0.177100
O371	O37	0.148770	0.447610	0.949670
O381	O38	0.231180	0.448350	0.950900
C1631	C163	0.197500	0.294500	0.854410
C1641	C164	0.190400	0.430470	0.937940
C1651	C165	0.149200	0.359800	0.893300
H911	H91	0.118100	0.373000	0.901900
C1661	C166	0.241200	0.319600	0.870200
H921	H92	0.272500	0.305900	0.863200
C1671	C167	0.151800	0.315300	0.866100
H931	H93	0.122500	0.299500	0.855900
C1681	C168	0.237900	0.364100	0.895800
H941	H94	0.267000	0.380700	0.905300
C1691	C169	0.241700	0.216550	0.830100
H951	H95	0.263200	0.221000	0.857200
C1701	C170	0.192280	0.384380	0.907490
C1711	C171	0.202330	0.249600	0.822900
O391	O39	0.148770	0.552390	0.050330
O401	O40	0.231180	0.551650	0.049100
C1721	C172	0.197500	0.705500	0.145590
C1731	C173	0.190400	0.569530	0.062060
C1741	C174	0.149200	0.640200	0.106700
H961	H96	0.118100	0.627000	0.098100
C1751	C175	0.241200	0.680400	0.129800
H971	H97	0.272500	0.694100	0.136800
C1761	C176	0.151800	0.684700	0.133900
H981	H98	0.122500	0.700500	0.144100
C1771	C177	0.237900	0.635900	0.104200
H991	H99	0.267000	0.619300	0.094700
C1781	C178	0.241700	0.783450	0.169900
H1001	H100	0.263200	0.779000	0.142800
C1791	C179	0.192280	0.615620	0.092510
C1801	C180	0.202330	0.750400	0.177100
O411	O41	0.949670	0.851230	0.552390
O421	O42	0.950900	0.768820	0.551650
C1811	C181	0.854410	0.802500	0.705500
C1821	C182	0.937940	0.809600	0.569530
C1831	C183	0.893300	0.850800	0.640200
H1011	H101	0.901900	0.881900	0.627000
C1841	C184	0.870200	0.758800	0.680400
H1021	H102	0.863200	0.727500	0.694100
C1851	C185	0.866100	0.848200	0.684700
H1031	H103	0.855900	0.877500	0.700500
C1861	C186	0.895800	0.762100	0.635900
H1041	H104	0.905300	0.733000	0.619300
C1871	C187	0.830100	0.758300	0.783450
H1051	H105	0.857200	0.736800	0.779000
C1881	C188	0.907490	0.807720	0.615620
C1891	C189	0.822900	0.797670	0.750400
O431	O43	0.050330	0.851230	0.447610
O441	O44	0.049100	0.768820	0.448350
C1901	C190	0.145590	0.802500	0.294500
C1911	C191	0.062060	0.809600	0.430470
C1921	C192	0.106700	0.850800	0.359800
H1061	H106	0.098100	0.881900	0.373000
C1931	C193	0.129800	0.758800	0.319600
H1071	H107	0.136800	0.727500	0.305900
C1941	C194	0.133900	0.848200	0.315300
H1081	H108	0.144100	0.877500	0.299500
C1951	C195	0.104200	0.762100	0.364100
H1091	H109	0.094700	0.733000	0.380700
C1961	C196	0.169900	0.758300	0.216550
H1101	H110	0.142800	0.736800	0.221000
C1971	C197	0.092510	0.807720	0.384380
C1981	C198	0.177100	0.797670	0.249600
O451	O45	0.949670	0.148770	0.447610
O461	O46	0.950900	0.231180	0.448350
C1991	C199	0.854410	0.197500	0.294500
C2001	C200	0.937940	0.190400	0.430470
C2011	C201	0.893300	0.149200	0.359800
H1111	H111	0.901900	0.118100	0.373000
C2021	C202	0.870200	0.241200	0.319600
H1121	H112	0.863200	0.272500	0.305900
C2031	C203	0.866100	0.151800	0.315300
H1131	H113	0.855900	0.122500	0.299500
C2041	C204	0.895800	0.237900	0.364100
H1141	H114	0.905300	0.267000	0.380700
C2051	C205	0.830100	0.241700	0.216550
H1151	H115	0.857200	0.263200	0.221000
C2061	C206	0.907490	0.192280	0.384380
C2071	C207	0.822900	0.202330	0.249600
O471	O47	0.050330	0.148770	0.552390
O481	O48	0.049100	0.231180	0.551650
C2081	C208	0.145590	0.197500	0.705500
C2091	C209	0.062060	0.190400	0.569530
C2101	C210	0.106700	0.149200	0.640200
H1161	H116	0.098100	0.118100	0.627000
C2111	C211	0.129800	0.241200	0.680400
H1171	H117	0.136800	0.272500	0.694100
C2121	C212	0.133900	0.151800	0.684700
H1181	H118	0.144100	0.122500	0.700500
C2131	C213	0.104200	0.237900	0.635900
H1191	H119	0.094700	0.267000	0.619300
C2141	C214	0.169900	0.241700	0.783450
H1201	H120	0.142800	0.263200	0.779000
C2151	C215	0.092510	0.192280	0.615620
C2161	C216	0.177100	0.202330	0.750400
Cu11	Cu1	0.500000	0.000000	0.144120
Cu21	Cu2	0.500000	0.000000	0.240110
Cu31	Cu3	0.500000	0.000000	0.855880
Cu41	Cu4	0.500000	0.000000	0.759890
Cu51	Cu5	0.144120	0.500000	0.000000
Cu61	Cu6	0.240110	0.500000	0.000000
Cu71	Cu7	0.855880	0.500000	0.000000
Cu81	Cu8	0.759890	0.500000	0.000000
Cu91	Cu9	0.000000	0.144120	0.500000
Cu101	Cu10	0.000000	0.240110	0.500000
Cu111	Cu11	0.000000	0.855880	0.500000
Cu121	Cu12	0.000000	0.759890	0.500000
O491	O49	0.947610	0.550330	0.648770
O501	O50	0.948350	0.549100	0.731180
C2171	C217	0.794500	0.645590	0.697500
C2181	C218	0.930470	0.562060	0.690400
C2191	C219	0.859800	0.606700	0.649200
H1211	H121	0.873000	0.598100	0.618100
C2201	C220	0.819600	0.629800	0.741200
H1221	H122	0.805900	0.636800	0.772500
C2211	C221	0.815300	0.633900	0.651800
H1231	H123	0.799500	0.644100	0.622500
C2221	C222	0.864100	0.604200	0.737900
H1241	H124	0.880700	0.594700	0.767000
C2231	C223	0.716550	0.669900	0.741700
H1251	H125	0.721000	0.642800	0.763200
C2241	C224	0.884380	0.592510	0.692280
C2251	C225	0.749600	0.677100	0.702330
O511	O51	0.052390	0.449670	0.648770
O521	O52	0.051650	0.450900	0.731180
C2261	C226	0.205500	0.354410	0.697500
C2271	C227	0.069530	0.437940	0.690400
C2281	C228	0.140200	0.393300	0.649200
H1261	H126	0.127000	0.401900	0.618100
C2291	C229	0.180400	0.370200	0.741200
H1271	H127	0.194100	0.363200	0.772500
C2301	C230	0.184700	0.366100	0.651800
H1281	H128	0.200500	0.355900	0.622500
C2311	C231	0.135900	0.395800	0.737900
H1291	H129	0.119300	0.405300	0.767000
C2321	C232	0.283450	0.330100	0.741700
H1301	H130	0.279000	0.357200	0.763200
C2331	C233	0.115620	0.407490	0.692280
C2341	C234	0.250400	0.322900	0.702330
O531	O53	0.052390	0.550330	0.351230
O541	O54	0.051650	0.549100	0.268820
C2351	C235	0.205500	0.645590	0.302500
C2361	C236	0.069530	0.562060	0.309600
C2371	C237	0.140200	0.606700	0.350800
H1311	H131	0.127000	0.598100	0.381900
C2381	C238	0.180400	0.629800	0.258800
H1321	H132	0.194100	0.636800	0.227500
C2391	C239	0.184700	0.633900	0.348200
H1331	H133	0.200500	0.644100	0.377500
C2401	C240	0.135900	0.604200	0.262100
H1341	H134	0.119300	0.594700	0.233000
C2411	C241	0.283450	0.669900	0.258300
H1351	H135	0.279000	0.642800	0.236800
C2421	C242	0.115620	0.592510	0.307720
C2431	C243	0.250400	0.677100	0.297670
O551	O55	0.947610	0.449670	0.351230
O561	O56	0.948350	0.450900	0.268820
C2441	C244	0.794500	0.354410	0.302500
C2451	C245	0.930470	0.437940	0.309600
C2461	C246	0.859800	0.393300	0.350800
H1361	H136	0.873000	0.401900	0.381900
C2471	C247	0.819600	0.370200	0.258800
H1371	H137	0.805900	0.363200	0.227500
C2481	C248	0.815300	0.366100	0.348200
H1381	H138	0.799500	0.355900	0.377500
C2491	C249	0.864100	0.395800	0.262100
H1391	H139	0.880700	0.405300	0.233000
C2501	C250	0.716550	0.330100	0.258300
H1401	H140	0.721000	0.357200	0.236800
C2511	C251	0.884380	0.407490	0.307720
C2521	C252	0.749600	0.322900	0.297670
O571	O57	0.648770	0.947610	0.550330
O581	O58	0.731180	0.948350	0.549100
C2531	C253	0.697500	0.794500	0.645590
C2541	C254	0.690400	0.930470	0.562060
C2551	C255	0.649200	0.859800	0.606700
H1411	H141	0.618100	0.873000	0.598100
C2561	C256	0.741200	0.819600	0.629800
H1421	H142	0.772500	0.805900	0.636800
C2571	C257	0.651800	0.815300	0.633900
H1431	H143	0.622500	0.799500	0.644100
C2581	C258	0.737900	0.864100	0.604200
H1441	H144	0.767000	0.880700	0.594700
C2591	C259	0.741700	0.716550	0.669900
H1451	H145	0.763200	0.721000	0.642800
C2601	C260	0.692280	0.884380	0.592510
C2611	C261	0.702330	0.749600	0.677100
O591	O59	0.648770	0.052390	0.449670
O601	O60	0.731180	0.051650	0.450900
C2621	C262	0.697500	0.205500	0.354410
C2631	C263	0.690400	0.069530	0.437940
C2641	C264	0.649200	0.140200	0.393300
H1461	H146	0.618100	0.127000	0.401900
C2651	C265	0.741200	0.180400	0.370200
H1471	H147	0.772500	0.194100	0.363200
C2661	C266	0.651800	0.184700	0.366100
H1481	H148	0.622500	0.200500	0.355900
C2671	C267	0.737900	0.135900	0.395800
H1491	H149	0.767000	0.119300	0.405300
C2681	C268	0.741700	0.283450	0.330100
H1501	H150	0.763200	0.279000	0.357200
C2691	C269	0.692280	0.115620	0.407490
C2701	C270	0.702330	0.250400	0.322900
O611	O61	0.351230	0.052390	0.550330
O621	O62	0.268820	0.051650	0.549100
C2711	C271	0.302500	0.205500	0.645590
C2721	C272	0.309600	0.069530	0.562060
C2731	C273	0.350800	0.140200	0.606700
H1511	H151	0.381900	0.127000	0.598100
C2741	C274	0.258800	0.180400	0.629800
H1521	H152	0.227500	0.194100	0.636800
C2751	C275	0.348200	0.184700	0.633900
H1531	H153	0.377500	0.200500	0.644100
C2761	C276	0.262100	0.135900	0.604200
H1541	H154	0.233000	0.119300	0.594700
C2771	C277	0.258300	0.283450	0.669900
H1551	H155	0.236800	0.279000	0.642800
C2781	C278	0.307720	0.115620	0.592510
C2791	C279	0.297670	0.250400	0.677100
O631	O63	0.351230	0.947610	0.449670
O641	O64	0.268820	0.948350	0.450900
C2801	C280	0.302500	0.794500	0.354410
C2811	C281	0.309600	0.930470	0.437940
C2821	C282	0.350800	0.859800	0.393300
H1561	H156	0.381900	0.873000	0.401900
C2831	C283	0.258800	0.819600	0.370200
H1571	H157	0.227500	0.805900	0.363200
C2841	C284	0.348200	0.815300	0.366100
H1581	H158	0.377500	0.799500	0.355900
C2851	C285	0.262100	0.864100	0.395800
H1591	H159	0.233000	0.880700	0.405300
C2861	C286	0.258300	0.716550	0.330100
H1601	H160	0.236800	0.721000	0.357200
C2871	C287	0.307720	0.884380	0.407490
C2881	C288	0.297670	0.749600	0.322900
O651	O65	0.550330	0.648770	0.947610
O661	O66	0.549100	0.731180	0.948350
C2891	C289	0.645590	0.697500	0.794500
C2901	C290	0.562060	0.690400	0.930470
C2911	C291	0.606700	0.649200	0.859800
H1611	H161	0.598100	0.618100	0.873000
C2921	C292	0.629800	0.741200	0.819600
H1621	H162	0.636800	0.772500	0.805900
C2931	C293	0.633900	0.651800	0.815300
H1631	H163	0.644100	0.622500	0.799500
C2941	C294	0.604200	0.737900	0.864100
H1641	H164	0.594700	0.767000	0.880700
C2951	C295	0.669900	0.741700	0.716550
H1651	H165	0.642800	0.763200	0.721000
C2961	C296	0.592510	0.692280	0.884380
C2971	C297	0.677100	0.702330	0.749600
O671	O67	0.449670	0.648770	0.052390
O681	O68	0.450900	0.731180	0.051650
C2981	C298	0.354410	0.697500	0.205500
C2991	C299	0.437940	0.690400	0.069530
C3001	C300	0.393300	0.649200	0.140200
H1661	H166	0.401900	0.618100	0.127000
C3011	C301	0.370200	0.741200	0.180400
H1671	H167	0.363200	0.772500	0.194100
C3021	C302	0.366100	0.651800	0.184700
H1681	H168	0.355900	0.622500	0.200500
C3031	C303	0.395800	0.737900	0.135900
H1691	H169	0.405300	0.767000	0.119300
C3041	C304	0.330100	0.741700	0.283450
H1701	H170	0.357200	0.763200	0.279000
C3051	C305	0.407490	0.692280	0.115620
C3061	C306	0.322900	0.702330	0.250400
O691	O69	0.550330	0.351230	0.052390
O701	O70	0.549100	0.268820	0.051650
C3071	C307	0.645590	0.302500	0.205500
C3081	C308	0.562060	0.309600	0.069530
C3091	C309	0.606700	0.350800	0.140200
H1711	H171	0.598100	0.381900	0.127000
C3101	C310	0.629800	0.258800	0.180400
H1721	H172	0.636800	0.227500	0.194100
C3111	C311	0.633900	0.348200	0.184700
H1731	H173	0.644100	0.377500	0.200500
C3121	C312	0.604200	0.262100	0.135900
H1741	H174	0.594700	0.233000	0.119300
C3131	C313	0.669900	0.258300	0.283450
H1751	H175	0.642800	0.236800	0.279000
C3141	C314	0.592510	0.307720	0.115620
C3151	C315	0.677100	0.297670	0.250400
O711	O71	0.449670	0.351230	0.947610
O721	O72	0.450900	0.268820	0.948350
C3161	C316	0.354410	0.302500	0.794500
C3171	C317	0.437940	0.309600	0.930470
C3181	C318	0.393300	0.350800	0.859800
H1761	H176	0.401900	0.381900	0.873000
C3191	C319	0.370200	0.258800	0.819600
H1771	H177	0.363200	0.227500	0.805900
C3201	C320	0.366100	0.348200	0.815300
H1781	H178	0.355900	0.377500	0.799500
C3211	C321	0.395800	0.262100	0.864100
H1791	H179	0.405300	0.233000	0.880700
C3221	C322	0.330100	0.258300	0.716550
H1801	H180	0.357200	0.236800	0.721000
C3231	C323	0.407490	0.307720	0.884380
C3241	C324	0.322900	0.297670	0.749600
O731	O73	0.052390	0.449670	0.351230
O741	O74	0.051650	0.450900	0.268820
C3251	C325	0.205500	0.354410	0.302500
C3261	C326	0.069530	0.437940	0.309600
C3271	C327	0.140200	0.393300	0.350800
H1811	H181	0.127000	0.401900	0.381900
C3281	C328	0.180400	0.370200	0.258800
H1821	H182	0.194100	0.363200	0.227500
C3291	C329	0.184700	0.366100	0.348200
H1831	H183	0.200500	0.355900	0.377500
C3301	C330	0.135900	0.395800	0.262100
H1841	H184	0.119300	0.405300	0.233000
C3311	C331	0.283450	0.330100	0.258300
H1851	H185	0.279000	0.357200	0.236800
C3321	C332	0.115620	0.407490	0.307720
C3331	C333	0.250400	0.322900	0.297670
O751	O75	0.947610	0.550330	0.351230
O761	O76	0.948350	0.549100	0.268820
C3341	C334	0.794500	0.645590	0.302500
C3351	C335	0.930470	0.562060	0.309600
C3361	C336	0.859800	0.606700	0.350800
H1861	H186	0.873000	0.598100	0.381900
C3371	C337	0.819600	0.629800	0.258800
H1871	H187	0.805900	0.636800	0.227500
C3381	C338	0.815300	0.633900	0.348200
H1881	H188	0.799500	0.644100	0.377500
C3391	C339	0.864100	0.604200	0.262100
H1891	H189	0.880700	0.594700	0.233000
C3401	C340	0.716550	0.669900	0.258300
H1901	H190	0.721000	0.642800	0.236800
C3411	C341	0.884380	0.592510	0.307720
C3421	C342	0.749600	0.677100	0.297670
O771	O77	0.947610	0.449670	0.648770
O781	O78	0.948350	0.450900	0.731180
C3431	C343	0.794500	0.354410	0.697500
C3441	C344	0.930470	0.437940	0.690400
C3451	C345	0.859800	0.393300	0.649200
H1911	H191	0.873000	0.401900	0.618100
C3461	C346	0.819600	0.370200	0.741200
H1921	H192	0.805900	0.363200	0.772500
C3471	C347	0.815300	0.366100	0.651800
H1931	H193	0.799500	0.355900	0.622500
C3481	C348	0.864100	0.395800	0.737900
H1941	H194	0.880700	0.405300	0.767000
C3491	C349	0.716550	0.330100	0.741700
H1951	H195	0.721000	0.357200	0.763200
C3501	C350	0.884380	0.407490	0.692280
C3511	C351	0.749600	0.322900	0.702330
O791	O79	0.052390	0.550330	0.648770
O801	O80	0.051650	0.549100	0.731180
C3521	C352	0.205500	0.645590	0.697500
C3531	C353	0.069530	0.562060	0.690400
C3541	C354	0.140200	0.606700	0.649200
H1961	H196	0.127000	0.598100	0.618100
C3551	C355	0.180400	0.629800	0.741200
H1971	H197	0.194100	0.636800	0.772500
C3561	C356	0.184700	0.633900	0.651800
H1981	H198	0.200500	0.644100	0.622500
C3571	C357	0.135900	0.604200	0.737900
H1991	H199	0.119300	0.594700	0.767000
C3581	C358	0.283450	0.669900	0.741700
H2001	H200	0.279000	0.642800	0.763200
C3591	C359	0.115620	0.592510	0.692280
C3601	C360	0.250400	0.677100	0.702330
O811	O81	0.351230	0.052390	0.449670
O821	O82	0.268820	0.051650	0.450900
C3611	C361	0.302500	0.205500	0.354410
C3621	C362	0.309600	0.069530	0.437940
C3631	C363	0.350800	0.140200	0.393300
H2011	H201	0.381900	0.127000	0.401900
C3641	C364	0.258800	0.180400	0.370200
H2021	H202	0.227500	0.194100	0.363200
C3651	C365	0.348200	0.184700	0.366100
H2031	H203	0.377500	0.200500	0.355900
C3661	C366	0.262100	0.135900	0.395800
H2041	H204	0.233000	0.119300	0.405300
C3671	C367	0.258300	0.283450	0.330100
H2051	H205	0.236800	0.279000	0.357200
C3681	C368	0.307720	0.115620	0.407490
C3691	C369	0.297670	0.250400	0.322900
O831	O83	0.351230	0.947610	0.550330
O841	O84	0.268820	0.948350	0.549100
C3701	C370	0.302500	0.794500	0.645590
C3711	C371	0.309600	0.930470	0.562060
C3721	C372	0.350800	0.859800	0.606700
H2061	H206	0.381900	0.873000	0.598100
C3731	C373	0.258800	0.819600	0.629800
H2071	H207	0.227500	0.805900	0.636800
C3741	C374	0.348200	0.815300	0.633900
H2081	H208	0.377500	0.799500	0.644100
C3751	C375	0.262100	0.864100	0.604200
H2091	H209	0.233000	0.880700	0.594700
C3761	C376	0.258300	0.716550	0.669900
H2101	H210	0.236800	0.721000	0.642800
C3771	C377	0.307720	0.884380	0.592510
C3781	C378	0.297670	0.749600	0.677100
O851	O85	0.648770	0.947610	0.449670
O861	O86	0.731180	0.948350	0.450900
C3791	C379	0.697500	0.794500	0.354410
C3801	C380	0.690400	0.930470	0.437940
C3811	C381	0.649200	0.859800	0.393300
H2111	H211	0.618100	0.873000	0.401900
C3821	C382	0.741200	0.819600	0.370200
H2121	H212	0.772500	0.805900	0.363200
C3831	C383	0.651800	0.815300	0.366100
H2131	H213	0.622500	0.799500	0.355900
C3841	C384	0.737900	0.864100	0.395800
H2141	H214	0.767000	0.880700	0.405300
C3851	C385	0.741700	0.716550	0.330100
H2151	H215	0.763200	0.721000	0.357200
C3861	C386	0.692280	0.884380	0.407490
C3871	C387	0.702330	0.749600	0.322900
O871	O87	0.648770	0.052390	0.550330
O881	O88	0.731180	0.051650	0.549100
C3881	C388	0.697500	0.205500	0.645590
C3891	C389	0.690400	0.069530	0.562060
C3901	C390	0.649200	0.140200	0.606700
H2161	H216	0.618100	0.127000	0.598100
C3911	C391	0.741200	0.180400	0.629800
H2171	H217	0.772500	0.194100	0.636800
C3921	C392	0.651800	0.184700	0.633900
H2181	H218	0.622500	0.200500	0.644100
C3931	C393	0.737900	0.135900	0.604200
H2191	H219	0.767000	0.119300	0.594700
C3941	C394	0.741700	0.283450	0.669900
H2201	H220	0.763200	0.279000	0.642800
C3951	C395	0.692280	0.115620	0.592510
C3961	C396	0.702330	0.250400	0.677100
O891	O89	0.449670	0.351230	0.052390
O901	O90	0.450900	0.268820	0.051650
C3971	C397	0.354410	0.302500	0.205500
C3981	C398	0.437940	0.309600	0.069530
C3991	C399	0.393300	0.350800	0.140200
H2211	H221	0.401900	0.381900	0.127000
C4001	C400	0.370200	0.258800	0.180400
H2221	H222	0.363200	0.227500	0.194100
C4011	C401	0.366100	0.348200	0.184700
H2231	H223	0.355900	0.377500	0.200500
C4021	C402	0.395800	0.262100	0.135900
H2241	H224	0.405300	0.233000	0.119300
C4031	C403	0.330100	0.258300	0.283450
H2251	H225	0.357200	0.236800	0.279000
C4041	C404	0.407490	0.307720	0.115620
C4051	C405	0.322900	0.297670	0.250400
O911	O91	0.550330	0.351230	0.947610
O921	O92	0.549100	0.268820	0.948350
C4061	C406	0.645590	0.302500	0.794500
C4071	C407	0.562060	0.309600	0.930470
C4081	C408	0.606700	0.350800	0.859800
H2261	H226	0.598100	0.381900	0.873000
C4091	C409	0.629800	0.258800	0.819600
H2271	H227	0.636800	0.227500	0.805900
C4101	C410	0.633900	0.348200	0.815300
H2281	H228	0.644100	0.377500	0.799500
C4111	C411	0.604200	0.262100	0.864100
H2291	H229	0.594700	0.233000	0.880700
C4121	C412	0.669900	0.258300	0.716550
H2301	H230	0.642800	0.236800	0.721000
C4131	C413	0.592510	0.307720	0.884380
C4141	C414	0.677100	0.297670	0.749600
O931	O93	0.449670	0.648770	0.947610
O941	O94	0.450900	0.731180	0.948350
C4151	C415	0.354410	0.697500	0.794500
C4161	C416	0.437940	0.690400	0.930470
C4171	C417	0.393300	0.649200	0.859800
H2311	H231	0.401900	0.618100	0.873000
C4181	C418	0.370200	0.741200	0.819600
H2321	H232	0.363200	0.772500	0.805900
C4191	C419	0.366100	0.651800	0.815300
H2331	H233	0.355900	0.622500	0.799500
C4201	C420	0.395800	0.737900	0.864100
H2341	H234	0.405300	0.767000	0.880700
C4211	C421	0.330100	0.741700	0.716550
H2351	H235	0.357200	0.763200	0.721000
C4221	C422	0.407490	0.692280	0.884380
C4231	C423	0.322900	0.702330	0.749600
O951	O95	0.550330	0.648770	0.052390
O961	O96	0.549100	0.731180	0.051650
C4241	C424	0.645590	0.697500	0.205500
C4251	C425	0.562060	0.690400	0.069530
C4261	C426	0.606700	0.649200	0.140200
H2361	H236	0.598100	0.618100	0.127000
C4271	C427	0.629800	0.741200	0.180400
H2371	H237	0.636800	0.772500	0.194100
C4281	C428	0.633900	0.651800	0.184700
H2381	H238	0.644100	0.622500	0.200500
C4291	C429	0.604200	0.737900	0.135900
H2391	H239	0.594700	0.767000	0.119300
C4301	C430	0.669900	0.741700	0.283450
H2401	H240	0.642800	0.763200	0.279000
C4311	C431	0.592510	0.692280	0.115620
C4321	C432	0.677100	0.702330	0.250400
Cu131	Cu13	0.000000	0.500000	0.644120
Cu141	Cu14	0.000000	0.500000	0.740110
Cu151	Cu15	0.000000	0.500000	0.355880
Cu161	Cu16	0.000000	0.500000	0.259890
Cu171	Cu17	0.644120	0.000000	0.500000
Cu181	Cu18	0.740110	0.000000	0.500000
Cu191	Cu19	0.355880	0.000000	0.500000
Cu201	Cu20	0.259890	0.000000	0.500000
Cu211	Cu21	0.500000	0.644120	0.000000
Cu221	Cu22	0.500000	0.740110	0.000000
Cu231	Cu23	0.500000	0.355880	0.000000
Cu241	Cu24	0.500000	0.259890	0.000000
