data_QOWRAV02_clean_PM
_symmetry_space_group_name_H-M	'P1'
_cell_length_a	26.991000
_cell_length_b	26.991000
_cell_length_c	26.991000
_cell_angle_alpha	90.000000
_cell_angle_beta	90.000000
_cell_angle_gamma	90.000000
_symmetry_Int_Tables_number 1

loop_
_symmetry_equiv_pos_as_xyz
'x,y,z'

loop_
_atom_site_label
_atom_site_type_symbol
_atom_site_fract_x
_atom_site_fract_y
_atom_site_fract_z
O11	O1	0.447700	0.050120	0.148850
O21	O2	0.448460	0.049490	0.231580
C11	C1	0.294940	0.146100	0.198090
C21	C2	0.430740	0.062270	0.190800
C31	C3	0.360360	0.107340	0.149530
H11	H1	0.374100	0.099000	0.118200
C41	C4	0.319730	0.130200	0.241340
H21	H2	0.305900	0.137400	0.272900
C51	C5	0.315810	0.134460	0.152080
H31	H3	0.299900	0.144900	0.122500
C61	C6	0.363960	0.104280	0.238330
H41	H4	0.380500	0.094400	0.267800
C71	C7	0.216870	0.170330	0.242120
H51	H5	0.221500	0.143100	0.263900
C81	C8	0.384250	0.092750	0.192610
C91	C9	0.249770	0.177510	0.202610
O31	O3	0.552300	0.949880	0.148850
O41	O4	0.551540	0.950510	0.231580
C101	C10	0.705060	0.853900	0.198090
C111	C11	0.569260	0.937730	0.190800
C121	C12	0.639640	0.892660	0.149530
H61	H6	0.625900	0.901000	0.118200
C131	C13	0.680270	0.869800	0.241340
H71	H7	0.694100	0.862600	0.272900
C141	C14	0.684190	0.865540	0.152080
H81	H8	0.700100	0.855100	0.122500
C151	C15	0.636040	0.895720	0.238330
H91	H9	0.619500	0.905600	0.267800
C161	C16	0.783130	0.829670	0.242120
H101	H10	0.778500	0.856900	0.263900
C171	C17	0.615750	0.907250	0.192610
C181	C18	0.750230	0.822490	0.202610
O51	O5	0.552300	0.050120	0.851150
O61	O6	0.551540	0.049490	0.768420
C191	C19	0.705060	0.146100	0.801910
C201	C20	0.569260	0.062270	0.809200
C211	C21	0.639640	0.107340	0.850470
H111	H11	0.625900	0.099000	0.881800
C221	C22	0.680270	0.130200	0.758660
H121	H12	0.694100	0.137400	0.727100
C231	C23	0.684190	0.134460	0.847920
H131	H13	0.700100	0.144900	0.877500
C241	C24	0.636040	0.104280	0.761670
H141	H14	0.619500	0.094400	0.732200
C251	C25	0.783130	0.170330	0.757880
H151	H15	0.778500	0.143100	0.736100
C261	C26	0.615750	0.092750	0.807390
C271	C27	0.750230	0.177510	0.797390
O71	O7	0.447700	0.949880	0.851150
O81	O8	0.448460	0.950510	0.768420
C281	C28	0.294940	0.853900	0.801910
C291	C29	0.430740	0.937730	0.809200
C301	C30	0.360360	0.892660	0.850470
H161	H16	0.374100	0.901000	0.881800
C311	C31	0.319730	0.869800	0.758660
H171	H17	0.305900	0.862600	0.727100
C321	C32	0.315810	0.865540	0.847920
H181	H18	0.299900	0.855100	0.877500
C331	C33	0.363960	0.895720	0.761670
H191	H19	0.380500	0.905600	0.732200
C341	C34	0.216870	0.829670	0.757880
H201	H20	0.221500	0.856900	0.736100
C351	C35	0.384250	0.907250	0.807390
C361	C36	0.249770	0.822490	0.797390
O91	O9	0.148850	0.447700	0.050120
O101	O10	0.231580	0.448460	0.049490
C371	C37	0.198090	0.294940	0.146100
C381	C38	0.190800	0.430740	0.062270
C391	C39	0.149530	0.360360	0.107340
H211	H21	0.118200	0.374100	0.099000
C401	C40	0.241340	0.319730	0.130200
H221	H22	0.272900	0.305900	0.137400
C411	C41	0.152080	0.315810	0.134460
H231	H23	0.122500	0.299900	0.144900
C421	C42	0.238330	0.363960	0.104280
H241	H24	0.267800	0.380500	0.094400
C431	C43	0.242120	0.216870	0.170330
H251	H25	0.263900	0.221500	0.143100
C441	C44	0.192610	0.384250	0.092750
C451	C45	0.202610	0.249770	0.177510
O111	O11	0.148850	0.552300	0.949880
O121	O12	0.231580	0.551540	0.950510
C461	C46	0.198090	0.705060	0.853900
C471	C47	0.190800	0.569260	0.937730
C481	C48	0.149530	0.639640	0.892660
H261	H26	0.118200	0.625900	0.901000
C491	C49	0.241340	0.680270	0.869800
H271	H27	0.272900	0.694100	0.862600
C501	C50	0.152080	0.684190	0.865540
H281	H28	0.122500	0.700100	0.855100
C511	C51	0.238330	0.636040	0.895720
H291	H29	0.267800	0.619500	0.905600
C521	C52	0.242120	0.783130	0.829670
H301	H30	0.263900	0.778500	0.856900
C531	C53	0.192610	0.615750	0.907250
C541	C54	0.202610	0.750230	0.822490
O131	O13	0.851150	0.552300	0.050120
O141	O14	0.768420	0.551540	0.049490
C551	C55	0.801910	0.705060	0.146100
C561	C56	0.809200	0.569260	0.062270
C571	C57	0.850470	0.639640	0.107340
H311	H31	0.881800	0.625900	0.099000
C581	C58	0.758660	0.680270	0.130200
H321	H32	0.727100	0.694100	0.137400
C591	C59	0.847920	0.684190	0.134460
H331	H33	0.877500	0.700100	0.144900
C601	C60	0.761670	0.636040	0.104280
H341	H34	0.732200	0.619500	0.094400
C611	C61	0.757880	0.783130	0.170330
H351	H35	0.736100	0.778500	0.143100
C621	C62	0.807390	0.615750	0.092750
C631	C63	0.797390	0.750230	0.177510
O151	O15	0.851150	0.447700	0.949880
O161	O16	0.768420	0.448460	0.950510
C641	C64	0.801910	0.294940	0.853900
C651	C65	0.809200	0.430740	0.937730
C661	C66	0.850470	0.360360	0.892660
H361	H36	0.881800	0.374100	0.901000
C671	C67	0.758660	0.319730	0.869800
H371	H37	0.727100	0.305900	0.862600
C681	C68	0.847920	0.315810	0.865540
H381	H38	0.877500	0.299900	0.855100
C691	C69	0.761670	0.363960	0.895720
H391	H39	0.732200	0.380500	0.905600
C701	C70	0.757880	0.216870	0.829670
H401	H40	0.736100	0.221500	0.856900
C711	C71	0.807390	0.384250	0.907250
C721	C72	0.797390	0.249770	0.822490
O171	O17	0.050120	0.148850	0.447700
O181	O18	0.049490	0.231580	0.448460
C731	C73	0.146100	0.198090	0.294940
C741	C74	0.062270	0.190800	0.430740
C751	C75	0.107340	0.149530	0.360360
H411	H41	0.099000	0.118200	0.374100
C761	C76	0.130200	0.241340	0.319730
H421	H42	0.137400	0.272900	0.305900
C771	C77	0.134460	0.152080	0.315810
H431	H43	0.144900	0.122500	0.299900
C781	C78	0.104280	0.238330	0.363960
H441	H44	0.094400	0.267800	0.380500
C791	C79	0.170330	0.242120	0.216870
H451	H45	0.143100	0.263900	0.221500
C801	C80	0.092750	0.192610	0.384250
C811	C81	0.177510	0.202610	0.249770
O191	O19	0.949880	0.148850	0.552300
O201	O20	0.950510	0.231580	0.551540
C821	C82	0.853900	0.198090	0.705060
C831	C83	0.937730	0.190800	0.569260
C841	C84	0.892660	0.149530	0.639640
H461	H46	0.901000	0.118200	0.625900
C851	C85	0.869800	0.241340	0.680270
H471	H47	0.862600	0.272900	0.694100
C861	C86	0.865540	0.152080	0.684190
H481	H48	0.855100	0.122500	0.700100
C871	C87	0.895720	0.238330	0.636040
H491	H49	0.905600	0.267800	0.619500
C881	C88	0.829670	0.242120	0.783130
H501	H50	0.856900	0.263900	0.778500
C891	C89	0.907250	0.192610	0.615750
C901	C90	0.822490	0.202610	0.750230
O211	O21	0.050120	0.851150	0.552300
O221	O22	0.049490	0.768420	0.551540
C911	C91	0.146100	0.801910	0.705060
C921	C92	0.062270	0.809200	0.569260
C931	C93	0.107340	0.850470	0.639640
H511	H51	0.099000	0.881800	0.625900
C941	C94	0.130200	0.758660	0.680270
H521	H52	0.137400	0.727100	0.694100
C951	C95	0.134460	0.847920	0.684190
H531	H53	0.144900	0.877500	0.700100
C961	C96	0.104280	0.761670	0.636040
H541	H54	0.094400	0.732200	0.619500
C971	C97	0.170330	0.757880	0.783130
H551	H55	0.143100	0.736100	0.778500
C981	C98	0.092750	0.807390	0.615750
C991	C99	0.177510	0.797390	0.750230
O231	O23	0.949880	0.851150	0.447700
O241	O24	0.950510	0.768420	0.448460
C1001	C100	0.853900	0.801910	0.294940
C1011	C101	0.937730	0.809200	0.430740
C1021	C102	0.892660	0.850470	0.360360
H561	H56	0.901000	0.881800	0.374100
C1031	C103	0.869800	0.758660	0.319730
H571	H57	0.862600	0.727100	0.305900
C1041	C104	0.865540	0.847920	0.315810
H581	H58	0.855100	0.877500	0.299900
C1051	C105	0.895720	0.761670	0.363960
H591	H59	0.905600	0.732200	0.380500
C1061	C106	0.829670	0.757880	0.216870
H601	H60	0.856900	0.736100	0.221500
C1071	C107	0.907250	0.807390	0.384250
C1081	C108	0.822490	0.797390	0.249770
O251	O25	0.552300	0.949880	0.851150
O261	O26	0.551540	0.950510	0.768420
C1091	C109	0.705060	0.853900	0.801910
C1101	C110	0.569260	0.937730	0.809200
C1111	C111	0.639640	0.892660	0.850470
H611	H61	0.625900	0.901000	0.881800
C1121	C112	0.680270	0.869800	0.758660
H621	H62	0.694100	0.862600	0.727100
C1131	C113	0.684190	0.865540	0.847920
H631	H63	0.700100	0.855100	0.877500
C1141	C114	0.636040	0.895720	0.761670
H641	H64	0.619500	0.905600	0.732200
C1151	C115	0.783130	0.829670	0.757880
H651	H65	0.778500	0.856900	0.736100
C1161	C116	0.615750	0.907250	0.807390
C1171	C117	0.750230	0.822490	0.797390
O271	O27	0.447700	0.050120	0.851150
O281	O28	0.448460	0.049490	0.768420
C1181	C118	0.294940	0.146100	0.801910
C1191	C119	0.430740	0.062270	0.809200
C1201	C120	0.360360	0.107340	0.850470
H661	H66	0.374100	0.099000	0.881800
C1211	C121	0.319730	0.130200	0.758660
H671	H67	0.305900	0.137400	0.727100
C1221	C122	0.315810	0.134460	0.847920
H681	H68	0.299900	0.144900	0.877500
C1231	C123	0.363960	0.104280	0.761670
H691	H69	0.380500	0.094400	0.732200
C1241	C124	0.216870	0.170330	0.757880
H701	H70	0.221500	0.143100	0.736100
C1251	C125	0.384250	0.092750	0.807390
C1261	C126	0.249770	0.177510	0.797390
O291	O29	0.447700	0.949880	0.148850
O301	O30	0.448460	0.950510	0.231580
C1271	C127	0.294940	0.853900	0.198090
C1281	C128	0.430740	0.937730	0.190800
C1291	C129	0.360360	0.892660	0.149530
H711	H71	0.374100	0.901000	0.118200
C1301	C130	0.319730	0.869800	0.241340
H721	H72	0.305900	0.862600	0.272900
C1311	C131	0.315810	0.865540	0.152080
H731	H73	0.299900	0.855100	0.122500
C1321	C132	0.363960	0.895720	0.238330
H741	H74	0.380500	0.905600	0.267800
C1331	C133	0.216870	0.829670	0.242120
H751	H75	0.221500	0.856900	0.263900
C1341	C134	0.384250	0.907250	0.192610
C1351	C135	0.249770	0.822490	0.202610
O311	O31	0.552300	0.050120	0.148850
O321	O32	0.551540	0.049490	0.231580
C1361	C136	0.705060	0.146100	0.198090
C1371	C137	0.569260	0.062270	0.190800
C1381	C138	0.639640	0.107340	0.149530
H761	H76	0.625900	0.099000	0.118200
C1391	C139	0.680270	0.130200	0.241340
H771	H77	0.694100	0.137400	0.272900
C1401	C140	0.684190	0.134460	0.152080
H781	H78	0.700100	0.144900	0.122500
C1411	C141	0.636040	0.104280	0.238330
H791	H79	0.619500	0.094400	0.267800
C1421	C142	0.783130	0.170330	0.242120
H801	H80	0.778500	0.143100	0.263900
C1431	C143	0.615750	0.092750	0.192610
C1441	C144	0.750230	0.177510	0.202610
O331	O33	0.851150	0.552300	0.949880
O341	O34	0.768420	0.551540	0.950510
C1451	C145	0.801910	0.705060	0.853900
C1461	C146	0.809200	0.569260	0.937730
C1471	C147	0.850470	0.639640	0.892660
H811	H81	0.881800	0.625900	0.901000
C1481	C148	0.758660	0.680270	0.869800
H821	H82	0.727100	0.694100	0.862600
C1491	C149	0.847920	0.684190	0.865540
H831	H83	0.877500	0.700100	0.855100
C1501	C150	0.761670	0.636040	0.895720
H841	H84	0.732200	0.619500	0.905600
C1511	C151	0.757880	0.783130	0.829670
H851	H85	0.736100	0.778500	0.856900
C1521	C152	0.807390	0.615750	0.907250
C1531	C153	0.797390	0.750230	0.822490
O351	O35	0.851150	0.447700	0.050120
O361	O36	0.768420	0.448460	0.049490
C1541	C154	0.801910	0.294940	0.146100
C1551	C155	0.809200	0.430740	0.062270
C1561	C156	0.850470	0.360360	0.107340
H861	H86	0.881800	0.374100	0.099000
C1571	C157	0.758660	0.319730	0.130200
H871	H87	0.727100	0.305900	0.137400
C1581	C158	0.847920	0.315810	0.134460
H881	H88	0.877500	0.299900	0.144900
C1591	C159	0.761670	0.363960	0.104280
H891	H89	0.732200	0.380500	0.094400
C1601	C160	0.757880	0.216870	0.170330
H901	H90	0.736100	0.221500	0.143100
C1611	C161	0.807390	0.384250	0.092750
C1621	C162	0.797390	0.249770	0.177510
O371	O37	0.148850	0.447700	0.949880
O381	O38	0.231580	0.448460	0.950510
C1631	C163	0.198090	0.294940	0.853900
C1641	C164	0.190800	0.430740	0.937730
C1651	C165	0.149530	0.360360	0.892660
H911	H91	0.118200	0.374100	0.901000
C1661	C166	0.241340	0.319730	0.869800
H921	H92	0.272900	0.305900	0.862600
C1671	C167	0.152080	0.315810	0.865540
H931	H93	0.122500	0.299900	0.855100
C1681	C168	0.238330	0.363960	0.895720
H941	H94	0.267800	0.380500	0.905600
C1691	C169	0.242120	0.216870	0.829670
H951	H95	0.263900	0.221500	0.856900
C1701	C170	0.192610	0.384250	0.907250
C1711	C171	0.202610	0.249770	0.822490
O391	O39	0.148850	0.552300	0.050120
O401	O40	0.231580	0.551540	0.049490
C1721	C172	0.198090	0.705060	0.146100
C1731	C173	0.190800	0.569260	0.062270
C1741	C174	0.149530	0.639640	0.107340
H961	H96	0.118200	0.625900	0.099000
C1751	C175	0.241340	0.680270	0.130200
H971	H97	0.272900	0.694100	0.137400
C1761	C176	0.152080	0.684190	0.134460
H981	H98	0.122500	0.700100	0.144900
C1771	C177	0.238330	0.636040	0.104280
H991	H99	0.267800	0.619500	0.094400
C1781	C178	0.242120	0.783130	0.170330
H1001	H100	0.263900	0.778500	0.143100
C1791	C179	0.192610	0.615750	0.092750
C1801	C180	0.202610	0.750230	0.177510
O411	O41	0.949880	0.851150	0.552300
O421	O42	0.950510	0.768420	0.551540
C1811	C181	0.853900	0.801910	0.705060
C1821	C182	0.937730	0.809200	0.569260
C1831	C183	0.892660	0.850470	0.639640
H1011	H101	0.901000	0.881800	0.625900
C1841	C184	0.869800	0.758660	0.680270
H1021	H102	0.862600	0.727100	0.694100
C1851	C185	0.865540	0.847920	0.684190
H1031	H103	0.855100	0.877500	0.700100
C1861	C186	0.895720	0.761670	0.636040
H1041	H104	0.905600	0.732200	0.619500
C1871	C187	0.829670	0.757880	0.783130
H1051	H105	0.856900	0.736100	0.778500
C1881	C188	0.907250	0.807390	0.615750
C1891	C189	0.822490	0.797390	0.750230
O431	O43	0.050120	0.851150	0.447700
O441	O44	0.049490	0.768420	0.448460
C1901	C190	0.146100	0.801910	0.294940
C1911	C191	0.062270	0.809200	0.430740
C1921	C192	0.107340	0.850470	0.360360
H1061	H106	0.099000	0.881800	0.374100
C1931	C193	0.130200	0.758660	0.319730
H1071	H107	0.137400	0.727100	0.305900
C1941	C194	0.134460	0.847920	0.315810
H1081	H108	0.144900	0.877500	0.299900
C1951	C195	0.104280	0.761670	0.363960
H1091	H109	0.094400	0.732200	0.380500
C1961	C196	0.170330	0.757880	0.216870
H1101	H110	0.143100	0.736100	0.221500
C1971	C197	0.092750	0.807390	0.384250
C1981	C198	0.177510	0.797390	0.249770
O451	O45	0.949880	0.148850	0.447700
O461	O46	0.950510	0.231580	0.448460
C1991	C199	0.853900	0.198090	0.294940
C2001	C200	0.937730	0.190800	0.430740
C2011	C201	0.892660	0.149530	0.360360
H1111	H111	0.901000	0.118200	0.374100
C2021	C202	0.869800	0.241340	0.319730
H1121	H112	0.862600	0.272900	0.305900
C2031	C203	0.865540	0.152080	0.315810
H1131	H113	0.855100	0.122500	0.299900
C2041	C204	0.895720	0.238330	0.363960
H1141	H114	0.905600	0.267800	0.380500
C2051	C205	0.829670	0.242120	0.216870
H1151	H115	0.856900	0.263900	0.221500
C2061	C206	0.907250	0.192610	0.384250
C2071	C207	0.822490	0.202610	0.249770
O471	O47	0.050120	0.148850	0.552300
O481	O48	0.049490	0.231580	0.551540
C2081	C208	0.146100	0.198090	0.705060
C2091	C209	0.062270	0.190800	0.569260
C2101	C210	0.107340	0.149530	0.639640
H1161	H116	0.099000	0.118200	0.625900
C2111	C211	0.130200	0.241340	0.680270
H1171	H117	0.137400	0.272900	0.694100
C2121	C212	0.134460	0.152080	0.684190
H1181	H118	0.144900	0.122500	0.700100
C2131	C213	0.104280	0.238330	0.636040
H1191	H119	0.094400	0.267800	0.619500
C2141	C214	0.170330	0.242120	0.783130
H1201	H120	0.143100	0.263900	0.778500
C2151	C215	0.092750	0.192610	0.615750
C2161	C216	0.177510	0.202610	0.750230
Cu11	Cu1	0.500000	0.000000	0.144400
Cu21	Cu2	0.500000	0.000000	0.240290
Cu31	Cu3	0.500000	0.000000	0.855600
Cu41	Cu4	0.500000	0.000000	0.759710
Cu51	Cu5	0.144400	0.500000	0.000000
Cu61	Cu6	0.240290	0.500000	0.000000
Cu71	Cu7	0.855600	0.500000	0.000000
Cu81	Cu8	0.759710	0.500000	0.000000
Cu91	Cu9	0.000000	0.144400	0.500000
Cu101	Cu10	0.000000	0.240290	0.500000
Cu111	Cu11	0.000000	0.855600	0.500000
Cu121	Cu12	0.000000	0.759710	0.500000
O491	O49	0.947700	0.550120	0.648850
O501	O50	0.948460	0.549490	0.731580
C2171	C217	0.794940	0.646100	0.698090
C2181	C218	0.930740	0.562270	0.690800
C2191	C219	0.860360	0.607340	0.649530
H1211	H121	0.874100	0.599000	0.618200
C2201	C220	0.819730	0.630200	0.741340
H1221	H122	0.805900	0.637400	0.772900
C2211	C221	0.815810	0.634460	0.652080
H1231	H123	0.799900	0.644900	0.622500
C2221	C222	0.863960	0.604280	0.738330
H1241	H124	0.880500	0.594400	0.767800
C2231	C223	0.716870	0.670330	0.742120
H1251	H125	0.721500	0.643100	0.763900
C2241	C224	0.884250	0.592750	0.692610
C2251	C225	0.749770	0.677510	0.702610
O511	O51	0.052300	0.449880	0.648850
O521	O52	0.051540	0.450510	0.731580
C2261	C226	0.205060	0.353900	0.698090
C2271	C227	0.069260	0.437730	0.690800
C2281	C228	0.139640	0.392660	0.649530
H1261	H126	0.125900	0.401000	0.618200
C2291	C229	0.180270	0.369800	0.741340
H1271	H127	0.194100	0.362600	0.772900
C2301	C230	0.184190	0.365540	0.652080
H1281	H128	0.200100	0.355100	0.622500
C2311	C231	0.136040	0.395720	0.738330
H1291	H129	0.119500	0.405600	0.767800
C2321	C232	0.283130	0.329670	0.742120
H1301	H130	0.278500	0.356900	0.763900
C2331	C233	0.115750	0.407250	0.692610
C2341	C234	0.250230	0.322490	0.702610
O531	O53	0.052300	0.550120	0.351150
O541	O54	0.051540	0.549490	0.268420
C2351	C235	0.205060	0.646100	0.301910
C2361	C236	0.069260	0.562270	0.309200
C2371	C237	0.139640	0.607340	0.350470
H1311	H131	0.125900	0.599000	0.381800
C2381	C238	0.180270	0.630200	0.258660
H1321	H132	0.194100	0.637400	0.227100
C2391	C239	0.184190	0.634460	0.347920
H1331	H133	0.200100	0.644900	0.377500
C2401	C240	0.136040	0.604280	0.261670
H1341	H134	0.119500	0.594400	0.232200
C2411	C241	0.283130	0.670330	0.257880
H1351	H135	0.278500	0.643100	0.236100
C2421	C242	0.115750	0.592750	0.307390
C2431	C243	0.250230	0.677510	0.297390
O551	O55	0.947700	0.449880	0.351150
O561	O56	0.948460	0.450510	0.268420
C2441	C244	0.794940	0.353900	0.301910
C2451	C245	0.930740	0.437730	0.309200
C2461	C246	0.860360	0.392660	0.350470
H1361	H136	0.874100	0.401000	0.381800
C2471	C247	0.819730	0.369800	0.258660
H1371	H137	0.805900	0.362600	0.227100
C2481	C248	0.815810	0.365540	0.347920
H1381	H138	0.799900	0.355100	0.377500
C2491	C249	0.863960	0.395720	0.261670
H1391	H139	0.880500	0.405600	0.232200
C2501	C250	0.716870	0.329670	0.257880
H1401	H140	0.721500	0.356900	0.236100
C2511	C251	0.884250	0.407250	0.307390
C2521	C252	0.749770	0.322490	0.297390
O571	O57	0.648850	0.947700	0.550120
O581	O58	0.731580	0.948460	0.549490
C2531	C253	0.698090	0.794940	0.646100
C2541	C254	0.690800	0.930740	0.562270
C2551	C255	0.649530	0.860360	0.607340
H1411	H141	0.618200	0.874100	0.599000
C2561	C256	0.741340	0.819730	0.630200
H1421	H142	0.772900	0.805900	0.637400
C2571	C257	0.652080	0.815810	0.634460
H1431	H143	0.622500	0.799900	0.644900
C2581	C258	0.738330	0.863960	0.604280
H1441	H144	0.767800	0.880500	0.594400
C2591	C259	0.742120	0.716870	0.670330
H1451	H145	0.763900	0.721500	0.643100
C2601	C260	0.692610	0.884250	0.592750
C2611	C261	0.702610	0.749770	0.677510
O591	O59	0.648850	0.052300	0.449880
O601	O60	0.731580	0.051540	0.450510
C2621	C262	0.698090	0.205060	0.353900
C2631	C263	0.690800	0.069260	0.437730
C2641	C264	0.649530	0.139640	0.392660
H1461	H146	0.618200	0.125900	0.401000
C2651	C265	0.741340	0.180270	0.369800
H1471	H147	0.772900	0.194100	0.362600
C2661	C266	0.652080	0.184190	0.365540
H1481	H148	0.622500	0.200100	0.355100
C2671	C267	0.738330	0.136040	0.395720
H1491	H149	0.767800	0.119500	0.405600
C2681	C268	0.742120	0.283130	0.329670
H1501	H150	0.763900	0.278500	0.356900
C2691	C269	0.692610	0.115750	0.407250
C2701	C270	0.702610	0.250230	0.322490
O611	O61	0.351150	0.052300	0.550120
O621	O62	0.268420	0.051540	0.549490
C2711	C271	0.301910	0.205060	0.646100
C2721	C272	0.309200	0.069260	0.562270
C2731	C273	0.350470	0.139640	0.607340
H1511	H151	0.381800	0.125900	0.599000
C2741	C274	0.258660	0.180270	0.630200
H1521	H152	0.227100	0.194100	0.637400
C2751	C275	0.347920	0.184190	0.634460
H1531	H153	0.377500	0.200100	0.644900
C2761	C276	0.261670	0.136040	0.604280
H1541	H154	0.232200	0.119500	0.594400
C2771	C277	0.257880	0.283130	0.670330
H1551	H155	0.236100	0.278500	0.643100
C2781	C278	0.307390	0.115750	0.592750
C2791	C279	0.297390	0.250230	0.677510
O631	O63	0.351150	0.947700	0.449880
O641	O64	0.268420	0.948460	0.450510
C2801	C280	0.301910	0.794940	0.353900
C2811	C281	0.309200	0.930740	0.437730
C2821	C282	0.350470	0.860360	0.392660
H1561	H156	0.381800	0.874100	0.401000
C2831	C283	0.258660	0.819730	0.369800
H1571	H157	0.227100	0.805900	0.362600
C2841	C284	0.347920	0.815810	0.365540
H1581	H158	0.377500	0.799900	0.355100
C2851	C285	0.261670	0.863960	0.395720
H1591	H159	0.232200	0.880500	0.405600
C2861	C286	0.257880	0.716870	0.329670
H1601	H160	0.236100	0.721500	0.356900
C2871	C287	0.307390	0.884250	0.407250
C2881	C288	0.297390	0.749770	0.322490
O651	O65	0.550120	0.648850	0.947700
O661	O66	0.549490	0.731580	0.948460
C2891	C289	0.646100	0.698090	0.794940
C2901	C290	0.562270	0.690800	0.930740
C2911	C291	0.607340	0.649530	0.860360
H1611	H161	0.599000	0.618200	0.874100
C2921	C292	0.630200	0.741340	0.819730
H1621	H162	0.637400	0.772900	0.805900
C2931	C293	0.634460	0.652080	0.815810
H1631	H163	0.644900	0.622500	0.799900
C2941	C294	0.604280	0.738330	0.863960
H1641	H164	0.594400	0.767800	0.880500
C2951	C295	0.670330	0.742120	0.716870
H1651	H165	0.643100	0.763900	0.721500
C2961	C296	0.592750	0.692610	0.884250
C2971	C297	0.677510	0.702610	0.749770
O671	O67	0.449880	0.648850	0.052300
O681	O68	0.450510	0.731580	0.051540
C2981	C298	0.353900	0.698090	0.205060
C2991	C299	0.437730	0.690800	0.069260
C3001	C300	0.392660	0.649530	0.139640
H1661	H166	0.401000	0.618200	0.125900
C3011	C301	0.369800	0.741340	0.180270
H1671	H167	0.362600	0.772900	0.194100
C3021	C302	0.365540	0.652080	0.184190
H1681	H168	0.355100	0.622500	0.200100
C3031	C303	0.395720	0.738330	0.136040
H1691	H169	0.405600	0.767800	0.119500
C3041	C304	0.329670	0.742120	0.283130
H1701	H170	0.356900	0.763900	0.278500
C3051	C305	0.407250	0.692610	0.115750
C3061	C306	0.322490	0.702610	0.250230
O691	O69	0.550120	0.351150	0.052300
O701	O70	0.549490	0.268420	0.051540
C3071	C307	0.646100	0.301910	0.205060
C3081	C308	0.562270	0.309200	0.069260
C3091	C309	0.607340	0.350470	0.139640
H1711	H171	0.599000	0.381800	0.125900
C3101	C310	0.630200	0.258660	0.180270
H1721	H172	0.637400	0.227100	0.194100
C3111	C311	0.634460	0.347920	0.184190
H1731	H173	0.644900	0.377500	0.200100
C3121	C312	0.604280	0.261670	0.136040
H1741	H174	0.594400	0.232200	0.119500
C3131	C313	0.670330	0.257880	0.283130
H1751	H175	0.643100	0.236100	0.278500
C3141	C314	0.592750	0.307390	0.115750
C3151	C315	0.677510	0.297390	0.250230
O711	O71	0.449880	0.351150	0.947700
O721	O72	0.450510	0.268420	0.948460
C3161	C316	0.353900	0.301910	0.794940
C3171	C317	0.437730	0.309200	0.930740
C3181	C318	0.392660	0.350470	0.860360
H1761	H176	0.401000	0.381800	0.874100
C3191	C319	0.369800	0.258660	0.819730
H1771	H177	0.362600	0.227100	0.805900
C3201	C320	0.365540	0.347920	0.815810
H1781	H178	0.355100	0.377500	0.799900
C3211	C321	0.395720	0.261670	0.863960
H1791	H179	0.405600	0.232200	0.880500
C3221	C322	0.329670	0.257880	0.716870
H1801	H180	0.356900	0.236100	0.721500
C3231	C323	0.407250	0.307390	0.884250
C3241	C324	0.322490	0.297390	0.749770
O731	O73	0.052300	0.449880	0.351150
O741	O74	0.051540	0.450510	0.268420
C3251	C325	0.205060	0.353900	0.301910
C3261	C326	0.069260	0.437730	0.309200
C3271	C327	0.139640	0.392660	0.350470
H1811	H181	0.125900	0.401000	0.381800
C3281	C328	0.180270	0.369800	0.258660
H1821	H182	0.194100	0.362600	0.227100
C3291	C329	0.184190	0.365540	0.347920
H1831	H183	0.200100	0.355100	0.377500
C3301	C330	0.136040	0.395720	0.261670
H1841	H184	0.119500	0.405600	0.232200
C3311	C331	0.283130	0.329670	0.257880
H1851	H185	0.278500	0.356900	0.236100
C3321	C332	0.115750	0.407250	0.307390
C3331	C333	0.250230	0.322490	0.297390
O751	O75	0.947700	0.550120	0.351150
O761	O76	0.948460	0.549490	0.268420
C3341	C334	0.794940	0.646100	0.301910
C3351	C335	0.930740	0.562270	0.309200
C3361	C336	0.860360	0.607340	0.350470
H1861	H186	0.874100	0.599000	0.381800
C3371	C337	0.819730	0.630200	0.258660
H1871	H187	0.805900	0.637400	0.227100
C3381	C338	0.815810	0.634460	0.347920
H1881	H188	0.799900	0.644900	0.377500
C3391	C339	0.863960	0.604280	0.261670
H1891	H189	0.880500	0.594400	0.232200
C3401	C340	0.716870	0.670330	0.257880
H1901	H190	0.721500	0.643100	0.236100
C3411	C341	0.884250	0.592750	0.307390
C3421	C342	0.749770	0.677510	0.297390
O771	O77	0.947700	0.449880	0.648850
O781	O78	0.948460	0.450510	0.731580
C3431	C343	0.794940	0.353900	0.698090
C3441	C344	0.930740	0.437730	0.690800
C3451	C345	0.860360	0.392660	0.649530
H1911	H191	0.874100	0.401000	0.618200
C3461	C346	0.819730	0.369800	0.741340
H1921	H192	0.805900	0.362600	0.772900
C3471	C347	0.815810	0.365540	0.652080
H1931	H193	0.799900	0.355100	0.622500
C3481	C348	0.863960	0.395720	0.738330
H1941	H194	0.880500	0.405600	0.767800
C3491	C349	0.716870	0.329670	0.742120
H1951	H195	0.721500	0.356900	0.763900
C3501	C350	0.884250	0.407250	0.692610
C3511	C351	0.749770	0.322490	0.702610
O791	O79	0.052300	0.550120	0.648850
O801	O80	0.051540	0.549490	0.731580
C3521	C352	0.205060	0.646100	0.698090
C3531	C353	0.069260	0.562270	0.690800
C3541	C354	0.139640	0.607340	0.649530
H1961	H196	0.125900	0.599000	0.618200
C3551	C355	0.180270	0.630200	0.741340
H1971	H197	0.194100	0.637400	0.772900
C3561	C356	0.184190	0.634460	0.652080
H1981	H198	0.200100	0.644900	0.622500
C3571	C357	0.136040	0.604280	0.738330
H1991	H199	0.119500	0.594400	0.767800
C3581	C358	0.283130	0.670330	0.742120
H2001	H200	0.278500	0.643100	0.763900
C3591	C359	0.115750	0.592750	0.692610
C3601	C360	0.250230	0.677510	0.702610
O811	O81	0.351150	0.052300	0.449880
O821	O82	0.268420	0.051540	0.450510
C3611	C361	0.301910	0.205060	0.353900
C3621	C362	0.309200	0.069260	0.437730
C3631	C363	0.350470	0.139640	0.392660
H2011	H201	0.381800	0.125900	0.401000
C3641	C364	0.258660	0.180270	0.369800
H2021	H202	0.227100	0.194100	0.362600
C3651	C365	0.347920	0.184190	0.365540
H2031	H203	0.377500	0.200100	0.355100
C3661	C366	0.261670	0.136040	0.395720
H2041	H204	0.232200	0.119500	0.405600
C3671	C367	0.257880	0.283130	0.329670
H2051	H205	0.236100	0.278500	0.356900
C3681	C368	0.307390	0.115750	0.407250
C3691	C369	0.297390	0.250230	0.322490
O831	O83	0.351150	0.947700	0.550120
O841	O84	0.268420	0.948460	0.549490
C3701	C370	0.301910	0.794940	0.646100
C3711	C371	0.309200	0.930740	0.562270
C3721	C372	0.350470	0.860360	0.607340
H2061	H206	0.381800	0.874100	0.599000
C3731	C373	0.258660	0.819730	0.630200
H2071	H207	0.227100	0.805900	0.637400
C3741	C374	0.347920	0.815810	0.634460
H2081	H208	0.377500	0.799900	0.644900
C3751	C375	0.261670	0.863960	0.604280
H2091	H209	0.232200	0.880500	0.594400
C3761	C376	0.257880	0.716870	0.670330
H2101	H210	0.236100	0.721500	0.643100
C3771	C377	0.307390	0.884250	0.592750
C3781	C378	0.297390	0.749770	0.677510
O851	O85	0.648850	0.947700	0.449880
O861	O86	0.731580	0.948460	0.450510
C3791	C379	0.698090	0.794940	0.353900
C3801	C380	0.690800	0.930740	0.437730
C3811	C381	0.649530	0.860360	0.392660
H2111	H211	0.618200	0.874100	0.401000
C3821	C382	0.741340	0.819730	0.369800
H2121	H212	0.772900	0.805900	0.362600
C3831	C383	0.652080	0.815810	0.365540
H2131	H213	0.622500	0.799900	0.355100
C3841	C384	0.738330	0.863960	0.395720
H2141	H214	0.767800	0.880500	0.405600
C3851	C385	0.742120	0.716870	0.329670
H2151	H215	0.763900	0.721500	0.356900
C3861	C386	0.692610	0.884250	0.407250
C3871	C387	0.702610	0.749770	0.322490
O871	O87	0.648850	0.052300	0.550120
O881	O88	0.731580	0.051540	0.549490
C3881	C388	0.698090	0.205060	0.646100
C3891	C389	0.690800	0.069260	0.562270
C3901	C390	0.649530	0.139640	0.607340
H2161	H216	0.618200	0.125900	0.599000
C3911	C391	0.741340	0.180270	0.630200
H2171	H217	0.772900	0.194100	0.637400
C3921	C392	0.652080	0.184190	0.634460
H2181	H218	0.622500	0.200100	0.644900
C3931	C393	0.738330	0.136040	0.604280
H2191	H219	0.767800	0.119500	0.594400
C3941	C394	0.742120	0.283130	0.670330
H2201	H220	0.763900	0.278500	0.643100
C3951	C395	0.692610	0.115750	0.592750
C3961	C396	0.702610	0.250230	0.677510
O891	O89	0.449880	0.351150	0.052300
O901	O90	0.450510	0.268420	0.051540
C3971	C397	0.353900	0.301910	0.205060
C3981	C398	0.437730	0.309200	0.069260
C3991	C399	0.392660	0.350470	0.139640
H2211	H221	0.401000	0.381800	0.125900
C4001	C400	0.369800	0.258660	0.180270
H2221	H222	0.362600	0.227100	0.194100
C4011	C401	0.365540	0.347920	0.184190
H2231	H223	0.355100	0.377500	0.200100
C4021	C402	0.395720	0.261670	0.136040
H2241	H224	0.405600	0.232200	0.119500
C4031	C403	0.329670	0.257880	0.283130
H2251	H225	0.356900	0.236100	0.278500
C4041	C404	0.407250	0.307390	0.115750
C4051	C405	0.322490	0.297390	0.250230
O911	O91	0.550120	0.351150	0.947700
O921	O92	0.549490	0.268420	0.948460
C4061	C406	0.646100	0.301910	0.794940
C4071	C407	0.562270	0.309200	0.930740
C4081	C408	0.607340	0.350470	0.860360
H2261	H226	0.599000	0.381800	0.874100
C4091	C409	0.630200	0.258660	0.819730
H2271	H227	0.637400	0.227100	0.805900
C4101	C410	0.634460	0.347920	0.815810
H2281	H228	0.644900	0.377500	0.799900
C4111	C411	0.604280	0.261670	0.863960
H2291	H229	0.594400	0.232200	0.880500
C4121	C412	0.670330	0.257880	0.716870
H2301	H230	0.643100	0.236100	0.721500
C4131	C413	0.592750	0.307390	0.884250
C4141	C414	0.677510	0.297390	0.749770
O931	O93	0.449880	0.648850	0.947700
O941	O94	0.450510	0.731580	0.948460
C4151	C415	0.353900	0.698090	0.794940
C4161	C416	0.437730	0.690800	0.930740
C4171	C417	0.392660	0.649530	0.860360
H2311	H231	0.401000	0.618200	0.874100
C4181	C418	0.369800	0.741340	0.819730
H2321	H232	0.362600	0.772900	0.805900
C4191	C419	0.365540	0.652080	0.815810
H2331	H233	0.355100	0.622500	0.799900
C4201	C420	0.395720	0.738330	0.863960
H2341	H234	0.405600	0.767800	0.880500
C4211	C421	0.329670	0.742120	0.716870
H2351	H235	0.356900	0.763900	0.721500
C4221	C422	0.407250	0.692610	0.884250
C4231	C423	0.322490	0.702610	0.749770
O951	O95	0.550120	0.648850	0.052300
O961	O96	0.549490	0.731580	0.051540
C4241	C424	0.646100	0.698090	0.205060
C4251	C425	0.562270	0.690800	0.069260
C4261	C426	0.607340	0.649530	0.139640
H2361	H236	0.599000	0.618200	0.125900
C4271	C427	0.630200	0.741340	0.180270
H2371	H237	0.637400	0.772900	0.194100
C4281	C428	0.634460	0.652080	0.184190
H2381	H238	0.644900	0.622500	0.200100
C4291	C429	0.604280	0.738330	0.136040
H2391	H239	0.594400	0.767800	0.119500
C4301	C430	0.670330	0.742120	0.283130
H2401	H240	0.643100	0.763900	0.278500
C4311	C431	0.592750	0.692610	0.115750
C4321	C432	0.677510	0.702610	0.250230
Cu131	Cu13	0.000000	0.500000	0.644400
Cu141	Cu14	0.000000	0.500000	0.740290
Cu151	Cu15	0.000000	0.500000	0.355600
Cu161	Cu16	0.000000	0.500000	0.259710
Cu171	Cu17	0.644400	0.000000	0.500000
Cu181	Cu18	0.740290	0.000000	0.500000
Cu191	Cu19	0.355600	0.000000	0.500000
Cu201	Cu20	0.259710	0.000000	0.500000
Cu211	Cu21	0.500000	0.644400	0.000000
Cu221	Cu22	0.500000	0.740290	0.000000
Cu231	Cu23	0.500000	0.355600	0.000000
Cu241	Cu24	0.500000	0.259710	0.000000
