data_QOWRAV05_clean_PM
_symmetry_space_group_name_H-M	'P1'
_cell_length_a	26.985000
_cell_length_b	26.985000
_cell_length_c	26.985000
_cell_angle_alpha	90.000000
_cell_angle_beta	90.000000
_cell_angle_gamma	90.000000
_symmetry_Int_Tables_number 1

loop_
_symmetry_equiv_pos_as_xyz
'x,y,z'

loop_
_atom_site_label
_atom_site_type_symbol
_atom_site_fract_x
_atom_site_fract_y
_atom_site_fract_z
O11	O1	0.447640	0.050130	0.148940
O21	O2	0.448410	0.049320	0.231460
C11	C1	0.294700	0.145780	0.197930
C21	C2	0.430650	0.062210	0.190810
C31	C3	0.360240	0.107070	0.149470
H11	H1	0.373900	0.098700	0.118100
C41	C4	0.319550	0.130060	0.241310
H21	H2	0.305700	0.137300	0.272900
C51	C5	0.315580	0.134310	0.151980
H31	H3	0.299700	0.144800	0.122400
C61	C6	0.363980	0.104180	0.238280
H41	H4	0.380600	0.094400	0.267700
C71	C7	0.216690	0.170210	0.242020
H51	H5	0.221400	0.143000	0.263900
C81	C8	0.384150	0.092590	0.192550
C91	C9	0.249630	0.177320	0.202450
O31	O3	0.552360	0.949870	0.148940
O41	O4	0.551590	0.950680	0.231460
C101	C10	0.705300	0.854220	0.197930
C111	C11	0.569350	0.937790	0.190810
C121	C12	0.639760	0.892930	0.149470
H61	H6	0.626100	0.901300	0.118100
C131	C13	0.680450	0.869940	0.241310
H71	H7	0.694300	0.862700	0.272900
C141	C14	0.684420	0.865690	0.151980
H81	H8	0.700300	0.855200	0.122400
C151	C15	0.636020	0.895820	0.238280
H91	H9	0.619400	0.905600	0.267700
C161	C16	0.783310	0.829790	0.242020
H101	H10	0.778600	0.857000	0.263900
C171	C17	0.615850	0.907410	0.192550
C181	C18	0.750370	0.822680	0.202450
O51	O5	0.552360	0.050130	0.851060
O61	O6	0.551590	0.049320	0.768540
C191	C19	0.705300	0.145780	0.802070
C201	C20	0.569350	0.062210	0.809190
C211	C21	0.639760	0.107070	0.850530
H111	H11	0.626100	0.098700	0.881900
C221	C22	0.680450	0.130060	0.758690
H121	H12	0.694300	0.137300	0.727100
C231	C23	0.684420	0.134310	0.848020
H131	H13	0.700300	0.144800	0.877600
C241	C24	0.636020	0.104180	0.761720
H141	H14	0.619400	0.094400	0.732300
C251	C25	0.783310	0.170210	0.757980
H151	H15	0.778600	0.143000	0.736100
C261	C26	0.615850	0.092590	0.807450
C271	C27	0.750370	0.177320	0.797550
O71	O7	0.447640	0.949870	0.851060
O81	O8	0.448410	0.950680	0.768540
C281	C28	0.294700	0.854220	0.802070
C291	C29	0.430650	0.937790	0.809190
C301	C30	0.360240	0.892930	0.850530
H161	H16	0.373900	0.901300	0.881900
C311	C31	0.319550	0.869940	0.758690
H171	H17	0.305700	0.862700	0.727100
C321	C32	0.315580	0.865690	0.848020
H181	H18	0.299700	0.855200	0.877600
C331	C33	0.363980	0.895820	0.761720
H191	H19	0.380600	0.905600	0.732300
C341	C34	0.216690	0.829790	0.757980
H201	H20	0.221400	0.857000	0.736100
C351	C35	0.384150	0.907410	0.807450
C361	C36	0.249630	0.822680	0.797550
O91	O9	0.148940	0.447640	0.050130
O101	O10	0.231460	0.448410	0.049320
C371	C37	0.197930	0.294700	0.145780
C381	C38	0.190810	0.430650	0.062210
C391	C39	0.149470	0.360240	0.107070
H211	H21	0.118100	0.373900	0.098700
C401	C40	0.241310	0.319550	0.130060
H221	H22	0.272900	0.305700	0.137300
C411	C41	0.151980	0.315580	0.134310
H231	H23	0.122400	0.299700	0.144800
C421	C42	0.238280	0.363980	0.104180
H241	H24	0.267700	0.380600	0.094400
C431	C43	0.242020	0.216690	0.170210
H251	H25	0.263900	0.221400	0.143000
C441	C44	0.192550	0.384150	0.092590
C451	C45	0.202450	0.249630	0.177320
O111	O11	0.148940	0.552360	0.949870
O121	O12	0.231460	0.551590	0.950680
C461	C46	0.197930	0.705300	0.854220
C471	C47	0.190810	0.569350	0.937790
C481	C48	0.149470	0.639760	0.892930
H261	H26	0.118100	0.626100	0.901300
C491	C49	0.241310	0.680450	0.869940
H271	H27	0.272900	0.694300	0.862700
C501	C50	0.151980	0.684420	0.865690
H281	H28	0.122400	0.700300	0.855200
C511	C51	0.238280	0.636020	0.895820
H291	H29	0.267700	0.619400	0.905600
C521	C52	0.242020	0.783310	0.829790
H301	H30	0.263900	0.778600	0.857000
C531	C53	0.192550	0.615850	0.907410
C541	C54	0.202450	0.750370	0.822680
O131	O13	0.851060	0.552360	0.050130
O141	O14	0.768540	0.551590	0.049320
C551	C55	0.802070	0.705300	0.145780
C561	C56	0.809190	0.569350	0.062210
C571	C57	0.850530	0.639760	0.107070
H311	H31	0.881900	0.626100	0.098700
C581	C58	0.758690	0.680450	0.130060
H321	H32	0.727100	0.694300	0.137300
C591	C59	0.848020	0.684420	0.134310
H331	H33	0.877600	0.700300	0.144800
C601	C60	0.761720	0.636020	0.104180
H341	H34	0.732300	0.619400	0.094400
C611	C61	0.757980	0.783310	0.170210
H351	H35	0.736100	0.778600	0.143000
C621	C62	0.807450	0.615850	0.092590
C631	C63	0.797550	0.750370	0.177320
O151	O15	0.851060	0.447640	0.949870
O161	O16	0.768540	0.448410	0.950680
C641	C64	0.802070	0.294700	0.854220
C651	C65	0.809190	0.430650	0.937790
C661	C66	0.850530	0.360240	0.892930
H361	H36	0.881900	0.373900	0.901300
C671	C67	0.758690	0.319550	0.869940
H371	H37	0.727100	0.305700	0.862700
C681	C68	0.848020	0.315580	0.865690
H381	H38	0.877600	0.299700	0.855200
C691	C69	0.761720	0.363980	0.895820
H391	H39	0.732300	0.380600	0.905600
C701	C70	0.757980	0.216690	0.829790
H401	H40	0.736100	0.221400	0.857000
C711	C71	0.807450	0.384150	0.907410
C721	C72	0.797550	0.249630	0.822680
O171	O17	0.050130	0.148940	0.447640
O181	O18	0.049320	0.231460	0.448410
C731	C73	0.145780	0.197930	0.294700
C741	C74	0.062210	0.190810	0.430650
C751	C75	0.107070	0.149470	0.360240
H411	H41	0.098700	0.118100	0.373900
C761	C76	0.130060	0.241310	0.319550
H421	H42	0.137300	0.272900	0.305700
C771	C77	0.134310	0.151980	0.315580
H431	H43	0.144800	0.122400	0.299700
C781	C78	0.104180	0.238280	0.363980
H441	H44	0.094400	0.267700	0.380600
C791	C79	0.170210	0.242020	0.216690
H451	H45	0.143000	0.263900	0.221400
C801	C80	0.092590	0.192550	0.384150
C811	C81	0.177320	0.202450	0.249630
O191	O19	0.949870	0.148940	0.552360
O201	O20	0.950680	0.231460	0.551590
C821	C82	0.854220	0.197930	0.705300
C831	C83	0.937790	0.190810	0.569350
C841	C84	0.892930	0.149470	0.639760
H461	H46	0.901300	0.118100	0.626100
C851	C85	0.869940	0.241310	0.680450
H471	H47	0.862700	0.272900	0.694300
C861	C86	0.865690	0.151980	0.684420
H481	H48	0.855200	0.122400	0.700300
C871	C87	0.895820	0.238280	0.636020
H491	H49	0.905600	0.267700	0.619400
C881	C88	0.829790	0.242020	0.783310
H501	H50	0.857000	0.263900	0.778600
C891	C89	0.907410	0.192550	0.615850
C901	C90	0.822680	0.202450	0.750370
O211	O21	0.050130	0.851060	0.552360
O221	O22	0.049320	0.768540	0.551590
C911	C91	0.145780	0.802070	0.705300
C921	C92	0.062210	0.809190	0.569350
C931	C93	0.107070	0.850530	0.639760
H511	H51	0.098700	0.881900	0.626100
C941	C94	0.130060	0.758690	0.680450
H521	H52	0.137300	0.727100	0.694300
C951	C95	0.134310	0.848020	0.684420
H531	H53	0.144800	0.877600	0.700300
C961	C96	0.104180	0.761720	0.636020
H541	H54	0.094400	0.732300	0.619400
C971	C97	0.170210	0.757980	0.783310
H551	H55	0.143000	0.736100	0.778600
C981	C98	0.092590	0.807450	0.615850
C991	C99	0.177320	0.797550	0.750370
O231	O23	0.949870	0.851060	0.447640
O241	O24	0.950680	0.768540	0.448410
C1001	C100	0.854220	0.802070	0.294700
C1011	C101	0.937790	0.809190	0.430650
C1021	C102	0.892930	0.850530	0.360240
H561	H56	0.901300	0.881900	0.373900
C1031	C103	0.869940	0.758690	0.319550
H571	H57	0.862700	0.727100	0.305700
C1041	C104	0.865690	0.848020	0.315580
H581	H58	0.855200	0.877600	0.299700
C1051	C105	0.895820	0.761720	0.363980
H591	H59	0.905600	0.732300	0.380600
C1061	C106	0.829790	0.757980	0.216690
H601	H60	0.857000	0.736100	0.221400
C1071	C107	0.907410	0.807450	0.384150
C1081	C108	0.822680	0.797550	0.249630
O251	O25	0.552360	0.949870	0.851060
O261	O26	0.551590	0.950680	0.768540
C1091	C109	0.705300	0.854220	0.802070
C1101	C110	0.569350	0.937790	0.809190
C1111	C111	0.639760	0.892930	0.850530
H611	H61	0.626100	0.901300	0.881900
C1121	C112	0.680450	0.869940	0.758690
H621	H62	0.694300	0.862700	0.727100
C1131	C113	0.684420	0.865690	0.848020
H631	H63	0.700300	0.855200	0.877600
C1141	C114	0.636020	0.895820	0.761720
H641	H64	0.619400	0.905600	0.732300
C1151	C115	0.783310	0.829790	0.757980
H651	H65	0.778600	0.857000	0.736100
C1161	C116	0.615850	0.907410	0.807450
C1171	C117	0.750370	0.822680	0.797550
O271	O27	0.447640	0.050130	0.851060
O281	O28	0.448410	0.049320	0.768540
C1181	C118	0.294700	0.145780	0.802070
C1191	C119	0.430650	0.062210	0.809190
C1201	C120	0.360240	0.107070	0.850530
H661	H66	0.373900	0.098700	0.881900
C1211	C121	0.319550	0.130060	0.758690
H671	H67	0.305700	0.137300	0.727100
C1221	C122	0.315580	0.134310	0.848020
H681	H68	0.299700	0.144800	0.877600
C1231	C123	0.363980	0.104180	0.761720
H691	H69	0.380600	0.094400	0.732300
C1241	C124	0.216690	0.170210	0.757980
H701	H70	0.221400	0.143000	0.736100
C1251	C125	0.384150	0.092590	0.807450
C1261	C126	0.249630	0.177320	0.797550
O291	O29	0.447640	0.949870	0.148940
O301	O30	0.448410	0.950680	0.231460
C1271	C127	0.294700	0.854220	0.197930
C1281	C128	0.430650	0.937790	0.190810
C1291	C129	0.360240	0.892930	0.149470
H711	H71	0.373900	0.901300	0.118100
C1301	C130	0.319550	0.869940	0.241310
H721	H72	0.305700	0.862700	0.272900
C1311	C131	0.315580	0.865690	0.151980
H731	H73	0.299700	0.855200	0.122400
C1321	C132	0.363980	0.895820	0.238280
H741	H74	0.380600	0.905600	0.267700
C1331	C133	0.216690	0.829790	0.242020
H751	H75	0.221400	0.857000	0.263900
C1341	C134	0.384150	0.907410	0.192550
C1351	C135	0.249630	0.822680	0.202450
O311	O31	0.552360	0.050130	0.148940
O321	O32	0.551590	0.049320	0.231460
C1361	C136	0.705300	0.145780	0.197930
C1371	C137	0.569350	0.062210	0.190810
C1381	C138	0.639760	0.107070	0.149470
H761	H76	0.626100	0.098700	0.118100
C1391	C139	0.680450	0.130060	0.241310
H771	H77	0.694300	0.137300	0.272900
C1401	C140	0.684420	0.134310	0.151980
H781	H78	0.700300	0.144800	0.122400
C1411	C141	0.636020	0.104180	0.238280
H791	H79	0.619400	0.094400	0.267700
C1421	C142	0.783310	0.170210	0.242020
H801	H80	0.778600	0.143000	0.263900
C1431	C143	0.615850	0.092590	0.192550
C1441	C144	0.750370	0.177320	0.202450
O331	O33	0.851060	0.552360	0.949870
O341	O34	0.768540	0.551590	0.950680
C1451	C145	0.802070	0.705300	0.854220
C1461	C146	0.809190	0.569350	0.937790
C1471	C147	0.850530	0.639760	0.892930
H811	H81	0.881900	0.626100	0.901300
C1481	C148	0.758690	0.680450	0.869940
H821	H82	0.727100	0.694300	0.862700
C1491	C149	0.848020	0.684420	0.865690
H831	H83	0.877600	0.700300	0.855200
C1501	C150	0.761720	0.636020	0.895820
H841	H84	0.732300	0.619400	0.905600
C1511	C151	0.757980	0.783310	0.829790
H851	H85	0.736100	0.778600	0.857000
C1521	C152	0.807450	0.615850	0.907410
C1531	C153	0.797550	0.750370	0.822680
O351	O35	0.851060	0.447640	0.050130
O361	O36	0.768540	0.448410	0.049320
C1541	C154	0.802070	0.294700	0.145780
C1551	C155	0.809190	0.430650	0.062210
C1561	C156	0.850530	0.360240	0.107070
H861	H86	0.881900	0.373900	0.098700
C1571	C157	0.758690	0.319550	0.130060
H871	H87	0.727100	0.305700	0.137300
C1581	C158	0.848020	0.315580	0.134310
H881	H88	0.877600	0.299700	0.144800
C1591	C159	0.761720	0.363980	0.104180
H891	H89	0.732300	0.380600	0.094400
C1601	C160	0.757980	0.216690	0.170210
H901	H90	0.736100	0.221400	0.143000
C1611	C161	0.807450	0.384150	0.092590
C1621	C162	0.797550	0.249630	0.177320
O371	O37	0.148940	0.447640	0.949870
O381	O38	0.231460	0.448410	0.950680
C1631	C163	0.197930	0.294700	0.854220
C1641	C164	0.190810	0.430650	0.937790
C1651	C165	0.149470	0.360240	0.892930
H911	H91	0.118100	0.373900	0.901300
C1661	C166	0.241310	0.319550	0.869940
H921	H92	0.272900	0.305700	0.862700
C1671	C167	0.151980	0.315580	0.865690
H931	H93	0.122400	0.299700	0.855200
C1681	C168	0.238280	0.363980	0.895820
H941	H94	0.267700	0.380600	0.905600
C1691	C169	0.242020	0.216690	0.829790
H951	H95	0.263900	0.221400	0.857000
C1701	C170	0.192550	0.384150	0.907410
C1711	C171	0.202450	0.249630	0.822680
O391	O39	0.148940	0.552360	0.050130
O401	O40	0.231460	0.551590	0.049320
C1721	C172	0.197930	0.705300	0.145780
C1731	C173	0.190810	0.569350	0.062210
C1741	C174	0.149470	0.639760	0.107070
H961	H96	0.118100	0.626100	0.098700
C1751	C175	0.241310	0.680450	0.130060
H971	H97	0.272900	0.694300	0.137300
C1761	C176	0.151980	0.684420	0.134310
H981	H98	0.122400	0.700300	0.144800
C1771	C177	0.238280	0.636020	0.104180
H991	H99	0.267700	0.619400	0.094400
C1781	C178	0.242020	0.783310	0.170210
H1001	H100	0.263900	0.778600	0.143000
C1791	C179	0.192550	0.615850	0.092590
C1801	C180	0.202450	0.750370	0.177320
O411	O41	0.949870	0.851060	0.552360
O421	O42	0.950680	0.768540	0.551590
C1811	C181	0.854220	0.802070	0.705300
C1821	C182	0.937790	0.809190	0.569350
C1831	C183	0.892930	0.850530	0.639760
H1011	H101	0.901300	0.881900	0.626100
C1841	C184	0.869940	0.758690	0.680450
H1021	H102	0.862700	0.727100	0.694300
C1851	C185	0.865690	0.848020	0.684420
H1031	H103	0.855200	0.877600	0.700300
C1861	C186	0.895820	0.761720	0.636020
H1041	H104	0.905600	0.732300	0.619400
C1871	C187	0.829790	0.757980	0.783310
H1051	H105	0.857000	0.736100	0.778600
C1881	C188	0.907410	0.807450	0.615850
C1891	C189	0.822680	0.797550	0.750370
O431	O43	0.050130	0.851060	0.447640
O441	O44	0.049320	0.768540	0.448410
C1901	C190	0.145780	0.802070	0.294700
C1911	C191	0.062210	0.809190	0.430650
C1921	C192	0.107070	0.850530	0.360240
H1061	H106	0.098700	0.881900	0.373900
C1931	C193	0.130060	0.758690	0.319550
H1071	H107	0.137300	0.727100	0.305700
C1941	C194	0.134310	0.848020	0.315580
H1081	H108	0.144800	0.877600	0.299700
C1951	C195	0.104180	0.761720	0.363980
H1091	H109	0.094400	0.732300	0.380600
C1961	C196	0.170210	0.757980	0.216690
H1101	H110	0.143000	0.736100	0.221400
C1971	C197	0.092590	0.807450	0.384150
C1981	C198	0.177320	0.797550	0.249630
O451	O45	0.949870	0.148940	0.447640
O461	O46	0.950680	0.231460	0.448410
C1991	C199	0.854220	0.197930	0.294700
C2001	C200	0.937790	0.190810	0.430650
C2011	C201	0.892930	0.149470	0.360240
H1111	H111	0.901300	0.118100	0.373900
C2021	C202	0.869940	0.241310	0.319550
H1121	H112	0.862700	0.272900	0.305700
C2031	C203	0.865690	0.151980	0.315580
H1131	H113	0.855200	0.122400	0.299700
C2041	C204	0.895820	0.238280	0.363980
H1141	H114	0.905600	0.267700	0.380600
C2051	C205	0.829790	0.242020	0.216690
H1151	H115	0.857000	0.263900	0.221400
C2061	C206	0.907410	0.192550	0.384150
C2071	C207	0.822680	0.202450	0.249630
O471	O47	0.050130	0.148940	0.552360
O481	O48	0.049320	0.231460	0.551590
C2081	C208	0.145780	0.197930	0.705300
C2091	C209	0.062210	0.190810	0.569350
C2101	C210	0.107070	0.149470	0.639760
H1161	H116	0.098700	0.118100	0.626100
C2111	C211	0.130060	0.241310	0.680450
H1171	H117	0.137300	0.272900	0.694300
C2121	C212	0.134310	0.151980	0.684420
H1181	H118	0.144800	0.122400	0.700300
C2131	C213	0.104180	0.238280	0.636020
H1191	H119	0.094400	0.267700	0.619400
C2141	C214	0.170210	0.242020	0.783310
H1201	H120	0.143000	0.263900	0.778600
C2151	C215	0.092590	0.192550	0.615850
C2161	C216	0.177320	0.202450	0.750370
Cu11	Cu1	0.500000	0.000000	0.144400
Cu21	Cu2	0.500000	0.000000	0.240260
Cu31	Cu3	0.500000	0.000000	0.855600
Cu41	Cu4	0.500000	0.000000	0.759740
Cu51	Cu5	0.144400	0.500000	0.000000
Cu61	Cu6	0.240260	0.500000	0.000000
Cu71	Cu7	0.855600	0.500000	0.000000
Cu81	Cu8	0.759740	0.500000	0.000000
Cu91	Cu9	0.000000	0.144400	0.500000
Cu101	Cu10	0.000000	0.240260	0.500000
Cu111	Cu11	0.000000	0.855600	0.500000
Cu121	Cu12	0.000000	0.759740	0.500000
O491	O49	0.947640	0.550130	0.648940
O501	O50	0.948410	0.549320	0.731460
C2171	C217	0.794700	0.645780	0.697930
C2181	C218	0.930650	0.562210	0.690810
C2191	C219	0.860240	0.607070	0.649470
H1211	H121	0.873900	0.598700	0.618100
C2201	C220	0.819550	0.630060	0.741310
H1221	H122	0.805700	0.637300	0.772900
C2211	C221	0.815580	0.634310	0.651980
H1231	H123	0.799700	0.644800	0.622400
C2221	C222	0.863980	0.604180	0.738280
H1241	H124	0.880600	0.594400	0.767700
C2231	C223	0.716690	0.670210	0.742020
H1251	H125	0.721400	0.643000	0.763900
C2241	C224	0.884150	0.592590	0.692550
C2251	C225	0.749630	0.677320	0.702450
O511	O51	0.052360	0.449870	0.648940
O521	O52	0.051590	0.450680	0.731460
C2261	C226	0.205300	0.354220	0.697930
C2271	C227	0.069350	0.437790	0.690810
C2281	C228	0.139760	0.392930	0.649470
H1261	H126	0.126100	0.401300	0.618100
C2291	C229	0.180450	0.369940	0.741310
H1271	H127	0.194300	0.362700	0.772900
C2301	C230	0.184420	0.365690	0.651980
H1281	H128	0.200300	0.355200	0.622400
C2311	C231	0.136020	0.395820	0.738280
H1291	H129	0.119400	0.405600	0.767700
C2321	C232	0.283310	0.329790	0.742020
H1301	H130	0.278600	0.357000	0.763900
C2331	C233	0.115850	0.407410	0.692550
C2341	C234	0.250370	0.322680	0.702450
O531	O53	0.052360	0.550130	0.351060
O541	O54	0.051590	0.549320	0.268540
C2351	C235	0.205300	0.645780	0.302070
C2361	C236	0.069350	0.562210	0.309190
C2371	C237	0.139760	0.607070	0.350530
H1311	H131	0.126100	0.598700	0.381900
C2381	C238	0.180450	0.630060	0.258690
H1321	H132	0.194300	0.637300	0.227100
C2391	C239	0.184420	0.634310	0.348020
H1331	H133	0.200300	0.644800	0.377600
C2401	C240	0.136020	0.604180	0.261720
H1341	H134	0.119400	0.594400	0.232300
C2411	C241	0.283310	0.670210	0.257980
H1351	H135	0.278600	0.643000	0.236100
C2421	C242	0.115850	0.592590	0.307450
C2431	C243	0.250370	0.677320	0.297550
O551	O55	0.947640	0.449870	0.351060
O561	O56	0.948410	0.450680	0.268540
C2441	C244	0.794700	0.354220	0.302070
C2451	C245	0.930650	0.437790	0.309190
C2461	C246	0.860240	0.392930	0.350530
H1361	H136	0.873900	0.401300	0.381900
C2471	C247	0.819550	0.369940	0.258690
H1371	H137	0.805700	0.362700	0.227100
C2481	C248	0.815580	0.365690	0.348020
H1381	H138	0.799700	0.355200	0.377600
C2491	C249	0.863980	0.395820	0.261720
H1391	H139	0.880600	0.405600	0.232300
C2501	C250	0.716690	0.329790	0.257980
H1401	H140	0.721400	0.357000	0.236100
C2511	C251	0.884150	0.407410	0.307450
C2521	C252	0.749630	0.322680	0.297550
O571	O57	0.648940	0.947640	0.550130
O581	O58	0.731460	0.948410	0.549320
C2531	C253	0.697930	0.794700	0.645780
C2541	C254	0.690810	0.930650	0.562210
C2551	C255	0.649470	0.860240	0.607070
H1411	H141	0.618100	0.873900	0.598700
C2561	C256	0.741310	0.819550	0.630060
H1421	H142	0.772900	0.805700	0.637300
C2571	C257	0.651980	0.815580	0.634310
H1431	H143	0.622400	0.799700	0.644800
C2581	C258	0.738280	0.863980	0.604180
H1441	H144	0.767700	0.880600	0.594400
C2591	C259	0.742020	0.716690	0.670210
H1451	H145	0.763900	0.721400	0.643000
C2601	C260	0.692550	0.884150	0.592590
C2611	C261	0.702450	0.749630	0.677320
O591	O59	0.648940	0.052360	0.449870
O601	O60	0.731460	0.051590	0.450680
C2621	C262	0.697930	0.205300	0.354220
C2631	C263	0.690810	0.069350	0.437790
C2641	C264	0.649470	0.139760	0.392930
H1461	H146	0.618100	0.126100	0.401300
C2651	C265	0.741310	0.180450	0.369940
H1471	H147	0.772900	0.194300	0.362700
C2661	C266	0.651980	0.184420	0.365690
H1481	H148	0.622400	0.200300	0.355200
C2671	C267	0.738280	0.136020	0.395820
H1491	H149	0.767700	0.119400	0.405600
C2681	C268	0.742020	0.283310	0.329790
H1501	H150	0.763900	0.278600	0.357000
C2691	C269	0.692550	0.115850	0.407410
C2701	C270	0.702450	0.250370	0.322680
O611	O61	0.351060	0.052360	0.550130
O621	O62	0.268540	0.051590	0.549320
C2711	C271	0.302070	0.205300	0.645780
C2721	C272	0.309190	0.069350	0.562210
C2731	C273	0.350530	0.139760	0.607070
H1511	H151	0.381900	0.126100	0.598700
C2741	C274	0.258690	0.180450	0.630060
H1521	H152	0.227100	0.194300	0.637300
C2751	C275	0.348020	0.184420	0.634310
H1531	H153	0.377600	0.200300	0.644800
C2761	C276	0.261720	0.136020	0.604180
H1541	H154	0.232300	0.119400	0.594400
C2771	C277	0.257980	0.283310	0.670210
H1551	H155	0.236100	0.278600	0.643000
C2781	C278	0.307450	0.115850	0.592590
C2791	C279	0.297550	0.250370	0.677320
O631	O63	0.351060	0.947640	0.449870
O641	O64	0.268540	0.948410	0.450680
C2801	C280	0.302070	0.794700	0.354220
C2811	C281	0.309190	0.930650	0.437790
C2821	C282	0.350530	0.860240	0.392930
H1561	H156	0.381900	0.873900	0.401300
C2831	C283	0.258690	0.819550	0.369940
H1571	H157	0.227100	0.805700	0.362700
C2841	C284	0.348020	0.815580	0.365690
H1581	H158	0.377600	0.799700	0.355200
C2851	C285	0.261720	0.863980	0.395820
H1591	H159	0.232300	0.880600	0.405600
C2861	C286	0.257980	0.716690	0.329790
H1601	H160	0.236100	0.721400	0.357000
C2871	C287	0.307450	0.884150	0.407410
C2881	C288	0.297550	0.749630	0.322680
O651	O65	0.550130	0.648940	0.947640
O661	O66	0.549320	0.731460	0.948410
C2891	C289	0.645780	0.697930	0.794700
C2901	C290	0.562210	0.690810	0.930650
C2911	C291	0.607070	0.649470	0.860240
H1611	H161	0.598700	0.618100	0.873900
C2921	C292	0.630060	0.741310	0.819550
H1621	H162	0.637300	0.772900	0.805700
C2931	C293	0.634310	0.651980	0.815580
H1631	H163	0.644800	0.622400	0.799700
C2941	C294	0.604180	0.738280	0.863980
H1641	H164	0.594400	0.767700	0.880600
C2951	C295	0.670210	0.742020	0.716690
H1651	H165	0.643000	0.763900	0.721400
C2961	C296	0.592590	0.692550	0.884150
C2971	C297	0.677320	0.702450	0.749630
O671	O67	0.449870	0.648940	0.052360
O681	O68	0.450680	0.731460	0.051590
C2981	C298	0.354220	0.697930	0.205300
C2991	C299	0.437790	0.690810	0.069350
C3001	C300	0.392930	0.649470	0.139760
H1661	H166	0.401300	0.618100	0.126100
C3011	C301	0.369940	0.741310	0.180450
H1671	H167	0.362700	0.772900	0.194300
C3021	C302	0.365690	0.651980	0.184420
H1681	H168	0.355200	0.622400	0.200300
C3031	C303	0.395820	0.738280	0.136020
H1691	H169	0.405600	0.767700	0.119400
C3041	C304	0.329790	0.742020	0.283310
H1701	H170	0.357000	0.763900	0.278600
C3051	C305	0.407410	0.692550	0.115850
C3061	C306	0.322680	0.702450	0.250370
O691	O69	0.550130	0.351060	0.052360
O701	O70	0.549320	0.268540	0.051590
C3071	C307	0.645780	0.302070	0.205300
C3081	C308	0.562210	0.309190	0.069350
C3091	C309	0.607070	0.350530	0.139760
H1711	H171	0.598700	0.381900	0.126100
C3101	C310	0.630060	0.258690	0.180450
H1721	H172	0.637300	0.227100	0.194300
C3111	C311	0.634310	0.348020	0.184420
H1731	H173	0.644800	0.377600	0.200300
C3121	C312	0.604180	0.261720	0.136020
H1741	H174	0.594400	0.232300	0.119400
C3131	C313	0.670210	0.257980	0.283310
H1751	H175	0.643000	0.236100	0.278600
C3141	C314	0.592590	0.307450	0.115850
C3151	C315	0.677320	0.297550	0.250370
O711	O71	0.449870	0.351060	0.947640
O721	O72	0.450680	0.268540	0.948410
C3161	C316	0.354220	0.302070	0.794700
C3171	C317	0.437790	0.309190	0.930650
C3181	C318	0.392930	0.350530	0.860240
H1761	H176	0.401300	0.381900	0.873900
C3191	C319	0.369940	0.258690	0.819550
H1771	H177	0.362700	0.227100	0.805700
C3201	C320	0.365690	0.348020	0.815580
H1781	H178	0.355200	0.377600	0.799700
C3211	C321	0.395820	0.261720	0.863980
H1791	H179	0.405600	0.232300	0.880600
C3221	C322	0.329790	0.257980	0.716690
H1801	H180	0.357000	0.236100	0.721400
C3231	C323	0.407410	0.307450	0.884150
C3241	C324	0.322680	0.297550	0.749630
O731	O73	0.052360	0.449870	0.351060
O741	O74	0.051590	0.450680	0.268540
C3251	C325	0.205300	0.354220	0.302070
C3261	C326	0.069350	0.437790	0.309190
C3271	C327	0.139760	0.392930	0.350530
H1811	H181	0.126100	0.401300	0.381900
C3281	C328	0.180450	0.369940	0.258690
H1821	H182	0.194300	0.362700	0.227100
C3291	C329	0.184420	0.365690	0.348020
H1831	H183	0.200300	0.355200	0.377600
C3301	C330	0.136020	0.395820	0.261720
H1841	H184	0.119400	0.405600	0.232300
C3311	C331	0.283310	0.329790	0.257980
H1851	H185	0.278600	0.357000	0.236100
C3321	C332	0.115850	0.407410	0.307450
C3331	C333	0.250370	0.322680	0.297550
O751	O75	0.947640	0.550130	0.351060
O761	O76	0.948410	0.549320	0.268540
C3341	C334	0.794700	0.645780	0.302070
C3351	C335	0.930650	0.562210	0.309190
C3361	C336	0.860240	0.607070	0.350530
H1861	H186	0.873900	0.598700	0.381900
C3371	C337	0.819550	0.630060	0.258690
H1871	H187	0.805700	0.637300	0.227100
C3381	C338	0.815580	0.634310	0.348020
H1881	H188	0.799700	0.644800	0.377600
C3391	C339	0.863980	0.604180	0.261720
H1891	H189	0.880600	0.594400	0.232300
C3401	C340	0.716690	0.670210	0.257980
H1901	H190	0.721400	0.643000	0.236100
C3411	C341	0.884150	0.592590	0.307450
C3421	C342	0.749630	0.677320	0.297550
O771	O77	0.947640	0.449870	0.648940
O781	O78	0.948410	0.450680	0.731460
C3431	C343	0.794700	0.354220	0.697930
C3441	C344	0.930650	0.437790	0.690810
C3451	C345	0.860240	0.392930	0.649470
H1911	H191	0.873900	0.401300	0.618100
C3461	C346	0.819550	0.369940	0.741310
H1921	H192	0.805700	0.362700	0.772900
C3471	C347	0.815580	0.365690	0.651980
H1931	H193	0.799700	0.355200	0.622400
C3481	C348	0.863980	0.395820	0.738280
H1941	H194	0.880600	0.405600	0.767700
C3491	C349	0.716690	0.329790	0.742020
H1951	H195	0.721400	0.357000	0.763900
C3501	C350	0.884150	0.407410	0.692550
C3511	C351	0.749630	0.322680	0.702450
O791	O79	0.052360	0.550130	0.648940
O801	O80	0.051590	0.549320	0.731460
C3521	C352	0.205300	0.645780	0.697930
C3531	C353	0.069350	0.562210	0.690810
C3541	C354	0.139760	0.607070	0.649470
H1961	H196	0.126100	0.598700	0.618100
C3551	C355	0.180450	0.630060	0.741310
H1971	H197	0.194300	0.637300	0.772900
C3561	C356	0.184420	0.634310	0.651980
H1981	H198	0.200300	0.644800	0.622400
C3571	C357	0.136020	0.604180	0.738280
H1991	H199	0.119400	0.594400	0.767700
C3581	C358	0.283310	0.670210	0.742020
H2001	H200	0.278600	0.643000	0.763900
C3591	C359	0.115850	0.592590	0.692550
C3601	C360	0.250370	0.677320	0.702450
O811	O81	0.351060	0.052360	0.449870
O821	O82	0.268540	0.051590	0.450680
C3611	C361	0.302070	0.205300	0.354220
C3621	C362	0.309190	0.069350	0.437790
C3631	C363	0.350530	0.139760	0.392930
H2011	H201	0.381900	0.126100	0.401300
C3641	C364	0.258690	0.180450	0.369940
H2021	H202	0.227100	0.194300	0.362700
C3651	C365	0.348020	0.184420	0.365690
H2031	H203	0.377600	0.200300	0.355200
C3661	C366	0.261720	0.136020	0.395820
H2041	H204	0.232300	0.119400	0.405600
C3671	C367	0.257980	0.283310	0.329790
H2051	H205	0.236100	0.278600	0.357000
C3681	C368	0.307450	0.115850	0.407410
C3691	C369	0.297550	0.250370	0.322680
O831	O83	0.351060	0.947640	0.550130
O841	O84	0.268540	0.948410	0.549320
C3701	C370	0.302070	0.794700	0.645780
C3711	C371	0.309190	0.930650	0.562210
C3721	C372	0.350530	0.860240	0.607070
H2061	H206	0.381900	0.873900	0.598700
C3731	C373	0.258690	0.819550	0.630060
H2071	H207	0.227100	0.805700	0.637300
C3741	C374	0.348020	0.815580	0.634310
H2081	H208	0.377600	0.799700	0.644800
C3751	C375	0.261720	0.863980	0.604180
H2091	H209	0.232300	0.880600	0.594400
C3761	C376	0.257980	0.716690	0.670210
H2101	H210	0.236100	0.721400	0.643000
C3771	C377	0.307450	0.884150	0.592590
C3781	C378	0.297550	0.749630	0.677320
O851	O85	0.648940	0.947640	0.449870
O861	O86	0.731460	0.948410	0.450680
C3791	C379	0.697930	0.794700	0.354220
C3801	C380	0.690810	0.930650	0.437790
C3811	C381	0.649470	0.860240	0.392930
H2111	H211	0.618100	0.873900	0.401300
C3821	C382	0.741310	0.819550	0.369940
H2121	H212	0.772900	0.805700	0.362700
C3831	C383	0.651980	0.815580	0.365690
H2131	H213	0.622400	0.799700	0.355200
C3841	C384	0.738280	0.863980	0.395820
H2141	H214	0.767700	0.880600	0.405600
C3851	C385	0.742020	0.716690	0.329790
H2151	H215	0.763900	0.721400	0.357000
C3861	C386	0.692550	0.884150	0.407410
C3871	C387	0.702450	0.749630	0.322680
O871	O87	0.648940	0.052360	0.550130
O881	O88	0.731460	0.051590	0.549320
C3881	C388	0.697930	0.205300	0.645780
C3891	C389	0.690810	0.069350	0.562210
C3901	C390	0.649470	0.139760	0.607070
H2161	H216	0.618100	0.126100	0.598700
C3911	C391	0.741310	0.180450	0.630060
H2171	H217	0.772900	0.194300	0.637300
C3921	C392	0.651980	0.184420	0.634310
H2181	H218	0.622400	0.200300	0.644800
C3931	C393	0.738280	0.136020	0.604180
H2191	H219	0.767700	0.119400	0.594400
C3941	C394	0.742020	0.283310	0.670210
H2201	H220	0.763900	0.278600	0.643000
C3951	C395	0.692550	0.115850	0.592590
C3961	C396	0.702450	0.250370	0.677320
O891	O89	0.449870	0.351060	0.052360
O901	O90	0.450680	0.268540	0.051590
C3971	C397	0.354220	0.302070	0.205300
C3981	C398	0.437790	0.309190	0.069350
C3991	C399	0.392930	0.350530	0.139760
H2211	H221	0.401300	0.381900	0.126100
C4001	C400	0.369940	0.258690	0.180450
H2221	H222	0.362700	0.227100	0.194300
C4011	C401	0.365690	0.348020	0.184420
H2231	H223	0.355200	0.377600	0.200300
C4021	C402	0.395820	0.261720	0.136020
H2241	H224	0.405600	0.232300	0.119400
C4031	C403	0.329790	0.257980	0.283310
H2251	H225	0.357000	0.236100	0.278600
C4041	C404	0.407410	0.307450	0.115850
C4051	C405	0.322680	0.297550	0.250370
O911	O91	0.550130	0.351060	0.947640
O921	O92	0.549320	0.268540	0.948410
C4061	C406	0.645780	0.302070	0.794700
C4071	C407	0.562210	0.309190	0.930650
C4081	C408	0.607070	0.350530	0.860240
H2261	H226	0.598700	0.381900	0.873900
C4091	C409	0.630060	0.258690	0.819550
H2271	H227	0.637300	0.227100	0.805700
C4101	C410	0.634310	0.348020	0.815580
H2281	H228	0.644800	0.377600	0.799700
C4111	C411	0.604180	0.261720	0.863980
H2291	H229	0.594400	0.232300	0.880600
C4121	C412	0.670210	0.257980	0.716690
H2301	H230	0.643000	0.236100	0.721400
C4131	C413	0.592590	0.307450	0.884150
C4141	C414	0.677320	0.297550	0.749630
O931	O93	0.449870	0.648940	0.947640
O941	O94	0.450680	0.731460	0.948410
C4151	C415	0.354220	0.697930	0.794700
C4161	C416	0.437790	0.690810	0.930650
C4171	C417	0.392930	0.649470	0.860240
H2311	H231	0.401300	0.618100	0.873900
C4181	C418	0.369940	0.741310	0.819550
H2321	H232	0.362700	0.772900	0.805700
C4191	C419	0.365690	0.651980	0.815580
H2331	H233	0.355200	0.622400	0.799700
C4201	C420	0.395820	0.738280	0.863980
H2341	H234	0.405600	0.767700	0.880600
C4211	C421	0.329790	0.742020	0.716690
H2351	H235	0.357000	0.763900	0.721400
C4221	C422	0.407410	0.692550	0.884150
C4231	C423	0.322680	0.702450	0.749630
O951	O95	0.550130	0.648940	0.052360
O961	O96	0.549320	0.731460	0.051590
C4241	C424	0.645780	0.697930	0.205300
C4251	C425	0.562210	0.690810	0.069350
C4261	C426	0.607070	0.649470	0.139760
H2361	H236	0.598700	0.618100	0.126100
C4271	C427	0.630060	0.741310	0.180450
H2371	H237	0.637300	0.772900	0.194300
C4281	C428	0.634310	0.651980	0.184420
H2381	H238	0.644800	0.622400	0.200300
C4291	C429	0.604180	0.738280	0.136020
H2391	H239	0.594400	0.767700	0.119400
C4301	C430	0.670210	0.742020	0.283310
H2401	H240	0.643000	0.763900	0.278600
C4311	C431	0.592590	0.692550	0.115850
C4321	C432	0.677320	0.702450	0.250370
Cu131	Cu13	0.000000	0.500000	0.644400
Cu141	Cu14	0.000000	0.500000	0.740260
Cu151	Cu15	0.000000	0.500000	0.355600
Cu161	Cu16	0.000000	0.500000	0.259740
Cu171	Cu17	0.644400	0.000000	0.500000
Cu181	Cu18	0.740260	0.000000	0.500000
Cu191	Cu19	0.355600	0.000000	0.500000
Cu201	Cu20	0.259740	0.000000	0.500000
Cu211	Cu21	0.500000	0.644400	0.000000
Cu221	Cu22	0.500000	0.740260	0.000000
Cu231	Cu23	0.500000	0.355600	0.000000
Cu241	Cu24	0.500000	0.259740	0.000000
