data_QOWRAV12_clean_PM
_symmetry_space_group_name_H-M	'P1'
_cell_length_a	26.925000
_cell_length_b	26.925000
_cell_length_c	26.925000
_cell_angle_alpha	90.000000
_cell_angle_beta	90.000000
_cell_angle_gamma	90.000000
_symmetry_Int_Tables_number 1

loop_
_symmetry_equiv_pos_as_xyz
'x,y,z'

loop_
_atom_site_label
_atom_site_type_symbol
_atom_site_fract_x
_atom_site_fract_y
_atom_site_fract_z
O11	O1	0.447460	0.050350	0.148800
O21	O2	0.448600	0.048800	0.231100
C11	C1	0.294000	0.144700	0.197000
C21	C2	0.430600	0.062000	0.190000
C31	C3	0.360000	0.106400	0.149100
H11	H1	0.373600	0.098000	0.118500
C41	C4	0.319400	0.129100	0.240900
H21	H2	0.305900	0.136000	0.271900
C51	C5	0.315000	0.133700	0.150900
H31	H3	0.299700	0.144100	0.121700
C61	C6	0.363700	0.103900	0.237500
H41	H4	0.380300	0.094700	0.266400
C71	C7	0.216400	0.169400	0.241200
H51	H5	0.221100	0.142600	0.262500
C81	C8	0.384000	0.092000	0.192100
C91	C9	0.249100	0.176700	0.201900
O31	O3	0.552540	0.949650	0.148800
O41	O4	0.551400	0.951200	0.231100
C101	C10	0.706000	0.855300	0.197000
C111	C11	0.569400	0.938000	0.190000
C121	C12	0.640000	0.893600	0.149100
H61	H6	0.626400	0.902000	0.118500
C131	C13	0.680600	0.870900	0.240900
H71	H7	0.694100	0.864000	0.271900
C141	C14	0.685000	0.866300	0.150900
H81	H8	0.700300	0.855900	0.121700
C151	C15	0.636300	0.896100	0.237500
H91	H9	0.619700	0.905300	0.266400
C161	C16	0.783600	0.830600	0.241200
H101	H10	0.778900	0.857400	0.262500
C171	C17	0.616000	0.908000	0.192100
C181	C18	0.750900	0.823300	0.201900
O51	O5	0.552540	0.050350	0.851200
O61	O6	0.551400	0.048800	0.768900
C191	C19	0.706000	0.144700	0.803000
C201	C20	0.569400	0.062000	0.810000
C211	C21	0.640000	0.106400	0.850900
H111	H11	0.626400	0.098000	0.881500
C221	C22	0.680600	0.129100	0.759100
H121	H12	0.694100	0.136000	0.728100
C231	C23	0.685000	0.133700	0.849100
H131	H13	0.700300	0.144100	0.878300
C241	C24	0.636300	0.103900	0.762500
H141	H14	0.619700	0.094700	0.733600
C251	C25	0.783600	0.169400	0.758800
H151	H15	0.778900	0.142600	0.737500
C261	C26	0.616000	0.092000	0.807900
C271	C27	0.750900	0.176700	0.798100
O71	O7	0.447460	0.949650	0.851200
O81	O8	0.448600	0.951200	0.768900
C281	C28	0.294000	0.855300	0.803000
C291	C29	0.430600	0.938000	0.810000
C301	C30	0.360000	0.893600	0.850900
H161	H16	0.373600	0.902000	0.881500
C311	C31	0.319400	0.870900	0.759100
H171	H17	0.305900	0.864000	0.728100
C321	C32	0.315000	0.866300	0.849100
H181	H18	0.299700	0.855900	0.878300
C331	C33	0.363700	0.896100	0.762500
H191	H19	0.380300	0.905300	0.733600
C341	C34	0.216400	0.830600	0.758800
H201	H20	0.221100	0.857400	0.737500
C351	C35	0.384000	0.908000	0.807900
C361	C36	0.249100	0.823300	0.798100
O91	O9	0.148800	0.447460	0.050350
O101	O10	0.231100	0.448600	0.048800
C371	C37	0.197000	0.294000	0.144700
C381	C38	0.190000	0.430600	0.062000
C391	C39	0.149100	0.360000	0.106400
H211	H21	0.118500	0.373600	0.098000
C401	C40	0.240900	0.319400	0.129100
H221	H22	0.271900	0.305900	0.136000
C411	C41	0.150900	0.315000	0.133700
H231	H23	0.121700	0.299700	0.144100
C421	C42	0.237500	0.363700	0.103900
H241	H24	0.266400	0.380300	0.094700
C431	C43	0.241200	0.216400	0.169400
H251	H25	0.262500	0.221100	0.142600
C441	C44	0.192100	0.384000	0.092000
C451	C45	0.201900	0.249100	0.176700
O111	O11	0.148800	0.552540	0.949650
O121	O12	0.231100	0.551400	0.951200
C461	C46	0.197000	0.706000	0.855300
C471	C47	0.190000	0.569400	0.938000
C481	C48	0.149100	0.640000	0.893600
H261	H26	0.118500	0.626400	0.902000
C491	C49	0.240900	0.680600	0.870900
H271	H27	0.271900	0.694100	0.864000
C501	C50	0.150900	0.685000	0.866300
H281	H28	0.121700	0.700300	0.855900
C511	C51	0.237500	0.636300	0.896100
H291	H29	0.266400	0.619700	0.905300
C521	C52	0.241200	0.783600	0.830600
H301	H30	0.262500	0.778900	0.857400
C531	C53	0.192100	0.616000	0.908000
C541	C54	0.201900	0.750900	0.823300
O131	O13	0.851200	0.552540	0.050350
O141	O14	0.768900	0.551400	0.048800
C551	C55	0.803000	0.706000	0.144700
C561	C56	0.810000	0.569400	0.062000
C571	C57	0.850900	0.640000	0.106400
H311	H31	0.881500	0.626400	0.098000
C581	C58	0.759100	0.680600	0.129100
H321	H32	0.728100	0.694100	0.136000
C591	C59	0.849100	0.685000	0.133700
H331	H33	0.878300	0.700300	0.144100
C601	C60	0.762500	0.636300	0.103900
H341	H34	0.733600	0.619700	0.094700
C611	C61	0.758800	0.783600	0.169400
H351	H35	0.737500	0.778900	0.142600
C621	C62	0.807900	0.616000	0.092000
C631	C63	0.798100	0.750900	0.176700
O151	O15	0.851200	0.447460	0.949650
O161	O16	0.768900	0.448600	0.951200
C641	C64	0.803000	0.294000	0.855300
C651	C65	0.810000	0.430600	0.938000
C661	C66	0.850900	0.360000	0.893600
H361	H36	0.881500	0.373600	0.902000
C671	C67	0.759100	0.319400	0.870900
H371	H37	0.728100	0.305900	0.864000
C681	C68	0.849100	0.315000	0.866300
H381	H38	0.878300	0.299700	0.855900
C691	C69	0.762500	0.363700	0.896100
H391	H39	0.733600	0.380300	0.905300
C701	C70	0.758800	0.216400	0.830600
H401	H40	0.737500	0.221100	0.857400
C711	C71	0.807900	0.384000	0.908000
C721	C72	0.798100	0.249100	0.823300
O171	O17	0.050350	0.148800	0.447460
O181	O18	0.048800	0.231100	0.448600
C731	C73	0.144700	0.197000	0.294000
C741	C74	0.062000	0.190000	0.430600
C751	C75	0.106400	0.149100	0.360000
H411	H41	0.098000	0.118500	0.373600
C761	C76	0.129100	0.240900	0.319400
H421	H42	0.136000	0.271900	0.305900
C771	C77	0.133700	0.150900	0.315000
H431	H43	0.144100	0.121700	0.299700
C781	C78	0.103900	0.237500	0.363700
H441	H44	0.094700	0.266400	0.380300
C791	C79	0.169400	0.241200	0.216400
H451	H45	0.142600	0.262500	0.221100
C801	C80	0.092000	0.192100	0.384000
C811	C81	0.176700	0.201900	0.249100
O191	O19	0.949650	0.148800	0.552540
O201	O20	0.951200	0.231100	0.551400
C821	C82	0.855300	0.197000	0.706000
C831	C83	0.938000	0.190000	0.569400
C841	C84	0.893600	0.149100	0.640000
H461	H46	0.902000	0.118500	0.626400
C851	C85	0.870900	0.240900	0.680600
H471	H47	0.864000	0.271900	0.694100
C861	C86	0.866300	0.150900	0.685000
H481	H48	0.855900	0.121700	0.700300
C871	C87	0.896100	0.237500	0.636300
H491	H49	0.905300	0.266400	0.619700
C881	C88	0.830600	0.241200	0.783600
H501	H50	0.857400	0.262500	0.778900
C891	C89	0.908000	0.192100	0.616000
C901	C90	0.823300	0.201900	0.750900
O211	O21	0.050350	0.851200	0.552540
O221	O22	0.048800	0.768900	0.551400
C911	C91	0.144700	0.803000	0.706000
C921	C92	0.062000	0.810000	0.569400
C931	C93	0.106400	0.850900	0.640000
H511	H51	0.098000	0.881500	0.626400
C941	C94	0.129100	0.759100	0.680600
H521	H52	0.136000	0.728100	0.694100
C951	C95	0.133700	0.849100	0.685000
H531	H53	0.144100	0.878300	0.700300
C961	C96	0.103900	0.762500	0.636300
H541	H54	0.094700	0.733600	0.619700
C971	C97	0.169400	0.758800	0.783600
H551	H55	0.142600	0.737500	0.778900
C981	C98	0.092000	0.807900	0.616000
C991	C99	0.176700	0.798100	0.750900
O231	O23	0.949650	0.851200	0.447460
O241	O24	0.951200	0.768900	0.448600
C1001	C100	0.855300	0.803000	0.294000
C1011	C101	0.938000	0.810000	0.430600
C1021	C102	0.893600	0.850900	0.360000
H561	H56	0.902000	0.881500	0.373600
C1031	C103	0.870900	0.759100	0.319400
H571	H57	0.864000	0.728100	0.305900
C1041	C104	0.866300	0.849100	0.315000
H581	H58	0.855900	0.878300	0.299700
C1051	C105	0.896100	0.762500	0.363700
H591	H59	0.905300	0.733600	0.380300
C1061	C106	0.830600	0.758800	0.216400
H601	H60	0.857400	0.737500	0.221100
C1071	C107	0.908000	0.807900	0.384000
C1081	C108	0.823300	0.798100	0.249100
O251	O25	0.552540	0.949650	0.851200
O261	O26	0.551400	0.951200	0.768900
C1091	C109	0.706000	0.855300	0.803000
C1101	C110	0.569400	0.938000	0.810000
C1111	C111	0.640000	0.893600	0.850900
H611	H61	0.626400	0.902000	0.881500
C1121	C112	0.680600	0.870900	0.759100
H621	H62	0.694100	0.864000	0.728100
C1131	C113	0.685000	0.866300	0.849100
H631	H63	0.700300	0.855900	0.878300
C1141	C114	0.636300	0.896100	0.762500
H641	H64	0.619700	0.905300	0.733600
C1151	C115	0.783600	0.830600	0.758800
H651	H65	0.778900	0.857400	0.737500
C1161	C116	0.616000	0.908000	0.807900
C1171	C117	0.750900	0.823300	0.798100
O271	O27	0.447460	0.050350	0.851200
O281	O28	0.448600	0.048800	0.768900
C1181	C118	0.294000	0.144700	0.803000
C1191	C119	0.430600	0.062000	0.810000
C1201	C120	0.360000	0.106400	0.850900
H661	H66	0.373600	0.098000	0.881500
C1211	C121	0.319400	0.129100	0.759100
H671	H67	0.305900	0.136000	0.728100
C1221	C122	0.315000	0.133700	0.849100
H681	H68	0.299700	0.144100	0.878300
C1231	C123	0.363700	0.103900	0.762500
H691	H69	0.380300	0.094700	0.733600
C1241	C124	0.216400	0.169400	0.758800
H701	H70	0.221100	0.142600	0.737500
C1251	C125	0.384000	0.092000	0.807900
C1261	C126	0.249100	0.176700	0.798100
O291	O29	0.447460	0.949650	0.148800
O301	O30	0.448600	0.951200	0.231100
C1271	C127	0.294000	0.855300	0.197000
C1281	C128	0.430600	0.938000	0.190000
C1291	C129	0.360000	0.893600	0.149100
H711	H71	0.373600	0.902000	0.118500
C1301	C130	0.319400	0.870900	0.240900
H721	H72	0.305900	0.864000	0.271900
C1311	C131	0.315000	0.866300	0.150900
H731	H73	0.299700	0.855900	0.121700
C1321	C132	0.363700	0.896100	0.237500
H741	H74	0.380300	0.905300	0.266400
C1331	C133	0.216400	0.830600	0.241200
H751	H75	0.221100	0.857400	0.262500
C1341	C134	0.384000	0.908000	0.192100
C1351	C135	0.249100	0.823300	0.201900
O311	O31	0.552540	0.050350	0.148800
O321	O32	0.551400	0.048800	0.231100
C1361	C136	0.706000	0.144700	0.197000
C1371	C137	0.569400	0.062000	0.190000
C1381	C138	0.640000	0.106400	0.149100
H761	H76	0.626400	0.098000	0.118500
C1391	C139	0.680600	0.129100	0.240900
H771	H77	0.694100	0.136000	0.271900
C1401	C140	0.685000	0.133700	0.150900
H781	H78	0.700300	0.144100	0.121700
C1411	C141	0.636300	0.103900	0.237500
H791	H79	0.619700	0.094700	0.266400
C1421	C142	0.783600	0.169400	0.241200
H801	H80	0.778900	0.142600	0.262500
C1431	C143	0.616000	0.092000	0.192100
C1441	C144	0.750900	0.176700	0.201900
O331	O33	0.851200	0.552540	0.949650
O341	O34	0.768900	0.551400	0.951200
C1451	C145	0.803000	0.706000	0.855300
C1461	C146	0.810000	0.569400	0.938000
C1471	C147	0.850900	0.640000	0.893600
H811	H81	0.881500	0.626400	0.902000
C1481	C148	0.759100	0.680600	0.870900
H821	H82	0.728100	0.694100	0.864000
C1491	C149	0.849100	0.685000	0.866300
H831	H83	0.878300	0.700300	0.855900
C1501	C150	0.762500	0.636300	0.896100
H841	H84	0.733600	0.619700	0.905300
C1511	C151	0.758800	0.783600	0.830600
H851	H85	0.737500	0.778900	0.857400
C1521	C152	0.807900	0.616000	0.908000
C1531	C153	0.798100	0.750900	0.823300
O351	O35	0.851200	0.447460	0.050350
O361	O36	0.768900	0.448600	0.048800
C1541	C154	0.803000	0.294000	0.144700
C1551	C155	0.810000	0.430600	0.062000
C1561	C156	0.850900	0.360000	0.106400
H861	H86	0.881500	0.373600	0.098000
C1571	C157	0.759100	0.319400	0.129100
H871	H87	0.728100	0.305900	0.136000
C1581	C158	0.849100	0.315000	0.133700
H881	H88	0.878300	0.299700	0.144100
C1591	C159	0.762500	0.363700	0.103900
H891	H89	0.733600	0.380300	0.094700
C1601	C160	0.758800	0.216400	0.169400
H901	H90	0.737500	0.221100	0.142600
C1611	C161	0.807900	0.384000	0.092000
C1621	C162	0.798100	0.249100	0.176700
O371	O37	0.148800	0.447460	0.949650
O381	O38	0.231100	0.448600	0.951200
C1631	C163	0.197000	0.294000	0.855300
C1641	C164	0.190000	0.430600	0.938000
C1651	C165	0.149100	0.360000	0.893600
H911	H91	0.118500	0.373600	0.902000
C1661	C166	0.240900	0.319400	0.870900
H921	H92	0.271900	0.305900	0.864000
C1671	C167	0.150900	0.315000	0.866300
H931	H93	0.121700	0.299700	0.855900
C1681	C168	0.237500	0.363700	0.896100
H941	H94	0.266400	0.380300	0.905300
C1691	C169	0.241200	0.216400	0.830600
H951	H95	0.262500	0.221100	0.857400
C1701	C170	0.192100	0.384000	0.908000
C1711	C171	0.201900	0.249100	0.823300
O391	O39	0.148800	0.552540	0.050350
O401	O40	0.231100	0.551400	0.048800
C1721	C172	0.197000	0.706000	0.144700
C1731	C173	0.190000	0.569400	0.062000
C1741	C174	0.149100	0.640000	0.106400
H961	H96	0.118500	0.626400	0.098000
C1751	C175	0.240900	0.680600	0.129100
H971	H97	0.271900	0.694100	0.136000
C1761	C176	0.150900	0.685000	0.133700
H981	H98	0.121700	0.700300	0.144100
C1771	C177	0.237500	0.636300	0.103900
H991	H99	0.266400	0.619700	0.094700
C1781	C178	0.241200	0.783600	0.169400
H1001	H100	0.262500	0.778900	0.142600
C1791	C179	0.192100	0.616000	0.092000
C1801	C180	0.201900	0.750900	0.176700
O411	O41	0.949650	0.851200	0.552540
O421	O42	0.951200	0.768900	0.551400
C1811	C181	0.855300	0.803000	0.706000
C1821	C182	0.938000	0.810000	0.569400
C1831	C183	0.893600	0.850900	0.640000
H1011	H101	0.902000	0.881500	0.626400
C1841	C184	0.870900	0.759100	0.680600
H1021	H102	0.864000	0.728100	0.694100
C1851	C185	0.866300	0.849100	0.685000
H1031	H103	0.855900	0.878300	0.700300
C1861	C186	0.896100	0.762500	0.636300
H1041	H104	0.905300	0.733600	0.619700
C1871	C187	0.830600	0.758800	0.783600
H1051	H105	0.857400	0.737500	0.778900
C1881	C188	0.908000	0.807900	0.616000
C1891	C189	0.823300	0.798100	0.750900
O431	O43	0.050350	0.851200	0.447460
O441	O44	0.048800	0.768900	0.448600
C1901	C190	0.144700	0.803000	0.294000
C1911	C191	0.062000	0.810000	0.430600
C1921	C192	0.106400	0.850900	0.360000
H1061	H106	0.098000	0.881500	0.373600
C1931	C193	0.129100	0.759100	0.319400
H1071	H107	0.136000	0.728100	0.305900
C1941	C194	0.133700	0.849100	0.315000
H1081	H108	0.144100	0.878300	0.299700
C1951	C195	0.103900	0.762500	0.363700
H1091	H109	0.094700	0.733600	0.380300
C1961	C196	0.169400	0.758800	0.216400
H1101	H110	0.142600	0.737500	0.221100
C1971	C197	0.092000	0.807900	0.384000
C1981	C198	0.176700	0.798100	0.249100
O451	O45	0.949650	0.148800	0.447460
O461	O46	0.951200	0.231100	0.448600
C1991	C199	0.855300	0.197000	0.294000
C2001	C200	0.938000	0.190000	0.430600
C2011	C201	0.893600	0.149100	0.360000
H1111	H111	0.902000	0.118500	0.373600
C2021	C202	0.870900	0.240900	0.319400
H1121	H112	0.864000	0.271900	0.305900
C2031	C203	0.866300	0.150900	0.315000
H1131	H113	0.855900	0.121700	0.299700
C2041	C204	0.896100	0.237500	0.363700
H1141	H114	0.905300	0.266400	0.380300
C2051	C205	0.830600	0.241200	0.216400
H1151	H115	0.857400	0.262500	0.221100
C2061	C206	0.908000	0.192100	0.384000
C2071	C207	0.823300	0.201900	0.249100
O471	O47	0.050350	0.148800	0.552540
O481	O48	0.048800	0.231100	0.551400
C2081	C208	0.144700	0.197000	0.706000
C2091	C209	0.062000	0.190000	0.569400
C2101	C210	0.106400	0.149100	0.640000
H1161	H116	0.098000	0.118500	0.626400
C2111	C211	0.129100	0.240900	0.680600
H1171	H117	0.136000	0.271900	0.694100
C2121	C212	0.133700	0.150900	0.685000
H1181	H118	0.144100	0.121700	0.700300
C2131	C213	0.103900	0.237500	0.636300
H1191	H119	0.094700	0.266400	0.619700
C2141	C214	0.169400	0.241200	0.783600
H1201	H120	0.142600	0.262500	0.778900
C2151	C215	0.092000	0.192100	0.616000
C2161	C216	0.176700	0.201900	0.750900
Cu11	Cu1	0.500000	0.000000	0.144130
Cu21	Cu2	0.500000	0.000000	0.240700
Cu31	Cu3	0.500000	0.000000	0.855870
Cu41	Cu4	0.500000	0.000000	0.759300
Cu51	Cu5	0.144130	0.500000	0.000000
Cu61	Cu6	0.240700	0.500000	0.000000
Cu71	Cu7	0.855870	0.500000	0.000000
Cu81	Cu8	0.759300	0.500000	0.000000
Cu91	Cu9	0.000000	0.144130	0.500000
Cu101	Cu10	0.000000	0.240700	0.500000
Cu111	Cu11	0.000000	0.855870	0.500000
Cu121	Cu12	0.000000	0.759300	0.500000
O491	O49	0.947460	0.550350	0.648800
O501	O50	0.948600	0.548800	0.731100
C2171	C217	0.794000	0.644700	0.697000
C2181	C218	0.930600	0.562000	0.690000
C2191	C219	0.860000	0.606400	0.649100
H1211	H121	0.873600	0.598000	0.618500
C2201	C220	0.819400	0.629100	0.740900
H1221	H122	0.805900	0.636000	0.771900
C2211	C221	0.815000	0.633700	0.650900
H1231	H123	0.799700	0.644100	0.621700
C2221	C222	0.863700	0.603900	0.737500
H1241	H124	0.880300	0.594700	0.766400
C2231	C223	0.716400	0.669400	0.741200
H1251	H125	0.721100	0.642600	0.762500
C2241	C224	0.884000	0.592000	0.692100
C2251	C225	0.749100	0.676700	0.701900
O511	O51	0.052540	0.449650	0.648800
O521	O52	0.051400	0.451200	0.731100
C2261	C226	0.206000	0.355300	0.697000
C2271	C227	0.069400	0.438000	0.690000
C2281	C228	0.140000	0.393600	0.649100
H1261	H126	0.126400	0.402000	0.618500
C2291	C229	0.180600	0.370900	0.740900
H1271	H127	0.194100	0.364000	0.771900
C2301	C230	0.185000	0.366300	0.650900
H1281	H128	0.200300	0.355900	0.621700
C2311	C231	0.136300	0.396100	0.737500
H1291	H129	0.119700	0.405300	0.766400
C2321	C232	0.283600	0.330600	0.741200
H1301	H130	0.278900	0.357400	0.762500
C2331	C233	0.116000	0.408000	0.692100
C2341	C234	0.250900	0.323300	0.701900
O531	O53	0.052540	0.550350	0.351200
O541	O54	0.051400	0.548800	0.268900
C2351	C235	0.206000	0.644700	0.303000
C2361	C236	0.069400	0.562000	0.310000
C2371	C237	0.140000	0.606400	0.350900
H1311	H131	0.126400	0.598000	0.381500
C2381	C238	0.180600	0.629100	0.259100
H1321	H132	0.194100	0.636000	0.228100
C2391	C239	0.185000	0.633700	0.349100
H1331	H133	0.200300	0.644100	0.378300
C2401	C240	0.136300	0.603900	0.262500
H1341	H134	0.119700	0.594700	0.233600
C2411	C241	0.283600	0.669400	0.258800
H1351	H135	0.278900	0.642600	0.237500
C2421	C242	0.116000	0.592000	0.307900
C2431	C243	0.250900	0.676700	0.298100
O551	O55	0.947460	0.449650	0.351200
O561	O56	0.948600	0.451200	0.268900
C2441	C244	0.794000	0.355300	0.303000
C2451	C245	0.930600	0.438000	0.310000
C2461	C246	0.860000	0.393600	0.350900
H1361	H136	0.873600	0.402000	0.381500
C2471	C247	0.819400	0.370900	0.259100
H1371	H137	0.805900	0.364000	0.228100
C2481	C248	0.815000	0.366300	0.349100
H1381	H138	0.799700	0.355900	0.378300
C2491	C249	0.863700	0.396100	0.262500
H1391	H139	0.880300	0.405300	0.233600
C2501	C250	0.716400	0.330600	0.258800
H1401	H140	0.721100	0.357400	0.237500
C2511	C251	0.884000	0.408000	0.307900
C2521	C252	0.749100	0.323300	0.298100
O571	O57	0.648800	0.947460	0.550350
O581	O58	0.731100	0.948600	0.548800
C2531	C253	0.697000	0.794000	0.644700
C2541	C254	0.690000	0.930600	0.562000
C2551	C255	0.649100	0.860000	0.606400
H1411	H141	0.618500	0.873600	0.598000
C2561	C256	0.740900	0.819400	0.629100
H1421	H142	0.771900	0.805900	0.636000
C2571	C257	0.650900	0.815000	0.633700
H1431	H143	0.621700	0.799700	0.644100
C2581	C258	0.737500	0.863700	0.603900
H1441	H144	0.766400	0.880300	0.594700
C2591	C259	0.741200	0.716400	0.669400
H1451	H145	0.762500	0.721100	0.642600
C2601	C260	0.692100	0.884000	0.592000
C2611	C261	0.701900	0.749100	0.676700
O591	O59	0.648800	0.052540	0.449650
O601	O60	0.731100	0.051400	0.451200
C2621	C262	0.697000	0.206000	0.355300
C2631	C263	0.690000	0.069400	0.438000
C2641	C264	0.649100	0.140000	0.393600
H1461	H146	0.618500	0.126400	0.402000
C2651	C265	0.740900	0.180600	0.370900
H1471	H147	0.771900	0.194100	0.364000
C2661	C266	0.650900	0.185000	0.366300
H1481	H148	0.621700	0.200300	0.355900
C2671	C267	0.737500	0.136300	0.396100
H1491	H149	0.766400	0.119700	0.405300
C2681	C268	0.741200	0.283600	0.330600
H1501	H150	0.762500	0.278900	0.357400
C2691	C269	0.692100	0.116000	0.408000
C2701	C270	0.701900	0.250900	0.323300
O611	O61	0.351200	0.052540	0.550350
O621	O62	0.268900	0.051400	0.548800
C2711	C271	0.303000	0.206000	0.644700
C2721	C272	0.310000	0.069400	0.562000
C2731	C273	0.350900	0.140000	0.606400
H1511	H151	0.381500	0.126400	0.598000
C2741	C274	0.259100	0.180600	0.629100
H1521	H152	0.228100	0.194100	0.636000
C2751	C275	0.349100	0.185000	0.633700
H1531	H153	0.378300	0.200300	0.644100
C2761	C276	0.262500	0.136300	0.603900
H1541	H154	0.233600	0.119700	0.594700
C2771	C277	0.258800	0.283600	0.669400
H1551	H155	0.237500	0.278900	0.642600
C2781	C278	0.307900	0.116000	0.592000
C2791	C279	0.298100	0.250900	0.676700
O631	O63	0.351200	0.947460	0.449650
O641	O64	0.268900	0.948600	0.451200
C2801	C280	0.303000	0.794000	0.355300
C2811	C281	0.310000	0.930600	0.438000
C2821	C282	0.350900	0.860000	0.393600
H1561	H156	0.381500	0.873600	0.402000
C2831	C283	0.259100	0.819400	0.370900
H1571	H157	0.228100	0.805900	0.364000
C2841	C284	0.349100	0.815000	0.366300
H1581	H158	0.378300	0.799700	0.355900
C2851	C285	0.262500	0.863700	0.396100
H1591	H159	0.233600	0.880300	0.405300
C2861	C286	0.258800	0.716400	0.330600
H1601	H160	0.237500	0.721100	0.357400
C2871	C287	0.307900	0.884000	0.408000
C2881	C288	0.298100	0.749100	0.323300
O651	O65	0.550350	0.648800	0.947460
O661	O66	0.548800	0.731100	0.948600
C2891	C289	0.644700	0.697000	0.794000
C2901	C290	0.562000	0.690000	0.930600
C2911	C291	0.606400	0.649100	0.860000
H1611	H161	0.598000	0.618500	0.873600
C2921	C292	0.629100	0.740900	0.819400
H1621	H162	0.636000	0.771900	0.805900
C2931	C293	0.633700	0.650900	0.815000
H1631	H163	0.644100	0.621700	0.799700
C2941	C294	0.603900	0.737500	0.863700
H1641	H164	0.594700	0.766400	0.880300
C2951	C295	0.669400	0.741200	0.716400
H1651	H165	0.642600	0.762500	0.721100
C2961	C296	0.592000	0.692100	0.884000
C2971	C297	0.676700	0.701900	0.749100
O671	O67	0.449650	0.648800	0.052540
O681	O68	0.451200	0.731100	0.051400
C2981	C298	0.355300	0.697000	0.206000
C2991	C299	0.438000	0.690000	0.069400
C3001	C300	0.393600	0.649100	0.140000
H1661	H166	0.402000	0.618500	0.126400
C3011	C301	0.370900	0.740900	0.180600
H1671	H167	0.364000	0.771900	0.194100
C3021	C302	0.366300	0.650900	0.185000
H1681	H168	0.355900	0.621700	0.200300
C3031	C303	0.396100	0.737500	0.136300
H1691	H169	0.405300	0.766400	0.119700
C3041	C304	0.330600	0.741200	0.283600
H1701	H170	0.357400	0.762500	0.278900
C3051	C305	0.408000	0.692100	0.116000
C3061	C306	0.323300	0.701900	0.250900
O691	O69	0.550350	0.351200	0.052540
O701	O70	0.548800	0.268900	0.051400
C3071	C307	0.644700	0.303000	0.206000
C3081	C308	0.562000	0.310000	0.069400
C3091	C309	0.606400	0.350900	0.140000
H1711	H171	0.598000	0.381500	0.126400
C3101	C310	0.629100	0.259100	0.180600
H1721	H172	0.636000	0.228100	0.194100
C3111	C311	0.633700	0.349100	0.185000
H1731	H173	0.644100	0.378300	0.200300
C3121	C312	0.603900	0.262500	0.136300
H1741	H174	0.594700	0.233600	0.119700
C3131	C313	0.669400	0.258800	0.283600
H1751	H175	0.642600	0.237500	0.278900
C3141	C314	0.592000	0.307900	0.116000
C3151	C315	0.676700	0.298100	0.250900
O711	O71	0.449650	0.351200	0.947460
O721	O72	0.451200	0.268900	0.948600
C3161	C316	0.355300	0.303000	0.794000
C3171	C317	0.438000	0.310000	0.930600
C3181	C318	0.393600	0.350900	0.860000
H1761	H176	0.402000	0.381500	0.873600
C3191	C319	0.370900	0.259100	0.819400
H1771	H177	0.364000	0.228100	0.805900
C3201	C320	0.366300	0.349100	0.815000
H1781	H178	0.355900	0.378300	0.799700
C3211	C321	0.396100	0.262500	0.863700
H1791	H179	0.405300	0.233600	0.880300
C3221	C322	0.330600	0.258800	0.716400
H1801	H180	0.357400	0.237500	0.721100
C3231	C323	0.408000	0.307900	0.884000
C3241	C324	0.323300	0.298100	0.749100
O731	O73	0.052540	0.449650	0.351200
O741	O74	0.051400	0.451200	0.268900
C3251	C325	0.206000	0.355300	0.303000
C3261	C326	0.069400	0.438000	0.310000
C3271	C327	0.140000	0.393600	0.350900
H1811	H181	0.126400	0.402000	0.381500
C3281	C328	0.180600	0.370900	0.259100
H1821	H182	0.194100	0.364000	0.228100
C3291	C329	0.185000	0.366300	0.349100
H1831	H183	0.200300	0.355900	0.378300
C3301	C330	0.136300	0.396100	0.262500
H1841	H184	0.119700	0.405300	0.233600
C3311	C331	0.283600	0.330600	0.258800
H1851	H185	0.278900	0.357400	0.237500
C3321	C332	0.116000	0.408000	0.307900
C3331	C333	0.250900	0.323300	0.298100
O751	O75	0.947460	0.550350	0.351200
O761	O76	0.948600	0.548800	0.268900
C3341	C334	0.794000	0.644700	0.303000
C3351	C335	0.930600	0.562000	0.310000
C3361	C336	0.860000	0.606400	0.350900
H1861	H186	0.873600	0.598000	0.381500
C3371	C337	0.819400	0.629100	0.259100
H1871	H187	0.805900	0.636000	0.228100
C3381	C338	0.815000	0.633700	0.349100
H1881	H188	0.799700	0.644100	0.378300
C3391	C339	0.863700	0.603900	0.262500
H1891	H189	0.880300	0.594700	0.233600
C3401	C340	0.716400	0.669400	0.258800
H1901	H190	0.721100	0.642600	0.237500
C3411	C341	0.884000	0.592000	0.307900
C3421	C342	0.749100	0.676700	0.298100
O771	O77	0.947460	0.449650	0.648800
O781	O78	0.948600	0.451200	0.731100
C3431	C343	0.794000	0.355300	0.697000
C3441	C344	0.930600	0.438000	0.690000
C3451	C345	0.860000	0.393600	0.649100
H1911	H191	0.873600	0.402000	0.618500
C3461	C346	0.819400	0.370900	0.740900
H1921	H192	0.805900	0.364000	0.771900
C3471	C347	0.815000	0.366300	0.650900
H1931	H193	0.799700	0.355900	0.621700
C3481	C348	0.863700	0.396100	0.737500
H1941	H194	0.880300	0.405300	0.766400
C3491	C349	0.716400	0.330600	0.741200
H1951	H195	0.721100	0.357400	0.762500
C3501	C350	0.884000	0.408000	0.692100
C3511	C351	0.749100	0.323300	0.701900
O791	O79	0.052540	0.550350	0.648800
O801	O80	0.051400	0.548800	0.731100
C3521	C352	0.206000	0.644700	0.697000
C3531	C353	0.069400	0.562000	0.690000
C3541	C354	0.140000	0.606400	0.649100
H1961	H196	0.126400	0.598000	0.618500
C3551	C355	0.180600	0.629100	0.740900
H1971	H197	0.194100	0.636000	0.771900
C3561	C356	0.185000	0.633700	0.650900
H1981	H198	0.200300	0.644100	0.621700
C3571	C357	0.136300	0.603900	0.737500
H1991	H199	0.119700	0.594700	0.766400
C3581	C358	0.283600	0.669400	0.741200
H2001	H200	0.278900	0.642600	0.762500
C3591	C359	0.116000	0.592000	0.692100
C3601	C360	0.250900	0.676700	0.701900
O811	O81	0.351200	0.052540	0.449650
O821	O82	0.268900	0.051400	0.451200
C3611	C361	0.303000	0.206000	0.355300
C3621	C362	0.310000	0.069400	0.438000
C3631	C363	0.350900	0.140000	0.393600
H2011	H201	0.381500	0.126400	0.402000
C3641	C364	0.259100	0.180600	0.370900
H2021	H202	0.228100	0.194100	0.364000
C3651	C365	0.349100	0.185000	0.366300
H2031	H203	0.378300	0.200300	0.355900
C3661	C366	0.262500	0.136300	0.396100
H2041	H204	0.233600	0.119700	0.405300
C3671	C367	0.258800	0.283600	0.330600
H2051	H205	0.237500	0.278900	0.357400
C3681	C368	0.307900	0.116000	0.408000
C3691	C369	0.298100	0.250900	0.323300
O831	O83	0.351200	0.947460	0.550350
O841	O84	0.268900	0.948600	0.548800
C3701	C370	0.303000	0.794000	0.644700
C3711	C371	0.310000	0.930600	0.562000
C3721	C372	0.350900	0.860000	0.606400
H2061	H206	0.381500	0.873600	0.598000
C3731	C373	0.259100	0.819400	0.629100
H2071	H207	0.228100	0.805900	0.636000
C3741	C374	0.349100	0.815000	0.633700
H2081	H208	0.378300	0.799700	0.644100
C3751	C375	0.262500	0.863700	0.603900
H2091	H209	0.233600	0.880300	0.594700
C3761	C376	0.258800	0.716400	0.669400
H2101	H210	0.237500	0.721100	0.642600
C3771	C377	0.307900	0.884000	0.592000
C3781	C378	0.298100	0.749100	0.676700
O851	O85	0.648800	0.947460	0.449650
O861	O86	0.731100	0.948600	0.451200
C3791	C379	0.697000	0.794000	0.355300
C3801	C380	0.690000	0.930600	0.438000
C3811	C381	0.649100	0.860000	0.393600
H2111	H211	0.618500	0.873600	0.402000
C3821	C382	0.740900	0.819400	0.370900
H2121	H212	0.771900	0.805900	0.364000
C3831	C383	0.650900	0.815000	0.366300
H2131	H213	0.621700	0.799700	0.355900
C3841	C384	0.737500	0.863700	0.396100
H2141	H214	0.766400	0.880300	0.405300
C3851	C385	0.741200	0.716400	0.330600
H2151	H215	0.762500	0.721100	0.357400
C3861	C386	0.692100	0.884000	0.408000
C3871	C387	0.701900	0.749100	0.323300
O871	O87	0.648800	0.052540	0.550350
O881	O88	0.731100	0.051400	0.548800
C3881	C388	0.697000	0.206000	0.644700
C3891	C389	0.690000	0.069400	0.562000
C3901	C390	0.649100	0.140000	0.606400
H2161	H216	0.618500	0.126400	0.598000
C3911	C391	0.740900	0.180600	0.629100
H2171	H217	0.771900	0.194100	0.636000
C3921	C392	0.650900	0.185000	0.633700
H2181	H218	0.621700	0.200300	0.644100
C3931	C393	0.737500	0.136300	0.603900
H2191	H219	0.766400	0.119700	0.594700
C3941	C394	0.741200	0.283600	0.669400
H2201	H220	0.762500	0.278900	0.642600
C3951	C395	0.692100	0.116000	0.592000
C3961	C396	0.701900	0.250900	0.676700
O891	O89	0.449650	0.351200	0.052540
O901	O90	0.451200	0.268900	0.051400
C3971	C397	0.355300	0.303000	0.206000
C3981	C398	0.438000	0.310000	0.069400
C3991	C399	0.393600	0.350900	0.140000
H2211	H221	0.402000	0.381500	0.126400
C4001	C400	0.370900	0.259100	0.180600
H2221	H222	0.364000	0.228100	0.194100
C4011	C401	0.366300	0.349100	0.185000
H2231	H223	0.355900	0.378300	0.200300
C4021	C402	0.396100	0.262500	0.136300
H2241	H224	0.405300	0.233600	0.119700
C4031	C403	0.330600	0.258800	0.283600
H2251	H225	0.357400	0.237500	0.278900
C4041	C404	0.408000	0.307900	0.116000
C4051	C405	0.323300	0.298100	0.250900
O911	O91	0.550350	0.351200	0.947460
O921	O92	0.548800	0.268900	0.948600
C4061	C406	0.644700	0.303000	0.794000
C4071	C407	0.562000	0.310000	0.930600
C4081	C408	0.606400	0.350900	0.860000
H2261	H226	0.598000	0.381500	0.873600
C4091	C409	0.629100	0.259100	0.819400
H2271	H227	0.636000	0.228100	0.805900
C4101	C410	0.633700	0.349100	0.815000
H2281	H228	0.644100	0.378300	0.799700
C4111	C411	0.603900	0.262500	0.863700
H2291	H229	0.594700	0.233600	0.880300
C4121	C412	0.669400	0.258800	0.716400
H2301	H230	0.642600	0.237500	0.721100
C4131	C413	0.592000	0.307900	0.884000
C4141	C414	0.676700	0.298100	0.749100
O931	O93	0.449650	0.648800	0.947460
O941	O94	0.451200	0.731100	0.948600
C4151	C415	0.355300	0.697000	0.794000
C4161	C416	0.438000	0.690000	0.930600
C4171	C417	0.393600	0.649100	0.860000
H2311	H231	0.402000	0.618500	0.873600
C4181	C418	0.370900	0.740900	0.819400
H2321	H232	0.364000	0.771900	0.805900
C4191	C419	0.366300	0.650900	0.815000
H2331	H233	0.355900	0.621700	0.799700
C4201	C420	0.396100	0.737500	0.863700
H2341	H234	0.405300	0.766400	0.880300
C4211	C421	0.330600	0.741200	0.716400
H2351	H235	0.357400	0.762500	0.721100
C4221	C422	0.408000	0.692100	0.884000
C4231	C423	0.323300	0.701900	0.749100
O951	O95	0.550350	0.648800	0.052540
O961	O96	0.548800	0.731100	0.051400
C4241	C424	0.644700	0.697000	0.206000
C4251	C425	0.562000	0.690000	0.069400
C4261	C426	0.606400	0.649100	0.140000
H2361	H236	0.598000	0.618500	0.126400
C4271	C427	0.629100	0.740900	0.180600
H2371	H237	0.636000	0.771900	0.194100
C4281	C428	0.633700	0.650900	0.185000
H2381	H238	0.644100	0.621700	0.200300
C4291	C429	0.603900	0.737500	0.136300
H2391	H239	0.594700	0.766400	0.119700
C4301	C430	0.669400	0.741200	0.283600
H2401	H240	0.642600	0.762500	0.278900
C4311	C431	0.592000	0.692100	0.116000
C4321	C432	0.676700	0.701900	0.250900
Cu131	Cu13	0.000000	0.500000	0.644130
Cu141	Cu14	0.000000	0.500000	0.740700
Cu151	Cu15	0.000000	0.500000	0.355870
Cu161	Cu16	0.000000	0.500000	0.259300
Cu171	Cu17	0.644130	0.000000	0.500000
Cu181	Cu18	0.740700	0.000000	0.500000
Cu191	Cu19	0.355870	0.000000	0.500000
Cu201	Cu20	0.259300	0.000000	0.500000
Cu211	Cu21	0.500000	0.644130	0.000000
Cu221	Cu22	0.500000	0.740700	0.000000
Cu231	Cu23	0.500000	0.355870	0.000000
Cu241	Cu24	0.500000	0.259300	0.000000
