data_QOWRAV03_clean_PM
_symmetry_space_group_name_H-M	'P1'
_cell_length_a	26.990000
_cell_length_b	26.990000
_cell_length_c	26.990000
_cell_angle_alpha	90.000000
_cell_angle_beta	90.000000
_cell_angle_gamma	90.000000
_symmetry_Int_Tables_number 1

loop_
_symmetry_equiv_pos_as_xyz
'x,y,z'

loop_
_atom_site_label
_atom_site_type_symbol
_atom_site_fract_x
_atom_site_fract_y
_atom_site_fract_z
O11	O1	0.447670	0.050040	0.148880
O21	O2	0.448380	0.049420	0.231570
C11	C1	0.294780	0.145930	0.198010
C21	C2	0.430700	0.062290	0.190820
C31	C3	0.360220	0.107300	0.149430
H11	H1	0.373800	0.098900	0.118100
C41	C4	0.319650	0.130050	0.241400
H21	H2	0.305800	0.137200	0.273000
C51	C5	0.315780	0.134440	0.151980
H31	H3	0.300000	0.145000	0.122400
C61	C6	0.363970	0.104230	0.238360
H41	H4	0.380500	0.094400	0.267800
C71	C7	0.216770	0.170340	0.242040
H51	H5	0.221400	0.143100	0.263900
C81	C8	0.384320	0.092680	0.192480
C91	C9	0.249670	0.177390	0.202550
O31	O3	0.552330	0.949960	0.148880
O41	O4	0.551620	0.950580	0.231570
C101	C10	0.705220	0.854070	0.198010
C111	C11	0.569300	0.937710	0.190820
C121	C12	0.639780	0.892700	0.149430
H61	H6	0.626200	0.901100	0.118100
C131	C13	0.680350	0.869950	0.241400
H71	H7	0.694200	0.862800	0.273000
C141	C14	0.684220	0.865560	0.151980
H81	H8	0.700000	0.855000	0.122400
C151	C15	0.636030	0.895770	0.238360
H91	H9	0.619500	0.905600	0.267800
C161	C16	0.783230	0.829660	0.242040
H101	H10	0.778600	0.856900	0.263900
C171	C17	0.615680	0.907320	0.192480
C181	C18	0.750330	0.822610	0.202550
O51	O5	0.552330	0.050040	0.851120
O61	O6	0.551620	0.049420	0.768430
C191	C19	0.705220	0.145930	0.801990
C201	C20	0.569300	0.062290	0.809180
C211	C21	0.639780	0.107300	0.850570
H111	H11	0.626200	0.098900	0.881900
C221	C22	0.680350	0.130050	0.758600
H121	H12	0.694200	0.137200	0.727000
C231	C23	0.684220	0.134440	0.848020
H131	H13	0.700000	0.145000	0.877600
C241	C24	0.636030	0.104230	0.761640
H141	H14	0.619500	0.094400	0.732200
C251	C25	0.783230	0.170340	0.757960
H151	H15	0.778600	0.143100	0.736100
C261	C26	0.615680	0.092680	0.807520
C271	C27	0.750330	0.177390	0.797450
O71	O7	0.447670	0.949960	0.851120
O81	O8	0.448380	0.950580	0.768430
C281	C28	0.294780	0.854070	0.801990
C291	C29	0.430700	0.937710	0.809180
C301	C30	0.360220	0.892700	0.850570
H161	H16	0.373800	0.901100	0.881900
C311	C31	0.319650	0.869950	0.758600
H171	H17	0.305800	0.862800	0.727000
C321	C32	0.315780	0.865560	0.848020
H181	H18	0.300000	0.855000	0.877600
C331	C33	0.363970	0.895770	0.761640
H191	H19	0.380500	0.905600	0.732200
C341	C34	0.216770	0.829660	0.757960
H201	H20	0.221400	0.856900	0.736100
C351	C35	0.384320	0.907320	0.807520
C361	C36	0.249670	0.822610	0.797450
O91	O9	0.148880	0.447670	0.050040
O101	O10	0.231570	0.448380	0.049420
C371	C37	0.198010	0.294780	0.145930
C381	C38	0.190820	0.430700	0.062290
C391	C39	0.149430	0.360220	0.107300
H211	H21	0.118100	0.373800	0.098900
C401	C40	0.241400	0.319650	0.130050
H221	H22	0.273000	0.305800	0.137200
C411	C41	0.151980	0.315780	0.134440
H231	H23	0.122400	0.300000	0.145000
C421	C42	0.238360	0.363970	0.104230
H241	H24	0.267800	0.380500	0.094400
C431	C43	0.242040	0.216770	0.170340
H251	H25	0.263900	0.221400	0.143100
C441	C44	0.192480	0.384320	0.092680
C451	C45	0.202550	0.249670	0.177390
O111	O11	0.148880	0.552330	0.949960
O121	O12	0.231570	0.551620	0.950580
C461	C46	0.198010	0.705220	0.854070
C471	C47	0.190820	0.569300	0.937710
C481	C48	0.149430	0.639780	0.892700
H261	H26	0.118100	0.626200	0.901100
C491	C49	0.241400	0.680350	0.869950
H271	H27	0.273000	0.694200	0.862800
C501	C50	0.151980	0.684220	0.865560
H281	H28	0.122400	0.700000	0.855000
C511	C51	0.238360	0.636030	0.895770
H291	H29	0.267800	0.619500	0.905600
C521	C52	0.242040	0.783230	0.829660
H301	H30	0.263900	0.778600	0.856900
C531	C53	0.192480	0.615680	0.907320
C541	C54	0.202550	0.750330	0.822610
O131	O13	0.851120	0.552330	0.050040
O141	O14	0.768430	0.551620	0.049420
C551	C55	0.801990	0.705220	0.145930
C561	C56	0.809180	0.569300	0.062290
C571	C57	0.850570	0.639780	0.107300
H311	H31	0.881900	0.626200	0.098900
C581	C58	0.758600	0.680350	0.130050
H321	H32	0.727000	0.694200	0.137200
C591	C59	0.848020	0.684220	0.134440
H331	H33	0.877600	0.700000	0.145000
C601	C60	0.761640	0.636030	0.104230
H341	H34	0.732200	0.619500	0.094400
C611	C61	0.757960	0.783230	0.170340
H351	H35	0.736100	0.778600	0.143100
C621	C62	0.807520	0.615680	0.092680
C631	C63	0.797450	0.750330	0.177390
O151	O15	0.851120	0.447670	0.949960
O161	O16	0.768430	0.448380	0.950580
C641	C64	0.801990	0.294780	0.854070
C651	C65	0.809180	0.430700	0.937710
C661	C66	0.850570	0.360220	0.892700
H361	H36	0.881900	0.373800	0.901100
C671	C67	0.758600	0.319650	0.869950
H371	H37	0.727000	0.305800	0.862800
C681	C68	0.848020	0.315780	0.865560
H381	H38	0.877600	0.300000	0.855000
C691	C69	0.761640	0.363970	0.895770
H391	H39	0.732200	0.380500	0.905600
C701	C70	0.757960	0.216770	0.829660
H401	H40	0.736100	0.221400	0.856900
C711	C71	0.807520	0.384320	0.907320
C721	C72	0.797450	0.249670	0.822610
O171	O17	0.050040	0.148880	0.447670
O181	O18	0.049420	0.231570	0.448380
C731	C73	0.145930	0.198010	0.294780
C741	C74	0.062290	0.190820	0.430700
C751	C75	0.107300	0.149430	0.360220
H411	H41	0.098900	0.118100	0.373800
C761	C76	0.130050	0.241400	0.319650
H421	H42	0.137200	0.273000	0.305800
C771	C77	0.134440	0.151980	0.315780
H431	H43	0.145000	0.122400	0.300000
C781	C78	0.104230	0.238360	0.363970
H441	H44	0.094400	0.267800	0.380500
C791	C79	0.170340	0.242040	0.216770
H451	H45	0.143100	0.263900	0.221400
C801	C80	0.092680	0.192480	0.384320
C811	C81	0.177390	0.202550	0.249670
O191	O19	0.949960	0.148880	0.552330
O201	O20	0.950580	0.231570	0.551620
C821	C82	0.854070	0.198010	0.705220
C831	C83	0.937710	0.190820	0.569300
C841	C84	0.892700	0.149430	0.639780
H461	H46	0.901100	0.118100	0.626200
C851	C85	0.869950	0.241400	0.680350
H471	H47	0.862800	0.273000	0.694200
C861	C86	0.865560	0.151980	0.684220
H481	H48	0.855000	0.122400	0.700000
C871	C87	0.895770	0.238360	0.636030
H491	H49	0.905600	0.267800	0.619500
C881	C88	0.829660	0.242040	0.783230
H501	H50	0.856900	0.263900	0.778600
C891	C89	0.907320	0.192480	0.615680
C901	C90	0.822610	0.202550	0.750330
O211	O21	0.050040	0.851120	0.552330
O221	O22	0.049420	0.768430	0.551620
C911	C91	0.145930	0.801990	0.705220
C921	C92	0.062290	0.809180	0.569300
C931	C93	0.107300	0.850570	0.639780
H511	H51	0.098900	0.881900	0.626200
C941	C94	0.130050	0.758600	0.680350
H521	H52	0.137200	0.727000	0.694200
C951	C95	0.134440	0.848020	0.684220
H531	H53	0.145000	0.877600	0.700000
C961	C96	0.104230	0.761640	0.636030
H541	H54	0.094400	0.732200	0.619500
C971	C97	0.170340	0.757960	0.783230
H551	H55	0.143100	0.736100	0.778600
C981	C98	0.092680	0.807520	0.615680
C991	C99	0.177390	0.797450	0.750330
O231	O23	0.949960	0.851120	0.447670
O241	O24	0.950580	0.768430	0.448380
C1001	C100	0.854070	0.801990	0.294780
C1011	C101	0.937710	0.809180	0.430700
C1021	C102	0.892700	0.850570	0.360220
H561	H56	0.901100	0.881900	0.373800
C1031	C103	0.869950	0.758600	0.319650
H571	H57	0.862800	0.727000	0.305800
C1041	C104	0.865560	0.848020	0.315780
H581	H58	0.855000	0.877600	0.300000
C1051	C105	0.895770	0.761640	0.363970
H591	H59	0.905600	0.732200	0.380500
C1061	C106	0.829660	0.757960	0.216770
H601	H60	0.856900	0.736100	0.221400
C1071	C107	0.907320	0.807520	0.384320
C1081	C108	0.822610	0.797450	0.249670
O251	O25	0.552330	0.949960	0.851120
O261	O26	0.551620	0.950580	0.768430
C1091	C109	0.705220	0.854070	0.801990
C1101	C110	0.569300	0.937710	0.809180
C1111	C111	0.639780	0.892700	0.850570
H611	H61	0.626200	0.901100	0.881900
C1121	C112	0.680350	0.869950	0.758600
H621	H62	0.694200	0.862800	0.727000
C1131	C113	0.684220	0.865560	0.848020
H631	H63	0.700000	0.855000	0.877600
C1141	C114	0.636030	0.895770	0.761640
H641	H64	0.619500	0.905600	0.732200
C1151	C115	0.783230	0.829660	0.757960
H651	H65	0.778600	0.856900	0.736100
C1161	C116	0.615680	0.907320	0.807520
C1171	C117	0.750330	0.822610	0.797450
O271	O27	0.447670	0.050040	0.851120
O281	O28	0.448380	0.049420	0.768430
C1181	C118	0.294780	0.145930	0.801990
C1191	C119	0.430700	0.062290	0.809180
C1201	C120	0.360220	0.107300	0.850570
H661	H66	0.373800	0.098900	0.881900
C1211	C121	0.319650	0.130050	0.758600
H671	H67	0.305800	0.137200	0.727000
C1221	C122	0.315780	0.134440	0.848020
H681	H68	0.300000	0.145000	0.877600
C1231	C123	0.363970	0.104230	0.761640
H691	H69	0.380500	0.094400	0.732200
C1241	C124	0.216770	0.170340	0.757960
H701	H70	0.221400	0.143100	0.736100
C1251	C125	0.384320	0.092680	0.807520
C1261	C126	0.249670	0.177390	0.797450
O291	O29	0.447670	0.949960	0.148880
O301	O30	0.448380	0.950580	0.231570
C1271	C127	0.294780	0.854070	0.198010
C1281	C128	0.430700	0.937710	0.190820
C1291	C129	0.360220	0.892700	0.149430
H711	H71	0.373800	0.901100	0.118100
C1301	C130	0.319650	0.869950	0.241400
H721	H72	0.305800	0.862800	0.273000
C1311	C131	0.315780	0.865560	0.151980
H731	H73	0.300000	0.855000	0.122400
C1321	C132	0.363970	0.895770	0.238360
H741	H74	0.380500	0.905600	0.267800
C1331	C133	0.216770	0.829660	0.242040
H751	H75	0.221400	0.856900	0.263900
C1341	C134	0.384320	0.907320	0.192480
C1351	C135	0.249670	0.822610	0.202550
O311	O31	0.552330	0.050040	0.148880
O321	O32	0.551620	0.049420	0.231570
C1361	C136	0.705220	0.145930	0.198010
C1371	C137	0.569300	0.062290	0.190820
C1381	C138	0.639780	0.107300	0.149430
H761	H76	0.626200	0.098900	0.118100
C1391	C139	0.680350	0.130050	0.241400
H771	H77	0.694200	0.137200	0.273000
C1401	C140	0.684220	0.134440	0.151980
H781	H78	0.700000	0.145000	0.122400
C1411	C141	0.636030	0.104230	0.238360
H791	H79	0.619500	0.094400	0.267800
C1421	C142	0.783230	0.170340	0.242040
H801	H80	0.778600	0.143100	0.263900
C1431	C143	0.615680	0.092680	0.192480
C1441	C144	0.750330	0.177390	0.202550
O331	O33	0.851120	0.552330	0.949960
O341	O34	0.768430	0.551620	0.950580
C1451	C145	0.801990	0.705220	0.854070
C1461	C146	0.809180	0.569300	0.937710
C1471	C147	0.850570	0.639780	0.892700
H811	H81	0.881900	0.626200	0.901100
C1481	C148	0.758600	0.680350	0.869950
H821	H82	0.727000	0.694200	0.862800
C1491	C149	0.848020	0.684220	0.865560
H831	H83	0.877600	0.700000	0.855000
C1501	C150	0.761640	0.636030	0.895770
H841	H84	0.732200	0.619500	0.905600
C1511	C151	0.757960	0.783230	0.829660
H851	H85	0.736100	0.778600	0.856900
C1521	C152	0.807520	0.615680	0.907320
C1531	C153	0.797450	0.750330	0.822610
O351	O35	0.851120	0.447670	0.050040
O361	O36	0.768430	0.448380	0.049420
C1541	C154	0.801990	0.294780	0.145930
C1551	C155	0.809180	0.430700	0.062290
C1561	C156	0.850570	0.360220	0.107300
H861	H86	0.881900	0.373800	0.098900
C1571	C157	0.758600	0.319650	0.130050
H871	H87	0.727000	0.305800	0.137200
C1581	C158	0.848020	0.315780	0.134440
H881	H88	0.877600	0.300000	0.145000
C1591	C159	0.761640	0.363970	0.104230
H891	H89	0.732200	0.380500	0.094400
C1601	C160	0.757960	0.216770	0.170340
H901	H90	0.736100	0.221400	0.143100
C1611	C161	0.807520	0.384320	0.092680
C1621	C162	0.797450	0.249670	0.177390
O371	O37	0.148880	0.447670	0.949960
O381	O38	0.231570	0.448380	0.950580
C1631	C163	0.198010	0.294780	0.854070
C1641	C164	0.190820	0.430700	0.937710
C1651	C165	0.149430	0.360220	0.892700
H911	H91	0.118100	0.373800	0.901100
C1661	C166	0.241400	0.319650	0.869950
H921	H92	0.273000	0.305800	0.862800
C1671	C167	0.151980	0.315780	0.865560
H931	H93	0.122400	0.300000	0.855000
C1681	C168	0.238360	0.363970	0.895770
H941	H94	0.267800	0.380500	0.905600
C1691	C169	0.242040	0.216770	0.829660
H951	H95	0.263900	0.221400	0.856900
C1701	C170	0.192480	0.384320	0.907320
C1711	C171	0.202550	0.249670	0.822610
O391	O39	0.148880	0.552330	0.050040
O401	O40	0.231570	0.551620	0.049420
C1721	C172	0.198010	0.705220	0.145930
C1731	C173	0.190820	0.569300	0.062290
C1741	C174	0.149430	0.639780	0.107300
H961	H96	0.118100	0.626200	0.098900
C1751	C175	0.241400	0.680350	0.130050
H971	H97	0.273000	0.694200	0.137200
C1761	C176	0.151980	0.684220	0.134440
H981	H98	0.122400	0.700000	0.145000
C1771	C177	0.238360	0.636030	0.104230
H991	H99	0.267800	0.619500	0.094400
C1781	C178	0.242040	0.783230	0.170340
H1001	H100	0.263900	0.778600	0.143100
C1791	C179	0.192480	0.615680	0.092680
C1801	C180	0.202550	0.750330	0.177390
O411	O41	0.949960	0.851120	0.552330
O421	O42	0.950580	0.768430	0.551620
C1811	C181	0.854070	0.801990	0.705220
C1821	C182	0.937710	0.809180	0.569300
C1831	C183	0.892700	0.850570	0.639780
H1011	H101	0.901100	0.881900	0.626200
C1841	C184	0.869950	0.758600	0.680350
H1021	H102	0.862800	0.727000	0.694200
C1851	C185	0.865560	0.848020	0.684220
H1031	H103	0.855000	0.877600	0.700000
C1861	C186	0.895770	0.761640	0.636030
H1041	H104	0.905600	0.732200	0.619500
C1871	C187	0.829660	0.757960	0.783230
H1051	H105	0.856900	0.736100	0.778600
C1881	C188	0.907320	0.807520	0.615680
C1891	C189	0.822610	0.797450	0.750330
O431	O43	0.050040	0.851120	0.447670
O441	O44	0.049420	0.768430	0.448380
C1901	C190	0.145930	0.801990	0.294780
C1911	C191	0.062290	0.809180	0.430700
C1921	C192	0.107300	0.850570	0.360220
H1061	H106	0.098900	0.881900	0.373800
C1931	C193	0.130050	0.758600	0.319650
H1071	H107	0.137200	0.727000	0.305800
C1941	C194	0.134440	0.848020	0.315780
H1081	H108	0.145000	0.877600	0.300000
C1951	C195	0.104230	0.761640	0.363970
H1091	H109	0.094400	0.732200	0.380500
C1961	C196	0.170340	0.757960	0.216770
H1101	H110	0.143100	0.736100	0.221400
C1971	C197	0.092680	0.807520	0.384320
C1981	C198	0.177390	0.797450	0.249670
O451	O45	0.949960	0.148880	0.447670
O461	O46	0.950580	0.231570	0.448380
C1991	C199	0.854070	0.198010	0.294780
C2001	C200	0.937710	0.190820	0.430700
C2011	C201	0.892700	0.149430	0.360220
H1111	H111	0.901100	0.118100	0.373800
C2021	C202	0.869950	0.241400	0.319650
H1121	H112	0.862800	0.273000	0.305800
C2031	C203	0.865560	0.151980	0.315780
H1131	H113	0.855000	0.122400	0.300000
C2041	C204	0.895770	0.238360	0.363970
H1141	H114	0.905600	0.267800	0.380500
C2051	C205	0.829660	0.242040	0.216770
H1151	H115	0.856900	0.263900	0.221400
C2061	C206	0.907320	0.192480	0.384320
C2071	C207	0.822610	0.202550	0.249670
O471	O47	0.050040	0.148880	0.552330
O481	O48	0.049420	0.231570	0.551620
C2081	C208	0.145930	0.198010	0.705220
C2091	C209	0.062290	0.190820	0.569300
C2101	C210	0.107300	0.149430	0.639780
H1161	H116	0.098900	0.118100	0.626200
C2111	C211	0.130050	0.241400	0.680350
H1171	H117	0.137200	0.273000	0.694200
C2121	C212	0.134440	0.151980	0.684220
H1181	H118	0.145000	0.122400	0.700000
C2131	C213	0.104230	0.238360	0.636030
H1191	H119	0.094400	0.267800	0.619500
C2141	C214	0.170340	0.242040	0.783230
H1201	H120	0.143100	0.263900	0.778600
C2151	C215	0.092680	0.192480	0.615680
C2161	C216	0.177390	0.202550	0.750330
Cu11	Cu1	0.500000	0.000000	0.144380
Cu21	Cu2	0.500000	0.000000	0.240260
Cu31	Cu3	0.500000	0.000000	0.855620
Cu41	Cu4	0.500000	0.000000	0.759740
Cu51	Cu5	0.144380	0.500000	0.000000
Cu61	Cu6	0.240260	0.500000	0.000000
Cu71	Cu7	0.855620	0.500000	0.000000
Cu81	Cu8	0.759740	0.500000	0.000000
Cu91	Cu9	0.000000	0.144380	0.500000
Cu101	Cu10	0.000000	0.240260	0.500000
Cu111	Cu11	0.000000	0.855620	0.500000
Cu121	Cu12	0.000000	0.759740	0.500000
O491	O49	0.947670	0.550040	0.648880
O501	O50	0.948380	0.549420	0.731570
C2171	C217	0.794780	0.645930	0.698010
C2181	C218	0.930700	0.562290	0.690820
C2191	C219	0.860220	0.607300	0.649430
H1211	H121	0.873800	0.598900	0.618100
C2201	C220	0.819650	0.630050	0.741400
H1221	H122	0.805800	0.637200	0.773000
C2211	C221	0.815780	0.634440	0.651980
H1231	H123	0.800000	0.645000	0.622400
C2221	C222	0.863970	0.604230	0.738360
H1241	H124	0.880500	0.594400	0.767800
C2231	C223	0.716770	0.670340	0.742040
H1251	H125	0.721400	0.643100	0.763900
C2241	C224	0.884320	0.592680	0.692480
C2251	C225	0.749670	0.677390	0.702550
O511	O51	0.052330	0.449960	0.648880
O521	O52	0.051620	0.450580	0.731570
C2261	C226	0.205220	0.354070	0.698010
C2271	C227	0.069300	0.437710	0.690820
C2281	C228	0.139780	0.392700	0.649430
H1261	H126	0.126200	0.401100	0.618100
C2291	C229	0.180350	0.369950	0.741400
H1271	H127	0.194200	0.362800	0.773000
C2301	C230	0.184220	0.365560	0.651980
H1281	H128	0.200000	0.355000	0.622400
C2311	C231	0.136030	0.395770	0.738360
H1291	H129	0.119500	0.405600	0.767800
C2321	C232	0.283230	0.329660	0.742040
H1301	H130	0.278600	0.356900	0.763900
C2331	C233	0.115680	0.407320	0.692480
C2341	C234	0.250330	0.322610	0.702550
O531	O53	0.052330	0.550040	0.351120
O541	O54	0.051620	0.549420	0.268430
C2351	C235	0.205220	0.645930	0.301990
C2361	C236	0.069300	0.562290	0.309180
C2371	C237	0.139780	0.607300	0.350570
H1311	H131	0.126200	0.598900	0.381900
C2381	C238	0.180350	0.630050	0.258600
H1321	H132	0.194200	0.637200	0.227000
C2391	C239	0.184220	0.634440	0.348020
H1331	H133	0.200000	0.645000	0.377600
C2401	C240	0.136030	0.604230	0.261640
H1341	H134	0.119500	0.594400	0.232200
C2411	C241	0.283230	0.670340	0.257960
H1351	H135	0.278600	0.643100	0.236100
C2421	C242	0.115680	0.592680	0.307520
C2431	C243	0.250330	0.677390	0.297450
O551	O55	0.947670	0.449960	0.351120
O561	O56	0.948380	0.450580	0.268430
C2441	C244	0.794780	0.354070	0.301990
C2451	C245	0.930700	0.437710	0.309180
C2461	C246	0.860220	0.392700	0.350570
H1361	H136	0.873800	0.401100	0.381900
C2471	C247	0.819650	0.369950	0.258600
H1371	H137	0.805800	0.362800	0.227000
C2481	C248	0.815780	0.365560	0.348020
H1381	H138	0.800000	0.355000	0.377600
C2491	C249	0.863970	0.395770	0.261640
H1391	H139	0.880500	0.405600	0.232200
C2501	C250	0.716770	0.329660	0.257960
H1401	H140	0.721400	0.356900	0.236100
C2511	C251	0.884320	0.407320	0.307520
C2521	C252	0.749670	0.322610	0.297450
O571	O57	0.648880	0.947670	0.550040
O581	O58	0.731570	0.948380	0.549420
C2531	C253	0.698010	0.794780	0.645930
C2541	C254	0.690820	0.930700	0.562290
C2551	C255	0.649430	0.860220	0.607300
H1411	H141	0.618100	0.873800	0.598900
C2561	C256	0.741400	0.819650	0.630050
H1421	H142	0.773000	0.805800	0.637200
C2571	C257	0.651980	0.815780	0.634440
H1431	H143	0.622400	0.800000	0.645000
C2581	C258	0.738360	0.863970	0.604230
H1441	H144	0.767800	0.880500	0.594400
C2591	C259	0.742040	0.716770	0.670340
H1451	H145	0.763900	0.721400	0.643100
C2601	C260	0.692480	0.884320	0.592680
C2611	C261	0.702550	0.749670	0.677390
O591	O59	0.648880	0.052330	0.449960
O601	O60	0.731570	0.051620	0.450580
C2621	C262	0.698010	0.205220	0.354070
C2631	C263	0.690820	0.069300	0.437710
C2641	C264	0.649430	0.139780	0.392700
H1461	H146	0.618100	0.126200	0.401100
C2651	C265	0.741400	0.180350	0.369950
H1471	H147	0.773000	0.194200	0.362800
C2661	C266	0.651980	0.184220	0.365560
H1481	H148	0.622400	0.200000	0.355000
C2671	C267	0.738360	0.136030	0.395770
H1491	H149	0.767800	0.119500	0.405600
C2681	C268	0.742040	0.283230	0.329660
H1501	H150	0.763900	0.278600	0.356900
C2691	C269	0.692480	0.115680	0.407320
C2701	C270	0.702550	0.250330	0.322610
O611	O61	0.351120	0.052330	0.550040
O621	O62	0.268430	0.051620	0.549420
C2711	C271	0.301990	0.205220	0.645930
C2721	C272	0.309180	0.069300	0.562290
C2731	C273	0.350570	0.139780	0.607300
H1511	H151	0.381900	0.126200	0.598900
C2741	C274	0.258600	0.180350	0.630050
H1521	H152	0.227000	0.194200	0.637200
C2751	C275	0.348020	0.184220	0.634440
H1531	H153	0.377600	0.200000	0.645000
C2761	C276	0.261640	0.136030	0.604230
H1541	H154	0.232200	0.119500	0.594400
C2771	C277	0.257960	0.283230	0.670340
H1551	H155	0.236100	0.278600	0.643100
C2781	C278	0.307520	0.115680	0.592680
C2791	C279	0.297450	0.250330	0.677390
O631	O63	0.351120	0.947670	0.449960
O641	O64	0.268430	0.948380	0.450580
C2801	C280	0.301990	0.794780	0.354070
C2811	C281	0.309180	0.930700	0.437710
C2821	C282	0.350570	0.860220	0.392700
H1561	H156	0.381900	0.873800	0.401100
C2831	C283	0.258600	0.819650	0.369950
H1571	H157	0.227000	0.805800	0.362800
C2841	C284	0.348020	0.815780	0.365560
H1581	H158	0.377600	0.800000	0.355000
C2851	C285	0.261640	0.863970	0.395770
H1591	H159	0.232200	0.880500	0.405600
C2861	C286	0.257960	0.716770	0.329660
H1601	H160	0.236100	0.721400	0.356900
C2871	C287	0.307520	0.884320	0.407320
C2881	C288	0.297450	0.749670	0.322610
O651	O65	0.550040	0.648880	0.947670
O661	O66	0.549420	0.731570	0.948380
C2891	C289	0.645930	0.698010	0.794780
C2901	C290	0.562290	0.690820	0.930700
C2911	C291	0.607300	0.649430	0.860220
H1611	H161	0.598900	0.618100	0.873800
C2921	C292	0.630050	0.741400	0.819650
H1621	H162	0.637200	0.773000	0.805800
C2931	C293	0.634440	0.651980	0.815780
H1631	H163	0.645000	0.622400	0.800000
C2941	C294	0.604230	0.738360	0.863970
H1641	H164	0.594400	0.767800	0.880500
C2951	C295	0.670340	0.742040	0.716770
H1651	H165	0.643100	0.763900	0.721400
C2961	C296	0.592680	0.692480	0.884320
C2971	C297	0.677390	0.702550	0.749670
O671	O67	0.449960	0.648880	0.052330
O681	O68	0.450580	0.731570	0.051620
C2981	C298	0.354070	0.698010	0.205220
C2991	C299	0.437710	0.690820	0.069300
C3001	C300	0.392700	0.649430	0.139780
H1661	H166	0.401100	0.618100	0.126200
C3011	C301	0.369950	0.741400	0.180350
H1671	H167	0.362800	0.773000	0.194200
C3021	C302	0.365560	0.651980	0.184220
H1681	H168	0.355000	0.622400	0.200000
C3031	C303	0.395770	0.738360	0.136030
H1691	H169	0.405600	0.767800	0.119500
C3041	C304	0.329660	0.742040	0.283230
H1701	H170	0.356900	0.763900	0.278600
C3051	C305	0.407320	0.692480	0.115680
C3061	C306	0.322610	0.702550	0.250330
O691	O69	0.550040	0.351120	0.052330
O701	O70	0.549420	0.268430	0.051620
C3071	C307	0.645930	0.301990	0.205220
C3081	C308	0.562290	0.309180	0.069300
C3091	C309	0.607300	0.350570	0.139780
H1711	H171	0.598900	0.381900	0.126200
C3101	C310	0.630050	0.258600	0.180350
H1721	H172	0.637200	0.227000	0.194200
C3111	C311	0.634440	0.348020	0.184220
H1731	H173	0.645000	0.377600	0.200000
C3121	C312	0.604230	0.261640	0.136030
H1741	H174	0.594400	0.232200	0.119500
C3131	C313	0.670340	0.257960	0.283230
H1751	H175	0.643100	0.236100	0.278600
C3141	C314	0.592680	0.307520	0.115680
C3151	C315	0.677390	0.297450	0.250330
O711	O71	0.449960	0.351120	0.947670
O721	O72	0.450580	0.268430	0.948380
C3161	C316	0.354070	0.301990	0.794780
C3171	C317	0.437710	0.309180	0.930700
C3181	C318	0.392700	0.350570	0.860220
H1761	H176	0.401100	0.381900	0.873800
C3191	C319	0.369950	0.258600	0.819650
H1771	H177	0.362800	0.227000	0.805800
C3201	C320	0.365560	0.348020	0.815780
H1781	H178	0.355000	0.377600	0.800000
C3211	C321	0.395770	0.261640	0.863970
H1791	H179	0.405600	0.232200	0.880500
C3221	C322	0.329660	0.257960	0.716770
H1801	H180	0.356900	0.236100	0.721400
C3231	C323	0.407320	0.307520	0.884320
C3241	C324	0.322610	0.297450	0.749670
O731	O73	0.052330	0.449960	0.351120
O741	O74	0.051620	0.450580	0.268430
C3251	C325	0.205220	0.354070	0.301990
C3261	C326	0.069300	0.437710	0.309180
C3271	C327	0.139780	0.392700	0.350570
H1811	H181	0.126200	0.401100	0.381900
C3281	C328	0.180350	0.369950	0.258600
H1821	H182	0.194200	0.362800	0.227000
C3291	C329	0.184220	0.365560	0.348020
H1831	H183	0.200000	0.355000	0.377600
C3301	C330	0.136030	0.395770	0.261640
H1841	H184	0.119500	0.405600	0.232200
C3311	C331	0.283230	0.329660	0.257960
H1851	H185	0.278600	0.356900	0.236100
C3321	C332	0.115680	0.407320	0.307520
C3331	C333	0.250330	0.322610	0.297450
O751	O75	0.947670	0.550040	0.351120
O761	O76	0.948380	0.549420	0.268430
C3341	C334	0.794780	0.645930	0.301990
C3351	C335	0.930700	0.562290	0.309180
C3361	C336	0.860220	0.607300	0.350570
H1861	H186	0.873800	0.598900	0.381900
C3371	C337	0.819650	0.630050	0.258600
H1871	H187	0.805800	0.637200	0.227000
C3381	C338	0.815780	0.634440	0.348020
H1881	H188	0.800000	0.645000	0.377600
C3391	C339	0.863970	0.604230	0.261640
H1891	H189	0.880500	0.594400	0.232200
C3401	C340	0.716770	0.670340	0.257960
H1901	H190	0.721400	0.643100	0.236100
C3411	C341	0.884320	0.592680	0.307520
C3421	C342	0.749670	0.677390	0.297450
O771	O77	0.947670	0.449960	0.648880
O781	O78	0.948380	0.450580	0.731570
C3431	C343	0.794780	0.354070	0.698010
C3441	C344	0.930700	0.437710	0.690820
C3451	C345	0.860220	0.392700	0.649430
H1911	H191	0.873800	0.401100	0.618100
C3461	C346	0.819650	0.369950	0.741400
H1921	H192	0.805800	0.362800	0.773000
C3471	C347	0.815780	0.365560	0.651980
H1931	H193	0.800000	0.355000	0.622400
C3481	C348	0.863970	0.395770	0.738360
H1941	H194	0.880500	0.405600	0.767800
C3491	C349	0.716770	0.329660	0.742040
H1951	H195	0.721400	0.356900	0.763900
C3501	C350	0.884320	0.407320	0.692480
C3511	C351	0.749670	0.322610	0.702550
O791	O79	0.052330	0.550040	0.648880
O801	O80	0.051620	0.549420	0.731570
C3521	C352	0.205220	0.645930	0.698010
C3531	C353	0.069300	0.562290	0.690820
C3541	C354	0.139780	0.607300	0.649430
H1961	H196	0.126200	0.598900	0.618100
C3551	C355	0.180350	0.630050	0.741400
H1971	H197	0.194200	0.637200	0.773000
C3561	C356	0.184220	0.634440	0.651980
H1981	H198	0.200000	0.645000	0.622400
C3571	C357	0.136030	0.604230	0.738360
H1991	H199	0.119500	0.594400	0.767800
C3581	C358	0.283230	0.670340	0.742040
H2001	H200	0.278600	0.643100	0.763900
C3591	C359	0.115680	0.592680	0.692480
C3601	C360	0.250330	0.677390	0.702550
O811	O81	0.351120	0.052330	0.449960
O821	O82	0.268430	0.051620	0.450580
C3611	C361	0.301990	0.205220	0.354070
C3621	C362	0.309180	0.069300	0.437710
C3631	C363	0.350570	0.139780	0.392700
H2011	H201	0.381900	0.126200	0.401100
C3641	C364	0.258600	0.180350	0.369950
H2021	H202	0.227000	0.194200	0.362800
C3651	C365	0.348020	0.184220	0.365560
H2031	H203	0.377600	0.200000	0.355000
C3661	C366	0.261640	0.136030	0.395770
H2041	H204	0.232200	0.119500	0.405600
C3671	C367	0.257960	0.283230	0.329660
H2051	H205	0.236100	0.278600	0.356900
C3681	C368	0.307520	0.115680	0.407320
C3691	C369	0.297450	0.250330	0.322610
O831	O83	0.351120	0.947670	0.550040
O841	O84	0.268430	0.948380	0.549420
C3701	C370	0.301990	0.794780	0.645930
C3711	C371	0.309180	0.930700	0.562290
C3721	C372	0.350570	0.860220	0.607300
H2061	H206	0.381900	0.873800	0.598900
C3731	C373	0.258600	0.819650	0.630050
H2071	H207	0.227000	0.805800	0.637200
C3741	C374	0.348020	0.815780	0.634440
H2081	H208	0.377600	0.800000	0.645000
C3751	C375	0.261640	0.863970	0.604230
H2091	H209	0.232200	0.880500	0.594400
C3761	C376	0.257960	0.716770	0.670340
H2101	H210	0.236100	0.721400	0.643100
C3771	C377	0.307520	0.884320	0.592680
C3781	C378	0.297450	0.749670	0.677390
O851	O85	0.648880	0.947670	0.449960
O861	O86	0.731570	0.948380	0.450580
C3791	C379	0.698010	0.794780	0.354070
C3801	C380	0.690820	0.930700	0.437710
C3811	C381	0.649430	0.860220	0.392700
H2111	H211	0.618100	0.873800	0.401100
C3821	C382	0.741400	0.819650	0.369950
H2121	H212	0.773000	0.805800	0.362800
C3831	C383	0.651980	0.815780	0.365560
H2131	H213	0.622400	0.800000	0.355000
C3841	C384	0.738360	0.863970	0.395770
H2141	H214	0.767800	0.880500	0.405600
C3851	C385	0.742040	0.716770	0.329660
H2151	H215	0.763900	0.721400	0.356900
C3861	C386	0.692480	0.884320	0.407320
C3871	C387	0.702550	0.749670	0.322610
O871	O87	0.648880	0.052330	0.550040
O881	O88	0.731570	0.051620	0.549420
C3881	C388	0.698010	0.205220	0.645930
C3891	C389	0.690820	0.069300	0.562290
C3901	C390	0.649430	0.139780	0.607300
H2161	H216	0.618100	0.126200	0.598900
C3911	C391	0.741400	0.180350	0.630050
H2171	H217	0.773000	0.194200	0.637200
C3921	C392	0.651980	0.184220	0.634440
H2181	H218	0.622400	0.200000	0.645000
C3931	C393	0.738360	0.136030	0.604230
H2191	H219	0.767800	0.119500	0.594400
C3941	C394	0.742040	0.283230	0.670340
H2201	H220	0.763900	0.278600	0.643100
C3951	C395	0.692480	0.115680	0.592680
C3961	C396	0.702550	0.250330	0.677390
O891	O89	0.449960	0.351120	0.052330
O901	O90	0.450580	0.268430	0.051620
C3971	C397	0.354070	0.301990	0.205220
C3981	C398	0.437710	0.309180	0.069300
C3991	C399	0.392700	0.350570	0.139780
H2211	H221	0.401100	0.381900	0.126200
C4001	C400	0.369950	0.258600	0.180350
H2221	H222	0.362800	0.227000	0.194200
C4011	C401	0.365560	0.348020	0.184220
H2231	H223	0.355000	0.377600	0.200000
C4021	C402	0.395770	0.261640	0.136030
H2241	H224	0.405600	0.232200	0.119500
C4031	C403	0.329660	0.257960	0.283230
H2251	H225	0.356900	0.236100	0.278600
C4041	C404	0.407320	0.307520	0.115680
C4051	C405	0.322610	0.297450	0.250330
O911	O91	0.550040	0.351120	0.947670
O921	O92	0.549420	0.268430	0.948380
C4061	C406	0.645930	0.301990	0.794780
C4071	C407	0.562290	0.309180	0.930700
C4081	C408	0.607300	0.350570	0.860220
H2261	H226	0.598900	0.381900	0.873800
C4091	C409	0.630050	0.258600	0.819650
H2271	H227	0.637200	0.227000	0.805800
C4101	C410	0.634440	0.348020	0.815780
H2281	H228	0.645000	0.377600	0.800000
C4111	C411	0.604230	0.261640	0.863970
H2291	H229	0.594400	0.232200	0.880500
C4121	C412	0.670340	0.257960	0.716770
H2301	H230	0.643100	0.236100	0.721400
C4131	C413	0.592680	0.307520	0.884320
C4141	C414	0.677390	0.297450	0.749670
O931	O93	0.449960	0.648880	0.947670
O941	O94	0.450580	0.731570	0.948380
C4151	C415	0.354070	0.698010	0.794780
C4161	C416	0.437710	0.690820	0.930700
C4171	C417	0.392700	0.649430	0.860220
H2311	H231	0.401100	0.618100	0.873800
C4181	C418	0.369950	0.741400	0.819650
H2321	H232	0.362800	0.773000	0.805800
C4191	C419	0.365560	0.651980	0.815780
H2331	H233	0.355000	0.622400	0.800000
C4201	C420	0.395770	0.738360	0.863970
H2341	H234	0.405600	0.767800	0.880500
C4211	C421	0.329660	0.742040	0.716770
H2351	H235	0.356900	0.763900	0.721400
C4221	C422	0.407320	0.692480	0.884320
C4231	C423	0.322610	0.702550	0.749670
O951	O95	0.550040	0.648880	0.052330
O961	O96	0.549420	0.731570	0.051620
C4241	C424	0.645930	0.698010	0.205220
C4251	C425	0.562290	0.690820	0.069300
C4261	C426	0.607300	0.649430	0.139780
H2361	H236	0.598900	0.618100	0.126200
C4271	C427	0.630050	0.741400	0.180350
H2371	H237	0.637200	0.773000	0.194200
C4281	C428	0.634440	0.651980	0.184220
H2381	H238	0.645000	0.622400	0.200000
C4291	C429	0.604230	0.738360	0.136030
H2391	H239	0.594400	0.767800	0.119500
C4301	C430	0.670340	0.742040	0.283230
H2401	H240	0.643100	0.763900	0.278600
C4311	C431	0.592680	0.692480	0.115680
C4321	C432	0.677390	0.702550	0.250330
Cu131	Cu13	0.000000	0.500000	0.644380
Cu141	Cu14	0.000000	0.500000	0.740260
Cu151	Cu15	0.000000	0.500000	0.355620
Cu161	Cu16	0.000000	0.500000	0.259740
Cu171	Cu17	0.644380	0.000000	0.500000
Cu181	Cu18	0.740260	0.000000	0.500000
Cu191	Cu19	0.355620	0.000000	0.500000
Cu201	Cu20	0.259740	0.000000	0.500000
Cu211	Cu21	0.500000	0.644380	0.000000
Cu221	Cu22	0.500000	0.740260	0.000000
Cu231	Cu23	0.500000	0.355620	0.000000
Cu241	Cu24	0.500000	0.259740	0.000000
