data_QOWRAV11_clean_PM
_symmetry_space_group_name_H-M	'P1'
_cell_length_a	26.943000
_cell_length_b	26.943000
_cell_length_c	26.943000
_cell_angle_alpha	90.000000
_cell_angle_beta	90.000000
_cell_angle_gamma	90.000000
_symmetry_Int_Tables_number 1

loop_
_symmetry_equiv_pos_as_xyz
'x,y,z'

loop_
_atom_site_label
_atom_site_type_symbol
_atom_site_fract_x
_atom_site_fract_y
_atom_site_fract_z
O11	O1	0.447500	0.050410	0.148840
O21	O2	0.448500	0.048900	0.231100
C11	C1	0.294100	0.145100	0.197200
C21	C2	0.430600	0.062000	0.190200
C31	C3	0.359800	0.106500	0.149100
H11	H1	0.373200	0.098100	0.118400
C41	C4	0.319500	0.129400	0.241300
H21	H2	0.306100	0.136400	0.272300
C51	C5	0.314900	0.133700	0.151200
H31	H3	0.299400	0.144000	0.122100
C61	C6	0.363800	0.104000	0.237700
H41	H4	0.380300	0.094500	0.266500
C71	C7	0.216400	0.169500	0.241400
H51	H5	0.220700	0.142500	0.262500
C81	C8	0.384100	0.092200	0.192300
C91	C9	0.249400	0.176800	0.202300
O31	O3	0.552500	0.949590	0.148840
O41	O4	0.551500	0.951100	0.231100
C101	C10	0.705900	0.854900	0.197200
C111	C11	0.569400	0.938000	0.190200
C121	C12	0.640200	0.893500	0.149100
H61	H6	0.626800	0.901900	0.118400
C131	C13	0.680500	0.870600	0.241300
H71	H7	0.693900	0.863600	0.272300
C141	C14	0.685100	0.866300	0.151200
H81	H8	0.700600	0.856000	0.122100
C151	C15	0.636200	0.896000	0.237700
H91	H9	0.619700	0.905500	0.266500
C161	C16	0.783600	0.830500	0.241400
H101	H10	0.779300	0.857500	0.262500
C171	C17	0.615900	0.907800	0.192300
C181	C18	0.750600	0.823200	0.202300
O51	O5	0.552500	0.050410	0.851160
O61	O6	0.551500	0.048900	0.768900
C191	C19	0.705900	0.145100	0.802800
C201	C20	0.569400	0.062000	0.809800
C211	C21	0.640200	0.106500	0.850900
H111	H11	0.626800	0.098100	0.881600
C221	C22	0.680500	0.129400	0.758700
H121	H12	0.693900	0.136400	0.727700
C231	C23	0.685100	0.133700	0.848800
H131	H13	0.700600	0.144000	0.877900
C241	C24	0.636200	0.104000	0.762300
H141	H14	0.619700	0.094500	0.733500
C251	C25	0.783600	0.169500	0.758600
H151	H15	0.779300	0.142500	0.737500
C261	C26	0.615900	0.092200	0.807700
C271	C27	0.750600	0.176800	0.797700
O71	O7	0.447500	0.949590	0.851160
O81	O8	0.448500	0.951100	0.768900
C281	C28	0.294100	0.854900	0.802800
C291	C29	0.430600	0.938000	0.809800
C301	C30	0.359800	0.893500	0.850900
H161	H16	0.373200	0.901900	0.881600
C311	C31	0.319500	0.870600	0.758700
H171	H17	0.306100	0.863600	0.727700
C321	C32	0.314900	0.866300	0.848800
H181	H18	0.299400	0.856000	0.877900
C331	C33	0.363800	0.896000	0.762300
H191	H19	0.380300	0.905500	0.733500
C341	C34	0.216400	0.830500	0.758600
H201	H20	0.220700	0.857500	0.737500
C351	C35	0.384100	0.907800	0.807700
C361	C36	0.249400	0.823200	0.797700
O91	O9	0.148840	0.447500	0.050410
O101	O10	0.231100	0.448500	0.048900
C371	C37	0.197200	0.294100	0.145100
C381	C38	0.190200	0.430600	0.062000
C391	C39	0.149100	0.359800	0.106500
H211	H21	0.118400	0.373200	0.098100
C401	C40	0.241300	0.319500	0.129400
H221	H22	0.272300	0.306100	0.136400
C411	C41	0.151200	0.314900	0.133700
H231	H23	0.122100	0.299400	0.144000
C421	C42	0.237700	0.363800	0.104000
H241	H24	0.266500	0.380300	0.094500
C431	C43	0.241400	0.216400	0.169500
H251	H25	0.262500	0.220700	0.142500
C441	C44	0.192300	0.384100	0.092200
C451	C45	0.202300	0.249400	0.176800
O111	O11	0.148840	0.552500	0.949590
O121	O12	0.231100	0.551500	0.951100
C461	C46	0.197200	0.705900	0.854900
C471	C47	0.190200	0.569400	0.938000
C481	C48	0.149100	0.640200	0.893500
H261	H26	0.118400	0.626800	0.901900
C491	C49	0.241300	0.680500	0.870600
H271	H27	0.272300	0.693900	0.863600
C501	C50	0.151200	0.685100	0.866300
H281	H28	0.122100	0.700600	0.856000
C511	C51	0.237700	0.636200	0.896000
H291	H29	0.266500	0.619700	0.905500
C521	C52	0.241400	0.783600	0.830500
H301	H30	0.262500	0.779300	0.857500
C531	C53	0.192300	0.615900	0.907800
C541	C54	0.202300	0.750600	0.823200
O131	O13	0.851160	0.552500	0.050410
O141	O14	0.768900	0.551500	0.048900
C551	C55	0.802800	0.705900	0.145100
C561	C56	0.809800	0.569400	0.062000
C571	C57	0.850900	0.640200	0.106500
H311	H31	0.881600	0.626800	0.098100
C581	C58	0.758700	0.680500	0.129400
H321	H32	0.727700	0.693900	0.136400
C591	C59	0.848800	0.685100	0.133700
H331	H33	0.877900	0.700600	0.144000
C601	C60	0.762300	0.636200	0.104000
H341	H34	0.733500	0.619700	0.094500
C611	C61	0.758600	0.783600	0.169500
H351	H35	0.737500	0.779300	0.142500
C621	C62	0.807700	0.615900	0.092200
C631	C63	0.797700	0.750600	0.176800
O151	O15	0.851160	0.447500	0.949590
O161	O16	0.768900	0.448500	0.951100
C641	C64	0.802800	0.294100	0.854900
C651	C65	0.809800	0.430600	0.938000
C661	C66	0.850900	0.359800	0.893500
H361	H36	0.881600	0.373200	0.901900
C671	C67	0.758700	0.319500	0.870600
H371	H37	0.727700	0.306100	0.863600
C681	C68	0.848800	0.314900	0.866300
H381	H38	0.877900	0.299400	0.856000
C691	C69	0.762300	0.363800	0.896000
H391	H39	0.733500	0.380300	0.905500
C701	C70	0.758600	0.216400	0.830500
H401	H40	0.737500	0.220700	0.857500
C711	C71	0.807700	0.384100	0.907800
C721	C72	0.797700	0.249400	0.823200
O171	O17	0.050410	0.148840	0.447500
O181	O18	0.048900	0.231100	0.448500
C731	C73	0.145100	0.197200	0.294100
C741	C74	0.062000	0.190200	0.430600
C751	C75	0.106500	0.149100	0.359800
H411	H41	0.098100	0.118400	0.373200
C761	C76	0.129400	0.241300	0.319500
H421	H42	0.136400	0.272300	0.306100
C771	C77	0.133700	0.151200	0.314900
H431	H43	0.144000	0.122100	0.299400
C781	C78	0.104000	0.237700	0.363800
H441	H44	0.094500	0.266500	0.380300
C791	C79	0.169500	0.241400	0.216400
H451	H45	0.142500	0.262500	0.220700
C801	C80	0.092200	0.192300	0.384100
C811	C81	0.176800	0.202300	0.249400
O191	O19	0.949590	0.148840	0.552500
O201	O20	0.951100	0.231100	0.551500
C821	C82	0.854900	0.197200	0.705900
C831	C83	0.938000	0.190200	0.569400
C841	C84	0.893500	0.149100	0.640200
H461	H46	0.901900	0.118400	0.626800
C851	C85	0.870600	0.241300	0.680500
H471	H47	0.863600	0.272300	0.693900
C861	C86	0.866300	0.151200	0.685100
H481	H48	0.856000	0.122100	0.700600
C871	C87	0.896000	0.237700	0.636200
H491	H49	0.905500	0.266500	0.619700
C881	C88	0.830500	0.241400	0.783600
H501	H50	0.857500	0.262500	0.779300
C891	C89	0.907800	0.192300	0.615900
C901	C90	0.823200	0.202300	0.750600
O211	O21	0.050410	0.851160	0.552500
O221	O22	0.048900	0.768900	0.551500
C911	C91	0.145100	0.802800	0.705900
C921	C92	0.062000	0.809800	0.569400
C931	C93	0.106500	0.850900	0.640200
H511	H51	0.098100	0.881600	0.626800
C941	C94	0.129400	0.758700	0.680500
H521	H52	0.136400	0.727700	0.693900
C951	C95	0.133700	0.848800	0.685100
H531	H53	0.144000	0.877900	0.700600
C961	C96	0.104000	0.762300	0.636200
H541	H54	0.094500	0.733500	0.619700
C971	C97	0.169500	0.758600	0.783600
H551	H55	0.142500	0.737500	0.779300
C981	C98	0.092200	0.807700	0.615900
C991	C99	0.176800	0.797700	0.750600
O231	O23	0.949590	0.851160	0.447500
O241	O24	0.951100	0.768900	0.448500
C1001	C100	0.854900	0.802800	0.294100
C1011	C101	0.938000	0.809800	0.430600
C1021	C102	0.893500	0.850900	0.359800
H561	H56	0.901900	0.881600	0.373200
C1031	C103	0.870600	0.758700	0.319500
H571	H57	0.863600	0.727700	0.306100
C1041	C104	0.866300	0.848800	0.314900
H581	H58	0.856000	0.877900	0.299400
C1051	C105	0.896000	0.762300	0.363800
H591	H59	0.905500	0.733500	0.380300
C1061	C106	0.830500	0.758600	0.216400
H601	H60	0.857500	0.737500	0.220700
C1071	C107	0.907800	0.807700	0.384100
C1081	C108	0.823200	0.797700	0.249400
O251	O25	0.552500	0.949590	0.851160
O261	O26	0.551500	0.951100	0.768900
C1091	C109	0.705900	0.854900	0.802800
C1101	C110	0.569400	0.938000	0.809800
C1111	C111	0.640200	0.893500	0.850900
H611	H61	0.626800	0.901900	0.881600
C1121	C112	0.680500	0.870600	0.758700
H621	H62	0.693900	0.863600	0.727700
C1131	C113	0.685100	0.866300	0.848800
H631	H63	0.700600	0.856000	0.877900
C1141	C114	0.636200	0.896000	0.762300
H641	H64	0.619700	0.905500	0.733500
C1151	C115	0.783600	0.830500	0.758600
H651	H65	0.779300	0.857500	0.737500
C1161	C116	0.615900	0.907800	0.807700
C1171	C117	0.750600	0.823200	0.797700
O271	O27	0.447500	0.050410	0.851160
O281	O28	0.448500	0.048900	0.768900
C1181	C118	0.294100	0.145100	0.802800
C1191	C119	0.430600	0.062000	0.809800
C1201	C120	0.359800	0.106500	0.850900
H661	H66	0.373200	0.098100	0.881600
C1211	C121	0.319500	0.129400	0.758700
H671	H67	0.306100	0.136400	0.727700
C1221	C122	0.314900	0.133700	0.848800
H681	H68	0.299400	0.144000	0.877900
C1231	C123	0.363800	0.104000	0.762300
H691	H69	0.380300	0.094500	0.733500
C1241	C124	0.216400	0.169500	0.758600
H701	H70	0.220700	0.142500	0.737500
C1251	C125	0.384100	0.092200	0.807700
C1261	C126	0.249400	0.176800	0.797700
O291	O29	0.447500	0.949590	0.148840
O301	O30	0.448500	0.951100	0.231100
C1271	C127	0.294100	0.854900	0.197200
C1281	C128	0.430600	0.938000	0.190200
C1291	C129	0.359800	0.893500	0.149100
H711	H71	0.373200	0.901900	0.118400
C1301	C130	0.319500	0.870600	0.241300
H721	H72	0.306100	0.863600	0.272300
C1311	C131	0.314900	0.866300	0.151200
H731	H73	0.299400	0.856000	0.122100
C1321	C132	0.363800	0.896000	0.237700
H741	H74	0.380300	0.905500	0.266500
C1331	C133	0.216400	0.830500	0.241400
H751	H75	0.220700	0.857500	0.262500
C1341	C134	0.384100	0.907800	0.192300
C1351	C135	0.249400	0.823200	0.202300
O311	O31	0.552500	0.050410	0.148840
O321	O32	0.551500	0.048900	0.231100
C1361	C136	0.705900	0.145100	0.197200
C1371	C137	0.569400	0.062000	0.190200
C1381	C138	0.640200	0.106500	0.149100
H761	H76	0.626800	0.098100	0.118400
C1391	C139	0.680500	0.129400	0.241300
H771	H77	0.693900	0.136400	0.272300
C1401	C140	0.685100	0.133700	0.151200
H781	H78	0.700600	0.144000	0.122100
C1411	C141	0.636200	0.104000	0.237700
H791	H79	0.619700	0.094500	0.266500
C1421	C142	0.783600	0.169500	0.241400
H801	H80	0.779300	0.142500	0.262500
C1431	C143	0.615900	0.092200	0.192300
C1441	C144	0.750600	0.176800	0.202300
O331	O33	0.851160	0.552500	0.949590
O341	O34	0.768900	0.551500	0.951100
C1451	C145	0.802800	0.705900	0.854900
C1461	C146	0.809800	0.569400	0.938000
C1471	C147	0.850900	0.640200	0.893500
H811	H81	0.881600	0.626800	0.901900
C1481	C148	0.758700	0.680500	0.870600
H821	H82	0.727700	0.693900	0.863600
C1491	C149	0.848800	0.685100	0.866300
H831	H83	0.877900	0.700600	0.856000
C1501	C150	0.762300	0.636200	0.896000
H841	H84	0.733500	0.619700	0.905500
C1511	C151	0.758600	0.783600	0.830500
H851	H85	0.737500	0.779300	0.857500
C1521	C152	0.807700	0.615900	0.907800
C1531	C153	0.797700	0.750600	0.823200
O351	O35	0.851160	0.447500	0.050410
O361	O36	0.768900	0.448500	0.048900
C1541	C154	0.802800	0.294100	0.145100
C1551	C155	0.809800	0.430600	0.062000
C1561	C156	0.850900	0.359800	0.106500
H861	H86	0.881600	0.373200	0.098100
C1571	C157	0.758700	0.319500	0.129400
H871	H87	0.727700	0.306100	0.136400
C1581	C158	0.848800	0.314900	0.133700
H881	H88	0.877900	0.299400	0.144000
C1591	C159	0.762300	0.363800	0.104000
H891	H89	0.733500	0.380300	0.094500
C1601	C160	0.758600	0.216400	0.169500
H901	H90	0.737500	0.220700	0.142500
C1611	C161	0.807700	0.384100	0.092200
C1621	C162	0.797700	0.249400	0.176800
O371	O37	0.148840	0.447500	0.949590
O381	O38	0.231100	0.448500	0.951100
C1631	C163	0.197200	0.294100	0.854900
C1641	C164	0.190200	0.430600	0.938000
C1651	C165	0.149100	0.359800	0.893500
H911	H91	0.118400	0.373200	0.901900
C1661	C166	0.241300	0.319500	0.870600
H921	H92	0.272300	0.306100	0.863600
C1671	C167	0.151200	0.314900	0.866300
H931	H93	0.122100	0.299400	0.856000
C1681	C168	0.237700	0.363800	0.896000
H941	H94	0.266500	0.380300	0.905500
C1691	C169	0.241400	0.216400	0.830500
H951	H95	0.262500	0.220700	0.857500
C1701	C170	0.192300	0.384100	0.907800
C1711	C171	0.202300	0.249400	0.823200
O391	O39	0.148840	0.552500	0.050410
O401	O40	0.231100	0.551500	0.048900
C1721	C172	0.197200	0.705900	0.145100
C1731	C173	0.190200	0.569400	0.062000
C1741	C174	0.149100	0.640200	0.106500
H961	H96	0.118400	0.626800	0.098100
C1751	C175	0.241300	0.680500	0.129400
H971	H97	0.272300	0.693900	0.136400
C1761	C176	0.151200	0.685100	0.133700
H981	H98	0.122100	0.700600	0.144000
C1771	C177	0.237700	0.636200	0.104000
H991	H99	0.266500	0.619700	0.094500
C1781	C178	0.241400	0.783600	0.169500
H1001	H100	0.262500	0.779300	0.142500
C1791	C179	0.192300	0.615900	0.092200
C1801	C180	0.202300	0.750600	0.176800
O411	O41	0.949590	0.851160	0.552500
O421	O42	0.951100	0.768900	0.551500
C1811	C181	0.854900	0.802800	0.705900
C1821	C182	0.938000	0.809800	0.569400
C1831	C183	0.893500	0.850900	0.640200
H1011	H101	0.901900	0.881600	0.626800
C1841	C184	0.870600	0.758700	0.680500
H1021	H102	0.863600	0.727700	0.693900
C1851	C185	0.866300	0.848800	0.685100
H1031	H103	0.856000	0.877900	0.700600
C1861	C186	0.896000	0.762300	0.636200
H1041	H104	0.905500	0.733500	0.619700
C1871	C187	0.830500	0.758600	0.783600
H1051	H105	0.857500	0.737500	0.779300
C1881	C188	0.907800	0.807700	0.615900
C1891	C189	0.823200	0.797700	0.750600
O431	O43	0.050410	0.851160	0.447500
O441	O44	0.048900	0.768900	0.448500
C1901	C190	0.145100	0.802800	0.294100
C1911	C191	0.062000	0.809800	0.430600
C1921	C192	0.106500	0.850900	0.359800
H1061	H106	0.098100	0.881600	0.373200
C1931	C193	0.129400	0.758700	0.319500
H1071	H107	0.136400	0.727700	0.306100
C1941	C194	0.133700	0.848800	0.314900
H1081	H108	0.144000	0.877900	0.299400
C1951	C195	0.104000	0.762300	0.363800
H1091	H109	0.094500	0.733500	0.380300
C1961	C196	0.169500	0.758600	0.216400
H1101	H110	0.142500	0.737500	0.220700
C1971	C197	0.092200	0.807700	0.384100
C1981	C198	0.176800	0.797700	0.249400
O451	O45	0.949590	0.148840	0.447500
O461	O46	0.951100	0.231100	0.448500
C1991	C199	0.854900	0.197200	0.294100
C2001	C200	0.938000	0.190200	0.430600
C2011	C201	0.893500	0.149100	0.359800
H1111	H111	0.901900	0.118400	0.373200
C2021	C202	0.870600	0.241300	0.319500
H1121	H112	0.863600	0.272300	0.306100
C2031	C203	0.866300	0.151200	0.314900
H1131	H113	0.856000	0.122100	0.299400
C2041	C204	0.896000	0.237700	0.363800
H1141	H114	0.905500	0.266500	0.380300
C2051	C205	0.830500	0.241400	0.216400
H1151	H115	0.857500	0.262500	0.220700
C2061	C206	0.907800	0.192300	0.384100
C2071	C207	0.823200	0.202300	0.249400
O471	O47	0.050410	0.148840	0.552500
O481	O48	0.048900	0.231100	0.551500
C2081	C208	0.145100	0.197200	0.705900
C2091	C209	0.062000	0.190200	0.569400
C2101	C210	0.106500	0.149100	0.640200
H1161	H116	0.098100	0.118400	0.626800
C2111	C211	0.129400	0.241300	0.680500
H1171	H117	0.136400	0.272300	0.693900
C2121	C212	0.133700	0.151200	0.685100
H1181	H118	0.144000	0.122100	0.700600
C2131	C213	0.104000	0.237700	0.636200
H1191	H119	0.094500	0.266500	0.619700
C2141	C214	0.169500	0.241400	0.783600
H1201	H120	0.142500	0.262500	0.779300
C2151	C215	0.092200	0.192300	0.615900
C2161	C216	0.176800	0.202300	0.750600
Cu11	Cu1	0.500000	0.000000	0.144090
Cu21	Cu2	0.500000	0.000000	0.240490
Cu31	Cu3	0.500000	0.000000	0.855910
Cu41	Cu4	0.500000	0.000000	0.759510
Cu51	Cu5	0.144090	0.500000	0.000000
Cu61	Cu6	0.240490	0.500000	0.000000
Cu71	Cu7	0.855910	0.500000	0.000000
Cu81	Cu8	0.759510	0.500000	0.000000
Cu91	Cu9	0.000000	0.144090	0.500000
Cu101	Cu10	0.000000	0.240490	0.500000
Cu111	Cu11	0.000000	0.855910	0.500000
Cu121	Cu12	0.000000	0.759510	0.500000
O491	O49	0.947500	0.550410	0.648840
O501	O50	0.948500	0.548900	0.731100
C2171	C217	0.794100	0.645100	0.697200
C2181	C218	0.930600	0.562000	0.690200
C2191	C219	0.859800	0.606500	0.649100
H1211	H121	0.873200	0.598100	0.618400
C2201	C220	0.819500	0.629400	0.741300
H1221	H122	0.806100	0.636400	0.772300
C2211	C221	0.814900	0.633700	0.651200
H1231	H123	0.799400	0.644000	0.622100
C2221	C222	0.863800	0.604000	0.737700
H1241	H124	0.880300	0.594500	0.766500
C2231	C223	0.716400	0.669500	0.741400
H1251	H125	0.720700	0.642500	0.762500
C2241	C224	0.884100	0.592200	0.692300
C2251	C225	0.749400	0.676800	0.702300
O511	O51	0.052500	0.449590	0.648840
O521	O52	0.051500	0.451100	0.731100
C2261	C226	0.205900	0.354900	0.697200
C2271	C227	0.069400	0.438000	0.690200
C2281	C228	0.140200	0.393500	0.649100
H1261	H126	0.126800	0.401900	0.618400
C2291	C229	0.180500	0.370600	0.741300
H1271	H127	0.193900	0.363600	0.772300
C2301	C230	0.185100	0.366300	0.651200
H1281	H128	0.200600	0.356000	0.622100
C2311	C231	0.136200	0.396000	0.737700
H1291	H129	0.119700	0.405500	0.766500
C2321	C232	0.283600	0.330500	0.741400
H1301	H130	0.279300	0.357500	0.762500
C2331	C233	0.115900	0.407800	0.692300
C2341	C234	0.250600	0.323200	0.702300
O531	O53	0.052500	0.550410	0.351160
O541	O54	0.051500	0.548900	0.268900
C2351	C235	0.205900	0.645100	0.302800
C2361	C236	0.069400	0.562000	0.309800
C2371	C237	0.140200	0.606500	0.350900
H1311	H131	0.126800	0.598100	0.381600
C2381	C238	0.180500	0.629400	0.258700
H1321	H132	0.193900	0.636400	0.227700
C2391	C239	0.185100	0.633700	0.348800
H1331	H133	0.200600	0.644000	0.377900
C2401	C240	0.136200	0.604000	0.262300
H1341	H134	0.119700	0.594500	0.233500
C2411	C241	0.283600	0.669500	0.258600
H1351	H135	0.279300	0.642500	0.237500
C2421	C242	0.115900	0.592200	0.307700
C2431	C243	0.250600	0.676800	0.297700
O551	O55	0.947500	0.449590	0.351160
O561	O56	0.948500	0.451100	0.268900
C2441	C244	0.794100	0.354900	0.302800
C2451	C245	0.930600	0.438000	0.309800
C2461	C246	0.859800	0.393500	0.350900
H1361	H136	0.873200	0.401900	0.381600
C2471	C247	0.819500	0.370600	0.258700
H1371	H137	0.806100	0.363600	0.227700
C2481	C248	0.814900	0.366300	0.348800
H1381	H138	0.799400	0.356000	0.377900
C2491	C249	0.863800	0.396000	0.262300
H1391	H139	0.880300	0.405500	0.233500
C2501	C250	0.716400	0.330500	0.258600
H1401	H140	0.720700	0.357500	0.237500
C2511	C251	0.884100	0.407800	0.307700
C2521	C252	0.749400	0.323200	0.297700
O571	O57	0.648840	0.947500	0.550410
O581	O58	0.731100	0.948500	0.548900
C2531	C253	0.697200	0.794100	0.645100
C2541	C254	0.690200	0.930600	0.562000
C2551	C255	0.649100	0.859800	0.606500
H1411	H141	0.618400	0.873200	0.598100
C2561	C256	0.741300	0.819500	0.629400
H1421	H142	0.772300	0.806100	0.636400
C2571	C257	0.651200	0.814900	0.633700
H1431	H143	0.622100	0.799400	0.644000
C2581	C258	0.737700	0.863800	0.604000
H1441	H144	0.766500	0.880300	0.594500
C2591	C259	0.741400	0.716400	0.669500
H1451	H145	0.762500	0.720700	0.642500
C2601	C260	0.692300	0.884100	0.592200
C2611	C261	0.702300	0.749400	0.676800
O591	O59	0.648840	0.052500	0.449590
O601	O60	0.731100	0.051500	0.451100
C2621	C262	0.697200	0.205900	0.354900
C2631	C263	0.690200	0.069400	0.438000
C2641	C264	0.649100	0.140200	0.393500
H1461	H146	0.618400	0.126800	0.401900
C2651	C265	0.741300	0.180500	0.370600
H1471	H147	0.772300	0.193900	0.363600
C2661	C266	0.651200	0.185100	0.366300
H1481	H148	0.622100	0.200600	0.356000
C2671	C267	0.737700	0.136200	0.396000
H1491	H149	0.766500	0.119700	0.405500
C2681	C268	0.741400	0.283600	0.330500
H1501	H150	0.762500	0.279300	0.357500
C2691	C269	0.692300	0.115900	0.407800
C2701	C270	0.702300	0.250600	0.323200
O611	O61	0.351160	0.052500	0.550410
O621	O62	0.268900	0.051500	0.548900
C2711	C271	0.302800	0.205900	0.645100
C2721	C272	0.309800	0.069400	0.562000
C2731	C273	0.350900	0.140200	0.606500
H1511	H151	0.381600	0.126800	0.598100
C2741	C274	0.258700	0.180500	0.629400
H1521	H152	0.227700	0.193900	0.636400
C2751	C275	0.348800	0.185100	0.633700
H1531	H153	0.377900	0.200600	0.644000
C2761	C276	0.262300	0.136200	0.604000
H1541	H154	0.233500	0.119700	0.594500
C2771	C277	0.258600	0.283600	0.669500
H1551	H155	0.237500	0.279300	0.642500
C2781	C278	0.307700	0.115900	0.592200
C2791	C279	0.297700	0.250600	0.676800
O631	O63	0.351160	0.947500	0.449590
O641	O64	0.268900	0.948500	0.451100
C2801	C280	0.302800	0.794100	0.354900
C2811	C281	0.309800	0.930600	0.438000
C2821	C282	0.350900	0.859800	0.393500
H1561	H156	0.381600	0.873200	0.401900
C2831	C283	0.258700	0.819500	0.370600
H1571	H157	0.227700	0.806100	0.363600
C2841	C284	0.348800	0.814900	0.366300
H1581	H158	0.377900	0.799400	0.356000
C2851	C285	0.262300	0.863800	0.396000
H1591	H159	0.233500	0.880300	0.405500
C2861	C286	0.258600	0.716400	0.330500
H1601	H160	0.237500	0.720700	0.357500
C2871	C287	0.307700	0.884100	0.407800
C2881	C288	0.297700	0.749400	0.323200
O651	O65	0.550410	0.648840	0.947500
O661	O66	0.548900	0.731100	0.948500
C2891	C289	0.645100	0.697200	0.794100
C2901	C290	0.562000	0.690200	0.930600
C2911	C291	0.606500	0.649100	0.859800
H1611	H161	0.598100	0.618400	0.873200
C2921	C292	0.629400	0.741300	0.819500
H1621	H162	0.636400	0.772300	0.806100
C2931	C293	0.633700	0.651200	0.814900
H1631	H163	0.644000	0.622100	0.799400
C2941	C294	0.604000	0.737700	0.863800
H1641	H164	0.594500	0.766500	0.880300
C2951	C295	0.669500	0.741400	0.716400
H1651	H165	0.642500	0.762500	0.720700
C2961	C296	0.592200	0.692300	0.884100
C2971	C297	0.676800	0.702300	0.749400
O671	O67	0.449590	0.648840	0.052500
O681	O68	0.451100	0.731100	0.051500
C2981	C298	0.354900	0.697200	0.205900
C2991	C299	0.438000	0.690200	0.069400
C3001	C300	0.393500	0.649100	0.140200
H1661	H166	0.401900	0.618400	0.126800
C3011	C301	0.370600	0.741300	0.180500
H1671	H167	0.363600	0.772300	0.193900
C3021	C302	0.366300	0.651200	0.185100
H1681	H168	0.356000	0.622100	0.200600
C3031	C303	0.396000	0.737700	0.136200
H1691	H169	0.405500	0.766500	0.119700
C3041	C304	0.330500	0.741400	0.283600
H1701	H170	0.357500	0.762500	0.279300
C3051	C305	0.407800	0.692300	0.115900
C3061	C306	0.323200	0.702300	0.250600
O691	O69	0.550410	0.351160	0.052500
O701	O70	0.548900	0.268900	0.051500
C3071	C307	0.645100	0.302800	0.205900
C3081	C308	0.562000	0.309800	0.069400
C3091	C309	0.606500	0.350900	0.140200
H1711	H171	0.598100	0.381600	0.126800
C3101	C310	0.629400	0.258700	0.180500
H1721	H172	0.636400	0.227700	0.193900
C3111	C311	0.633700	0.348800	0.185100
H1731	H173	0.644000	0.377900	0.200600
C3121	C312	0.604000	0.262300	0.136200
H1741	H174	0.594500	0.233500	0.119700
C3131	C313	0.669500	0.258600	0.283600
H1751	H175	0.642500	0.237500	0.279300
C3141	C314	0.592200	0.307700	0.115900
C3151	C315	0.676800	0.297700	0.250600
O711	O71	0.449590	0.351160	0.947500
O721	O72	0.451100	0.268900	0.948500
C3161	C316	0.354900	0.302800	0.794100
C3171	C317	0.438000	0.309800	0.930600
C3181	C318	0.393500	0.350900	0.859800
H1761	H176	0.401900	0.381600	0.873200
C3191	C319	0.370600	0.258700	0.819500
H1771	H177	0.363600	0.227700	0.806100
C3201	C320	0.366300	0.348800	0.814900
H1781	H178	0.356000	0.377900	0.799400
C3211	C321	0.396000	0.262300	0.863800
H1791	H179	0.405500	0.233500	0.880300
C3221	C322	0.330500	0.258600	0.716400
H1801	H180	0.357500	0.237500	0.720700
C3231	C323	0.407800	0.307700	0.884100
C3241	C324	0.323200	0.297700	0.749400
O731	O73	0.052500	0.449590	0.351160
O741	O74	0.051500	0.451100	0.268900
C3251	C325	0.205900	0.354900	0.302800
C3261	C326	0.069400	0.438000	0.309800
C3271	C327	0.140200	0.393500	0.350900
H1811	H181	0.126800	0.401900	0.381600
C3281	C328	0.180500	0.370600	0.258700
H1821	H182	0.193900	0.363600	0.227700
C3291	C329	0.185100	0.366300	0.348800
H1831	H183	0.200600	0.356000	0.377900
C3301	C330	0.136200	0.396000	0.262300
H1841	H184	0.119700	0.405500	0.233500
C3311	C331	0.283600	0.330500	0.258600
H1851	H185	0.279300	0.357500	0.237500
C3321	C332	0.115900	0.407800	0.307700
C3331	C333	0.250600	0.323200	0.297700
O751	O75	0.947500	0.550410	0.351160
O761	O76	0.948500	0.548900	0.268900
C3341	C334	0.794100	0.645100	0.302800
C3351	C335	0.930600	0.562000	0.309800
C3361	C336	0.859800	0.606500	0.350900
H1861	H186	0.873200	0.598100	0.381600
C3371	C337	0.819500	0.629400	0.258700
H1871	H187	0.806100	0.636400	0.227700
C3381	C338	0.814900	0.633700	0.348800
H1881	H188	0.799400	0.644000	0.377900
C3391	C339	0.863800	0.604000	0.262300
H1891	H189	0.880300	0.594500	0.233500
C3401	C340	0.716400	0.669500	0.258600
H1901	H190	0.720700	0.642500	0.237500
C3411	C341	0.884100	0.592200	0.307700
C3421	C342	0.749400	0.676800	0.297700
O771	O77	0.947500	0.449590	0.648840
O781	O78	0.948500	0.451100	0.731100
C3431	C343	0.794100	0.354900	0.697200
C3441	C344	0.930600	0.438000	0.690200
C3451	C345	0.859800	0.393500	0.649100
H1911	H191	0.873200	0.401900	0.618400
C3461	C346	0.819500	0.370600	0.741300
H1921	H192	0.806100	0.363600	0.772300
C3471	C347	0.814900	0.366300	0.651200
H1931	H193	0.799400	0.356000	0.622100
C3481	C348	0.863800	0.396000	0.737700
H1941	H194	0.880300	0.405500	0.766500
C3491	C349	0.716400	0.330500	0.741400
H1951	H195	0.720700	0.357500	0.762500
C3501	C350	0.884100	0.407800	0.692300
C3511	C351	0.749400	0.323200	0.702300
O791	O79	0.052500	0.550410	0.648840
O801	O80	0.051500	0.548900	0.731100
C3521	C352	0.205900	0.645100	0.697200
C3531	C353	0.069400	0.562000	0.690200
C3541	C354	0.140200	0.606500	0.649100
H1961	H196	0.126800	0.598100	0.618400
C3551	C355	0.180500	0.629400	0.741300
H1971	H197	0.193900	0.636400	0.772300
C3561	C356	0.185100	0.633700	0.651200
H1981	H198	0.200600	0.644000	0.622100
C3571	C357	0.136200	0.604000	0.737700
H1991	H199	0.119700	0.594500	0.766500
C3581	C358	0.283600	0.669500	0.741400
H2001	H200	0.279300	0.642500	0.762500
C3591	C359	0.115900	0.592200	0.692300
C3601	C360	0.250600	0.676800	0.702300
O811	O81	0.351160	0.052500	0.449590
O821	O82	0.268900	0.051500	0.451100
C3611	C361	0.302800	0.205900	0.354900
C3621	C362	0.309800	0.069400	0.438000
C3631	C363	0.350900	0.140200	0.393500
H2011	H201	0.381600	0.126800	0.401900
C3641	C364	0.258700	0.180500	0.370600
H2021	H202	0.227700	0.193900	0.363600
C3651	C365	0.348800	0.185100	0.366300
H2031	H203	0.377900	0.200600	0.356000
C3661	C366	0.262300	0.136200	0.396000
H2041	H204	0.233500	0.119700	0.405500
C3671	C367	0.258600	0.283600	0.330500
H2051	H205	0.237500	0.279300	0.357500
C3681	C368	0.307700	0.115900	0.407800
C3691	C369	0.297700	0.250600	0.323200
O831	O83	0.351160	0.947500	0.550410
O841	O84	0.268900	0.948500	0.548900
C3701	C370	0.302800	0.794100	0.645100
C3711	C371	0.309800	0.930600	0.562000
C3721	C372	0.350900	0.859800	0.606500
H2061	H206	0.381600	0.873200	0.598100
C3731	C373	0.258700	0.819500	0.629400
H2071	H207	0.227700	0.806100	0.636400
C3741	C374	0.348800	0.814900	0.633700
H2081	H208	0.377900	0.799400	0.644000
C3751	C375	0.262300	0.863800	0.604000
H2091	H209	0.233500	0.880300	0.594500
C3761	C376	0.258600	0.716400	0.669500
H2101	H210	0.237500	0.720700	0.642500
C3771	C377	0.307700	0.884100	0.592200
C3781	C378	0.297700	0.749400	0.676800
O851	O85	0.648840	0.947500	0.449590
O861	O86	0.731100	0.948500	0.451100
C3791	C379	0.697200	0.794100	0.354900
C3801	C380	0.690200	0.930600	0.438000
C3811	C381	0.649100	0.859800	0.393500
H2111	H211	0.618400	0.873200	0.401900
C3821	C382	0.741300	0.819500	0.370600
H2121	H212	0.772300	0.806100	0.363600
C3831	C383	0.651200	0.814900	0.366300
H2131	H213	0.622100	0.799400	0.356000
C3841	C384	0.737700	0.863800	0.396000
H2141	H214	0.766500	0.880300	0.405500
C3851	C385	0.741400	0.716400	0.330500
H2151	H215	0.762500	0.720700	0.357500
C3861	C386	0.692300	0.884100	0.407800
C3871	C387	0.702300	0.749400	0.323200
O871	O87	0.648840	0.052500	0.550410
O881	O88	0.731100	0.051500	0.548900
C3881	C388	0.697200	0.205900	0.645100
C3891	C389	0.690200	0.069400	0.562000
C3901	C390	0.649100	0.140200	0.606500
H2161	H216	0.618400	0.126800	0.598100
C3911	C391	0.741300	0.180500	0.629400
H2171	H217	0.772300	0.193900	0.636400
C3921	C392	0.651200	0.185100	0.633700
H2181	H218	0.622100	0.200600	0.644000
C3931	C393	0.737700	0.136200	0.604000
H2191	H219	0.766500	0.119700	0.594500
C3941	C394	0.741400	0.283600	0.669500
H2201	H220	0.762500	0.279300	0.642500
C3951	C395	0.692300	0.115900	0.592200
C3961	C396	0.702300	0.250600	0.676800
O891	O89	0.449590	0.351160	0.052500
O901	O90	0.451100	0.268900	0.051500
C3971	C397	0.354900	0.302800	0.205900
C3981	C398	0.438000	0.309800	0.069400
C3991	C399	0.393500	0.350900	0.140200
H2211	H221	0.401900	0.381600	0.126800
C4001	C400	0.370600	0.258700	0.180500
H2221	H222	0.363600	0.227700	0.193900
C4011	C401	0.366300	0.348800	0.185100
H2231	H223	0.356000	0.377900	0.200600
C4021	C402	0.396000	0.262300	0.136200
H2241	H224	0.405500	0.233500	0.119700
C4031	C403	0.330500	0.258600	0.283600
H2251	H225	0.357500	0.237500	0.279300
C4041	C404	0.407800	0.307700	0.115900
C4051	C405	0.323200	0.297700	0.250600
O911	O91	0.550410	0.351160	0.947500
O921	O92	0.548900	0.268900	0.948500
C4061	C406	0.645100	0.302800	0.794100
C4071	C407	0.562000	0.309800	0.930600
C4081	C408	0.606500	0.350900	0.859800
H2261	H226	0.598100	0.381600	0.873200
C4091	C409	0.629400	0.258700	0.819500
H2271	H227	0.636400	0.227700	0.806100
C4101	C410	0.633700	0.348800	0.814900
H2281	H228	0.644000	0.377900	0.799400
C4111	C411	0.604000	0.262300	0.863800
H2291	H229	0.594500	0.233500	0.880300
C4121	C412	0.669500	0.258600	0.716400
H2301	H230	0.642500	0.237500	0.720700
C4131	C413	0.592200	0.307700	0.884100
C4141	C414	0.676800	0.297700	0.749400
O931	O93	0.449590	0.648840	0.947500
O941	O94	0.451100	0.731100	0.948500
C4151	C415	0.354900	0.697200	0.794100
C4161	C416	0.438000	0.690200	0.930600
C4171	C417	0.393500	0.649100	0.859800
H2311	H231	0.401900	0.618400	0.873200
C4181	C418	0.370600	0.741300	0.819500
H2321	H232	0.363600	0.772300	0.806100
C4191	C419	0.366300	0.651200	0.814900
H2331	H233	0.356000	0.622100	0.799400
C4201	C420	0.396000	0.737700	0.863800
H2341	H234	0.405500	0.766500	0.880300
C4211	C421	0.330500	0.741400	0.716400
H2351	H235	0.357500	0.762500	0.720700
C4221	C422	0.407800	0.692300	0.884100
C4231	C423	0.323200	0.702300	0.749400
O951	O95	0.550410	0.648840	0.052500
O961	O96	0.548900	0.731100	0.051500
C4241	C424	0.645100	0.697200	0.205900
C4251	C425	0.562000	0.690200	0.069400
C4261	C426	0.606500	0.649100	0.140200
H2361	H236	0.598100	0.618400	0.126800
C4271	C427	0.629400	0.741300	0.180500
H2371	H237	0.636400	0.772300	0.193900
C4281	C428	0.633700	0.651200	0.185100
H2381	H238	0.644000	0.622100	0.200600
C4291	C429	0.604000	0.737700	0.136200
H2391	H239	0.594500	0.766500	0.119700
C4301	C430	0.669500	0.741400	0.283600
H2401	H240	0.642500	0.762500	0.279300
C4311	C431	0.592200	0.692300	0.115900
C4321	C432	0.676800	0.702300	0.250600
Cu131	Cu13	0.000000	0.500000	0.644090
Cu141	Cu14	0.000000	0.500000	0.740490
Cu151	Cu15	0.000000	0.500000	0.355910
Cu161	Cu16	0.000000	0.500000	0.259510
Cu171	Cu17	0.644090	0.000000	0.500000
Cu181	Cu18	0.740490	0.000000	0.500000
Cu191	Cu19	0.355910	0.000000	0.500000
Cu201	Cu20	0.259510	0.000000	0.500000
Cu211	Cu21	0.500000	0.644090	0.000000
Cu221	Cu22	0.500000	0.740490	0.000000
Cu231	Cu23	0.500000	0.355910	0.000000
Cu241	Cu24	0.500000	0.259510	0.000000
