data_QOXFIU_clean_PM
_symmetry_space_group_name_H-M	'P1'
_cell_length_a	34.074000
_cell_length_b	16.221100
_cell_length_c	28.278000
_cell_angle_alpha	90.000000
_cell_angle_beta	124.743000
_cell_angle_gamma	90.000000
_symmetry_Int_Tables_number 1

loop_
_symmetry_equiv_pos_as_xyz
'x,y,z'

loop_
_atom_site_label
_atom_site_type_symbol
_atom_site_fract_x
_atom_site_fract_y
_atom_site_fract_z
U11	U1	0.056240	0.271840	0.561290
U21	U2	0.274330	0.379830	0.912340
U31	U3	0.208660	0.143990	0.862250
U41	U4	0.119780	0.503860	0.611150
I11	I1	0.098000	0.171830	0.707520
I21	I2	0.185180	0.506410	0.775070
O11	O1	0.015000	0.340700	0.559600
O21	O2	0.099600	0.380100	0.556400
O31	O3	0.150300	0.213700	0.772500
O41	O4	0.121400	0.358600	0.617700
O51	O5	0.272900	0.235000	0.908300
O61	O6	0.028300	0.311300	0.463800
O71	O7	0.062700	0.511600	0.597900
O81	O8	0.238000	0.267900	0.850000
O91	O9	0.165600	0.180700	0.995300
O101	O10	0.918300	0.397400	0.558300
O111	O11	0.020700	0.164200	0.586800
O121	O12	0.916300	0.467300	0.488500
O131	O13	0.855400	0.389600	0.314800
O141	O14	0.092100	0.258500	0.663800
O151	O15	0.052600	0.197600	0.718700
O161	O16	0.231500	0.379200	0.929200
O171	O17	0.273000	0.095200	0.955000
O181	O18	0.133700	0.066700	0.797700
O191	O19	0.322200	0.001700	0.017700
O201	O20	0.092100	0.184900	0.913900
O211	O21	0.153000	0.452700	0.707300
O221	O22	0.243000	0.971200	0.104100
O231	O23	0.989200	0.038000	0.573200
O241	O24	0.216100	0.413800	0.813500
O251	O25	0.180500	0.188900	0.893500
O261	O26	0.140200	0.508500	0.788600
O271	O27	0.998400	0.284000	0.373900
O281	O28	0.815000	0.274400	0.268500
O291	O29	0.220500	0.839000	0.087700
O301	O30	0.099300	0.949500	0.744600
N11	N1	0.983000	0.185400	0.474200
N21	N2	0.169700	0.015700	0.000000
N31	N3	0.202400	0.989600	0.890400
N41	N4	0.879200	0.339100	0.415800
C11	C1	0.999600	0.097400	0.557000
C21	C2	0.872700	0.340000	0.462800
C31	C3	0.285100	0.020800	0.970700
C41	C4	0.926300	0.306000	0.433300
C51	C5	0.838700	0.296800	0.365700
C61	C6	0.934800	0.217000	0.456100
C71	C7	0.987500	0.099200	0.494000
C81	C8	0.905100	0.404900	0.506500
C91	C9	0.126600	0.146700	0.955200
C101	C10	0.987300	0.182100	0.425200
C111	C11	0.005300	0.264600	0.419300
C121	C12	0.252000	0.955200	0.930300
C131	C13	0.121200	0.054100	0.962500
C141	C14	0.197500	0.017000	0.971900
C151	C15	0.837100	0.324400	0.312500
C161	C16	0.177100	0.941100	0.835800
C171	C17	0.165200	0.937100	0.019100
C181	C18	0.213800	0.914700	0.076100
C191	C19	0.173000	0.972300	0.913000
C201	C20	0.132500	0.989900	0.791500
K11	K1	0.158500	0.325920	0.937190
K21	K2	0.984130	0.287400	0.630930
K31	K3	0.196860	0.296500	0.731570
K41	K4	0.981730	0.538300	0.594600
O311	O31	0.048000	0.418900	0.684000
U51	U5	0.556240	0.771840	0.561290
U61	U6	0.774330	0.879830	0.912340
U71	U7	0.708660	0.643990	0.862250
U81	U8	0.619780	0.003860	0.611150
I31	I3	0.598000	0.671830	0.707520
I41	I4	0.685180	0.006410	0.775070
O321	O32	0.515000	0.840700	0.559600
O331	O33	0.599600	0.880100	0.556400
O341	O34	0.650300	0.713700	0.772500
O351	O35	0.621400	0.858600	0.617700
O361	O36	0.772900	0.735000	0.908300
O371	O37	0.528300	0.811300	0.463800
O381	O38	0.562700	0.011600	0.597900
O391	O39	0.738000	0.767900	0.850000
O401	O40	0.665600	0.680700	0.995300
O411	O41	0.418300	0.897400	0.558300
O421	O42	0.520700	0.664200	0.586800
O431	O43	0.416300	0.967300	0.488500
O441	O44	0.355400	0.889600	0.314800
O451	O45	0.592100	0.758500	0.663800
O461	O46	0.552600	0.697600	0.718700
O471	O47	0.731500	0.879200	0.929200
O481	O48	0.773000	0.595200	0.955000
O491	O49	0.633700	0.566700	0.797700
O501	O50	0.822200	0.501700	0.017700
O511	O51	0.592100	0.684900	0.913900
O521	O52	0.653000	0.952700	0.707300
O531	O53	0.743000	0.471200	0.104100
O541	O54	0.489200	0.538000	0.573200
O551	O55	0.716100	0.913800	0.813500
O561	O56	0.680500	0.688900	0.893500
O571	O57	0.640200	0.008500	0.788600
O581	O58	0.498400	0.784000	0.373900
O591	O59	0.315000	0.774400	0.268500
O601	O60	0.720500	0.339000	0.087700
O611	O61	0.599300	0.449500	0.744600
N51	N5	0.483000	0.685400	0.474200
N61	N6	0.669700	0.515700	0.000000
N71	N7	0.702400	0.489600	0.890400
N81	N8	0.379200	0.839100	0.415800
C211	C21	0.499600	0.597400	0.557000
C221	C22	0.372700	0.840000	0.462800
C231	C23	0.785100	0.520800	0.970700
C241	C24	0.426300	0.806000	0.433300
C251	C25	0.338700	0.796800	0.365700
C261	C26	0.434800	0.717000	0.456100
C271	C27	0.487500	0.599200	0.494000
C281	C28	0.405100	0.904900	0.506500
C291	C29	0.626600	0.646700	0.955200
C301	C30	0.487300	0.682100	0.425200
C311	C31	0.505300	0.764600	0.419300
C321	C32	0.752000	0.455200	0.930300
C331	C33	0.621200	0.554100	0.962500
C341	C34	0.697500	0.517000	0.971900
C351	C35	0.337100	0.824400	0.312500
C361	C36	0.677100	0.441100	0.835800
C371	C37	0.665200	0.437100	0.019100
C381	C38	0.713800	0.414700	0.076100
C391	C39	0.673000	0.472300	0.913000
C401	C40	0.632500	0.489900	0.791500
K51	K5	0.658500	0.825920	0.937190
K61	K6	0.484130	0.787400	0.630930
K71	K7	0.696860	0.796500	0.731570
K81	K8	0.481730	0.038300	0.594600
O621	O62	0.548000	0.918900	0.684000
U91	U9	0.943760	0.271840	0.938710
U101	U10	0.725670	0.379830	0.587660
U111	U11	0.791340	0.143990	0.637750
U121	U12	0.880220	0.503860	0.888850
I51	I5	0.902000	0.171830	0.792480
I61	I6	0.814820	0.506410	0.724930
O631	O63	0.985000	0.340700	0.940400
O641	O64	0.900400	0.380100	0.943600
O651	O65	0.849700	0.213700	0.727500
O661	O66	0.878600	0.358600	0.882300
O671	O67	0.727100	0.235000	0.591700
O681	O68	0.971700	0.311300	0.036200
O691	O69	0.937300	0.511600	0.902100
O701	O70	0.762000	0.267900	0.650000
O711	O71	0.834400	0.180700	0.504700
O721	O72	0.081700	0.397400	0.941700
O731	O73	0.979300	0.164200	0.913200
O741	O74	0.083700	0.467300	0.011500
O751	O75	0.144600	0.389600	0.185200
O761	O76	0.907900	0.258500	0.836200
O771	O77	0.947400	0.197600	0.781300
O781	O78	0.768500	0.379200	0.570800
O791	O79	0.727000	0.095200	0.545000
O801	O80	0.866300	0.066700	0.702300
O811	O81	0.677800	0.001700	0.482300
O821	O82	0.907900	0.184900	0.586100
O831	O83	0.847000	0.452700	0.792700
O841	O84	0.757000	0.971200	0.395900
O851	O85	0.010800	0.038000	0.926800
O861	O86	0.783900	0.413800	0.686500
O871	O87	0.819500	0.188900	0.606500
O881	O88	0.859800	0.508500	0.711400
O891	O89	0.001600	0.284000	0.126100
O901	O90	0.185000	0.274400	0.231500
O911	O91	0.779500	0.839000	0.412300
O921	O92	0.900700	0.949500	0.755400
N91	N9	0.017000	0.185400	0.025800
N101	N10	0.830300	0.015700	0.500000
N111	N11	0.797600	0.989600	0.609600
N121	N12	0.120800	0.339100	0.084200
C411	C41	0.000400	0.097400	0.943000
C421	C42	0.127300	0.340000	0.037200
C431	C43	0.714900	0.020800	0.529300
C441	C44	0.073700	0.306000	0.066700
C451	C45	0.161300	0.296800	0.134300
C461	C46	0.065200	0.217000	0.043900
C471	C47	0.012500	0.099200	0.006000
C481	C48	0.094900	0.404900	0.993500
C491	C49	0.873400	0.146700	0.544800
C501	C50	0.012700	0.182100	0.074800
C511	C51	0.994700	0.264600	0.080700
C521	C52	0.748000	0.955200	0.569700
C531	C53	0.878800	0.054100	0.537500
C541	C54	0.802500	0.017000	0.528100
C551	C55	0.162900	0.324400	0.187500
C561	C56	0.822900	0.941100	0.664200
C571	C57	0.834800	0.937100	0.480900
C581	C58	0.786200	0.914700	0.423900
C591	C59	0.827000	0.972300	0.587000
C601	C60	0.867500	0.989900	0.708500
K91	K9	0.841500	0.325920	0.562810
K101	K10	0.015870	0.287400	0.869070
K111	K11	0.803140	0.296500	0.768430
K121	K12	0.018270	0.538300	0.905400
O931	O93	0.952000	0.418900	0.816000
U131	U13	0.443760	0.771840	0.938710
U141	U14	0.225670	0.879830	0.587660
U151	U15	0.291340	0.643990	0.637750
U161	U16	0.380220	0.003860	0.888850
I71	I7	0.402000	0.671830	0.792480
I81	I8	0.314820	0.006410	0.724930
O941	O94	0.485000	0.840700	0.940400
O951	O95	0.400400	0.880100	0.943600
O961	O96	0.349700	0.713700	0.727500
O971	O97	0.378600	0.858600	0.882300
O981	O98	0.227100	0.735000	0.591700
O991	O99	0.471700	0.811300	0.036200
O1001	O100	0.437300	0.011600	0.902100
O1011	O101	0.262000	0.767900	0.650000
O1021	O102	0.334400	0.680700	0.504700
O1031	O103	0.581700	0.897400	0.941700
O1041	O104	0.479300	0.664200	0.913200
O1051	O105	0.583700	0.967300	0.011500
O1061	O106	0.644600	0.889600	0.185200
O1071	O107	0.407900	0.758500	0.836200
O1081	O108	0.447400	0.697600	0.781300
O1091	O109	0.268500	0.879200	0.570800
O1101	O110	0.227000	0.595200	0.545000
O1111	O111	0.366300	0.566700	0.702300
O1121	O112	0.177800	0.501700	0.482300
O1131	O113	0.407900	0.684900	0.586100
O1141	O114	0.347000	0.952700	0.792700
O1151	O115	0.257000	0.471200	0.395900
O1161	O116	0.510800	0.538000	0.926800
O1171	O117	0.283900	0.913800	0.686500
O1181	O118	0.319500	0.688900	0.606500
O1191	O119	0.359800	0.008500	0.711400
O1201	O120	0.501600	0.784000	0.126100
O1211	O121	0.685000	0.774400	0.231500
O1221	O122	0.279500	0.339000	0.412300
O1231	O123	0.400700	0.449500	0.755400
N131	N13	0.517000	0.685400	0.025800
N141	N14	0.330300	0.515700	0.500000
N151	N15	0.297600	0.489600	0.609600
N161	N16	0.620800	0.839100	0.084200
C611	C61	0.500400	0.597400	0.943000
C621	C62	0.627300	0.840000	0.037200
C631	C63	0.214900	0.520800	0.529300
C641	C64	0.573700	0.806000	0.066700
C651	C65	0.661300	0.796800	0.134300
C661	C66	0.565200	0.717000	0.043900
C671	C67	0.512500	0.599200	0.006000
C681	C68	0.594900	0.904900	0.993500
C691	C69	0.373400	0.646700	0.544800
C701	C70	0.512700	0.682100	0.074800
C711	C71	0.494700	0.764600	0.080700
C721	C72	0.248000	0.455200	0.569700
C731	C73	0.378800	0.554100	0.537500
C741	C74	0.302500	0.517000	0.528100
C751	C75	0.662900	0.824400	0.187500
C761	C76	0.322900	0.441100	0.664200
C771	C77	0.334800	0.437100	0.480900
C781	C78	0.286200	0.414700	0.423900
C791	C79	0.327000	0.472300	0.587000
C801	C80	0.367500	0.489900	0.708500
K131	K13	0.341500	0.825920	0.562810
K141	K14	0.515870	0.787400	0.869070
K151	K15	0.303140	0.796500	0.768430
K161	K16	0.518270	0.038300	0.905400
O1241	O124	0.452000	0.918900	0.816000
U171	U17	0.943760	0.728160	0.438710
U181	U18	0.725670	0.620170	0.087660
U191	U19	0.791340	0.856010	0.137750
U201	U20	0.880220	0.496140	0.388850
I91	I9	0.902000	0.828170	0.292480
I101	I10	0.814820	0.493590	0.224930
O1251	O125	0.985000	0.659300	0.440400
O1261	O126	0.900400	0.619900	0.443600
O1271	O127	0.849700	0.786300	0.227500
O1281	O128	0.878600	0.641400	0.382300
O1291	O129	0.727100	0.765000	0.091700
O1301	O130	0.971700	0.688700	0.536200
O1311	O131	0.937300	0.488400	0.402100
O1321	O132	0.762000	0.732100	0.150000
O1331	O133	0.834400	0.819300	0.004700
O1341	O134	0.081700	0.602600	0.441700
O1351	O135	0.979300	0.835800	0.413200
O1361	O136	0.083700	0.532700	0.511500
O1371	O137	0.144600	0.610400	0.685200
O1381	O138	0.907900	0.741500	0.336200
O1391	O139	0.947400	0.802400	0.281300
O1401	O140	0.768500	0.620800	0.070800
O1411	O141	0.727000	0.904800	0.045000
O1421	O142	0.866300	0.933300	0.202300
O1431	O143	0.677800	0.998300	0.982300
O1441	O144	0.907900	0.815100	0.086100
O1451	O145	0.847000	0.547300	0.292700
O1461	O146	0.757000	0.028800	0.895900
O1471	O147	0.010800	0.962000	0.426800
O1481	O148	0.783900	0.586200	0.186500
O1491	O149	0.819500	0.811100	0.106500
O1501	O150	0.859800	0.491500	0.211400
O1511	O151	0.001600	0.716000	0.626100
O1521	O152	0.185000	0.725600	0.731500
O1531	O153	0.779500	0.161000	0.912300
O1541	O154	0.900700	0.050500	0.255400
N171	N17	0.017000	0.814600	0.525800
N181	N18	0.830300	0.984300	0.000000
N191	N19	0.797600	0.010400	0.109600
N201	N20	0.120800	0.660900	0.584200
C811	C81	0.000400	0.902600	0.443000
C821	C82	0.127300	0.660000	0.537200
C831	C83	0.714900	0.979200	0.029300
C841	C84	0.073700	0.694000	0.566700
C851	C85	0.161300	0.703200	0.634300
C861	C86	0.065200	0.783000	0.543900
C871	C87	0.012500	0.900800	0.506000
C881	C88	0.094900	0.595100	0.493500
C891	C89	0.873400	0.853300	0.044800
C901	C90	0.012700	0.817900	0.574800
C911	C91	0.994700	0.735400	0.580700
C921	C92	0.748000	0.044800	0.069700
C931	C93	0.878800	0.945900	0.037500
C941	C94	0.802500	0.983000	0.028100
C951	C95	0.162900	0.675600	0.687500
C961	C96	0.822900	0.058900	0.164200
C971	C97	0.834800	0.062900	0.980900
C981	C98	0.786200	0.085300	0.923900
C991	C99	0.827000	0.027700	0.087000
C1001	C100	0.867500	0.010100	0.208500
K171	K17	0.841500	0.674080	0.062810
K181	K18	0.015870	0.712600	0.369070
K191	K19	0.803140	0.703500	0.268430
K201	K20	0.018270	0.461700	0.405400
O1551	O155	0.952000	0.581100	0.316000
U211	U21	0.443760	0.228160	0.438710
U221	U22	0.225670	0.120170	0.087660
U231	U23	0.291340	0.356010	0.137750
U241	U24	0.380220	0.996140	0.388850
I111	I11	0.402000	0.328170	0.292480
I121	I12	0.314820	0.993590	0.224930
O1561	O156	0.485000	0.159300	0.440400
O1571	O157	0.400400	0.119900	0.443600
O1581	O158	0.349700	0.286300	0.227500
O1591	O159	0.378600	0.141400	0.382300
O1601	O160	0.227100	0.265000	0.091700
O1611	O161	0.471700	0.188700	0.536200
O1621	O162	0.437300	0.988400	0.402100
O1631	O163	0.262000	0.232100	0.150000
O1641	O164	0.334400	0.319300	0.004700
O1651	O165	0.581700	0.102600	0.441700
O1661	O166	0.479300	0.335800	0.413200
O1671	O167	0.583700	0.032700	0.511500
O1681	O168	0.644600	0.110400	0.685200
O1691	O169	0.407900	0.241500	0.336200
O1701	O170	0.447400	0.302400	0.281300
O1711	O171	0.268500	0.120800	0.070800
O1721	O172	0.227000	0.404800	0.045000
O1731	O173	0.366300	0.433300	0.202300
O1741	O174	0.177800	0.498300	0.982300
O1751	O175	0.407900	0.315100	0.086100
O1761	O176	0.347000	0.047300	0.292700
O1771	O177	0.257000	0.528800	0.895900
O1781	O178	0.510800	0.462000	0.426800
O1791	O179	0.283900	0.086200	0.186500
O1801	O180	0.319500	0.311100	0.106500
O1811	O181	0.359800	0.991500	0.211400
O1821	O182	0.501600	0.216000	0.626100
O1831	O183	0.685000	0.225600	0.731500
O1841	O184	0.279500	0.661000	0.912300
O1851	O185	0.400700	0.550500	0.255400
N211	N21	0.517000	0.314600	0.525800
N221	N22	0.330300	0.484300	0.000000
N231	N23	0.297600	0.510400	0.109600
N241	N24	0.620800	0.160900	0.584200
C1011	C101	0.500400	0.402600	0.443000
C1021	C102	0.627300	0.160000	0.537200
C1031	C103	0.214900	0.479200	0.029300
C1041	C104	0.573700	0.194000	0.566700
C1051	C105	0.661300	0.203200	0.634300
C1061	C106	0.565200	0.283000	0.543900
C1071	C107	0.512500	0.400800	0.506000
C1081	C108	0.594900	0.095100	0.493500
C1091	C109	0.373400	0.353300	0.044800
C1101	C110	0.512700	0.317900	0.574800
C1111	C111	0.494700	0.235400	0.580700
C1121	C112	0.248000	0.544800	0.069700
C1131	C113	0.378800	0.445900	0.037500
C1141	C114	0.302500	0.483000	0.028100
C1151	C115	0.662900	0.175600	0.687500
C1161	C116	0.322900	0.558900	0.164200
C1171	C117	0.334800	0.562900	0.980900
C1181	C118	0.286200	0.585300	0.923900
C1191	C119	0.327000	0.527700	0.087000
C1201	C120	0.367500	0.510100	0.208500
K211	K21	0.341500	0.174080	0.062810
K221	K22	0.515870	0.212600	0.369070
K231	K23	0.303140	0.203500	0.268430
K241	K24	0.518270	0.961700	0.405400
O1861	O186	0.452000	0.081100	0.316000
U251	U25	0.056240	0.728160	0.061290
U261	U26	0.274330	0.620170	0.412340
U271	U27	0.208660	0.856010	0.362250
U281	U28	0.119780	0.496140	0.111150
I131	I13	0.098000	0.828170	0.207520
I141	I14	0.185180	0.493590	0.275070
O1871	O187	0.015000	0.659300	0.059600
O1881	O188	0.099600	0.619900	0.056400
O1891	O189	0.150300	0.786300	0.272500
O1901	O190	0.121400	0.641400	0.117700
O1911	O191	0.272900	0.765000	0.408300
O1921	O192	0.028300	0.688700	0.963800
O1931	O193	0.062700	0.488400	0.097900
O1941	O194	0.238000	0.732100	0.350000
O1951	O195	0.165600	0.819300	0.495300
O1961	O196	0.918300	0.602600	0.058300
O1971	O197	0.020700	0.835800	0.086800
O1981	O198	0.916300	0.532700	0.988500
O1991	O199	0.855400	0.610400	0.814800
O2001	O200	0.092100	0.741500	0.163800
O2011	O201	0.052600	0.802400	0.218700
O2021	O202	0.231500	0.620800	0.429200
O2031	O203	0.273000	0.904800	0.455000
O2041	O204	0.133700	0.933300	0.297700
O2051	O205	0.322200	0.998300	0.517700
O2061	O206	0.092100	0.815100	0.413900
O2071	O207	0.153000	0.547300	0.207300
O2081	O208	0.243000	0.028800	0.604100
O2091	O209	0.989200	0.962000	0.073200
O2101	O210	0.216100	0.586200	0.313500
O2111	O211	0.180500	0.811100	0.393500
O2121	O212	0.140200	0.491500	0.288600
O2131	O213	0.998400	0.716000	0.873900
O2141	O214	0.815000	0.725600	0.768500
O2151	O215	0.220500	0.161000	0.587700
O2161	O216	0.099300	0.050500	0.244600
N251	N25	0.983000	0.814600	0.974200
N261	N26	0.169700	0.984300	0.500000
N271	N27	0.202400	0.010400	0.390400
N281	N28	0.879200	0.660900	0.915800
C1211	C121	0.999600	0.902600	0.057000
C1221	C122	0.872700	0.660000	0.962800
C1231	C123	0.285100	0.979200	0.470700
C1241	C124	0.926300	0.694000	0.933300
C1251	C125	0.838700	0.703200	0.865700
C1261	C126	0.934800	0.783000	0.956100
C1271	C127	0.987500	0.900800	0.994000
C1281	C128	0.905100	0.595100	0.006500
C1291	C129	0.126600	0.853300	0.455200
C1301	C130	0.987300	0.817900	0.925200
C1311	C131	0.005300	0.735400	0.919300
C1321	C132	0.252000	0.044800	0.430300
C1331	C133	0.121200	0.945900	0.462500
C1341	C134	0.197500	0.983000	0.471900
C1351	C135	0.837100	0.675600	0.812500
C1361	C136	0.177100	0.058900	0.335800
C1371	C137	0.165200	0.062900	0.519100
C1381	C138	0.213800	0.085300	0.576100
C1391	C139	0.173000	0.027700	0.413000
C1401	C140	0.132500	0.010100	0.291500
K251	K25	0.158500	0.674080	0.437190
K261	K26	0.984130	0.712600	0.130930
K271	K27	0.196860	0.703500	0.231570
K281	K28	0.981730	0.461700	0.094600
O2171	O217	0.048000	0.581100	0.184000
U291	U29	0.556240	0.228160	0.061290
U301	U30	0.774330	0.120170	0.412340
U311	U31	0.708660	0.356010	0.362250
U321	U32	0.619780	0.996140	0.111150
I151	I15	0.598000	0.328170	0.207520
I161	I16	0.685180	0.993590	0.275070
O2181	O218	0.515000	0.159300	0.059600
O2191	O219	0.599600	0.119900	0.056400
O2201	O220	0.650300	0.286300	0.272500
O2211	O221	0.621400	0.141400	0.117700
O2221	O222	0.772900	0.265000	0.408300
O2231	O223	0.528300	0.188700	0.963800
O2241	O224	0.562700	0.988400	0.097900
O2251	O225	0.738000	0.232100	0.350000
O2261	O226	0.665600	0.319300	0.495300
O2271	O227	0.418300	0.102600	0.058300
O2281	O228	0.520700	0.335800	0.086800
O2291	O229	0.416300	0.032700	0.988500
O2301	O230	0.355400	0.110400	0.814800
O2311	O231	0.592100	0.241500	0.163800
O2321	O232	0.552600	0.302400	0.218700
O2331	O233	0.731500	0.120800	0.429200
O2341	O234	0.773000	0.404800	0.455000
O2351	O235	0.633700	0.433300	0.297700
O2361	O236	0.822200	0.498300	0.517700
O2371	O237	0.592100	0.315100	0.413900
O2381	O238	0.653000	0.047300	0.207300
O2391	O239	0.743000	0.528800	0.604100
O2401	O240	0.489200	0.462000	0.073200
O2411	O241	0.716100	0.086200	0.313500
O2421	O242	0.680500	0.311100	0.393500
O2431	O243	0.640200	0.991500	0.288600
O2441	O244	0.498400	0.216000	0.873900
O2451	O245	0.315000	0.225600	0.768500
O2461	O246	0.720500	0.661000	0.587700
O2471	O247	0.599300	0.550500	0.244600
N291	N29	0.483000	0.314600	0.974200
N301	N30	0.669700	0.484300	0.500000
N311	N31	0.702400	0.510400	0.390400
N321	N32	0.379200	0.160900	0.915800
C1411	C141	0.499600	0.402600	0.057000
C1421	C142	0.372700	0.160000	0.962800
C1431	C143	0.785100	0.479200	0.470700
C1441	C144	0.426300	0.194000	0.933300
C1451	C145	0.338700	0.203200	0.865700
C1461	C146	0.434800	0.283000	0.956100
C1471	C147	0.487500	0.400800	0.994000
C1481	C148	0.405100	0.095100	0.006500
C1491	C149	0.626600	0.353300	0.455200
C1501	C150	0.487300	0.317900	0.925200
C1511	C151	0.505300	0.235400	0.919300
C1521	C152	0.752000	0.544800	0.430300
C1531	C153	0.621200	0.445900	0.462500
C1541	C154	0.697500	0.483000	0.471900
C1551	C155	0.337100	0.175600	0.812500
C1561	C156	0.677100	0.558900	0.335800
C1571	C157	0.665200	0.562900	0.519100
C1581	C158	0.713800	0.585300	0.576100
C1591	C159	0.673000	0.527700	0.413000
C1601	C160	0.632500	0.510100	0.291500
K291	K29	0.658500	0.174080	0.437190
K301	K30	0.484130	0.212600	0.130930
K311	K31	0.696860	0.203500	0.231570
K321	K32	0.481730	0.961700	0.094600
O2481	O248	0.548000	0.081100	0.184000
