data_QOYYOU_clean_PM
_symmetry_space_group_name_H-M	'P1'
_cell_length_a	52.623000
_cell_length_b	52.623000
_cell_length_c	52.623000
_cell_angle_alpha	90.000000
_cell_angle_beta	90.000000
_cell_angle_gamma	90.000000
_symmetry_Int_Tables_number 1

loop_
_symmetry_equiv_pos_as_xyz
'x,y,z'

loop_
_atom_site_label
_atom_site_type_symbol
_atom_site_fract_x
_atom_site_fract_y
_atom_site_fract_z
Zn11	Zn1	0.219760	0.378900	0.875990
Zn21	Zn2	0.277200	0.374370	0.880530
Zn31	Zn3	0.248990	0.427900	0.879440
Zn41	Zn4	0.249800	0.394370	0.929580
Zn51	Zn5	0.118620	0.373130	0.768550
Zn61	Zn6	0.112240	0.383760	0.709350
Zn71	Zn7	0.097810	0.428550	0.746440
Zn81	Zn8	0.064240	0.379740	0.743680
O11	O1	0.240890	0.383020	0.838310
O21	O2	0.342900	0.370230	0.781850
O31	O3	0.334660	0.384670	0.742990
O41	O4	0.155730	0.376040	0.755240
O51	O5	0.149110	0.393100	0.716700
O61	O6	0.252710	0.386460	0.662190
O71	O7	0.211800	0.379600	0.653160
O81	O8	0.194400	0.401020	0.859690
O91	O9	0.216540	0.437100	0.863450
O101	O10	0.126920	0.402070	0.793650
O111	O11	0.115580	0.439390	0.776800
O121	O12	0.114750	0.552460	0.781070
O131	O13	0.187000	0.581220	0.872880
O141	O14	0.215230	0.551700	0.860700
O151	O15	0.196940	0.374790	0.908510
O161	O16	0.220690	0.377930	0.943620
O171	O17	0.139000	0.276570	0.940780
O181	O18	0.130260	0.303550	0.909190
O191	O19	0.198740	0.364380	0.093920
O201	O20	0.218820	0.377450	0.058120
O211	O21	0.137460	0.273340	0.052110
O221	O22	0.137330	0.294390	0.088410
O231	O23	0.040680	0.408360	0.743300
O241	O24	0.063460	0.443360	0.747810
O251	O25	0.951190	0.407820	0.746780
O261	O26	0.928650	0.443780	0.751550
O271	O27	0.098210	0.392430	0.743000
O281	O28	0.249120	0.394010	0.893060
C11	C1	0.261700	0.375800	0.831720
C21	C2	0.268300	0.376700	0.803780
C31	C3	0.293800	0.375800	0.796710
H11	H1	0.306700	0.374200	0.809300
C41	C4	0.300260	0.377300	0.771350
C51	C5	0.328180	0.377800	0.764900
C61	C6	0.281400	0.378900	0.753010
H21	H2	0.286000	0.379600	0.735600
C71	C7	0.249580	0.378800	0.785240
H31	H3	0.232300	0.379900	0.790200
C81	C8	0.255730	0.379400	0.759660
C91	C9	0.235460	0.380500	0.739800
C101	C10	0.241420	0.381900	0.714330
H41	H4	0.258800	0.382100	0.709400
C111	C11	0.209550	0.380700	0.745900
H51	H5	0.204500	0.379100	0.763200
C121	C12	0.191070	0.383000	0.727300
C131	C13	0.163200	0.383400	0.733700
C141	C14	0.197800	0.384500	0.702600
H61	H6	0.185100	0.386700	0.689900
C151	C15	0.222950	0.383000	0.695690
C161	C16	0.229900	0.383600	0.668020
C171	C17	0.197820	0.424530	0.855890
C181	C18	0.177620	0.438660	0.841540
C191	C19	0.161090	0.425480	0.825840
H71	H7	0.161400	0.407400	0.825200
C201	C20	0.144110	0.439270	0.810990
C211	C21	0.127490	0.425710	0.792290
C221	C22	0.142890	0.465460	0.812910
H81	H8	0.130800	0.474600	0.803100
C231	C23	0.176660	0.465050	0.843030
H91	H9	0.188200	0.473800	0.853800
C241	C24	0.159200	0.478500	0.829040
C251	C25	0.157590	0.507310	0.830820
C261	C26	0.139790	0.521000	0.816950
H101	H10	0.128500	0.512200	0.805900
C271	C27	0.138190	0.547440	0.818870
O291	O29	0.111700	0.582710	0.810340
C281	C28	0.154570	0.560390	0.834700
H111	H11	0.153000	0.578300	0.836800
C291	C29	0.173200	0.547110	0.847400
C301	C30	0.192800	0.561200	0.862000
C311	C31	0.174700	0.521240	0.845300
H121	H12	0.187900	0.512500	0.854000
C321	C32	0.201200	0.370500	0.931000
C331	C33	0.183100	0.353300	0.945100
C341	C34	0.167800	0.336900	0.931220
H131	H13	0.166800	0.338100	0.913200
C351	C35	0.154000	0.318500	0.944330
C361	C36	0.139500	0.298500	0.930150
C371	C37	0.154900	0.317900	0.970950
H141	H14	0.145300	0.305400	0.979700
C381	C38	0.183800	0.352180	0.971820
H151	H15	0.194500	0.363500	0.980900
C391	C39	0.169200	0.335010	0.984950
C401	C40	0.169700	0.333560	0.013760
C411	C41	0.184230	0.350220	0.028350
H161	H16	0.194100	0.362900	0.020000
C421	C42	0.184720	0.348840	0.054640
C431	C43	0.202200	0.365150	0.069790
C441	C44	0.170390	0.330800	0.067150
H171	H17	0.170000	0.330200	0.085200
C451	C45	0.156390	0.313380	0.052460
C461	C46	0.142590	0.292140	0.065860
C471	C47	0.156500	0.314680	0.026260
H181	H18	0.147300	0.302400	0.016700
C481	C48	0.043040	0.431510	0.746300
C491	C49	0.018660	0.446240	0.747200
C501	C50	0.995790	0.433140	0.747500
H191	H19	0.995600	0.415100	0.746600
C511	C51	0.973570	0.446320	0.749000
C521	C52	0.949310	0.431620	0.749200
C531	C53	0.973380	0.472500	0.750000
H201	H20	0.957700	0.481300	0.751400
C541	C54	0.996170	0.485980	0.749000
C551	C55	0.018820	0.472400	0.748400
H211	H21	0.034600	0.481200	0.748900
O301	O30	0.279180	0.367070	0.845330
C561	C56	0.119950	0.561760	0.802200
Zn91	Zn9	0.719760	0.878900	0.375990
Zn101	Zn10	0.777200	0.874370	0.380530
Zn111	Zn11	0.748990	0.927900	0.379440
Zn121	Zn12	0.749800	0.894370	0.429580
Zn131	Zn13	0.618620	0.873130	0.268550
Zn141	Zn14	0.612240	0.883760	0.209350
Zn151	Zn15	0.597810	0.928550	0.246440
Zn161	Zn16	0.564240	0.879740	0.243680
O311	O31	0.740890	0.883020	0.338310
O321	O32	0.842900	0.870230	0.281850
O331	O33	0.834660	0.884670	0.242990
O341	O34	0.655730	0.876040	0.255240
O351	O35	0.649110	0.893100	0.216700
O361	O36	0.752710	0.886460	0.162190
O371	O37	0.711800	0.879600	0.153160
O381	O38	0.694400	0.901020	0.359690
O391	O39	0.716540	0.937100	0.363450
O401	O40	0.626920	0.902070	0.293650
O411	O41	0.615580	0.939390	0.276800
O421	O42	0.614750	0.052460	0.281070
O431	O43	0.687000	0.081220	0.372880
O441	O44	0.715230	0.051700	0.360700
O451	O45	0.696940	0.874790	0.408510
O461	O46	0.720690	0.877930	0.443620
O471	O47	0.639000	0.776570	0.440780
O481	O48	0.630260	0.803550	0.409190
O491	O49	0.698740	0.864380	0.593920
O501	O50	0.718820	0.877450	0.558120
O511	O51	0.637460	0.773340	0.552110
O521	O52	0.637330	0.794390	0.588410
O531	O53	0.540680	0.908360	0.243300
O541	O54	0.563460	0.943360	0.247810
O551	O55	0.451190	0.907820	0.246780
O561	O56	0.428650	0.943780	0.251550
O571	O57	0.598210	0.892430	0.243000
O581	O58	0.749120	0.894010	0.393060
C571	C57	0.761700	0.875800	0.331720
C581	C58	0.768300	0.876700	0.303780
C591	C59	0.793800	0.875800	0.296710
H221	H22	0.806700	0.874200	0.309300
C601	C60	0.800260	0.877300	0.271350
C611	C61	0.828180	0.877800	0.264900
C621	C62	0.781400	0.878900	0.253010
H231	H23	0.786000	0.879600	0.235600
C631	C63	0.749580	0.878800	0.285240
H241	H24	0.732300	0.879900	0.290200
C641	C64	0.755730	0.879400	0.259660
C651	C65	0.735460	0.880500	0.239800
C661	C66	0.741420	0.881900	0.214330
H251	H25	0.758800	0.882100	0.209400
C671	C67	0.709550	0.880700	0.245900
H261	H26	0.704500	0.879100	0.263200
C681	C68	0.691070	0.883000	0.227300
C691	C69	0.663200	0.883400	0.233700
C701	C70	0.697800	0.884500	0.202600
H271	H27	0.685100	0.886700	0.189900
C711	C71	0.722950	0.883000	0.195690
C721	C72	0.729900	0.883600	0.168020
C731	C73	0.697820	0.924530	0.355890
C741	C74	0.677620	0.938660	0.341540
C751	C75	0.661090	0.925480	0.325840
H281	H28	0.661400	0.907400	0.325200
C761	C76	0.644110	0.939270	0.310990
C771	C77	0.627490	0.925710	0.292290
C781	C78	0.642890	0.965460	0.312910
H291	H29	0.630800	0.974600	0.303100
C791	C79	0.676660	0.965050	0.343030
H301	H30	0.688200	0.973800	0.353800
C801	C80	0.659200	0.978500	0.329040
C811	C81	0.657590	0.007310	0.330820
C821	C82	0.639790	0.021000	0.316950
H311	H31	0.628500	0.012200	0.305900
C831	C83	0.638190	0.047440	0.318870
O591	O59	0.611700	0.082710	0.310340
C841	C84	0.654570	0.060390	0.334700
H321	H32	0.653000	0.078300	0.336800
C851	C85	0.673200	0.047110	0.347400
C861	C86	0.692800	0.061200	0.362000
C871	C87	0.674700	0.021240	0.345300
H331	H33	0.687900	0.012500	0.354000
C881	C88	0.701200	0.870500	0.431000
C891	C89	0.683100	0.853300	0.445100
C901	C90	0.667800	0.836900	0.431220
H341	H34	0.666800	0.838100	0.413200
C911	C91	0.654000	0.818500	0.444330
C921	C92	0.639500	0.798500	0.430150
C931	C93	0.654900	0.817900	0.470950
H351	H35	0.645300	0.805400	0.479700
C941	C94	0.683800	0.852180	0.471820
H361	H36	0.694500	0.863500	0.480900
C951	C95	0.669200	0.835010	0.484950
C961	C96	0.669700	0.833560	0.513760
C971	C97	0.684230	0.850220	0.528350
H371	H37	0.694100	0.862900	0.520000
C981	C98	0.684720	0.848840	0.554640
C991	C99	0.702200	0.865150	0.569790
C1001	C100	0.670390	0.830800	0.567150
H381	H38	0.670000	0.830200	0.585200
C1011	C101	0.656390	0.813380	0.552460
C1021	C102	0.642590	0.792140	0.565860
C1031	C103	0.656500	0.814680	0.526260
H391	H39	0.647300	0.802400	0.516700
C1041	C104	0.543040	0.931510	0.246300
C1051	C105	0.518660	0.946240	0.247200
C1061	C106	0.495790	0.933140	0.247500
H401	H40	0.495600	0.915100	0.246600
C1071	C107	0.473570	0.946320	0.249000
C1081	C108	0.449310	0.931620	0.249200
C1091	C109	0.473380	0.972500	0.250000
H411	H41	0.457700	0.981300	0.251400
C1101	C110	0.496170	0.985980	0.249000
C1111	C111	0.518820	0.972400	0.248400
H421	H42	0.534600	0.981200	0.248900
O601	O60	0.779180	0.867070	0.345330
C1121	C112	0.619950	0.061760	0.302200
Zn171	Zn17	0.280240	0.621100	0.375990
Zn181	Zn18	0.222800	0.625630	0.380530
Zn191	Zn19	0.251010	0.572100	0.379440
Zn201	Zn20	0.250200	0.605630	0.429580
Zn211	Zn21	0.381380	0.626870	0.268550
Zn221	Zn22	0.387760	0.616240	0.209350
Zn231	Zn23	0.402190	0.571450	0.246440
Zn241	Zn24	0.435760	0.620260	0.243680
O611	O61	0.259110	0.616980	0.338310
O621	O62	0.157100	0.629770	0.281850
O631	O63	0.165340	0.615330	0.242990
O641	O64	0.344270	0.623960	0.255240
O651	O65	0.350890	0.606900	0.216700
O661	O66	0.247290	0.613540	0.162190
O671	O67	0.288200	0.620400	0.153160
O681	O68	0.305600	0.598980	0.359690
O691	O69	0.283460	0.562900	0.363450
O701	O70	0.373080	0.597930	0.293650
O711	O71	0.384420	0.560610	0.276800
O721	O72	0.385250	0.447540	0.281070
O731	O73	0.313000	0.418780	0.372880
O741	O74	0.284770	0.448300	0.360700
O751	O75	0.303060	0.625210	0.408510
O761	O76	0.279310	0.622070	0.443620
O771	O77	0.361000	0.723430	0.440780
O781	O78	0.369740	0.696450	0.409190
O791	O79	0.301260	0.635620	0.593920
O801	O80	0.281180	0.622550	0.558120
O811	O81	0.362540	0.726660	0.552110
O821	O82	0.362670	0.705610	0.588410
O831	O83	0.459320	0.591640	0.243300
O841	O84	0.436540	0.556640	0.247810
O851	O85	0.548810	0.592180	0.246780
O861	O86	0.571350	0.556220	0.251550
O871	O87	0.401790	0.607570	0.243000
O881	O88	0.250880	0.605990	0.393060
C1131	C113	0.238300	0.624200	0.331720
C1141	C114	0.231700	0.623300	0.303780
C1151	C115	0.206200	0.624200	0.296710
H431	H43	0.193300	0.625800	0.309300
C1161	C116	0.199740	0.622700	0.271350
C1171	C117	0.171820	0.622200	0.264900
C1181	C118	0.218600	0.621100	0.253010
H441	H44	0.214000	0.620400	0.235600
C1191	C119	0.250420	0.621200	0.285240
H451	H45	0.267700	0.620100	0.290200
C1201	C120	0.244270	0.620600	0.259660
C1211	C121	0.264540	0.619500	0.239800
C1221	C122	0.258580	0.618100	0.214330
H461	H46	0.241200	0.617900	0.209400
C1231	C123	0.290450	0.619300	0.245900
H471	H47	0.295500	0.620900	0.263200
C1241	C124	0.308930	0.617000	0.227300
C1251	C125	0.336800	0.616600	0.233700
C1261	C126	0.302200	0.615500	0.202600
H481	H48	0.314900	0.613300	0.189900
C1271	C127	0.277050	0.617000	0.195690
C1281	C128	0.270100	0.616400	0.168020
C1291	C129	0.302180	0.575470	0.355890
C1301	C130	0.322380	0.561340	0.341540
C1311	C131	0.338910	0.574520	0.325840
H491	H49	0.338600	0.592600	0.325200
C1321	C132	0.355890	0.560730	0.310990
C1331	C133	0.372510	0.574290	0.292290
C1341	C134	0.357110	0.534540	0.312910
H501	H50	0.369200	0.525400	0.303100
C1351	C135	0.323340	0.534950	0.343030
H511	H51	0.311800	0.526200	0.353800
C1361	C136	0.340800	0.521500	0.329040
C1371	C137	0.342410	0.492690	0.330820
C1381	C138	0.360210	0.479000	0.316950
H521	H52	0.371500	0.487800	0.305900
C1391	C139	0.361810	0.452560	0.318870
O891	O89	0.388300	0.417290	0.310340
C1401	C140	0.345430	0.439610	0.334700
H531	H53	0.347000	0.421700	0.336800
C1411	C141	0.326800	0.452890	0.347400
C1421	C142	0.307200	0.438800	0.362000
C1431	C143	0.325300	0.478760	0.345300
H541	H54	0.312100	0.487500	0.354000
C1441	C144	0.298800	0.629500	0.431000
C1451	C145	0.316900	0.646700	0.445100
C1461	C146	0.332200	0.663100	0.431220
H551	H55	0.333200	0.661900	0.413200
C1471	C147	0.346000	0.681500	0.444330
C1481	C148	0.360500	0.701500	0.430150
C1491	C149	0.345100	0.682100	0.470950
H561	H56	0.354700	0.694600	0.479700
C1501	C150	0.316200	0.647820	0.471820
H571	H57	0.305500	0.636500	0.480900
C1511	C151	0.330800	0.664990	0.484950
C1521	C152	0.330300	0.666440	0.513760
C1531	C153	0.315770	0.649780	0.528350
H581	H58	0.305900	0.637100	0.520000
C1541	C154	0.315280	0.651160	0.554640
C1551	C155	0.297800	0.634850	0.569790
C1561	C156	0.329610	0.669200	0.567150
H591	H59	0.330000	0.669800	0.585200
C1571	C157	0.343610	0.686620	0.552460
C1581	C158	0.357410	0.707860	0.565860
C1591	C159	0.343500	0.685320	0.526260
H601	H60	0.352700	0.697600	0.516700
C1601	C160	0.456960	0.568490	0.246300
C1611	C161	0.481340	0.553760	0.247200
C1621	C162	0.504210	0.566860	0.247500
H611	H61	0.504400	0.584900	0.246600
C1631	C163	0.526430	0.553680	0.249000
C1641	C164	0.550690	0.568380	0.249200
C1651	C165	0.526620	0.527500	0.250000
H621	H62	0.542300	0.518700	0.251400
C1661	C166	0.503830	0.514020	0.249000
C1671	C167	0.481180	0.527600	0.248400
H631	H63	0.465400	0.518800	0.248900
O901	O90	0.220820	0.632930	0.345330
C1681	C168	0.380050	0.438240	0.302200
Zn251	Zn25	0.780240	0.121100	0.875990
Zn261	Zn26	0.722800	0.125630	0.880530
Zn271	Zn27	0.751010	0.072100	0.879440
Zn281	Zn28	0.750200	0.105630	0.929580
Zn291	Zn29	0.881380	0.126870	0.768550
Zn301	Zn30	0.887760	0.116240	0.709350
Zn311	Zn31	0.902190	0.071450	0.746440
Zn321	Zn32	0.935760	0.120260	0.743680
O911	O91	0.759110	0.116980	0.838310
O921	O92	0.657100	0.129770	0.781850
O931	O93	0.665340	0.115330	0.742990
O941	O94	0.844270	0.123960	0.755240
O951	O95	0.850890	0.106900	0.716700
O961	O96	0.747290	0.113540	0.662190
O971	O97	0.788200	0.120400	0.653160
O981	O98	0.805600	0.098980	0.859690
O991	O99	0.783460	0.062900	0.863450
O1001	O100	0.873080	0.097930	0.793650
O1011	O101	0.884420	0.060610	0.776800
O1021	O102	0.885250	0.947540	0.781070
O1031	O103	0.813000	0.918780	0.872880
O1041	O104	0.784770	0.948300	0.860700
O1051	O105	0.803060	0.125210	0.908510
O1061	O106	0.779310	0.122070	0.943620
O1071	O107	0.861000	0.223430	0.940780
O1081	O108	0.869740	0.196450	0.909190
O1091	O109	0.801260	0.135620	0.093920
O1101	O110	0.781180	0.122550	0.058120
O1111	O111	0.862540	0.226660	0.052110
O1121	O112	0.862670	0.205610	0.088410
O1131	O113	0.959320	0.091640	0.743300
O1141	O114	0.936540	0.056640	0.747810
O1151	O115	0.048810	0.092180	0.746780
O1161	O116	0.071350	0.056220	0.751550
O1171	O117	0.901790	0.107570	0.743000
O1181	O118	0.750880	0.105990	0.893060
C1691	C169	0.738300	0.124200	0.831720
C1701	C170	0.731700	0.123300	0.803780
C1711	C171	0.706200	0.124200	0.796710
H641	H64	0.693300	0.125800	0.809300
C1721	C172	0.699740	0.122700	0.771350
C1731	C173	0.671820	0.122200	0.764900
C1741	C174	0.718600	0.121100	0.753010
H651	H65	0.714000	0.120400	0.735600
C1751	C175	0.750420	0.121200	0.785240
H661	H66	0.767700	0.120100	0.790200
C1761	C176	0.744270	0.120600	0.759660
C1771	C177	0.764540	0.119500	0.739800
C1781	C178	0.758580	0.118100	0.714330
H671	H67	0.741200	0.117900	0.709400
C1791	C179	0.790450	0.119300	0.745900
H681	H68	0.795500	0.120900	0.763200
C1801	C180	0.808930	0.117000	0.727300
C1811	C181	0.836800	0.116600	0.733700
C1821	C182	0.802200	0.115500	0.702600
H691	H69	0.814900	0.113300	0.689900
C1831	C183	0.777050	0.117000	0.695690
C1841	C184	0.770100	0.116400	0.668020
C1851	C185	0.802180	0.075470	0.855890
C1861	C186	0.822380	0.061340	0.841540
C1871	C187	0.838910	0.074520	0.825840
H701	H70	0.838600	0.092600	0.825200
C1881	C188	0.855890	0.060730	0.810990
C1891	C189	0.872510	0.074290	0.792290
C1901	C190	0.857110	0.034540	0.812910
H711	H71	0.869200	0.025400	0.803100
C1911	C191	0.823340	0.034950	0.843030
H721	H72	0.811800	0.026200	0.853800
C1921	C192	0.840800	0.021500	0.829040
C1931	C193	0.842410	0.992690	0.830820
C1941	C194	0.860210	0.979000	0.816950
H731	H73	0.871500	0.987800	0.805900
C1951	C195	0.861810	0.952560	0.818870
O1191	O119	0.888300	0.917290	0.810340
C1961	C196	0.845430	0.939610	0.834700
H741	H74	0.847000	0.921700	0.836800
C1971	C197	0.826800	0.952890	0.847400
C1981	C198	0.807200	0.938800	0.862000
C1991	C199	0.825300	0.978760	0.845300
H751	H75	0.812100	0.987500	0.854000
C2001	C200	0.798800	0.129500	0.931000
C2011	C201	0.816900	0.146700	0.945100
C2021	C202	0.832200	0.163100	0.931220
H761	H76	0.833200	0.161900	0.913200
C2031	C203	0.846000	0.181500	0.944330
C2041	C204	0.860500	0.201500	0.930150
C2051	C205	0.845100	0.182100	0.970950
H771	H77	0.854700	0.194600	0.979700
C2061	C206	0.816200	0.147820	0.971820
H781	H78	0.805500	0.136500	0.980900
C2071	C207	0.830800	0.164990	0.984950
C2081	C208	0.830300	0.166440	0.013760
C2091	C209	0.815770	0.149780	0.028350
H791	H79	0.805900	0.137100	0.020000
C2101	C210	0.815280	0.151160	0.054640
C2111	C211	0.797800	0.134850	0.069790
C2121	C212	0.829610	0.169200	0.067150
H801	H80	0.830000	0.169800	0.085200
C2131	C213	0.843610	0.186620	0.052460
C2141	C214	0.857410	0.207860	0.065860
C2151	C215	0.843500	0.185320	0.026260
H811	H81	0.852700	0.197600	0.016700
C2161	C216	0.956960	0.068490	0.746300
C2171	C217	0.981340	0.053760	0.747200
C2181	C218	0.004210	0.066860	0.747500
H821	H82	0.004400	0.084900	0.746600
C2191	C219	0.026430	0.053680	0.749000
C2201	C220	0.050690	0.068380	0.749200
C2211	C221	0.026620	0.027500	0.750000
H831	H83	0.042300	0.018700	0.751400
C2221	C222	0.003830	0.014020	0.749000
C2231	C223	0.981180	0.027600	0.748400
H841	H84	0.965400	0.018800	0.748900
O1201	O120	0.720820	0.132930	0.845330
C2241	C224	0.880050	0.938240	0.802200
Zn331	Zn33	0.780240	0.878900	0.624010
Zn341	Zn34	0.722800	0.874370	0.619470
Zn351	Zn35	0.751010	0.927900	0.620560
Zn361	Zn36	0.750200	0.894370	0.570420
Zn371	Zn37	0.881380	0.873130	0.731450
Zn381	Zn38	0.887760	0.883760	0.790650
Zn391	Zn39	0.902190	0.928550	0.753560
Zn401	Zn40	0.935760	0.879740	0.756320
O1211	O121	0.759110	0.883020	0.661690
O1221	O122	0.657100	0.870230	0.718150
O1231	O123	0.665340	0.884670	0.757010
O1241	O124	0.844270	0.876040	0.744760
O1251	O125	0.850890	0.893100	0.783300
O1261	O126	0.747290	0.886460	0.837810
O1271	O127	0.788200	0.879600	0.846840
O1281	O128	0.805600	0.901020	0.640310
O1291	O129	0.783460	0.937100	0.636550
O1301	O130	0.873080	0.902070	0.706350
O1311	O131	0.884420	0.939390	0.723200
O1321	O132	0.885250	0.052460	0.718930
O1331	O133	0.813000	0.081220	0.627120
O1341	O134	0.784770	0.051700	0.639300
O1351	O135	0.803060	0.874790	0.591490
O1361	O136	0.779310	0.877930	0.556380
O1371	O137	0.861000	0.776570	0.559220
O1381	O138	0.869740	0.803550	0.590810
O1391	O139	0.801260	0.864380	0.406080
O1401	O140	0.781180	0.877450	0.441880
O1411	O141	0.862540	0.773340	0.447890
O1421	O142	0.862670	0.794390	0.411590
O1431	O143	0.959320	0.908360	0.756700
O1441	O144	0.936540	0.943360	0.752190
O1451	O145	0.048810	0.907820	0.753220
O1461	O146	0.071350	0.943780	0.748450
O1471	O147	0.901790	0.892430	0.757000
O1481	O148	0.750880	0.894010	0.606940
C2251	C225	0.738300	0.875800	0.668280
C2261	C226	0.731700	0.876700	0.696220
C2271	C227	0.706200	0.875800	0.703290
H851	H85	0.693300	0.874200	0.690700
C2281	C228	0.699740	0.877300	0.728650
C2291	C229	0.671820	0.877800	0.735100
C2301	C230	0.718600	0.878900	0.746990
H861	H86	0.714000	0.879600	0.764400
C2311	C231	0.750420	0.878800	0.714760
H871	H87	0.767700	0.879900	0.709800
C2321	C232	0.744270	0.879400	0.740340
C2331	C233	0.764540	0.880500	0.760200
C2341	C234	0.758580	0.881900	0.785670
H881	H88	0.741200	0.882100	0.790600
C2351	C235	0.790450	0.880700	0.754100
H891	H89	0.795500	0.879100	0.736800
C2361	C236	0.808930	0.883000	0.772700
C2371	C237	0.836800	0.883400	0.766300
C2381	C238	0.802200	0.884500	0.797400
H901	H90	0.814900	0.886700	0.810100
C2391	C239	0.777050	0.883000	0.804310
C2401	C240	0.770100	0.883600	0.831980
C2411	C241	0.802180	0.924530	0.644110
C2421	C242	0.822380	0.938660	0.658460
C2431	C243	0.838910	0.925480	0.674160
H911	H91	0.838600	0.907400	0.674800
C2441	C244	0.855890	0.939270	0.689010
C2451	C245	0.872510	0.925710	0.707710
C2461	C246	0.857110	0.965460	0.687090
H921	H92	0.869200	0.974600	0.696900
C2471	C247	0.823340	0.965050	0.656970
H931	H93	0.811800	0.973800	0.646200
C2481	C248	0.840800	0.978500	0.670960
C2491	C249	0.842410	0.007310	0.669180
C2501	C250	0.860210	0.021000	0.683050
H941	H94	0.871500	0.012200	0.694100
C2511	C251	0.861810	0.047440	0.681130
O1491	O149	0.888300	0.082710	0.689660
C2521	C252	0.845430	0.060390	0.665300
H951	H95	0.847000	0.078300	0.663200
C2531	C253	0.826800	0.047110	0.652600
C2541	C254	0.807200	0.061200	0.638000
C2551	C255	0.825300	0.021240	0.654700
H961	H96	0.812100	0.012500	0.646000
C2561	C256	0.798800	0.870500	0.569000
C2571	C257	0.816900	0.853300	0.554900
C2581	C258	0.832200	0.836900	0.568780
H971	H97	0.833200	0.838100	0.586800
C2591	C259	0.846000	0.818500	0.555670
C2601	C260	0.860500	0.798500	0.569850
C2611	C261	0.845100	0.817900	0.529050
H981	H98	0.854700	0.805400	0.520300
C2621	C262	0.816200	0.852180	0.528180
H991	H99	0.805500	0.863500	0.519100
C2631	C263	0.830800	0.835010	0.515050
C2641	C264	0.830300	0.833560	0.486240
C2651	C265	0.815770	0.850220	0.471650
H1001	H100	0.805900	0.862900	0.480000
C2661	C266	0.815280	0.848840	0.445360
C2671	C267	0.797800	0.865150	0.430210
C2681	C268	0.829610	0.830800	0.432850
H1011	H101	0.830000	0.830200	0.414800
C2691	C269	0.843610	0.813380	0.447540
C2701	C270	0.857410	0.792140	0.434140
C2711	C271	0.843500	0.814680	0.473740
H1021	H102	0.852700	0.802400	0.483300
C2721	C272	0.956960	0.931510	0.753700
C2731	C273	0.981340	0.946240	0.752800
C2741	C274	0.004210	0.933140	0.752500
H1031	H103	0.004400	0.915100	0.753400
C2751	C275	0.026430	0.946320	0.751000
C2761	C276	0.050690	0.931620	0.750800
C2771	C277	0.026620	0.972500	0.750000
H1041	H104	0.042300	0.981300	0.748600
C2781	C278	0.003830	0.985980	0.751000
C2791	C279	0.981180	0.972400	0.751600
H1051	H105	0.965400	0.981200	0.751100
O1501	O150	0.720820	0.867070	0.654670
C2801	C280	0.880050	0.061760	0.697800
Zn411	Zn41	0.280240	0.378900	0.124010
Zn421	Zn42	0.222800	0.374370	0.119470
Zn431	Zn43	0.251010	0.427900	0.120560
Zn441	Zn44	0.250200	0.394370	0.070420
Zn451	Zn45	0.381380	0.373130	0.231450
Zn461	Zn46	0.387760	0.383760	0.290650
Zn471	Zn47	0.402190	0.428550	0.253560
Zn481	Zn48	0.435760	0.379740	0.256320
O1511	O151	0.259110	0.383020	0.161690
O1521	O152	0.157100	0.370230	0.218150
O1531	O153	0.165340	0.384670	0.257010
O1541	O154	0.344270	0.376040	0.244760
O1551	O155	0.350890	0.393100	0.283300
O1561	O156	0.247290	0.386460	0.337810
O1571	O157	0.288200	0.379600	0.346840
O1581	O158	0.305600	0.401020	0.140310
O1591	O159	0.283460	0.437100	0.136550
O1601	O160	0.373080	0.402070	0.206350
O1611	O161	0.384420	0.439390	0.223200
O1621	O162	0.385250	0.552460	0.218930
O1631	O163	0.313000	0.581220	0.127120
O1641	O164	0.284770	0.551700	0.139300
O1651	O165	0.303060	0.374790	0.091490
O1661	O166	0.279310	0.377930	0.056380
O1671	O167	0.361000	0.276570	0.059220
O1681	O168	0.369740	0.303550	0.090810
O1691	O169	0.301260	0.364380	0.906080
O1701	O170	0.281180	0.377450	0.941880
O1711	O171	0.362540	0.273340	0.947890
O1721	O172	0.362670	0.294390	0.911590
O1731	O173	0.459320	0.408360	0.256700
O1741	O174	0.436540	0.443360	0.252190
O1751	O175	0.548810	0.407820	0.253220
O1761	O176	0.571350	0.443780	0.248450
O1771	O177	0.401790	0.392430	0.257000
O1781	O178	0.250880	0.394010	0.106940
C2811	C281	0.238300	0.375800	0.168280
C2821	C282	0.231700	0.376700	0.196220
C2831	C283	0.206200	0.375800	0.203290
H1061	H106	0.193300	0.374200	0.190700
C2841	C284	0.199740	0.377300	0.228650
C2851	C285	0.171820	0.377800	0.235100
C2861	C286	0.218600	0.378900	0.246990
H1071	H107	0.214000	0.379600	0.264400
C2871	C287	0.250420	0.378800	0.214760
H1081	H108	0.267700	0.379900	0.209800
C2881	C288	0.244270	0.379400	0.240340
C2891	C289	0.264540	0.380500	0.260200
C2901	C290	0.258580	0.381900	0.285670
H1091	H109	0.241200	0.382100	0.290600
C2911	C291	0.290450	0.380700	0.254100
H1101	H110	0.295500	0.379100	0.236800
C2921	C292	0.308930	0.383000	0.272700
C2931	C293	0.336800	0.383400	0.266300
C2941	C294	0.302200	0.384500	0.297400
H1111	H111	0.314900	0.386700	0.310100
C2951	C295	0.277050	0.383000	0.304310
C2961	C296	0.270100	0.383600	0.331980
C2971	C297	0.302180	0.424530	0.144110
C2981	C298	0.322380	0.438660	0.158460
C2991	C299	0.338910	0.425480	0.174160
H1121	H112	0.338600	0.407400	0.174800
C3001	C300	0.355890	0.439270	0.189010
C3011	C301	0.372510	0.425710	0.207710
C3021	C302	0.357110	0.465460	0.187090
H1131	H113	0.369200	0.474600	0.196900
C3031	C303	0.323340	0.465050	0.156970
H1141	H114	0.311800	0.473800	0.146200
C3041	C304	0.340800	0.478500	0.170960
C3051	C305	0.342410	0.507310	0.169180
C3061	C306	0.360210	0.521000	0.183050
H1151	H115	0.371500	0.512200	0.194100
C3071	C307	0.361810	0.547440	0.181130
O1791	O179	0.388300	0.582710	0.189660
C3081	C308	0.345430	0.560390	0.165300
H1161	H116	0.347000	0.578300	0.163200
C3091	C309	0.326800	0.547110	0.152600
C3101	C310	0.307200	0.561200	0.138000
C3111	C311	0.325300	0.521240	0.154700
H1171	H117	0.312100	0.512500	0.146000
C3121	C312	0.298800	0.370500	0.069000
C3131	C313	0.316900	0.353300	0.054900
C3141	C314	0.332200	0.336900	0.068780
H1181	H118	0.333200	0.338100	0.086800
C3151	C315	0.346000	0.318500	0.055670
C3161	C316	0.360500	0.298500	0.069850
C3171	C317	0.345100	0.317900	0.029050
H1191	H119	0.354700	0.305400	0.020300
C3181	C318	0.316200	0.352180	0.028180
H1201	H120	0.305500	0.363500	0.019100
C3191	C319	0.330800	0.335010	0.015050
C3201	C320	0.330300	0.333560	0.986240
C3211	C321	0.315770	0.350220	0.971650
H1211	H121	0.305900	0.362900	0.980000
C3221	C322	0.315280	0.348840	0.945360
C3231	C323	0.297800	0.365150	0.930210
C3241	C324	0.329610	0.330800	0.932850
H1221	H122	0.330000	0.330200	0.914800
C3251	C325	0.343610	0.313380	0.947540
C3261	C326	0.357410	0.292140	0.934140
C3271	C327	0.343500	0.314680	0.973740
H1231	H123	0.352700	0.302400	0.983300
C3281	C328	0.456960	0.431510	0.253700
C3291	C329	0.481340	0.446240	0.252800
C3301	C330	0.504210	0.433140	0.252500
H1241	H124	0.504400	0.415100	0.253400
C3311	C331	0.526430	0.446320	0.251000
C3321	C332	0.550690	0.431620	0.250800
C3331	C333	0.526620	0.472500	0.250000
H1251	H125	0.542300	0.481300	0.248600
C3341	C334	0.503830	0.485980	0.251000
C3351	C335	0.481180	0.472400	0.251600
H1261	H126	0.465400	0.481200	0.251100
O1801	O180	0.220820	0.367070	0.154670
C3361	C336	0.380050	0.561760	0.197800
Zn491	Zn49	0.719760	0.121100	0.124010
Zn501	Zn50	0.777200	0.125630	0.119470
Zn511	Zn51	0.748990	0.072100	0.120560
Zn521	Zn52	0.749800	0.105630	0.070420
Zn531	Zn53	0.618620	0.126870	0.231450
Zn541	Zn54	0.612240	0.116240	0.290650
Zn551	Zn55	0.597810	0.071450	0.253560
Zn561	Zn56	0.564240	0.120260	0.256320
O1811	O181	0.740890	0.116980	0.161690
O1821	O182	0.842900	0.129770	0.218150
O1831	O183	0.834660	0.115330	0.257010
O1841	O184	0.655730	0.123960	0.244760
O1851	O185	0.649110	0.106900	0.283300
O1861	O186	0.752710	0.113540	0.337810
O1871	O187	0.711800	0.120400	0.346840
O1881	O188	0.694400	0.098980	0.140310
O1891	O189	0.716540	0.062900	0.136550
O1901	O190	0.626920	0.097930	0.206350
O1911	O191	0.615580	0.060610	0.223200
O1921	O192	0.614750	0.947540	0.218930
O1931	O193	0.687000	0.918780	0.127120
O1941	O194	0.715230	0.948300	0.139300
O1951	O195	0.696940	0.125210	0.091490
O1961	O196	0.720690	0.122070	0.056380
O1971	O197	0.639000	0.223430	0.059220
O1981	O198	0.630260	0.196450	0.090810
O1991	O199	0.698740	0.135620	0.906080
O2001	O200	0.718820	0.122550	0.941880
O2011	O201	0.637460	0.226660	0.947890
O2021	O202	0.637330	0.205610	0.911590
O2031	O203	0.540680	0.091640	0.256700
O2041	O204	0.563460	0.056640	0.252190
O2051	O205	0.451190	0.092180	0.253220
O2061	O206	0.428650	0.056220	0.248450
O2071	O207	0.598210	0.107570	0.257000
O2081	O208	0.749120	0.105990	0.106940
C3371	C337	0.761700	0.124200	0.168280
C3381	C338	0.768300	0.123300	0.196220
C3391	C339	0.793800	0.124200	0.203290
H1271	H127	0.806700	0.125800	0.190700
C3401	C340	0.800260	0.122700	0.228650
C3411	C341	0.828180	0.122200	0.235100
C3421	C342	0.781400	0.121100	0.246990
H1281	H128	0.786000	0.120400	0.264400
C3431	C343	0.749580	0.121200	0.214760
H1291	H129	0.732300	0.120100	0.209800
C3441	C344	0.755730	0.120600	0.240340
C3451	C345	0.735460	0.119500	0.260200
C3461	C346	0.741420	0.118100	0.285670
H1301	H130	0.758800	0.117900	0.290600
C3471	C347	0.709550	0.119300	0.254100
H1311	H131	0.704500	0.120900	0.236800
C3481	C348	0.691070	0.117000	0.272700
C3491	C349	0.663200	0.116600	0.266300
C3501	C350	0.697800	0.115500	0.297400
H1321	H132	0.685100	0.113300	0.310100
C3511	C351	0.722950	0.117000	0.304310
C3521	C352	0.729900	0.116400	0.331980
C3531	C353	0.697820	0.075470	0.144110
C3541	C354	0.677620	0.061340	0.158460
C3551	C355	0.661090	0.074520	0.174160
H1331	H133	0.661400	0.092600	0.174800
C3561	C356	0.644110	0.060730	0.189010
C3571	C357	0.627490	0.074290	0.207710
C3581	C358	0.642890	0.034540	0.187090
H1341	H134	0.630800	0.025400	0.196900
C3591	C359	0.676660	0.034950	0.156970
H1351	H135	0.688200	0.026200	0.146200
C3601	C360	0.659200	0.021500	0.170960
C3611	C361	0.657590	0.992690	0.169180
C3621	C362	0.639790	0.979000	0.183050
H1361	H136	0.628500	0.987800	0.194100
C3631	C363	0.638190	0.952560	0.181130
O2091	O209	0.611700	0.917290	0.189660
C3641	C364	0.654570	0.939610	0.165300
H1371	H137	0.653000	0.921700	0.163200
C3651	C365	0.673200	0.952890	0.152600
C3661	C366	0.692800	0.938800	0.138000
C3671	C367	0.674700	0.978760	0.154700
H1381	H138	0.687900	0.987500	0.146000
C3681	C368	0.701200	0.129500	0.069000
C3691	C369	0.683100	0.146700	0.054900
C3701	C370	0.667800	0.163100	0.068780
H1391	H139	0.666800	0.161900	0.086800
C3711	C371	0.654000	0.181500	0.055670
C3721	C372	0.639500	0.201500	0.069850
C3731	C373	0.654900	0.182100	0.029050
H1401	H140	0.645300	0.194600	0.020300
C3741	C374	0.683800	0.147820	0.028180
H1411	H141	0.694500	0.136500	0.019100
C3751	C375	0.669200	0.164990	0.015050
C3761	C376	0.669700	0.166440	0.986240
C3771	C377	0.684230	0.149780	0.971650
H1421	H142	0.694100	0.137100	0.980000
C3781	C378	0.684720	0.151160	0.945360
C3791	C379	0.702200	0.134850	0.930210
C3801	C380	0.670390	0.169200	0.932850
H1431	H143	0.670000	0.169800	0.914800
C3811	C381	0.656390	0.186620	0.947540
C3821	C382	0.642590	0.207860	0.934140
C3831	C383	0.656500	0.185320	0.973740
H1441	H144	0.647300	0.197600	0.983300
C3841	C384	0.543040	0.068490	0.253700
C3851	C385	0.518660	0.053760	0.252800
C3861	C386	0.495790	0.066860	0.252500
H1451	H145	0.495600	0.084900	0.253400
C3871	C387	0.473570	0.053680	0.251000
C3881	C388	0.449310	0.068380	0.250800
C3891	C389	0.473380	0.027500	0.250000
H1461	H146	0.457700	0.018700	0.248600
C3901	C390	0.496170	0.014020	0.251000
C3911	C391	0.518820	0.027600	0.251600
H1471	H147	0.534600	0.018800	0.251100
O2101	O210	0.779180	0.132930	0.154670
C3921	C392	0.619950	0.938240	0.197800
Zn571	Zn57	0.219760	0.621100	0.624010
Zn581	Zn58	0.277200	0.625630	0.619470
Zn591	Zn59	0.248990	0.572100	0.620560
Zn601	Zn60	0.249800	0.605630	0.570420
Zn611	Zn61	0.118620	0.626870	0.731450
Zn621	Zn62	0.112240	0.616240	0.790650
Zn631	Zn63	0.097810	0.571450	0.753560
Zn641	Zn64	0.064240	0.620260	0.756320
O2111	O211	0.240890	0.616980	0.661690
O2121	O212	0.342900	0.629770	0.718150
O2131	O213	0.334660	0.615330	0.757010
O2141	O214	0.155730	0.623960	0.744760
O2151	O215	0.149110	0.606900	0.783300
O2161	O216	0.252710	0.613540	0.837810
O2171	O217	0.211800	0.620400	0.846840
O2181	O218	0.194400	0.598980	0.640310
O2191	O219	0.216540	0.562900	0.636550
O2201	O220	0.126920	0.597930	0.706350
O2211	O221	0.115580	0.560610	0.723200
O2221	O222	0.114750	0.447540	0.718930
O2231	O223	0.187000	0.418780	0.627120
O2241	O224	0.215230	0.448300	0.639300
O2251	O225	0.196940	0.625210	0.591490
O2261	O226	0.220690	0.622070	0.556380
O2271	O227	0.139000	0.723430	0.559220
O2281	O228	0.130260	0.696450	0.590810
O2291	O229	0.198740	0.635620	0.406080
O2301	O230	0.218820	0.622550	0.441880
O2311	O231	0.137460	0.726660	0.447890
O2321	O232	0.137330	0.705610	0.411590
O2331	O233	0.040680	0.591640	0.756700
O2341	O234	0.063460	0.556640	0.752190
O2351	O235	0.951190	0.592180	0.753220
O2361	O236	0.928650	0.556220	0.748450
O2371	O237	0.098210	0.607570	0.757000
O2381	O238	0.249120	0.605990	0.606940
C3931	C393	0.261700	0.624200	0.668280
C3941	C394	0.268300	0.623300	0.696220
C3951	C395	0.293800	0.624200	0.703290
H1481	H148	0.306700	0.625800	0.690700
C3961	C396	0.300260	0.622700	0.728650
C3971	C397	0.328180	0.622200	0.735100
C3981	C398	0.281400	0.621100	0.746990
H1491	H149	0.286000	0.620400	0.764400
C3991	C399	0.249580	0.621200	0.714760
H1501	H150	0.232300	0.620100	0.709800
C4001	C400	0.255730	0.620600	0.740340
C4011	C401	0.235460	0.619500	0.760200
C4021	C402	0.241420	0.618100	0.785670
H1511	H151	0.258800	0.617900	0.790600
C4031	C403	0.209550	0.619300	0.754100
H1521	H152	0.204500	0.620900	0.736800
C4041	C404	0.191070	0.617000	0.772700
C4051	C405	0.163200	0.616600	0.766300
C4061	C406	0.197800	0.615500	0.797400
H1531	H153	0.185100	0.613300	0.810100
C4071	C407	0.222950	0.617000	0.804310
C4081	C408	0.229900	0.616400	0.831980
C4091	C409	0.197820	0.575470	0.644110
C4101	C410	0.177620	0.561340	0.658460
C4111	C411	0.161090	0.574520	0.674160
H1541	H154	0.161400	0.592600	0.674800
C4121	C412	0.144110	0.560730	0.689010
C4131	C413	0.127490	0.574290	0.707710
C4141	C414	0.142890	0.534540	0.687090
H1551	H155	0.130800	0.525400	0.696900
C4151	C415	0.176660	0.534950	0.656970
H1561	H156	0.188200	0.526200	0.646200
C4161	C416	0.159200	0.521500	0.670960
C4171	C417	0.157590	0.492690	0.669180
C4181	C418	0.139790	0.479000	0.683050
H1571	H157	0.128500	0.487800	0.694100
C4191	C419	0.138190	0.452560	0.681130
O2391	O239	0.111700	0.417290	0.689660
C4201	C420	0.154570	0.439610	0.665300
H1581	H158	0.153000	0.421700	0.663200
C4211	C421	0.173200	0.452890	0.652600
C4221	C422	0.192800	0.438800	0.638000
C4231	C423	0.174700	0.478760	0.654700
H1591	H159	0.187900	0.487500	0.646000
C4241	C424	0.201200	0.629500	0.569000
C4251	C425	0.183100	0.646700	0.554900
C4261	C426	0.167800	0.663100	0.568780
H1601	H160	0.166800	0.661900	0.586800
C4271	C427	0.154000	0.681500	0.555670
C4281	C428	0.139500	0.701500	0.569850
C4291	C429	0.154900	0.682100	0.529050
H1611	H161	0.145300	0.694600	0.520300
C4301	C430	0.183800	0.647820	0.528180
H1621	H162	0.194500	0.636500	0.519100
C4311	C431	0.169200	0.664990	0.515050
C4321	C432	0.169700	0.666440	0.486240
C4331	C433	0.184230	0.649780	0.471650
H1631	H163	0.194100	0.637100	0.480000
C4341	C434	0.184720	0.651160	0.445360
C4351	C435	0.202200	0.634850	0.430210
C4361	C436	0.170390	0.669200	0.432850
H1641	H164	0.170000	0.669800	0.414800
C4371	C437	0.156390	0.686620	0.447540
C4381	C438	0.142590	0.707860	0.434140
C4391	C439	0.156500	0.685320	0.473740
H1651	H165	0.147300	0.697600	0.483300
C4401	C440	0.043040	0.568490	0.753700
C4411	C441	0.018660	0.553760	0.752800
C4421	C442	0.995790	0.566860	0.752500
H1661	H166	0.995600	0.584900	0.753400
C4431	C443	0.973570	0.553680	0.751000
C4441	C444	0.949310	0.568380	0.750800
C4451	C445	0.973380	0.527500	0.750000
H1671	H167	0.957700	0.518700	0.748600
C4461	C446	0.996170	0.514020	0.751000
C4471	C447	0.018820	0.527600	0.751600
H1681	H168	0.034600	0.518800	0.751100
O2401	O240	0.279180	0.632930	0.654670
C4481	C448	0.119950	0.438240	0.697800
Zn651	Zn65	0.875990	0.219760	0.378900
Zn661	Zn66	0.880530	0.277200	0.374370
Zn671	Zn67	0.879440	0.248990	0.427900
Zn681	Zn68	0.929580	0.249800	0.394370
Zn691	Zn69	0.768550	0.118620	0.373130
Zn701	Zn70	0.709350	0.112240	0.383760
Zn711	Zn71	0.746440	0.097810	0.428550
Zn721	Zn72	0.743680	0.064240	0.379740
O2411	O241	0.838310	0.240890	0.383020
O2421	O242	0.781850	0.342900	0.370230
O2431	O243	0.742990	0.334660	0.384670
O2441	O244	0.755240	0.155730	0.376040
O2451	O245	0.716700	0.149110	0.393100
O2461	O246	0.662190	0.252710	0.386460
O2471	O247	0.653160	0.211800	0.379600
O2481	O248	0.859690	0.194400	0.401020
O2491	O249	0.863450	0.216540	0.437100
O2501	O250	0.793650	0.126920	0.402070
O2511	O251	0.776800	0.115580	0.439390
O2521	O252	0.781070	0.114750	0.552460
O2531	O253	0.872880	0.187000	0.581220
O2541	O254	0.860700	0.215230	0.551700
O2551	O255	0.908510	0.196940	0.374790
O2561	O256	0.943620	0.220690	0.377930
O2571	O257	0.940780	0.139000	0.276570
O2581	O258	0.909190	0.130260	0.303550
O2591	O259	0.093920	0.198740	0.364380
O2601	O260	0.058120	0.218820	0.377450
O2611	O261	0.052110	0.137460	0.273340
O2621	O262	0.088410	0.137330	0.294390
O2631	O263	0.743300	0.040680	0.408360
O2641	O264	0.747810	0.063460	0.443360
O2651	O265	0.746780	0.951190	0.407820
O2661	O266	0.751550	0.928650	0.443780
O2671	O267	0.743000	0.098210	0.392430
O2681	O268	0.893060	0.249120	0.394010
C4491	C449	0.831720	0.261700	0.375800
C4501	C450	0.803780	0.268300	0.376700
C4511	C451	0.796710	0.293800	0.375800
H1691	H169	0.809300	0.306700	0.374200
C4521	C452	0.771350	0.300260	0.377300
C4531	C453	0.764900	0.328180	0.377800
C4541	C454	0.753010	0.281400	0.378900
H1701	H170	0.735600	0.286000	0.379600
C4551	C455	0.785240	0.249580	0.378800
H1711	H171	0.790200	0.232300	0.379900
C4561	C456	0.759660	0.255730	0.379400
C4571	C457	0.739800	0.235460	0.380500
C4581	C458	0.714330	0.241420	0.381900
H1721	H172	0.709400	0.258800	0.382100
C4591	C459	0.745900	0.209550	0.380700
H1731	H173	0.763200	0.204500	0.379100
C4601	C460	0.727300	0.191070	0.383000
C4611	C461	0.733700	0.163200	0.383400
C4621	C462	0.702600	0.197800	0.384500
H1741	H174	0.689900	0.185100	0.386700
C4631	C463	0.695690	0.222950	0.383000
C4641	C464	0.668020	0.229900	0.383600
C4651	C465	0.855890	0.197820	0.424530
C4661	C466	0.841540	0.177620	0.438660
C4671	C467	0.825840	0.161090	0.425480
H1751	H175	0.825200	0.161400	0.407400
C4681	C468	0.810990	0.144110	0.439270
C4691	C469	0.792290	0.127490	0.425710
C4701	C470	0.812910	0.142890	0.465460
H1761	H176	0.803100	0.130800	0.474600
C4711	C471	0.843030	0.176660	0.465050
H1771	H177	0.853800	0.188200	0.473800
C4721	C472	0.829040	0.159200	0.478500
C4731	C473	0.830820	0.157590	0.507310
C4741	C474	0.816950	0.139790	0.521000
H1781	H178	0.805900	0.128500	0.512200
C4751	C475	0.818870	0.138190	0.547440
O2691	O269	0.810340	0.111700	0.582710
C4761	C476	0.834700	0.154570	0.560390
H1791	H179	0.836800	0.153000	0.578300
C4771	C477	0.847400	0.173200	0.547110
C4781	C478	0.862000	0.192800	0.561200
C4791	C479	0.845300	0.174700	0.521240
H1801	H180	0.854000	0.187900	0.512500
C4801	C480	0.931000	0.201200	0.370500
C4811	C481	0.945100	0.183100	0.353300
C4821	C482	0.931220	0.167800	0.336900
H1811	H181	0.913200	0.166800	0.338100
C4831	C483	0.944330	0.154000	0.318500
C4841	C484	0.930150	0.139500	0.298500
C4851	C485	0.970950	0.154900	0.317900
H1821	H182	0.979700	0.145300	0.305400
C4861	C486	0.971820	0.183800	0.352180
H1831	H183	0.980900	0.194500	0.363500
C4871	C487	0.984950	0.169200	0.335010
C4881	C488	0.013760	0.169700	0.333560
C4891	C489	0.028350	0.184230	0.350220
H1841	H184	0.020000	0.194100	0.362900
C4901	C490	0.054640	0.184720	0.348840
C4911	C491	0.069790	0.202200	0.365150
C4921	C492	0.067150	0.170390	0.330800
H1851	H185	0.085200	0.170000	0.330200
C4931	C493	0.052460	0.156390	0.313380
C4941	C494	0.065860	0.142590	0.292140
C4951	C495	0.026260	0.156500	0.314680
H1861	H186	0.016700	0.147300	0.302400
C4961	C496	0.746300	0.043040	0.431510
C4971	C497	0.747200	0.018660	0.446240
C4981	C498	0.747500	0.995790	0.433140
H1871	H187	0.746600	0.995600	0.415100
C4991	C499	0.749000	0.973570	0.446320
C5001	C500	0.749200	0.949310	0.431620
C5011	C501	0.750000	0.973380	0.472500
H1881	H188	0.751400	0.957700	0.481300
C5021	C502	0.749000	0.996170	0.485980
C5031	C503	0.748400	0.018820	0.472400
H1891	H189	0.748900	0.034600	0.481200
O2701	O270	0.845330	0.279180	0.367070
C5041	C504	0.802200	0.119950	0.561760
Zn731	Zn73	0.375990	0.719760	0.878900
Zn741	Zn74	0.380530	0.777200	0.874370
Zn751	Zn75	0.379440	0.748990	0.927900
Zn761	Zn76	0.429580	0.749800	0.894370
Zn771	Zn77	0.268550	0.618620	0.873130
Zn781	Zn78	0.209350	0.612240	0.883760
Zn791	Zn79	0.246440	0.597810	0.928550
Zn801	Zn80	0.243680	0.564240	0.879740
O2711	O271	0.338310	0.740890	0.883020
O2721	O272	0.281850	0.842900	0.870230
O2731	O273	0.242990	0.834660	0.884670
O2741	O274	0.255240	0.655730	0.876040
O2751	O275	0.216700	0.649110	0.893100
O2761	O276	0.162190	0.752710	0.886460
O2771	O277	0.153160	0.711800	0.879600
O2781	O278	0.359690	0.694400	0.901020
O2791	O279	0.363450	0.716540	0.937100
O2801	O280	0.293650	0.626920	0.902070
O2811	O281	0.276800	0.615580	0.939390
O2821	O282	0.281070	0.614750	0.052460
O2831	O283	0.372880	0.687000	0.081220
O2841	O284	0.360700	0.715230	0.051700
O2851	O285	0.408510	0.696940	0.874790
O2861	O286	0.443620	0.720690	0.877930
O2871	O287	0.440780	0.639000	0.776570
O2881	O288	0.409190	0.630260	0.803550
O2891	O289	0.593920	0.698740	0.864380
O2901	O290	0.558120	0.718820	0.877450
O2911	O291	0.552110	0.637460	0.773340
O2921	O292	0.588410	0.637330	0.794390
O2931	O293	0.243300	0.540680	0.908360
O2941	O294	0.247810	0.563460	0.943360
O2951	O295	0.246780	0.451190	0.907820
O2961	O296	0.251550	0.428650	0.943780
O2971	O297	0.243000	0.598210	0.892430
O2981	O298	0.393060	0.749120	0.894010
C5051	C505	0.331720	0.761700	0.875800
C5061	C506	0.303780	0.768300	0.876700
C5071	C507	0.296710	0.793800	0.875800
H1901	H190	0.309300	0.806700	0.874200
C5081	C508	0.271350	0.800260	0.877300
C5091	C509	0.264900	0.828180	0.877800
C5101	C510	0.253010	0.781400	0.878900
H1911	H191	0.235600	0.786000	0.879600
C5111	C511	0.285240	0.749580	0.878800
H1921	H192	0.290200	0.732300	0.879900
C5121	C512	0.259660	0.755730	0.879400
C5131	C513	0.239800	0.735460	0.880500
C5141	C514	0.214330	0.741420	0.881900
H1931	H193	0.209400	0.758800	0.882100
C5151	C515	0.245900	0.709550	0.880700
H1941	H194	0.263200	0.704500	0.879100
C5161	C516	0.227300	0.691070	0.883000
C5171	C517	0.233700	0.663200	0.883400
C5181	C518	0.202600	0.697800	0.884500
H1951	H195	0.189900	0.685100	0.886700
C5191	C519	0.195690	0.722950	0.883000
C5201	C520	0.168020	0.729900	0.883600
C5211	C521	0.355890	0.697820	0.924530
C5221	C522	0.341540	0.677620	0.938660
C5231	C523	0.325840	0.661090	0.925480
H1961	H196	0.325200	0.661400	0.907400
C5241	C524	0.310990	0.644110	0.939270
C5251	C525	0.292290	0.627490	0.925710
C5261	C526	0.312910	0.642890	0.965460
H1971	H197	0.303100	0.630800	0.974600
C5271	C527	0.343030	0.676660	0.965050
H1981	H198	0.353800	0.688200	0.973800
C5281	C528	0.329040	0.659200	0.978500
C5291	C529	0.330820	0.657590	0.007310
C5301	C530	0.316950	0.639790	0.021000
H1991	H199	0.305900	0.628500	0.012200
C5311	C531	0.318870	0.638190	0.047440
O2991	O299	0.310340	0.611700	0.082710
C5321	C532	0.334700	0.654570	0.060390
H2001	H200	0.336800	0.653000	0.078300
C5331	C533	0.347400	0.673200	0.047110
C5341	C534	0.362000	0.692800	0.061200
C5351	C535	0.345300	0.674700	0.021240
H2011	H201	0.354000	0.687900	0.012500
C5361	C536	0.431000	0.701200	0.870500
C5371	C537	0.445100	0.683100	0.853300
C5381	C538	0.431220	0.667800	0.836900
H2021	H202	0.413200	0.666800	0.838100
C5391	C539	0.444330	0.654000	0.818500
C5401	C540	0.430150	0.639500	0.798500
C5411	C541	0.470950	0.654900	0.817900
H2031	H203	0.479700	0.645300	0.805400
C5421	C542	0.471820	0.683800	0.852180
H2041	H204	0.480900	0.694500	0.863500
C5431	C543	0.484950	0.669200	0.835010
C5441	C544	0.513760	0.669700	0.833560
C5451	C545	0.528350	0.684230	0.850220
H2051	H205	0.520000	0.694100	0.862900
C5461	C546	0.554640	0.684720	0.848840
C5471	C547	0.569790	0.702200	0.865150
C5481	C548	0.567150	0.670390	0.830800
H2061	H206	0.585200	0.670000	0.830200
C5491	C549	0.552460	0.656390	0.813380
C5501	C550	0.565860	0.642590	0.792140
C5511	C551	0.526260	0.656500	0.814680
H2071	H207	0.516700	0.647300	0.802400
C5521	C552	0.246300	0.543040	0.931510
C5531	C553	0.247200	0.518660	0.946240
C5541	C554	0.247500	0.495790	0.933140
H2081	H208	0.246600	0.495600	0.915100
C5551	C555	0.249000	0.473570	0.946320
C5561	C556	0.249200	0.449310	0.931620
C5571	C557	0.250000	0.473380	0.972500
H2091	H209	0.251400	0.457700	0.981300
C5581	C558	0.249000	0.496170	0.985980
C5591	C559	0.248400	0.518820	0.972400
H2101	H210	0.248900	0.534600	0.981200
O3001	O300	0.345330	0.779180	0.867070
C5601	C560	0.302200	0.619950	0.061760
Zn811	Zn81	0.375990	0.280240	0.621100
Zn821	Zn82	0.380530	0.222800	0.625630
Zn831	Zn83	0.379440	0.251010	0.572100
Zn841	Zn84	0.429580	0.250200	0.605630
Zn851	Zn85	0.268550	0.381380	0.626870
Zn861	Zn86	0.209350	0.387760	0.616240
Zn871	Zn87	0.246440	0.402190	0.571450
Zn881	Zn88	0.243680	0.435760	0.620260
O3011	O301	0.338310	0.259110	0.616980
O3021	O302	0.281850	0.157100	0.629770
O3031	O303	0.242990	0.165340	0.615330
O3041	O304	0.255240	0.344270	0.623960
O3051	O305	0.216700	0.350890	0.606900
O3061	O306	0.162190	0.247290	0.613540
O3071	O307	0.153160	0.288200	0.620400
O3081	O308	0.359690	0.305600	0.598980
O3091	O309	0.363450	0.283460	0.562900
O3101	O310	0.293650	0.373080	0.597930
O3111	O311	0.276800	0.384420	0.560610
O3121	O312	0.281070	0.385250	0.447540
O3131	O313	0.372880	0.313000	0.418780
O3141	O314	0.360700	0.284770	0.448300
O3151	O315	0.408510	0.303060	0.625210
O3161	O316	0.443620	0.279310	0.622070
O3171	O317	0.440780	0.361000	0.723430
O3181	O318	0.409190	0.369740	0.696450
O3191	O319	0.593920	0.301260	0.635620
O3201	O320	0.558120	0.281180	0.622550
O3211	O321	0.552110	0.362540	0.726660
O3221	O322	0.588410	0.362670	0.705610
O3231	O323	0.243300	0.459320	0.591640
O3241	O324	0.247810	0.436540	0.556640
O3251	O325	0.246780	0.548810	0.592180
O3261	O326	0.251550	0.571350	0.556220
O3271	O327	0.243000	0.401790	0.607570
O3281	O328	0.393060	0.250880	0.605990
C5611	C561	0.331720	0.238300	0.624200
C5621	C562	0.303780	0.231700	0.623300
C5631	C563	0.296710	0.206200	0.624200
H2111	H211	0.309300	0.193300	0.625800
C5641	C564	0.271350	0.199740	0.622700
C5651	C565	0.264900	0.171820	0.622200
C5661	C566	0.253010	0.218600	0.621100
H2121	H212	0.235600	0.214000	0.620400
C5671	C567	0.285240	0.250420	0.621200
H2131	H213	0.290200	0.267700	0.620100
C5681	C568	0.259660	0.244270	0.620600
C5691	C569	0.239800	0.264540	0.619500
C5701	C570	0.214330	0.258580	0.618100
H2141	H214	0.209400	0.241200	0.617900
C5711	C571	0.245900	0.290450	0.619300
H2151	H215	0.263200	0.295500	0.620900
C5721	C572	0.227300	0.308930	0.617000
C5731	C573	0.233700	0.336800	0.616600
C5741	C574	0.202600	0.302200	0.615500
H2161	H216	0.189900	0.314900	0.613300
C5751	C575	0.195690	0.277050	0.617000
C5761	C576	0.168020	0.270100	0.616400
C5771	C577	0.355890	0.302180	0.575470
C5781	C578	0.341540	0.322380	0.561340
C5791	C579	0.325840	0.338910	0.574520
H2171	H217	0.325200	0.338600	0.592600
C5801	C580	0.310990	0.355890	0.560730
C5811	C581	0.292290	0.372510	0.574290
C5821	C582	0.312910	0.357110	0.534540
H2181	H218	0.303100	0.369200	0.525400
C5831	C583	0.343030	0.323340	0.534950
H2191	H219	0.353800	0.311800	0.526200
C5841	C584	0.329040	0.340800	0.521500
C5851	C585	0.330820	0.342410	0.492690
C5861	C586	0.316950	0.360210	0.479000
H2201	H220	0.305900	0.371500	0.487800
C5871	C587	0.318870	0.361810	0.452560
O3291	O329	0.310340	0.388300	0.417290
C5881	C588	0.334700	0.345430	0.439610
H2211	H221	0.336800	0.347000	0.421700
C5891	C589	0.347400	0.326800	0.452890
C5901	C590	0.362000	0.307200	0.438800
C5911	C591	0.345300	0.325300	0.478760
H2221	H222	0.354000	0.312100	0.487500
C5921	C592	0.431000	0.298800	0.629500
C5931	C593	0.445100	0.316900	0.646700
C5941	C594	0.431220	0.332200	0.663100
H2231	H223	0.413200	0.333200	0.661900
C5951	C595	0.444330	0.346000	0.681500
C5961	C596	0.430150	0.360500	0.701500
C5971	C597	0.470950	0.345100	0.682100
H2241	H224	0.479700	0.354700	0.694600
C5981	C598	0.471820	0.316200	0.647820
H2251	H225	0.480900	0.305500	0.636500
C5991	C599	0.484950	0.330800	0.664990
C6001	C600	0.513760	0.330300	0.666440
C6011	C601	0.528350	0.315770	0.649780
H2261	H226	0.520000	0.305900	0.637100
C6021	C602	0.554640	0.315280	0.651160
C6031	C603	0.569790	0.297800	0.634850
C6041	C604	0.567150	0.329610	0.669200
H2271	H227	0.585200	0.330000	0.669800
C6051	C605	0.552460	0.343610	0.686620
C6061	C606	0.565860	0.357410	0.707860
C6071	C607	0.526260	0.343500	0.685320
H2281	H228	0.516700	0.352700	0.697600
C6081	C608	0.246300	0.456960	0.568490
C6091	C609	0.247200	0.481340	0.553760
C6101	C610	0.247500	0.504210	0.566860
H2291	H229	0.246600	0.504400	0.584900
C6111	C611	0.249000	0.526430	0.553680
C6121	C612	0.249200	0.550690	0.568380
C6131	C613	0.250000	0.526620	0.527500
H2301	H230	0.251400	0.542300	0.518700
C6141	C614	0.249000	0.503830	0.514020
C6151	C615	0.248400	0.481180	0.527600
H2311	H231	0.248900	0.465400	0.518800
O3301	O330	0.345330	0.220820	0.632930
C6161	C616	0.302200	0.380050	0.438240
Zn891	Zn89	0.875990	0.780240	0.121100
Zn901	Zn90	0.880530	0.722800	0.125630
Zn911	Zn91	0.879440	0.751010	0.072100
Zn921	Zn92	0.929580	0.750200	0.105630
Zn931	Zn93	0.768550	0.881380	0.126870
Zn941	Zn94	0.709350	0.887760	0.116240
Zn951	Zn95	0.746440	0.902190	0.071450
Zn961	Zn96	0.743680	0.935760	0.120260
O3311	O331	0.838310	0.759110	0.116980
O3321	O332	0.781850	0.657100	0.129770
O3331	O333	0.742990	0.665340	0.115330
O3341	O334	0.755240	0.844270	0.123960
O3351	O335	0.716700	0.850890	0.106900
O3361	O336	0.662190	0.747290	0.113540
O3371	O337	0.653160	0.788200	0.120400
O3381	O338	0.859690	0.805600	0.098980
O3391	O339	0.863450	0.783460	0.062900
O3401	O340	0.793650	0.873080	0.097930
O3411	O341	0.776800	0.884420	0.060610
O3421	O342	0.781070	0.885250	0.947540
O3431	O343	0.872880	0.813000	0.918780
O3441	O344	0.860700	0.784770	0.948300
O3451	O345	0.908510	0.803060	0.125210
O3461	O346	0.943620	0.779310	0.122070
O3471	O347	0.940780	0.861000	0.223430
O3481	O348	0.909190	0.869740	0.196450
O3491	O349	0.093920	0.801260	0.135620
O3501	O350	0.058120	0.781180	0.122550
O3511	O351	0.052110	0.862540	0.226660
O3521	O352	0.088410	0.862670	0.205610
O3531	O353	0.743300	0.959320	0.091640
O3541	O354	0.747810	0.936540	0.056640
O3551	O355	0.746780	0.048810	0.092180
O3561	O356	0.751550	0.071350	0.056220
O3571	O357	0.743000	0.901790	0.107570
O3581	O358	0.893060	0.750880	0.105990
C6171	C617	0.831720	0.738300	0.124200
C6181	C618	0.803780	0.731700	0.123300
C6191	C619	0.796710	0.706200	0.124200
H2321	H232	0.809300	0.693300	0.125800
C6201	C620	0.771350	0.699740	0.122700
C6211	C621	0.764900	0.671820	0.122200
C6221	C622	0.753010	0.718600	0.121100
H2331	H233	0.735600	0.714000	0.120400
C6231	C623	0.785240	0.750420	0.121200
H2341	H234	0.790200	0.767700	0.120100
C6241	C624	0.759660	0.744270	0.120600
C6251	C625	0.739800	0.764540	0.119500
C6261	C626	0.714330	0.758580	0.118100
H2351	H235	0.709400	0.741200	0.117900
C6271	C627	0.745900	0.790450	0.119300
H2361	H236	0.763200	0.795500	0.120900
C6281	C628	0.727300	0.808930	0.117000
C6291	C629	0.733700	0.836800	0.116600
C6301	C630	0.702600	0.802200	0.115500
H2371	H237	0.689900	0.814900	0.113300
C6311	C631	0.695690	0.777050	0.117000
C6321	C632	0.668020	0.770100	0.116400
C6331	C633	0.855890	0.802180	0.075470
C6341	C634	0.841540	0.822380	0.061340
C6351	C635	0.825840	0.838910	0.074520
H2381	H238	0.825200	0.838600	0.092600
C6361	C636	0.810990	0.855890	0.060730
C6371	C637	0.792290	0.872510	0.074290
C6381	C638	0.812910	0.857110	0.034540
H2391	H239	0.803100	0.869200	0.025400
C6391	C639	0.843030	0.823340	0.034950
H2401	H240	0.853800	0.811800	0.026200
C6401	C640	0.829040	0.840800	0.021500
C6411	C641	0.830820	0.842410	0.992690
C6421	C642	0.816950	0.860210	0.979000
H2411	H241	0.805900	0.871500	0.987800
C6431	C643	0.818870	0.861810	0.952560
O3591	O359	0.810340	0.888300	0.917290
C6441	C644	0.834700	0.845430	0.939610
H2421	H242	0.836800	0.847000	0.921700
C6451	C645	0.847400	0.826800	0.952890
C6461	C646	0.862000	0.807200	0.938800
C6471	C647	0.845300	0.825300	0.978760
H2431	H243	0.854000	0.812100	0.987500
C6481	C648	0.931000	0.798800	0.129500
C6491	C649	0.945100	0.816900	0.146700
C6501	C650	0.931220	0.832200	0.163100
H2441	H244	0.913200	0.833200	0.161900
C6511	C651	0.944330	0.846000	0.181500
C6521	C652	0.930150	0.860500	0.201500
C6531	C653	0.970950	0.845100	0.182100
H2451	H245	0.979700	0.854700	0.194600
C6541	C654	0.971820	0.816200	0.147820
H2461	H246	0.980900	0.805500	0.136500
C6551	C655	0.984950	0.830800	0.164990
C6561	C656	0.013760	0.830300	0.166440
C6571	C657	0.028350	0.815770	0.149780
H2471	H247	0.020000	0.805900	0.137100
C6581	C658	0.054640	0.815280	0.151160
C6591	C659	0.069790	0.797800	0.134850
C6601	C660	0.067150	0.829610	0.169200
H2481	H248	0.085200	0.830000	0.169800
C6611	C661	0.052460	0.843610	0.186620
C6621	C662	0.065860	0.857410	0.207860
C6631	C663	0.026260	0.843500	0.185320
H2491	H249	0.016700	0.852700	0.197600
C6641	C664	0.746300	0.956960	0.068490
C6651	C665	0.747200	0.981340	0.053760
C6661	C666	0.747500	0.004210	0.066860
H2501	H250	0.746600	0.004400	0.084900
C6671	C667	0.749000	0.026430	0.053680
C6681	C668	0.749200	0.050690	0.068380
C6691	C669	0.750000	0.026620	0.027500
H2511	H251	0.751400	0.042300	0.018700
C6701	C670	0.749000	0.003830	0.014020
C6711	C671	0.748400	0.981180	0.027600
H2521	H252	0.748900	0.965400	0.018800
O3601	O360	0.845330	0.720820	0.132930
C6721	C672	0.802200	0.880050	0.938240
Zn971	Zn97	0.624010	0.780240	0.878900
Zn981	Zn98	0.619470	0.722800	0.874370
Zn991	Zn99	0.620560	0.751010	0.927900
Zn1001	Zn100	0.570420	0.750200	0.894370
Zn1011	Zn101	0.731450	0.881380	0.873130
Zn1021	Zn102	0.790650	0.887760	0.883760
Zn1031	Zn103	0.753560	0.902190	0.928550
Zn1041	Zn104	0.756320	0.935760	0.879740
O3611	O361	0.661690	0.759110	0.883020
O3621	O362	0.718150	0.657100	0.870230
O3631	O363	0.757010	0.665340	0.884670
O3641	O364	0.744760	0.844270	0.876040
O3651	O365	0.783300	0.850890	0.893100
O3661	O366	0.837810	0.747290	0.886460
O3671	O367	0.846840	0.788200	0.879600
O3681	O368	0.640310	0.805600	0.901020
O3691	O369	0.636550	0.783460	0.937100
O3701	O370	0.706350	0.873080	0.902070
O3711	O371	0.723200	0.884420	0.939390
O3721	O372	0.718930	0.885250	0.052460
O3731	O373	0.627120	0.813000	0.081220
O3741	O374	0.639300	0.784770	0.051700
O3751	O375	0.591490	0.803060	0.874790
O3761	O376	0.556380	0.779310	0.877930
O3771	O377	0.559220	0.861000	0.776570
O3781	O378	0.590810	0.869740	0.803550
O3791	O379	0.406080	0.801260	0.864380
O3801	O380	0.441880	0.781180	0.877450
O3811	O381	0.447890	0.862540	0.773340
O3821	O382	0.411590	0.862670	0.794390
O3831	O383	0.756700	0.959320	0.908360
O3841	O384	0.752190	0.936540	0.943360
O3851	O385	0.753220	0.048810	0.907820
O3861	O386	0.748450	0.071350	0.943780
O3871	O387	0.757000	0.901790	0.892430
O3881	O388	0.606940	0.750880	0.894010
C6731	C673	0.668280	0.738300	0.875800
C6741	C674	0.696220	0.731700	0.876700
C6751	C675	0.703290	0.706200	0.875800
H2531	H253	0.690700	0.693300	0.874200
C6761	C676	0.728650	0.699740	0.877300
C6771	C677	0.735100	0.671820	0.877800
C6781	C678	0.746990	0.718600	0.878900
H2541	H254	0.764400	0.714000	0.879600
C6791	C679	0.714760	0.750420	0.878800
H2551	H255	0.709800	0.767700	0.879900
C6801	C680	0.740340	0.744270	0.879400
C6811	C681	0.760200	0.764540	0.880500
C6821	C682	0.785670	0.758580	0.881900
H2561	H256	0.790600	0.741200	0.882100
C6831	C683	0.754100	0.790450	0.880700
H2571	H257	0.736800	0.795500	0.879100
C6841	C684	0.772700	0.808930	0.883000
C6851	C685	0.766300	0.836800	0.883400
C6861	C686	0.797400	0.802200	0.884500
H2581	H258	0.810100	0.814900	0.886700
C6871	C687	0.804310	0.777050	0.883000
C6881	C688	0.831980	0.770100	0.883600
C6891	C689	0.644110	0.802180	0.924530
C6901	C690	0.658460	0.822380	0.938660
C6911	C691	0.674160	0.838910	0.925480
H2591	H259	0.674800	0.838600	0.907400
C6921	C692	0.689010	0.855890	0.939270
C6931	C693	0.707710	0.872510	0.925710
C6941	C694	0.687090	0.857110	0.965460
H2601	H260	0.696900	0.869200	0.974600
C6951	C695	0.656970	0.823340	0.965050
H2611	H261	0.646200	0.811800	0.973800
C6961	C696	0.670960	0.840800	0.978500
C6971	C697	0.669180	0.842410	0.007310
C6981	C698	0.683050	0.860210	0.021000
H2621	H262	0.694100	0.871500	0.012200
C6991	C699	0.681130	0.861810	0.047440
O3891	O389	0.689660	0.888300	0.082710
C7001	C700	0.665300	0.845430	0.060390
H2631	H263	0.663200	0.847000	0.078300
C7011	C701	0.652600	0.826800	0.047110
C7021	C702	0.638000	0.807200	0.061200
C7031	C703	0.654700	0.825300	0.021240
H2641	H264	0.646000	0.812100	0.012500
C7041	C704	0.569000	0.798800	0.870500
C7051	C705	0.554900	0.816900	0.853300
C7061	C706	0.568780	0.832200	0.836900
H2651	H265	0.586800	0.833200	0.838100
C7071	C707	0.555670	0.846000	0.818500
C7081	C708	0.569850	0.860500	0.798500
C7091	C709	0.529050	0.845100	0.817900
H2661	H266	0.520300	0.854700	0.805400
C7101	C710	0.528180	0.816200	0.852180
H2671	H267	0.519100	0.805500	0.863500
C7111	C711	0.515050	0.830800	0.835010
C7121	C712	0.486240	0.830300	0.833560
C7131	C713	0.471650	0.815770	0.850220
H2681	H268	0.480000	0.805900	0.862900
C7141	C714	0.445360	0.815280	0.848840
C7151	C715	0.430210	0.797800	0.865150
C7161	C716	0.432850	0.829610	0.830800
H2691	H269	0.414800	0.830000	0.830200
C7171	C717	0.447540	0.843610	0.813380
C7181	C718	0.434140	0.857410	0.792140
C7191	C719	0.473740	0.843500	0.814680
H2701	H270	0.483300	0.852700	0.802400
C7201	C720	0.753700	0.956960	0.931510
C7211	C721	0.752800	0.981340	0.946240
C7221	C722	0.752500	0.004210	0.933140
H2711	H271	0.753400	0.004400	0.915100
C7231	C723	0.751000	0.026430	0.946320
C7241	C724	0.750800	0.050690	0.931620
C7251	C725	0.750000	0.026620	0.972500
H2721	H272	0.748600	0.042300	0.981300
C7261	C726	0.751000	0.003830	0.985980
C7271	C727	0.751600	0.981180	0.972400
H2731	H273	0.751100	0.965400	0.981200
O3901	O390	0.654670	0.720820	0.867070
C7281	C728	0.697800	0.880050	0.061760
Zn1051	Zn105	0.124010	0.280240	0.378900
Zn1061	Zn106	0.119470	0.222800	0.374370
Zn1071	Zn107	0.120560	0.251010	0.427900
Zn1081	Zn108	0.070420	0.250200	0.394370
Zn1091	Zn109	0.231450	0.381380	0.373130
Zn1101	Zn110	0.290650	0.387760	0.383760
Zn1111	Zn111	0.253560	0.402190	0.428550
Zn1121	Zn112	0.256320	0.435760	0.379740
O3911	O391	0.161690	0.259110	0.383020
O3921	O392	0.218150	0.157100	0.370230
O3931	O393	0.257010	0.165340	0.384670
O3941	O394	0.244760	0.344270	0.376040
O3951	O395	0.283300	0.350890	0.393100
O3961	O396	0.337810	0.247290	0.386460
O3971	O397	0.346840	0.288200	0.379600
O3981	O398	0.140310	0.305600	0.401020
O3991	O399	0.136550	0.283460	0.437100
O4001	O400	0.206350	0.373080	0.402070
O4011	O401	0.223200	0.384420	0.439390
O4021	O402	0.218930	0.385250	0.552460
O4031	O403	0.127120	0.313000	0.581220
O4041	O404	0.139300	0.284770	0.551700
O4051	O405	0.091490	0.303060	0.374790
O4061	O406	0.056380	0.279310	0.377930
O4071	O407	0.059220	0.361000	0.276570
O4081	O408	0.090810	0.369740	0.303550
O4091	O409	0.906080	0.301260	0.364380
O4101	O410	0.941880	0.281180	0.377450
O4111	O411	0.947890	0.362540	0.273340
O4121	O412	0.911590	0.362670	0.294390
O4131	O413	0.256700	0.459320	0.408360
O4141	O414	0.252190	0.436540	0.443360
O4151	O415	0.253220	0.548810	0.407820
O4161	O416	0.248450	0.571350	0.443780
O4171	O417	0.257000	0.401790	0.392430
O4181	O418	0.106940	0.250880	0.394010
C7291	C729	0.168280	0.238300	0.375800
C7301	C730	0.196220	0.231700	0.376700
C7311	C731	0.203290	0.206200	0.375800
H2741	H274	0.190700	0.193300	0.374200
C7321	C732	0.228650	0.199740	0.377300
C7331	C733	0.235100	0.171820	0.377800
C7341	C734	0.246990	0.218600	0.378900
H2751	H275	0.264400	0.214000	0.379600
C7351	C735	0.214760	0.250420	0.378800
H2761	H276	0.209800	0.267700	0.379900
C7361	C736	0.240340	0.244270	0.379400
C7371	C737	0.260200	0.264540	0.380500
C7381	C738	0.285670	0.258580	0.381900
H2771	H277	0.290600	0.241200	0.382100
C7391	C739	0.254100	0.290450	0.380700
H2781	H278	0.236800	0.295500	0.379100
C7401	C740	0.272700	0.308930	0.383000
C7411	C741	0.266300	0.336800	0.383400
C7421	C742	0.297400	0.302200	0.384500
H2791	H279	0.310100	0.314900	0.386700
C7431	C743	0.304310	0.277050	0.383000
C7441	C744	0.331980	0.270100	0.383600
C7451	C745	0.144110	0.302180	0.424530
C7461	C746	0.158460	0.322380	0.438660
C7471	C747	0.174160	0.338910	0.425480
H2801	H280	0.174800	0.338600	0.407400
C7481	C748	0.189010	0.355890	0.439270
C7491	C749	0.207710	0.372510	0.425710
C7501	C750	0.187090	0.357110	0.465460
H2811	H281	0.196900	0.369200	0.474600
C7511	C751	0.156970	0.323340	0.465050
H2821	H282	0.146200	0.311800	0.473800
C7521	C752	0.170960	0.340800	0.478500
C7531	C753	0.169180	0.342410	0.507310
C7541	C754	0.183050	0.360210	0.521000
H2831	H283	0.194100	0.371500	0.512200
C7551	C755	0.181130	0.361810	0.547440
O4191	O419	0.189660	0.388300	0.582710
C7561	C756	0.165300	0.345430	0.560390
H2841	H284	0.163200	0.347000	0.578300
C7571	C757	0.152600	0.326800	0.547110
C7581	C758	0.138000	0.307200	0.561200
C7591	C759	0.154700	0.325300	0.521240
H2851	H285	0.146000	0.312100	0.512500
C7601	C760	0.069000	0.298800	0.370500
C7611	C761	0.054900	0.316900	0.353300
C7621	C762	0.068780	0.332200	0.336900
H2861	H286	0.086800	0.333200	0.338100
C7631	C763	0.055670	0.346000	0.318500
C7641	C764	0.069850	0.360500	0.298500
C7651	C765	0.029050	0.345100	0.317900
H2871	H287	0.020300	0.354700	0.305400
C7661	C766	0.028180	0.316200	0.352180
H2881	H288	0.019100	0.305500	0.363500
C7671	C767	0.015050	0.330800	0.335010
C7681	C768	0.986240	0.330300	0.333560
C7691	C769	0.971650	0.315770	0.350220
H2891	H289	0.980000	0.305900	0.362900
C7701	C770	0.945360	0.315280	0.348840
C7711	C771	0.930210	0.297800	0.365150
C7721	C772	0.932850	0.329610	0.330800
H2901	H290	0.914800	0.330000	0.330200
C7731	C773	0.947540	0.343610	0.313380
C7741	C774	0.934140	0.357410	0.292140
C7751	C775	0.973740	0.343500	0.314680
H2911	H291	0.983300	0.352700	0.302400
C7761	C776	0.253700	0.456960	0.431510
C7771	C777	0.252800	0.481340	0.446240
C7781	C778	0.252500	0.504210	0.433140
H2921	H292	0.253400	0.504400	0.415100
C7791	C779	0.251000	0.526430	0.446320
C7801	C780	0.250800	0.550690	0.431620
C7811	C781	0.250000	0.526620	0.472500
H2931	H293	0.248600	0.542300	0.481300
C7821	C782	0.251000	0.503830	0.485980
C7831	C783	0.251600	0.481180	0.472400
H2941	H294	0.251100	0.465400	0.481200
O4201	O420	0.154670	0.220820	0.367070
C7841	C784	0.197800	0.380050	0.561760
Zn1131	Zn113	0.124010	0.719760	0.121100
Zn1141	Zn114	0.119470	0.777200	0.125630
Zn1151	Zn115	0.120560	0.748990	0.072100
Zn1161	Zn116	0.070420	0.749800	0.105630
Zn1171	Zn117	0.231450	0.618620	0.126870
Zn1181	Zn118	0.290650	0.612240	0.116240
Zn1191	Zn119	0.253560	0.597810	0.071450
Zn1201	Zn120	0.256320	0.564240	0.120260
O4211	O421	0.161690	0.740890	0.116980
O4221	O422	0.218150	0.842900	0.129770
O4231	O423	0.257010	0.834660	0.115330
O4241	O424	0.244760	0.655730	0.123960
O4251	O425	0.283300	0.649110	0.106900
O4261	O426	0.337810	0.752710	0.113540
O4271	O427	0.346840	0.711800	0.120400
O4281	O428	0.140310	0.694400	0.098980
O4291	O429	0.136550	0.716540	0.062900
O4301	O430	0.206350	0.626920	0.097930
O4311	O431	0.223200	0.615580	0.060610
O4321	O432	0.218930	0.614750	0.947540
O4331	O433	0.127120	0.687000	0.918780
O4341	O434	0.139300	0.715230	0.948300
O4351	O435	0.091490	0.696940	0.125210
O4361	O436	0.056380	0.720690	0.122070
O4371	O437	0.059220	0.639000	0.223430
O4381	O438	0.090810	0.630260	0.196450
O4391	O439	0.906080	0.698740	0.135620
O4401	O440	0.941880	0.718820	0.122550
O4411	O441	0.947890	0.637460	0.226660
O4421	O442	0.911590	0.637330	0.205610
O4431	O443	0.256700	0.540680	0.091640
O4441	O444	0.252190	0.563460	0.056640
O4451	O445	0.253220	0.451190	0.092180
O4461	O446	0.248450	0.428650	0.056220
O4471	O447	0.257000	0.598210	0.107570
O4481	O448	0.106940	0.749120	0.105990
C7851	C785	0.168280	0.761700	0.124200
C7861	C786	0.196220	0.768300	0.123300
C7871	C787	0.203290	0.793800	0.124200
H2951	H295	0.190700	0.806700	0.125800
C7881	C788	0.228650	0.800260	0.122700
C7891	C789	0.235100	0.828180	0.122200
C7901	C790	0.246990	0.781400	0.121100
H2961	H296	0.264400	0.786000	0.120400
C7911	C791	0.214760	0.749580	0.121200
H2971	H297	0.209800	0.732300	0.120100
C7921	C792	0.240340	0.755730	0.120600
C7931	C793	0.260200	0.735460	0.119500
C7941	C794	0.285670	0.741420	0.118100
H2981	H298	0.290600	0.758800	0.117900
C7951	C795	0.254100	0.709550	0.119300
H2991	H299	0.236800	0.704500	0.120900
C7961	C796	0.272700	0.691070	0.117000
C7971	C797	0.266300	0.663200	0.116600
C7981	C798	0.297400	0.697800	0.115500
H3001	H300	0.310100	0.685100	0.113300
C7991	C799	0.304310	0.722950	0.117000
C8001	C800	0.331980	0.729900	0.116400
C8011	C801	0.144110	0.697820	0.075470
C8021	C802	0.158460	0.677620	0.061340
C8031	C803	0.174160	0.661090	0.074520
H3011	H301	0.174800	0.661400	0.092600
C8041	C804	0.189010	0.644110	0.060730
C8051	C805	0.207710	0.627490	0.074290
C8061	C806	0.187090	0.642890	0.034540
H3021	H302	0.196900	0.630800	0.025400
C8071	C807	0.156970	0.676660	0.034950
H3031	H303	0.146200	0.688200	0.026200
C8081	C808	0.170960	0.659200	0.021500
C8091	C809	0.169180	0.657590	0.992690
C8101	C810	0.183050	0.639790	0.979000
H3041	H304	0.194100	0.628500	0.987800
C8111	C811	0.181130	0.638190	0.952560
O4491	O449	0.189660	0.611700	0.917290
C8121	C812	0.165300	0.654570	0.939610
H3051	H305	0.163200	0.653000	0.921700
C8131	C813	0.152600	0.673200	0.952890
C8141	C814	0.138000	0.692800	0.938800
C8151	C815	0.154700	0.674700	0.978760
H3061	H306	0.146000	0.687900	0.987500
C8161	C816	0.069000	0.701200	0.129500
C8171	C817	0.054900	0.683100	0.146700
C8181	C818	0.068780	0.667800	0.163100
H3071	H307	0.086800	0.666800	0.161900
C8191	C819	0.055670	0.654000	0.181500
C8201	C820	0.069850	0.639500	0.201500
C8211	C821	0.029050	0.654900	0.182100
H3081	H308	0.020300	0.645300	0.194600
C8221	C822	0.028180	0.683800	0.147820
H3091	H309	0.019100	0.694500	0.136500
C8231	C823	0.015050	0.669200	0.164990
C8241	C824	0.986240	0.669700	0.166440
C8251	C825	0.971650	0.684230	0.149780
H3101	H310	0.980000	0.694100	0.137100
C8261	C826	0.945360	0.684720	0.151160
C8271	C827	0.930210	0.702200	0.134850
C8281	C828	0.932850	0.670390	0.169200
H3111	H311	0.914800	0.670000	0.169800
C8291	C829	0.947540	0.656390	0.186620
C8301	C830	0.934140	0.642590	0.207860
C8311	C831	0.973740	0.656500	0.185320
H3121	H312	0.983300	0.647300	0.197600
C8321	C832	0.253700	0.543040	0.068490
C8331	C833	0.252800	0.518660	0.053760
C8341	C834	0.252500	0.495790	0.066860
H3131	H313	0.253400	0.495600	0.084900
C8351	C835	0.251000	0.473570	0.053680
C8361	C836	0.250800	0.449310	0.068380
C8371	C837	0.250000	0.473380	0.027500
H3141	H314	0.248600	0.457700	0.018700
C8381	C838	0.251000	0.496170	0.014020
C8391	C839	0.251600	0.518820	0.027600
H3151	H315	0.251100	0.534600	0.018800
O4501	O450	0.154670	0.779180	0.132930
C8401	C840	0.197800	0.619950	0.938240
Zn1211	Zn121	0.624010	0.219760	0.621100
Zn1221	Zn122	0.619470	0.277200	0.625630
Zn1231	Zn123	0.620560	0.248990	0.572100
Zn1241	Zn124	0.570420	0.249800	0.605630
Zn1251	Zn125	0.731450	0.118620	0.626870
Zn1261	Zn126	0.790650	0.112240	0.616240
Zn1271	Zn127	0.753560	0.097810	0.571450
Zn1281	Zn128	0.756320	0.064240	0.620260
O4511	O451	0.661690	0.240890	0.616980
O4521	O452	0.718150	0.342900	0.629770
O4531	O453	0.757010	0.334660	0.615330
O4541	O454	0.744760	0.155730	0.623960
O4551	O455	0.783300	0.149110	0.606900
O4561	O456	0.837810	0.252710	0.613540
O4571	O457	0.846840	0.211800	0.620400
O4581	O458	0.640310	0.194400	0.598980
O4591	O459	0.636550	0.216540	0.562900
O4601	O460	0.706350	0.126920	0.597930
O4611	O461	0.723200	0.115580	0.560610
O4621	O462	0.718930	0.114750	0.447540
O4631	O463	0.627120	0.187000	0.418780
O4641	O464	0.639300	0.215230	0.448300
O4651	O465	0.591490	0.196940	0.625210
O4661	O466	0.556380	0.220690	0.622070
O4671	O467	0.559220	0.139000	0.723430
O4681	O468	0.590810	0.130260	0.696450
O4691	O469	0.406080	0.198740	0.635620
O4701	O470	0.441880	0.218820	0.622550
O4711	O471	0.447890	0.137460	0.726660
O4721	O472	0.411590	0.137330	0.705610
O4731	O473	0.756700	0.040680	0.591640
O4741	O474	0.752190	0.063460	0.556640
O4751	O475	0.753220	0.951190	0.592180
O4761	O476	0.748450	0.928650	0.556220
O4771	O477	0.757000	0.098210	0.607570
O4781	O478	0.606940	0.249120	0.605990
C8411	C841	0.668280	0.261700	0.624200
C8421	C842	0.696220	0.268300	0.623300
C8431	C843	0.703290	0.293800	0.624200
H3161	H316	0.690700	0.306700	0.625800
C8441	C844	0.728650	0.300260	0.622700
C8451	C845	0.735100	0.328180	0.622200
C8461	C846	0.746990	0.281400	0.621100
H3171	H317	0.764400	0.286000	0.620400
C8471	C847	0.714760	0.249580	0.621200
H3181	H318	0.709800	0.232300	0.620100
C8481	C848	0.740340	0.255730	0.620600
C8491	C849	0.760200	0.235460	0.619500
C8501	C850	0.785670	0.241420	0.618100
H3191	H319	0.790600	0.258800	0.617900
C8511	C851	0.754100	0.209550	0.619300
H3201	H320	0.736800	0.204500	0.620900
C8521	C852	0.772700	0.191070	0.617000
C8531	C853	0.766300	0.163200	0.616600
C8541	C854	0.797400	0.197800	0.615500
H3211	H321	0.810100	0.185100	0.613300
C8551	C855	0.804310	0.222950	0.617000
C8561	C856	0.831980	0.229900	0.616400
C8571	C857	0.644110	0.197820	0.575470
C8581	C858	0.658460	0.177620	0.561340
C8591	C859	0.674160	0.161090	0.574520
H3221	H322	0.674800	0.161400	0.592600
C8601	C860	0.689010	0.144110	0.560730
C8611	C861	0.707710	0.127490	0.574290
C8621	C862	0.687090	0.142890	0.534540
H3231	H323	0.696900	0.130800	0.525400
C8631	C863	0.656970	0.176660	0.534950
H3241	H324	0.646200	0.188200	0.526200
C8641	C864	0.670960	0.159200	0.521500
C8651	C865	0.669180	0.157590	0.492690
C8661	C866	0.683050	0.139790	0.479000
H3251	H325	0.694100	0.128500	0.487800
C8671	C867	0.681130	0.138190	0.452560
O4791	O479	0.689660	0.111700	0.417290
C8681	C868	0.665300	0.154570	0.439610
H3261	H326	0.663200	0.153000	0.421700
C8691	C869	0.652600	0.173200	0.452890
C8701	C870	0.638000	0.192800	0.438800
C8711	C871	0.654700	0.174700	0.478760
H3271	H327	0.646000	0.187900	0.487500
C8721	C872	0.569000	0.201200	0.629500
C8731	C873	0.554900	0.183100	0.646700
C8741	C874	0.568780	0.167800	0.663100
H3281	H328	0.586800	0.166800	0.661900
C8751	C875	0.555670	0.154000	0.681500
C8761	C876	0.569850	0.139500	0.701500
C8771	C877	0.529050	0.154900	0.682100
H3291	H329	0.520300	0.145300	0.694600
C8781	C878	0.528180	0.183800	0.647820
H3301	H330	0.519100	0.194500	0.636500
C8791	C879	0.515050	0.169200	0.664990
C8801	C880	0.486240	0.169700	0.666440
C8811	C881	0.471650	0.184230	0.649780
H3311	H331	0.480000	0.194100	0.637100
C8821	C882	0.445360	0.184720	0.651160
C8831	C883	0.430210	0.202200	0.634850
C8841	C884	0.432850	0.170390	0.669200
H3321	H332	0.414800	0.170000	0.669800
C8851	C885	0.447540	0.156390	0.686620
C8861	C886	0.434140	0.142590	0.707860
C8871	C887	0.473740	0.156500	0.685320
H3331	H333	0.483300	0.147300	0.697600
C8881	C888	0.753700	0.043040	0.568490
C8891	C889	0.752800	0.018660	0.553760
C8901	C890	0.752500	0.995790	0.566860
H3341	H334	0.753400	0.995600	0.584900
C8911	C891	0.751000	0.973570	0.553680
C8921	C892	0.750800	0.949310	0.568380
C8931	C893	0.750000	0.973380	0.527500
H3351	H335	0.748600	0.957700	0.518700
C8941	C894	0.751000	0.996170	0.514020
C8951	C895	0.751600	0.018820	0.527600
H3361	H336	0.751100	0.034600	0.518800
O4801	O480	0.654670	0.279180	0.632930
C8961	C896	0.697800	0.119950	0.438240
Zn1291	Zn129	0.378900	0.875990	0.219760
Zn1301	Zn130	0.374370	0.880530	0.277200
Zn1311	Zn131	0.427900	0.879440	0.248990
Zn1321	Zn132	0.394370	0.929580	0.249800
Zn1331	Zn133	0.373130	0.768550	0.118620
Zn1341	Zn134	0.383760	0.709350	0.112240
Zn1351	Zn135	0.428550	0.746440	0.097810
Zn1361	Zn136	0.379740	0.743680	0.064240
O4811	O481	0.383020	0.838310	0.240890
O4821	O482	0.370230	0.781850	0.342900
O4831	O483	0.384670	0.742990	0.334660
O4841	O484	0.376040	0.755240	0.155730
O4851	O485	0.393100	0.716700	0.149110
O4861	O486	0.386460	0.662190	0.252710
O4871	O487	0.379600	0.653160	0.211800
O4881	O488	0.401020	0.859690	0.194400
O4891	O489	0.437100	0.863450	0.216540
O4901	O490	0.402070	0.793650	0.126920
O4911	O491	0.439390	0.776800	0.115580
O4921	O492	0.552460	0.781070	0.114750
O4931	O493	0.581220	0.872880	0.187000
O4941	O494	0.551700	0.860700	0.215230
O4951	O495	0.374790	0.908510	0.196940
O4961	O496	0.377930	0.943620	0.220690
O4971	O497	0.276570	0.940780	0.139000
O4981	O498	0.303550	0.909190	0.130260
O4991	O499	0.364380	0.093920	0.198740
O5001	O500	0.377450	0.058120	0.218820
O5011	O501	0.273340	0.052110	0.137460
O5021	O502	0.294390	0.088410	0.137330
O5031	O503	0.408360	0.743300	0.040680
O5041	O504	0.443360	0.747810	0.063460
O5051	O505	0.407820	0.746780	0.951190
O5061	O506	0.443780	0.751550	0.928650
O5071	O507	0.392430	0.743000	0.098210
O5081	O508	0.394010	0.893060	0.249120
C8971	C897	0.375800	0.831720	0.261700
C8981	C898	0.376700	0.803780	0.268300
C8991	C899	0.375800	0.796710	0.293800
H3371	H337	0.374200	0.809300	0.306700
C9001	C900	0.377300	0.771350	0.300260
C9011	C901	0.377800	0.764900	0.328180
C9021	C902	0.378900	0.753010	0.281400
H3381	H338	0.379600	0.735600	0.286000
C9031	C903	0.378800	0.785240	0.249580
H3391	H339	0.379900	0.790200	0.232300
C9041	C904	0.379400	0.759660	0.255730
C9051	C905	0.380500	0.739800	0.235460
C9061	C906	0.381900	0.714330	0.241420
H3401	H340	0.382100	0.709400	0.258800
C9071	C907	0.380700	0.745900	0.209550
H3411	H341	0.379100	0.763200	0.204500
C9081	C908	0.383000	0.727300	0.191070
C9091	C909	0.383400	0.733700	0.163200
C9101	C910	0.384500	0.702600	0.197800
H3421	H342	0.386700	0.689900	0.185100
C9111	C911	0.383000	0.695690	0.222950
C9121	C912	0.383600	0.668020	0.229900
C9131	C913	0.424530	0.855890	0.197820
C9141	C914	0.438660	0.841540	0.177620
C9151	C915	0.425480	0.825840	0.161090
H3431	H343	0.407400	0.825200	0.161400
C9161	C916	0.439270	0.810990	0.144110
C9171	C917	0.425710	0.792290	0.127490
C9181	C918	0.465460	0.812910	0.142890
H3441	H344	0.474600	0.803100	0.130800
C9191	C919	0.465050	0.843030	0.176660
H3451	H345	0.473800	0.853800	0.188200
C9201	C920	0.478500	0.829040	0.159200
C9211	C921	0.507310	0.830820	0.157590
C9221	C922	0.521000	0.816950	0.139790
H3461	H346	0.512200	0.805900	0.128500
C9231	C923	0.547440	0.818870	0.138190
O5091	O509	0.582710	0.810340	0.111700
C9241	C924	0.560390	0.834700	0.154570
H3471	H347	0.578300	0.836800	0.153000
C9251	C925	0.547110	0.847400	0.173200
C9261	C926	0.561200	0.862000	0.192800
C9271	C927	0.521240	0.845300	0.174700
H3481	H348	0.512500	0.854000	0.187900
C9281	C928	0.370500	0.931000	0.201200
C9291	C929	0.353300	0.945100	0.183100
C9301	C930	0.336900	0.931220	0.167800
H3491	H349	0.338100	0.913200	0.166800
C9311	C931	0.318500	0.944330	0.154000
C9321	C932	0.298500	0.930150	0.139500
C9331	C933	0.317900	0.970950	0.154900
H3501	H350	0.305400	0.979700	0.145300
C9341	C934	0.352180	0.971820	0.183800
H3511	H351	0.363500	0.980900	0.194500
C9351	C935	0.335010	0.984950	0.169200
C9361	C936	0.333560	0.013760	0.169700
C9371	C937	0.350220	0.028350	0.184230
H3521	H352	0.362900	0.020000	0.194100
C9381	C938	0.348840	0.054640	0.184720
C9391	C939	0.365150	0.069790	0.202200
C9401	C940	0.330800	0.067150	0.170390
H3531	H353	0.330200	0.085200	0.170000
C9411	C941	0.313380	0.052460	0.156390
C9421	C942	0.292140	0.065860	0.142590
C9431	C943	0.314680	0.026260	0.156500
H3541	H354	0.302400	0.016700	0.147300
C9441	C944	0.431510	0.746300	0.043040
C9451	C945	0.446240	0.747200	0.018660
C9461	C946	0.433140	0.747500	0.995790
H3551	H355	0.415100	0.746600	0.995600
C9471	C947	0.446320	0.749000	0.973570
C9481	C948	0.431620	0.749200	0.949310
C9491	C949	0.472500	0.750000	0.973380
H3561	H356	0.481300	0.751400	0.957700
C9501	C950	0.485980	0.749000	0.996170
C9511	C951	0.472400	0.748400	0.018820
H3571	H357	0.481200	0.748900	0.034600
O5101	O510	0.367070	0.845330	0.279180
C9521	C952	0.561760	0.802200	0.119950
Zn1371	Zn137	0.878900	0.375990	0.719760
Zn1381	Zn138	0.874370	0.380530	0.777200
Zn1391	Zn139	0.927900	0.379440	0.748990
Zn1401	Zn140	0.894370	0.429580	0.749800
Zn1411	Zn141	0.873130	0.268550	0.618620
Zn1421	Zn142	0.883760	0.209350	0.612240
Zn1431	Zn143	0.928550	0.246440	0.597810
Zn1441	Zn144	0.879740	0.243680	0.564240
O5111	O511	0.883020	0.338310	0.740890
O5121	O512	0.870230	0.281850	0.842900
O5131	O513	0.884670	0.242990	0.834660
O5141	O514	0.876040	0.255240	0.655730
O5151	O515	0.893100	0.216700	0.649110
O5161	O516	0.886460	0.162190	0.752710
O5171	O517	0.879600	0.153160	0.711800
O5181	O518	0.901020	0.359690	0.694400
O5191	O519	0.937100	0.363450	0.716540
O5201	O520	0.902070	0.293650	0.626920
O5211	O521	0.939390	0.276800	0.615580
O5221	O522	0.052460	0.281070	0.614750
O5231	O523	0.081220	0.372880	0.687000
O5241	O524	0.051700	0.360700	0.715230
O5251	O525	0.874790	0.408510	0.696940
O5261	O526	0.877930	0.443620	0.720690
O5271	O527	0.776570	0.440780	0.639000
O5281	O528	0.803550	0.409190	0.630260
O5291	O529	0.864380	0.593920	0.698740
O5301	O530	0.877450	0.558120	0.718820
O5311	O531	0.773340	0.552110	0.637460
O5321	O532	0.794390	0.588410	0.637330
O5331	O533	0.908360	0.243300	0.540680
O5341	O534	0.943360	0.247810	0.563460
O5351	O535	0.907820	0.246780	0.451190
O5361	O536	0.943780	0.251550	0.428650
O5371	O537	0.892430	0.243000	0.598210
O5381	O538	0.894010	0.393060	0.749120
C9531	C953	0.875800	0.331720	0.761700
C9541	C954	0.876700	0.303780	0.768300
C9551	C955	0.875800	0.296710	0.793800
H3581	H358	0.874200	0.309300	0.806700
C9561	C956	0.877300	0.271350	0.800260
C9571	C957	0.877800	0.264900	0.828180
C9581	C958	0.878900	0.253010	0.781400
H3591	H359	0.879600	0.235600	0.786000
C9591	C959	0.878800	0.285240	0.749580
H3601	H360	0.879900	0.290200	0.732300
C9601	C960	0.879400	0.259660	0.755730
C9611	C961	0.880500	0.239800	0.735460
C9621	C962	0.881900	0.214330	0.741420
H3611	H361	0.882100	0.209400	0.758800
C9631	C963	0.880700	0.245900	0.709550
H3621	H362	0.879100	0.263200	0.704500
C9641	C964	0.883000	0.227300	0.691070
C9651	C965	0.883400	0.233700	0.663200
C9661	C966	0.884500	0.202600	0.697800
H3631	H363	0.886700	0.189900	0.685100
C9671	C967	0.883000	0.195690	0.722950
C9681	C968	0.883600	0.168020	0.729900
C9691	C969	0.924530	0.355890	0.697820
C9701	C970	0.938660	0.341540	0.677620
C9711	C971	0.925480	0.325840	0.661090
H3641	H364	0.907400	0.325200	0.661400
C9721	C972	0.939270	0.310990	0.644110
C9731	C973	0.925710	0.292290	0.627490
C9741	C974	0.965460	0.312910	0.642890
H3651	H365	0.974600	0.303100	0.630800
C9751	C975	0.965050	0.343030	0.676660
H3661	H366	0.973800	0.353800	0.688200
C9761	C976	0.978500	0.329040	0.659200
C9771	C977	0.007310	0.330820	0.657590
C9781	C978	0.021000	0.316950	0.639790
H3671	H367	0.012200	0.305900	0.628500
C9791	C979	0.047440	0.318870	0.638190
O5391	O539	0.082710	0.310340	0.611700
C9801	C980	0.060390	0.334700	0.654570
H3681	H368	0.078300	0.336800	0.653000
C9811	C981	0.047110	0.347400	0.673200
C9821	C982	0.061200	0.362000	0.692800
C9831	C983	0.021240	0.345300	0.674700
H3691	H369	0.012500	0.354000	0.687900
C9841	C984	0.870500	0.431000	0.701200
C9851	C985	0.853300	0.445100	0.683100
C9861	C986	0.836900	0.431220	0.667800
H3701	H370	0.838100	0.413200	0.666800
C9871	C987	0.818500	0.444330	0.654000
C9881	C988	0.798500	0.430150	0.639500
C9891	C989	0.817900	0.470950	0.654900
H3711	H371	0.805400	0.479700	0.645300
C9901	C990	0.852180	0.471820	0.683800
H3721	H372	0.863500	0.480900	0.694500
C9911	C991	0.835010	0.484950	0.669200
C9921	C992	0.833560	0.513760	0.669700
C9931	C993	0.850220	0.528350	0.684230
H3731	H373	0.862900	0.520000	0.694100
C9941	C994	0.848840	0.554640	0.684720
C9951	C995	0.865150	0.569790	0.702200
C9961	C996	0.830800	0.567150	0.670390
H3741	H374	0.830200	0.585200	0.670000
C9971	C997	0.813380	0.552460	0.656390
C9981	C998	0.792140	0.565860	0.642590
C9991	C999	0.814680	0.526260	0.656500
H3751	H375	0.802400	0.516700	0.647300
C10001	C1000	0.931510	0.246300	0.543040
C10011	C1001	0.946240	0.247200	0.518660
C10021	C1002	0.933140	0.247500	0.495790
H3761	H376	0.915100	0.246600	0.495600
C10031	C1003	0.946320	0.249000	0.473570
C10041	C1004	0.931620	0.249200	0.449310
C10051	C1005	0.972500	0.250000	0.473380
H3771	H377	0.981300	0.251400	0.457700
C10061	C1006	0.985980	0.249000	0.496170
C10071	C1007	0.972400	0.248400	0.518820
H3781	H378	0.981200	0.248900	0.534600
O5401	O540	0.867070	0.345330	0.779180
C10081	C1008	0.061760	0.302200	0.619950
Zn1451	Zn145	0.621100	0.375990	0.280240
Zn1461	Zn146	0.625630	0.380530	0.222800
Zn1471	Zn147	0.572100	0.379440	0.251010
Zn1481	Zn148	0.605630	0.429580	0.250200
Zn1491	Zn149	0.626870	0.268550	0.381380
Zn1501	Zn150	0.616240	0.209350	0.387760
Zn1511	Zn151	0.571450	0.246440	0.402190
Zn1521	Zn152	0.620260	0.243680	0.435760
O5411	O541	0.616980	0.338310	0.259110
O5421	O542	0.629770	0.281850	0.157100
O5431	O543	0.615330	0.242990	0.165340
O5441	O544	0.623960	0.255240	0.344270
O5451	O545	0.606900	0.216700	0.350890
O5461	O546	0.613540	0.162190	0.247290
O5471	O547	0.620400	0.153160	0.288200
O5481	O548	0.598980	0.359690	0.305600
O5491	O549	0.562900	0.363450	0.283460
O5501	O550	0.597930	0.293650	0.373080
O5511	O551	0.560610	0.276800	0.384420
O5521	O552	0.447540	0.281070	0.385250
O5531	O553	0.418780	0.372880	0.313000
O5541	O554	0.448300	0.360700	0.284770
O5551	O555	0.625210	0.408510	0.303060
O5561	O556	0.622070	0.443620	0.279310
O5571	O557	0.723430	0.440780	0.361000
O5581	O558	0.696450	0.409190	0.369740
O5591	O559	0.635620	0.593920	0.301260
O5601	O560	0.622550	0.558120	0.281180
O5611	O561	0.726660	0.552110	0.362540
O5621	O562	0.705610	0.588410	0.362670
O5631	O563	0.591640	0.243300	0.459320
O5641	O564	0.556640	0.247810	0.436540
O5651	O565	0.592180	0.246780	0.548810
O5661	O566	0.556220	0.251550	0.571350
O5671	O567	0.607570	0.243000	0.401790
O5681	O568	0.605990	0.393060	0.250880
C10091	C1009	0.624200	0.331720	0.238300
C10101	C1010	0.623300	0.303780	0.231700
C10111	C1011	0.624200	0.296710	0.206200
H3791	H379	0.625800	0.309300	0.193300
C10121	C1012	0.622700	0.271350	0.199740
C10131	C1013	0.622200	0.264900	0.171820
C10141	C1014	0.621100	0.253010	0.218600
H3801	H380	0.620400	0.235600	0.214000
C10151	C1015	0.621200	0.285240	0.250420
H3811	H381	0.620100	0.290200	0.267700
C10161	C1016	0.620600	0.259660	0.244270
C10171	C1017	0.619500	0.239800	0.264540
C10181	C1018	0.618100	0.214330	0.258580
H3821	H382	0.617900	0.209400	0.241200
C10191	C1019	0.619300	0.245900	0.290450
H3831	H383	0.620900	0.263200	0.295500
C10201	C1020	0.617000	0.227300	0.308930
C10211	C1021	0.616600	0.233700	0.336800
C10221	C1022	0.615500	0.202600	0.302200
H3841	H384	0.613300	0.189900	0.314900
C10231	C1023	0.617000	0.195690	0.277050
C10241	C1024	0.616400	0.168020	0.270100
C10251	C1025	0.575470	0.355890	0.302180
C10261	C1026	0.561340	0.341540	0.322380
C10271	C1027	0.574520	0.325840	0.338910
H3851	H385	0.592600	0.325200	0.338600
C10281	C1028	0.560730	0.310990	0.355890
C10291	C1029	0.574290	0.292290	0.372510
C10301	C1030	0.534540	0.312910	0.357110
H3861	H386	0.525400	0.303100	0.369200
C10311	C1031	0.534950	0.343030	0.323340
H3871	H387	0.526200	0.353800	0.311800
C10321	C1032	0.521500	0.329040	0.340800
C10331	C1033	0.492690	0.330820	0.342410
C10341	C1034	0.479000	0.316950	0.360210
H3881	H388	0.487800	0.305900	0.371500
C10351	C1035	0.452560	0.318870	0.361810
O5691	O569	0.417290	0.310340	0.388300
C10361	C1036	0.439610	0.334700	0.345430
H3891	H389	0.421700	0.336800	0.347000
C10371	C1037	0.452890	0.347400	0.326800
C10381	C1038	0.438800	0.362000	0.307200
C10391	C1039	0.478760	0.345300	0.325300
H3901	H390	0.487500	0.354000	0.312100
C10401	C1040	0.629500	0.431000	0.298800
C10411	C1041	0.646700	0.445100	0.316900
C10421	C1042	0.663100	0.431220	0.332200
H3911	H391	0.661900	0.413200	0.333200
C10431	C1043	0.681500	0.444330	0.346000
C10441	C1044	0.701500	0.430150	0.360500
C10451	C1045	0.682100	0.470950	0.345100
H3921	H392	0.694600	0.479700	0.354700
C10461	C1046	0.647820	0.471820	0.316200
H3931	H393	0.636500	0.480900	0.305500
C10471	C1047	0.664990	0.484950	0.330800
C10481	C1048	0.666440	0.513760	0.330300
C10491	C1049	0.649780	0.528350	0.315770
H3941	H394	0.637100	0.520000	0.305900
C10501	C1050	0.651160	0.554640	0.315280
C10511	C1051	0.634850	0.569790	0.297800
C10521	C1052	0.669200	0.567150	0.329610
H3951	H395	0.669800	0.585200	0.330000
C10531	C1053	0.686620	0.552460	0.343610
C10541	C1054	0.707860	0.565860	0.357410
C10551	C1055	0.685320	0.526260	0.343500
H3961	H396	0.697600	0.516700	0.352700
C10561	C1056	0.568490	0.246300	0.456960
C10571	C1057	0.553760	0.247200	0.481340
C10581	C1058	0.566860	0.247500	0.504210
H3971	H397	0.584900	0.246600	0.504400
C10591	C1059	0.553680	0.249000	0.526430
C10601	C1060	0.568380	0.249200	0.550690
C10611	C1061	0.527500	0.250000	0.526620
H3981	H398	0.518700	0.251400	0.542300
C10621	C1062	0.514020	0.249000	0.503830
C10631	C1063	0.527600	0.248400	0.481180
H3991	H399	0.518800	0.248900	0.465400
O5701	O570	0.632930	0.345330	0.220820
C10641	C1064	0.438240	0.302200	0.380050
Zn1531	Zn153	0.121100	0.875990	0.780240
Zn1541	Zn154	0.125630	0.880530	0.722800
Zn1551	Zn155	0.072100	0.879440	0.751010
Zn1561	Zn156	0.105630	0.929580	0.750200
Zn1571	Zn157	0.126870	0.768550	0.881380
Zn1581	Zn158	0.116240	0.709350	0.887760
Zn1591	Zn159	0.071450	0.746440	0.902190
Zn1601	Zn160	0.120260	0.743680	0.935760
O5711	O571	0.116980	0.838310	0.759110
O5721	O572	0.129770	0.781850	0.657100
O5731	O573	0.115330	0.742990	0.665340
O5741	O574	0.123960	0.755240	0.844270
O5751	O575	0.106900	0.716700	0.850890
O5761	O576	0.113540	0.662190	0.747290
O5771	O577	0.120400	0.653160	0.788200
O5781	O578	0.098980	0.859690	0.805600
O5791	O579	0.062900	0.863450	0.783460
O5801	O580	0.097930	0.793650	0.873080
O5811	O581	0.060610	0.776800	0.884420
O5821	O582	0.947540	0.781070	0.885250
O5831	O583	0.918780	0.872880	0.813000
O5841	O584	0.948300	0.860700	0.784770
O5851	O585	0.125210	0.908510	0.803060
O5861	O586	0.122070	0.943620	0.779310
O5871	O587	0.223430	0.940780	0.861000
O5881	O588	0.196450	0.909190	0.869740
O5891	O589	0.135620	0.093920	0.801260
O5901	O590	0.122550	0.058120	0.781180
O5911	O591	0.226660	0.052110	0.862540
O5921	O592	0.205610	0.088410	0.862670
O5931	O593	0.091640	0.743300	0.959320
O5941	O594	0.056640	0.747810	0.936540
O5951	O595	0.092180	0.746780	0.048810
O5961	O596	0.056220	0.751550	0.071350
O5971	O597	0.107570	0.743000	0.901790
O5981	O598	0.105990	0.893060	0.750880
C10651	C1065	0.124200	0.831720	0.738300
C10661	C1066	0.123300	0.803780	0.731700
C10671	C1067	0.124200	0.796710	0.706200
H4001	H400	0.125800	0.809300	0.693300
C10681	C1068	0.122700	0.771350	0.699740
C10691	C1069	0.122200	0.764900	0.671820
C10701	C1070	0.121100	0.753010	0.718600
H4011	H401	0.120400	0.735600	0.714000
C10711	C1071	0.121200	0.785240	0.750420
H4021	H402	0.120100	0.790200	0.767700
C10721	C1072	0.120600	0.759660	0.744270
C10731	C1073	0.119500	0.739800	0.764540
C10741	C1074	0.118100	0.714330	0.758580
H4031	H403	0.117900	0.709400	0.741200
C10751	C1075	0.119300	0.745900	0.790450
H4041	H404	0.120900	0.763200	0.795500
C10761	C1076	0.117000	0.727300	0.808930
C10771	C1077	0.116600	0.733700	0.836800
C10781	C1078	0.115500	0.702600	0.802200
H4051	H405	0.113300	0.689900	0.814900
C10791	C1079	0.117000	0.695690	0.777050
C10801	C1080	0.116400	0.668020	0.770100
C10811	C1081	0.075470	0.855890	0.802180
C10821	C1082	0.061340	0.841540	0.822380
C10831	C1083	0.074520	0.825840	0.838910
H4061	H406	0.092600	0.825200	0.838600
C10841	C1084	0.060730	0.810990	0.855890
C10851	C1085	0.074290	0.792290	0.872510
C10861	C1086	0.034540	0.812910	0.857110
H4071	H407	0.025400	0.803100	0.869200
C10871	C1087	0.034950	0.843030	0.823340
H4081	H408	0.026200	0.853800	0.811800
C10881	C1088	0.021500	0.829040	0.840800
C10891	C1089	0.992690	0.830820	0.842410
C10901	C1090	0.979000	0.816950	0.860210
H4091	H409	0.987800	0.805900	0.871500
C10911	C1091	0.952560	0.818870	0.861810
O5991	O599	0.917290	0.810340	0.888300
C10921	C1092	0.939610	0.834700	0.845430
H4101	H410	0.921700	0.836800	0.847000
C10931	C1093	0.952890	0.847400	0.826800
C10941	C1094	0.938800	0.862000	0.807200
C10951	C1095	0.978760	0.845300	0.825300
H4111	H411	0.987500	0.854000	0.812100
C10961	C1096	0.129500	0.931000	0.798800
C10971	C1097	0.146700	0.945100	0.816900
C10981	C1098	0.163100	0.931220	0.832200
H4121	H412	0.161900	0.913200	0.833200
C10991	C1099	0.181500	0.944330	0.846000
C11001	C1100	0.201500	0.930150	0.860500
C11011	C1101	0.182100	0.970950	0.845100
H4131	H413	0.194600	0.979700	0.854700
C11021	C1102	0.147820	0.971820	0.816200
H4141	H414	0.136500	0.980900	0.805500
C11031	C1103	0.164990	0.984950	0.830800
C11041	C1104	0.166440	0.013760	0.830300
C11051	C1105	0.149780	0.028350	0.815770
H4151	H415	0.137100	0.020000	0.805900
C11061	C1106	0.151160	0.054640	0.815280
C11071	C1107	0.134850	0.069790	0.797800
C11081	C1108	0.169200	0.067150	0.829610
H4161	H416	0.169800	0.085200	0.830000
C11091	C1109	0.186620	0.052460	0.843610
C11101	C1110	0.207860	0.065860	0.857410
C11111	C1111	0.185320	0.026260	0.843500
H4171	H417	0.197600	0.016700	0.852700
C11121	C1112	0.068490	0.746300	0.956960
C11131	C1113	0.053760	0.747200	0.981340
C11141	C1114	0.066860	0.747500	0.004210
H4181	H418	0.084900	0.746600	0.004400
C11151	C1115	0.053680	0.749000	0.026430
C11161	C1116	0.068380	0.749200	0.050690
C11171	C1117	0.027500	0.750000	0.026620
H4191	H419	0.018700	0.751400	0.042300
C11181	C1118	0.014020	0.749000	0.003830
C11191	C1119	0.027600	0.748400	0.981180
H4201	H420	0.018800	0.748900	0.965400
O6001	O600	0.132930	0.845330	0.720820
C11201	C1120	0.938240	0.802200	0.880050
Zn1611	Zn161	0.878900	0.624010	0.780240
Zn1621	Zn162	0.874370	0.619470	0.722800
Zn1631	Zn163	0.927900	0.620560	0.751010
Zn1641	Zn164	0.894370	0.570420	0.750200
Zn1651	Zn165	0.873130	0.731450	0.881380
Zn1661	Zn166	0.883760	0.790650	0.887760
Zn1671	Zn167	0.928550	0.753560	0.902190
Zn1681	Zn168	0.879740	0.756320	0.935760
O6011	O601	0.883020	0.661690	0.759110
O6021	O602	0.870230	0.718150	0.657100
O6031	O603	0.884670	0.757010	0.665340
O6041	O604	0.876040	0.744760	0.844270
O6051	O605	0.893100	0.783300	0.850890
O6061	O606	0.886460	0.837810	0.747290
O6071	O607	0.879600	0.846840	0.788200
O6081	O608	0.901020	0.640310	0.805600
O6091	O609	0.937100	0.636550	0.783460
O6101	O610	0.902070	0.706350	0.873080
O6111	O611	0.939390	0.723200	0.884420
O6121	O612	0.052460	0.718930	0.885250
O6131	O613	0.081220	0.627120	0.813000
O6141	O614	0.051700	0.639300	0.784770
O6151	O615	0.874790	0.591490	0.803060
O6161	O616	0.877930	0.556380	0.779310
O6171	O617	0.776570	0.559220	0.861000
O6181	O618	0.803550	0.590810	0.869740
O6191	O619	0.864380	0.406080	0.801260
O6201	O620	0.877450	0.441880	0.781180
O6211	O621	0.773340	0.447890	0.862540
O6221	O622	0.794390	0.411590	0.862670
O6231	O623	0.908360	0.756700	0.959320
O6241	O624	0.943360	0.752190	0.936540
O6251	O625	0.907820	0.753220	0.048810
O6261	O626	0.943780	0.748450	0.071350
O6271	O627	0.892430	0.757000	0.901790
O6281	O628	0.894010	0.606940	0.750880
C11211	C1121	0.875800	0.668280	0.738300
C11221	C1122	0.876700	0.696220	0.731700
C11231	C1123	0.875800	0.703290	0.706200
H4211	H421	0.874200	0.690700	0.693300
C11241	C1124	0.877300	0.728650	0.699740
C11251	C1125	0.877800	0.735100	0.671820
C11261	C1126	0.878900	0.746990	0.718600
H4221	H422	0.879600	0.764400	0.714000
C11271	C1127	0.878800	0.714760	0.750420
H4231	H423	0.879900	0.709800	0.767700
C11281	C1128	0.879400	0.740340	0.744270
C11291	C1129	0.880500	0.760200	0.764540
C11301	C1130	0.881900	0.785670	0.758580
H4241	H424	0.882100	0.790600	0.741200
C11311	C1131	0.880700	0.754100	0.790450
H4251	H425	0.879100	0.736800	0.795500
C11321	C1132	0.883000	0.772700	0.808930
C11331	C1133	0.883400	0.766300	0.836800
C11341	C1134	0.884500	0.797400	0.802200
H4261	H426	0.886700	0.810100	0.814900
C11351	C1135	0.883000	0.804310	0.777050
C11361	C1136	0.883600	0.831980	0.770100
C11371	C1137	0.924530	0.644110	0.802180
C11381	C1138	0.938660	0.658460	0.822380
C11391	C1139	0.925480	0.674160	0.838910
H4271	H427	0.907400	0.674800	0.838600
C11401	C1140	0.939270	0.689010	0.855890
C11411	C1141	0.925710	0.707710	0.872510
C11421	C1142	0.965460	0.687090	0.857110
H4281	H428	0.974600	0.696900	0.869200
C11431	C1143	0.965050	0.656970	0.823340
H4291	H429	0.973800	0.646200	0.811800
C11441	C1144	0.978500	0.670960	0.840800
C11451	C1145	0.007310	0.669180	0.842410
C11461	C1146	0.021000	0.683050	0.860210
H4301	H430	0.012200	0.694100	0.871500
C11471	C1147	0.047440	0.681130	0.861810
O6291	O629	0.082710	0.689660	0.888300
C11481	C1148	0.060390	0.665300	0.845430
H4311	H431	0.078300	0.663200	0.847000
C11491	C1149	0.047110	0.652600	0.826800
C11501	C1150	0.061200	0.638000	0.807200
C11511	C1151	0.021240	0.654700	0.825300
H4321	H432	0.012500	0.646000	0.812100
C11521	C1152	0.870500	0.569000	0.798800
C11531	C1153	0.853300	0.554900	0.816900
C11541	C1154	0.836900	0.568780	0.832200
H4331	H433	0.838100	0.586800	0.833200
C11551	C1155	0.818500	0.555670	0.846000
C11561	C1156	0.798500	0.569850	0.860500
C11571	C1157	0.817900	0.529050	0.845100
H4341	H434	0.805400	0.520300	0.854700
C11581	C1158	0.852180	0.528180	0.816200
H4351	H435	0.863500	0.519100	0.805500
C11591	C1159	0.835010	0.515050	0.830800
C11601	C1160	0.833560	0.486240	0.830300
C11611	C1161	0.850220	0.471650	0.815770
H4361	H436	0.862900	0.480000	0.805900
C11621	C1162	0.848840	0.445360	0.815280
C11631	C1163	0.865150	0.430210	0.797800
C11641	C1164	0.830800	0.432850	0.829610
H4371	H437	0.830200	0.414800	0.830000
C11651	C1165	0.813380	0.447540	0.843610
C11661	C1166	0.792140	0.434140	0.857410
C11671	C1167	0.814680	0.473740	0.843500
H4381	H438	0.802400	0.483300	0.852700
C11681	C1168	0.931510	0.753700	0.956960
C11691	C1169	0.946240	0.752800	0.981340
C11701	C1170	0.933140	0.752500	0.004210
H4391	H439	0.915100	0.753400	0.004400
C11711	C1171	0.946320	0.751000	0.026430
C11721	C1172	0.931620	0.750800	0.050690
C11731	C1173	0.972500	0.750000	0.026620
H4401	H440	0.981300	0.748600	0.042300
C11741	C1174	0.985980	0.751000	0.003830
C11751	C1175	0.972400	0.751600	0.981180
H4411	H441	0.981200	0.751100	0.965400
O6301	O630	0.867070	0.654670	0.720820
C11761	C1176	0.061760	0.697800	0.880050
Zn1691	Zn169	0.378900	0.124010	0.280240
Zn1701	Zn170	0.374370	0.119470	0.222800
Zn1711	Zn171	0.427900	0.120560	0.251010
Zn1721	Zn172	0.394370	0.070420	0.250200
Zn1731	Zn173	0.373130	0.231450	0.381380
Zn1741	Zn174	0.383760	0.290650	0.387760
Zn1751	Zn175	0.428550	0.253560	0.402190
Zn1761	Zn176	0.379740	0.256320	0.435760
O6311	O631	0.383020	0.161690	0.259110
O6321	O632	0.370230	0.218150	0.157100
O6331	O633	0.384670	0.257010	0.165340
O6341	O634	0.376040	0.244760	0.344270
O6351	O635	0.393100	0.283300	0.350890
O6361	O636	0.386460	0.337810	0.247290
O6371	O637	0.379600	0.346840	0.288200
O6381	O638	0.401020	0.140310	0.305600
O6391	O639	0.437100	0.136550	0.283460
O6401	O640	0.402070	0.206350	0.373080
O6411	O641	0.439390	0.223200	0.384420
O6421	O642	0.552460	0.218930	0.385250
O6431	O643	0.581220	0.127120	0.313000
O6441	O644	0.551700	0.139300	0.284770
O6451	O645	0.374790	0.091490	0.303060
O6461	O646	0.377930	0.056380	0.279310
O6471	O647	0.276570	0.059220	0.361000
O6481	O648	0.303550	0.090810	0.369740
O6491	O649	0.364380	0.906080	0.301260
O6501	O650	0.377450	0.941880	0.281180
O6511	O651	0.273340	0.947890	0.362540
O6521	O652	0.294390	0.911590	0.362670
O6531	O653	0.408360	0.256700	0.459320
O6541	O654	0.443360	0.252190	0.436540
O6551	O655	0.407820	0.253220	0.548810
O6561	O656	0.443780	0.248450	0.571350
O6571	O657	0.392430	0.257000	0.401790
O6581	O658	0.394010	0.106940	0.250880
C11771	C1177	0.375800	0.168280	0.238300
C11781	C1178	0.376700	0.196220	0.231700
C11791	C1179	0.375800	0.203290	0.206200
H4421	H442	0.374200	0.190700	0.193300
C11801	C1180	0.377300	0.228650	0.199740
C11811	C1181	0.377800	0.235100	0.171820
C11821	C1182	0.378900	0.246990	0.218600
H4431	H443	0.379600	0.264400	0.214000
C11831	C1183	0.378800	0.214760	0.250420
H4441	H444	0.379900	0.209800	0.267700
C11841	C1184	0.379400	0.240340	0.244270
C11851	C1185	0.380500	0.260200	0.264540
C11861	C1186	0.381900	0.285670	0.258580
H4451	H445	0.382100	0.290600	0.241200
C11871	C1187	0.380700	0.254100	0.290450
H4461	H446	0.379100	0.236800	0.295500
C11881	C1188	0.383000	0.272700	0.308930
C11891	C1189	0.383400	0.266300	0.336800
C11901	C1190	0.384500	0.297400	0.302200
H4471	H447	0.386700	0.310100	0.314900
C11911	C1191	0.383000	0.304310	0.277050
C11921	C1192	0.383600	0.331980	0.270100
C11931	C1193	0.424530	0.144110	0.302180
C11941	C1194	0.438660	0.158460	0.322380
C11951	C1195	0.425480	0.174160	0.338910
H4481	H448	0.407400	0.174800	0.338600
C11961	C1196	0.439270	0.189010	0.355890
C11971	C1197	0.425710	0.207710	0.372510
C11981	C1198	0.465460	0.187090	0.357110
H4491	H449	0.474600	0.196900	0.369200
C11991	C1199	0.465050	0.156970	0.323340
H4501	H450	0.473800	0.146200	0.311800
C12001	C1200	0.478500	0.170960	0.340800
C12011	C1201	0.507310	0.169180	0.342410
C12021	C1202	0.521000	0.183050	0.360210
H4511	H451	0.512200	0.194100	0.371500
C12031	C1203	0.547440	0.181130	0.361810
O6591	O659	0.582710	0.189660	0.388300
C12041	C1204	0.560390	0.165300	0.345430
H4521	H452	0.578300	0.163200	0.347000
C12051	C1205	0.547110	0.152600	0.326800
C12061	C1206	0.561200	0.138000	0.307200
C12071	C1207	0.521240	0.154700	0.325300
H4531	H453	0.512500	0.146000	0.312100
C12081	C1208	0.370500	0.069000	0.298800
C12091	C1209	0.353300	0.054900	0.316900
C12101	C1210	0.336900	0.068780	0.332200
H4541	H454	0.338100	0.086800	0.333200
C12111	C1211	0.318500	0.055670	0.346000
C12121	C1212	0.298500	0.069850	0.360500
C12131	C1213	0.317900	0.029050	0.345100
H4551	H455	0.305400	0.020300	0.354700
C12141	C1214	0.352180	0.028180	0.316200
H4561	H456	0.363500	0.019100	0.305500
C12151	C1215	0.335010	0.015050	0.330800
C12161	C1216	0.333560	0.986240	0.330300
C12171	C1217	0.350220	0.971650	0.315770
H4571	H457	0.362900	0.980000	0.305900
C12181	C1218	0.348840	0.945360	0.315280
C12191	C1219	0.365150	0.930210	0.297800
C12201	C1220	0.330800	0.932850	0.329610
H4581	H458	0.330200	0.914800	0.330000
C12211	C1221	0.313380	0.947540	0.343610
C12221	C1222	0.292140	0.934140	0.357410
C12231	C1223	0.314680	0.973740	0.343500
H4591	H459	0.302400	0.983300	0.352700
C12241	C1224	0.431510	0.253700	0.456960
C12251	C1225	0.446240	0.252800	0.481340
C12261	C1226	0.433140	0.252500	0.504210
H4601	H460	0.415100	0.253400	0.504400
C12271	C1227	0.446320	0.251000	0.526430
C12281	C1228	0.431620	0.250800	0.550690
C12291	C1229	0.472500	0.250000	0.526620
H4611	H461	0.481300	0.248600	0.542300
C12301	C1230	0.485980	0.251000	0.503830
C12311	C1231	0.472400	0.251600	0.481180
H4621	H462	0.481200	0.251100	0.465400
O6601	O660	0.367070	0.154670	0.220820
C12321	C1232	0.561760	0.197800	0.380050
Zn1771	Zn177	0.121100	0.124010	0.719760
Zn1781	Zn178	0.125630	0.119470	0.777200
Zn1791	Zn179	0.072100	0.120560	0.748990
Zn1801	Zn180	0.105630	0.070420	0.749800
Zn1811	Zn181	0.126870	0.231450	0.618620
Zn1821	Zn182	0.116240	0.290650	0.612240
Zn1831	Zn183	0.071450	0.253560	0.597810
Zn1841	Zn184	0.120260	0.256320	0.564240
O6611	O661	0.116980	0.161690	0.740890
O6621	O662	0.129770	0.218150	0.842900
O6631	O663	0.115330	0.257010	0.834660
O6641	O664	0.123960	0.244760	0.655730
O6651	O665	0.106900	0.283300	0.649110
O6661	O666	0.113540	0.337810	0.752710
O6671	O667	0.120400	0.346840	0.711800
O6681	O668	0.098980	0.140310	0.694400
O6691	O669	0.062900	0.136550	0.716540
O6701	O670	0.097930	0.206350	0.626920
O6711	O671	0.060610	0.223200	0.615580
O6721	O672	0.947540	0.218930	0.614750
O6731	O673	0.918780	0.127120	0.687000
O6741	O674	0.948300	0.139300	0.715230
O6751	O675	0.125210	0.091490	0.696940
O6761	O676	0.122070	0.056380	0.720690
O6771	O677	0.223430	0.059220	0.639000
O6781	O678	0.196450	0.090810	0.630260
O6791	O679	0.135620	0.906080	0.698740
O6801	O680	0.122550	0.941880	0.718820
O6811	O681	0.226660	0.947890	0.637460
O6821	O682	0.205610	0.911590	0.637330
O6831	O683	0.091640	0.256700	0.540680
O6841	O684	0.056640	0.252190	0.563460
O6851	O685	0.092180	0.253220	0.451190
O6861	O686	0.056220	0.248450	0.428650
O6871	O687	0.107570	0.257000	0.598210
O6881	O688	0.105990	0.106940	0.749120
C12331	C1233	0.124200	0.168280	0.761700
C12341	C1234	0.123300	0.196220	0.768300
C12351	C1235	0.124200	0.203290	0.793800
H4631	H463	0.125800	0.190700	0.806700
C12361	C1236	0.122700	0.228650	0.800260
C12371	C1237	0.122200	0.235100	0.828180
C12381	C1238	0.121100	0.246990	0.781400
H4641	H464	0.120400	0.264400	0.786000
C12391	C1239	0.121200	0.214760	0.749580
H4651	H465	0.120100	0.209800	0.732300
C12401	C1240	0.120600	0.240340	0.755730
C12411	C1241	0.119500	0.260200	0.735460
C12421	C1242	0.118100	0.285670	0.741420
H4661	H466	0.117900	0.290600	0.758800
C12431	C1243	0.119300	0.254100	0.709550
H4671	H467	0.120900	0.236800	0.704500
C12441	C1244	0.117000	0.272700	0.691070
C12451	C1245	0.116600	0.266300	0.663200
C12461	C1246	0.115500	0.297400	0.697800
H4681	H468	0.113300	0.310100	0.685100
C12471	C1247	0.117000	0.304310	0.722950
C12481	C1248	0.116400	0.331980	0.729900
C12491	C1249	0.075470	0.144110	0.697820
C12501	C1250	0.061340	0.158460	0.677620
C12511	C1251	0.074520	0.174160	0.661090
H4691	H469	0.092600	0.174800	0.661400
C12521	C1252	0.060730	0.189010	0.644110
C12531	C1253	0.074290	0.207710	0.627490
C12541	C1254	0.034540	0.187090	0.642890
H4701	H470	0.025400	0.196900	0.630800
C12551	C1255	0.034950	0.156970	0.676660
H4711	H471	0.026200	0.146200	0.688200
C12561	C1256	0.021500	0.170960	0.659200
C12571	C1257	0.992690	0.169180	0.657590
C12581	C1258	0.979000	0.183050	0.639790
H4721	H472	0.987800	0.194100	0.628500
C12591	C1259	0.952560	0.181130	0.638190
O6891	O689	0.917290	0.189660	0.611700
C12601	C1260	0.939610	0.165300	0.654570
H4731	H473	0.921700	0.163200	0.653000
C12611	C1261	0.952890	0.152600	0.673200
C12621	C1262	0.938800	0.138000	0.692800
C12631	C1263	0.978760	0.154700	0.674700
H4741	H474	0.987500	0.146000	0.687900
C12641	C1264	0.129500	0.069000	0.701200
C12651	C1265	0.146700	0.054900	0.683100
C12661	C1266	0.163100	0.068780	0.667800
H4751	H475	0.161900	0.086800	0.666800
C12671	C1267	0.181500	0.055670	0.654000
C12681	C1268	0.201500	0.069850	0.639500
C12691	C1269	0.182100	0.029050	0.654900
H4761	H476	0.194600	0.020300	0.645300
C12701	C1270	0.147820	0.028180	0.683800
H4771	H477	0.136500	0.019100	0.694500
C12711	C1271	0.164990	0.015050	0.669200
C12721	C1272	0.166440	0.986240	0.669700
C12731	C1273	0.149780	0.971650	0.684230
H4781	H478	0.137100	0.980000	0.694100
C12741	C1274	0.151160	0.945360	0.684720
C12751	C1275	0.134850	0.930210	0.702200
C12761	C1276	0.169200	0.932850	0.670390
H4791	H479	0.169800	0.914800	0.670000
C12771	C1277	0.186620	0.947540	0.656390
C12781	C1278	0.207860	0.934140	0.642590
C12791	C1279	0.185320	0.973740	0.656500
H4801	H480	0.197600	0.983300	0.647300
C12801	C1280	0.068490	0.253700	0.543040
C12811	C1281	0.053760	0.252800	0.518660
C12821	C1282	0.066860	0.252500	0.495790
H4811	H481	0.084900	0.253400	0.495600
C12831	C1283	0.053680	0.251000	0.473570
C12841	C1284	0.068380	0.250800	0.449310
C12851	C1285	0.027500	0.250000	0.473380
H4821	H482	0.018700	0.248600	0.457700
C12861	C1286	0.014020	0.251000	0.496170
C12871	C1287	0.027600	0.251600	0.518820
H4831	H483	0.018800	0.251100	0.534600
O6901	O690	0.132930	0.154670	0.779180
C12881	C1288	0.938240	0.197800	0.619950
Zn1851	Zn185	0.621100	0.624010	0.219760
Zn1861	Zn186	0.625630	0.619470	0.277200
Zn1871	Zn187	0.572100	0.620560	0.248990
Zn1881	Zn188	0.605630	0.570420	0.249800
Zn1891	Zn189	0.626870	0.731450	0.118620
Zn1901	Zn190	0.616240	0.790650	0.112240
Zn1911	Zn191	0.571450	0.753560	0.097810
Zn1921	Zn192	0.620260	0.756320	0.064240
O6911	O691	0.616980	0.661690	0.240890
O6921	O692	0.629770	0.718150	0.342900
O6931	O693	0.615330	0.757010	0.334660
O6941	O694	0.623960	0.744760	0.155730
O6951	O695	0.606900	0.783300	0.149110
O6961	O696	0.613540	0.837810	0.252710
O6971	O697	0.620400	0.846840	0.211800
O6981	O698	0.598980	0.640310	0.194400
O6991	O699	0.562900	0.636550	0.216540
O7001	O700	0.597930	0.706350	0.126920
O7011	O701	0.560610	0.723200	0.115580
O7021	O702	0.447540	0.718930	0.114750
O7031	O703	0.418780	0.627120	0.187000
O7041	O704	0.448300	0.639300	0.215230
O7051	O705	0.625210	0.591490	0.196940
O7061	O706	0.622070	0.556380	0.220690
O7071	O707	0.723430	0.559220	0.139000
O7081	O708	0.696450	0.590810	0.130260
O7091	O709	0.635620	0.406080	0.198740
O7101	O710	0.622550	0.441880	0.218820
O7111	O711	0.726660	0.447890	0.137460
O7121	O712	0.705610	0.411590	0.137330
O7131	O713	0.591640	0.756700	0.040680
O7141	O714	0.556640	0.752190	0.063460
O7151	O715	0.592180	0.753220	0.951190
O7161	O716	0.556220	0.748450	0.928650
O7171	O717	0.607570	0.757000	0.098210
O7181	O718	0.605990	0.606940	0.249120
C12891	C1289	0.624200	0.668280	0.261700
C12901	C1290	0.623300	0.696220	0.268300
C12911	C1291	0.624200	0.703290	0.293800
H4841	H484	0.625800	0.690700	0.306700
C12921	C1292	0.622700	0.728650	0.300260
C12931	C1293	0.622200	0.735100	0.328180
C12941	C1294	0.621100	0.746990	0.281400
H4851	H485	0.620400	0.764400	0.286000
C12951	C1295	0.621200	0.714760	0.249580
H4861	H486	0.620100	0.709800	0.232300
C12961	C1296	0.620600	0.740340	0.255730
C12971	C1297	0.619500	0.760200	0.235460
C12981	C1298	0.618100	0.785670	0.241420
H4871	H487	0.617900	0.790600	0.258800
C12991	C1299	0.619300	0.754100	0.209550
H4881	H488	0.620900	0.736800	0.204500
C13001	C1300	0.617000	0.772700	0.191070
C13011	C1301	0.616600	0.766300	0.163200
C13021	C1302	0.615500	0.797400	0.197800
H4891	H489	0.613300	0.810100	0.185100
C13031	C1303	0.617000	0.804310	0.222950
C13041	C1304	0.616400	0.831980	0.229900
C13051	C1305	0.575470	0.644110	0.197820
C13061	C1306	0.561340	0.658460	0.177620
C13071	C1307	0.574520	0.674160	0.161090
H4901	H490	0.592600	0.674800	0.161400
C13081	C1308	0.560730	0.689010	0.144110
C13091	C1309	0.574290	0.707710	0.127490
C13101	C1310	0.534540	0.687090	0.142890
H4911	H491	0.525400	0.696900	0.130800
C13111	C1311	0.534950	0.656970	0.176660
H4921	H492	0.526200	0.646200	0.188200
C13121	C1312	0.521500	0.670960	0.159200
C13131	C1313	0.492690	0.669180	0.157590
C13141	C1314	0.479000	0.683050	0.139790
H4931	H493	0.487800	0.694100	0.128500
C13151	C1315	0.452560	0.681130	0.138190
O7191	O719	0.417290	0.689660	0.111700
C13161	C1316	0.439610	0.665300	0.154570
H4941	H494	0.421700	0.663200	0.153000
C13171	C1317	0.452890	0.652600	0.173200
C13181	C1318	0.438800	0.638000	0.192800
C13191	C1319	0.478760	0.654700	0.174700
H4951	H495	0.487500	0.646000	0.187900
C13201	C1320	0.629500	0.569000	0.201200
C13211	C1321	0.646700	0.554900	0.183100
C13221	C1322	0.663100	0.568780	0.167800
H4961	H496	0.661900	0.586800	0.166800
C13231	C1323	0.681500	0.555670	0.154000
C13241	C1324	0.701500	0.569850	0.139500
C13251	C1325	0.682100	0.529050	0.154900
H4971	H497	0.694600	0.520300	0.145300
C13261	C1326	0.647820	0.528180	0.183800
H4981	H498	0.636500	0.519100	0.194500
C13271	C1327	0.664990	0.515050	0.169200
C13281	C1328	0.666440	0.486240	0.169700
C13291	C1329	0.649780	0.471650	0.184230
H4991	H499	0.637100	0.480000	0.194100
C13301	C1330	0.651160	0.445360	0.184720
C13311	C1331	0.634850	0.430210	0.202200
C13321	C1332	0.669200	0.432850	0.170390
H5001	H500	0.669800	0.414800	0.170000
C13331	C1333	0.686620	0.447540	0.156390
C13341	C1334	0.707860	0.434140	0.142590
C13351	C1335	0.685320	0.473740	0.156500
H5011	H501	0.697600	0.483300	0.147300
C13361	C1336	0.568490	0.753700	0.043040
C13371	C1337	0.553760	0.752800	0.018660
C13381	C1338	0.566860	0.752500	0.995790
H5021	H502	0.584900	0.753400	0.995600
C13391	C1339	0.553680	0.751000	0.973570
C13401	C1340	0.568380	0.750800	0.949310
C13411	C1341	0.527500	0.750000	0.973380
H5031	H503	0.518700	0.748600	0.957700
C13421	C1342	0.514020	0.751000	0.996170
C13431	C1343	0.527600	0.751600	0.018820
H5041	H504	0.518800	0.751100	0.034600
O7201	O720	0.632930	0.654670	0.279180
C13441	C1344	0.438240	0.697800	0.119950
Zn1931	Zn193	0.780240	0.621100	0.124010
Zn1941	Zn194	0.722800	0.625630	0.119470
Zn1951	Zn195	0.751010	0.572100	0.120560
Zn1961	Zn196	0.750200	0.605630	0.070420
Zn1971	Zn197	0.881380	0.626870	0.231450
Zn1981	Zn198	0.887760	0.616240	0.290650
Zn1991	Zn199	0.902190	0.571450	0.253560
Zn2001	Zn200	0.935760	0.620260	0.256320
O7211	O721	0.759110	0.616980	0.161690
O7221	O722	0.657100	0.629770	0.218150
O7231	O723	0.665340	0.615330	0.257010
O7241	O724	0.844270	0.623960	0.244760
O7251	O725	0.850890	0.606900	0.283300
O7261	O726	0.747290	0.613540	0.337810
O7271	O727	0.788200	0.620400	0.346840
O7281	O728	0.805600	0.598980	0.140310
O7291	O729	0.783460	0.562900	0.136550
O7301	O730	0.873080	0.597930	0.206350
O7311	O731	0.884420	0.560610	0.223200
O7321	O732	0.885250	0.447540	0.218930
O7331	O733	0.813000	0.418780	0.127120
O7341	O734	0.784770	0.448300	0.139300
O7351	O735	0.803060	0.625210	0.091490
O7361	O736	0.779310	0.622070	0.056380
O7371	O737	0.861000	0.723430	0.059220
O7381	O738	0.869740	0.696450	0.090810
O7391	O739	0.801260	0.635620	0.906080
O7401	O740	0.781180	0.622550	0.941880
O7411	O741	0.862540	0.726660	0.947890
O7421	O742	0.862670	0.705610	0.911590
O7431	O743	0.959320	0.591640	0.256700
O7441	O744	0.936540	0.556640	0.252190
O7451	O745	0.048810	0.592180	0.253220
O7461	O746	0.071350	0.556220	0.248450
O7471	O747	0.901790	0.607570	0.257000
O7481	O748	0.750880	0.605990	0.106940
C13451	C1345	0.738300	0.624200	0.168280
C13461	C1346	0.731700	0.623300	0.196220
C13471	C1347	0.706200	0.624200	0.203290
H5051	H505	0.693300	0.625800	0.190700
C13481	C1348	0.699740	0.622700	0.228650
C13491	C1349	0.671820	0.622200	0.235100
C13501	C1350	0.718600	0.621100	0.246990
H5061	H506	0.714000	0.620400	0.264400
C13511	C1351	0.750420	0.621200	0.214760
H5071	H507	0.767700	0.620100	0.209800
C13521	C1352	0.744270	0.620600	0.240340
C13531	C1353	0.764540	0.619500	0.260200
C13541	C1354	0.758580	0.618100	0.285670
H5081	H508	0.741200	0.617900	0.290600
C13551	C1355	0.790450	0.619300	0.254100
H5091	H509	0.795500	0.620900	0.236800
C13561	C1356	0.808930	0.617000	0.272700
C13571	C1357	0.836800	0.616600	0.266300
C13581	C1358	0.802200	0.615500	0.297400
H5101	H510	0.814900	0.613300	0.310100
C13591	C1359	0.777050	0.617000	0.304310
C13601	C1360	0.770100	0.616400	0.331980
C13611	C1361	0.802180	0.575470	0.144110
C13621	C1362	0.822380	0.561340	0.158460
C13631	C1363	0.838910	0.574520	0.174160
H5111	H511	0.838600	0.592600	0.174800
C13641	C1364	0.855890	0.560730	0.189010
C13651	C1365	0.872510	0.574290	0.207710
C13661	C1366	0.857110	0.534540	0.187090
H5121	H512	0.869200	0.525400	0.196900
C13671	C1367	0.823340	0.534950	0.156970
H5131	H513	0.811800	0.526200	0.146200
C13681	C1368	0.840800	0.521500	0.170960
C13691	C1369	0.842410	0.492690	0.169180
C13701	C1370	0.860210	0.479000	0.183050
H5141	H514	0.871500	0.487800	0.194100
C13711	C1371	0.861810	0.452560	0.181130
O7491	O749	0.888300	0.417290	0.189660
C13721	C1372	0.845430	0.439610	0.165300
H5151	H515	0.847000	0.421700	0.163200
C13731	C1373	0.826800	0.452890	0.152600
C13741	C1374	0.807200	0.438800	0.138000
C13751	C1375	0.825300	0.478760	0.154700
H5161	H516	0.812100	0.487500	0.146000
C13761	C1376	0.798800	0.629500	0.069000
C13771	C1377	0.816900	0.646700	0.054900
C13781	C1378	0.832200	0.663100	0.068780
H5171	H517	0.833200	0.661900	0.086800
C13791	C1379	0.846000	0.681500	0.055670
C13801	C1380	0.860500	0.701500	0.069850
C13811	C1381	0.845100	0.682100	0.029050
H5181	H518	0.854700	0.694600	0.020300
C13821	C1382	0.816200	0.647820	0.028180
H5191	H519	0.805500	0.636500	0.019100
C13831	C1383	0.830800	0.664990	0.015050
C13841	C1384	0.830300	0.666440	0.986240
C13851	C1385	0.815770	0.649780	0.971650
H5201	H520	0.805900	0.637100	0.980000
C13861	C1386	0.815280	0.651160	0.945360
C13871	C1387	0.797800	0.634850	0.930210
C13881	C1388	0.829610	0.669200	0.932850
H5211	H521	0.830000	0.669800	0.914800
C13891	C1389	0.843610	0.686620	0.947540
C13901	C1390	0.857410	0.707860	0.934140
C13911	C1391	0.843500	0.685320	0.973740
H5221	H522	0.852700	0.697600	0.983300
C13921	C1392	0.956960	0.568490	0.253700
C13931	C1393	0.981340	0.553760	0.252800
C13941	C1394	0.004210	0.566860	0.252500
H5231	H523	0.004400	0.584900	0.253400
C13951	C1395	0.026430	0.553680	0.251000
C13961	C1396	0.050690	0.568380	0.250800
C13971	C1397	0.026620	0.527500	0.250000
H5241	H524	0.042300	0.518700	0.248600
C13981	C1398	0.003830	0.514020	0.251000
C13991	C1399	0.981180	0.527600	0.251600
H5251	H525	0.965400	0.518800	0.251100
O7501	O750	0.720820	0.632930	0.154670
C14001	C1400	0.880050	0.438240	0.197800
Zn2011	Zn201	0.280240	0.121100	0.624010
Zn2021	Zn202	0.222800	0.125630	0.619470
Zn2031	Zn203	0.251010	0.072100	0.620560
Zn2041	Zn204	0.250200	0.105630	0.570420
Zn2051	Zn205	0.381380	0.126870	0.731450
Zn2061	Zn206	0.387760	0.116240	0.790650
Zn2071	Zn207	0.402190	0.071450	0.753560
Zn2081	Zn208	0.435760	0.120260	0.756320
O7511	O751	0.259110	0.116980	0.661690
O7521	O752	0.157100	0.129770	0.718150
O7531	O753	0.165340	0.115330	0.757010
O7541	O754	0.344270	0.123960	0.744760
O7551	O755	0.350890	0.106900	0.783300
O7561	O756	0.247290	0.113540	0.837810
O7571	O757	0.288200	0.120400	0.846840
O7581	O758	0.305600	0.098980	0.640310
O7591	O759	0.283460	0.062900	0.636550
O7601	O760	0.373080	0.097930	0.706350
O7611	O761	0.384420	0.060610	0.723200
O7621	O762	0.385250	0.947540	0.718930
O7631	O763	0.313000	0.918780	0.627120
O7641	O764	0.284770	0.948300	0.639300
O7651	O765	0.303060	0.125210	0.591490
O7661	O766	0.279310	0.122070	0.556380
O7671	O767	0.361000	0.223430	0.559220
O7681	O768	0.369740	0.196450	0.590810
O7691	O769	0.301260	0.135620	0.406080
O7701	O770	0.281180	0.122550	0.441880
O7711	O771	0.362540	0.226660	0.447890
O7721	O772	0.362670	0.205610	0.411590
O7731	O773	0.459320	0.091640	0.756700
O7741	O774	0.436540	0.056640	0.752190
O7751	O775	0.548810	0.092180	0.753220
O7761	O776	0.571350	0.056220	0.748450
O7771	O777	0.401790	0.107570	0.757000
O7781	O778	0.250880	0.105990	0.606940
C14011	C1401	0.238300	0.124200	0.668280
C14021	C1402	0.231700	0.123300	0.696220
C14031	C1403	0.206200	0.124200	0.703290
H5261	H526	0.193300	0.125800	0.690700
C14041	C1404	0.199740	0.122700	0.728650
C14051	C1405	0.171820	0.122200	0.735100
C14061	C1406	0.218600	0.121100	0.746990
H5271	H527	0.214000	0.120400	0.764400
C14071	C1407	0.250420	0.121200	0.714760
H5281	H528	0.267700	0.120100	0.709800
C14081	C1408	0.244270	0.120600	0.740340
C14091	C1409	0.264540	0.119500	0.760200
C14101	C1410	0.258580	0.118100	0.785670
H5291	H529	0.241200	0.117900	0.790600
C14111	C1411	0.290450	0.119300	0.754100
H5301	H530	0.295500	0.120900	0.736800
C14121	C1412	0.308930	0.117000	0.772700
C14131	C1413	0.336800	0.116600	0.766300
C14141	C1414	0.302200	0.115500	0.797400
H5311	H531	0.314900	0.113300	0.810100
C14151	C1415	0.277050	0.117000	0.804310
C14161	C1416	0.270100	0.116400	0.831980
C14171	C1417	0.302180	0.075470	0.644110
C14181	C1418	0.322380	0.061340	0.658460
C14191	C1419	0.338910	0.074520	0.674160
H5321	H532	0.338600	0.092600	0.674800
C14201	C1420	0.355890	0.060730	0.689010
C14211	C1421	0.372510	0.074290	0.707710
C14221	C1422	0.357110	0.034540	0.687090
H5331	H533	0.369200	0.025400	0.696900
C14231	C1423	0.323340	0.034950	0.656970
H5341	H534	0.311800	0.026200	0.646200
C14241	C1424	0.340800	0.021500	0.670960
C14251	C1425	0.342410	0.992690	0.669180
C14261	C1426	0.360210	0.979000	0.683050
H5351	H535	0.371500	0.987800	0.694100
C14271	C1427	0.361810	0.952560	0.681130
O7791	O779	0.388300	0.917290	0.689660
C14281	C1428	0.345430	0.939610	0.665300
H5361	H536	0.347000	0.921700	0.663200
C14291	C1429	0.326800	0.952890	0.652600
C14301	C1430	0.307200	0.938800	0.638000
C14311	C1431	0.325300	0.978760	0.654700
H5371	H537	0.312100	0.987500	0.646000
C14321	C1432	0.298800	0.129500	0.569000
C14331	C1433	0.316900	0.146700	0.554900
C14341	C1434	0.332200	0.163100	0.568780
H5381	H538	0.333200	0.161900	0.586800
C14351	C1435	0.346000	0.181500	0.555670
C14361	C1436	0.360500	0.201500	0.569850
C14371	C1437	0.345100	0.182100	0.529050
H5391	H539	0.354700	0.194600	0.520300
C14381	C1438	0.316200	0.147820	0.528180
H5401	H540	0.305500	0.136500	0.519100
C14391	C1439	0.330800	0.164990	0.515050
C14401	C1440	0.330300	0.166440	0.486240
C14411	C1441	0.315770	0.149780	0.471650
H5411	H541	0.305900	0.137100	0.480000
C14421	C1442	0.315280	0.151160	0.445360
C14431	C1443	0.297800	0.134850	0.430210
C14441	C1444	0.329610	0.169200	0.432850
H5421	H542	0.330000	0.169800	0.414800
C14451	C1445	0.343610	0.186620	0.447540
C14461	C1446	0.357410	0.207860	0.434140
C14471	C1447	0.343500	0.185320	0.473740
H5431	H543	0.352700	0.197600	0.483300
C14481	C1448	0.456960	0.068490	0.753700
C14491	C1449	0.481340	0.053760	0.752800
C14501	C1450	0.504210	0.066860	0.752500
H5441	H544	0.504400	0.084900	0.753400
C14511	C1451	0.526430	0.053680	0.751000
C14521	C1452	0.550690	0.068380	0.750800
C14531	C1453	0.526620	0.027500	0.750000
H5451	H545	0.542300	0.018700	0.748600
C14541	C1454	0.503830	0.014020	0.751000
C14551	C1455	0.481180	0.027600	0.751600
H5461	H546	0.465400	0.018800	0.751100
O7801	O780	0.220820	0.132930	0.654670
C14561	C1456	0.380050	0.938240	0.697800
Zn2091	Zn209	0.719760	0.378900	0.624010
Zn2101	Zn210	0.777200	0.374370	0.619470
Zn2111	Zn211	0.748990	0.427900	0.620560
Zn2121	Zn212	0.749800	0.394370	0.570420
Zn2131	Zn213	0.618620	0.373130	0.731450
Zn2141	Zn214	0.612240	0.383760	0.790650
Zn2151	Zn215	0.597810	0.428550	0.753560
Zn2161	Zn216	0.564240	0.379740	0.756320
O7811	O781	0.740890	0.383020	0.661690
O7821	O782	0.842900	0.370230	0.718150
O7831	O783	0.834660	0.384670	0.757010
O7841	O784	0.655730	0.376040	0.744760
O7851	O785	0.649110	0.393100	0.783300
O7861	O786	0.752710	0.386460	0.837810
O7871	O787	0.711800	0.379600	0.846840
O7881	O788	0.694400	0.401020	0.640310
O7891	O789	0.716540	0.437100	0.636550
O7901	O790	0.626920	0.402070	0.706350
O7911	O791	0.615580	0.439390	0.723200
O7921	O792	0.614750	0.552460	0.718930
O7931	O793	0.687000	0.581220	0.627120
O7941	O794	0.715230	0.551700	0.639300
O7951	O795	0.696940	0.374790	0.591490
O7961	O796	0.720690	0.377930	0.556380
O7971	O797	0.639000	0.276570	0.559220
O7981	O798	0.630260	0.303550	0.590810
O7991	O799	0.698740	0.364380	0.406080
O8001	O800	0.718820	0.377450	0.441880
O8011	O801	0.637460	0.273340	0.447890
O8021	O802	0.637330	0.294390	0.411590
O8031	O803	0.540680	0.408360	0.756700
O8041	O804	0.563460	0.443360	0.752190
O8051	O805	0.451190	0.407820	0.753220
O8061	O806	0.428650	0.443780	0.748450
O8071	O807	0.598210	0.392430	0.757000
O8081	O808	0.749120	0.394010	0.606940
C14571	C1457	0.761700	0.375800	0.668280
C14581	C1458	0.768300	0.376700	0.696220
C14591	C1459	0.793800	0.375800	0.703290
H5471	H547	0.806700	0.374200	0.690700
C14601	C1460	0.800260	0.377300	0.728650
C14611	C1461	0.828180	0.377800	0.735100
C14621	C1462	0.781400	0.378900	0.746990
H5481	H548	0.786000	0.379600	0.764400
C14631	C1463	0.749580	0.378800	0.714760
H5491	H549	0.732300	0.379900	0.709800
C14641	C1464	0.755730	0.379400	0.740340
C14651	C1465	0.735460	0.380500	0.760200
C14661	C1466	0.741420	0.381900	0.785670
H5501	H550	0.758800	0.382100	0.790600
C14671	C1467	0.709550	0.380700	0.754100
H5511	H551	0.704500	0.379100	0.736800
C14681	C1468	0.691070	0.383000	0.772700
C14691	C1469	0.663200	0.383400	0.766300
C14701	C1470	0.697800	0.384500	0.797400
H5521	H552	0.685100	0.386700	0.810100
C14711	C1471	0.722950	0.383000	0.804310
C14721	C1472	0.729900	0.383600	0.831980
C14731	C1473	0.697820	0.424530	0.644110
C14741	C1474	0.677620	0.438660	0.658460
C14751	C1475	0.661090	0.425480	0.674160
H5531	H553	0.661400	0.407400	0.674800
C14761	C1476	0.644110	0.439270	0.689010
C14771	C1477	0.627490	0.425710	0.707710
C14781	C1478	0.642890	0.465460	0.687090
H5541	H554	0.630800	0.474600	0.696900
C14791	C1479	0.676660	0.465050	0.656970
H5551	H555	0.688200	0.473800	0.646200
C14801	C1480	0.659200	0.478500	0.670960
C14811	C1481	0.657590	0.507310	0.669180
C14821	C1482	0.639790	0.521000	0.683050
H5561	H556	0.628500	0.512200	0.694100
C14831	C1483	0.638190	0.547440	0.681130
O8091	O809	0.611700	0.582710	0.689660
C14841	C1484	0.654570	0.560390	0.665300
H5571	H557	0.653000	0.578300	0.663200
C14851	C1485	0.673200	0.547110	0.652600
C14861	C1486	0.692800	0.561200	0.638000
C14871	C1487	0.674700	0.521240	0.654700
H5581	H558	0.687900	0.512500	0.646000
C14881	C1488	0.701200	0.370500	0.569000
C14891	C1489	0.683100	0.353300	0.554900
C14901	C1490	0.667800	0.336900	0.568780
H5591	H559	0.666800	0.338100	0.586800
C14911	C1491	0.654000	0.318500	0.555670
C14921	C1492	0.639500	0.298500	0.569850
C14931	C1493	0.654900	0.317900	0.529050
H5601	H560	0.645300	0.305400	0.520300
C14941	C1494	0.683800	0.352180	0.528180
H5611	H561	0.694500	0.363500	0.519100
C14951	C1495	0.669200	0.335010	0.515050
C14961	C1496	0.669700	0.333560	0.486240
C14971	C1497	0.684230	0.350220	0.471650
H5621	H562	0.694100	0.362900	0.480000
C14981	C1498	0.684720	0.348840	0.445360
C14991	C1499	0.702200	0.365150	0.430210
C15001	C1500	0.670390	0.330800	0.432850
H5631	H563	0.670000	0.330200	0.414800
C15011	C1501	0.656390	0.313380	0.447540
C15021	C1502	0.642590	0.292140	0.434140
C15031	C1503	0.656500	0.314680	0.473740
H5641	H564	0.647300	0.302400	0.483300
C15041	C1504	0.543040	0.431510	0.753700
C15051	C1505	0.518660	0.446240	0.752800
C15061	C1506	0.495790	0.433140	0.752500
H5651	H565	0.495600	0.415100	0.753400
C15071	C1507	0.473570	0.446320	0.751000
C15081	C1508	0.449310	0.431620	0.750800
C15091	C1509	0.473380	0.472500	0.750000
H5661	H566	0.457700	0.481300	0.748600
C15101	C1510	0.496170	0.485980	0.751000
C15111	C1511	0.518820	0.472400	0.751600
H5671	H567	0.534600	0.481200	0.751100
O8101	O810	0.779180	0.367070	0.654670
C15121	C1512	0.619950	0.561760	0.697800
Zn2171	Zn217	0.219760	0.878900	0.124010
Zn2181	Zn218	0.277200	0.874370	0.119470
Zn2191	Zn219	0.248990	0.927900	0.120560
Zn2201	Zn220	0.249800	0.894370	0.070420
Zn2211	Zn221	0.118620	0.873130	0.231450
Zn2221	Zn222	0.112240	0.883760	0.290650
Zn2231	Zn223	0.097810	0.928550	0.253560
Zn2241	Zn224	0.064240	0.879740	0.256320
O8111	O811	0.240890	0.883020	0.161690
O8121	O812	0.342900	0.870230	0.218150
O8131	O813	0.334660	0.884670	0.257010
O8141	O814	0.155730	0.876040	0.244760
O8151	O815	0.149110	0.893100	0.283300
O8161	O816	0.252710	0.886460	0.337810
O8171	O817	0.211800	0.879600	0.346840
O8181	O818	0.194400	0.901020	0.140310
O8191	O819	0.216540	0.937100	0.136550
O8201	O820	0.126920	0.902070	0.206350
O8211	O821	0.115580	0.939390	0.223200
O8221	O822	0.114750	0.052460	0.218930
O8231	O823	0.187000	0.081220	0.127120
O8241	O824	0.215230	0.051700	0.139300
O8251	O825	0.196940	0.874790	0.091490
O8261	O826	0.220690	0.877930	0.056380
O8271	O827	0.139000	0.776570	0.059220
O8281	O828	0.130260	0.803550	0.090810
O8291	O829	0.198740	0.864380	0.906080
O8301	O830	0.218820	0.877450	0.941880
O8311	O831	0.137460	0.773340	0.947890
O8321	O832	0.137330	0.794390	0.911590
O8331	O833	0.040680	0.908360	0.256700
O8341	O834	0.063460	0.943360	0.252190
O8351	O835	0.951190	0.907820	0.253220
O8361	O836	0.928650	0.943780	0.248450
O8371	O837	0.098210	0.892430	0.257000
O8381	O838	0.249120	0.894010	0.106940
C15131	C1513	0.261700	0.875800	0.168280
C15141	C1514	0.268300	0.876700	0.196220
C15151	C1515	0.293800	0.875800	0.203290
H5681	H568	0.306700	0.874200	0.190700
C15161	C1516	0.300260	0.877300	0.228650
C15171	C1517	0.328180	0.877800	0.235100
C15181	C1518	0.281400	0.878900	0.246990
H5691	H569	0.286000	0.879600	0.264400
C15191	C1519	0.249580	0.878800	0.214760
H5701	H570	0.232300	0.879900	0.209800
C15201	C1520	0.255730	0.879400	0.240340
C15211	C1521	0.235460	0.880500	0.260200
C15221	C1522	0.241420	0.881900	0.285670
H5711	H571	0.258800	0.882100	0.290600
C15231	C1523	0.209550	0.880700	0.254100
H5721	H572	0.204500	0.879100	0.236800
C15241	C1524	0.191070	0.883000	0.272700
C15251	C1525	0.163200	0.883400	0.266300
C15261	C1526	0.197800	0.884500	0.297400
H5731	H573	0.185100	0.886700	0.310100
C15271	C1527	0.222950	0.883000	0.304310
C15281	C1528	0.229900	0.883600	0.331980
C15291	C1529	0.197820	0.924530	0.144110
C15301	C1530	0.177620	0.938660	0.158460
C15311	C1531	0.161090	0.925480	0.174160
H5741	H574	0.161400	0.907400	0.174800
C15321	C1532	0.144110	0.939270	0.189010
C15331	C1533	0.127490	0.925710	0.207710
C15341	C1534	0.142890	0.965460	0.187090
H5751	H575	0.130800	0.974600	0.196900
C15351	C1535	0.176660	0.965050	0.156970
H5761	H576	0.188200	0.973800	0.146200
C15361	C1536	0.159200	0.978500	0.170960
C15371	C1537	0.157590	0.007310	0.169180
C15381	C1538	0.139790	0.021000	0.183050
H5771	H577	0.128500	0.012200	0.194100
C15391	C1539	0.138190	0.047440	0.181130
O8391	O839	0.111700	0.082710	0.189660
C15401	C1540	0.154570	0.060390	0.165300
H5781	H578	0.153000	0.078300	0.163200
C15411	C1541	0.173200	0.047110	0.152600
C15421	C1542	0.192800	0.061200	0.138000
C15431	C1543	0.174700	0.021240	0.154700
H5791	H579	0.187900	0.012500	0.146000
C15441	C1544	0.201200	0.870500	0.069000
C15451	C1545	0.183100	0.853300	0.054900
C15461	C1546	0.167800	0.836900	0.068780
H5801	H580	0.166800	0.838100	0.086800
C15471	C1547	0.154000	0.818500	0.055670
C15481	C1548	0.139500	0.798500	0.069850
C15491	C1549	0.154900	0.817900	0.029050
H5811	H581	0.145300	0.805400	0.020300
C15501	C1550	0.183800	0.852180	0.028180
H5821	H582	0.194500	0.863500	0.019100
C15511	C1551	0.169200	0.835010	0.015050
C15521	C1552	0.169700	0.833560	0.986240
C15531	C1553	0.184230	0.850220	0.971650
H5831	H583	0.194100	0.862900	0.980000
C15541	C1554	0.184720	0.848840	0.945360
C15551	C1555	0.202200	0.865150	0.930210
C15561	C1556	0.170390	0.830800	0.932850
H5841	H584	0.170000	0.830200	0.914800
C15571	C1557	0.156390	0.813380	0.947540
C15581	C1558	0.142590	0.792140	0.934140
C15591	C1559	0.156500	0.814680	0.973740
H5851	H585	0.147300	0.802400	0.983300
C15601	C1560	0.043040	0.931510	0.253700
C15611	C1561	0.018660	0.946240	0.252800
C15621	C1562	0.995790	0.933140	0.252500
H5861	H586	0.995600	0.915100	0.253400
C15631	C1563	0.973570	0.946320	0.251000
C15641	C1564	0.949310	0.931620	0.250800
C15651	C1565	0.973380	0.972500	0.250000
H5871	H587	0.957700	0.981300	0.248600
C15661	C1566	0.996170	0.985980	0.251000
C15671	C1567	0.018820	0.972400	0.251600
H5881	H588	0.034600	0.981200	0.251100
O8401	O840	0.279180	0.867070	0.154670
C15681	C1568	0.119950	0.061760	0.197800
Zn2251	Zn225	0.219760	0.121100	0.375990
Zn2261	Zn226	0.277200	0.125630	0.380530
Zn2271	Zn227	0.248990	0.072100	0.379440
Zn2281	Zn228	0.249800	0.105630	0.429580
Zn2291	Zn229	0.118620	0.126870	0.268550
Zn2301	Zn230	0.112240	0.116240	0.209350
Zn2311	Zn231	0.097810	0.071450	0.246440
Zn2321	Zn232	0.064240	0.120260	0.243680
O8411	O841	0.240890	0.116980	0.338310
O8421	O842	0.342900	0.129770	0.281850
O8431	O843	0.334660	0.115330	0.242990
O8441	O844	0.155730	0.123960	0.255240
O8451	O845	0.149110	0.106900	0.216700
O8461	O846	0.252710	0.113540	0.162190
O8471	O847	0.211800	0.120400	0.153160
O8481	O848	0.194400	0.098980	0.359690
O8491	O849	0.216540	0.062900	0.363450
O8501	O850	0.126920	0.097930	0.293650
O8511	O851	0.115580	0.060610	0.276800
O8521	O852	0.114750	0.947540	0.281070
O8531	O853	0.187000	0.918780	0.372880
O8541	O854	0.215230	0.948300	0.360700
O8551	O855	0.196940	0.125210	0.408510
O8561	O856	0.220690	0.122070	0.443620
O8571	O857	0.139000	0.223430	0.440780
O8581	O858	0.130260	0.196450	0.409190
O8591	O859	0.198740	0.135620	0.593920
O8601	O860	0.218820	0.122550	0.558120
O8611	O861	0.137460	0.226660	0.552110
O8621	O862	0.137330	0.205610	0.588410
O8631	O863	0.040680	0.091640	0.243300
O8641	O864	0.063460	0.056640	0.247810
O8651	O865	0.951190	0.092180	0.246780
O8661	O866	0.928650	0.056220	0.251550
O8671	O867	0.098210	0.107570	0.243000
O8681	O868	0.249120	0.105990	0.393060
C15691	C1569	0.261700	0.124200	0.331720
C15701	C1570	0.268300	0.123300	0.303780
C15711	C1571	0.293800	0.124200	0.296710
H5891	H589	0.306700	0.125800	0.309300
C15721	C1572	0.300260	0.122700	0.271350
C15731	C1573	0.328180	0.122200	0.264900
C15741	C1574	0.281400	0.121100	0.253010
H5901	H590	0.286000	0.120400	0.235600
C15751	C1575	0.249580	0.121200	0.285240
H5911	H591	0.232300	0.120100	0.290200
C15761	C1576	0.255730	0.120600	0.259660
C15771	C1577	0.235460	0.119500	0.239800
C15781	C1578	0.241420	0.118100	0.214330
H5921	H592	0.258800	0.117900	0.209400
C15791	C1579	0.209550	0.119300	0.245900
H5931	H593	0.204500	0.120900	0.263200
C15801	C1580	0.191070	0.117000	0.227300
C15811	C1581	0.163200	0.116600	0.233700
C15821	C1582	0.197800	0.115500	0.202600
H5941	H594	0.185100	0.113300	0.189900
C15831	C1583	0.222950	0.117000	0.195690
C15841	C1584	0.229900	0.116400	0.168020
C15851	C1585	0.197820	0.075470	0.355890
C15861	C1586	0.177620	0.061340	0.341540
C15871	C1587	0.161090	0.074520	0.325840
H5951	H595	0.161400	0.092600	0.325200
C15881	C1588	0.144110	0.060730	0.310990
C15891	C1589	0.127490	0.074290	0.292290
C15901	C1590	0.142890	0.034540	0.312910
H5961	H596	0.130800	0.025400	0.303100
C15911	C1591	0.176660	0.034950	0.343030
H5971	H597	0.188200	0.026200	0.353800
C15921	C1592	0.159200	0.021500	0.329040
C15931	C1593	0.157590	0.992690	0.330820
C15941	C1594	0.139790	0.979000	0.316950
H5981	H598	0.128500	0.987800	0.305900
C15951	C1595	0.138190	0.952560	0.318870
O8691	O869	0.111700	0.917290	0.310340
C15961	C1596	0.154570	0.939610	0.334700
H5991	H599	0.153000	0.921700	0.336800
C15971	C1597	0.173200	0.952890	0.347400
C15981	C1598	0.192800	0.938800	0.362000
C15991	C1599	0.174700	0.978760	0.345300
H6001	H600	0.187900	0.987500	0.354000
C16001	C1600	0.201200	0.129500	0.431000
C16011	C1601	0.183100	0.146700	0.445100
C16021	C1602	0.167800	0.163100	0.431220
H6011	H601	0.166800	0.161900	0.413200
C16031	C1603	0.154000	0.181500	0.444330
C16041	C1604	0.139500	0.201500	0.430150
C16051	C1605	0.154900	0.182100	0.470950
H6021	H602	0.145300	0.194600	0.479700
C16061	C1606	0.183800	0.147820	0.471820
H6031	H603	0.194500	0.136500	0.480900
C16071	C1607	0.169200	0.164990	0.484950
C16081	C1608	0.169700	0.166440	0.513760
C16091	C1609	0.184230	0.149780	0.528350
H6041	H604	0.194100	0.137100	0.520000
C16101	C1610	0.184720	0.151160	0.554640
C16111	C1611	0.202200	0.134850	0.569790
C16121	C1612	0.170390	0.169200	0.567150
H6051	H605	0.170000	0.169800	0.585200
C16131	C1613	0.156390	0.186620	0.552460
C16141	C1614	0.142590	0.207860	0.565860
C16151	C1615	0.156500	0.185320	0.526260
H6061	H606	0.147300	0.197600	0.516700
C16161	C1616	0.043040	0.068490	0.246300
C16171	C1617	0.018660	0.053760	0.247200
C16181	C1618	0.995790	0.066860	0.247500
H6071	H607	0.995600	0.084900	0.246600
C16191	C1619	0.973570	0.053680	0.249000
C16201	C1620	0.949310	0.068380	0.249200
C16211	C1621	0.973380	0.027500	0.250000
H6081	H608	0.957700	0.018700	0.251400
C16221	C1622	0.996170	0.014020	0.249000
C16231	C1623	0.018820	0.027600	0.248400
H6091	H609	0.034600	0.018800	0.248900
O8701	O870	0.279180	0.132930	0.345330
C16241	C1624	0.119950	0.938240	0.302200
Zn2331	Zn233	0.719760	0.621100	0.875990
Zn2341	Zn234	0.777200	0.625630	0.880530
Zn2351	Zn235	0.748990	0.572100	0.879440
Zn2361	Zn236	0.749800	0.605630	0.929580
Zn2371	Zn237	0.618620	0.626870	0.768550
Zn2381	Zn238	0.612240	0.616240	0.709350
Zn2391	Zn239	0.597810	0.571450	0.746440
Zn2401	Zn240	0.564240	0.620260	0.743680
O8711	O871	0.740890	0.616980	0.838310
O8721	O872	0.842900	0.629770	0.781850
O8731	O873	0.834660	0.615330	0.742990
O8741	O874	0.655730	0.623960	0.755240
O8751	O875	0.649110	0.606900	0.716700
O8761	O876	0.752710	0.613540	0.662190
O8771	O877	0.711800	0.620400	0.653160
O8781	O878	0.694400	0.598980	0.859690
O8791	O879	0.716540	0.562900	0.863450
O8801	O880	0.626920	0.597930	0.793650
O8811	O881	0.615580	0.560610	0.776800
O8821	O882	0.614750	0.447540	0.781070
O8831	O883	0.687000	0.418780	0.872880
O8841	O884	0.715230	0.448300	0.860700
O8851	O885	0.696940	0.625210	0.908510
O8861	O886	0.720690	0.622070	0.943620
O8871	O887	0.639000	0.723430	0.940780
O8881	O888	0.630260	0.696450	0.909190
O8891	O889	0.698740	0.635620	0.093920
O8901	O890	0.718820	0.622550	0.058120
O8911	O891	0.637460	0.726660	0.052110
O8921	O892	0.637330	0.705610	0.088410
O8931	O893	0.540680	0.591640	0.743300
O8941	O894	0.563460	0.556640	0.747810
O8951	O895	0.451190	0.592180	0.746780
O8961	O896	0.428650	0.556220	0.751550
O8971	O897	0.598210	0.607570	0.743000
O8981	O898	0.749120	0.605990	0.893060
C16251	C1625	0.761700	0.624200	0.831720
C16261	C1626	0.768300	0.623300	0.803780
C16271	C1627	0.793800	0.624200	0.796710
H6101	H610	0.806700	0.625800	0.809300
C16281	C1628	0.800260	0.622700	0.771350
C16291	C1629	0.828180	0.622200	0.764900
C16301	C1630	0.781400	0.621100	0.753010
H6111	H611	0.786000	0.620400	0.735600
C16311	C1631	0.749580	0.621200	0.785240
H6121	H612	0.732300	0.620100	0.790200
C16321	C1632	0.755730	0.620600	0.759660
C16331	C1633	0.735460	0.619500	0.739800
C16341	C1634	0.741420	0.618100	0.714330
H6131	H613	0.758800	0.617900	0.709400
C16351	C1635	0.709550	0.619300	0.745900
H6141	H614	0.704500	0.620900	0.763200
C16361	C1636	0.691070	0.617000	0.727300
C16371	C1637	0.663200	0.616600	0.733700
C16381	C1638	0.697800	0.615500	0.702600
H6151	H615	0.685100	0.613300	0.689900
C16391	C1639	0.722950	0.617000	0.695690
C16401	C1640	0.729900	0.616400	0.668020
C16411	C1641	0.697820	0.575470	0.855890
C16421	C1642	0.677620	0.561340	0.841540
C16431	C1643	0.661090	0.574520	0.825840
H6161	H616	0.661400	0.592600	0.825200
C16441	C1644	0.644110	0.560730	0.810990
C16451	C1645	0.627490	0.574290	0.792290
C16461	C1646	0.642890	0.534540	0.812910
H6171	H617	0.630800	0.525400	0.803100
C16471	C1647	0.676660	0.534950	0.843030
H6181	H618	0.688200	0.526200	0.853800
C16481	C1648	0.659200	0.521500	0.829040
C16491	C1649	0.657590	0.492690	0.830820
C16501	C1650	0.639790	0.479000	0.816950
H6191	H619	0.628500	0.487800	0.805900
C16511	C1651	0.638190	0.452560	0.818870
O8991	O899	0.611700	0.417290	0.810340
C16521	C1652	0.654570	0.439610	0.834700
H6201	H620	0.653000	0.421700	0.836800
C16531	C1653	0.673200	0.452890	0.847400
C16541	C1654	0.692800	0.438800	0.862000
C16551	C1655	0.674700	0.478760	0.845300
H6211	H621	0.687900	0.487500	0.854000
C16561	C1656	0.701200	0.629500	0.931000
C16571	C1657	0.683100	0.646700	0.945100
C16581	C1658	0.667800	0.663100	0.931220
H6221	H622	0.666800	0.661900	0.913200
C16591	C1659	0.654000	0.681500	0.944330
C16601	C1660	0.639500	0.701500	0.930150
C16611	C1661	0.654900	0.682100	0.970950
H6231	H623	0.645300	0.694600	0.979700
C16621	C1662	0.683800	0.647820	0.971820
H6241	H624	0.694500	0.636500	0.980900
C16631	C1663	0.669200	0.664990	0.984950
C16641	C1664	0.669700	0.666440	0.013760
C16651	C1665	0.684230	0.649780	0.028350
H6251	H625	0.694100	0.637100	0.020000
C16661	C1666	0.684720	0.651160	0.054640
C16671	C1667	0.702200	0.634850	0.069790
C16681	C1668	0.670390	0.669200	0.067150
H6261	H626	0.670000	0.669800	0.085200
C16691	C1669	0.656390	0.686620	0.052460
C16701	C1670	0.642590	0.707860	0.065860
C16711	C1671	0.656500	0.685320	0.026260
H6271	H627	0.647300	0.697600	0.016700
C16721	C1672	0.543040	0.568490	0.746300
C16731	C1673	0.518660	0.553760	0.747200
C16741	C1674	0.495790	0.566860	0.747500
H6281	H628	0.495600	0.584900	0.746600
C16751	C1675	0.473570	0.553680	0.749000
C16761	C1676	0.449310	0.568380	0.749200
C16771	C1677	0.473380	0.527500	0.750000
H6291	H629	0.457700	0.518700	0.751400
C16781	C1678	0.496170	0.514020	0.749000
C16791	C1679	0.518820	0.527600	0.748400
H6301	H630	0.534600	0.518800	0.748900
O9001	O900	0.779180	0.632930	0.845330
C16801	C1680	0.619950	0.438240	0.802200
Zn2411	Zn241	0.280240	0.878900	0.875990
Zn2421	Zn242	0.222800	0.874370	0.880530
Zn2431	Zn243	0.251010	0.927900	0.879440
Zn2441	Zn244	0.250200	0.894370	0.929580
Zn2451	Zn245	0.381380	0.873130	0.768550
Zn2461	Zn246	0.387760	0.883760	0.709350
Zn2471	Zn247	0.402190	0.928550	0.746440
Zn2481	Zn248	0.435760	0.879740	0.743680
O9011	O901	0.259110	0.883020	0.838310
O9021	O902	0.157100	0.870230	0.781850
O9031	O903	0.165340	0.884670	0.742990
O9041	O904	0.344270	0.876040	0.755240
O9051	O905	0.350890	0.893100	0.716700
O9061	O906	0.247290	0.886460	0.662190
O9071	O907	0.288200	0.879600	0.653160
O9081	O908	0.305600	0.901020	0.859690
O9091	O909	0.283460	0.937100	0.863450
O9101	O910	0.373080	0.902070	0.793650
O9111	O911	0.384420	0.939390	0.776800
O9121	O912	0.385250	0.052460	0.781070
O9131	O913	0.313000	0.081220	0.872880
O9141	O914	0.284770	0.051700	0.860700
O9151	O915	0.303060	0.874790	0.908510
O9161	O916	0.279310	0.877930	0.943620
O9171	O917	0.361000	0.776570	0.940780
O9181	O918	0.369740	0.803550	0.909190
O9191	O919	0.301260	0.864380	0.093920
O9201	O920	0.281180	0.877450	0.058120
O9211	O921	0.362540	0.773340	0.052110
O9221	O922	0.362670	0.794390	0.088410
O9231	O923	0.459320	0.908360	0.743300
O9241	O924	0.436540	0.943360	0.747810
O9251	O925	0.548810	0.907820	0.746780
O9261	O926	0.571350	0.943780	0.751550
O9271	O927	0.401790	0.892430	0.743000
O9281	O928	0.250880	0.894010	0.893060
C16811	C1681	0.238300	0.875800	0.831720
C16821	C1682	0.231700	0.876700	0.803780
C16831	C1683	0.206200	0.875800	0.796710
H6311	H631	0.193300	0.874200	0.809300
C16841	C1684	0.199740	0.877300	0.771350
C16851	C1685	0.171820	0.877800	0.764900
C16861	C1686	0.218600	0.878900	0.753010
H6321	H632	0.214000	0.879600	0.735600
C16871	C1687	0.250420	0.878800	0.785240
H6331	H633	0.267700	0.879900	0.790200
C16881	C1688	0.244270	0.879400	0.759660
C16891	C1689	0.264540	0.880500	0.739800
C16901	C1690	0.258580	0.881900	0.714330
H6341	H634	0.241200	0.882100	0.709400
C16911	C1691	0.290450	0.880700	0.745900
H6351	H635	0.295500	0.879100	0.763200
C16921	C1692	0.308930	0.883000	0.727300
C16931	C1693	0.336800	0.883400	0.733700
C16941	C1694	0.302200	0.884500	0.702600
H6361	H636	0.314900	0.886700	0.689900
C16951	C1695	0.277050	0.883000	0.695690
C16961	C1696	0.270100	0.883600	0.668020
C16971	C1697	0.302180	0.924530	0.855890
C16981	C1698	0.322380	0.938660	0.841540
C16991	C1699	0.338910	0.925480	0.825840
H6371	H637	0.338600	0.907400	0.825200
C17001	C1700	0.355890	0.939270	0.810990
C17011	C1701	0.372510	0.925710	0.792290
C17021	C1702	0.357110	0.965460	0.812910
H6381	H638	0.369200	0.974600	0.803100
C17031	C1703	0.323340	0.965050	0.843030
H6391	H639	0.311800	0.973800	0.853800
C17041	C1704	0.340800	0.978500	0.829040
C17051	C1705	0.342410	0.007310	0.830820
C17061	C1706	0.360210	0.021000	0.816950
H6401	H640	0.371500	0.012200	0.805900
C17071	C1707	0.361810	0.047440	0.818870
O9291	O929	0.388300	0.082710	0.810340
C17081	C1708	0.345430	0.060390	0.834700
H6411	H641	0.347000	0.078300	0.836800
C17091	C1709	0.326800	0.047110	0.847400
C17101	C1710	0.307200	0.061200	0.862000
C17111	C1711	0.325300	0.021240	0.845300
H6421	H642	0.312100	0.012500	0.854000
C17121	C1712	0.298800	0.870500	0.931000
C17131	C1713	0.316900	0.853300	0.945100
C17141	C1714	0.332200	0.836900	0.931220
H6431	H643	0.333200	0.838100	0.913200
C17151	C1715	0.346000	0.818500	0.944330
C17161	C1716	0.360500	0.798500	0.930150
C17171	C1717	0.345100	0.817900	0.970950
H6441	H644	0.354700	0.805400	0.979700
C17181	C1718	0.316200	0.852180	0.971820
H6451	H645	0.305500	0.863500	0.980900
C17191	C1719	0.330800	0.835010	0.984950
C17201	C1720	0.330300	0.833560	0.013760
C17211	C1721	0.315770	0.850220	0.028350
H6461	H646	0.305900	0.862900	0.020000
C17221	C1722	0.315280	0.848840	0.054640
C17231	C1723	0.297800	0.865150	0.069790
C17241	C1724	0.329610	0.830800	0.067150
H6471	H647	0.330000	0.830200	0.085200
C17251	C1725	0.343610	0.813380	0.052460
C17261	C1726	0.357410	0.792140	0.065860
C17271	C1727	0.343500	0.814680	0.026260
H6481	H648	0.352700	0.802400	0.016700
C17281	C1728	0.456960	0.931510	0.746300
C17291	C1729	0.481340	0.946240	0.747200
C17301	C1730	0.504210	0.933140	0.747500
H6491	H649	0.504400	0.915100	0.746600
C17311	C1731	0.526430	0.946320	0.749000
C17321	C1732	0.550690	0.931620	0.749200
C17331	C1733	0.526620	0.972500	0.750000
H6501	H650	0.542300	0.981300	0.751400
C17341	C1734	0.503830	0.985980	0.749000
C17351	C1735	0.481180	0.972400	0.748400
H6511	H651	0.465400	0.981200	0.748900
O9301	O930	0.220820	0.867070	0.845330
C17361	C1736	0.380050	0.061760	0.802200
Zn2491	Zn249	0.780240	0.378900	0.375990
Zn2501	Zn250	0.722800	0.374370	0.380530
Zn2511	Zn251	0.751010	0.427900	0.379440
Zn2521	Zn252	0.750200	0.394370	0.429580
Zn2531	Zn253	0.881380	0.373130	0.268550
Zn2541	Zn254	0.887760	0.383760	0.209350
Zn2551	Zn255	0.902190	0.428550	0.246440
Zn2561	Zn256	0.935760	0.379740	0.243680
O9311	O931	0.759110	0.383020	0.338310
O9321	O932	0.657100	0.370230	0.281850
O9331	O933	0.665340	0.384670	0.242990
O9341	O934	0.844270	0.376040	0.255240
O9351	O935	0.850890	0.393100	0.216700
O9361	O936	0.747290	0.386460	0.162190
O9371	O937	0.788200	0.379600	0.153160
O9381	O938	0.805600	0.401020	0.359690
O9391	O939	0.783460	0.437100	0.363450
O9401	O940	0.873080	0.402070	0.293650
O9411	O941	0.884420	0.439390	0.276800
O9421	O942	0.885250	0.552460	0.281070
O9431	O943	0.813000	0.581220	0.372880
O9441	O944	0.784770	0.551700	0.360700
O9451	O945	0.803060	0.374790	0.408510
O9461	O946	0.779310	0.377930	0.443620
O9471	O947	0.861000	0.276570	0.440780
O9481	O948	0.869740	0.303550	0.409190
O9491	O949	0.801260	0.364380	0.593920
O9501	O950	0.781180	0.377450	0.558120
O9511	O951	0.862540	0.273340	0.552110
O9521	O952	0.862670	0.294390	0.588410
O9531	O953	0.959320	0.408360	0.243300
O9541	O954	0.936540	0.443360	0.247810
O9551	O955	0.048810	0.407820	0.246780
O9561	O956	0.071350	0.443780	0.251550
O9571	O957	0.901790	0.392430	0.243000
O9581	O958	0.750880	0.394010	0.393060
C17371	C1737	0.738300	0.375800	0.331720
C17381	C1738	0.731700	0.376700	0.303780
C17391	C1739	0.706200	0.375800	0.296710
H6521	H652	0.693300	0.374200	0.309300
C17401	C1740	0.699740	0.377300	0.271350
C17411	C1741	0.671820	0.377800	0.264900
C17421	C1742	0.718600	0.378900	0.253010
H6531	H653	0.714000	0.379600	0.235600
C17431	C1743	0.750420	0.378800	0.285240
H6541	H654	0.767700	0.379900	0.290200
C17441	C1744	0.744270	0.379400	0.259660
C17451	C1745	0.764540	0.380500	0.239800
C17461	C1746	0.758580	0.381900	0.214330
H6551	H655	0.741200	0.382100	0.209400
C17471	C1747	0.790450	0.380700	0.245900
H6561	H656	0.795500	0.379100	0.263200
C17481	C1748	0.808930	0.383000	0.227300
C17491	C1749	0.836800	0.383400	0.233700
C17501	C1750	0.802200	0.384500	0.202600
H6571	H657	0.814900	0.386700	0.189900
C17511	C1751	0.777050	0.383000	0.195690
C17521	C1752	0.770100	0.383600	0.168020
C17531	C1753	0.802180	0.424530	0.355890
C17541	C1754	0.822380	0.438660	0.341540
C17551	C1755	0.838910	0.425480	0.325840
H6581	H658	0.838600	0.407400	0.325200
C17561	C1756	0.855890	0.439270	0.310990
C17571	C1757	0.872510	0.425710	0.292290
C17581	C1758	0.857110	0.465460	0.312910
H6591	H659	0.869200	0.474600	0.303100
C17591	C1759	0.823340	0.465050	0.343030
H6601	H660	0.811800	0.473800	0.353800
C17601	C1760	0.840800	0.478500	0.329040
C17611	C1761	0.842410	0.507310	0.330820
C17621	C1762	0.860210	0.521000	0.316950
H6611	H661	0.871500	0.512200	0.305900
C17631	C1763	0.861810	0.547440	0.318870
O9591	O959	0.888300	0.582710	0.310340
C17641	C1764	0.845430	0.560390	0.334700
H6621	H662	0.847000	0.578300	0.336800
C17651	C1765	0.826800	0.547110	0.347400
C17661	C1766	0.807200	0.561200	0.362000
C17671	C1767	0.825300	0.521240	0.345300
H6631	H663	0.812100	0.512500	0.354000
C17681	C1768	0.798800	0.370500	0.431000
C17691	C1769	0.816900	0.353300	0.445100
C17701	C1770	0.832200	0.336900	0.431220
H6641	H664	0.833200	0.338100	0.413200
C17711	C1771	0.846000	0.318500	0.444330
C17721	C1772	0.860500	0.298500	0.430150
C17731	C1773	0.845100	0.317900	0.470950
H6651	H665	0.854700	0.305400	0.479700
C17741	C1774	0.816200	0.352180	0.471820
H6661	H666	0.805500	0.363500	0.480900
C17751	C1775	0.830800	0.335010	0.484950
C17761	C1776	0.830300	0.333560	0.513760
C17771	C1777	0.815770	0.350220	0.528350
H6671	H667	0.805900	0.362900	0.520000
C17781	C1778	0.815280	0.348840	0.554640
C17791	C1779	0.797800	0.365150	0.569790
C17801	C1780	0.829610	0.330800	0.567150
H6681	H668	0.830000	0.330200	0.585200
C17811	C1781	0.843610	0.313380	0.552460
C17821	C1782	0.857410	0.292140	0.565860
C17831	C1783	0.843500	0.314680	0.526260
H6691	H669	0.852700	0.302400	0.516700
C17841	C1784	0.956960	0.431510	0.246300
C17851	C1785	0.981340	0.446240	0.247200
C17861	C1786	0.004210	0.433140	0.247500
H6701	H670	0.004400	0.415100	0.246600
C17871	C1787	0.026430	0.446320	0.249000
C17881	C1788	0.050690	0.431620	0.249200
C17891	C1789	0.026620	0.472500	0.250000
H6711	H671	0.042300	0.481300	0.251400
C17901	C1790	0.003830	0.485980	0.249000
C17911	C1791	0.981180	0.472400	0.248400
H6721	H672	0.965400	0.481200	0.248900
O9601	O960	0.720820	0.367070	0.345330
C17921	C1792	0.880050	0.561760	0.302200
Zn2571	Zn257	0.124010	0.780240	0.621100
Zn2581	Zn258	0.119470	0.722800	0.625630
Zn2591	Zn259	0.120560	0.751010	0.572100
Zn2601	Zn260	0.070420	0.750200	0.605630
Zn2611	Zn261	0.231450	0.881380	0.626870
Zn2621	Zn262	0.290650	0.887760	0.616240
Zn2631	Zn263	0.253560	0.902190	0.571450
Zn2641	Zn264	0.256320	0.935760	0.620260
O9611	O961	0.161690	0.759110	0.616980
O9621	O962	0.218150	0.657100	0.629770
O9631	O963	0.257010	0.665340	0.615330
O9641	O964	0.244760	0.844270	0.623960
O9651	O965	0.283300	0.850890	0.606900
O9661	O966	0.337810	0.747290	0.613540
O9671	O967	0.346840	0.788200	0.620400
O9681	O968	0.140310	0.805600	0.598980
O9691	O969	0.136550	0.783460	0.562900
O9701	O970	0.206350	0.873080	0.597930
O9711	O971	0.223200	0.884420	0.560610
O9721	O972	0.218930	0.885250	0.447540
O9731	O973	0.127120	0.813000	0.418780
O9741	O974	0.139300	0.784770	0.448300
O9751	O975	0.091490	0.803060	0.625210
O9761	O976	0.056380	0.779310	0.622070
O9771	O977	0.059220	0.861000	0.723430
O9781	O978	0.090810	0.869740	0.696450
O9791	O979	0.906080	0.801260	0.635620
O9801	O980	0.941880	0.781180	0.622550
O9811	O981	0.947890	0.862540	0.726660
O9821	O982	0.911590	0.862670	0.705610
O9831	O983	0.256700	0.959320	0.591640
O9841	O984	0.252190	0.936540	0.556640
O9851	O985	0.253220	0.048810	0.592180
O9861	O986	0.248450	0.071350	0.556220
O9871	O987	0.257000	0.901790	0.607570
O9881	O988	0.106940	0.750880	0.605990
C17931	C1793	0.168280	0.738300	0.624200
C17941	C1794	0.196220	0.731700	0.623300
C17951	C1795	0.203290	0.706200	0.624200
H6731	H673	0.190700	0.693300	0.625800
C17961	C1796	0.228650	0.699740	0.622700
C17971	C1797	0.235100	0.671820	0.622200
C17981	C1798	0.246990	0.718600	0.621100
H6741	H674	0.264400	0.714000	0.620400
C17991	C1799	0.214760	0.750420	0.621200
H6751	H675	0.209800	0.767700	0.620100
C18001	C1800	0.240340	0.744270	0.620600
C18011	C1801	0.260200	0.764540	0.619500
C18021	C1802	0.285670	0.758580	0.618100
H6761	H676	0.290600	0.741200	0.617900
C18031	C1803	0.254100	0.790450	0.619300
H6771	H677	0.236800	0.795500	0.620900
C18041	C1804	0.272700	0.808930	0.617000
C18051	C1805	0.266300	0.836800	0.616600
C18061	C1806	0.297400	0.802200	0.615500
H6781	H678	0.310100	0.814900	0.613300
C18071	C1807	0.304310	0.777050	0.617000
C18081	C1808	0.331980	0.770100	0.616400
C18091	C1809	0.144110	0.802180	0.575470
C18101	C1810	0.158460	0.822380	0.561340
C18111	C1811	0.174160	0.838910	0.574520
H6791	H679	0.174800	0.838600	0.592600
C18121	C1812	0.189010	0.855890	0.560730
C18131	C1813	0.207710	0.872510	0.574290
C18141	C1814	0.187090	0.857110	0.534540
H6801	H680	0.196900	0.869200	0.525400
C18151	C1815	0.156970	0.823340	0.534950
H6811	H681	0.146200	0.811800	0.526200
C18161	C1816	0.170960	0.840800	0.521500
C18171	C1817	0.169180	0.842410	0.492690
C18181	C1818	0.183050	0.860210	0.479000
H6821	H682	0.194100	0.871500	0.487800
C18191	C1819	0.181130	0.861810	0.452560
O9891	O989	0.189660	0.888300	0.417290
C18201	C1820	0.165300	0.845430	0.439610
H6831	H683	0.163200	0.847000	0.421700
C18211	C1821	0.152600	0.826800	0.452890
C18221	C1822	0.138000	0.807200	0.438800
C18231	C1823	0.154700	0.825300	0.478760
H6841	H684	0.146000	0.812100	0.487500
C18241	C1824	0.069000	0.798800	0.629500
C18251	C1825	0.054900	0.816900	0.646700
C18261	C1826	0.068780	0.832200	0.663100
H6851	H685	0.086800	0.833200	0.661900
C18271	C1827	0.055670	0.846000	0.681500
C18281	C1828	0.069850	0.860500	0.701500
C18291	C1829	0.029050	0.845100	0.682100
H6861	H686	0.020300	0.854700	0.694600
C18301	C1830	0.028180	0.816200	0.647820
H6871	H687	0.019100	0.805500	0.636500
C18311	C1831	0.015050	0.830800	0.664990
C18321	C1832	0.986240	0.830300	0.666440
C18331	C1833	0.971650	0.815770	0.649780
H6881	H688	0.980000	0.805900	0.637100
C18341	C1834	0.945360	0.815280	0.651160
C18351	C1835	0.930210	0.797800	0.634850
C18361	C1836	0.932850	0.829610	0.669200
H6891	H689	0.914800	0.830000	0.669800
C18371	C1837	0.947540	0.843610	0.686620
C18381	C1838	0.934140	0.857410	0.707860
C18391	C1839	0.973740	0.843500	0.685320
H6901	H690	0.983300	0.852700	0.697600
C18401	C1840	0.253700	0.956960	0.568490
C18411	C1841	0.252800	0.981340	0.553760
C18421	C1842	0.252500	0.004210	0.566860
H6911	H691	0.253400	0.004400	0.584900
C18431	C1843	0.251000	0.026430	0.553680
C18441	C1844	0.250800	0.050690	0.568380
C18451	C1845	0.250000	0.026620	0.527500
H6921	H692	0.248600	0.042300	0.518700
C18461	C1846	0.251000	0.003830	0.514020
C18471	C1847	0.251600	0.981180	0.527600
H6931	H693	0.251100	0.965400	0.518800
O9901	O990	0.154670	0.720820	0.632930
C18481	C1848	0.197800	0.880050	0.438240
Zn2651	Zn265	0.624010	0.280240	0.121100
Zn2661	Zn266	0.619470	0.222800	0.125630
Zn2671	Zn267	0.620560	0.251010	0.072100
Zn2681	Zn268	0.570420	0.250200	0.105630
Zn2691	Zn269	0.731450	0.381380	0.126870
Zn2701	Zn270	0.790650	0.387760	0.116240
Zn2711	Zn271	0.753560	0.402190	0.071450
Zn2721	Zn272	0.756320	0.435760	0.120260
O9911	O991	0.661690	0.259110	0.116980
O9921	O992	0.718150	0.157100	0.129770
O9931	O993	0.757010	0.165340	0.115330
O9941	O994	0.744760	0.344270	0.123960
O9951	O995	0.783300	0.350890	0.106900
O9961	O996	0.837810	0.247290	0.113540
O9971	O997	0.846840	0.288200	0.120400
O9981	O998	0.640310	0.305600	0.098980
O9991	O999	0.636550	0.283460	0.062900
O10001	O1000	0.706350	0.373080	0.097930
O10011	O1001	0.723200	0.384420	0.060610
O10021	O1002	0.718930	0.385250	0.947540
O10031	O1003	0.627120	0.313000	0.918780
O10041	O1004	0.639300	0.284770	0.948300
O10051	O1005	0.591490	0.303060	0.125210
O10061	O1006	0.556380	0.279310	0.122070
O10071	O1007	0.559220	0.361000	0.223430
O10081	O1008	0.590810	0.369740	0.196450
O10091	O1009	0.406080	0.301260	0.135620
O10101	O1010	0.441880	0.281180	0.122550
O10111	O1011	0.447890	0.362540	0.226660
O10121	O1012	0.411590	0.362670	0.205610
O10131	O1013	0.756700	0.459320	0.091640
O10141	O1014	0.752190	0.436540	0.056640
O10151	O1015	0.753220	0.548810	0.092180
O10161	O1016	0.748450	0.571350	0.056220
O10171	O1017	0.757000	0.401790	0.107570
O10181	O1018	0.606940	0.250880	0.105990
C18491	C1849	0.668280	0.238300	0.124200
C18501	C1850	0.696220	0.231700	0.123300
C18511	C1851	0.703290	0.206200	0.124200
H6941	H694	0.690700	0.193300	0.125800
C18521	C1852	0.728650	0.199740	0.122700
C18531	C1853	0.735100	0.171820	0.122200
C18541	C1854	0.746990	0.218600	0.121100
H6951	H695	0.764400	0.214000	0.120400
C18551	C1855	0.714760	0.250420	0.121200
H6961	H696	0.709800	0.267700	0.120100
C18561	C1856	0.740340	0.244270	0.120600
C18571	C1857	0.760200	0.264540	0.119500
C18581	C1858	0.785670	0.258580	0.118100
H6971	H697	0.790600	0.241200	0.117900
C18591	C1859	0.754100	0.290450	0.119300
H6981	H698	0.736800	0.295500	0.120900
C18601	C1860	0.772700	0.308930	0.117000
C18611	C1861	0.766300	0.336800	0.116600
C18621	C1862	0.797400	0.302200	0.115500
H6991	H699	0.810100	0.314900	0.113300
C18631	C1863	0.804310	0.277050	0.117000
C18641	C1864	0.831980	0.270100	0.116400
C18651	C1865	0.644110	0.302180	0.075470
C18661	C1866	0.658460	0.322380	0.061340
C18671	C1867	0.674160	0.338910	0.074520
H7001	H700	0.674800	0.338600	0.092600
C18681	C1868	0.689010	0.355890	0.060730
C18691	C1869	0.707710	0.372510	0.074290
C18701	C1870	0.687090	0.357110	0.034540
H7011	H701	0.696900	0.369200	0.025400
C18711	C1871	0.656970	0.323340	0.034950
H7021	H702	0.646200	0.311800	0.026200
C18721	C1872	0.670960	0.340800	0.021500
C18731	C1873	0.669180	0.342410	0.992690
C18741	C1874	0.683050	0.360210	0.979000
H7031	H703	0.694100	0.371500	0.987800
C18751	C1875	0.681130	0.361810	0.952560
O10191	O1019	0.689660	0.388300	0.917290
C18761	C1876	0.665300	0.345430	0.939610
H7041	H704	0.663200	0.347000	0.921700
C18771	C1877	0.652600	0.326800	0.952890
C18781	C1878	0.638000	0.307200	0.938800
C18791	C1879	0.654700	0.325300	0.978760
H7051	H705	0.646000	0.312100	0.987500
C18801	C1880	0.569000	0.298800	0.129500
C18811	C1881	0.554900	0.316900	0.146700
C18821	C1882	0.568780	0.332200	0.163100
H7061	H706	0.586800	0.333200	0.161900
C18831	C1883	0.555670	0.346000	0.181500
C18841	C1884	0.569850	0.360500	0.201500
C18851	C1885	0.529050	0.345100	0.182100
H7071	H707	0.520300	0.354700	0.194600
C18861	C1886	0.528180	0.316200	0.147820
H7081	H708	0.519100	0.305500	0.136500
C18871	C1887	0.515050	0.330800	0.164990
C18881	C1888	0.486240	0.330300	0.166440
C18891	C1889	0.471650	0.315770	0.149780
H7091	H709	0.480000	0.305900	0.137100
C18901	C1890	0.445360	0.315280	0.151160
C18911	C1891	0.430210	0.297800	0.134850
C18921	C1892	0.432850	0.329610	0.169200
H7101	H710	0.414800	0.330000	0.169800
C18931	C1893	0.447540	0.343610	0.186620
C18941	C1894	0.434140	0.357410	0.207860
C18951	C1895	0.473740	0.343500	0.185320
H7111	H711	0.483300	0.352700	0.197600
C18961	C1896	0.753700	0.456960	0.068490
C18971	C1897	0.752800	0.481340	0.053760
C18981	C1898	0.752500	0.504210	0.066860
H7121	H712	0.753400	0.504400	0.084900
C18991	C1899	0.751000	0.526430	0.053680
C19001	C1900	0.750800	0.550690	0.068380
C19011	C1901	0.750000	0.526620	0.027500
H7131	H713	0.748600	0.542300	0.018700
C19021	C1902	0.751000	0.503830	0.014020
C19031	C1903	0.751600	0.481180	0.027600
H7141	H714	0.751100	0.465400	0.018800
O10201	O1020	0.654670	0.220820	0.132930
C19041	C1904	0.697800	0.380050	0.938240
Zn2731	Zn273	0.624010	0.719760	0.378900
Zn2741	Zn274	0.619470	0.777200	0.374370
Zn2751	Zn275	0.620560	0.748990	0.427900
Zn2761	Zn276	0.570420	0.749800	0.394370
Zn2771	Zn277	0.731450	0.618620	0.373130
Zn2781	Zn278	0.790650	0.612240	0.383760
Zn2791	Zn279	0.753560	0.597810	0.428550
Zn2801	Zn280	0.756320	0.564240	0.379740
O10211	O1021	0.661690	0.740890	0.383020
O10221	O1022	0.718150	0.842900	0.370230
O10231	O1023	0.757010	0.834660	0.384670
O10241	O1024	0.744760	0.655730	0.376040
O10251	O1025	0.783300	0.649110	0.393100
O10261	O1026	0.837810	0.752710	0.386460
O10271	O1027	0.846840	0.711800	0.379600
O10281	O1028	0.640310	0.694400	0.401020
O10291	O1029	0.636550	0.716540	0.437100
O10301	O1030	0.706350	0.626920	0.402070
O10311	O1031	0.723200	0.615580	0.439390
O10321	O1032	0.718930	0.614750	0.552460
O10331	O1033	0.627120	0.687000	0.581220
O10341	O1034	0.639300	0.715230	0.551700
O10351	O1035	0.591490	0.696940	0.374790
O10361	O1036	0.556380	0.720690	0.377930
O10371	O1037	0.559220	0.639000	0.276570
O10381	O1038	0.590810	0.630260	0.303550
O10391	O1039	0.406080	0.698740	0.364380
O10401	O1040	0.441880	0.718820	0.377450
O10411	O1041	0.447890	0.637460	0.273340
O10421	O1042	0.411590	0.637330	0.294390
O10431	O1043	0.756700	0.540680	0.408360
O10441	O1044	0.752190	0.563460	0.443360
O10451	O1045	0.753220	0.451190	0.407820
O10461	O1046	0.748450	0.428650	0.443780
O10471	O1047	0.757000	0.598210	0.392430
O10481	O1048	0.606940	0.749120	0.394010
C19051	C1905	0.668280	0.761700	0.375800
C19061	C1906	0.696220	0.768300	0.376700
C19071	C1907	0.703290	0.793800	0.375800
H7151	H715	0.690700	0.806700	0.374200
C19081	C1908	0.728650	0.800260	0.377300
C19091	C1909	0.735100	0.828180	0.377800
C19101	C1910	0.746990	0.781400	0.378900
H7161	H716	0.764400	0.786000	0.379600
C19111	C1911	0.714760	0.749580	0.378800
H7171	H717	0.709800	0.732300	0.379900
C19121	C1912	0.740340	0.755730	0.379400
C19131	C1913	0.760200	0.735460	0.380500
C19141	C1914	0.785670	0.741420	0.381900
H7181	H718	0.790600	0.758800	0.382100
C19151	C1915	0.754100	0.709550	0.380700
H7191	H719	0.736800	0.704500	0.379100
C19161	C1916	0.772700	0.691070	0.383000
C19171	C1917	0.766300	0.663200	0.383400
C19181	C1918	0.797400	0.697800	0.384500
H7201	H720	0.810100	0.685100	0.386700
C19191	C1919	0.804310	0.722950	0.383000
C19201	C1920	0.831980	0.729900	0.383600
C19211	C1921	0.644110	0.697820	0.424530
C19221	C1922	0.658460	0.677620	0.438660
C19231	C1923	0.674160	0.661090	0.425480
H7211	H721	0.674800	0.661400	0.407400
C19241	C1924	0.689010	0.644110	0.439270
C19251	C1925	0.707710	0.627490	0.425710
C19261	C1926	0.687090	0.642890	0.465460
H7221	H722	0.696900	0.630800	0.474600
C19271	C1927	0.656970	0.676660	0.465050
H7231	H723	0.646200	0.688200	0.473800
C19281	C1928	0.670960	0.659200	0.478500
C19291	C1929	0.669180	0.657590	0.507310
C19301	C1930	0.683050	0.639790	0.521000
H7241	H724	0.694100	0.628500	0.512200
C19311	C1931	0.681130	0.638190	0.547440
O10491	O1049	0.689660	0.611700	0.582710
C19321	C1932	0.665300	0.654570	0.560390
H7251	H725	0.663200	0.653000	0.578300
C19331	C1933	0.652600	0.673200	0.547110
C19341	C1934	0.638000	0.692800	0.561200
C19351	C1935	0.654700	0.674700	0.521240
H7261	H726	0.646000	0.687900	0.512500
C19361	C1936	0.569000	0.701200	0.370500
C19371	C1937	0.554900	0.683100	0.353300
C19381	C1938	0.568780	0.667800	0.336900
H7271	H727	0.586800	0.666800	0.338100
C19391	C1939	0.555670	0.654000	0.318500
C19401	C1940	0.569850	0.639500	0.298500
C19411	C1941	0.529050	0.654900	0.317900
H7281	H728	0.520300	0.645300	0.305400
C19421	C1942	0.528180	0.683800	0.352180
H7291	H729	0.519100	0.694500	0.363500
C19431	C1943	0.515050	0.669200	0.335010
C19441	C1944	0.486240	0.669700	0.333560
C19451	C1945	0.471650	0.684230	0.350220
H7301	H730	0.480000	0.694100	0.362900
C19461	C1946	0.445360	0.684720	0.348840
C19471	C1947	0.430210	0.702200	0.365150
C19481	C1948	0.432850	0.670390	0.330800
H7311	H731	0.414800	0.670000	0.330200
C19491	C1949	0.447540	0.656390	0.313380
C19501	C1950	0.434140	0.642590	0.292140
C19511	C1951	0.473740	0.656500	0.314680
H7321	H732	0.483300	0.647300	0.302400
C19521	C1952	0.753700	0.543040	0.431510
C19531	C1953	0.752800	0.518660	0.446240
C19541	C1954	0.752500	0.495790	0.433140
H7331	H733	0.753400	0.495600	0.415100
C19551	C1955	0.751000	0.473570	0.446320
C19561	C1956	0.750800	0.449310	0.431620
C19571	C1957	0.750000	0.473380	0.472500
H7341	H734	0.748600	0.457700	0.481300
C19581	C1958	0.751000	0.496170	0.485980
C19591	C1959	0.751600	0.518820	0.472400
H7351	H735	0.751100	0.534600	0.481200
O10501	O1050	0.654670	0.779180	0.367070
C19601	C1960	0.697800	0.619950	0.561760
Zn2811	Zn281	0.124010	0.219760	0.878900
Zn2821	Zn282	0.119470	0.277200	0.874370
Zn2831	Zn283	0.120560	0.248990	0.927900
Zn2841	Zn284	0.070420	0.249800	0.894370
Zn2851	Zn285	0.231450	0.118620	0.873130
Zn2861	Zn286	0.290650	0.112240	0.883760
Zn2871	Zn287	0.253560	0.097810	0.928550
Zn2881	Zn288	0.256320	0.064240	0.879740
O10511	O1051	0.161690	0.240890	0.883020
O10521	O1052	0.218150	0.342900	0.870230
O10531	O1053	0.257010	0.334660	0.884670
O10541	O1054	0.244760	0.155730	0.876040
O10551	O1055	0.283300	0.149110	0.893100
O10561	O1056	0.337810	0.252710	0.886460
O10571	O1057	0.346840	0.211800	0.879600
O10581	O1058	0.140310	0.194400	0.901020
O10591	O1059	0.136550	0.216540	0.937100
O10601	O1060	0.206350	0.126920	0.902070
O10611	O1061	0.223200	0.115580	0.939390
O10621	O1062	0.218930	0.114750	0.052460
O10631	O1063	0.127120	0.187000	0.081220
O10641	O1064	0.139300	0.215230	0.051700
O10651	O1065	0.091490	0.196940	0.874790
O10661	O1066	0.056380	0.220690	0.877930
O10671	O1067	0.059220	0.139000	0.776570
O10681	O1068	0.090810	0.130260	0.803550
O10691	O1069	0.906080	0.198740	0.864380
O10701	O1070	0.941880	0.218820	0.877450
O10711	O1071	0.947890	0.137460	0.773340
O10721	O1072	0.911590	0.137330	0.794390
O10731	O1073	0.256700	0.040680	0.908360
O10741	O1074	0.252190	0.063460	0.943360
O10751	O1075	0.253220	0.951190	0.907820
O10761	O1076	0.248450	0.928650	0.943780
O10771	O1077	0.257000	0.098210	0.892430
O10781	O1078	0.106940	0.249120	0.894010
C19611	C1961	0.168280	0.261700	0.875800
C19621	C1962	0.196220	0.268300	0.876700
C19631	C1963	0.203290	0.293800	0.875800
H7361	H736	0.190700	0.306700	0.874200
C19641	C1964	0.228650	0.300260	0.877300
C19651	C1965	0.235100	0.328180	0.877800
C19661	C1966	0.246990	0.281400	0.878900
H7371	H737	0.264400	0.286000	0.879600
C19671	C1967	0.214760	0.249580	0.878800
H7381	H738	0.209800	0.232300	0.879900
C19681	C1968	0.240340	0.255730	0.879400
C19691	C1969	0.260200	0.235460	0.880500
C19701	C1970	0.285670	0.241420	0.881900
H7391	H739	0.290600	0.258800	0.882100
C19711	C1971	0.254100	0.209550	0.880700
H7401	H740	0.236800	0.204500	0.879100
C19721	C1972	0.272700	0.191070	0.883000
C19731	C1973	0.266300	0.163200	0.883400
C19741	C1974	0.297400	0.197800	0.884500
H7411	H741	0.310100	0.185100	0.886700
C19751	C1975	0.304310	0.222950	0.883000
C19761	C1976	0.331980	0.229900	0.883600
C19771	C1977	0.144110	0.197820	0.924530
C19781	C1978	0.158460	0.177620	0.938660
C19791	C1979	0.174160	0.161090	0.925480
H7421	H742	0.174800	0.161400	0.907400
C19801	C1980	0.189010	0.144110	0.939270
C19811	C1981	0.207710	0.127490	0.925710
C19821	C1982	0.187090	0.142890	0.965460
H7431	H743	0.196900	0.130800	0.974600
C19831	C1983	0.156970	0.176660	0.965050
H7441	H744	0.146200	0.188200	0.973800
C19841	C1984	0.170960	0.159200	0.978500
C19851	C1985	0.169180	0.157590	0.007310
C19861	C1986	0.183050	0.139790	0.021000
H7451	H745	0.194100	0.128500	0.012200
C19871	C1987	0.181130	0.138190	0.047440
O10791	O1079	0.189660	0.111700	0.082710
C19881	C1988	0.165300	0.154570	0.060390
H7461	H746	0.163200	0.153000	0.078300
C19891	C1989	0.152600	0.173200	0.047110
C19901	C1990	0.138000	0.192800	0.061200
C19911	C1991	0.154700	0.174700	0.021240
H7471	H747	0.146000	0.187900	0.012500
C19921	C1992	0.069000	0.201200	0.870500
C19931	C1993	0.054900	0.183100	0.853300
C19941	C1994	0.068780	0.167800	0.836900
H7481	H748	0.086800	0.166800	0.838100
C19951	C1995	0.055670	0.154000	0.818500
C19961	C1996	0.069850	0.139500	0.798500
C19971	C1997	0.029050	0.154900	0.817900
H7491	H749	0.020300	0.145300	0.805400
C19981	C1998	0.028180	0.183800	0.852180
H7501	H750	0.019100	0.194500	0.863500
C19991	C1999	0.015050	0.169200	0.835010
C20001	C2000	0.986240	0.169700	0.833560
C20011	C2001	0.971650	0.184230	0.850220
H7511	H751	0.980000	0.194100	0.862900
C20021	C2002	0.945360	0.184720	0.848840
C20031	C2003	0.930210	0.202200	0.865150
C20041	C2004	0.932850	0.170390	0.830800
H7521	H752	0.914800	0.170000	0.830200
C20051	C2005	0.947540	0.156390	0.813380
C20061	C2006	0.934140	0.142590	0.792140
C20071	C2007	0.973740	0.156500	0.814680
H7531	H753	0.983300	0.147300	0.802400
C20081	C2008	0.253700	0.043040	0.931510
C20091	C2009	0.252800	0.018660	0.946240
C20101	C2010	0.252500	0.995790	0.933140
H7541	H754	0.253400	0.995600	0.915100
C20111	C2011	0.251000	0.973570	0.946320
C20121	C2012	0.250800	0.949310	0.931620
C20131	C2013	0.250000	0.973380	0.972500
H7551	H755	0.248600	0.957700	0.981300
C20141	C2014	0.251000	0.996170	0.985980
C20151	C2015	0.251600	0.018820	0.972400
H7561	H756	0.251100	0.034600	0.981200
O10801	O1080	0.154670	0.279180	0.867070
C20161	C2016	0.197800	0.119950	0.061760
Zn2891	Zn289	0.375990	0.219760	0.121100
Zn2901	Zn290	0.380530	0.277200	0.125630
Zn2911	Zn291	0.379440	0.248990	0.072100
Zn2921	Zn292	0.429580	0.249800	0.105630
Zn2931	Zn293	0.268550	0.118620	0.126870
Zn2941	Zn294	0.209350	0.112240	0.116240
Zn2951	Zn295	0.246440	0.097810	0.071450
Zn2961	Zn296	0.243680	0.064240	0.120260
O10811	O1081	0.338310	0.240890	0.116980
O10821	O1082	0.281850	0.342900	0.129770
O10831	O1083	0.242990	0.334660	0.115330
O10841	O1084	0.255240	0.155730	0.123960
O10851	O1085	0.216700	0.149110	0.106900
O10861	O1086	0.162190	0.252710	0.113540
O10871	O1087	0.153160	0.211800	0.120400
O10881	O1088	0.359690	0.194400	0.098980
O10891	O1089	0.363450	0.216540	0.062900
O10901	O1090	0.293650	0.126920	0.097930
O10911	O1091	0.276800	0.115580	0.060610
O10921	O1092	0.281070	0.114750	0.947540
O10931	O1093	0.372880	0.187000	0.918780
O10941	O1094	0.360700	0.215230	0.948300
O10951	O1095	0.408510	0.196940	0.125210
O10961	O1096	0.443620	0.220690	0.122070
O10971	O1097	0.440780	0.139000	0.223430
O10981	O1098	0.409190	0.130260	0.196450
O10991	O1099	0.593920	0.198740	0.135620
O11001	O1100	0.558120	0.218820	0.122550
O11011	O1101	0.552110	0.137460	0.226660
O11021	O1102	0.588410	0.137330	0.205610
O11031	O1103	0.243300	0.040680	0.091640
O11041	O1104	0.247810	0.063460	0.056640
O11051	O1105	0.246780	0.951190	0.092180
O11061	O1106	0.251550	0.928650	0.056220
O11071	O1107	0.243000	0.098210	0.107570
O11081	O1108	0.393060	0.249120	0.105990
C20171	C2017	0.331720	0.261700	0.124200
C20181	C2018	0.303780	0.268300	0.123300
C20191	C2019	0.296710	0.293800	0.124200
H7571	H757	0.309300	0.306700	0.125800
C20201	C2020	0.271350	0.300260	0.122700
C20211	C2021	0.264900	0.328180	0.122200
C20221	C2022	0.253010	0.281400	0.121100
H7581	H758	0.235600	0.286000	0.120400
C20231	C2023	0.285240	0.249580	0.121200
H7591	H759	0.290200	0.232300	0.120100
C20241	C2024	0.259660	0.255730	0.120600
C20251	C2025	0.239800	0.235460	0.119500
C20261	C2026	0.214330	0.241420	0.118100
H7601	H760	0.209400	0.258800	0.117900
C20271	C2027	0.245900	0.209550	0.119300
H7611	H761	0.263200	0.204500	0.120900
C20281	C2028	0.227300	0.191070	0.117000
C20291	C2029	0.233700	0.163200	0.116600
C20301	C2030	0.202600	0.197800	0.115500
H7621	H762	0.189900	0.185100	0.113300
C20311	C2031	0.195690	0.222950	0.117000
C20321	C2032	0.168020	0.229900	0.116400
C20331	C2033	0.355890	0.197820	0.075470
C20341	C2034	0.341540	0.177620	0.061340
C20351	C2035	0.325840	0.161090	0.074520
H7631	H763	0.325200	0.161400	0.092600
C20361	C2036	0.310990	0.144110	0.060730
C20371	C2037	0.292290	0.127490	0.074290
C20381	C2038	0.312910	0.142890	0.034540
H7641	H764	0.303100	0.130800	0.025400
C20391	C2039	0.343030	0.176660	0.034950
H7651	H765	0.353800	0.188200	0.026200
C20401	C2040	0.329040	0.159200	0.021500
C20411	C2041	0.330820	0.157590	0.992690
C20421	C2042	0.316950	0.139790	0.979000
H7661	H766	0.305900	0.128500	0.987800
C20431	C2043	0.318870	0.138190	0.952560
O11091	O1109	0.310340	0.111700	0.917290
C20441	C2044	0.334700	0.154570	0.939610
H7671	H767	0.336800	0.153000	0.921700
C20451	C2045	0.347400	0.173200	0.952890
C20461	C2046	0.362000	0.192800	0.938800
C20471	C2047	0.345300	0.174700	0.978760
H7681	H768	0.354000	0.187900	0.987500
C20481	C2048	0.431000	0.201200	0.129500
C20491	C2049	0.445100	0.183100	0.146700
C20501	C2050	0.431220	0.167800	0.163100
H7691	H769	0.413200	0.166800	0.161900
C20511	C2051	0.444330	0.154000	0.181500
C20521	C2052	0.430150	0.139500	0.201500
C20531	C2053	0.470950	0.154900	0.182100
H7701	H770	0.479700	0.145300	0.194600
C20541	C2054	0.471820	0.183800	0.147820
H7711	H771	0.480900	0.194500	0.136500
C20551	C2055	0.484950	0.169200	0.164990
C20561	C2056	0.513760	0.169700	0.166440
C20571	C2057	0.528350	0.184230	0.149780
H7721	H772	0.520000	0.194100	0.137100
C20581	C2058	0.554640	0.184720	0.151160
C20591	C2059	0.569790	0.202200	0.134850
C20601	C2060	0.567150	0.170390	0.169200
H7731	H773	0.585200	0.170000	0.169800
C20611	C2061	0.552460	0.156390	0.186620
C20621	C2062	0.565860	0.142590	0.207860
C20631	C2063	0.526260	0.156500	0.185320
H7741	H774	0.516700	0.147300	0.197600
C20641	C2064	0.246300	0.043040	0.068490
C20651	C2065	0.247200	0.018660	0.053760
C20661	C2066	0.247500	0.995790	0.066860
H7751	H775	0.246600	0.995600	0.084900
C20671	C2067	0.249000	0.973570	0.053680
C20681	C2068	0.249200	0.949310	0.068380
C20691	C2069	0.250000	0.973380	0.027500
H7761	H776	0.251400	0.957700	0.018700
C20701	C2070	0.249000	0.996170	0.014020
C20711	C2071	0.248400	0.018820	0.027600
H7771	H777	0.248900	0.034600	0.018800
O11101	O1110	0.345330	0.279180	0.132930
C20721	C2072	0.302200	0.119950	0.938240
Zn2971	Zn297	0.875990	0.719760	0.621100
Zn2981	Zn298	0.880530	0.777200	0.625630
Zn2991	Zn299	0.879440	0.748990	0.572100
Zn3001	Zn300	0.929580	0.749800	0.605630
Zn3011	Zn301	0.768550	0.618620	0.626870
Zn3021	Zn302	0.709350	0.612240	0.616240
Zn3031	Zn303	0.746440	0.597810	0.571450
Zn3041	Zn304	0.743680	0.564240	0.620260
O11111	O1111	0.838310	0.740890	0.616980
O11121	O1112	0.781850	0.842900	0.629770
O11131	O1113	0.742990	0.834660	0.615330
O11141	O1114	0.755240	0.655730	0.623960
O11151	O1115	0.716700	0.649110	0.606900
O11161	O1116	0.662190	0.752710	0.613540
O11171	O1117	0.653160	0.711800	0.620400
O11181	O1118	0.859690	0.694400	0.598980
O11191	O1119	0.863450	0.716540	0.562900
O11201	O1120	0.793650	0.626920	0.597930
O11211	O1121	0.776800	0.615580	0.560610
O11221	O1122	0.781070	0.614750	0.447540
O11231	O1123	0.872880	0.687000	0.418780
O11241	O1124	0.860700	0.715230	0.448300
O11251	O1125	0.908510	0.696940	0.625210
O11261	O1126	0.943620	0.720690	0.622070
O11271	O1127	0.940780	0.639000	0.723430
O11281	O1128	0.909190	0.630260	0.696450
O11291	O1129	0.093920	0.698740	0.635620
O11301	O1130	0.058120	0.718820	0.622550
O11311	O1131	0.052110	0.637460	0.726660
O11321	O1132	0.088410	0.637330	0.705610
O11331	O1133	0.743300	0.540680	0.591640
O11341	O1134	0.747810	0.563460	0.556640
O11351	O1135	0.746780	0.451190	0.592180
O11361	O1136	0.751550	0.428650	0.556220
O11371	O1137	0.743000	0.598210	0.607570
O11381	O1138	0.893060	0.749120	0.605990
C20731	C2073	0.831720	0.761700	0.624200
C20741	C2074	0.803780	0.768300	0.623300
C20751	C2075	0.796710	0.793800	0.624200
H7781	H778	0.809300	0.806700	0.625800
C20761	C2076	0.771350	0.800260	0.622700
C20771	C2077	0.764900	0.828180	0.622200
C20781	C2078	0.753010	0.781400	0.621100
H7791	H779	0.735600	0.786000	0.620400
C20791	C2079	0.785240	0.749580	0.621200
H7801	H780	0.790200	0.732300	0.620100
C20801	C2080	0.759660	0.755730	0.620600
C20811	C2081	0.739800	0.735460	0.619500
C20821	C2082	0.714330	0.741420	0.618100
H7811	H781	0.709400	0.758800	0.617900
C20831	C2083	0.745900	0.709550	0.619300
H7821	H782	0.763200	0.704500	0.620900
C20841	C2084	0.727300	0.691070	0.617000
C20851	C2085	0.733700	0.663200	0.616600
C20861	C2086	0.702600	0.697800	0.615500
H7831	H783	0.689900	0.685100	0.613300
C20871	C2087	0.695690	0.722950	0.617000
C20881	C2088	0.668020	0.729900	0.616400
C20891	C2089	0.855890	0.697820	0.575470
C20901	C2090	0.841540	0.677620	0.561340
C20911	C2091	0.825840	0.661090	0.574520
H7841	H784	0.825200	0.661400	0.592600
C20921	C2092	0.810990	0.644110	0.560730
C20931	C2093	0.792290	0.627490	0.574290
C20941	C2094	0.812910	0.642890	0.534540
H7851	H785	0.803100	0.630800	0.525400
C20951	C2095	0.843030	0.676660	0.534950
H7861	H786	0.853800	0.688200	0.526200
C20961	C2096	0.829040	0.659200	0.521500
C20971	C2097	0.830820	0.657590	0.492690
C20981	C2098	0.816950	0.639790	0.479000
H7871	H787	0.805900	0.628500	0.487800
C20991	C2099	0.818870	0.638190	0.452560
O11391	O1139	0.810340	0.611700	0.417290
C21001	C2100	0.834700	0.654570	0.439610
H7881	H788	0.836800	0.653000	0.421700
C21011	C2101	0.847400	0.673200	0.452890
C21021	C2102	0.862000	0.692800	0.438800
C21031	C2103	0.845300	0.674700	0.478760
H7891	H789	0.854000	0.687900	0.487500
C21041	C2104	0.931000	0.701200	0.629500
C21051	C2105	0.945100	0.683100	0.646700
C21061	C2106	0.931220	0.667800	0.663100
H7901	H790	0.913200	0.666800	0.661900
C21071	C2107	0.944330	0.654000	0.681500
C21081	C2108	0.930150	0.639500	0.701500
C21091	C2109	0.970950	0.654900	0.682100
H7911	H791	0.979700	0.645300	0.694600
C21101	C2110	0.971820	0.683800	0.647820
H7921	H792	0.980900	0.694500	0.636500
C21111	C2111	0.984950	0.669200	0.664990
C21121	C2112	0.013760	0.669700	0.666440
C21131	C2113	0.028350	0.684230	0.649780
H7931	H793	0.020000	0.694100	0.637100
C21141	C2114	0.054640	0.684720	0.651160
C21151	C2115	0.069790	0.702200	0.634850
C21161	C2116	0.067150	0.670390	0.669200
H7941	H794	0.085200	0.670000	0.669800
C21171	C2117	0.052460	0.656390	0.686620
C21181	C2118	0.065860	0.642590	0.707860
C21191	C2119	0.026260	0.656500	0.685320
H7951	H795	0.016700	0.647300	0.697600
C21201	C2120	0.746300	0.543040	0.568490
C21211	C2121	0.747200	0.518660	0.553760
C21221	C2122	0.747500	0.495790	0.566860
H7961	H796	0.746600	0.495600	0.584900
C21231	C2123	0.749000	0.473570	0.553680
C21241	C2124	0.749200	0.449310	0.568380
C21251	C2125	0.750000	0.473380	0.527500
H7971	H797	0.751400	0.457700	0.518700
C21261	C2126	0.749000	0.496170	0.514020
C21271	C2127	0.748400	0.518820	0.527600
H7981	H798	0.748900	0.534600	0.518800
O11401	O1140	0.845330	0.779180	0.632930
C21281	C2128	0.802200	0.619950	0.438240
Zn3051	Zn305	0.875990	0.280240	0.878900
Zn3061	Zn306	0.880530	0.222800	0.874370
Zn3071	Zn307	0.879440	0.251010	0.927900
Zn3081	Zn308	0.929580	0.250200	0.894370
Zn3091	Zn309	0.768550	0.381380	0.873130
Zn3101	Zn310	0.709350	0.387760	0.883760
Zn3111	Zn311	0.746440	0.402190	0.928550
Zn3121	Zn312	0.743680	0.435760	0.879740
O11411	O1141	0.838310	0.259110	0.883020
O11421	O1142	0.781850	0.157100	0.870230
O11431	O1143	0.742990	0.165340	0.884670
O11441	O1144	0.755240	0.344270	0.876040
O11451	O1145	0.716700	0.350890	0.893100
O11461	O1146	0.662190	0.247290	0.886460
O11471	O1147	0.653160	0.288200	0.879600
O11481	O1148	0.859690	0.305600	0.901020
O11491	O1149	0.863450	0.283460	0.937100
O11501	O1150	0.793650	0.373080	0.902070
O11511	O1151	0.776800	0.384420	0.939390
O11521	O1152	0.781070	0.385250	0.052460
O11531	O1153	0.872880	0.313000	0.081220
O11541	O1154	0.860700	0.284770	0.051700
O11551	O1155	0.908510	0.303060	0.874790
O11561	O1156	0.943620	0.279310	0.877930
O11571	O1157	0.940780	0.361000	0.776570
O11581	O1158	0.909190	0.369740	0.803550
O11591	O1159	0.093920	0.301260	0.864380
O11601	O1160	0.058120	0.281180	0.877450
O11611	O1161	0.052110	0.362540	0.773340
O11621	O1162	0.088410	0.362670	0.794390
O11631	O1163	0.743300	0.459320	0.908360
O11641	O1164	0.747810	0.436540	0.943360
O11651	O1165	0.746780	0.548810	0.907820
O11661	O1166	0.751550	0.571350	0.943780
O11671	O1167	0.743000	0.401790	0.892430
O11681	O1168	0.893060	0.250880	0.894010
C21291	C2129	0.831720	0.238300	0.875800
C21301	C2130	0.803780	0.231700	0.876700
C21311	C2131	0.796710	0.206200	0.875800
H7991	H799	0.809300	0.193300	0.874200
C21321	C2132	0.771350	0.199740	0.877300
C21331	C2133	0.764900	0.171820	0.877800
C21341	C2134	0.753010	0.218600	0.878900
H8001	H800	0.735600	0.214000	0.879600
C21351	C2135	0.785240	0.250420	0.878800
H8011	H801	0.790200	0.267700	0.879900
C21361	C2136	0.759660	0.244270	0.879400
C21371	C2137	0.739800	0.264540	0.880500
C21381	C2138	0.714330	0.258580	0.881900
H8021	H802	0.709400	0.241200	0.882100
C21391	C2139	0.745900	0.290450	0.880700
H8031	H803	0.763200	0.295500	0.879100
C21401	C2140	0.727300	0.308930	0.883000
C21411	C2141	0.733700	0.336800	0.883400
C21421	C2142	0.702600	0.302200	0.884500
H8041	H804	0.689900	0.314900	0.886700
C21431	C2143	0.695690	0.277050	0.883000
C21441	C2144	0.668020	0.270100	0.883600
C21451	C2145	0.855890	0.302180	0.924530
C21461	C2146	0.841540	0.322380	0.938660
C21471	C2147	0.825840	0.338910	0.925480
H8051	H805	0.825200	0.338600	0.907400
C21481	C2148	0.810990	0.355890	0.939270
C21491	C2149	0.792290	0.372510	0.925710
C21501	C2150	0.812910	0.357110	0.965460
H8061	H806	0.803100	0.369200	0.974600
C21511	C2151	0.843030	0.323340	0.965050
H8071	H807	0.853800	0.311800	0.973800
C21521	C2152	0.829040	0.340800	0.978500
C21531	C2153	0.830820	0.342410	0.007310
C21541	C2154	0.816950	0.360210	0.021000
H8081	H808	0.805900	0.371500	0.012200
C21551	C2155	0.818870	0.361810	0.047440
O11691	O1169	0.810340	0.388300	0.082710
C21561	C2156	0.834700	0.345430	0.060390
H8091	H809	0.836800	0.347000	0.078300
C21571	C2157	0.847400	0.326800	0.047110
C21581	C2158	0.862000	0.307200	0.061200
C21591	C2159	0.845300	0.325300	0.021240
H8101	H810	0.854000	0.312100	0.012500
C21601	C2160	0.931000	0.298800	0.870500
C21611	C2161	0.945100	0.316900	0.853300
C21621	C2162	0.931220	0.332200	0.836900
H8111	H811	0.913200	0.333200	0.838100
C21631	C2163	0.944330	0.346000	0.818500
C21641	C2164	0.930150	0.360500	0.798500
C21651	C2165	0.970950	0.345100	0.817900
H8121	H812	0.979700	0.354700	0.805400
C21661	C2166	0.971820	0.316200	0.852180
H8131	H813	0.980900	0.305500	0.863500
C21671	C2167	0.984950	0.330800	0.835010
C21681	C2168	0.013760	0.330300	0.833560
C21691	C2169	0.028350	0.315770	0.850220
H8141	H814	0.020000	0.305900	0.862900
C21701	C2170	0.054640	0.315280	0.848840
C21711	C2171	0.069790	0.297800	0.865150
C21721	C2172	0.067150	0.329610	0.830800
H8151	H815	0.085200	0.330000	0.830200
C21731	C2173	0.052460	0.343610	0.813380
C21741	C2174	0.065860	0.357410	0.792140
C21751	C2175	0.026260	0.343500	0.814680
H8161	H816	0.016700	0.352700	0.802400
C21761	C2176	0.746300	0.456960	0.931510
C21771	C2177	0.747200	0.481340	0.946240
C21781	C2178	0.747500	0.504210	0.933140
H8171	H817	0.746600	0.504400	0.915100
C21791	C2179	0.749000	0.526430	0.946320
C21801	C2180	0.749200	0.550690	0.931620
C21811	C2181	0.750000	0.526620	0.972500
H8181	H818	0.751400	0.542300	0.981300
C21821	C2182	0.749000	0.503830	0.985980
C21831	C2183	0.748400	0.481180	0.972400
H8191	H819	0.748900	0.465400	0.981200
O11701	O1170	0.845330	0.220820	0.867070
C21841	C2184	0.802200	0.380050	0.061760
Zn3131	Zn313	0.375990	0.780240	0.378900
Zn3141	Zn314	0.380530	0.722800	0.374370
Zn3151	Zn315	0.379440	0.751010	0.427900
Zn3161	Zn316	0.429580	0.750200	0.394370
Zn3171	Zn317	0.268550	0.881380	0.373130
Zn3181	Zn318	0.209350	0.887760	0.383760
Zn3191	Zn319	0.246440	0.902190	0.428550
Zn3201	Zn320	0.243680	0.935760	0.379740
O11711	O1171	0.338310	0.759110	0.383020
O11721	O1172	0.281850	0.657100	0.370230
O11731	O1173	0.242990	0.665340	0.384670
O11741	O1174	0.255240	0.844270	0.376040
O11751	O1175	0.216700	0.850890	0.393100
O11761	O1176	0.162190	0.747290	0.386460
O11771	O1177	0.153160	0.788200	0.379600
O11781	O1178	0.359690	0.805600	0.401020
O11791	O1179	0.363450	0.783460	0.437100
O11801	O1180	0.293650	0.873080	0.402070
O11811	O1181	0.276800	0.884420	0.439390
O11821	O1182	0.281070	0.885250	0.552460
O11831	O1183	0.372880	0.813000	0.581220
O11841	O1184	0.360700	0.784770	0.551700
O11851	O1185	0.408510	0.803060	0.374790
O11861	O1186	0.443620	0.779310	0.377930
O11871	O1187	0.440780	0.861000	0.276570
O11881	O1188	0.409190	0.869740	0.303550
O11891	O1189	0.593920	0.801260	0.364380
O11901	O1190	0.558120	0.781180	0.377450
O11911	O1191	0.552110	0.862540	0.273340
O11921	O1192	0.588410	0.862670	0.294390
O11931	O1193	0.243300	0.959320	0.408360
O11941	O1194	0.247810	0.936540	0.443360
O11951	O1195	0.246780	0.048810	0.407820
O11961	O1196	0.251550	0.071350	0.443780
O11971	O1197	0.243000	0.901790	0.392430
O11981	O1198	0.393060	0.750880	0.394010
C21851	C2185	0.331720	0.738300	0.375800
C21861	C2186	0.303780	0.731700	0.376700
C21871	C2187	0.296710	0.706200	0.375800
H8201	H820	0.309300	0.693300	0.374200
C21881	C2188	0.271350	0.699740	0.377300
C21891	C2189	0.264900	0.671820	0.377800
C21901	C2190	0.253010	0.718600	0.378900
H8211	H821	0.235600	0.714000	0.379600
C21911	C2191	0.285240	0.750420	0.378800
H8221	H822	0.290200	0.767700	0.379900
C21921	C2192	0.259660	0.744270	0.379400
C21931	C2193	0.239800	0.764540	0.380500
C21941	C2194	0.214330	0.758580	0.381900
H8231	H823	0.209400	0.741200	0.382100
C21951	C2195	0.245900	0.790450	0.380700
H8241	H824	0.263200	0.795500	0.379100
C21961	C2196	0.227300	0.808930	0.383000
C21971	C2197	0.233700	0.836800	0.383400
C21981	C2198	0.202600	0.802200	0.384500
H8251	H825	0.189900	0.814900	0.386700
C21991	C2199	0.195690	0.777050	0.383000
C22001	C2200	0.168020	0.770100	0.383600
C22011	C2201	0.355890	0.802180	0.424530
C22021	C2202	0.341540	0.822380	0.438660
C22031	C2203	0.325840	0.838910	0.425480
H8261	H826	0.325200	0.838600	0.407400
C22041	C2204	0.310990	0.855890	0.439270
C22051	C2205	0.292290	0.872510	0.425710
C22061	C2206	0.312910	0.857110	0.465460
H8271	H827	0.303100	0.869200	0.474600
C22071	C2207	0.343030	0.823340	0.465050
H8281	H828	0.353800	0.811800	0.473800
C22081	C2208	0.329040	0.840800	0.478500
C22091	C2209	0.330820	0.842410	0.507310
C22101	C2210	0.316950	0.860210	0.521000
H8291	H829	0.305900	0.871500	0.512200
C22111	C2211	0.318870	0.861810	0.547440
O11991	O1199	0.310340	0.888300	0.582710
C22121	C2212	0.334700	0.845430	0.560390
H8301	H830	0.336800	0.847000	0.578300
C22131	C2213	0.347400	0.826800	0.547110
C22141	C2214	0.362000	0.807200	0.561200
C22151	C2215	0.345300	0.825300	0.521240
H8311	H831	0.354000	0.812100	0.512500
C22161	C2216	0.431000	0.798800	0.370500
C22171	C2217	0.445100	0.816900	0.353300
C22181	C2218	0.431220	0.832200	0.336900
H8321	H832	0.413200	0.833200	0.338100
C22191	C2219	0.444330	0.846000	0.318500
C22201	C2220	0.430150	0.860500	0.298500
C22211	C2221	0.470950	0.845100	0.317900
H8331	H833	0.479700	0.854700	0.305400
C22221	C2222	0.471820	0.816200	0.352180
H8341	H834	0.480900	0.805500	0.363500
C22231	C2223	0.484950	0.830800	0.335010
C22241	C2224	0.513760	0.830300	0.333560
C22251	C2225	0.528350	0.815770	0.350220
H8351	H835	0.520000	0.805900	0.362900
C22261	C2226	0.554640	0.815280	0.348840
C22271	C2227	0.569790	0.797800	0.365150
C22281	C2228	0.567150	0.829610	0.330800
H8361	H836	0.585200	0.830000	0.330200
C22291	C2229	0.552460	0.843610	0.313380
C22301	C2230	0.565860	0.857410	0.292140
C22311	C2231	0.526260	0.843500	0.314680
H8371	H837	0.516700	0.852700	0.302400
C22321	C2232	0.246300	0.956960	0.431510
C22331	C2233	0.247200	0.981340	0.446240
C22341	C2234	0.247500	0.004210	0.433140
H8381	H838	0.246600	0.004400	0.415100
C22351	C2235	0.249000	0.026430	0.446320
C22361	C2236	0.249200	0.050690	0.431620
C22371	C2237	0.250000	0.026620	0.472500
H8391	H839	0.251400	0.042300	0.481300
C22381	C2238	0.249000	0.003830	0.485980
C22391	C2239	0.248400	0.981180	0.472400
H8401	H840	0.248900	0.965400	0.481200
O12001	O1200	0.345330	0.720820	0.367070
C22401	C2240	0.302200	0.880050	0.561760
Zn3211	Zn321	0.621100	0.124010	0.780240
Zn3221	Zn322	0.625630	0.119470	0.722800
Zn3231	Zn323	0.572100	0.120560	0.751010
Zn3241	Zn324	0.605630	0.070420	0.750200
Zn3251	Zn325	0.626870	0.231450	0.881380
Zn3261	Zn326	0.616240	0.290650	0.887760
Zn3271	Zn327	0.571450	0.253560	0.902190
Zn3281	Zn328	0.620260	0.256320	0.935760
O12011	O1201	0.616980	0.161690	0.759110
O12021	O1202	0.629770	0.218150	0.657100
O12031	O1203	0.615330	0.257010	0.665340
O12041	O1204	0.623960	0.244760	0.844270
O12051	O1205	0.606900	0.283300	0.850890
O12061	O1206	0.613540	0.337810	0.747290
O12071	O1207	0.620400	0.346840	0.788200
O12081	O1208	0.598980	0.140310	0.805600
O12091	O1209	0.562900	0.136550	0.783460
O12101	O1210	0.597930	0.206350	0.873080
O12111	O1211	0.560610	0.223200	0.884420
O12121	O1212	0.447540	0.218930	0.885250
O12131	O1213	0.418780	0.127120	0.813000
O12141	O1214	0.448300	0.139300	0.784770
O12151	O1215	0.625210	0.091490	0.803060
O12161	O1216	0.622070	0.056380	0.779310
O12171	O1217	0.723430	0.059220	0.861000
O12181	O1218	0.696450	0.090810	0.869740
O12191	O1219	0.635620	0.906080	0.801260
O12201	O1220	0.622550	0.941880	0.781180
O12211	O1221	0.726660	0.947890	0.862540
O12221	O1222	0.705610	0.911590	0.862670
O12231	O1223	0.591640	0.256700	0.959320
O12241	O1224	0.556640	0.252190	0.936540
O12251	O1225	0.592180	0.253220	0.048810
O12261	O1226	0.556220	0.248450	0.071350
O12271	O1227	0.607570	0.257000	0.901790
O12281	O1228	0.605990	0.106940	0.750880
C22411	C2241	0.624200	0.168280	0.738300
C22421	C2242	0.623300	0.196220	0.731700
C22431	C2243	0.624200	0.203290	0.706200
H8411	H841	0.625800	0.190700	0.693300
C22441	C2244	0.622700	0.228650	0.699740
C22451	C2245	0.622200	0.235100	0.671820
C22461	C2246	0.621100	0.246990	0.718600
H8421	H842	0.620400	0.264400	0.714000
C22471	C2247	0.621200	0.214760	0.750420
H8431	H843	0.620100	0.209800	0.767700
C22481	C2248	0.620600	0.240340	0.744270
C22491	C2249	0.619500	0.260200	0.764540
C22501	C2250	0.618100	0.285670	0.758580
H8441	H844	0.617900	0.290600	0.741200
C22511	C2251	0.619300	0.254100	0.790450
H8451	H845	0.620900	0.236800	0.795500
C22521	C2252	0.617000	0.272700	0.808930
C22531	C2253	0.616600	0.266300	0.836800
C22541	C2254	0.615500	0.297400	0.802200
H8461	H846	0.613300	0.310100	0.814900
C22551	C2255	0.617000	0.304310	0.777050
C22561	C2256	0.616400	0.331980	0.770100
C22571	C2257	0.575470	0.144110	0.802180
C22581	C2258	0.561340	0.158460	0.822380
C22591	C2259	0.574520	0.174160	0.838910
H8471	H847	0.592600	0.174800	0.838600
C22601	C2260	0.560730	0.189010	0.855890
C22611	C2261	0.574290	0.207710	0.872510
C22621	C2262	0.534540	0.187090	0.857110
H8481	H848	0.525400	0.196900	0.869200
C22631	C2263	0.534950	0.156970	0.823340
H8491	H849	0.526200	0.146200	0.811800
C22641	C2264	0.521500	0.170960	0.840800
C22651	C2265	0.492690	0.169180	0.842410
C22661	C2266	0.479000	0.183050	0.860210
H8501	H850	0.487800	0.194100	0.871500
C22671	C2267	0.452560	0.181130	0.861810
O12291	O1229	0.417290	0.189660	0.888300
C22681	C2268	0.439610	0.165300	0.845430
H8511	H851	0.421700	0.163200	0.847000
C22691	C2269	0.452890	0.152600	0.826800
C22701	C2270	0.438800	0.138000	0.807200
C22711	C2271	0.478760	0.154700	0.825300
H8521	H852	0.487500	0.146000	0.812100
C22721	C2272	0.629500	0.069000	0.798800
C22731	C2273	0.646700	0.054900	0.816900
C22741	C2274	0.663100	0.068780	0.832200
H8531	H853	0.661900	0.086800	0.833200
C22751	C2275	0.681500	0.055670	0.846000
C22761	C2276	0.701500	0.069850	0.860500
C22771	C2277	0.682100	0.029050	0.845100
H8541	H854	0.694600	0.020300	0.854700
C22781	C2278	0.647820	0.028180	0.816200
H8551	H855	0.636500	0.019100	0.805500
C22791	C2279	0.664990	0.015050	0.830800
C22801	C2280	0.666440	0.986240	0.830300
C22811	C2281	0.649780	0.971650	0.815770
H8561	H856	0.637100	0.980000	0.805900
C22821	C2282	0.651160	0.945360	0.815280
C22831	C2283	0.634850	0.930210	0.797800
C22841	C2284	0.669200	0.932850	0.829610
H8571	H857	0.669800	0.914800	0.830000
C22851	C2285	0.686620	0.947540	0.843610
C22861	C2286	0.707860	0.934140	0.857410
C22871	C2287	0.685320	0.973740	0.843500
H8581	H858	0.697600	0.983300	0.852700
C22881	C2288	0.568490	0.253700	0.956960
C22891	C2289	0.553760	0.252800	0.981340
C22901	C2290	0.566860	0.252500	0.004210
H8591	H859	0.584900	0.253400	0.004400
C22911	C2291	0.553680	0.251000	0.026430
C22921	C2292	0.568380	0.250800	0.050690
C22931	C2293	0.527500	0.250000	0.026620
H8601	H860	0.518700	0.248600	0.042300
C22941	C2294	0.514020	0.251000	0.003830
C22951	C2295	0.527600	0.251600	0.981180
H8611	H861	0.518800	0.251100	0.965400
O12301	O1230	0.632930	0.154670	0.720820
C22961	C2296	0.438240	0.197800	0.880050
Zn3291	Zn329	0.121100	0.624010	0.280240
Zn3301	Zn330	0.125630	0.619470	0.222800
Zn3311	Zn331	0.072100	0.620560	0.251010
Zn3321	Zn332	0.105630	0.570420	0.250200
Zn3331	Zn333	0.126870	0.731450	0.381380
Zn3341	Zn334	0.116240	0.790650	0.387760
Zn3351	Zn335	0.071450	0.753560	0.402190
Zn3361	Zn336	0.120260	0.756320	0.435760
O12311	O1231	0.116980	0.661690	0.259110
O12321	O1232	0.129770	0.718150	0.157100
O12331	O1233	0.115330	0.757010	0.165340
O12341	O1234	0.123960	0.744760	0.344270
O12351	O1235	0.106900	0.783300	0.350890
O12361	O1236	0.113540	0.837810	0.247290
O12371	O1237	0.120400	0.846840	0.288200
O12381	O1238	0.098980	0.640310	0.305600
O12391	O1239	0.062900	0.636550	0.283460
O12401	O1240	0.097930	0.706350	0.373080
O12411	O1241	0.060610	0.723200	0.384420
O12421	O1242	0.947540	0.718930	0.385250
O12431	O1243	0.918780	0.627120	0.313000
O12441	O1244	0.948300	0.639300	0.284770
O12451	O1245	0.125210	0.591490	0.303060
O12461	O1246	0.122070	0.556380	0.279310
O12471	O1247	0.223430	0.559220	0.361000
O12481	O1248	0.196450	0.590810	0.369740
O12491	O1249	0.135620	0.406080	0.301260
O12501	O1250	0.122550	0.441880	0.281180
O12511	O1251	0.226660	0.447890	0.362540
O12521	O1252	0.205610	0.411590	0.362670
O12531	O1253	0.091640	0.756700	0.459320
O12541	O1254	0.056640	0.752190	0.436540
O12551	O1255	0.092180	0.753220	0.548810
O12561	O1256	0.056220	0.748450	0.571350
O12571	O1257	0.107570	0.757000	0.401790
O12581	O1258	0.105990	0.606940	0.250880
C22971	C2297	0.124200	0.668280	0.238300
C22981	C2298	0.123300	0.696220	0.231700
C22991	C2299	0.124200	0.703290	0.206200
H8621	H862	0.125800	0.690700	0.193300
C23001	C2300	0.122700	0.728650	0.199740
C23011	C2301	0.122200	0.735100	0.171820
C23021	C2302	0.121100	0.746990	0.218600
H8631	H863	0.120400	0.764400	0.214000
C23031	C2303	0.121200	0.714760	0.250420
H8641	H864	0.120100	0.709800	0.267700
C23041	C2304	0.120600	0.740340	0.244270
C23051	C2305	0.119500	0.760200	0.264540
C23061	C2306	0.118100	0.785670	0.258580
H8651	H865	0.117900	0.790600	0.241200
C23071	C2307	0.119300	0.754100	0.290450
H8661	H866	0.120900	0.736800	0.295500
C23081	C2308	0.117000	0.772700	0.308930
C23091	C2309	0.116600	0.766300	0.336800
C23101	C2310	0.115500	0.797400	0.302200
H8671	H867	0.113300	0.810100	0.314900
C23111	C2311	0.117000	0.804310	0.277050
C23121	C2312	0.116400	0.831980	0.270100
C23131	C2313	0.075470	0.644110	0.302180
C23141	C2314	0.061340	0.658460	0.322380
C23151	C2315	0.074520	0.674160	0.338910
H8681	H868	0.092600	0.674800	0.338600
C23161	C2316	0.060730	0.689010	0.355890
C23171	C2317	0.074290	0.707710	0.372510
C23181	C2318	0.034540	0.687090	0.357110
H8691	H869	0.025400	0.696900	0.369200
C23191	C2319	0.034950	0.656970	0.323340
H8701	H870	0.026200	0.646200	0.311800
C23201	C2320	0.021500	0.670960	0.340800
C23211	C2321	0.992690	0.669180	0.342410
C23221	C2322	0.979000	0.683050	0.360210
H8711	H871	0.987800	0.694100	0.371500
C23231	C2323	0.952560	0.681130	0.361810
O12591	O1259	0.917290	0.689660	0.388300
C23241	C2324	0.939610	0.665300	0.345430
H8721	H872	0.921700	0.663200	0.347000
C23251	C2325	0.952890	0.652600	0.326800
C23261	C2326	0.938800	0.638000	0.307200
C23271	C2327	0.978760	0.654700	0.325300
H8731	H873	0.987500	0.646000	0.312100
C23281	C2328	0.129500	0.569000	0.298800
C23291	C2329	0.146700	0.554900	0.316900
C23301	C2330	0.163100	0.568780	0.332200
H8741	H874	0.161900	0.586800	0.333200
C23311	C2331	0.181500	0.555670	0.346000
C23321	C2332	0.201500	0.569850	0.360500
C23331	C2333	0.182100	0.529050	0.345100
H8751	H875	0.194600	0.520300	0.354700
C23341	C2334	0.147820	0.528180	0.316200
H8761	H876	0.136500	0.519100	0.305500
C23351	C2335	0.164990	0.515050	0.330800
C23361	C2336	0.166440	0.486240	0.330300
C23371	C2337	0.149780	0.471650	0.315770
H8771	H877	0.137100	0.480000	0.305900
C23381	C2338	0.151160	0.445360	0.315280
C23391	C2339	0.134850	0.430210	0.297800
C23401	C2340	0.169200	0.432850	0.329610
H8781	H878	0.169800	0.414800	0.330000
C23411	C2341	0.186620	0.447540	0.343610
C23421	C2342	0.207860	0.434140	0.357410
C23431	C2343	0.185320	0.473740	0.343500
H8791	H879	0.197600	0.483300	0.352700
C23441	C2344	0.068490	0.753700	0.456960
C23451	C2345	0.053760	0.752800	0.481340
C23461	C2346	0.066860	0.752500	0.504210
H8801	H880	0.084900	0.753400	0.504400
C23471	C2347	0.053680	0.751000	0.526430
C23481	C2348	0.068380	0.750800	0.550690
C23491	C2349	0.027500	0.750000	0.526620
H8811	H881	0.018700	0.748600	0.542300
C23501	C2350	0.014020	0.751000	0.503830
C23511	C2351	0.027600	0.751600	0.481180
H8821	H882	0.018800	0.751100	0.465400
O12601	O1260	0.132930	0.654670	0.220820
C23521	C2352	0.938240	0.697800	0.380050
Zn3371	Zn337	0.378900	0.624010	0.719760
Zn3381	Zn338	0.374370	0.619470	0.777200
Zn3391	Zn339	0.427900	0.620560	0.748990
Zn3401	Zn340	0.394370	0.570420	0.749800
Zn3411	Zn341	0.373130	0.731450	0.618620
Zn3421	Zn342	0.383760	0.790650	0.612240
Zn3431	Zn343	0.428550	0.753560	0.597810
Zn3441	Zn344	0.379740	0.756320	0.564240
O12611	O1261	0.383020	0.661690	0.740890
O12621	O1262	0.370230	0.718150	0.842900
O12631	O1263	0.384670	0.757010	0.834660
O12641	O1264	0.376040	0.744760	0.655730
O12651	O1265	0.393100	0.783300	0.649110
O12661	O1266	0.386460	0.837810	0.752710
O12671	O1267	0.379600	0.846840	0.711800
O12681	O1268	0.401020	0.640310	0.694400
O12691	O1269	0.437100	0.636550	0.716540
O12701	O1270	0.402070	0.706350	0.626920
O12711	O1271	0.439390	0.723200	0.615580
O12721	O1272	0.552460	0.718930	0.614750
O12731	O1273	0.581220	0.627120	0.687000
O12741	O1274	0.551700	0.639300	0.715230
O12751	O1275	0.374790	0.591490	0.696940
O12761	O1276	0.377930	0.556380	0.720690
O12771	O1277	0.276570	0.559220	0.639000
O12781	O1278	0.303550	0.590810	0.630260
O12791	O1279	0.364380	0.406080	0.698740
O12801	O1280	0.377450	0.441880	0.718820
O12811	O1281	0.273340	0.447890	0.637460
O12821	O1282	0.294390	0.411590	0.637330
O12831	O1283	0.408360	0.756700	0.540680
O12841	O1284	0.443360	0.752190	0.563460
O12851	O1285	0.407820	0.753220	0.451190
O12861	O1286	0.443780	0.748450	0.428650
O12871	O1287	0.392430	0.757000	0.598210
O12881	O1288	0.394010	0.606940	0.749120
C23531	C2353	0.375800	0.668280	0.761700
C23541	C2354	0.376700	0.696220	0.768300
C23551	C2355	0.375800	0.703290	0.793800
H8831	H883	0.374200	0.690700	0.806700
C23561	C2356	0.377300	0.728650	0.800260
C23571	C2357	0.377800	0.735100	0.828180
C23581	C2358	0.378900	0.746990	0.781400
H8841	H884	0.379600	0.764400	0.786000
C23591	C2359	0.378800	0.714760	0.749580
H8851	H885	0.379900	0.709800	0.732300
C23601	C2360	0.379400	0.740340	0.755730
C23611	C2361	0.380500	0.760200	0.735460
C23621	C2362	0.381900	0.785670	0.741420
H8861	H886	0.382100	0.790600	0.758800
C23631	C2363	0.380700	0.754100	0.709550
H8871	H887	0.379100	0.736800	0.704500
C23641	C2364	0.383000	0.772700	0.691070
C23651	C2365	0.383400	0.766300	0.663200
C23661	C2366	0.384500	0.797400	0.697800
H8881	H888	0.386700	0.810100	0.685100
C23671	C2367	0.383000	0.804310	0.722950
C23681	C2368	0.383600	0.831980	0.729900
C23691	C2369	0.424530	0.644110	0.697820
C23701	C2370	0.438660	0.658460	0.677620
C23711	C2371	0.425480	0.674160	0.661090
H8891	H889	0.407400	0.674800	0.661400
C23721	C2372	0.439270	0.689010	0.644110
C23731	C2373	0.425710	0.707710	0.627490
C23741	C2374	0.465460	0.687090	0.642890
H8901	H890	0.474600	0.696900	0.630800
C23751	C2375	0.465050	0.656970	0.676660
H8911	H891	0.473800	0.646200	0.688200
C23761	C2376	0.478500	0.670960	0.659200
C23771	C2377	0.507310	0.669180	0.657590
C23781	C2378	0.521000	0.683050	0.639790
H8921	H892	0.512200	0.694100	0.628500
C23791	C2379	0.547440	0.681130	0.638190
O12891	O1289	0.582710	0.689660	0.611700
C23801	C2380	0.560390	0.665300	0.654570
H8931	H893	0.578300	0.663200	0.653000
C23811	C2381	0.547110	0.652600	0.673200
C23821	C2382	0.561200	0.638000	0.692800
C23831	C2383	0.521240	0.654700	0.674700
H8941	H894	0.512500	0.646000	0.687900
C23841	C2384	0.370500	0.569000	0.701200
C23851	C2385	0.353300	0.554900	0.683100
C23861	C2386	0.336900	0.568780	0.667800
H8951	H895	0.338100	0.586800	0.666800
C23871	C2387	0.318500	0.555670	0.654000
C23881	C2388	0.298500	0.569850	0.639500
C23891	C2389	0.317900	0.529050	0.654900
H8961	H896	0.305400	0.520300	0.645300
C23901	C2390	0.352180	0.528180	0.683800
H8971	H897	0.363500	0.519100	0.694500
C23911	C2391	0.335010	0.515050	0.669200
C23921	C2392	0.333560	0.486240	0.669700
C23931	C2393	0.350220	0.471650	0.684230
H8981	H898	0.362900	0.480000	0.694100
C23941	C2394	0.348840	0.445360	0.684720
C23951	C2395	0.365150	0.430210	0.702200
C23961	C2396	0.330800	0.432850	0.670390
H8991	H899	0.330200	0.414800	0.670000
C23971	C2397	0.313380	0.447540	0.656390
C23981	C2398	0.292140	0.434140	0.642590
C23991	C2399	0.314680	0.473740	0.656500
H9001	H900	0.302400	0.483300	0.647300
C24001	C2400	0.431510	0.753700	0.543040
C24011	C2401	0.446240	0.752800	0.518660
C24021	C2402	0.433140	0.752500	0.495790
H9011	H901	0.415100	0.753400	0.495600
C24031	C2403	0.446320	0.751000	0.473570
C24041	C2404	0.431620	0.750800	0.449310
C24051	C2405	0.472500	0.750000	0.473380
H9021	H902	0.481300	0.748600	0.457700
C24061	C2406	0.485980	0.751000	0.496170
C24071	C2407	0.472400	0.751600	0.518820
H9031	H903	0.481200	0.751100	0.534600
O12901	O1290	0.367070	0.654670	0.779180
C24081	C2408	0.561760	0.697800	0.619950
Zn3451	Zn345	0.878900	0.124010	0.219760
Zn3461	Zn346	0.874370	0.119470	0.277200
Zn3471	Zn347	0.927900	0.120560	0.248990
Zn3481	Zn348	0.894370	0.070420	0.249800
Zn3491	Zn349	0.873130	0.231450	0.118620
Zn3501	Zn350	0.883760	0.290650	0.112240
Zn3511	Zn351	0.928550	0.253560	0.097810
Zn3521	Zn352	0.879740	0.256320	0.064240
O12911	O1291	0.883020	0.161690	0.240890
O12921	O1292	0.870230	0.218150	0.342900
O12931	O1293	0.884670	0.257010	0.334660
O12941	O1294	0.876040	0.244760	0.155730
O12951	O1295	0.893100	0.283300	0.149110
O12961	O1296	0.886460	0.337810	0.252710
O12971	O1297	0.879600	0.346840	0.211800
O12981	O1298	0.901020	0.140310	0.194400
O12991	O1299	0.937100	0.136550	0.216540
O13001	O1300	0.902070	0.206350	0.126920
O13011	O1301	0.939390	0.223200	0.115580
O13021	O1302	0.052460	0.218930	0.114750
O13031	O1303	0.081220	0.127120	0.187000
O13041	O1304	0.051700	0.139300	0.215230
O13051	O1305	0.874790	0.091490	0.196940
O13061	O1306	0.877930	0.056380	0.220690
O13071	O1307	0.776570	0.059220	0.139000
O13081	O1308	0.803550	0.090810	0.130260
O13091	O1309	0.864380	0.906080	0.198740
O13101	O1310	0.877450	0.941880	0.218820
O13111	O1311	0.773340	0.947890	0.137460
O13121	O1312	0.794390	0.911590	0.137330
O13131	O1313	0.908360	0.256700	0.040680
O13141	O1314	0.943360	0.252190	0.063460
O13151	O1315	0.907820	0.253220	0.951190
O13161	O1316	0.943780	0.248450	0.928650
O13171	O1317	0.892430	0.257000	0.098210
O13181	O1318	0.894010	0.106940	0.249120
C24091	C2409	0.875800	0.168280	0.261700
C24101	C2410	0.876700	0.196220	0.268300
C24111	C2411	0.875800	0.203290	0.293800
H9041	H904	0.874200	0.190700	0.306700
C24121	C2412	0.877300	0.228650	0.300260
C24131	C2413	0.877800	0.235100	0.328180
C24141	C2414	0.878900	0.246990	0.281400
H9051	H905	0.879600	0.264400	0.286000
C24151	C2415	0.878800	0.214760	0.249580
H9061	H906	0.879900	0.209800	0.232300
C24161	C2416	0.879400	0.240340	0.255730
C24171	C2417	0.880500	0.260200	0.235460
C24181	C2418	0.881900	0.285670	0.241420
H9071	H907	0.882100	0.290600	0.258800
C24191	C2419	0.880700	0.254100	0.209550
H9081	H908	0.879100	0.236800	0.204500
C24201	C2420	0.883000	0.272700	0.191070
C24211	C2421	0.883400	0.266300	0.163200
C24221	C2422	0.884500	0.297400	0.197800
H9091	H909	0.886700	0.310100	0.185100
C24231	C2423	0.883000	0.304310	0.222950
C24241	C2424	0.883600	0.331980	0.229900
C24251	C2425	0.924530	0.144110	0.197820
C24261	C2426	0.938660	0.158460	0.177620
C24271	C2427	0.925480	0.174160	0.161090
H9101	H910	0.907400	0.174800	0.161400
C24281	C2428	0.939270	0.189010	0.144110
C24291	C2429	0.925710	0.207710	0.127490
C24301	C2430	0.965460	0.187090	0.142890
H9111	H911	0.974600	0.196900	0.130800
C24311	C2431	0.965050	0.156970	0.176660
H9121	H912	0.973800	0.146200	0.188200
C24321	C2432	0.978500	0.170960	0.159200
C24331	C2433	0.007310	0.169180	0.157590
C24341	C2434	0.021000	0.183050	0.139790
H9131	H913	0.012200	0.194100	0.128500
C24351	C2435	0.047440	0.181130	0.138190
O13191	O1319	0.082710	0.189660	0.111700
C24361	C2436	0.060390	0.165300	0.154570
H9141	H914	0.078300	0.163200	0.153000
C24371	C2437	0.047110	0.152600	0.173200
C24381	C2438	0.061200	0.138000	0.192800
C24391	C2439	0.021240	0.154700	0.174700
H9151	H915	0.012500	0.146000	0.187900
C24401	C2440	0.870500	0.069000	0.201200
C24411	C2441	0.853300	0.054900	0.183100
C24421	C2442	0.836900	0.068780	0.167800
H9161	H916	0.838100	0.086800	0.166800
C24431	C2443	0.818500	0.055670	0.154000
C24441	C2444	0.798500	0.069850	0.139500
C24451	C2445	0.817900	0.029050	0.154900
H9171	H917	0.805400	0.020300	0.145300
C24461	C2446	0.852180	0.028180	0.183800
H9181	H918	0.863500	0.019100	0.194500
C24471	C2447	0.835010	0.015050	0.169200
C24481	C2448	0.833560	0.986240	0.169700
C24491	C2449	0.850220	0.971650	0.184230
H9191	H919	0.862900	0.980000	0.194100
C24501	C2450	0.848840	0.945360	0.184720
C24511	C2451	0.865150	0.930210	0.202200
C24521	C2452	0.830800	0.932850	0.170390
H9201	H920	0.830200	0.914800	0.170000
C24531	C2453	0.813380	0.947540	0.156390
C24541	C2454	0.792140	0.934140	0.142590
C24551	C2455	0.814680	0.973740	0.156500
H9211	H921	0.802400	0.983300	0.147300
C24561	C2456	0.931510	0.253700	0.043040
C24571	C2457	0.946240	0.252800	0.018660
C24581	C2458	0.933140	0.252500	0.995790
H9221	H922	0.915100	0.253400	0.995600
C24591	C2459	0.946320	0.251000	0.973570
C24601	C2460	0.931620	0.250800	0.949310
C24611	C2461	0.972500	0.250000	0.973380
H9231	H923	0.981300	0.248600	0.957700
C24621	C2462	0.985980	0.251000	0.996170
C24631	C2463	0.972400	0.251600	0.018820
H9241	H924	0.981200	0.251100	0.034600
O13201	O1320	0.867070	0.154670	0.279180
C24641	C2464	0.061760	0.197800	0.119950
Zn3531	Zn353	0.121100	0.375990	0.219760
Zn3541	Zn354	0.125630	0.380530	0.277200
Zn3551	Zn355	0.072100	0.379440	0.248990
Zn3561	Zn356	0.105630	0.429580	0.249800
Zn3571	Zn357	0.126870	0.268550	0.118620
Zn3581	Zn358	0.116240	0.209350	0.112240
Zn3591	Zn359	0.071450	0.246440	0.097810
Zn3601	Zn360	0.120260	0.243680	0.064240
O13211	O1321	0.116980	0.338310	0.240890
O13221	O1322	0.129770	0.281850	0.342900
O13231	O1323	0.115330	0.242990	0.334660
O13241	O1324	0.123960	0.255240	0.155730
O13251	O1325	0.106900	0.216700	0.149110
O13261	O1326	0.113540	0.162190	0.252710
O13271	O1327	0.120400	0.153160	0.211800
O13281	O1328	0.098980	0.359690	0.194400
O13291	O1329	0.062900	0.363450	0.216540
O13301	O1330	0.097930	0.293650	0.126920
O13311	O1331	0.060610	0.276800	0.115580
O13321	O1332	0.947540	0.281070	0.114750
O13331	O1333	0.918780	0.372880	0.187000
O13341	O1334	0.948300	0.360700	0.215230
O13351	O1335	0.125210	0.408510	0.196940
O13361	O1336	0.122070	0.443620	0.220690
O13371	O1337	0.223430	0.440780	0.139000
O13381	O1338	0.196450	0.409190	0.130260
O13391	O1339	0.135620	0.593920	0.198740
O13401	O1340	0.122550	0.558120	0.218820
O13411	O1341	0.226660	0.552110	0.137460
O13421	O1342	0.205610	0.588410	0.137330
O13431	O1343	0.091640	0.243300	0.040680
O13441	O1344	0.056640	0.247810	0.063460
O13451	O1345	0.092180	0.246780	0.951190
O13461	O1346	0.056220	0.251550	0.928650
O13471	O1347	0.107570	0.243000	0.098210
O13481	O1348	0.105990	0.393060	0.249120
C24651	C2465	0.124200	0.331720	0.261700
C24661	C2466	0.123300	0.303780	0.268300
C24671	C2467	0.124200	0.296710	0.293800
H9251	H925	0.125800	0.309300	0.306700
C24681	C2468	0.122700	0.271350	0.300260
C24691	C2469	0.122200	0.264900	0.328180
C24701	C2470	0.121100	0.253010	0.281400
H9261	H926	0.120400	0.235600	0.286000
C24711	C2471	0.121200	0.285240	0.249580
H9271	H927	0.120100	0.290200	0.232300
C24721	C2472	0.120600	0.259660	0.255730
C24731	C2473	0.119500	0.239800	0.235460
C24741	C2474	0.118100	0.214330	0.241420
H9281	H928	0.117900	0.209400	0.258800
C24751	C2475	0.119300	0.245900	0.209550
H9291	H929	0.120900	0.263200	0.204500
C24761	C2476	0.117000	0.227300	0.191070
C24771	C2477	0.116600	0.233700	0.163200
C24781	C2478	0.115500	0.202600	0.197800
H9301	H930	0.113300	0.189900	0.185100
C24791	C2479	0.117000	0.195690	0.222950
C24801	C2480	0.116400	0.168020	0.229900
C24811	C2481	0.075470	0.355890	0.197820
C24821	C2482	0.061340	0.341540	0.177620
C24831	C2483	0.074520	0.325840	0.161090
H9311	H931	0.092600	0.325200	0.161400
C24841	C2484	0.060730	0.310990	0.144110
C24851	C2485	0.074290	0.292290	0.127490
C24861	C2486	0.034540	0.312910	0.142890
H9321	H932	0.025400	0.303100	0.130800
C24871	C2487	0.034950	0.343030	0.176660
H9331	H933	0.026200	0.353800	0.188200
C24881	C2488	0.021500	0.329040	0.159200
C24891	C2489	0.992690	0.330820	0.157590
C24901	C2490	0.979000	0.316950	0.139790
H9341	H934	0.987800	0.305900	0.128500
C24911	C2491	0.952560	0.318870	0.138190
O13491	O1349	0.917290	0.310340	0.111700
C24921	C2492	0.939610	0.334700	0.154570
H9351	H935	0.921700	0.336800	0.153000
C24931	C2493	0.952890	0.347400	0.173200
C24941	C2494	0.938800	0.362000	0.192800
C24951	C2495	0.978760	0.345300	0.174700
H9361	H936	0.987500	0.354000	0.187900
C24961	C2496	0.129500	0.431000	0.201200
C24971	C2497	0.146700	0.445100	0.183100
C24981	C2498	0.163100	0.431220	0.167800
H9371	H937	0.161900	0.413200	0.166800
C24991	C2499	0.181500	0.444330	0.154000
C25001	C2500	0.201500	0.430150	0.139500
C25011	C2501	0.182100	0.470950	0.154900
H9381	H938	0.194600	0.479700	0.145300
C25021	C2502	0.147820	0.471820	0.183800
H9391	H939	0.136500	0.480900	0.194500
C25031	C2503	0.164990	0.484950	0.169200
C25041	C2504	0.166440	0.513760	0.169700
C25051	C2505	0.149780	0.528350	0.184230
H9401	H940	0.137100	0.520000	0.194100
C25061	C2506	0.151160	0.554640	0.184720
C25071	C2507	0.134850	0.569790	0.202200
C25081	C2508	0.169200	0.567150	0.170390
H9411	H941	0.169800	0.585200	0.170000
C25091	C2509	0.186620	0.552460	0.156390
C25101	C2510	0.207860	0.565860	0.142590
C25111	C2511	0.185320	0.526260	0.156500
H9421	H942	0.197600	0.516700	0.147300
C25121	C2512	0.068490	0.246300	0.043040
C25131	C2513	0.053760	0.247200	0.018660
C25141	C2514	0.066860	0.247500	0.995790
H9431	H943	0.084900	0.246600	0.995600
C25151	C2515	0.053680	0.249000	0.973570
C25161	C2516	0.068380	0.249200	0.949310
C25171	C2517	0.027500	0.250000	0.973380
H9441	H944	0.018700	0.251400	0.957700
C25181	C2518	0.014020	0.249000	0.996170
C25191	C2519	0.027600	0.248400	0.018820
H9451	H945	0.018800	0.248900	0.034600
O13501	O1350	0.132930	0.345330	0.279180
C25201	C2520	0.938240	0.302200	0.119950
Zn3611	Zn361	0.621100	0.875990	0.719760
Zn3621	Zn362	0.625630	0.880530	0.777200
Zn3631	Zn363	0.572100	0.879440	0.748990
Zn3641	Zn364	0.605630	0.929580	0.749800
Zn3651	Zn365	0.626870	0.768550	0.618620
Zn3661	Zn366	0.616240	0.709350	0.612240
Zn3671	Zn367	0.571450	0.746440	0.597810
Zn3681	Zn368	0.620260	0.743680	0.564240
O13511	O1351	0.616980	0.838310	0.740890
O13521	O1352	0.629770	0.781850	0.842900
O13531	O1353	0.615330	0.742990	0.834660
O13541	O1354	0.623960	0.755240	0.655730
O13551	O1355	0.606900	0.716700	0.649110
O13561	O1356	0.613540	0.662190	0.752710
O13571	O1357	0.620400	0.653160	0.711800
O13581	O1358	0.598980	0.859690	0.694400
O13591	O1359	0.562900	0.863450	0.716540
O13601	O1360	0.597930	0.793650	0.626920
O13611	O1361	0.560610	0.776800	0.615580
O13621	O1362	0.447540	0.781070	0.614750
O13631	O1363	0.418780	0.872880	0.687000
O13641	O1364	0.448300	0.860700	0.715230
O13651	O1365	0.625210	0.908510	0.696940
O13661	O1366	0.622070	0.943620	0.720690
O13671	O1367	0.723430	0.940780	0.639000
O13681	O1368	0.696450	0.909190	0.630260
O13691	O1369	0.635620	0.093920	0.698740
O13701	O1370	0.622550	0.058120	0.718820
O13711	O1371	0.726660	0.052110	0.637460
O13721	O1372	0.705610	0.088410	0.637330
O13731	O1373	0.591640	0.743300	0.540680
O13741	O1374	0.556640	0.747810	0.563460
O13751	O1375	0.592180	0.746780	0.451190
O13761	O1376	0.556220	0.751550	0.428650
O13771	O1377	0.607570	0.743000	0.598210
O13781	O1378	0.605990	0.893060	0.749120
C25211	C2521	0.624200	0.831720	0.761700
C25221	C2522	0.623300	0.803780	0.768300
C25231	C2523	0.624200	0.796710	0.793800
H9461	H946	0.625800	0.809300	0.806700
C25241	C2524	0.622700	0.771350	0.800260
C25251	C2525	0.622200	0.764900	0.828180
C25261	C2526	0.621100	0.753010	0.781400
H9471	H947	0.620400	0.735600	0.786000
C25271	C2527	0.621200	0.785240	0.749580
H9481	H948	0.620100	0.790200	0.732300
C25281	C2528	0.620600	0.759660	0.755730
C25291	C2529	0.619500	0.739800	0.735460
C25301	C2530	0.618100	0.714330	0.741420
H9491	H949	0.617900	0.709400	0.758800
C25311	C2531	0.619300	0.745900	0.709550
H9501	H950	0.620900	0.763200	0.704500
C25321	C2532	0.617000	0.727300	0.691070
C25331	C2533	0.616600	0.733700	0.663200
C25341	C2534	0.615500	0.702600	0.697800
H9511	H951	0.613300	0.689900	0.685100
C25351	C2535	0.617000	0.695690	0.722950
C25361	C2536	0.616400	0.668020	0.729900
C25371	C2537	0.575470	0.855890	0.697820
C25381	C2538	0.561340	0.841540	0.677620
C25391	C2539	0.574520	0.825840	0.661090
H9521	H952	0.592600	0.825200	0.661400
C25401	C2540	0.560730	0.810990	0.644110
C25411	C2541	0.574290	0.792290	0.627490
C25421	C2542	0.534540	0.812910	0.642890
H9531	H953	0.525400	0.803100	0.630800
C25431	C2543	0.534950	0.843030	0.676660
H9541	H954	0.526200	0.853800	0.688200
C25441	C2544	0.521500	0.829040	0.659200
C25451	C2545	0.492690	0.830820	0.657590
C25461	C2546	0.479000	0.816950	0.639790
H9551	H955	0.487800	0.805900	0.628500
C25471	C2547	0.452560	0.818870	0.638190
O13791	O1379	0.417290	0.810340	0.611700
C25481	C2548	0.439610	0.834700	0.654570
H9561	H956	0.421700	0.836800	0.653000
C25491	C2549	0.452890	0.847400	0.673200
C25501	C2550	0.438800	0.862000	0.692800
C25511	C2551	0.478760	0.845300	0.674700
H9571	H957	0.487500	0.854000	0.687900
C25521	C2552	0.629500	0.931000	0.701200
C25531	C2553	0.646700	0.945100	0.683100
C25541	C2554	0.663100	0.931220	0.667800
H9581	H958	0.661900	0.913200	0.666800
C25551	C2555	0.681500	0.944330	0.654000
C25561	C2556	0.701500	0.930150	0.639500
C25571	C2557	0.682100	0.970950	0.654900
H9591	H959	0.694600	0.979700	0.645300
C25581	C2558	0.647820	0.971820	0.683800
H9601	H960	0.636500	0.980900	0.694500
C25591	C2559	0.664990	0.984950	0.669200
C25601	C2560	0.666440	0.013760	0.669700
C25611	C2561	0.649780	0.028350	0.684230
H9611	H961	0.637100	0.020000	0.694100
C25621	C2562	0.651160	0.054640	0.684720
C25631	C2563	0.634850	0.069790	0.702200
C25641	C2564	0.669200	0.067150	0.670390
H9621	H962	0.669800	0.085200	0.670000
C25651	C2565	0.686620	0.052460	0.656390
C25661	C2566	0.707860	0.065860	0.642590
C25671	C2567	0.685320	0.026260	0.656500
H9631	H963	0.697600	0.016700	0.647300
C25681	C2568	0.568490	0.746300	0.543040
C25691	C2569	0.553760	0.747200	0.518660
C25701	C2570	0.566860	0.747500	0.495790
H9641	H964	0.584900	0.746600	0.495600
C25711	C2571	0.553680	0.749000	0.473570
C25721	C2572	0.568380	0.749200	0.449310
C25731	C2573	0.527500	0.750000	0.473380
H9651	H965	0.518700	0.751400	0.457700
C25741	C2574	0.514020	0.749000	0.496170
C25751	C2575	0.527600	0.748400	0.518820
H9661	H966	0.518800	0.748900	0.534600
O13801	O1380	0.632930	0.845330	0.779180
C25761	C2576	0.438240	0.802200	0.619950
Zn3691	Zn369	0.878900	0.875990	0.280240
Zn3701	Zn370	0.874370	0.880530	0.222800
Zn3711	Zn371	0.927900	0.879440	0.251010
Zn3721	Zn372	0.894370	0.929580	0.250200
Zn3731	Zn373	0.873130	0.768550	0.381380
Zn3741	Zn374	0.883760	0.709350	0.387760
Zn3751	Zn375	0.928550	0.746440	0.402190
Zn3761	Zn376	0.879740	0.743680	0.435760
O13811	O1381	0.883020	0.838310	0.259110
O13821	O1382	0.870230	0.781850	0.157100
O13831	O1383	0.884670	0.742990	0.165340
O13841	O1384	0.876040	0.755240	0.344270
O13851	O1385	0.893100	0.716700	0.350890
O13861	O1386	0.886460	0.662190	0.247290
O13871	O1387	0.879600	0.653160	0.288200
O13881	O1388	0.901020	0.859690	0.305600
O13891	O1389	0.937100	0.863450	0.283460
O13901	O1390	0.902070	0.793650	0.373080
O13911	O1391	0.939390	0.776800	0.384420
O13921	O1392	0.052460	0.781070	0.385250
O13931	O1393	0.081220	0.872880	0.313000
O13941	O1394	0.051700	0.860700	0.284770
O13951	O1395	0.874790	0.908510	0.303060
O13961	O1396	0.877930	0.943620	0.279310
O13971	O1397	0.776570	0.940780	0.361000
O13981	O1398	0.803550	0.909190	0.369740
O13991	O1399	0.864380	0.093920	0.301260
O14001	O1400	0.877450	0.058120	0.281180
O14011	O1401	0.773340	0.052110	0.362540
O14021	O1402	0.794390	0.088410	0.362670
O14031	O1403	0.908360	0.743300	0.459320
O14041	O1404	0.943360	0.747810	0.436540
O14051	O1405	0.907820	0.746780	0.548810
O14061	O1406	0.943780	0.751550	0.571350
O14071	O1407	0.892430	0.743000	0.401790
O14081	O1408	0.894010	0.893060	0.250880
C25771	C2577	0.875800	0.831720	0.238300
C25781	C2578	0.876700	0.803780	0.231700
C25791	C2579	0.875800	0.796710	0.206200
H9671	H967	0.874200	0.809300	0.193300
C25801	C2580	0.877300	0.771350	0.199740
C25811	C2581	0.877800	0.764900	0.171820
C25821	C2582	0.878900	0.753010	0.218600
H9681	H968	0.879600	0.735600	0.214000
C25831	C2583	0.878800	0.785240	0.250420
H9691	H969	0.879900	0.790200	0.267700
C25841	C2584	0.879400	0.759660	0.244270
C25851	C2585	0.880500	0.739800	0.264540
C25861	C2586	0.881900	0.714330	0.258580
H9701	H970	0.882100	0.709400	0.241200
C25871	C2587	0.880700	0.745900	0.290450
H9711	H971	0.879100	0.763200	0.295500
C25881	C2588	0.883000	0.727300	0.308930
C25891	C2589	0.883400	0.733700	0.336800
C25901	C2590	0.884500	0.702600	0.302200
H9721	H972	0.886700	0.689900	0.314900
C25911	C2591	0.883000	0.695690	0.277050
C25921	C2592	0.883600	0.668020	0.270100
C25931	C2593	0.924530	0.855890	0.302180
C25941	C2594	0.938660	0.841540	0.322380
C25951	C2595	0.925480	0.825840	0.338910
H9731	H973	0.907400	0.825200	0.338600
C25961	C2596	0.939270	0.810990	0.355890
C25971	C2597	0.925710	0.792290	0.372510
C25981	C2598	0.965460	0.812910	0.357110
H9741	H974	0.974600	0.803100	0.369200
C25991	C2599	0.965050	0.843030	0.323340
H9751	H975	0.973800	0.853800	0.311800
C26001	C2600	0.978500	0.829040	0.340800
C26011	C2601	0.007310	0.830820	0.342410
C26021	C2602	0.021000	0.816950	0.360210
H9761	H976	0.012200	0.805900	0.371500
C26031	C2603	0.047440	0.818870	0.361810
O14091	O1409	0.082710	0.810340	0.388300
C26041	C2604	0.060390	0.834700	0.345430
H9771	H977	0.078300	0.836800	0.347000
C26051	C2605	0.047110	0.847400	0.326800
C26061	C2606	0.061200	0.862000	0.307200
C26071	C2607	0.021240	0.845300	0.325300
H9781	H978	0.012500	0.854000	0.312100
C26081	C2608	0.870500	0.931000	0.298800
C26091	C2609	0.853300	0.945100	0.316900
C26101	C2610	0.836900	0.931220	0.332200
H9791	H979	0.838100	0.913200	0.333200
C26111	C2611	0.818500	0.944330	0.346000
C26121	C2612	0.798500	0.930150	0.360500
C26131	C2613	0.817900	0.970950	0.345100
H9801	H980	0.805400	0.979700	0.354700
C26141	C2614	0.852180	0.971820	0.316200
H9811	H981	0.863500	0.980900	0.305500
C26151	C2615	0.835010	0.984950	0.330800
C26161	C2616	0.833560	0.013760	0.330300
C26171	C2617	0.850220	0.028350	0.315770
H9821	H982	0.862900	0.020000	0.305900
C26181	C2618	0.848840	0.054640	0.315280
C26191	C2619	0.865150	0.069790	0.297800
C26201	C2620	0.830800	0.067150	0.329610
H9831	H983	0.830200	0.085200	0.330000
C26211	C2621	0.813380	0.052460	0.343610
C26221	C2622	0.792140	0.065860	0.357410
C26231	C2623	0.814680	0.026260	0.343500
H9841	H984	0.802400	0.016700	0.352700
C26241	C2624	0.931510	0.746300	0.456960
C26251	C2625	0.946240	0.747200	0.481340
C26261	C2626	0.933140	0.747500	0.504210
H9851	H985	0.915100	0.746600	0.504400
C26271	C2627	0.946320	0.749000	0.526430
C26281	C2628	0.931620	0.749200	0.550690
C26291	C2629	0.972500	0.750000	0.526620
H9861	H986	0.981300	0.751400	0.542300
C26301	C2630	0.985980	0.749000	0.503830
C26311	C2631	0.972400	0.748400	0.481180
H9871	H987	0.981200	0.748900	0.465400
O14101	O1410	0.867070	0.845330	0.220820
C26321	C2632	0.061760	0.802200	0.380050
Zn3771	Zn377	0.378900	0.375990	0.780240
Zn3781	Zn378	0.374370	0.380530	0.722800
Zn3791	Zn379	0.427900	0.379440	0.751010
Zn3801	Zn380	0.394370	0.429580	0.750200
Zn3811	Zn381	0.373130	0.268550	0.881380
Zn3821	Zn382	0.383760	0.209350	0.887760
Zn3831	Zn383	0.428550	0.246440	0.902190
Zn3841	Zn384	0.379740	0.243680	0.935760
O14111	O1411	0.383020	0.338310	0.759110
O14121	O1412	0.370230	0.281850	0.657100
O14131	O1413	0.384670	0.242990	0.665340
O14141	O1414	0.376040	0.255240	0.844270
O14151	O1415	0.393100	0.216700	0.850890
O14161	O1416	0.386460	0.162190	0.747290
O14171	O1417	0.379600	0.153160	0.788200
O14181	O1418	0.401020	0.359690	0.805600
O14191	O1419	0.437100	0.363450	0.783460
O14201	O1420	0.402070	0.293650	0.873080
O14211	O1421	0.439390	0.276800	0.884420
O14221	O1422	0.552460	0.281070	0.885250
O14231	O1423	0.581220	0.372880	0.813000
O14241	O1424	0.551700	0.360700	0.784770
O14251	O1425	0.374790	0.408510	0.803060
O14261	O1426	0.377930	0.443620	0.779310
O14271	O1427	0.276570	0.440780	0.861000
O14281	O1428	0.303550	0.409190	0.869740
O14291	O1429	0.364380	0.593920	0.801260
O14301	O1430	0.377450	0.558120	0.781180
O14311	O1431	0.273340	0.552110	0.862540
O14321	O1432	0.294390	0.588410	0.862670
O14331	O1433	0.408360	0.243300	0.959320
O14341	O1434	0.443360	0.247810	0.936540
O14351	O1435	0.407820	0.246780	0.048810
O14361	O1436	0.443780	0.251550	0.071350
O14371	O1437	0.392430	0.243000	0.901790
O14381	O1438	0.394010	0.393060	0.750880
C26331	C2633	0.375800	0.331720	0.738300
C26341	C2634	0.376700	0.303780	0.731700
C26351	C2635	0.375800	0.296710	0.706200
H9881	H988	0.374200	0.309300	0.693300
C26361	C2636	0.377300	0.271350	0.699740
C26371	C2637	0.377800	0.264900	0.671820
C26381	C2638	0.378900	0.253010	0.718600
H9891	H989	0.379600	0.235600	0.714000
C26391	C2639	0.378800	0.285240	0.750420
H9901	H990	0.379900	0.290200	0.767700
C26401	C2640	0.379400	0.259660	0.744270
C26411	C2641	0.380500	0.239800	0.764540
C26421	C2642	0.381900	0.214330	0.758580
H9911	H991	0.382100	0.209400	0.741200
C26431	C2643	0.380700	0.245900	0.790450
H9921	H992	0.379100	0.263200	0.795500
C26441	C2644	0.383000	0.227300	0.808930
C26451	C2645	0.383400	0.233700	0.836800
C26461	C2646	0.384500	0.202600	0.802200
H9931	H993	0.386700	0.189900	0.814900
C26471	C2647	0.383000	0.195690	0.777050
C26481	C2648	0.383600	0.168020	0.770100
C26491	C2649	0.424530	0.355890	0.802180
C26501	C2650	0.438660	0.341540	0.822380
C26511	C2651	0.425480	0.325840	0.838910
H9941	H994	0.407400	0.325200	0.838600
C26521	C2652	0.439270	0.310990	0.855890
C26531	C2653	0.425710	0.292290	0.872510
C26541	C2654	0.465460	0.312910	0.857110
H9951	H995	0.474600	0.303100	0.869200
C26551	C2655	0.465050	0.343030	0.823340
H9961	H996	0.473800	0.353800	0.811800
C26561	C2656	0.478500	0.329040	0.840800
C26571	C2657	0.507310	0.330820	0.842410
C26581	C2658	0.521000	0.316950	0.860210
H9971	H997	0.512200	0.305900	0.871500
C26591	C2659	0.547440	0.318870	0.861810
O14391	O1439	0.582710	0.310340	0.888300
C26601	C2660	0.560390	0.334700	0.845430
H9981	H998	0.578300	0.336800	0.847000
C26611	C2661	0.547110	0.347400	0.826800
C26621	C2662	0.561200	0.362000	0.807200
C26631	C2663	0.521240	0.345300	0.825300
H9991	H999	0.512500	0.354000	0.812100
C26641	C2664	0.370500	0.431000	0.798800
C26651	C2665	0.353300	0.445100	0.816900
C26661	C2666	0.336900	0.431220	0.832200
H10001	H1000	0.338100	0.413200	0.833200
C26671	C2667	0.318500	0.444330	0.846000
C26681	C2668	0.298500	0.430150	0.860500
C26691	C2669	0.317900	0.470950	0.845100
H10011	H1001	0.305400	0.479700	0.854700
C26701	C2670	0.352180	0.471820	0.816200
H10021	H1002	0.363500	0.480900	0.805500
C26711	C2671	0.335010	0.484950	0.830800
C26721	C2672	0.333560	0.513760	0.830300
C26731	C2673	0.350220	0.528350	0.815770
H10031	H1003	0.362900	0.520000	0.805900
C26741	C2674	0.348840	0.554640	0.815280
C26751	C2675	0.365150	0.569790	0.797800
C26761	C2676	0.330800	0.567150	0.829610
H10041	H1004	0.330200	0.585200	0.830000
C26771	C2677	0.313380	0.552460	0.843610
C26781	C2678	0.292140	0.565860	0.857410
C26791	C2679	0.314680	0.526260	0.843500
H10051	H1005	0.302400	0.516700	0.852700
C26801	C2680	0.431510	0.246300	0.956960
C26811	C2681	0.446240	0.247200	0.981340
C26821	C2682	0.433140	0.247500	0.004210
H10061	H1006	0.415100	0.246600	0.004400
C26831	C2683	0.446320	0.249000	0.026430
C26841	C2684	0.431620	0.249200	0.050690
C26851	C2685	0.472500	0.250000	0.026620
H10071	H1007	0.481300	0.251400	0.042300
C26861	C2686	0.485980	0.249000	0.003830
C26871	C2687	0.472400	0.248400	0.981180
H10081	H1008	0.481200	0.248900	0.965400
O14401	O1440	0.367070	0.345330	0.720820
C26881	C2688	0.561760	0.302200	0.880050
