data_QOZDOY_clean_PM
_symmetry_space_group_name_H-M	'P1'
_cell_length_a	12.005000
_cell_length_b	12.471000
_cell_length_c	13.804000
_cell_angle_alpha	90.000000
_cell_angle_beta	90.000000
_cell_angle_gamma	90.000000
_symmetry_Int_Tables_number 1

loop_
_symmetry_equiv_pos_as_xyz
'x,y,z'

loop_
_atom_site_label
_atom_site_type_symbol
_atom_site_fract_x
_atom_site_fract_y
_atom_site_fract_z
Zn11	Zn1	0.803460	0.250000	0.000000
Zn21	Zn2	0.303460	0.750000	0.500000
H11	H1	0.429000	0.613800	0.181500
H21	H2	0.332300	0.715900	0.289200
H31	H3	0.521600	0.623000	0.500700
H41	H4	0.625400	0.519900	0.397600
H51	H5	0.653000	0.433700	0.242200
H61	H6	0.544100	0.519400	0.086300
H71	H7	0.429000	0.886200	0.818500
H81	H8	0.332300	0.784100	0.710800
H91	H9	0.521600	0.877000	0.499300
H101	H10	0.625400	0.980100	0.602400
H111	H11	0.653000	0.066300	0.757800
H121	H12	0.544100	0.980600	0.913700
H131	H13	0.929000	0.113800	0.318500
H141	H14	0.832300	0.215900	0.210800
H151	H15	0.021600	0.123000	0.999300
H161	H16	0.125400	0.019900	0.102400
H171	H17	0.153000	0.933700	0.257800
H181	H18	0.044100	0.019400	0.413700
H191	H19	0.929000	0.386200	0.681500
H201	H20	0.832300	0.284100	0.789200
H211	H21	0.021600	0.377000	0.000700
H221	H22	0.125400	0.480100	0.897600
H231	H23	0.153000	0.566300	0.742200
H241	H24	0.044100	0.480600	0.586300
C11	C1	0.448900	0.612900	0.246600
C21	C2	0.390500	0.673600	0.311900
C31	C3	0.501200	0.619700	0.435800
C41	C4	0.564300	0.557400	0.373800
C51	C5	0.537100	0.550600	0.277000
C61	C6	0.602100	0.479400	0.212700
C71	C7	0.594600	0.474500	0.117500
C81	C8	0.663400	0.400200	0.057400
C91	C9	0.448900	0.887100	0.753400
C101	C10	0.390500	0.826400	0.688100
C111	C11	0.501200	0.880300	0.564200
C121	C12	0.564300	0.942600	0.626200
C131	C13	0.537100	0.949400	0.723000
C141	C14	0.602100	0.020600	0.787300
C151	C15	0.594600	0.025500	0.882500
C161	C16	0.663400	0.099800	0.942600
C171	C17	0.948900	0.112900	0.253400
C181	C18	0.890500	0.173600	0.188100
C191	C19	0.001200	0.119700	0.064200
C201	C20	0.064300	0.057400	0.126200
C211	C21	0.037100	0.050600	0.223000
C221	C22	0.102100	0.979400	0.287300
C231	C23	0.094600	0.974500	0.382500
C241	C24	0.163400	0.900200	0.442600
C251	C25	0.948900	0.387100	0.746600
C261	C26	0.890500	0.326400	0.811900
C271	C27	0.001200	0.380300	0.935800
C281	C28	0.064300	0.442600	0.873800
C291	C29	0.037100	0.449400	0.777000
C301	C30	0.102100	0.520600	0.712700
C311	C31	0.094600	0.525500	0.617500
C321	C32	0.163400	0.599800	0.557400
N11	N1	0.413200	0.674900	0.406800
N21	N2	0.413200	0.825100	0.593200
N31	N3	0.913200	0.174900	0.093200
N41	N4	0.913200	0.325100	0.906800
O11	O1	0.650800	0.398500	0.969500
O21	O2	0.737200	0.344300	0.098700
O31	O3	0.650800	0.101500	0.030500
O41	O4	0.737200	0.155700	0.901300
O51	O5	0.150800	0.898500	0.530500
O61	O6	0.237200	0.844300	0.401300
O71	O7	0.150800	0.601500	0.469500
O81	O8	0.237200	0.655700	0.598700
Zn31	Zn3	0.696540	0.250000	0.500000
Zn41	Zn4	0.196540	0.750000	0.000000
H251	H25	0.071000	0.886200	0.681500
H261	H26	0.167700	0.784100	0.789200
H271	H27	0.978400	0.877000	0.000700
H281	H28	0.874600	0.980100	0.897600
H291	H29	0.847000	0.066300	0.742200
H301	H30	0.955900	0.980600	0.586300
H311	H31	0.071000	0.613800	0.318500
H321	H32	0.167700	0.715900	0.210800
H331	H33	0.978400	0.623000	0.999300
H341	H34	0.874600	0.519900	0.102400
H351	H35	0.847000	0.433700	0.257800
H361	H36	0.955900	0.519400	0.413700
H371	H37	0.571000	0.386200	0.818500
H381	H38	0.667700	0.284100	0.710800
H391	H39	0.478400	0.377000	0.499300
H401	H40	0.374600	0.480100	0.602400
H411	H41	0.347000	0.566300	0.757800
H421	H42	0.455900	0.480600	0.913700
H431	H43	0.571000	0.113800	0.181500
H441	H44	0.667700	0.215900	0.289200
H451	H45	0.478400	0.123000	0.500700
H461	H46	0.374600	0.019900	0.397600
H471	H47	0.347000	0.933700	0.242200
H481	H48	0.455900	0.019400	0.086300
C331	C33	0.051100	0.887100	0.746600
C341	C34	0.109500	0.826400	0.811900
C351	C35	0.998800	0.880300	0.935800
C361	C36	0.935700	0.942600	0.873800
C371	C37	0.962900	0.949400	0.777000
C381	C38	0.897900	0.020600	0.712700
C391	C39	0.905400	0.025500	0.617500
C401	C40	0.836600	0.099800	0.557400
C411	C41	0.051100	0.612900	0.253400
C421	C42	0.109500	0.673600	0.188100
C431	C43	0.998800	0.619700	0.064200
C441	C44	0.935700	0.557400	0.126200
C451	C45	0.962900	0.550600	0.223000
C461	C46	0.897900	0.479400	0.287300
C471	C47	0.905400	0.474500	0.382500
C481	C48	0.836600	0.400200	0.442600
C491	C49	0.551100	0.387100	0.753400
C501	C50	0.609500	0.326400	0.688100
C511	C51	0.498800	0.380300	0.564200
C521	C52	0.435700	0.442600	0.626200
C531	C53	0.462900	0.449400	0.723000
C541	C54	0.397900	0.520600	0.787300
C551	C55	0.405400	0.525500	0.882500
C561	C56	0.336600	0.599800	0.942600
C571	C57	0.551100	0.112900	0.246600
C581	C58	0.609500	0.173600	0.311900
C591	C59	0.498800	0.119700	0.435800
C601	C60	0.435700	0.057400	0.373800
C611	C61	0.462900	0.050600	0.277000
C621	C62	0.397900	0.979400	0.212700
C631	C63	0.405400	0.974500	0.117500
C641	C64	0.336600	0.900200	0.057400
N51	N5	0.086800	0.825100	0.906800
N61	N6	0.086800	0.674900	0.093200
N71	N7	0.586800	0.325100	0.593200
N81	N8	0.586800	0.174900	0.406800
O91	O9	0.849200	0.101500	0.469500
O101	O10	0.762800	0.155700	0.598700
O111	O11	0.849200	0.398500	0.530500
O121	O12	0.762800	0.344300	0.401300
O131	O13	0.349200	0.601500	0.030500
O141	O14	0.262800	0.655700	0.901300
O151	O15	0.349200	0.898500	0.969500
O161	O16	0.262800	0.844300	0.098700
