data_QOZFUG_charged_PM
_symmetry_space_group_name_H-M	'P1'
_cell_length_a	13.662000
_cell_length_b	18.914000
_cell_length_c	23.197000
_cell_angle_alpha	90.000000
_cell_angle_beta	90.000000
_cell_angle_gamma	110.074000
_symmetry_Int_Tables_number 1

loop_
_symmetry_equiv_pos_as_xyz
'x,y,z'

loop_
_atom_site_label
_atom_site_type_symbol
_atom_site_fract_x
_atom_site_fract_y
_atom_site_fract_z
Cu11	Cu1	0.627180	0.006360	0.788130
Cu21	Cu2	0.372820	0.493640	0.288130
Cu31	Cu3	0.372820	0.993640	0.211870
Cu41	Cu4	0.627180	0.506360	0.711870
Cu51	Cu5	0.000000	0.500000	0.500000
Cu61	Cu6	0.000000	0.000000	0.000000
H11	H1	0.177800	0.616500	0.869400
H21	H2	0.027100	0.617400	0.705100
H31	H3	0.321400	0.767800	0.724200
H41	H4	0.327800	0.757200	0.876700
H51	H5	0.370000	0.692100	0.861600
H61	H6	0.443000	0.885600	0.849000
H71	H7	0.631300	0.845600	0.738100
H81	H8	0.504000	0.711300	0.760700
H91	H9	0.123600	0.743400	0.643900
H101	H10	0.245600	0.767300	0.643900
H111	H11	0.024900	0.630300	0.583900
H121	H12	0.247600	0.553100	0.541500
H131	H13	0.321700	0.661200	0.606400
H141	H14	0.028700	0.501900	0.818200
H151	H15	0.975800	0.556700	0.843400
H161	H16	0.435500	0.441900	0.790100
H171	H17	0.483400	0.603500	0.665100
H181	H18	0.286400	0.576200	0.728300
H191	H19	0.278000	0.449300	0.844300
H201	H20	0.228300	0.508200	0.823200
H211	H21	0.235000	0.404300	0.705200
H221	H22	0.921700	0.250200	0.721000
H231	H23	0.078100	0.399000	0.867000
H241	H24	0.872200	0.329300	0.844000
H251	H25	0.914100	0.267800	0.868500
H261	H26	0.632700	0.158100	0.718900
H271	H27	0.771900	0.301200	0.740300
H281	H28	0.801900	0.134900	0.850300
H291	H29	0.815300	0.561000	0.794000
H301	H30	0.956200	0.444600	0.724700
H311	H31	0.776700	0.416700	0.658000
H321	H32	0.806700	0.345700	0.560100
H331	H33	0.861100	0.260600	0.624900
H341	H34	0.138300	0.420600	0.575900
H351	H35	0.051700	0.243600	0.641000
H361	H36	0.152800	0.313100	0.629300
H371	H37	0.822200	0.883500	0.369400
H381	H38	0.972900	0.882600	0.205100
H391	H39	0.678600	0.732200	0.224200
H401	H40	0.672200	0.742800	0.376700
H411	H41	0.630000	0.807900	0.361600
H421	H42	0.557000	0.614400	0.349000
H431	H43	0.368700	0.654400	0.238100
H441	H44	0.496000	0.788700	0.260700
H451	H45	0.876400	0.756600	0.143900
H461	H46	0.754400	0.732700	0.143900
H471	H47	0.975100	0.869700	0.083900
H481	H48	0.752400	0.946900	0.041500
H491	H49	0.678300	0.838800	0.106400
H501	H50	0.971300	0.998100	0.318200
H511	H51	0.024200	0.943300	0.343400
H521	H52	0.564500	0.058100	0.290100
H531	H53	0.516600	0.896500	0.165100
H541	H54	0.713600	0.923800	0.228300
H551	H55	0.722000	0.050700	0.344300
H561	H56	0.771700	0.991800	0.323200
H571	H57	0.765000	0.095700	0.205200
H581	H58	0.078300	0.249800	0.221000
H591	H59	0.921900	0.101000	0.367000
H601	H60	0.127800	0.170700	0.344000
H611	H61	0.085900	0.232200	0.368500
H621	H62	0.367300	0.341900	0.218900
H631	H63	0.228100	0.198800	0.240300
H641	H64	0.198100	0.365100	0.350300
H651	H65	0.184700	0.939000	0.294000
H661	H66	0.043800	0.055400	0.224700
H671	H67	0.223300	0.083300	0.158000
H681	H68	0.193300	0.154300	0.060100
H691	H69	0.138900	0.239400	0.124900
H701	H70	0.861700	0.079400	0.075900
H711	H71	0.948300	0.256400	0.141000
H721	H72	0.847200	0.186900	0.129300
H731	H73	0.822200	0.383500	0.130600
H741	H74	0.972900	0.382600	0.294900
H751	H75	0.678600	0.232200	0.275800
H761	H76	0.672200	0.242800	0.123300
H771	H77	0.630000	0.307900	0.138400
H781	H78	0.557000	0.114400	0.151000
H791	H79	0.368700	0.154400	0.261900
H801	H80	0.496000	0.288700	0.239300
H811	H81	0.876400	0.256600	0.356100
H821	H82	0.754400	0.232700	0.356100
H831	H83	0.975100	0.369700	0.416100
H841	H84	0.752400	0.446900	0.458500
H851	H85	0.678300	0.338800	0.393600
H861	H86	0.971300	0.498100	0.181800
H871	H87	0.024200	0.443300	0.156600
H881	H88	0.564500	0.558100	0.209900
H891	H89	0.516600	0.396500	0.334900
H901	H90	0.713600	0.423800	0.271700
H911	H91	0.722000	0.550700	0.155700
H921	H92	0.771700	0.491800	0.176800
H931	H93	0.765000	0.595700	0.294800
H941	H94	0.078300	0.749800	0.279000
H951	H95	0.921900	0.601000	0.133000
H961	H96	0.127800	0.670700	0.156000
H971	H97	0.085900	0.732200	0.131500
H981	H98	0.367300	0.841900	0.281100
H991	H99	0.228100	0.698800	0.259700
H1001	H100	0.198100	0.865100	0.149700
H1011	H101	0.184700	0.439000	0.206000
H1021	H102	0.043800	0.555400	0.275300
H1031	H103	0.223300	0.583300	0.342000
H1041	H104	0.193300	0.654300	0.439900
H1051	H105	0.138900	0.739400	0.375100
H1061	H106	0.861700	0.579400	0.424100
H1071	H107	0.948300	0.756400	0.359000
H1081	H108	0.847200	0.686900	0.370700
H1091	H109	0.177800	0.116500	0.630600
H1101	H110	0.027100	0.117400	0.794900
H1111	H111	0.321400	0.267800	0.775800
H1121	H112	0.327800	0.257200	0.623300
H1131	H113	0.370000	0.192100	0.638400
H1141	H114	0.443000	0.385600	0.651000
H1151	H115	0.631300	0.345600	0.761900
H1161	H116	0.504000	0.211300	0.739300
H1171	H117	0.123600	0.243400	0.856100
H1181	H118	0.245600	0.267300	0.856100
H1191	H119	0.024900	0.130300	0.916100
H1201	H120	0.247600	0.053100	0.958500
H1211	H121	0.321700	0.161200	0.893600
H1221	H122	0.028700	0.001900	0.681800
H1231	H123	0.975800	0.056700	0.656600
H1241	H124	0.435500	0.941900	0.709900
H1251	H125	0.483400	0.103500	0.834900
H1261	H126	0.286400	0.076200	0.771700
H1271	H127	0.278000	0.949300	0.655700
H1281	H128	0.228300	0.008200	0.676800
H1291	H129	0.235000	0.904300	0.794800
H1301	H130	0.921700	0.750200	0.779000
H1311	H131	0.078100	0.899000	0.633000
H1321	H132	0.872200	0.829300	0.656000
H1331	H133	0.914100	0.767800	0.631500
H1341	H134	0.632700	0.658100	0.781100
H1351	H135	0.771900	0.801200	0.759700
H1361	H136	0.801900	0.634900	0.649700
H1371	H137	0.815300	0.061000	0.706000
H1381	H138	0.956200	0.944600	0.775300
H1391	H139	0.776700	0.916700	0.842000
H1401	H140	0.806700	0.845700	0.939900
H1411	H141	0.861100	0.760600	0.875100
H1421	H142	0.138300	0.920600	0.924100
H1431	H143	0.051700	0.743600	0.859000
H1441	H144	0.152800	0.813100	0.870700
C11	C1	0.176100	0.640100	0.822600
C21	C2	0.091400	0.608600	0.785500
C31	C3	0.093800	0.636400	0.730300
C41	C4	0.178100	0.695600	0.711200
C51	C5	0.262200	0.728600	0.748700
C61	C6	0.262000	0.700700	0.803200
C71	C7	0.350800	0.732800	0.845400
C81	C8	0.474400	0.861000	0.824400
C91	C9	0.576600	0.838700	0.763800
C101	C10	0.507500	0.771800	0.778200
C111	C11	0.181300	0.725400	0.649700
C121	C12	0.089300	0.623900	0.581500
C131	C13	0.211600	0.581600	0.558200
C141	C14	0.252800	0.641600	0.594100
C151	C15	0.002200	0.541800	0.808400
C161	C16	0.424800	0.479300	0.767600
C171	C17	0.443300	0.565800	0.704200
C181	C18	0.351100	0.554600	0.731700
C191	C19	0.253800	0.468800	0.810500
C201	C20	0.163600	0.405300	0.783200
C211	C21	0.167500	0.380600	0.727800
C221	C22	0.082200	0.322100	0.705000
C231	C23	0.993100	0.290000	0.740200
C241	C24	0.989100	0.316200	0.794300
C251	C25	0.075500	0.373800	0.817300
C261	C26	0.895000	0.287700	0.833500
C271	C27	0.682900	0.169300	0.747800
C281	C28	0.749800	0.237900	0.758900
C291	C29	0.775400	0.155400	0.820200
C301	C30	0.830000	0.529200	0.767500
C311	C31	0.908100	0.464400	0.721800
C321	C32	0.817500	0.453100	0.696400
C331	C33	0.893600	0.357500	0.565900
C341	C34	0.915800	0.306000	0.600700
C351	C35	0.060000	0.396100	0.578700
C361	C36	0.081700	0.298000	0.643400
C371	C37	0.823900	0.859900	0.322600
C381	C38	0.908600	0.891400	0.285500
C391	C39	0.906200	0.863600	0.230300
C401	C40	0.821900	0.804400	0.211200
C411	C41	0.737800	0.771400	0.248700
C421	C42	0.738000	0.799300	0.303200
C431	C43	0.649200	0.767200	0.345400
C441	C44	0.525600	0.639000	0.324400
C451	C45	0.423400	0.661300	0.263800
C461	C46	0.492500	0.728200	0.278200
C471	C47	0.818700	0.774600	0.149700
C481	C48	0.910700	0.876100	0.081500
C491	C49	0.788400	0.918400	0.058200
C501	C50	0.747200	0.858400	0.094100
C511	C51	0.997800	0.958200	0.308400
C521	C52	0.575200	0.020700	0.267600
C531	C53	0.556700	0.934200	0.204200
C541	C54	0.648900	0.945400	0.231700
C551	C55	0.746200	0.031200	0.310500
C561	C56	0.836400	0.094700	0.283200
C571	C57	0.832500	0.119400	0.227800
C581	C58	0.917800	0.177900	0.205000
C591	C59	0.006900	0.210000	0.240200
C601	C60	0.010900	0.183800	0.294300
C611	C61	0.924500	0.126200	0.317300
C621	C62	0.105000	0.212300	0.333500
C631	C63	0.317100	0.330700	0.247800
C641	C64	0.250200	0.262100	0.258900
C651	C65	0.224600	0.344600	0.320200
C661	C66	0.170000	0.970800	0.267500
C671	C67	0.091900	0.035600	0.221800
C681	C68	0.182500	0.046900	0.196400
C691	C69	0.106400	0.142500	0.065900
C701	C70	0.084200	0.194000	0.100700
C711	C71	0.940000	0.103900	0.078700
C721	C72	0.918300	0.202000	0.143400
C731	C73	0.823900	0.359900	0.177400
C741	C74	0.908600	0.391400	0.214500
C751	C75	0.906200	0.363600	0.269700
C761	C76	0.821900	0.304400	0.288800
C771	C77	0.737800	0.271400	0.251300
C781	C78	0.738000	0.299300	0.196800
C791	C79	0.649200	0.267200	0.154600
C801	C80	0.525600	0.139000	0.175600
C811	C81	0.423400	0.161300	0.236200
C821	C82	0.492500	0.228200	0.221800
C831	C83	0.818700	0.274600	0.350300
C841	C84	0.910700	0.376100	0.418500
C851	C85	0.788400	0.418400	0.441800
C861	C86	0.747200	0.358400	0.405900
C871	C87	0.997800	0.458200	0.191600
C881	C88	0.575200	0.520700	0.232400
C891	C89	0.556700	0.434200	0.295800
C901	C90	0.648900	0.445400	0.268300
C911	C91	0.746200	0.531200	0.189500
C921	C92	0.836400	0.594700	0.216800
C931	C93	0.832500	0.619400	0.272200
C941	C94	0.917800	0.677900	0.295000
C951	C95	0.006900	0.710000	0.259800
C961	C96	0.010900	0.683800	0.205700
C971	C97	0.924500	0.626200	0.182700
C981	C98	0.105000	0.712300	0.166500
C991	C99	0.317100	0.830700	0.252200
C1001	C100	0.250200	0.762100	0.241100
C1011	C101	0.224600	0.844600	0.179800
C1021	C102	0.170000	0.470800	0.232500
C1031	C103	0.091900	0.535600	0.278200
C1041	C104	0.182500	0.546900	0.303600
C1051	C105	0.106400	0.642500	0.434100
C1061	C106	0.084200	0.694000	0.399300
C1071	C107	0.940000	0.603900	0.421300
C1081	C108	0.918300	0.702000	0.356600
C1091	C109	0.176100	0.140100	0.677400
C1101	C110	0.091400	0.108600	0.714500
C1111	C111	0.093800	0.136400	0.769700
C1121	C112	0.178100	0.195600	0.788800
C1131	C113	0.262200	0.228600	0.751300
C1141	C114	0.262000	0.200700	0.696800
C1151	C115	0.350800	0.232800	0.654600
C1161	C116	0.474400	0.361000	0.675600
C1171	C117	0.576600	0.338700	0.736200
C1181	C118	0.507500	0.271800	0.721800
C1191	C119	0.181300	0.225400	0.850300
C1201	C120	0.089300	0.123900	0.918500
C1211	C121	0.211600	0.081600	0.941800
C1221	C122	0.252800	0.141600	0.905900
C1231	C123	0.002200	0.041800	0.691600
C1241	C124	0.424800	0.979300	0.732400
C1251	C125	0.443300	0.065800	0.795800
C1261	C126	0.351100	0.054600	0.768300
C1271	C127	0.253800	0.968800	0.689500
C1281	C128	0.163600	0.905300	0.716800
C1291	C129	0.167500	0.880600	0.772200
C1301	C130	0.082200	0.822100	0.795000
C1311	C131	0.993100	0.790000	0.759800
C1321	C132	0.989100	0.816200	0.705700
C1331	C133	0.075500	0.873800	0.682700
C1341	C134	0.895000	0.787700	0.666500
C1351	C135	0.682900	0.669300	0.752200
C1361	C136	0.749800	0.737900	0.741100
C1371	C137	0.775400	0.655400	0.679800
C1381	C138	0.830000	0.029200	0.732500
C1391	C139	0.908100	0.964400	0.778200
C1401	C140	0.817500	0.953100	0.803600
C1411	C141	0.893600	0.857500	0.934100
C1421	C142	0.915800	0.806000	0.899300
C1431	C143	0.060000	0.896100	0.921300
C1441	C144	0.081700	0.798000	0.856600
N11	N1	0.442500	0.787300	0.817800
N21	N2	0.556200	0.895800	0.792000
N31	N3	0.174900	0.667600	0.608600
N41	N4	0.106900	0.570400	0.550900
N51	N5	0.489200	0.518000	0.727700
N61	N6	0.341300	0.501200	0.771400
N71	N7	0.698200	0.116900	0.784800
N81	N8	0.808400	0.228400	0.805100
N91	N9	0.766100	0.494900	0.724400
N101	N10	0.916500	0.512400	0.767800
N111	N11	0.984300	0.413800	0.552800
N121	N12	0.021900	0.331500	0.607400
N131	N13	0.557500	0.712700	0.317800
N141	N14	0.443800	0.604200	0.292000
N151	N15	0.825100	0.832400	0.108600
N161	N16	0.893100	0.929600	0.050900
N171	N17	0.510800	0.982000	0.227700
N181	N18	0.658700	0.998800	0.271400
N191	N19	0.301800	0.383100	0.284800
N201	N20	0.191600	0.271600	0.305100
N211	N21	0.233900	0.005100	0.224400
N221	N22	0.083500	0.987600	0.267800
N231	N23	0.015700	0.086200	0.052800
N241	N24	0.978100	0.168500	0.107400
N251	N25	0.557500	0.212700	0.182200
N261	N26	0.443800	0.104200	0.208000
N271	N27	0.825100	0.332400	0.391400
N281	N28	0.893100	0.429600	0.449100
N291	N29	0.510800	0.482000	0.272300
N301	N30	0.658700	0.498800	0.228600
N311	N31	0.301800	0.883100	0.215200
N321	N32	0.191600	0.771600	0.194900
N331	N33	0.233900	0.505100	0.275600
N341	N34	0.083500	0.487600	0.232200
N351	N35	0.015700	0.586200	0.447200
N361	N36	0.978100	0.668500	0.392600
N371	N37	0.442500	0.287300	0.682200
N381	N38	0.556200	0.395800	0.708000
N391	N39	0.174900	0.167600	0.891400
N401	N40	0.106900	0.070400	0.949100
N411	N41	0.489200	0.018000	0.772300
N421	N42	0.341300	0.001200	0.728600
N431	N43	0.698200	0.616900	0.715200
N441	N44	0.808400	0.728400	0.694900
N451	N45	0.766100	0.994900	0.775600
N461	N46	0.916500	0.012400	0.732200
N471	N47	0.984300	0.913800	0.947200
N481	N48	0.021900	0.831500	0.892600
