data_QOZGAP_clean_PM
_symmetry_space_group_name_H-M	'P1'
_cell_length_a	9.545400
_cell_length_b	14.671900
_cell_length_c	9.479000
_cell_angle_alpha	90.000000
_cell_angle_beta	110.419000
_cell_angle_gamma	90.000000
_symmetry_Int_Tables_number 1

loop_
_symmetry_equiv_pos_as_xyz
'x,y,z'

loop_
_atom_site_label
_atom_site_type_symbol
_atom_site_fract_x
_atom_site_fract_y
_atom_site_fract_z
O11	O1	0.765300	0.845400	0.414500
O21	O2	0.881700	0.936400	0.739400
O31	O3	0.784300	0.021700	0.873100
N11	N1	0.938500	0.608000	0.589900
N21	N2	0.030500	0.655400	0.710000
N31	N3	0.810900	0.718600	0.628200
N41	N4	0.698500	0.783000	0.602200
H11	H1	0.631600	0.780700	0.646600
C11	C1	0.808100	0.645300	0.543000
H21	H2	0.724000	0.624300	0.461500
C21	C2	0.951700	0.724000	0.730300
H31	H3	0.987500	0.770100	0.804600
C31	C3	0.698700	0.850300	0.502600
C41	C4	0.596100	0.928300	0.503300
C51	C5	0.633300	0.990700	0.624700
C61	C6	0.534100	0.061400	0.616500
H41	H4	0.557400	0.104100	0.696800
C71	C7	0.780000	0.981900	0.753000
O41	O4	0.234700	0.345400	0.085500
O51	O5	0.118300	0.436400	0.760600
O61	O6	0.215700	0.521700	0.626900
N51	N5	0.061500	0.108000	0.910100
N61	N6	0.969500	0.155400	0.790000
N71	N7	0.189100	0.218600	0.871800
N81	N8	0.301500	0.283000	0.897800
H51	H5	0.368400	0.280700	0.853400
C81	C8	0.191900	0.145300	0.957000
H61	H6	0.276000	0.124300	0.038500
C91	C9	0.048300	0.224000	0.769700
H71	H7	0.012500	0.270100	0.695400
C101	C10	0.301300	0.350300	0.997400
C111	C11	0.403900	0.428300	0.996700
C121	C12	0.366700	0.490700	0.875300
C131	C13	0.465900	0.561400	0.883500
H81	H8	0.442600	0.604100	0.803200
C141	C14	0.220000	0.481900	0.747000
O71	O7	0.234700	0.154600	0.585500
O81	O8	0.118300	0.063600	0.260600
O91	O9	0.215700	0.978300	0.126900
N91	N9	0.061500	0.392000	0.410100
N101	N10	0.969500	0.344600	0.290000
N111	N11	0.189100	0.281400	0.371800
N121	N12	0.301500	0.217000	0.397800
H91	H9	0.368400	0.219300	0.353400
C151	C15	0.191900	0.354700	0.457000
H101	H10	0.276000	0.375700	0.538500
C161	C16	0.048300	0.276000	0.269700
H111	H11	0.012500	0.229900	0.195400
C171	C17	0.301300	0.149700	0.497400
C181	C18	0.403900	0.071700	0.496700
C191	C19	0.366700	0.009300	0.375300
C201	C20	0.465900	0.938600	0.383500
H121	H12	0.442600	0.895900	0.303200
C211	C21	0.220000	0.018100	0.247000
O101	O10	0.765300	0.654600	0.914500
O111	O11	0.881700	0.563600	0.239400
O121	O12	0.784300	0.478300	0.373100
N131	N13	0.938500	0.892000	0.089900
N141	N14	0.030500	0.844600	0.210000
N151	N15	0.810900	0.781400	0.128200
N161	N16	0.698500	0.717000	0.102200
H131	H13	0.631600	0.719300	0.146600
C221	C22	0.808100	0.854700	0.043000
H141	H14	0.724000	0.875700	0.961500
C231	C23	0.951700	0.776000	0.230300
H151	H15	0.987500	0.729900	0.304600
C241	C24	0.698700	0.649700	0.002600
C251	C25	0.596100	0.571700	0.003300
C261	C26	0.633300	0.509300	0.124700
C271	C27	0.534100	0.438600	0.116500
H161	H16	0.557400	0.395900	0.196800
C281	C28	0.780000	0.518100	0.253000
Cu11	Cu1	0.000000	0.500000	0.500000
Cu21	Cu2	0.000000	0.000000	0.000000
