data_QQQGTA03_clean_PM
_symmetry_space_group_name_H-M	'P1'
_cell_length_a	10.690100
_cell_length_b	10.690100
_cell_length_c	10.690100
_cell_angle_alpha	105.942000
_cell_angle_beta	105.942000
_cell_angle_gamma	105.942000
_symmetry_Int_Tables_number 1

loop_
_symmetry_equiv_pos_as_xyz
'x,y,z'

loop_
_atom_site_label
_atom_site_type_symbol
_atom_site_fract_x
_atom_site_fract_y
_atom_site_fract_z
Cd11	Cd1	0.750650	0.485160	0.215570
Cd21	Cd2	0.215570	0.750650	0.485160
Cd31	Cd3	0.485160	0.215570	0.750650
Cd41	Cd4	0.249350	0.514840	0.784430
Cd51	Cd5	0.784430	0.249350	0.514840
Cd61	Cd6	0.514840	0.784430	0.249350
H11	H1	0.364800	0.144600	0.199600
H21	H2	0.440300	0.210900	0.363500
H31	H3	0.199600	0.364800	0.144600
H41	H4	0.363500	0.440300	0.210900
H51	H5	0.144600	0.199600	0.364800
H61	H6	0.210900	0.363500	0.440300
H71	H7	0.635200	0.855400	0.800400
H81	H8	0.559700	0.789100	0.636500
H91	H9	0.800400	0.635200	0.855400
H101	H10	0.636500	0.559700	0.789100
H111	H11	0.855400	0.800400	0.635200
H121	H12	0.789100	0.636500	0.559700
C11	C1	0.566000	0.282400	0.265000
C21	C2	0.481300	0.038000	0.274300
C31	C3	0.452500	0.170900	0.276700
C41	C4	0.265000	0.566000	0.282400
C51	C5	0.274300	0.481300	0.038000
C61	C6	0.276700	0.452500	0.170900
C71	C7	0.282400	0.265000	0.566000
C81	C8	0.038000	0.274300	0.481300
C91	C9	0.170900	0.276700	0.452500
C101	C10	0.434000	0.717600	0.735000
C111	C11	0.518700	0.962000	0.725700
C121	C12	0.547500	0.829100	0.723300
C131	C13	0.735000	0.434000	0.717600
C141	C14	0.725700	0.518700	0.962000
C151	C15	0.723300	0.547500	0.829100
C161	C16	0.717600	0.735000	0.434000
C171	C17	0.962000	0.725700	0.518700
C181	C18	0.829100	0.723300	0.547500
O11	O1	0.689300	0.336000	0.355400
O21	O2	0.592600	0.048600	0.365700
O31	O3	0.532100	0.322800	0.166400
O41	O4	0.394700	0.921100	0.183500
O51	O5	0.355400	0.689300	0.336000
O61	O6	0.365700	0.592600	0.048600
O71	O7	0.166400	0.532100	0.322800
O81	O8	0.183500	0.394700	0.921100
O91	O9	0.336000	0.355400	0.689300
O101	O10	0.048600	0.365700	0.592600
O111	O11	0.322800	0.166400	0.532100
O121	O12	0.921100	0.183500	0.394700
O131	O13	0.310700	0.664000	0.644600
O141	O14	0.407400	0.951400	0.634300
O151	O15	0.467900	0.677200	0.833600
O161	O16	0.605300	0.078900	0.816500
O171	O17	0.644600	0.310700	0.664000
O181	O18	0.634300	0.407400	0.951400
O191	O19	0.833600	0.467900	0.677200
O201	O20	0.816500	0.605300	0.078900
O211	O21	0.664000	0.644600	0.310700
O221	O22	0.951400	0.634300	0.407400
O231	O23	0.677200	0.833600	0.467900
O241	O24	0.078900	0.816500	0.605300
