data_QQQGTA01_clean_PM
_symmetry_space_group_name_H-M	'P1'
_cell_length_a	10.682300
_cell_length_b	10.682300
_cell_length_c	10.682300
_cell_angle_alpha	106.004000
_cell_angle_beta	106.004000
_cell_angle_gamma	106.004000
_symmetry_Int_Tables_number 1

loop_
_symmetry_equiv_pos_as_xyz
'x,y,z'

loop_
_atom_site_label
_atom_site_type_symbol
_atom_site_fract_x
_atom_site_fract_y
_atom_site_fract_z
Cd11	Cd1	0.250490	0.715450	0.984930
Cd21	Cd2	0.984930	0.250490	0.715450
Cd31	Cd3	0.715450	0.984930	0.250490
Cd41	Cd4	0.749510	0.284550	0.015070
Cd51	Cd5	0.015070	0.749510	0.284550
Cd61	Cd6	0.284550	0.015070	0.749510
H11	H1	0.856900	0.701500	0.629900
H21	H2	0.945400	0.886300	0.711800
H31	H3	0.629900	0.856900	0.701500
H41	H4	0.711800	0.945400	0.886300
H51	H5	0.701500	0.629900	0.856900
H61	H6	0.886300	0.711800	0.945400
H71	H7	0.143100	0.298500	0.370100
H81	H8	0.054600	0.113700	0.288200
H91	H9	0.370100	0.143100	0.298500
H101	H10	0.288200	0.054600	0.113700
H111	H11	0.298500	0.370100	0.143100
H121	H12	0.113700	0.288200	0.054600
C11	C1	0.065400	0.764400	0.782700
C21	C2	0.951700	0.775100	0.669700
C31	C3	0.982900	0.775700	0.539200
C41	C4	0.782700	0.065400	0.764400
C51	C5	0.669700	0.951700	0.775100
C61	C6	0.539200	0.982900	0.775700
C71	C7	0.764400	0.782700	0.065400
C81	C8	0.775100	0.669700	0.951700
C91	C9	0.775700	0.539200	0.982900
C101	C10	0.934600	0.235600	0.217300
C111	C11	0.048300	0.224900	0.330300
C121	C12	0.017100	0.224300	0.460800
C131	C13	0.217300	0.934600	0.235600
C141	C14	0.330300	0.048300	0.224900
C151	C15	0.460800	0.017100	0.224300
C161	C16	0.235600	0.217300	0.934600
C171	C17	0.224900	0.330300	0.048300
C181	C18	0.224300	0.460800	0.017100
O11	O1	0.189100	0.855300	0.835700
O21	O2	0.033200	0.666700	0.823500
O31	O3	0.134800	0.451600	0.907900
O41	O4	0.317000	0.578600	0.105700
O51	O5	0.835700	0.189100	0.855300
O61	O6	0.823500	0.033200	0.666700
O71	O7	0.907900	0.134800	0.451600
O81	O8	0.105700	0.317000	0.578600
O91	O9	0.855300	0.835700	0.189100
O101	O10	0.666700	0.823500	0.033200
O111	O11	0.451600	0.907900	0.134800
O121	O12	0.578600	0.105700	0.317000
O131	O13	0.810900	0.144700	0.164300
O141	O14	0.966800	0.333300	0.176500
O151	O15	0.865200	0.548400	0.092100
O161	O16	0.683000	0.421400	0.894300
O171	O17	0.164300	0.810900	0.144700
O181	O18	0.176500	0.966800	0.333300
O191	O19	0.092100	0.865200	0.548400
O201	O20	0.894300	0.683000	0.421400
O211	O21	0.144700	0.164300	0.810900
O221	O22	0.333300	0.176500	0.966800
O231	O23	0.548400	0.092100	0.865200
O241	O24	0.421400	0.894300	0.683000
