data_QUBWIU_clean_PM
_symmetry_space_group_name_H-M	'P1'
_cell_length_a	17.041000
_cell_length_b	17.041000
_cell_length_c	25.371000
_cell_angle_alpha	90.000000
_cell_angle_beta	90.000000
_cell_angle_gamma	90.000000
_symmetry_Int_Tables_number 1

loop_
_symmetry_equiv_pos_as_xyz
'x,y,z'

loop_
_atom_site_label
_atom_site_type_symbol
_atom_site_fract_x
_atom_site_fract_y
_atom_site_fract_z
Sm11	Sm1	0.275530	0.118190	0.808080
Cu11	Cu1	0.128960	0.378500	0.168240
Cu21	Cu2	0.119990	0.185170	0.008640
Na11	Na1	0.233600	0.194300	0.113890
N11	N1	0.385700	0.850900	0.753800
N21	N2	0.079300	0.279500	0.968900
O11	O1	0.322600	0.976300	0.802800
O21	O2	0.276400	0.025200	0.728900
O31	O3	0.297600	0.784100	0.826900
O41	O4	0.261100	0.688800	0.771600
O51	O5	0.593700	0.880200	0.769500
O61	O6	0.496500	0.884900	0.827400
O71	O7	0.107900	0.379600	0.093800
O81	O8	0.115200	0.252500	0.072200
O91	O9	0.999300	0.145000	0.998900
O101	O10	0.893100	0.179000	0.953600
O111	O11	0.196500	0.204200	0.862600
O121	O12	0.159200	0.154100	0.939500
C11	C1	0.306700	0.971300	0.754200
C21	C2	0.324100	0.894900	0.725900
H11	H1	0.341100	0.905900	0.690200
H21	H2	0.276800	0.863500	0.724100
C31	C3	0.305000	0.743700	0.784100
C41	C4	0.372300	0.766100	0.750400
H31	H3	0.361600	0.751600	0.714100
H41	H4	0.418900	0.738200	0.761800
C51	C5	0.523100	0.878800	0.781000
C61	C6	0.466600	0.875400	0.735700
H51	H5	0.463600	0.926600	0.719200
H61	H6	0.485700	0.838300	0.709700
C71	C7	0.104300	0.324200	0.060800
C81	C8	0.083900	0.346600	0.006000
H71	H7	0.033600	0.373400	0.006300
H81	H8	0.122900	0.383400	0.993100
C91	C9	0.961000	0.191200	0.970600
C101	C10	0.998900	0.265200	0.951700
H91	H9	0.998300	0.264800	0.913500
H101	H10	0.966800	0.309000	0.963100
C111	C11	0.164000	0.209700	0.906400
C121	C12	0.131800	0.286900	0.922100
H111	H11	0.102600	0.309200	0.892900
H121	H12	0.174700	0.322300	0.930400
Sm21	Sm2	0.724470	0.881810	0.808080
Cu31	Cu3	0.871040	0.621500	0.168240
Cu41	Cu4	0.880010	0.814830	0.008640
Na21	Na2	0.766400	0.805700	0.113890
N31	N3	0.614300	0.149100	0.753800
N41	N4	0.920700	0.720500	0.968900
O131	O13	0.677400	0.023700	0.802800
O141	O14	0.723600	0.974800	0.728900
O151	O15	0.702400	0.215900	0.826900
O161	O16	0.738900	0.311200	0.771600
O171	O17	0.406300	0.119800	0.769500
O181	O18	0.503500	0.115100	0.827400
O191	O19	0.892100	0.620400	0.093800
O201	O20	0.884800	0.747500	0.072200
O211	O21	0.000700	0.855000	0.998900
O221	O22	0.106900	0.821000	0.953600
O231	O23	0.803500	0.795800	0.862600
O241	O24	0.840800	0.845900	0.939500
C131	C13	0.693300	0.028700	0.754200
C141	C14	0.675900	0.105100	0.725900
H131	H13	0.658900	0.094100	0.690200
H141	H14	0.723200	0.136500	0.724100
C151	C15	0.695000	0.256300	0.784100
C161	C16	0.627700	0.233900	0.750400
H151	H15	0.638400	0.248400	0.714100
H161	H16	0.581100	0.261800	0.761800
C171	C17	0.476900	0.121200	0.781000
C181	C18	0.533400	0.124600	0.735700
H171	H17	0.536400	0.073400	0.719200
H181	H18	0.514300	0.161700	0.709700
C191	C19	0.895700	0.675800	0.060800
C201	C20	0.916100	0.653400	0.006000
H191	H19	0.966400	0.626600	0.006300
H201	H20	0.877100	0.616600	0.993100
C211	C21	0.039000	0.808800	0.970600
C221	C22	0.001100	0.734800	0.951700
H211	H21	0.001700	0.735200	0.913500
H221	H22	0.033200	0.691000	0.963100
C231	C23	0.836000	0.790300	0.906400
C241	C24	0.868200	0.713100	0.922100
H231	H23	0.897400	0.690800	0.892900
H241	H24	0.825300	0.677700	0.930400
Sm31	Sm3	0.118190	0.724470	0.191920
Cu51	Cu5	0.378500	0.871040	0.831760
Cu61	Cu6	0.185170	0.880010	0.991360
Na31	Na3	0.194300	0.766400	0.886110
N51	N5	0.850900	0.614300	0.246200
N61	N6	0.279500	0.920700	0.031100
O251	O25	0.976300	0.677400	0.197200
O261	O26	0.025200	0.723600	0.271100
O271	O27	0.784100	0.702400	0.173100
O281	O28	0.688800	0.738900	0.228400
O291	O29	0.880200	0.406300	0.230500
O301	O30	0.884900	0.503500	0.172600
O311	O31	0.379600	0.892100	0.906200
O321	O32	0.252500	0.884800	0.927800
O331	O33	0.145000	0.000700	0.001100
O341	O34	0.179000	0.106900	0.046400
O351	O35	0.204200	0.803500	0.137400
O361	O36	0.154100	0.840800	0.060500
C251	C25	0.971300	0.693300	0.245800
C261	C26	0.894900	0.675900	0.274100
H251	H25	0.905900	0.658900	0.309800
H261	H26	0.863500	0.723200	0.275900
C271	C27	0.743700	0.695000	0.215900
C281	C28	0.766100	0.627700	0.249600
H271	H27	0.751600	0.638400	0.285900
H281	H28	0.738200	0.581100	0.238200
C291	C29	0.878800	0.476900	0.219000
C301	C30	0.875400	0.533400	0.264300
H291	H29	0.926600	0.536400	0.280800
H301	H30	0.838300	0.514300	0.290300
C311	C31	0.324200	0.895700	0.939200
C321	C32	0.346600	0.916100	0.994000
H311	H31	0.373400	0.966400	0.993700
H321	H32	0.383400	0.877100	0.006900
C331	C33	0.191200	0.039000	0.029400
C341	C34	0.265200	0.001100	0.048300
H331	H33	0.264800	0.001700	0.086500
H341	H34	0.309000	0.033200	0.036900
C351	C35	0.209700	0.836000	0.093600
C361	C36	0.286900	0.868200	0.077900
H351	H35	0.309200	0.897400	0.107100
H361	H36	0.322300	0.825300	0.069600
Sm41	Sm4	0.881810	0.275530	0.191920
Cu71	Cu7	0.621500	0.128960	0.831760
Cu81	Cu8	0.814830	0.119990	0.991360
Na41	Na4	0.805700	0.233600	0.886110
N71	N7	0.149100	0.385700	0.246200
N81	N8	0.720500	0.079300	0.031100
O371	O37	0.023700	0.322600	0.197200
O381	O38	0.974800	0.276400	0.271100
O391	O39	0.215900	0.297600	0.173100
O401	O40	0.311200	0.261100	0.228400
O411	O41	0.119800	0.593700	0.230500
O421	O42	0.115100	0.496500	0.172600
O431	O43	0.620400	0.107900	0.906200
O441	O44	0.747500	0.115200	0.927800
O451	O45	0.855000	0.999300	0.001100
O461	O46	0.821000	0.893100	0.046400
O471	O47	0.795800	0.196500	0.137400
O481	O48	0.845900	0.159200	0.060500
C371	C37	0.028700	0.306700	0.245800
C381	C38	0.105100	0.324100	0.274100
H371	H37	0.094100	0.341100	0.309800
H381	H38	0.136500	0.276800	0.275900
C391	C39	0.256300	0.305000	0.215900
C401	C40	0.233900	0.372300	0.249600
H391	H39	0.248400	0.361600	0.285900
H401	H40	0.261800	0.418900	0.238200
C411	C41	0.121200	0.523100	0.219000
C421	C42	0.124600	0.466600	0.264300
H411	H41	0.073400	0.463600	0.280800
H421	H42	0.161700	0.485700	0.290300
C431	C43	0.675800	0.104300	0.939200
C441	C44	0.653400	0.083900	0.994000
H431	H43	0.626600	0.033600	0.993700
H441	H44	0.616600	0.122900	0.006900
C451	C45	0.808800	0.961000	0.029400
C461	C46	0.734800	0.998900	0.048300
H451	H45	0.735200	0.998300	0.086500
H461	H46	0.691000	0.966800	0.036900
C471	C47	0.790300	0.164000	0.093600
C481	C48	0.713100	0.131800	0.077900
H471	H47	0.690800	0.102600	0.107100
H481	H48	0.677700	0.174700	0.069600
Sm51	Sm5	0.224470	0.618190	0.691920
Cu91	Cu9	0.371040	0.878500	0.331760
Cu101	Cu10	0.380010	0.685170	0.491360
Na51	Na5	0.266400	0.694300	0.386110
N91	N9	0.114300	0.350900	0.746200
N101	N10	0.420700	0.779500	0.531100
O491	O49	0.177400	0.476300	0.697200
O501	O50	0.223600	0.525200	0.771100
O511	O51	0.202400	0.284100	0.673100
O521	O52	0.238900	0.188800	0.728400
O531	O53	0.906300	0.380200	0.730500
O541	O54	0.003500	0.384900	0.672600
O551	O55	0.392100	0.879600	0.406200
O561	O56	0.384800	0.752500	0.427800
O571	O57	0.500700	0.645000	0.501100
O581	O58	0.606900	0.679000	0.546400
O591	O59	0.303500	0.704200	0.637400
O601	O60	0.340800	0.654100	0.560500
C491	C49	0.193300	0.471300	0.745800
C501	C50	0.175900	0.394900	0.774100
H491	H49	0.158900	0.405900	0.809800
H501	H50	0.223200	0.363500	0.775900
C511	C51	0.195000	0.243700	0.715900
C521	C52	0.127700	0.266100	0.749600
H511	H51	0.138400	0.251600	0.785900
H521	H52	0.081100	0.238200	0.738200
C531	C53	0.976900	0.378800	0.719000
C541	C54	0.033400	0.375400	0.764300
H531	H53	0.036400	0.426600	0.780800
H541	H54	0.014300	0.338300	0.790300
C551	C55	0.395700	0.824200	0.439200
C561	C56	0.416100	0.846600	0.494000
H551	H55	0.466400	0.873400	0.493700
H561	H56	0.377100	0.883400	0.506900
C571	C57	0.539000	0.691200	0.529400
C581	C58	0.501100	0.765200	0.548300
H571	H57	0.501700	0.764800	0.586500
H581	H58	0.533200	0.809000	0.536900
C591	C59	0.336000	0.709700	0.593600
C601	C60	0.368200	0.786900	0.577900
H591	H59	0.397400	0.809200	0.607100
H601	H60	0.325300	0.822300	0.569600
Sm61	Sm6	0.775530	0.381810	0.691920
Cu111	Cu11	0.628960	0.121500	0.331760
Cu121	Cu12	0.619990	0.314830	0.491360
Na61	Na6	0.733600	0.305700	0.386110
N111	N11	0.885700	0.649100	0.746200
N121	N12	0.579300	0.220500	0.531100
O611	O61	0.822600	0.523700	0.697200
O621	O62	0.776400	0.474800	0.771100
O631	O63	0.797600	0.715900	0.673100
O641	O64	0.761100	0.811200	0.728400
O651	O65	0.093700	0.619800	0.730500
O661	O66	0.996500	0.615100	0.672600
O671	O67	0.607900	0.120400	0.406200
O681	O68	0.615200	0.247500	0.427800
O691	O69	0.499300	0.355000	0.501100
O701	O70	0.393100	0.321000	0.546400
O711	O71	0.696500	0.295800	0.637400
O721	O72	0.659200	0.345900	0.560500
C611	C61	0.806700	0.528700	0.745800
C621	C62	0.824100	0.605100	0.774100
H611	H61	0.841100	0.594100	0.809800
H621	H62	0.776800	0.636500	0.775900
C631	C63	0.805000	0.756300	0.715900
C641	C64	0.872300	0.733900	0.749600
H631	H63	0.861600	0.748400	0.785900
H641	H64	0.918900	0.761800	0.738200
C651	C65	0.023100	0.621200	0.719000
C661	C66	0.966600	0.624600	0.764300
H651	H65	0.963600	0.573400	0.780800
H661	H66	0.985700	0.661700	0.790300
C671	C67	0.604300	0.175800	0.439200
C681	C68	0.583900	0.153400	0.494000
H671	H67	0.533600	0.126600	0.493700
H681	H68	0.622900	0.116600	0.506900
C691	C69	0.461000	0.308800	0.529400
C701	C70	0.498900	0.234800	0.548300
H691	H69	0.498300	0.235200	0.586500
H701	H70	0.466800	0.191000	0.536900
C711	C71	0.664000	0.290300	0.593600
C721	C72	0.631800	0.213100	0.577900
H711	H71	0.602600	0.190800	0.607100
H721	H72	0.674700	0.177700	0.569600
Sm71	Sm7	0.381810	0.224470	0.308080
Cu131	Cu13	0.121500	0.371040	0.668240
Cu141	Cu14	0.314830	0.380010	0.508640
Na71	Na7	0.305700	0.266400	0.613890
N131	N13	0.649100	0.114300	0.253800
N141	N14	0.220500	0.420700	0.468900
O731	O73	0.523700	0.177400	0.302800
O741	O74	0.474800	0.223600	0.228900
O751	O75	0.715900	0.202400	0.326900
O761	O76	0.811200	0.238900	0.271600
O771	O77	0.619800	0.906300	0.269500
O781	O78	0.615100	0.003500	0.327400
O791	O79	0.120400	0.392100	0.593800
O801	O80	0.247500	0.384800	0.572200
O811	O81	0.355000	0.500700	0.498900
O821	O82	0.321000	0.606900	0.453600
O831	O83	0.295800	0.303500	0.362600
O841	O84	0.345900	0.340800	0.439500
C731	C73	0.528700	0.193300	0.254200
C741	C74	0.605100	0.175900	0.225900
H731	H73	0.594100	0.158900	0.190200
H741	H74	0.636500	0.223200	0.224100
C751	C75	0.756300	0.195000	0.284100
C761	C76	0.733900	0.127700	0.250400
H751	H75	0.748400	0.138400	0.214100
H761	H76	0.761800	0.081100	0.261800
C771	C77	0.621200	0.976900	0.281000
C781	C78	0.624600	0.033400	0.235700
H771	H77	0.573400	0.036400	0.219200
H781	H78	0.661700	0.014300	0.209700
C791	C79	0.175800	0.395700	0.560800
C801	C80	0.153400	0.416100	0.506000
H791	H79	0.126600	0.466400	0.506300
H801	H80	0.116600	0.377100	0.493100
C811	C81	0.308800	0.539000	0.470600
C821	C82	0.234800	0.501100	0.451700
H811	H81	0.235200	0.501700	0.413500
H821	H82	0.191000	0.533200	0.463100
C831	C83	0.290300	0.336000	0.406400
C841	C84	0.213100	0.368200	0.422100
H831	H83	0.190800	0.397400	0.392900
H841	H84	0.177700	0.325300	0.430400
Sm81	Sm8	0.618190	0.775530	0.308080
Cu151	Cu15	0.878500	0.628960	0.668240
Cu161	Cu16	0.685170	0.619990	0.508640
Na81	Na8	0.694300	0.733600	0.613890
N151	N15	0.350900	0.885700	0.253800
N161	N16	0.779500	0.579300	0.468900
O851	O85	0.476300	0.822600	0.302800
O861	O86	0.525200	0.776400	0.228900
O871	O87	0.284100	0.797600	0.326900
O881	O88	0.188800	0.761100	0.271600
O891	O89	0.380200	0.093700	0.269500
O901	O90	0.384900	0.996500	0.327400
O911	O91	0.879600	0.607900	0.593800
O921	O92	0.752500	0.615200	0.572200
O931	O93	0.645000	0.499300	0.498900
O941	O94	0.679000	0.393100	0.453600
O951	O95	0.704200	0.696500	0.362600
O961	O96	0.654100	0.659200	0.439500
C851	C85	0.471300	0.806700	0.254200
C861	C86	0.394900	0.824100	0.225900
H851	H85	0.405900	0.841100	0.190200
H861	H86	0.363500	0.776800	0.224100
C871	C87	0.243700	0.805000	0.284100
C881	C88	0.266100	0.872300	0.250400
H871	H87	0.251600	0.861600	0.214100
H881	H88	0.238200	0.918900	0.261800
C891	C89	0.378800	0.023100	0.281000
C901	C90	0.375400	0.966600	0.235700
H891	H89	0.426600	0.963600	0.219200
H901	H90	0.338300	0.985700	0.209700
C911	C91	0.824200	0.604300	0.560800
C921	C92	0.846600	0.583900	0.506000
H911	H91	0.873400	0.533600	0.506300
H921	H92	0.883400	0.622900	0.493100
C931	C93	0.691200	0.461000	0.470600
C941	C94	0.765200	0.498900	0.451700
H931	H93	0.764800	0.498300	0.413500
H941	H94	0.809000	0.466800	0.463100
C951	C95	0.709700	0.664000	0.406400
C961	C96	0.786900	0.631800	0.422100
H951	H95	0.809200	0.602600	0.392900
H961	H96	0.822300	0.674700	0.430400
Na91	Na9	0.000000	0.000000	0.000000
Na101	Na10	0.500000	0.500000	0.500000
