data_QUFTAM_clean_PM
_symmetry_space_group_name_H-M	'P1'
_cell_length_a	11.234000
_cell_length_b	11.576700
_cell_length_c	11.576700
_cell_angle_alpha	109.098000
_cell_angle_beta	100.100000
_cell_angle_gamma	100.100000
_symmetry_Int_Tables_number 1

loop_
_symmetry_equiv_pos_as_xyz
'x,y,z'

loop_
_atom_site_label
_atom_site_type_symbol
_atom_site_fract_x
_atom_site_fract_y
_atom_site_fract_z
Na11	Na1	0.750000	0.141800	0.858200
Na21	Na2	0.750000	0.950700	0.049300
Na31	Na3	0.250000	0.858200	0.141800
Na41	Na4	0.250000	0.049300	0.950700
Cu11	Cu1	0.019300	0.165300	0.775700
Cu21	Cu2	0.480700	0.224300	0.834700
Cu31	Cu3	0.980700	0.834700	0.224300
Cu41	Cu4	0.519300	0.775700	0.165300
H11	H1	0.858100	0.977600	0.660600
H21	H2	0.900300	0.964100	0.778500
H31	H3	0.861500	0.353000	0.125600
H41	H4	0.251300	0.602500	0.180900
H51	H5	0.223900	0.390400	0.139200
H61	H6	0.641900	0.339400	0.022400
H71	H7	0.599700	0.221500	0.035900
H81	H8	0.638500	0.874400	0.647000
H91	H9	0.248700	0.819100	0.397500
H101	H10	0.276100	0.860800	0.609600
H111	H11	0.141900	0.022400	0.339400
H121	H12	0.099700	0.035900	0.221500
H131	H13	0.138500	0.647000	0.874400
H141	H14	0.748700	0.397500	0.819100
H151	H15	0.776100	0.609600	0.860800
H161	H16	0.358100	0.660600	0.977600
H171	H17	0.400300	0.778500	0.964100
H181	H18	0.361500	0.125600	0.353000
H191	H19	0.751300	0.180900	0.602500
H201	H20	0.723900	0.139200	0.390400
C11	C1	0.036100	0.350500	0.122500
C21	C2	0.938800	0.403700	0.133300
C31	C3	0.949600	0.533000	0.156000
C41	C4	0.069300	0.611200	0.171600
C51	C5	0.171600	0.552900	0.166900
C61	C6	0.155900	0.425900	0.142500
C71	C7	0.834100	0.579800	0.152000
C81	C8	0.463900	0.877500	0.649500
C91	C9	0.561200	0.866700	0.596300
C101	C10	0.550400	0.844000	0.467000
C111	C11	0.430700	0.828400	0.388800
C121	C12	0.328400	0.833100	0.447100
C131	C13	0.344100	0.857500	0.574100
C141	C14	0.665900	0.848000	0.420200
C151	C15	0.963900	0.649500	0.877500
C161	C16	0.061200	0.596300	0.866700
C171	C17	0.050400	0.467000	0.844000
C181	C18	0.930700	0.388800	0.828400
C191	C19	0.828400	0.447100	0.833100
C201	C20	0.844100	0.574100	0.857500
C211	C21	0.165900	0.420200	0.848000
C221	C22	0.536100	0.122500	0.350500
C231	C23	0.438800	0.133300	0.403700
C241	C24	0.449600	0.156000	0.533000
C251	C25	0.569300	0.171600	0.611200
C261	C26	0.671600	0.166900	0.552900
C271	C27	0.655900	0.142500	0.425900
C281	C28	0.334100	0.152000	0.579800
S11	S1	0.016300	0.187500	0.085100
S21	S2	0.483700	0.914900	0.812500
S31	S3	0.983700	0.812500	0.914900
S41	S4	0.516300	0.085100	0.187500
O11	O1	0.882400	0.131400	0.039800
O21	O2	0.081700	0.145500	0.986900
O31	O3	0.071500	0.169900	0.199700
O41	O4	0.730400	0.502700	0.126500
O51	O5	0.839000	0.695300	0.175100
O61	O6	0.091800	0.731000	0.188600
O71	O7	0.877300	0.019500	0.736500
O81	O8	0.617600	0.960200	0.868600
O91	O9	0.418300	0.013100	0.854500
O101	O10	0.428500	0.800300	0.830100
O111	O11	0.769600	0.873500	0.497300
O121	O12	0.661000	0.824900	0.304700
O131	O13	0.408200	0.811400	0.269000
O141	O14	0.622700	0.263500	0.980500
O151	O15	0.117600	0.868600	0.960200
O161	O16	0.918300	0.854500	0.013100
O171	O17	0.928500	0.830100	0.800300
O181	O18	0.269600	0.497300	0.873500
O191	O19	0.161000	0.304700	0.824900
O201	O20	0.908200	0.269000	0.811400
O211	O21	0.122700	0.980500	0.263500
O221	O22	0.382400	0.039800	0.131400
O231	O23	0.581700	0.986900	0.145500
O241	O24	0.571500	0.199700	0.169900
O251	O25	0.230400	0.126500	0.502700
O261	O26	0.339000	0.175100	0.695300
O271	O27	0.591800	0.188600	0.731000
O281	O28	0.377300	0.736500	0.019500
