data_QUGZEZ_clean_PM
_symmetry_space_group_name_H-M	'P1'
_cell_length_a	17.106500
_cell_length_b	17.106500
_cell_length_c	17.106500
_cell_angle_alpha	90.000000
_cell_angle_beta	90.000000
_cell_angle_gamma	90.000000
_symmetry_Int_Tables_number 1

loop_
_symmetry_equiv_pos_as_xyz
'x,y,z'

loop_
_atom_site_label
_atom_site_type_symbol
_atom_site_fract_x
_atom_site_fract_y
_atom_site_fract_z
N11	N1	0.938000	0.395600	0.229400
N21	N2	0.920700	0.446100	0.173800
N31	N3	0.010800	0.367000	0.214600
N41	N4	0.979100	0.450400	0.121100
C11	C1	0.032800	0.403400	0.149500
N51	N5	0.562000	0.104400	0.229400
N61	N6	0.579300	0.053900	0.173800
N71	N7	0.489200	0.133000	0.214600
N81	N8	0.520900	0.049600	0.121100
C21	C2	0.467200	0.096600	0.149500
N91	N9	0.562000	0.395600	0.270600
N101	N10	0.579300	0.446100	0.326200
N111	N11	0.489200	0.367000	0.285400
N121	N12	0.520900	0.450400	0.378900
C31	C3	0.467200	0.403400	0.350500
N131	N13	0.938000	0.104400	0.270600
N141	N14	0.920700	0.053900	0.326200
N151	N15	0.010800	0.133000	0.285400
N161	N16	0.979100	0.049600	0.378900
C41	C4	0.032800	0.096600	0.350500
N171	N17	0.229400	0.938000	0.395600
N181	N18	0.173800	0.920700	0.446100
N191	N19	0.214600	0.010800	0.367000
N201	N20	0.121100	0.979100	0.450400
C51	C5	0.149500	0.032800	0.403400
N211	N21	0.229400	0.562000	0.104400
N221	N22	0.173800	0.579300	0.053900
N231	N23	0.214600	0.489200	0.133000
N241	N24	0.121100	0.520900	0.049600
C61	C6	0.149500	0.467200	0.096600
N251	N25	0.270600	0.562000	0.395600
N261	N26	0.326200	0.579300	0.446100
N271	N27	0.285400	0.489200	0.367000
N281	N28	0.378900	0.520900	0.450400
C71	C7	0.350500	0.467200	0.403400
N291	N29	0.270600	0.938000	0.104400
N301	N30	0.326200	0.920700	0.053900
N311	N31	0.285400	0.010800	0.133000
N321	N32	0.378900	0.979100	0.049600
C81	C8	0.350500	0.032800	0.096600
N331	N33	0.395600	0.229400	0.938000
N341	N34	0.446100	0.173800	0.920700
N351	N35	0.367000	0.214600	0.010800
N361	N36	0.450400	0.121100	0.979100
C91	C9	0.403400	0.149500	0.032800
N371	N37	0.104400	0.229400	0.562000
N381	N38	0.053900	0.173800	0.579300
N391	N39	0.133000	0.214600	0.489200
N401	N40	0.049600	0.121100	0.520900
C101	C10	0.096600	0.149500	0.467200
N411	N41	0.395600	0.270600	0.562000
N421	N42	0.446100	0.326200	0.579300
N431	N43	0.367000	0.285400	0.489200
N441	N44	0.450400	0.378900	0.520900
C111	C11	0.403400	0.350500	0.467200
N451	N45	0.104400	0.270600	0.938000
N461	N46	0.053900	0.326200	0.920700
N471	N47	0.133000	0.285400	0.010800
N481	N48	0.049600	0.378900	0.979100
C121	C12	0.096600	0.350500	0.032800
N491	N49	0.395600	0.938000	0.270600
N501	N50	0.446100	0.920700	0.326200
N511	N51	0.367000	0.010800	0.285400
N521	N52	0.450400	0.979100	0.378900
C131	C13	0.403400	0.032800	0.350500
N531	N53	0.104400	0.562000	0.270600
N541	N54	0.053900	0.579300	0.326200
N551	N55	0.133000	0.489200	0.285400
N561	N56	0.049600	0.520900	0.378900
C141	C14	0.096600	0.467200	0.350500
N571	N57	0.395600	0.562000	0.229400
N581	N58	0.446100	0.579300	0.173800
N591	N59	0.367000	0.489200	0.214600
N601	N60	0.450400	0.520900	0.121100
C151	C15	0.403400	0.467200	0.149500
N611	N61	0.104400	0.938000	0.229400
N621	N62	0.053900	0.920700	0.173800
N631	N63	0.133000	0.010800	0.214600
N641	N64	0.049600	0.979100	0.121100
C161	C16	0.096600	0.032800	0.149500
N651	N65	0.938000	0.229400	0.104400
N661	N66	0.920700	0.173800	0.053900
N671	N67	0.010800	0.214600	0.133000
N681	N68	0.979100	0.121100	0.049600
C171	C17	0.032800	0.149500	0.096600
N691	N69	0.562000	0.229400	0.395600
N701	N70	0.579300	0.173800	0.446100
N711	N71	0.489200	0.214600	0.367000
N721	N72	0.520900	0.121100	0.450400
C181	C18	0.467200	0.149500	0.403400
N731	N73	0.562000	0.270600	0.104400
N741	N74	0.579300	0.326200	0.053900
N751	N75	0.489200	0.285400	0.133000
N761	N76	0.520900	0.378900	0.049600
C191	C19	0.467200	0.350500	0.096600
N771	N77	0.938000	0.270600	0.395600
N781	N78	0.920700	0.326200	0.446100
N791	N79	0.010800	0.285400	0.367000
N801	N80	0.979100	0.378900	0.450400
C201	C20	0.032800	0.350500	0.403400
N811	N81	0.229400	0.395600	0.562000
N821	N82	0.173800	0.446100	0.579300
N831	N83	0.214600	0.367000	0.489200
N841	N84	0.121100	0.450400	0.520900
C211	C21	0.149500	0.403400	0.467200
N851	N85	0.229400	0.104400	0.938000
N861	N86	0.173800	0.053900	0.920700
N871	N87	0.214600	0.133000	0.010800
N881	N88	0.121100	0.049600	0.979100
C221	C22	0.149500	0.096600	0.032800
N891	N89	0.270600	0.395600	0.938000
N901	N90	0.326200	0.446100	0.920700
N911	N91	0.285400	0.367000	0.010800
N921	N92	0.378900	0.450400	0.979100
C231	C23	0.350500	0.403400	0.032800
N931	N93	0.270600	0.104400	0.562000
N941	N94	0.326200	0.053900	0.579300
N951	N95	0.285400	0.133000	0.489200
N961	N96	0.378900	0.049600	0.520900
C241	C24	0.350500	0.096600	0.467200
N971	N97	0.062000	0.604400	0.770600
N981	N98	0.079300	0.553900	0.826200
N991	N99	0.989200	0.633000	0.785400
N1001	N100	0.020900	0.549600	0.878900
C251	C25	0.967200	0.596600	0.850500
N1011	N101	0.438000	0.895600	0.770600
N1021	N102	0.420700	0.946100	0.826200
N1031	N103	0.510800	0.867000	0.785400
N1041	N104	0.479100	0.950400	0.878900
C261	C26	0.532800	0.903400	0.850500
N1051	N105	0.438000	0.604400	0.729400
N1061	N106	0.420700	0.553900	0.673800
N1071	N107	0.510800	0.633000	0.714600
N1081	N108	0.479100	0.549600	0.621100
C271	C27	0.532800	0.596600	0.649500
N1091	N109	0.062000	0.895600	0.729400
N1101	N110	0.079300	0.946100	0.673800
N1111	N111	0.989200	0.867000	0.714600
N1121	N112	0.020900	0.950400	0.621100
C281	C28	0.967200	0.903400	0.649500
N1131	N113	0.770600	0.062000	0.604400
N1141	N114	0.826200	0.079300	0.553900
N1151	N115	0.785400	0.989200	0.633000
N1161	N116	0.878900	0.020900	0.549600
C291	C29	0.850500	0.967200	0.596600
N1171	N117	0.770600	0.438000	0.895600
N1181	N118	0.826200	0.420700	0.946100
N1191	N119	0.785400	0.510800	0.867000
N1201	N120	0.878900	0.479100	0.950400
C301	C30	0.850500	0.532800	0.903400
N1211	N121	0.729400	0.438000	0.604400
N1221	N122	0.673800	0.420700	0.553900
N1231	N123	0.714600	0.510800	0.633000
N1241	N124	0.621100	0.479100	0.549600
C311	C31	0.649500	0.532800	0.596600
N1251	N125	0.729400	0.062000	0.895600
N1261	N126	0.673800	0.079300	0.946100
N1271	N127	0.714600	0.989200	0.867000
N1281	N128	0.621100	0.020900	0.950400
C321	C32	0.649500	0.967200	0.903400
N1291	N129	0.604400	0.770600	0.062000
N1301	N130	0.553900	0.826200	0.079300
N1311	N131	0.633000	0.785400	0.989200
N1321	N132	0.549600	0.878900	0.020900
C331	C33	0.596600	0.850500	0.967200
N1331	N133	0.895600	0.770600	0.438000
N1341	N134	0.946100	0.826200	0.420700
N1351	N135	0.867000	0.785400	0.510800
N1361	N136	0.950400	0.878900	0.479100
C341	C34	0.903400	0.850500	0.532800
N1371	N137	0.604400	0.729400	0.438000
N1381	N138	0.553900	0.673800	0.420700
N1391	N139	0.633000	0.714600	0.510800
N1401	N140	0.549600	0.621100	0.479100
C351	C35	0.596600	0.649500	0.532800
N1411	N141	0.895600	0.729400	0.062000
N1421	N142	0.946100	0.673800	0.079300
N1431	N143	0.867000	0.714600	0.989200
N1441	N144	0.950400	0.621100	0.020900
C361	C36	0.903400	0.649500	0.967200
N1451	N145	0.604400	0.062000	0.729400
N1461	N146	0.553900	0.079300	0.673800
N1471	N147	0.633000	0.989200	0.714600
N1481	N148	0.549600	0.020900	0.621100
C371	C37	0.596600	0.967200	0.649500
N1491	N149	0.895600	0.438000	0.729400
N1501	N150	0.946100	0.420700	0.673800
N1511	N151	0.867000	0.510800	0.714600
N1521	N152	0.950400	0.479100	0.621100
C381	C38	0.903400	0.532800	0.649500
N1531	N153	0.604400	0.438000	0.770600
N1541	N154	0.553900	0.420700	0.826200
N1551	N155	0.633000	0.510800	0.785400
N1561	N156	0.549600	0.479100	0.878900
C391	C39	0.596600	0.532800	0.850500
N1571	N157	0.895600	0.062000	0.770600
N1581	N158	0.946100	0.079300	0.826200
N1591	N159	0.867000	0.989200	0.785400
N1601	N160	0.950400	0.020900	0.878900
C401	C40	0.903400	0.967200	0.850500
N1611	N161	0.062000	0.770600	0.895600
N1621	N162	0.079300	0.826200	0.946100
N1631	N163	0.989200	0.785400	0.867000
N1641	N164	0.020900	0.878900	0.950400
C411	C41	0.967200	0.850500	0.903400
N1651	N165	0.438000	0.770600	0.604400
N1661	N166	0.420700	0.826200	0.553900
N1671	N167	0.510800	0.785400	0.633000
N1681	N168	0.479100	0.878900	0.549600
C421	C42	0.532800	0.850500	0.596600
N1691	N169	0.438000	0.729400	0.895600
N1701	N170	0.420700	0.673800	0.946100
N1711	N171	0.510800	0.714600	0.867000
N1721	N172	0.479100	0.621100	0.950400
C431	C43	0.532800	0.649500	0.903400
N1731	N173	0.062000	0.729400	0.604400
N1741	N174	0.079300	0.673800	0.553900
N1751	N175	0.989200	0.714600	0.633000
N1761	N176	0.020900	0.621100	0.549600
C441	C44	0.967200	0.649500	0.596600
N1771	N177	0.770600	0.604400	0.438000
N1781	N178	0.826200	0.553900	0.420700
N1791	N179	0.785400	0.633000	0.510800
N1801	N180	0.878900	0.549600	0.479100
C451	C45	0.850500	0.596600	0.532800
N1811	N181	0.770600	0.895600	0.062000
N1821	N182	0.826200	0.946100	0.079300
N1831	N183	0.785400	0.867000	0.989200
N1841	N184	0.878900	0.950400	0.020900
C461	C46	0.850500	0.903400	0.967200
N1851	N185	0.729400	0.604400	0.062000
N1861	N186	0.673800	0.553900	0.079300
N1871	N187	0.714600	0.633000	0.989200
N1881	N188	0.621100	0.549600	0.020900
C471	C47	0.649500	0.596600	0.967200
N1891	N189	0.729400	0.895600	0.438000
N1901	N190	0.673800	0.946100	0.420700
N1911	N191	0.714600	0.867000	0.510800
N1921	N192	0.621100	0.950400	0.479100
C481	C48	0.649500	0.903400	0.532800
Gd11	Gd1	0.091610	0.250000	0.250000
Gd21	Gd2	0.408390	0.250000	0.250000
Gd31	Gd3	0.250000	0.091610	0.250000
Gd41	Gd4	0.250000	0.408390	0.250000
Gd51	Gd5	0.250000	0.250000	0.091610
Gd61	Gd6	0.250000	0.250000	0.408390
Gd71	Gd7	0.908390	0.750000	0.750000
Gd81	Gd8	0.591610	0.750000	0.750000
Gd91	Gd9	0.750000	0.908390	0.750000
Gd101	Gd10	0.750000	0.591610	0.750000
Gd111	Gd11	0.750000	0.750000	0.908390
Gd121	Gd12	0.750000	0.750000	0.591610
C491	C49	0.110600	0.389400	0.110600
O11	O1	0.157600	0.342400	0.157600
C501	C50	0.389400	0.110600	0.110600
O21	O2	0.342400	0.157600	0.157600
C511	C51	0.389400	0.389400	0.389400
O31	O3	0.342400	0.342400	0.342400
C521	C52	0.110600	0.110600	0.389400
O41	O4	0.157600	0.157600	0.342400
C531	C53	0.389400	0.110600	0.389400
O51	O5	0.342400	0.157600	0.342400
C541	C54	0.110600	0.389400	0.389400
O61	O6	0.157600	0.342400	0.342400
C551	C55	0.389400	0.389400	0.110600
O71	O7	0.342400	0.342400	0.157600
C561	C56	0.110600	0.110600	0.110600
O81	O8	0.157600	0.157600	0.157600
C571	C57	0.889400	0.610600	0.889400
O91	O9	0.842400	0.657600	0.842400
C581	C58	0.610600	0.889400	0.889400
O101	O10	0.657600	0.842400	0.842400
C591	C59	0.610600	0.610600	0.610600
O111	O11	0.657600	0.657600	0.657600
C601	C60	0.889400	0.889400	0.610600
O121	O12	0.842400	0.842400	0.657600
C611	C61	0.610600	0.889400	0.610600
O131	O13	0.657600	0.842400	0.657600
C621	C62	0.889400	0.610600	0.610600
O141	O14	0.842400	0.657600	0.657600
C631	C63	0.610600	0.610600	0.889400
O151	O15	0.657600	0.657600	0.842400
C641	C64	0.889400	0.889400	0.889400
O161	O16	0.842400	0.842400	0.842400
Mn11	Mn1	0.000000	0.500000	0.000000
Mn21	Mn2	0.500000	0.000000	0.000000
Mn31	Mn3	0.500000	0.500000	0.500000
Mn41	Mn4	0.000000	0.000000	0.500000
Mn51	Mn5	0.500000	0.000000	0.500000
Mn61	Mn6	0.000000	0.500000	0.500000
Mn71	Mn7	0.500000	0.500000	0.000000
Mn81	Mn8	0.000000	0.000000	0.000000
