data_QUJFUX_clean_PM
_symmetry_space_group_name_H-M	'P1'
_cell_length_a	9.168300
_cell_length_b	9.168300
_cell_length_c	16.023900
_cell_angle_alpha	73.897900
_cell_angle_beta	73.897900
_cell_angle_gamma	72.323000
_symmetry_Int_Tables_number 1

loop_
_symmetry_equiv_pos_as_xyz
'x,y,z'

loop_
_atom_site_label
_atom_site_type_symbol
_atom_site_fract_x
_atom_site_fract_y
_atom_site_fract_z
Cd11	Cd1	0.751990	0.668630	0.159390
Cd21	Cd2	0.331370	0.248010	0.340610
Cd31	Cd3	0.248010	0.331370	0.840610
Cd41	Cd4	0.668630	0.751990	0.659390
Cd51	Cd5	0.013990	0.986010	0.250000
Cd61	Cd6	0.986010	0.013990	0.750000
H11	H1	0.633600	0.731200	0.972600
H21	H2	0.393400	0.846600	0.258300
H31	H3	0.115100	0.028900	0.023100
H41	H4	0.268800	0.366400	0.527400
H51	H5	0.153400	0.606600	0.241700
H61	H6	0.971100	0.884900	0.476900
H71	H7	0.366400	0.268800	0.027400
H81	H8	0.606600	0.153400	0.741700
H91	H9	0.884900	0.971100	0.976900
H101	H10	0.731200	0.633600	0.472600
H111	H11	0.846600	0.393400	0.758300
H121	H12	0.028900	0.115100	0.523100
C11	C1	0.527800	0.805600	0.825600
C21	C2	0.447500	0.844100	0.914400
C31	C3	0.530600	0.790400	0.982500
C41	C4	0.457500	0.826500	0.065100
C51	C5	0.388800	0.853800	0.200000
C61	C6	0.302800	0.913400	0.080800
C71	C7	0.218300	0.970100	0.012900
C81	C8	0.292100	0.936300	0.930700
C91	C9	0.191900	0.990700	0.862500
C101	C10	0.194400	0.472200	0.674400
C111	C11	0.155900	0.552500	0.585600
C121	C12	0.209600	0.469400	0.517500
C131	C13	0.173500	0.542500	0.434900
C141	C14	0.146200	0.611200	0.300000
C151	C15	0.086600	0.697200	0.419200
C161	C16	0.029900	0.781700	0.487100
C171	C17	0.063700	0.707900	0.569300
C181	C18	0.009300	0.808100	0.637500
C191	C19	0.472200	0.194400	0.174400
C201	C20	0.552500	0.155900	0.085600
C211	C21	0.469400	0.209600	0.017500
C221	C22	0.542500	0.173500	0.934900
C231	C23	0.611200	0.146200	0.800000
C241	C24	0.697200	0.086600	0.919200
C251	C25	0.781700	0.029900	0.987100
C261	C26	0.707900	0.063700	0.069300
C271	C27	0.808100	0.009300	0.137500
C281	C28	0.805600	0.527800	0.325600
C291	C29	0.844100	0.447500	0.414400
C301	C30	0.790400	0.530600	0.482500
C311	C31	0.826500	0.457500	0.565100
C321	C32	0.853800	0.388800	0.700000
C331	C33	0.913400	0.302800	0.580800
C341	C34	0.970100	0.218300	0.512900
C351	C35	0.936300	0.292100	0.430700
C361	C36	0.990700	0.191900	0.362500
N11	N1	0.510700	0.789700	0.142500
N21	N2	0.259500	0.929300	0.168100
N31	N3	0.210300	0.489300	0.357500
N41	N4	0.070700	0.740500	0.331900
N51	N5	0.489300	0.210300	0.857500
N61	N6	0.740500	0.070700	0.831900
N71	N7	0.789700	0.510700	0.642500
N81	N8	0.929300	0.259500	0.668100
O11	O1	0.642000	0.686800	0.821200
O21	O2	0.482800	0.894600	0.757300
O31	O3	0.143200	0.134800	0.832800
O41	O4	0.153300	0.888300	0.839800
O51	O5	0.313200	0.358000	0.678800
O61	O6	0.105400	0.517200	0.742700
O71	O7	0.865200	0.856800	0.667200
O81	O8	0.111700	0.846700	0.660200
O91	O9	0.358000	0.313200	0.178800
O101	O10	0.517200	0.105400	0.242700
O111	O11	0.856800	0.865200	0.167200
O121	O12	0.846700	0.111700	0.160200
O131	O13	0.686800	0.642000	0.321200
O141	O14	0.894600	0.482800	0.257300
O151	O15	0.134800	0.143200	0.332800
O161	O16	0.888300	0.153300	0.339800
