data_QULLEP_clean_PM
_symmetry_space_group_name_H-M	'P1'
_cell_length_a	9.675500
_cell_length_b	12.264000
_cell_length_c	28.899000
_cell_angle_alpha	90.000000
_cell_angle_beta	90.000000
_cell_angle_gamma	90.000000
_symmetry_Int_Tables_number 1

loop_
_symmetry_equiv_pos_as_xyz
'x,y,z'

loop_
_atom_site_label
_atom_site_type_symbol
_atom_site_fract_x
_atom_site_fract_y
_atom_site_fract_z
Cd11	Cd1	0.500610	0.845510	0.026350
Cd21	Cd2	0.500610	0.154490	0.973650
Cd31	Cd3	0.000610	0.845510	0.473650
Cd41	Cd4	0.000610	0.154490	0.526350
H11	H1	0.737700	0.518200	0.089600
H21	H2	0.794400	0.394500	0.147400
H31	H3	0.578400	0.569100	0.239300
H41	H4	0.520300	0.690400	0.182100
H51	H5	0.727600	0.473600	0.290000
H61	H6	0.588900	0.410100	0.280200
H71	H7	0.700800	0.048700	0.320100
H81	H8	0.903700	0.070700	0.361700
H91	H9	0.008300	0.237300	0.366100
H101	H10	0.904700	0.388100	0.332400
H111	H11	0.580400	0.183200	0.237900
H121	H12	0.494600	0.251100	0.273700
H131	H13	0.460800	0.236100	0.350300
H141	H14	0.301900	0.954300	0.304400
H151	H15	0.325800	0.222500	0.416200
H161	H16	0.160100	0.945700	0.368800
H171	H17	0.535100	0.631900	0.956200
H181	H18	0.408400	0.496500	0.920900
H191	H19	0.171000	0.493100	0.929500
H201	H20	0.957500	0.579600	0.963400
H211	H21	0.860000	0.710600	0.006200
H221	H22	0.887600	0.884200	0.053300
H231	H23	0.027400	0.017900	0.083000
H241	H24	0.264400	0.006500	0.070700
H251	H25	0.737700	0.481800	0.910400
H261	H26	0.794400	0.605500	0.852600
H271	H27	0.578400	0.430900	0.760700
H281	H28	0.520300	0.309600	0.817900
H291	H29	0.727600	0.526400	0.710000
H301	H30	0.588900	0.589900	0.719800
H311	H31	0.700800	0.951300	0.679900
H321	H32	0.903700	0.929300	0.638300
H331	H33	0.008300	0.762700	0.633900
H341	H34	0.904700	0.611900	0.667600
H351	H35	0.580400	0.816800	0.762100
H361	H36	0.494600	0.748900	0.726300
H371	H37	0.460800	0.763900	0.649700
H381	H38	0.301900	0.045700	0.695600
H391	H39	0.325800	0.777500	0.583800
H401	H40	0.160100	0.054300	0.631200
H411	H41	0.535100	0.368100	0.043800
H421	H42	0.408400	0.503500	0.079100
H431	H43	0.171000	0.506900	0.070500
H441	H44	0.957500	0.420400	0.036600
H451	H45	0.860000	0.289400	0.993800
H461	H46	0.887600	0.115800	0.946700
H471	H47	0.027400	0.982100	0.917000
H481	H48	0.264400	0.993500	0.929300
H491	H49	0.237700	0.518200	0.410400
H501	H50	0.294400	0.394500	0.352600
H511	H51	0.078400	0.569100	0.260700
H521	H52	0.020300	0.690400	0.317900
H531	H53	0.227600	0.473600	0.210000
H541	H54	0.088900	0.410100	0.219800
H551	H55	0.200800	0.048700	0.179900
H561	H56	0.403700	0.070700	0.138300
H571	H57	0.508300	0.237300	0.133900
H581	H58	0.404700	0.388100	0.167600
H591	H59	0.080400	0.183200	0.262100
H601	H60	0.994600	0.251100	0.226300
H611	H61	0.960800	0.236100	0.149700
H621	H62	0.801900	0.954300	0.195600
H631	H63	0.825800	0.222500	0.083800
H641	H64	0.660100	0.945700	0.131200
H651	H65	0.035100	0.631900	0.543800
H661	H66	0.908400	0.496500	0.579100
H671	H67	0.671000	0.493100	0.570500
H681	H68	0.457500	0.579600	0.536600
H691	H69	0.360000	0.710600	0.493800
H701	H70	0.387600	0.884200	0.446700
H711	H71	0.527400	0.017900	0.417000
H721	H72	0.764400	0.006500	0.429300
H731	H73	0.237700	0.481800	0.589600
H741	H74	0.294400	0.605500	0.647400
H751	H75	0.078400	0.430900	0.739300
H761	H76	0.020300	0.309600	0.682100
H771	H77	0.227600	0.526400	0.790000
H781	H78	0.088900	0.589900	0.780200
H791	H79	0.200800	0.951300	0.820100
H801	H80	0.403700	0.929300	0.861700
H811	H81	0.508300	0.762700	0.866100
H821	H82	0.404700	0.611900	0.832400
H831	H83	0.080400	0.816800	0.737900
H841	H84	0.994600	0.748900	0.773700
H851	H85	0.960800	0.763900	0.850300
H861	H86	0.801900	0.045700	0.804400
H871	H87	0.825800	0.777500	0.916200
H881	H88	0.660100	0.054300	0.868800
H891	H89	0.035100	0.368100	0.456200
H901	H90	0.908400	0.503500	0.420900
H911	H91	0.671000	0.506900	0.429500
H921	H92	0.457500	0.420400	0.463400
H931	H93	0.360000	0.289400	0.506200
H941	H94	0.387600	0.115800	0.553300
H951	H95	0.527400	0.982100	0.583000
H961	H96	0.764400	0.993500	0.570700
C11	C1	0.585900	0.698100	0.093090
C21	C2	0.622700	0.619300	0.129650
C31	C3	0.705200	0.528800	0.119570
C41	C4	0.739100	0.454400	0.154220
C51	C5	0.690500	0.469400	0.198750
C61	C6	0.609900	0.558300	0.209210
C71	C7	0.576200	0.631100	0.174840
C81	C8	0.688800	0.406900	0.277540
C91	C9	0.746000	0.307300	0.302910
C101	C10	0.682700	0.204800	0.299090
C111	C11	0.742300	0.117000	0.321700
C121	C12	0.864200	0.130400	0.346850
C131	C13	0.925800	0.229600	0.349960
C141	C14	0.865100	0.319400	0.329000
C151	C15	0.553900	0.187900	0.270250
C161	C16	0.396200	0.095700	0.321230
C171	C17	0.402100	0.176800	0.354230
C181	C18	0.306000	0.008900	0.326650
C191	C19	0.319400	0.169100	0.393420
C201	C20	0.221400	0.003600	0.365500
C211	C21	0.227400	0.083500	0.399290
C221	C22	0.137400	0.079300	0.441470
C231	C23	0.439400	0.632400	0.959200
C241	C24	0.363800	0.550100	0.938100
C251	C25	0.223000	0.548600	0.942800
C261	C26	0.159000	0.631200	0.967930
C271	C27	0.013000	0.633800	0.976090
C281	C28	0.955000	0.711800	0.001400
C291	C29	0.035200	0.797400	0.021510
C301	C30	0.982300	0.881600	0.047800
C311	C31	0.064600	0.960800	0.065800
C321	C32	0.206900	0.953900	0.057880
C331	C33	0.180500	0.798100	0.014640
C341	C34	0.242400	0.711900	0.987790
C351	C35	0.585900	0.301900	0.906910
C361	C36	0.622700	0.380700	0.870350
C371	C37	0.705200	0.471200	0.880430
C381	C38	0.739100	0.545600	0.845780
C391	C39	0.690500	0.530600	0.801250
C401	C40	0.609900	0.441700	0.790790
C411	C41	0.576200	0.368900	0.825160
C421	C42	0.688800	0.593100	0.722460
C431	C43	0.746000	0.692700	0.697090
C441	C44	0.682700	0.795200	0.700910
C451	C45	0.742300	0.883000	0.678300
C461	C46	0.864200	0.869600	0.653150
C471	C47	0.925800	0.770400	0.650040
C481	C48	0.865100	0.680600	0.671000
C491	C49	0.553900	0.812100	0.729750
C501	C50	0.396200	0.904300	0.678770
C511	C51	0.402100	0.823200	0.645770
C521	C52	0.306000	0.991100	0.673350
C531	C53	0.319400	0.830900	0.606580
C541	C54	0.221400	0.996400	0.634500
C551	C55	0.227400	0.916500	0.600710
C561	C56	0.137400	0.920700	0.558530
C571	C57	0.439400	0.367600	0.040800
C581	C58	0.363800	0.449900	0.061900
C591	C59	0.223000	0.451400	0.057200
C601	C60	0.159000	0.368800	0.032070
C611	C61	0.013000	0.366200	0.023910
C621	C62	0.955000	0.288200	0.998600
C631	C63	0.035200	0.202600	0.978490
C641	C64	0.982300	0.118400	0.952200
C651	C65	0.064600	0.039200	0.934200
C661	C66	0.206900	0.046100	0.942120
C671	C67	0.180500	0.201900	0.985360
C681	C68	0.242400	0.288100	0.012210
C691	C69	0.085900	0.698100	0.406910
C701	C70	0.122700	0.619300	0.370350
C711	C71	0.205200	0.528800	0.380430
C721	C72	0.239100	0.454400	0.345780
C731	C73	0.190500	0.469400	0.301250
C741	C74	0.109900	0.558300	0.290790
C751	C75	0.076200	0.631100	0.325160
C761	C76	0.188800	0.406900	0.222460
C771	C77	0.246000	0.307300	0.197090
C781	C78	0.182700	0.204800	0.200910
C791	C79	0.242300	0.117000	0.178300
C801	C80	0.364200	0.130400	0.153150
C811	C81	0.425800	0.229600	0.150040
C821	C82	0.365100	0.319400	0.171000
C831	C83	0.053900	0.187900	0.229750
C841	C84	0.896200	0.095700	0.178770
C851	C85	0.902100	0.176800	0.145770
C861	C86	0.806000	0.008900	0.173350
C871	C87	0.819400	0.169100	0.106580
C881	C88	0.721400	0.003600	0.134500
C891	C89	0.727400	0.083500	0.100710
C901	C90	0.637400	0.079300	0.058530
C911	C91	0.939400	0.632400	0.540800
C921	C92	0.863800	0.550100	0.561900
C931	C93	0.723000	0.548600	0.557200
C941	C94	0.659000	0.631200	0.532070
C951	C95	0.513000	0.633800	0.523910
C961	C96	0.455000	0.711800	0.498600
C971	C97	0.535200	0.797400	0.478490
C981	C98	0.482300	0.881600	0.452200
C991	C99	0.564600	0.960800	0.434200
C1001	C100	0.706900	0.953900	0.442120
C1011	C101	0.680500	0.798100	0.485360
C1021	C102	0.742400	0.711900	0.512210
C1031	C103	0.085900	0.301900	0.593090
C1041	C104	0.122700	0.380700	0.629650
C1051	C105	0.205200	0.471200	0.619570
C1061	C106	0.239100	0.545600	0.654220
C1071	C107	0.190500	0.530600	0.698750
C1081	C108	0.109900	0.441700	0.709210
C1091	C109	0.076200	0.368900	0.674840
C1101	C110	0.188800	0.593100	0.777540
C1111	C111	0.246000	0.692700	0.802910
C1121	C112	0.182700	0.795200	0.799090
C1131	C113	0.242300	0.883000	0.821700
C1141	C114	0.364200	0.869600	0.846850
C1151	C115	0.425800	0.770400	0.849960
C1161	C116	0.365100	0.680600	0.829000
C1171	C117	0.053900	0.812100	0.770250
C1181	C118	0.896200	0.904300	0.821230
C1191	C119	0.902100	0.823200	0.854230
C1201	C120	0.806000	0.991100	0.826650
C1211	C121	0.819400	0.830900	0.893420
C1221	C122	0.721400	0.996400	0.865500
C1231	C123	0.727400	0.916500	0.899290
C1241	C124	0.637400	0.920700	0.941470
C1251	C125	0.939400	0.367600	0.459200
C1261	C126	0.863800	0.449900	0.438100
C1271	C127	0.723000	0.451400	0.442800
C1281	C128	0.659000	0.368800	0.467930
C1291	C129	0.513000	0.366200	0.476090
C1301	C130	0.455000	0.288200	0.501400
C1311	C131	0.535200	0.202600	0.521510
C1321	C132	0.482300	0.118400	0.547800
C1331	C133	0.564600	0.039200	0.565800
C1341	C134	0.706900	0.046100	0.557880
C1351	C135	0.680500	0.201900	0.514640
C1361	C136	0.742400	0.288100	0.487790
N11	N1	0.381400	0.711300	0.983310
N21	N2	0.262900	0.875200	0.032740
N31	N3	0.381400	0.288700	0.016690
N41	N4	0.262900	0.124800	0.967260
N51	N5	0.881400	0.711300	0.516690
N61	N6	0.762900	0.875200	0.467260
N71	N7	0.881400	0.288700	0.483310
N81	N8	0.762900	0.124800	0.532740
O11	O1	0.162600	0.147400	0.472790
O21	O2	0.639200	0.688500	0.053970
O31	O3	0.037600	0.013600	0.442960
O41	O4	0.498800	0.772000	0.100990
O51	O5	0.730100	0.391800	0.229910
O61	O6	0.477500	0.093400	0.282060
O71	O7	0.162600	0.852600	0.527210
O81	O8	0.639200	0.311500	0.946030
O91	O9	0.037600	0.986400	0.557040
O101	O10	0.498800	0.228000	0.899010
O111	O11	0.730100	0.608200	0.770090
O121	O12	0.477500	0.906600	0.717940
O131	O13	0.662600	0.147400	0.027210
O141	O14	0.139200	0.688500	0.446030
O151	O15	0.537600	0.013600	0.057040
O161	O16	0.998800	0.772000	0.399010
O171	O17	0.230100	0.391800	0.270090
O181	O18	0.977500	0.093400	0.217940
O191	O19	0.662600	0.852600	0.972790
O201	O20	0.139200	0.311500	0.553970
O211	O21	0.537600	0.986400	0.942960
O221	O22	0.998800	0.228000	0.600990
O231	O23	0.230100	0.608200	0.729910
O241	O24	0.977500	0.906600	0.782060
