data_QULMIU_clean_PM
_symmetry_space_group_name_H-M	'P1'
_cell_length_a	8.116000
_cell_length_b	17.194600
_cell_length_c	17.194600
_cell_angle_alpha	62.427700
_cell_angle_beta	80.947600
_cell_angle_gamma	99.052400
_symmetry_Int_Tables_number 1

loop_
_symmetry_equiv_pos_as_xyz
'x,y,z'

loop_
_atom_site_label
_atom_site_type_symbol
_atom_site_fract_x
_atom_site_fract_y
_atom_site_fract_z
In11	In1	0.075950	0.299990	0.268690
In21	In2	0.344640	0.268690	0.431320
In31	In3	0.775960	0.431320	0.299990
In41	In4	0.924050	0.700010	0.731310
In51	In5	0.655360	0.731310	0.568680
In61	In6	0.224040	0.568680	0.700010
H11	H1	0.943800	0.728500	0.862900
H21	H2	0.099100	0.801300	0.798000
H31	H3	0.751500	0.261800	0.366700
H41	H4	0.377500	0.550500	0.032900
H51	H5	0.366500	0.743900	0.786500
H61	H6	0.934200	0.617000	0.991700
H71	H7	0.806700	0.862900	0.408600
H81	H8	0.897100	0.798000	0.400700
H91	H9	0.118200	0.366700	0.371500
H101	H10	0.410400	0.032900	0.416600
H111	H11	0.153000	0.786500	0.469600
H121	H12	0.925900	0.991700	0.391300
H131	H13	0.215300	0.408600	0.728500
H141	H14	0.297800	0.400700	0.801300
H151	H15	0.489700	0.371500	0.261800
H161	H16	0.827000	0.416600	0.550500
H171	H17	0.622600	0.469600	0.743900
H181	H18	0.317200	0.391300	0.617000
H191	H19	0.056200	0.271500	0.137100
H201	H20	0.900900	0.198700	0.202000
H211	H21	0.248500	0.738200	0.633300
H221	H22	0.622500	0.449500	0.967100
H231	H23	0.633500	0.256100	0.213500
H241	H24	0.065800	0.383000	0.008300
H251	H25	0.193300	0.137100	0.591400
H261	H26	0.102900	0.202000	0.599300
H271	H27	0.881800	0.633300	0.628500
H281	H28	0.589600	0.967100	0.583400
H291	H29	0.847000	0.213500	0.530400
H301	H30	0.074100	0.008300	0.608700
H311	H31	0.784700	0.591400	0.271500
H321	H32	0.702200	0.599300	0.198700
H331	H33	0.510300	0.628500	0.738200
H341	H34	0.173000	0.583400	0.449500
H351	H35	0.377400	0.530400	0.256100
H361	H36	0.682800	0.608700	0.383000
C11	C1	0.050220	0.498140	0.122080
C21	C2	0.141940	0.570680	0.026260
C31	C3	0.316850	0.585050	0.994400
C41	C4	0.402830	0.650230	0.905740
C51	C5	0.595700	0.668600	0.873800
C61	C6	0.310930	0.701930	0.847040
C71	C7	0.136800	0.689310	0.880710
C81	C8	0.051160	0.624560	0.969680
C91	C9	0.172300	0.122080	0.379780
C101	C10	0.168200	0.026260	0.403060
C111	C11	0.311250	0.994400	0.420550
C121	C12	0.308570	0.905740	0.444030
C131	C13	0.469500	0.873800	0.457600
C141	C14	0.157970	0.847040	0.451030
C151	C15	0.017510	0.880710	0.429980
C161	C16	0.020840	0.969680	0.405760
C171	C17	0.552080	0.379780	0.498140
C181	C18	0.571260	0.403060	0.570680
C191	C19	0.731800	0.420550	0.585050
C201	C20	0.752600	0.444030	0.650230
C211	C21	0.927100	0.457600	0.668600
C221	C22	0.609000	0.451030	0.701930
C231	C23	0.447490	0.429980	0.689310
C241	C24	0.426600	0.405760	0.624560
C251	C25	0.949780	0.501860	0.877920
C261	C26	0.858060	0.429320	0.973740
C271	C27	0.683150	0.414950	0.005600
C281	C28	0.597170	0.349770	0.094260
C291	C29	0.404300	0.331400	0.126200
C301	C30	0.689070	0.298070	0.152960
C311	C31	0.863200	0.310690	0.119290
C321	C32	0.948840	0.375440	0.030320
C331	C33	0.827700	0.877920	0.620220
C341	C34	0.831800	0.973740	0.596940
C351	C35	0.688750	0.005600	0.579450
C361	C36	0.691430	0.094260	0.555970
C371	C37	0.530500	0.126200	0.542400
C381	C38	0.842030	0.152960	0.548970
C391	C39	0.982490	0.119290	0.570020
C401	C40	0.979160	0.030320	0.594240
C411	C41	0.447920	0.620220	0.501860
C421	C42	0.428740	0.596940	0.429320
C431	C43	0.268200	0.579450	0.414950
C441	C44	0.247400	0.555970	0.349770
C451	C45	0.072900	0.542400	0.331400
C461	C46	0.391000	0.548970	0.298070
C471	C47	0.552510	0.570020	0.310690
C481	C48	0.573400	0.594240	0.375440
N11	N1	0.041540	0.744680	0.821660
N21	N2	0.863200	0.821660	0.433660
N31	N3	0.296860	0.433660	0.744680
N41	N4	0.958460	0.255320	0.178340
N51	N5	0.136800	0.178340	0.566340
N61	N6	0.703140	0.566340	0.255320
O11	O1	0.130500	0.441380	0.164080
O21	O2	0.898870	0.498750	0.155840
O31	O3	0.655540	0.683200	0.793780
O41	O4	0.684660	0.668060	0.925580
O51	O5	0.832450	0.308680	0.321030
O61	O6	0.294580	0.164080	0.394540
O71	O7	0.054710	0.155840	0.345410
O81	O8	0.449320	0.793780	0.523020
O91	O9	0.610240	0.925580	0.406360
O101	O10	0.153480	0.321030	0.370290
O111	O11	0.689120	0.394540	0.441380
O121	O12	0.400120	0.345410	0.498750
O131	O13	0.972340	0.523020	0.683200
O141	O14	0.016600	0.406360	0.668060
O151	O15	0.523770	0.370290	0.308680
O161	O16	0.869500	0.558620	0.835920
O171	O17	0.101130	0.501250	0.844160
O181	O18	0.344460	0.316800	0.206220
O191	O19	0.315340	0.331940	0.074420
O201	O20	0.167550	0.691320	0.678970
O211	O21	0.705420	0.835920	0.605460
O221	O22	0.945290	0.844160	0.654590
O231	O23	0.550680	0.206220	0.476980
O241	O24	0.389760	0.074420	0.593640
O251	O25	0.846520	0.678970	0.629710
O261	O26	0.310880	0.605460	0.558620
O271	O27	0.599880	0.654590	0.501250
O281	O28	0.027660	0.476980	0.316800
O291	O29	0.983400	0.593640	0.331940
O301	O30	0.476230	0.629710	0.691320
