data_QUMFUB_clean_PM
_symmetry_space_group_name_H-M	'P1'
_cell_length_a	9.449100
_cell_length_b	10.076200
_cell_length_c	11.576300
_cell_angle_alpha	73.093000
_cell_angle_beta	89.597000
_cell_angle_gamma	80.097000
_symmetry_Int_Tables_number 1

loop_
_symmetry_equiv_pos_as_xyz
'x,y,z'

loop_
_atom_site_label
_atom_site_type_symbol
_atom_site_fract_x
_atom_site_fract_y
_atom_site_fract_z
Mn11	Mn1	0.009470	0.089320	0.167860
O11	O1	0.032600	0.212190	0.412330
O21	O2	0.981200	0.285000	0.212320
O31	O3	0.069700	0.898900	0.124650
O41	O4	0.991300	0.777000	0.011320
O51	O5	0.021100	0.544760	0.198140
O61	O6	0.104310	0.011800	0.665950
O71	O7	0.238100	0.918600	0.834100
O81	O8	0.772000	0.950700	0.759450
O91	O9	0.801250	0.082700	0.570700
O101	O10	0.480600	0.997800	0.711070
C11	C1	0.019000	0.301200	0.311100
C21	C2	0.049300	0.442000	0.306200
C31	C3	0.096000	0.495300	0.389800
H11	H1	0.123400	0.445700	0.471900
C41	C4	0.096200	0.640700	0.331000
H21	H2	0.123100	0.707100	0.366600
C51	C5	0.051300	0.665800	0.215600
C61	C6	0.034500	0.790900	0.109500
C71	C7	0.223500	0.986400	0.724900
C81	C8	0.344100	0.045600	0.658000
C91	C9	0.345600	0.141500	0.550300
H31	H3	0.265200	0.190300	0.496800
C101	C10	0.490600	0.155200	0.532300
H41	H4	0.526400	0.215700	0.463600
C111	C11	0.569100	0.067700	0.629100
C121	C12	0.727100	0.030000	0.656500
Mn21	Mn2	0.990530	0.910680	0.832140
O111	O11	0.967400	0.787810	0.587670
O121	O12	0.018800	0.715000	0.787680
O131	O13	0.930300	0.101100	0.875350
O141	O14	0.008700	0.223000	0.988680
O151	O15	0.978900	0.455240	0.801860
O161	O16	0.895690	0.988200	0.334050
O171	O17	0.761900	0.081400	0.165900
O181	O18	0.228000	0.049300	0.240550
O191	O19	0.198750	0.917300	0.429300
O201	O20	0.519400	0.002200	0.288930
C131	C13	0.981000	0.698800	0.688900
C141	C14	0.950700	0.558000	0.693800
C151	C15	0.904000	0.504700	0.610200
H51	H5	0.876600	0.554300	0.528100
C161	C16	0.903800	0.359300	0.669000
H61	H6	0.876900	0.292900	0.633400
C171	C17	0.948700	0.334200	0.784400
C181	C18	0.965500	0.209100	0.890500
C191	C19	0.776500	0.013600	0.275100
C201	C20	0.655900	0.954400	0.342000
C211	C21	0.654400	0.858500	0.449700
H71	H7	0.734800	0.809700	0.503200
C221	C22	0.509400	0.844800	0.467700
H81	H8	0.473600	0.784300	0.536400
C231	C23	0.430900	0.932300	0.370900
C241	C24	0.272900	0.970000	0.343500
Mn31	Mn3	0.000000	0.000000	0.500000
