data_QUNWAZ_clean_PM
_symmetry_space_group_name_H-M	'P1'
_cell_length_a	17.247100
_cell_length_b	18.932000
_cell_length_c	21.340000
_cell_angle_alpha	88.588000
_cell_angle_beta	73.431000
_cell_angle_gamma	66.759000
_symmetry_Int_Tables_number 1

loop_
_symmetry_equiv_pos_as_xyz
'x,y,z'

loop_
_atom_site_label
_atom_site_type_symbol
_atom_site_fract_x
_atom_site_fract_y
_atom_site_fract_z
O11	O1	0.451500	0.914300	0.522400
O21	O2	0.509900	0.987100	0.402800
O31	O3	0.372100	0.079700	0.526200
C11	C1	0.401500	0.887300	0.507800
Zn11	Zn1	0.412880	0.964030	0.392770
N11	N1	0.544500	0.017700	0.352600
C21	C2	0.371200	0.834900	0.553800
O41	O4	0.379700	0.898500	0.454100
N21	N2	0.339200	0.976800	0.332700
O51	O5	0.311500	0.059900	0.449600
O61	O6	0.512700	0.031700	0.303300
O71	O7	0.594900	0.051600	0.358400
C31	C3	0.318600	0.802400	0.537700
C41	C4	0.399700	0.816100	0.608800
C51	C5	0.299400	0.749200	0.578400
H11	H1	0.297900	0.816500	0.501200
C61	C6	0.372800	0.766100	0.649700
H21	H2	0.435500	0.838000	0.617900
C71	C7	0.320600	0.731300	0.636300
H31	H3	0.269700	0.723300	0.566000
H41	H4	0.391800	0.754200	0.686900
C81	C8	0.299100	0.674100	0.670600
C91	C9	0.284300	0.620000	0.698400
C101	C10	0.268200	0.559200	0.725100
C111	C11	0.269700	0.540100	0.788400
C121	C12	0.243200	0.515900	0.688200
C131	C13	0.286200	0.582700	0.837900
C141	C14	0.242900	0.482600	0.815100
C151	C15	0.244300	0.523700	0.615900
C161	C16	0.219500	0.456700	0.714100
C171	C17	0.359300	0.521100	0.857800
C181	C18	0.204500	0.610300	0.896300
H51	H5	0.301800	0.625100	0.819200
C191	C19	0.244000	0.473900	0.888200
C201	C20	0.218400	0.438800	0.778100
C211	C21	0.307800	0.442400	0.581300
C221	C22	0.155900	0.531100	0.612500
H61	H6	0.260600	0.566100	0.598200
C231	C23	0.199700	0.412500	0.665800
C241	C24	0.339500	0.459400	0.884500
C251	C25	0.443300	0.519500	0.851200
C261	C26	0.184300	0.549600	0.924100
C271	C27	0.155200	0.685400	0.926400
H71	H7	0.229000	0.431100	0.906800
C281	C28	0.200900	0.375600	0.803400
C291	C29	0.283700	0.383400	0.607700
C301	C30	0.383500	0.424100	0.527000
C311	C31	0.133200	0.472100	0.640700
C321	C32	0.100300	0.592600	0.586900
H81	H8	0.182200	0.371300	0.684700
C331	C33	0.395800	0.398100	0.909200
C341	C34	0.498000	0.458800	0.877500
H91	H9	0.459600	0.558400	0.832200
C351	C35	0.109300	0.565100	0.978400
C361	C36	0.076600	0.705100	0.977800
H101	H10	0.171400	0.724800	0.908500
C371	C37	0.184500	0.321400	0.825800
C381	C38	0.337600	0.307000	0.582700
C391	C39	0.435100	0.347000	0.502500
H111	H11	0.401600	0.462600	0.509400
C401	C40	0.052200	0.470900	0.641400
C411	C41	0.020500	0.592000	0.584500
H121	H12	0.117400	0.631500	0.568500
C421	C42	0.476800	0.399800	0.908400
H131	H13	0.381900	0.356600	0.923900
H141	H14	0.554000	0.457000	0.873600
C431	C43	0.057300	0.642800	0.002200
H151	H15	0.095800	0.525100	0.997400
H161	H16	0.040800	0.755800	0.995900
C441	C44	0.157200	0.264700	0.853200
C451	C45	0.410000	0.288200	0.527200
H171	H17	0.323000	0.267400	0.602600
H181	H18	0.486500	0.333900	0.467100
C461	C46	0.000800	0.531800	0.613400
H191	H19	0.034600	0.432400	0.660300
H201	H20	0.982100	0.630600	0.566600
H211	H21	0.513800	0.362800	0.928300
H221	H22	0.007300	0.653600	0.038100
C471	C47	0.114300	0.233800	0.821600
C481	C48	0.177300	0.233300	0.909300
H231	H23	0.443900	0.237100	0.508500
H241	H24	0.948000	0.530800	0.611600
C491	C49	0.089700	0.175600	0.850800
H251	H25	0.102900	0.251700	0.782800
C501	C50	0.145300	0.179900	0.939300
H261	H26	0.211700	0.248100	0.927900
C511	C51	0.099100	0.150600	0.910700
H271	H27	0.064100	0.153600	0.828400
H281	H28	0.155300	0.162500	0.978800
C521	C52	0.060800	0.095100	0.943700
O81	O8	0.034900	0.064500	0.908800
O91	O9	0.055900	0.091100	0.000600
Zn21	Zn2	0.982770	0.984730	0.941090
N31	N3	0.927800	0.976800	0.871500
O101	O10	0.109000	0.904400	0.911700
O111	O11	0.865000	0.073300	0.999500
C531	C53	0.929000	0.023400	0.820400
C541	C54	0.877100	0.933800	0.880800
C551	C55	0.156200	0.892500	0.948200
C561	C56	0.880600	0.031800	0.776400
H291	H29	0.964300	0.051100	0.815700
C571	C57	0.825800	0.943700	0.837500
H301	H30	0.876600	0.899900	0.913400
C581	C58	0.252800	0.839100	0.921000
C591	C59	0.828400	0.989400	0.785400
H311	H31	0.883600	0.064500	0.743000
H321	H32	0.788000	0.918100	0.844000
C601	C60	0.307300	0.826600	0.961300
C611	C61	0.283600	0.799500	0.858100
C621	C62	0.774000	0.999400	0.743600
C631	C63	0.396300	0.773300	0.938300
H331	H33	0.286000	0.857200	0.001600
C641	C64	0.372000	0.746800	0.836200
H341	H34	0.247200	0.810000	0.830800
C651	C65	0.803300	0.005400	0.677000
C661	C66	0.686000	0.007200	0.770400
C671	C67	0.427800	0.734900	0.875200
H351	H35	0.433600	0.762400	0.965100
H361	H36	0.393300	0.718100	0.795500
C681	C68	0.747000	0.016800	0.638300
H371	H37	0.860500	0.003100	0.658400
C691	C69	0.627500	0.017400	0.734000
H381	H38	0.665600	0.004700	0.815600
C701	C70	0.514600	0.677500	0.850700
H391	H39	0.767100	0.020100	0.592900
H401	H40	0.570600	0.018700	0.751700
C711	C71	0.586900	0.622600	0.822100
C721	C72	0.665300	0.559700	0.788500
C731	C73	0.683300	0.546100	0.720600
C741	C74	0.731600	0.516000	0.816000
C751	C75	0.620000	0.588200	0.679400
C761	C76	0.759900	0.485600	0.682600
C771	C77	0.726500	0.526000	0.887100
C781	C78	0.810000	0.457000	0.777300
C791	C79	0.607000	0.531600	0.645000
C801	C80	0.674700	0.620800	0.626900
H411	H41	0.564200	0.629400	0.705800
C811	C81	0.764700	0.482900	0.611200
C821	C82	0.825300	0.440500	0.710600
C831	C83	0.742000	0.440000	0.907900
C841	C84	0.807500	0.536400	0.888400
H421	H42	0.671800	0.566300	0.914400
C851	C85	0.872100	0.412400	0.816200
C861	C86	0.683300	0.469500	0.608400
C871	C87	0.525100	0.531100	0.647200
C881	C88	0.752600	0.560400	0.591200
C891	C89	0.652000	0.699600	0.620600
H431	H43	0.820300	0.441700	0.584500
C901	C90	0.905300	0.379000	0.671100
C911	C91	0.819600	0.381700	0.868600
C921	C92	0.683900	0.422800	0.960300
C931	C93	0.885300	0.475700	0.851400
C941	C94	0.812500	0.598700	0.918400
H441	H44	0.928100	0.371700	0.789300
C951	C95	0.680600	0.410400	0.572300
C961	C96	0.523200	0.470900	0.612200
H451	H45	0.472600	0.570800	0.671900
C971	C97	0.805800	0.585800	0.542200
C981	C98	0.711600	0.720300	0.572400
H461	H46	0.598700	0.736800	0.646300
C991	C99	0.969300	0.326400	0.641600
C1001	C100	0.840500	0.304500	0.879400
C1011	C101	0.706100	0.345900	0.972900
H471	H47	0.633600	0.461400	0.987200
C1021	C102	0.967200	0.477500	0.846600
C1031	C103	0.894200	0.600000	0.914800
H481	H48	0.760000	0.637600	0.944400
C1041	C104	0.598900	0.409900	0.573900
H491	H49	0.732900	0.371700	0.546100
H501	H50	0.468500	0.471900	0.613000
C1051	C105	0.789000	0.663300	0.531500
H511	H51	0.858600	0.547800	0.516100
H521	H52	0.699400	0.772000	0.567100
C1061	C106	0.050400	0.267600	0.606500
C1071	C107	0.782500	0.288100	0.932600
H531	H53	0.892000	0.265600	0.852900
H541	H54	0.668700	0.333900	0.008000
C1081	C108	0.971500	0.537700	0.880000
H551	H55	0.018600	0.438700	0.821100
H561	H56	0.895800	0.641500	0.936200
H571	H57	0.595800	0.370000	0.551400
H581	H58	0.826300	0.677100	0.498000
C1091	C109	0.120500	0.243000	0.633100
C1101	C110	0.066000	0.231500	0.545400
H591	H59	0.793500	0.237000	0.940700
H601	H60	0.025900	0.538100	0.878300
C1111	C111	0.204400	0.187500	0.598600
H611	H61	0.111200	0.264400	0.674900
C1121	C112	0.148000	0.173800	0.512100
H621	H62	0.020500	0.248000	0.526200
C1131	C113	0.219100	0.150900	0.538000
H631	H63	0.251900	0.175100	0.615700
H641	H64	0.155800	0.148400	0.472300
C1141	C114	0.310400	0.094400	0.498900
O121	O12	0.548500	0.085700	0.477600
O131	O13	0.490100	0.012900	0.597200
O141	O14	0.627900	0.920300	0.473800
C1151	C115	0.598500	0.112700	0.492200
Zn31	Zn3	0.587120	0.035970	0.607230
N41	N4	0.455500	0.982300	0.647400
C1161	C116	0.628800	0.165100	0.446200
O151	O15	0.620300	0.101500	0.545900
N51	N5	0.660800	0.023200	0.667300
O161	O16	0.688500	0.940100	0.550400
O171	O17	0.487300	0.968300	0.696700
O181	O18	0.405100	0.948400	0.641600
C1171	C117	0.681400	0.197600	0.462300
C1181	C118	0.600300	0.183900	0.391200
C1191	C119	0.700600	0.250800	0.421600
H651	H65	0.702100	0.183500	0.498800
C1201	C120	0.627200	0.233900	0.350300
H661	H66	0.564500	0.162000	0.382100
C1211	C121	0.679400	0.268700	0.363700
H671	H67	0.730300	0.276700	0.434000
H681	H68	0.608200	0.245800	0.313100
C1221	C122	0.700900	0.325900	0.329400
C1231	C123	0.715700	0.380000	0.301600
C1241	C124	0.731800	0.440800	0.274900
C1251	C125	0.730300	0.459900	0.211600
C1261	C126	0.756800	0.484100	0.311800
C1271	C127	0.713800	0.417300	0.162100
C1281	C128	0.757100	0.517400	0.184900
C1291	C129	0.755700	0.476300	0.384100
C1301	C130	0.780500	0.543300	0.285900
C1311	C131	0.640700	0.478900	0.142200
C1321	C132	0.795500	0.389700	0.103700
H691	H69	0.698200	0.374900	0.180800
C1331	C133	0.756000	0.526100	0.111800
C1341	C134	0.781600	0.561200	0.221900
C1351	C135	0.692200	0.557600	0.418700
C1361	C136	0.844100	0.468900	0.387500
H701	H70	0.739400	0.433900	0.401800
C1371	C137	0.800300	0.587500	0.334200
C1381	C138	0.660500	0.540600	0.115500
C1391	C139	0.556700	0.480500	0.148800
C1401	C140	0.815700	0.450400	0.075900
C1411	C141	0.844800	0.314600	0.073600
H711	H71	0.771000	0.568900	0.093200
C1421	C142	0.799100	0.624400	0.196600
C1431	C143	0.716300	0.616600	0.392300
C1441	C144	0.616500	0.575900	0.473000
C1451	C145	0.866800	0.527900	0.359300
C1461	C146	0.899700	0.407400	0.413100
H721	H72	0.817800	0.628700	0.315300
C1471	C147	0.604200	0.601900	0.090800
C1481	C148	0.502000	0.541200	0.122500
H731	H73	0.540400	0.441600	0.167800
C1491	C149	0.890700	0.434900	0.021600
C1501	C150	0.923400	0.294900	0.022200
H741	H74	0.828600	0.275200	0.091500
C1511	C151	0.815500	0.678600	0.174200
C1521	C152	0.662400	0.693000	0.417300
C1531	C153	0.564900	0.653000	0.497500
H751	H75	0.598400	0.537400	0.490600
C1541	C154	0.947800	0.529100	0.358600
C1551	C155	0.979500	0.408000	0.415500
H761	H76	0.882600	0.368500	0.431500
C1561	C156	0.523200	0.600200	0.091600
H771	H77	0.618100	0.643400	0.076100
H781	H78	0.446000	0.543000	0.126400
C1571	C157	0.942700	0.357200	0.997800
H791	H79	0.904200	0.474900	0.002600
H801	H80	0.959200	0.244200	0.004100
C1581	C158	0.842800	0.735300	0.146800
C1591	C159	0.590000	0.711800	0.472800
H811	H81	0.677000	0.732600	0.397400
H821	H82	0.513500	0.666100	0.532900
C1601	C160	0.999200	0.468200	0.386600
H831	H83	0.965400	0.567600	0.339700
H841	H84	0.017900	0.369400	0.433400
H851	H85	0.486200	0.637200	0.071700
H861	H86	0.992700	0.346400	0.961900
C1611	C161	0.885700	0.766200	0.178400
C1621	C162	0.822700	0.766700	0.090700
H871	H87	0.556100	0.762900	0.491500
H881	H88	0.052000	0.469200	0.388400
C1631	C163	0.910300	0.824400	0.149200
H891	H89	0.897100	0.748300	0.217200
C1641	C164	0.854700	0.820100	0.060700
H901	H90	0.788300	0.751900	0.072100
C1651	C165	0.900900	0.849400	0.089300
H911	H91	0.935900	0.846400	0.171600
H921	H92	0.844700	0.837500	0.021200
C1661	C166	0.939200	0.904900	0.056300
O191	O19	0.965100	0.935500	0.091200
O201	O20	0.944100	0.908900	0.999400
Zn41	Zn4	0.017230	0.015270	0.058910
N61	N6	0.072200	0.023200	0.128500
O211	O21	0.891000	0.095600	0.088300
O221	O22	0.135000	0.926700	0.000500
C1671	C167	0.071000	0.976600	0.179600
C1681	C168	0.122900	0.066200	0.119200
C1691	C169	0.843800	0.107500	0.051800
C1701	C170	0.119400	0.968200	0.223600
H931	H93	0.035700	0.948900	0.184300
C1711	C171	0.174200	0.056300	0.162500
H941	H94	0.123400	0.100100	0.086600
C1721	C172	0.747200	0.160900	0.079000
C1731	C173	0.171600	0.010600	0.214600
H951	H95	0.116400	0.935500	0.257000
H961	H96	0.212000	0.081900	0.156000
C1741	C174	0.692700	0.173400	0.038700
C1751	C175	0.716400	0.200500	0.141900
C1761	C176	0.226000	0.000600	0.256400
C1771	C177	0.603700	0.226700	0.061700
H971	H97	0.714000	0.142800	0.998400
C1781	C178	0.628000	0.253200	0.163800
H981	H98	0.752800	0.190000	0.169200
C1791	C179	0.196700	0.994600	0.323000
C1801	C180	0.314000	0.992800	0.229600
C1811	C181	0.572200	0.265100	0.124800
H991	H99	0.566400	0.237600	0.034900
H1001	H100	0.606700	0.281900	0.204500
C1821	C182	0.253000	0.983200	0.361700
H1011	H101	0.139500	0.996900	0.341600
C1831	C183	0.372500	0.982600	0.266000
H1021	H102	0.334400	0.995300	0.184400
C1841	C184	0.485400	0.322500	0.149300
H1031	H103	0.232900	0.979900	0.407100
H1041	H104	0.429400	0.981300	0.248300
C1851	C185	0.413100	0.377400	0.177900
C1861	C186	0.334700	0.440300	0.211500
C1871	C187	0.316700	0.453900	0.279400
C1881	C188	0.268400	0.484000	0.184000
C1891	C189	0.380000	0.411800	0.320600
C1901	C190	0.240100	0.514400	0.317400
C1911	C191	0.273500	0.474000	0.112900
C1921	C192	0.190000	0.543000	0.222700
C1931	C193	0.393000	0.468400	0.355000
C1941	C194	0.325300	0.379200	0.373100
H1051	H105	0.435800	0.370600	0.294200
C1951	C195	0.235300	0.517100	0.388800
C1961	C196	0.174700	0.559500	0.289400
C1971	C197	0.258000	0.560000	0.092100
C1981	C198	0.192500	0.463600	0.111600
H1061	H106	0.328200	0.433700	0.085600
C1991	C199	0.127900	0.587600	0.183800
C2001	C200	0.316700	0.530500	0.391600
C2011	C201	0.474900	0.468900	0.352800
C2021	C202	0.247400	0.439600	0.408800
C2031	C203	0.348000	0.300400	0.379400
H1071	H107	0.179700	0.558300	0.415500
C2041	C204	0.094700	0.621000	0.328900
C2051	C205	0.180400	0.618300	0.131400
C2061	C206	0.316100	0.577200	0.039700
C2071	C207	0.114700	0.524300	0.148600
C2081	C208	0.187500	0.401300	0.081600
H1081	H108	0.071900	0.628300	0.210700
C2091	C209	0.319400	0.589600	0.427700
C2101	C210	0.476800	0.529100	0.387800
H1091	H109	0.527400	0.429200	0.328100
C2111	C211	0.194200	0.414200	0.457800
C2121	C212	0.288400	0.279700	0.427600
H1101	H110	0.401300	0.263200	0.353700
C2131	C213	0.030700	0.673600	0.358400
C2141	C214	0.159500	0.695500	0.120600
C2151	C215	0.293900	0.654100	0.027100
H1111	H111	0.366400	0.538600	0.012800
C2161	C216	0.032800	0.522500	0.153400
C2171	C217	0.105800	0.400000	0.085200
H1121	H112	0.240000	0.362400	0.055600
C2181	C218	0.401100	0.590100	0.426100
H1131	H113	0.267100	0.628300	0.453900
H1141	H114	0.531500	0.528100	0.387000
C2191	C219	0.211000	0.336700	0.468500
H1151	H115	0.141400	0.452200	0.483900
H1161	H116	0.300600	0.228000	0.432900
C2201	C220	0.949600	0.732400	0.393500
C2211	C221	0.217500	0.711900	0.067400
H1171	H117	0.108000	0.734400	0.147100
H1181	H118	0.331300	0.666100	0.992000
C2221	C222	0.028500	0.462300	0.120000
H1191	H119	0.981400	0.561300	0.178900
H1201	H120	0.104200	0.358500	0.063800
H1211	H121	0.404200	0.630000	0.448600
H1221	H122	0.173700	0.322900	0.502000
C2231	C223	0.879500	0.757000	0.366900
C2241	C224	0.934000	0.768500	0.454600
H1231	H123	0.206500	0.763000	0.059300
H1241	H124	0.974100	0.461900	0.121700
C2251	C225	0.795600	0.812500	0.401400
H1251	H125	0.888800	0.735600	0.325100
C2261	C226	0.852000	0.826200	0.487900
H1261	H126	0.979500	0.752000	0.473800
C2271	C227	0.780900	0.849100	0.462000
H1271	H127	0.748100	0.824900	0.384300
H1281	H128	0.844200	0.851600	0.527700
C2281	C228	0.689600	0.905600	0.501100
Zn51	Zn5	0.500000	0.000000	0.500000
