data_QUPHUF_clean_PM
_symmetry_space_group_name_H-M	'P1'
_cell_length_a	9.304600
_cell_length_b	13.702900
_cell_length_c	19.911100
_cell_angle_alpha	86.570500
_cell_angle_beta	79.851700
_cell_angle_gamma	70.152900
_symmetry_Int_Tables_number 1

loop_
_symmetry_equiv_pos_as_xyz
'x,y,z'

loop_
_atom_site_label
_atom_site_type_symbol
_atom_site_fract_x
_atom_site_fract_y
_atom_site_fract_z
Zn11	Zn1	0.596660	0.741660	0.011930
Zn21	Zn2	0.161680	0.741660	0.488070
Zn31	Zn3	0.403340	0.258340	0.988070
Zn41	Zn4	0.838320	0.258340	0.511930
H11	H1	0.387100	0.632000	0.066700
H21	H2	0.376900	0.486200	0.125900
H31	H3	0.827700	0.411400	0.131300
H41	H4	0.824800	0.557200	0.070900
H51	H5	0.762700	0.314800	0.223200
H61	H6	0.785800	0.237600	0.163400
H71	H7	0.514900	0.117400	0.242700
H81	H8	0.526300	0.187200	0.177600
H91	H9	0.891600	0.885200	0.145400
H101	H10	0.855700	0.764000	0.083000
H111	H11	0.437700	0.947600	0.070400
H121	H12	0.470800	0.074200	0.126300
H131	H13	0.787400	0.825000	0.806700
H141	H14	0.951200	0.514400	0.806700
H151	H15	0.019500	0.854400	0.941000
H161	H16	0.203400	0.991800	0.054200
H171	H17	0.480900	0.632000	0.433300
H181	H18	0.636900	0.486200	0.374100
H191	H19	0.260900	0.411400	0.368700
H201	H20	0.118000	0.557200	0.429100
H211	H21	0.422500	0.314800	0.276800
H221	H22	0.476600	0.237600	0.336600
H231	H23	0.867700	0.117400	0.257300
H241	H24	0.786500	0.187200	0.322400
H251	H25	0.723200	0.885200	0.354600
H261	H26	0.880300	0.764000	0.417000
H271	H27	0.114700	0.947600	0.429600
H281	H28	0.955000	0.074200	0.373700
H291	H29	0.887600	0.825000	0.693300
H301	H30	0.034400	0.514400	0.693300
H311	H31	0.626100	0.854400	0.559000
H321	H32	0.304800	0.991800	0.445800
H331	H33	0.612900	0.368000	0.933300
H341	H34	0.623100	0.513800	0.874100
H351	H35	0.172300	0.588600	0.868700
H361	H36	0.175200	0.442800	0.929100
H371	H37	0.237300	0.685200	0.776800
H381	H38	0.214200	0.762400	0.836600
H391	H39	0.485100	0.882600	0.757300
H401	H40	0.473700	0.812800	0.822400
H411	H41	0.108400	0.114800	0.854600
H421	H42	0.144300	0.236000	0.917000
H431	H43	0.562300	0.052400	0.929600
H441	H44	0.529200	0.925800	0.873700
H451	H45	0.212600	0.175000	0.193300
H461	H46	0.048800	0.485600	0.193300
H471	H47	0.980500	0.145600	0.059000
H481	H48	0.796600	0.008200	0.945800
H491	H49	0.519100	0.368000	0.566700
H501	H50	0.363100	0.513800	0.625900
H511	H51	0.739100	0.588600	0.631300
H521	H52	0.882000	0.442800	0.570900
H531	H53	0.577500	0.685200	0.723200
H541	H54	0.523400	0.762400	0.663400
H551	H55	0.132300	0.882600	0.742700
H561	H56	0.213500	0.812800	0.677600
H571	H57	0.276800	0.114800	0.645400
H581	H58	0.119700	0.236000	0.583000
H591	H59	0.885300	0.052400	0.570400
H601	H60	0.045000	0.925800	0.626300
H611	H61	0.112400	0.175000	0.306700
H621	H62	0.965600	0.485600	0.306700
H631	H63	0.373900	0.145600	0.441000
H641	H64	0.695200	0.008200	0.554200
C11	C1	0.477300	0.586800	0.080000
C21	C2	0.469900	0.499600	0.115800
C31	C3	0.599900	0.433400	0.136400
C41	C4	0.736000	0.455600	0.118700
C51	C5	0.732700	0.543000	0.082700
C61	C6	0.711370	0.279060	0.200200
C71	C7	0.583740	0.145320	0.211400
C81	C8	0.683400	0.993600	0.143800
C91	C9	0.798200	0.899400	0.129700
C101	C10	0.775600	0.826400	0.092700
C111	C11	0.532100	0.935000	0.084900
C121	C12	0.549900	0.010600	0.119300
C131	C13	0.797500	0.667400	0.894900
C141	C14	0.859800	0.669400	0.819500
C151	C15	0.840200	0.762200	0.784000
C161	C16	0.935800	0.577200	0.783600
C171	C17	0.268800	0.815000	0.993400
C181	C18	0.129300	0.910800	0.997500
C191	C19	0.012200	0.912400	0.965200
C201	C20	0.121100	0.998000	0.031900
C211	C21	0.435900	0.586800	0.420000
C221	C22	0.530500	0.499600	0.384200
C231	C23	0.466700	0.433400	0.363600
C241	C24	0.308400	0.455600	0.381300
C251	C25	0.224300	0.543000	0.417300
C261	C26	0.509570	0.279060	0.299800
C271	C27	0.770940	0.145320	0.288600
C281	C28	0.823000	0.993600	0.356200
C291	C29	0.802400	0.899400	0.370300
C301	C30	0.898000	0.826400	0.407300
C311	C31	0.032900	0.935000	0.415100
C321	C32	0.939500	0.010600	0.380700
C331	C33	0.035100	0.667400	0.605100
C341	C34	0.970800	0.669400	0.680500
C351	C35	0.897600	0.762200	0.716000
C361	C36	0.987000	0.577200	0.716400
C371	C37	0.416200	0.815000	0.506600
C381	C38	0.459900	0.910800	0.502500
C391	C39	0.575400	0.912400	0.534800
C401	C40	0.380900	0.998000	0.468100
C411	C41	0.522700	0.413200	0.920000
C421	C42	0.530100	0.500400	0.884200
C431	C43	0.400100	0.566600	0.863600
C441	C44	0.264000	0.544400	0.881300
C451	C45	0.267300	0.457000	0.917300
C461	C46	0.288630	0.720940	0.799800
C471	C47	0.416260	0.854680	0.788600
C481	C48	0.316600	0.006400	0.856200
C491	C49	0.201800	0.100600	0.870300
C501	C50	0.224400	0.173600	0.907300
C511	C51	0.467900	0.065000	0.915100
C521	C52	0.450100	0.989400	0.880700
C531	C53	0.202500	0.332600	0.105100
C541	C54	0.140200	0.330600	0.180500
C551	C55	0.159800	0.237800	0.216000
C561	C56	0.064200	0.422800	0.216400
C571	C57	0.731200	0.185000	0.006600
C581	C58	0.870700	0.089200	0.002500
C591	C59	0.987800	0.087600	0.034800
C601	C60	0.878900	0.002000	0.968100
C611	C61	0.564100	0.413200	0.580000
C621	C62	0.469500	0.500400	0.615800
C631	C63	0.533300	0.566600	0.636400
C641	C64	0.691600	0.544400	0.618700
C651	C65	0.775700	0.457000	0.582700
C661	C66	0.490430	0.720940	0.700200
C671	C67	0.229060	0.854680	0.711400
C681	C68	0.177000	0.006400	0.643800
C691	C69	0.197600	0.100600	0.629700
C701	C70	0.102000	0.173600	0.592700
C711	C71	0.967100	0.065000	0.584900
C721	C72	0.060500	0.989400	0.619300
C731	C73	0.964900	0.332600	0.394900
C741	C74	0.029200	0.330600	0.319500
C751	C75	0.102400	0.237800	0.284000
C761	C76	0.013000	0.422800	0.283600
C771	C77	0.583800	0.185000	0.493400
C781	C78	0.540100	0.089200	0.497500
C791	C79	0.424600	0.087600	0.465200
C801	C80	0.619100	0.002000	0.531900
C811	C81	0.644500	0.211000	0.250000
C821	C82	0.355500	0.789000	0.750000
N11	N1	0.605560	0.610080	0.063100
N21	N2	0.643940	0.841320	0.070100
N31	N3	0.284360	0.610080	0.436900
N41	N4	0.014740	0.841320	0.429900
N51	N5	0.394440	0.389920	0.936900
N61	N6	0.356060	0.158680	0.929900
N71	N7	0.715640	0.389920	0.563100
N81	N8	0.985260	0.158680	0.570100
O11	O1	0.581910	0.351980	0.174200
O21	O2	0.712460	0.063080	0.178900
O31	O3	0.695550	0.750100	0.919400
O41	O4	0.847900	0.589000	0.928100
O51	O5	0.377610	0.826580	0.017000
O61	O6	0.268980	0.734040	0.971500
O71	O7	0.566110	0.351980	0.325800
O81	O8	0.724460	0.063080	0.321100
O91	O9	0.054350	0.750100	0.580600
O101	O10	0.063100	0.589000	0.571900
O111	O11	0.295810	0.826580	0.483000
O121	O12	0.496980	0.734040	0.528500
O131	O13	0.418090	0.648020	0.825800
O141	O14	0.287540	0.936920	0.821100
O151	O15	0.304450	0.249900	0.080600
O161	O16	0.152100	0.411000	0.071900
O171	O17	0.622390	0.173420	0.983000
O181	O18	0.731020	0.265960	0.028500
O191	O19	0.433890	0.648020	0.674200
O201	O20	0.275540	0.936920	0.678900
O211	O21	0.945650	0.249900	0.419400
O221	O22	0.936900	0.411000	0.428100
O231	O23	0.704190	0.173420	0.517000
O241	O24	0.503020	0.265960	0.471500
