data_QUPZIK_clean_PM
_symmetry_space_group_name_H-M	'P1'
_cell_length_a	9.172100
_cell_length_b	25.400000
_cell_length_c	7.738500
_cell_angle_alpha	90.000000
_cell_angle_beta	97.339000
_cell_angle_gamma	90.000000
_symmetry_Int_Tables_number 1

loop_
_symmetry_equiv_pos_as_xyz
'x,y,z'

loop_
_atom_site_label
_atom_site_type_symbol
_atom_site_fract_x
_atom_site_fract_y
_atom_site_fract_z
Er11	Er1	0.511200	0.651150	0.587710
O11	O1	0.486000	0.707400	0.341000
O21	O2	0.584700	0.766900	0.181500
O31	O3	0.266100	0.656500	0.494300
O41	O4	0.142900	0.588300	0.590300
O51	O5	0.192500	0.483100	0.435800
O61	O6	0.345500	0.508700	0.248500
O71	O7	0.701500	0.624300	0.797600
O81	O8	0.612200	0.618200	0.051100
N11	N1	0.747400	0.667300	0.460200
N21	N2	0.969400	0.533700	0.269000
C11	C1	0.593100	0.728600	0.285200
C21	C2	0.743800	0.706200	0.342900
C31	C3	0.867400	0.723300	0.275600
C41	C4	0.001000	0.700200	0.329100
C51	C5	0.006200	0.659300	0.450900
C61	C6	0.876900	0.644000	0.511300
C71	C7	0.148400	0.632100	0.517500
C81	C8	0.224500	0.508000	0.301400
C91	C9	0.097000	0.537400	0.199800
C101	C10	0.107500	0.566000	0.048000
C111	C11	0.980400	0.590200	0.967100
C121	C12	0.849300	0.586200	0.039100
C131	C13	0.849000	0.557600	0.191700
C141	C14	0.710700	0.611600	0.956800
Er21	Er2	0.488800	0.151150	0.912290
O91	O9	0.514000	0.207400	0.159000
O101	O10	0.415300	0.266900	0.318500
O111	O11	0.733900	0.156500	0.005700
O121	O12	0.857100	0.088300	0.909700
O131	O13	0.807500	0.983100	0.064200
O141	O14	0.654500	0.008700	0.251500
O151	O15	0.298500	0.124300	0.702400
O161	O16	0.387800	0.118200	0.448900
N31	N3	0.252600	0.167300	0.039800
N41	N4	0.030600	0.033700	0.231000
C151	C15	0.406900	0.228600	0.214800
C161	C16	0.256200	0.206200	0.157100
C171	C17	0.132600	0.223300	0.224400
C181	C18	0.999000	0.200200	0.170900
C191	C19	0.993800	0.159300	0.049100
C201	C20	0.123100	0.144000	0.988700
C211	C21	0.851600	0.132100	0.982500
C221	C22	0.775500	0.008000	0.198600
C231	C23	0.903000	0.037400	0.300200
C241	C24	0.892500	0.066000	0.452000
C251	C25	0.019600	0.090200	0.532900
C261	C26	0.150700	0.086200	0.460900
C271	C27	0.151000	0.057600	0.308300
C281	C28	0.289300	0.111600	0.543200
Er31	Er3	0.488800	0.348850	0.412290
O171	O17	0.514000	0.292600	0.659000
O181	O18	0.415300	0.233100	0.818500
O191	O19	0.733900	0.343500	0.505700
O201	O20	0.857100	0.411700	0.409700
O211	O21	0.807500	0.516900	0.564200
O221	O22	0.654500	0.491300	0.751500
O231	O23	0.298500	0.375700	0.202400
O241	O24	0.387800	0.381800	0.948900
N51	N5	0.252600	0.332700	0.539800
N61	N6	0.030600	0.466300	0.731000
C291	C29	0.406900	0.271400	0.714800
C301	C30	0.256200	0.293800	0.657100
C311	C31	0.132600	0.276700	0.724400
C321	C32	0.999000	0.299800	0.670900
C331	C33	0.993800	0.340700	0.549100
C341	C34	0.123100	0.356000	0.488700
C351	C35	0.851600	0.367900	0.482500
C361	C36	0.775500	0.492000	0.698600
C371	C37	0.903000	0.462600	0.800200
C381	C38	0.892500	0.434000	0.952000
C391	C39	0.019600	0.409800	0.032900
C401	C40	0.150700	0.413800	0.960900
C411	C41	0.151000	0.442400	0.808300
C421	C42	0.289300	0.388400	0.043200
Er41	Er4	0.511200	0.848850	0.087710
O251	O25	0.486000	0.792600	0.841000
O261	O26	0.584700	0.733100	0.681500
O271	O27	0.266100	0.843500	0.994300
O281	O28	0.142900	0.911700	0.090300
O291	O29	0.192500	0.016900	0.935800
O301	O30	0.345500	0.991300	0.748500
O311	O31	0.701500	0.875700	0.297600
O321	O32	0.612200	0.881800	0.551100
N71	N7	0.747400	0.832700	0.960200
N81	N8	0.969400	0.966300	0.769000
C431	C43	0.593100	0.771400	0.785200
C441	C44	0.743800	0.793800	0.842900
C451	C45	0.867400	0.776700	0.775600
C461	C46	0.001000	0.799800	0.829100
C471	C47	0.006200	0.840700	0.950900
C481	C48	0.876900	0.856000	0.011300
C491	C49	0.148400	0.867900	0.017500
C501	C50	0.224500	0.992000	0.801400
C511	C51	0.097000	0.962600	0.699800
C521	C52	0.107500	0.934000	0.548000
C531	C53	0.980400	0.909800	0.467100
C541	C54	0.849300	0.913800	0.539100
C551	C55	0.849000	0.942400	0.691700
C561	C56	0.710700	0.888400	0.456800
Cu11	Cu1	0.000000	0.500000	0.500000
Cu21	Cu2	0.000000	0.000000	0.000000
