data_QUPZAC_clean_PM
_symmetry_space_group_name_H-M	'P1'
_cell_length_a	9.296000
_cell_length_b	25.562000
_cell_length_c	7.811000
_cell_angle_alpha	90.000000
_cell_angle_beta	97.270000
_cell_angle_gamma	90.000000
_symmetry_Int_Tables_number 1

loop_
_symmetry_equiv_pos_as_xyz
'x,y,z'

loop_
_atom_site_label
_atom_site_type_symbol
_atom_site_fract_x
_atom_site_fract_y
_atom_site_fract_z
Sm11	Sm1	0.513340	0.650380	0.587540
O11	O1	0.494100	0.706060	0.333200
O21	O2	0.595100	0.765620	0.176500
O31	O3	0.263200	0.655980	0.494100
O41	O4	0.141700	0.588530	0.588400
O51	O5	0.190700	0.483610	0.436800
O61	O6	0.340300	0.508420	0.248500
O71	O7	0.707200	0.622780	0.801900
O81	O8	0.616200	0.616900	0.051600
N11	N1	0.751500	0.666210	0.453100
N21	N2	0.970100	0.533270	0.271500
C11	C1	0.600300	0.727700	0.277600
C21	C2	0.748700	0.704600	0.335700
C31	C3	0.871000	0.722200	0.268900
C41	C4	0.003800	0.699000	0.327300
C51	C5	0.008500	0.658700	0.446900
C61	C6	0.879600	0.643300	0.506100
C71	C7	0.148400	0.631600	0.515400
C81	C8	0.220600	0.507600	0.302200
C91	C9	0.095900	0.536400	0.201300
C101	C10	0.106100	0.564300	0.050300
C111	C11	0.980800	0.588200	0.969100
C121	C12	0.851600	0.584600	0.040700
C131	C13	0.849900	0.556800	0.193900
C141	C14	0.713700	0.610100	0.958300
Sm21	Sm2	0.486660	0.150380	0.912460
O91	O9	0.505900	0.206060	0.166800
O101	O10	0.404900	0.265620	0.323500
O111	O11	0.736800	0.155980	0.005900
O121	O12	0.858300	0.088530	0.911600
O131	O13	0.809300	0.983610	0.063200
O141	O14	0.659700	0.008420	0.251500
O151	O15	0.292800	0.122780	0.698100
O161	O16	0.383800	0.116900	0.448400
N31	N3	0.248500	0.166210	0.046900
N41	N4	0.029900	0.033270	0.228500
C151	C15	0.399700	0.227700	0.222400
C161	C16	0.251300	0.204600	0.164300
C171	C17	0.129000	0.222200	0.231100
C181	C18	0.996200	0.199000	0.172700
C191	C19	0.991500	0.158700	0.053100
C201	C20	0.120400	0.143300	0.993900
C211	C21	0.851600	0.131600	0.984600
C221	C22	0.779400	0.007600	0.197800
C231	C23	0.904100	0.036400	0.298700
C241	C24	0.893900	0.064300	0.449700
C251	C25	0.019200	0.088200	0.530900
C261	C26	0.148400	0.084600	0.459300
C271	C27	0.150100	0.056800	0.306100
C281	C28	0.286300	0.110100	0.541700
Sm31	Sm3	0.486660	0.349620	0.412460
O171	O17	0.505900	0.293940	0.666800
O181	O18	0.404900	0.234380	0.823500
O191	O19	0.736800	0.344020	0.505900
O201	O20	0.858300	0.411470	0.411600
O211	O21	0.809300	0.516390	0.563200
O221	O22	0.659700	0.491580	0.751500
O231	O23	0.292800	0.377220	0.198100
O241	O24	0.383800	0.383100	0.948400
N51	N5	0.248500	0.333790	0.546900
N61	N6	0.029900	0.466730	0.728500
C291	C29	0.399700	0.272300	0.722400
C301	C30	0.251300	0.295400	0.664300
C311	C31	0.129000	0.277800	0.731100
C321	C32	0.996200	0.301000	0.672700
C331	C33	0.991500	0.341300	0.553100
C341	C34	0.120400	0.356700	0.493900
C351	C35	0.851600	0.368400	0.484600
C361	C36	0.779400	0.492400	0.697800
C371	C37	0.904100	0.463600	0.798700
C381	C38	0.893900	0.435700	0.949700
C391	C39	0.019200	0.411800	0.030900
C401	C40	0.148400	0.415400	0.959300
C411	C41	0.150100	0.443200	0.806100
C421	C42	0.286300	0.389900	0.041700
Sm41	Sm4	0.513340	0.849620	0.087540
O251	O25	0.494100	0.793940	0.833200
O261	O26	0.595100	0.734380	0.676500
O271	O27	0.263200	0.844020	0.994100
O281	O28	0.141700	0.911470	0.088400
O291	O29	0.190700	0.016390	0.936800
O301	O30	0.340300	0.991580	0.748500
O311	O31	0.707200	0.877220	0.301900
O321	O32	0.616200	0.883100	0.551600
N71	N7	0.751500	0.833790	0.953100
N81	N8	0.970100	0.966730	0.771500
C431	C43	0.600300	0.772300	0.777600
C441	C44	0.748700	0.795400	0.835700
C451	C45	0.871000	0.777800	0.768900
C461	C46	0.003800	0.801000	0.827300
C471	C47	0.008500	0.841300	0.946900
C481	C48	0.879600	0.856700	0.006100
C491	C49	0.148400	0.868400	0.015400
C501	C50	0.220600	0.992400	0.802200
C511	C51	0.095900	0.963600	0.701300
C521	C52	0.106100	0.935700	0.550300
C531	C53	0.980800	0.911800	0.469100
C541	C54	0.851600	0.915400	0.540700
C551	C55	0.849900	0.943200	0.693900
C561	C56	0.713700	0.889900	0.458300
Cu11	Cu1	0.000000	0.500000	0.500000
Cu21	Cu2	0.000000	0.000000	0.000000
