data_QUQFOY_clean_PM
_symmetry_space_group_name_H-M	'P1'
_cell_length_a	18.163000
_cell_length_b	19.936900
_cell_length_c	19.936900
_cell_angle_alpha	109.070000
_cell_angle_beta	108.003000
_cell_angle_gamma	71.996900
_symmetry_Int_Tables_number 1

loop_
_symmetry_equiv_pos_as_xyz
'x,y,z'

loop_
_atom_site_label
_atom_site_type_symbol
_atom_site_fract_x
_atom_site_fract_y
_atom_site_fract_z
Cd11	Cd1	0.899680	0.262490	0.945150
Cd21	Cd2	0.934890	0.157460	0.770860
Cd31	Cd3	0.665220	0.468330	0.346790
Cd41	Cd4	0.600320	0.945150	0.262490
Cd51	Cd5	0.565110	0.770860	0.157460
Cd61	Cd6	0.834780	0.346790	0.468330
Cd71	Cd7	0.100320	0.737510	0.054850
Cd81	Cd8	0.065110	0.842540	0.229140
Cd91	Cd9	0.334780	0.531670	0.653210
Cd101	Cd10	0.399680	0.054850	0.737510
Cd111	Cd11	0.434890	0.229140	0.842540
Cd121	Cd12	0.165220	0.653210	0.531670
H11	H1	0.674500	0.159400	0.842800
H21	H2	0.657400	0.961600	0.706800
H31	H3	0.864200	0.019300	0.780100
H41	H4	0.723700	0.898800	0.602600
H51	H5	0.905000	0.727200	0.596600
H61	H6	0.906900	0.892900	0.773900
H71	H7	0.737200	0.866300	0.479500
H81	H8	0.663400	0.699800	0.322600
H91	H9	0.785100	0.671200	0.523600
H101	H10	0.049600	0.717200	0.645800
H111	H11	0.185200	0.655400	0.825400
H121	H12	0.973400	0.797900	0.828500
H131	H13	0.825500	0.842800	0.159400
H141	H14	0.842600	0.706800	0.961600
H151	H15	0.635800	0.780100	0.019300
H161	H16	0.776300	0.602600	0.898800
H171	H17	0.595000	0.596600	0.727200
H181	H18	0.593100	0.773900	0.892900
H191	H19	0.762800	0.479500	0.866300
H201	H20	0.836600	0.322600	0.699800
H211	H21	0.714900	0.523600	0.671200
H221	H22	0.450400	0.645800	0.717200
H231	H23	0.314800	0.825400	0.655400
H241	H24	0.526600	0.828500	0.797900
H251	H25	0.325500	0.840600	0.157200
H261	H26	0.342600	0.038400	0.293200
H271	H27	0.135800	0.980700	0.219900
H281	H28	0.276300	0.101200	0.397400
H291	H29	0.095000	0.272800	0.403400
H301	H30	0.093100	0.107100	0.226100
H311	H31	0.262800	0.133700	0.520500
H321	H32	0.336600	0.300200	0.677400
H331	H33	0.214900	0.328800	0.476400
H341	H34	0.950400	0.282800	0.354200
H351	H35	0.814800	0.344600	0.174600
H361	H36	0.026600	0.202100	0.171500
H371	H37	0.174500	0.157200	0.840600
H381	H38	0.157400	0.293200	0.038400
H391	H39	0.364200	0.219900	0.980700
H401	H40	0.223700	0.397400	0.101200
H411	H41	0.405000	0.403400	0.272800
H421	H42	0.406900	0.226100	0.107100
H431	H43	0.237200	0.520500	0.133700
H441	H44	0.163400	0.677400	0.300200
H451	H45	0.285100	0.476400	0.328800
H461	H46	0.549600	0.354200	0.282800
H471	H47	0.685200	0.174600	0.344600
H481	H48	0.473400	0.171500	0.202100
C11	C1	0.819500	0.155100	0.866100
C21	C2	0.777900	0.098100	0.821500
C31	C3	0.698700	0.113900	0.817300
C41	C4	0.652500	0.063000	0.775000
C51	C5	0.687900	0.995300	0.735300
C61	C6	0.768900	0.978300	0.738500
C71	C7	0.810500	0.030000	0.779800
C81	C8	0.561400	0.079400	0.769800
C91	C9	0.808400	0.908900	0.696900
C101	C10	0.772800	0.874200	0.625200
C111	C11	0.805600	0.807500	0.587300
C121	C12	0.881000	0.772700	0.622100
C131	C13	0.921300	0.801100	0.690700
C141	C14	0.881500	0.871400	0.727000
C151	C15	0.764800	0.775200	0.513600
C161	C16	0.733000	0.818000	0.464200
C171	C17	0.695000	0.790400	0.392600
C181	C18	0.688900	0.718800	0.370400
C191	C19	0.720800	0.673900	0.419300
C201	C20	0.761400	0.701100	0.491700
C211	C21	0.656900	0.836100	0.338900
C221	C22	0.709700	0.595500	0.396300
C231	C23	0.996300	0.761600	0.731200
C241	C24	0.056600	0.718300	0.694300
C251	C25	0.125900	0.677700	0.728500
C261	C26	0.138800	0.681900	0.801100
C271	C27	0.078600	0.728400	0.838000
C281	C28	0.011000	0.766900	0.802500
C291	C29	0.089700	0.732000	0.917600
C301	C30	0.188400	0.628500	0.688500
C311	C31	0.680500	0.866100	0.155100
C321	C32	0.722100	0.821500	0.098100
C331	C33	0.801300	0.817300	0.113900
C341	C34	0.847500	0.775000	0.063000
C351	C35	0.812100	0.735300	0.995300
C361	C36	0.731100	0.738500	0.978300
C371	C37	0.689500	0.779800	0.030000
C381	C38	0.938600	0.769800	0.079400
C391	C39	0.691600	0.696900	0.908900
C401	C40	0.727200	0.625200	0.874200
C411	C41	0.694400	0.587300	0.807500
C421	C42	0.619000	0.622100	0.772700
C431	C43	0.578700	0.690700	0.801100
C441	C44	0.618500	0.727000	0.871400
C451	C45	0.735200	0.513600	0.775200
C461	C46	0.767000	0.464200	0.818000
C471	C47	0.805000	0.392600	0.790400
C481	C48	0.811100	0.370400	0.718800
C491	C49	0.779200	0.419300	0.673900
C501	C50	0.738600	0.491700	0.701100
C511	C51	0.843100	0.338900	0.836100
C521	C52	0.790300	0.396300	0.595500
C531	C53	0.503700	0.731200	0.761600
C541	C54	0.443400	0.694300	0.718300
C551	C55	0.374100	0.728500	0.677700
C561	C56	0.361200	0.801100	0.681900
C571	C57	0.421400	0.838000	0.728400
C581	C58	0.489000	0.802500	0.766900
C591	C59	0.410300	0.917600	0.732000
C601	C60	0.311600	0.688500	0.628500
C611	C61	0.180500	0.844900	0.133900
C621	C62	0.222100	0.901900	0.178500
C631	C63	0.301300	0.886100	0.182700
C641	C64	0.347500	0.937000	0.225000
C651	C65	0.312100	0.004700	0.264700
C661	C66	0.231100	0.021700	0.261500
C671	C67	0.189500	0.970000	0.220200
C681	C68	0.438600	0.920600	0.230200
C691	C69	0.191600	0.091100	0.303100
C701	C70	0.227200	0.125800	0.374800
C711	C71	0.194400	0.192500	0.412700
C721	C72	0.119000	0.227300	0.377900
C731	C73	0.078700	0.198900	0.309300
C741	C74	0.118500	0.128600	0.273000
C751	C75	0.235200	0.224800	0.486400
C761	C76	0.267000	0.182000	0.535800
C771	C77	0.305000	0.209600	0.607400
C781	C78	0.311100	0.281200	0.629600
C791	C79	0.279200	0.326100	0.580700
C801	C80	0.238600	0.298900	0.508300
C811	C81	0.343100	0.163900	0.661100
C821	C82	0.290300	0.404500	0.603700
C831	C83	0.003700	0.238400	0.268800
C841	C84	0.943400	0.281700	0.305700
C851	C85	0.874100	0.322300	0.271500
C861	C86	0.861200	0.318100	0.198900
C871	C87	0.921400	0.271600	0.162000
C881	C88	0.989000	0.233100	0.197500
C891	C89	0.910300	0.268000	0.082400
C901	C90	0.811600	0.371500	0.311500
C911	C91	0.319500	0.133900	0.844900
C921	C92	0.277900	0.178500	0.901900
C931	C93	0.198700	0.182700	0.886100
C941	C94	0.152500	0.225000	0.937000
C951	C95	0.187900	0.264700	0.004700
C961	C96	0.268900	0.261500	0.021700
C971	C97	0.310500	0.220200	0.970000
C981	C98	0.061400	0.230200	0.920600
C991	C99	0.308400	0.303100	0.091100
C1001	C100	0.272800	0.374800	0.125800
C1011	C101	0.305600	0.412700	0.192500
C1021	C102	0.381000	0.377900	0.227300
C1031	C103	0.421300	0.309300	0.198900
C1041	C104	0.381500	0.273000	0.128600
C1051	C105	0.264800	0.486400	0.224800
C1061	C106	0.233000	0.535800	0.182000
C1071	C107	0.195000	0.607400	0.209600
C1081	C108	0.188900	0.629600	0.281200
C1091	C109	0.220800	0.580700	0.326100
C1101	C110	0.261400	0.508300	0.298900
C1111	C111	0.156900	0.661100	0.163900
C1121	C112	0.209700	0.603700	0.404500
C1131	C113	0.496300	0.268800	0.238400
C1141	C114	0.556600	0.305700	0.281700
C1151	C115	0.625900	0.271500	0.322300
C1161	C116	0.638800	0.198900	0.318100
C1171	C117	0.578600	0.162000	0.271600
C1181	C118	0.511000	0.197500	0.233100
C1191	C119	0.589700	0.082400	0.268000
C1201	C120	0.688400	0.311500	0.371500
O11	O1	0.893400	0.144500	0.861500
O21	O2	0.789200	0.211400	0.904800
O31	O3	0.539700	0.139200	0.818400
O41	O4	0.521600	0.041200	0.728400
O51	O5	0.660100	0.900400	0.362600
O61	O6	0.628600	0.807900	0.276300
O71	O7	0.682600	0.570600	0.330000
O81	O8	0.725500	0.562100	0.441700
O91	O9	0.051000	0.788500	0.954100
O101	O10	0.138000	0.679000	0.943000
O111	O11	0.259900	0.608900	0.728700
O121	O12	0.169800	0.603600	0.619200
O131	O13	0.606600	0.861500	0.144500
O141	O14	0.710800	0.904800	0.211400
O151	O15	0.960300	0.818400	0.139200
O161	O16	0.978400	0.728400	0.041200
O171	O17	0.839900	0.362600	0.900400
O181	O18	0.871400	0.276300	0.807900
O191	O19	0.817400	0.330000	0.570600
O201	O20	0.774500	0.441700	0.562100
O211	O21	0.449000	0.954100	0.788500
O221	O22	0.362000	0.943000	0.679000
O231	O23	0.240100	0.728700	0.608900
O241	O24	0.330200	0.619200	0.603600
O251	O25	0.106600	0.855500	0.138500
O261	O26	0.210800	0.788600	0.095200
O271	O27	0.460300	0.860800	0.181600
O281	O28	0.478400	0.958800	0.271600
O291	O29	0.339900	0.099600	0.637400
O301	O30	0.371400	0.192100	0.723700
O311	O31	0.317400	0.429400	0.670000
O321	O32	0.274500	0.437900	0.558300
O331	O33	0.949000	0.211500	0.045900
O341	O34	0.862000	0.321000	0.057000
O351	O35	0.740100	0.391100	0.271300
O361	O36	0.830200	0.396400	0.380800
O371	O37	0.393400	0.138500	0.855500
O381	O38	0.289200	0.095200	0.788600
O391	O39	0.039700	0.181600	0.860800
O401	O40	0.021600	0.271600	0.958800
O411	O41	0.160100	0.637400	0.099600
O421	O42	0.128600	0.723700	0.192100
O431	O43	0.182600	0.670000	0.429400
O441	O44	0.225500	0.558300	0.437900
O451	O45	0.551000	0.045900	0.211500
O461	O46	0.638000	0.057000	0.321000
O471	O47	0.759900	0.271300	0.391100
O481	O48	0.669800	0.380800	0.396400
