data_QUQPUO_clean_PM
_symmetry_space_group_name_H-M	'P1'
_cell_length_a	7.836600
_cell_length_b	14.763200
_cell_length_c	17.415300
_cell_angle_alpha	90.000000
_cell_angle_beta	90.000000
_cell_angle_gamma	95.439000
_symmetry_Int_Tables_number 1

loop_
_symmetry_equiv_pos_as_xyz
'x,y,z'

loop_
_atom_site_label
_atom_site_type_symbol
_atom_site_fract_x
_atom_site_fract_y
_atom_site_fract_z
Zn11	Zn1	0.785840	0.762670	0.753030
Zn21	Zn2	0.714160	0.737330	0.253030
Zn31	Zn3	0.214160	0.237330	0.246970
Zn41	Zn4	0.285840	0.262670	0.746970
H11	H1	0.436400	0.129300	0.564100
H21	H2	0.919100	0.558200	0.616400
H31	H3	0.395600	0.637200	0.005400
H41	H4	0.939500	0.570600	0.385900
H51	H5	0.593700	0.878500	0.566600
H61	H6	0.417000	0.720900	0.894300
H71	H7	0.615800	0.523200	0.785400
H81	H8	0.601400	0.436000	0.894400
H91	H9	0.063600	0.370700	0.064100
H101	H10	0.580900	0.941800	0.116400
H111	H11	0.104400	0.862800	0.505400
H121	H12	0.560500	0.929400	0.885900
H131	H13	0.906300	0.621500	0.066600
H141	H14	0.083000	0.779100	0.394300
H151	H15	0.884200	0.976800	0.285400
H161	H16	0.898600	0.064000	0.394400
H171	H17	0.563600	0.870700	0.435900
H181	H18	0.080900	0.441800	0.383600
H191	H19	0.604400	0.362800	0.994600
H201	H20	0.060500	0.429400	0.614100
H211	H21	0.406300	0.121500	0.433400
H221	H22	0.583000	0.279100	0.105700
H231	H23	0.384200	0.476800	0.214600
H241	H24	0.398600	0.564000	0.105600
H251	H25	0.936400	0.629300	0.935900
H261	H26	0.419100	0.058200	0.883600
H271	H27	0.895600	0.137200	0.494600
H281	H28	0.439500	0.070600	0.114100
H291	H29	0.093700	0.378500	0.933400
H301	H30	0.917000	0.220900	0.605700
H311	H31	0.115800	0.023200	0.714600
H321	H32	0.101400	0.936000	0.605600
C11	C1	0.911100	0.579320	0.501590
C21	C2	0.818700	0.661860	0.502660
C31	C3	0.479200	0.083870	0.704100
C41	C4	0.519300	0.005190	0.580900
C51	C5	0.606500	0.941130	0.705560
C61	C6	0.462400	0.077080	0.538560
C71	C7	0.752700	0.692530	0.434040
C81	C8	0.951000	0.535010	0.569420
C91	C9	0.502300	0.526930	0.964180
C101	C10	0.795300	0.706660	0.572150
C111	C11	0.537100	0.010460	0.665010
C121	C12	0.443700	0.613560	0.961880
C131	C13	0.963300	0.542350	0.431880
C141	C14	0.556200	0.927600	0.540140
C151	C15	0.457200	0.663650	0.895300
C161	C16	0.575300	0.546720	0.830690
C171	C17	0.565400	0.494230	0.895870
C181	C18	0.588900	0.920680	0.001590
C191	C19	0.681300	0.838140	0.002660
C201	C20	0.020800	0.416130	0.204100
C211	C21	0.980700	0.494810	0.080900
C221	C22	0.893500	0.558870	0.205560
C231	C23	0.037600	0.422920	0.038560
C241	C24	0.747300	0.807470	0.934040
C251	C25	0.549000	0.964990	0.069420
C261	C26	0.997700	0.973070	0.464180
C271	C27	0.704700	0.793340	0.072150
C281	C28	0.962900	0.489540	0.165010
C291	C29	0.056300	0.886440	0.461880
C301	C30	0.536700	0.957650	0.931880
C311	C31	0.943800	0.572400	0.040140
C321	C32	0.042800	0.836350	0.395300
C331	C33	0.924700	0.953280	0.330690
C341	C34	0.934600	0.005770	0.395870
C351	C35	0.088900	0.420680	0.498410
C361	C36	0.181300	0.338140	0.497340
C371	C37	0.520800	0.916130	0.295900
C381	C38	0.480700	0.994810	0.419100
C391	C39	0.393500	0.058870	0.294440
C401	C40	0.537600	0.922920	0.461440
C411	C41	0.247300	0.307470	0.565960
C421	C42	0.049000	0.464990	0.430580
C431	C43	0.497700	0.473070	0.035820
C441	C44	0.204700	0.293340	0.427850
C451	C45	0.462900	0.989540	0.334990
C461	C46	0.556300	0.386440	0.038120
C471	C47	0.036700	0.457650	0.568120
C481	C48	0.443800	0.072400	0.459860
C491	C49	0.542800	0.336350	0.104700
C501	C50	0.424700	0.453280	0.169310
C511	C51	0.434600	0.505770	0.104130
C521	C52	0.411100	0.079320	0.998410
C531	C53	0.318700	0.161860	0.997340
C541	C54	0.979200	0.583870	0.795900
C551	C55	0.019300	0.505190	0.919100
C561	C56	0.106500	0.441130	0.794440
C571	C57	0.962400	0.577080	0.961440
C581	C58	0.252700	0.192530	0.065960
C591	C59	0.451000	0.035010	0.930580
C601	C60	0.002300	0.026930	0.535820
C611	C61	0.295300	0.206660	0.927850
C621	C62	0.037100	0.510460	0.834990
C631	C63	0.943700	0.113560	0.538120
C641	C64	0.463300	0.042350	0.068120
C651	C65	0.056200	0.427600	0.959860
C661	C66	0.957200	0.163650	0.604700
C671	C67	0.075300	0.046720	0.669310
C681	C68	0.065400	0.994230	0.604130
N11	N1	0.664800	0.880680	0.734440
N21	N2	0.782000	0.737520	0.632750
N31	N3	0.527200	0.631650	0.831460
N41	N4	0.702000	0.711360	0.373970
N51	N5	0.425200	0.147280	0.730800
N61	N6	0.835200	0.619320	0.234440
N71	N7	0.718000	0.762480	0.132750
N81	N8	0.972800	0.868350	0.331460
N91	N9	0.798000	0.788640	0.873970
N101	N10	0.074800	0.352720	0.230800
N111	N11	0.335200	0.119320	0.265560
N121	N12	0.218000	0.262480	0.367250
N131	N13	0.472800	0.368350	0.168540
N141	N14	0.298000	0.288640	0.626030
N151	N15	0.574800	0.852720	0.269200
N161	N16	0.164800	0.380680	0.765560
N171	N17	0.282000	0.237520	0.867250
N181	N18	0.027200	0.131650	0.668540
N191	N19	0.202000	0.211360	0.126030
N201	N20	0.925200	0.647280	0.769200
O11	O1	0.546900	0.683910	0.769100
O21	O2	0.953100	0.816090	0.269100
O31	O3	0.453100	0.316090	0.230900
O41	O4	0.046900	0.183910	0.730900
