data_QURSEC_clean_PM
_symmetry_space_group_name_H-M	'P1'
_cell_length_a	12.556600
_cell_length_b	12.556600
_cell_length_c	25.085000
_cell_angle_alpha	90.000000
_cell_angle_beta	90.000000
_cell_angle_gamma	95.051100
_symmetry_Int_Tables_number 1

loop_
_symmetry_equiv_pos_as_xyz
'x,y,z'

loop_
_atom_site_label
_atom_site_type_symbol
_atom_site_fract_x
_atom_site_fract_y
_atom_site_fract_z
Zn11	Zn1	0.750000	0.750000	0.162480
Zn21	Zn2	0.750000	0.750000	0.662480
H11	H1	0.134800	0.624000	0.826400
H21	H2	0.999900	0.644300	0.764800
H31	H3	0.988600	0.949600	0.809300
H41	H4	0.122900	0.923700	0.873300
H51	H5	0.414800	0.881000	0.973200
H61	H6	0.544700	0.855700	0.037700
H71	H7	0.450200	0.543000	0.041300
H81	H8	0.318400	0.571200	0.977600
H91	H9	0.365200	0.876000	0.826400
H101	H10	0.500100	0.855700	0.764800
H111	H11	0.511400	0.550400	0.809300
H121	H12	0.377100	0.576300	0.873300
H131	H13	0.085200	0.619000	0.973200
H141	H14	0.955300	0.644300	0.037700
H151	H15	0.049800	0.957000	0.041300
H161	H16	0.181600	0.928800	0.977600
H171	H17	0.624000	0.134800	0.326400
H181	H18	0.644300	0.999900	0.264800
H191	H19	0.949600	0.988600	0.309300
H201	H20	0.923700	0.122900	0.373300
H211	H21	0.881000	0.414800	0.473200
H221	H22	0.855700	0.544700	0.537700
H231	H23	0.543000	0.450200	0.541300
H241	H24	0.571200	0.318400	0.477600
H251	H25	0.876000	0.365200	0.326400
H261	H26	0.855700	0.500100	0.264800
H271	H27	0.550400	0.511400	0.309300
H281	H28	0.576300	0.377100	0.373300
H291	H29	0.619000	0.085200	0.473200
H301	H30	0.644300	0.955300	0.537700
H311	H31	0.957000	0.049800	0.541300
H321	H32	0.928800	0.181600	0.477600
Pd11	Pd1	0.250000	0.750000	0.911920
Pd21	Pd2	0.750000	0.250000	0.411920
C11	C1	0.097700	0.866900	0.850300
C21	C2	0.017600	0.882600	0.812200
C31	C3	0.983000	0.798600	0.779100
C41	C4	0.898300	0.813900	0.737600
C51	C5	0.025400	0.703600	0.786200
C61	C6	0.104800	0.690600	0.823200
C71	C7	0.366400	0.629200	0.989300
C81	C8	0.443800	0.612800	0.027800
C91	C9	0.511600	0.698800	0.046400
C101	C10	0.499100	0.796100	0.025700
C111	C11	0.422900	0.811500	0.986600
C121	C12	0.595900	0.681700	0.085900
C131	C13	0.402300	0.633100	0.850300
C141	C14	0.482400	0.617400	0.812200
C151	C15	0.517000	0.701400	0.779100
C161	C16	0.601700	0.686100	0.737600
C171	C17	0.474600	0.796400	0.786200
C181	C18	0.395200	0.809400	0.823200
C191	C19	0.133600	0.870800	0.989300
C201	C20	0.056200	0.887200	0.027800
C211	C21	0.988400	0.801200	0.046400
C221	C22	0.000900	0.703900	0.025700
C231	C23	0.077100	0.688500	0.986600
C241	C24	0.904100	0.818300	0.085900
C251	C25	0.866900	0.097700	0.350300
C261	C26	0.882600	0.017600	0.312200
C271	C27	0.798600	0.983000	0.279100
C281	C28	0.813900	0.898300	0.237600
C291	C29	0.703600	0.025400	0.286200
C301	C30	0.690600	0.104800	0.323200
C311	C31	0.629200	0.366400	0.489300
C321	C32	0.612800	0.443800	0.527800
C331	C33	0.698800	0.511600	0.546400
C341	C34	0.796100	0.499100	0.525700
C351	C35	0.811500	0.422900	0.486600
C361	C36	0.681700	0.595900	0.585900
C371	C37	0.633100	0.402300	0.350300
C381	C38	0.617400	0.482400	0.312200
C391	C39	0.701400	0.517000	0.279100
C401	C40	0.686100	0.601700	0.237600
C411	C41	0.796400	0.474600	0.286200
C421	C42	0.809400	0.395200	0.323200
C431	C43	0.870800	0.133600	0.489300
C441	C44	0.887200	0.056200	0.527800
C451	C45	0.801200	0.988400	0.546400
C461	C46	0.703900	0.000900	0.525700
C471	C47	0.688500	0.077100	0.486600
C481	C48	0.818300	0.904100	0.585900
N11	N1	0.359400	0.727600	0.968800
N21	N2	0.139100	0.772500	0.854200
N31	N3	0.140600	0.772400	0.968800
N41	N4	0.360900	0.727500	0.854200
N51	N5	0.727600	0.359400	0.468800
N61	N6	0.772500	0.139100	0.354200
N71	N7	0.772400	0.140600	0.468800
N81	N8	0.727500	0.360900	0.354200
O11	O1	0.876700	0.736500	0.707300
O21	O2	0.858500	0.897900	0.736600
O31	O3	0.626300	0.759700	0.115200
O41	O4	0.634600	0.592000	0.087700
O51	O5	0.623300	0.763500	0.707300
O61	O6	0.641500	0.602100	0.736600
O71	O7	0.873700	0.740300	0.115200
O81	O8	0.865400	0.908000	0.087700
O91	O9	0.736500	0.876700	0.207300
O101	O10	0.897900	0.858500	0.236600
O111	O11	0.759700	0.626300	0.615200
O121	O12	0.592000	0.634600	0.587700
O131	O13	0.763500	0.623300	0.207300
O141	O14	0.602100	0.641500	0.236600
O151	O15	0.740300	0.873700	0.615200
O161	O16	0.908000	0.865400	0.587700
Zn31	Zn3	0.250000	0.250000	0.337520
Zn41	Zn4	0.250000	0.250000	0.837520
H331	H33	0.376000	0.865200	0.673600
H341	H34	0.355700	0.000100	0.735200
H351	H35	0.050400	0.011400	0.690700
H361	H36	0.076300	0.877100	0.626700
H371	H37	0.119000	0.585200	0.526800
H381	H38	0.144300	0.455300	0.462300
H391	H39	0.457000	0.549800	0.458700
H401	H40	0.428800	0.681600	0.522400
H411	H41	0.124000	0.634800	0.673600
H421	H42	0.144300	0.499900	0.735200
H431	H43	0.449600	0.488600	0.690700
H441	H44	0.423700	0.622900	0.626700
H451	H45	0.381000	0.914800	0.526800
H461	H46	0.355700	0.044700	0.462300
H471	H47	0.043000	0.950200	0.458700
H481	H48	0.071200	0.818400	0.522400
H491	H49	0.865200	0.376000	0.173600
H501	H50	0.000100	0.355700	0.235200
H511	H51	0.011400	0.050400	0.190700
H521	H52	0.877100	0.076300	0.126700
H531	H53	0.585200	0.119000	0.026800
H541	H54	0.455300	0.144300	0.962300
H551	H55	0.549800	0.457000	0.958700
H561	H56	0.681600	0.428800	0.022400
H571	H57	0.634800	0.124000	0.173600
H581	H58	0.499900	0.144300	0.235200
H591	H59	0.488600	0.449600	0.190700
H601	H60	0.622900	0.423700	0.126700
H611	H61	0.914800	0.381000	0.026800
H621	H62	0.044700	0.355700	0.962300
H631	H63	0.950200	0.043000	0.958700
H641	H64	0.818400	0.071200	0.022400
Pd31	Pd3	0.250000	0.750000	0.588080
Pd41	Pd4	0.750000	0.250000	0.088080
C491	C49	0.133100	0.902300	0.649700
C501	C50	0.117400	0.982400	0.687800
C511	C51	0.201400	0.017000	0.720900
C521	C52	0.186100	0.101700	0.762400
C531	C53	0.296400	0.974600	0.713800
C541	C54	0.309400	0.895200	0.676800
C551	C55	0.370800	0.633600	0.510700
C561	C56	0.387200	0.556200	0.472200
C571	C57	0.301200	0.488400	0.453600
C581	C58	0.203900	0.500900	0.474300
C591	C59	0.188500	0.577100	0.513400
C601	C60	0.318300	0.404100	0.414100
C611	C61	0.366900	0.597700	0.649700
C621	C62	0.382600	0.517600	0.687800
C631	C63	0.298600	0.483000	0.720900
C641	C64	0.313900	0.398300	0.762400
C651	C65	0.203600	0.525400	0.713800
C661	C66	0.190600	0.604800	0.676800
C671	C67	0.129200	0.866400	0.510700
C681	C68	0.112800	0.943800	0.472200
C691	C69	0.198800	0.011600	0.453600
C701	C70	0.296100	0.999100	0.474300
C711	C71	0.311500	0.922900	0.513400
C721	C72	0.181700	0.095900	0.414100
C731	C73	0.902300	0.133100	0.149700
C741	C74	0.982400	0.117400	0.187800
C751	C75	0.017000	0.201400	0.220900
C761	C76	0.101700	0.186100	0.262400
C771	C77	0.974600	0.296400	0.213800
C781	C78	0.895200	0.309400	0.176800
C791	C79	0.633600	0.370800	0.010700
C801	C80	0.556200	0.387200	0.972200
C811	C81	0.488400	0.301200	0.953600
C821	C82	0.500900	0.203900	0.974300
C831	C83	0.577100	0.188500	0.013400
C841	C84	0.404100	0.318300	0.914100
C851	C85	0.597700	0.366900	0.149700
C861	C86	0.517600	0.382600	0.187800
C871	C87	0.483000	0.298600	0.220900
C881	C88	0.398300	0.313900	0.262400
C891	C89	0.525400	0.203600	0.213800
C901	C90	0.604800	0.190600	0.176800
C911	C91	0.866400	0.129200	0.010700
C921	C92	0.943800	0.112800	0.972200
C931	C93	0.011600	0.198800	0.953600
C941	C94	0.999100	0.296100	0.974300
C951	C95	0.922900	0.311500	0.013400
C961	C96	0.095900	0.181700	0.914100
N91	N9	0.272400	0.640600	0.531200
N101	N10	0.227500	0.860900	0.645800
N111	N11	0.227600	0.859400	0.531200
N121	N12	0.272500	0.639100	0.645800
N131	N13	0.640600	0.272400	0.031200
N141	N14	0.860900	0.227500	0.145800
N151	N15	0.859400	0.227600	0.031200
N161	N16	0.639100	0.272500	0.145800
O171	O17	0.263500	0.123300	0.792700
O181	O18	0.102100	0.141500	0.763400
O191	O19	0.240300	0.373700	0.384800
O201	O20	0.408000	0.365400	0.412300
O211	O21	0.236500	0.376700	0.792700
O221	O22	0.397900	0.358500	0.763400
O231	O23	0.259700	0.126300	0.384800
O241	O24	0.092000	0.134600	0.412300
O251	O25	0.123300	0.263500	0.292700
O261	O26	0.141500	0.102100	0.263400
O271	O27	0.373700	0.240300	0.884800
O281	O28	0.365400	0.408000	0.912300
O291	O29	0.376700	0.236500	0.292700
O301	O30	0.358500	0.397900	0.263400
O311	O31	0.126300	0.259700	0.884800
O321	O32	0.134600	0.092000	0.912300
