data_QUSCAJ_clean_PM
_symmetry_space_group_name_H-M	'P1'
_cell_length_a	9.689200
_cell_length_b	17.681000
_cell_length_c	21.158000
_cell_angle_alpha	90.000000
_cell_angle_beta	90.000000
_cell_angle_gamma	105.426000
_symmetry_Int_Tables_number 1

loop_
_symmetry_equiv_pos_as_xyz
'x,y,z'

loop_
_atom_site_label
_atom_site_type_symbol
_atom_site_fract_x
_atom_site_fract_y
_atom_site_fract_z
Li11	Li1	0.976900	0.492100	0.285400
Li21	Li2	0.523100	0.007900	0.785400
Li31	Li3	0.023100	0.507900	0.714600
Li41	Li4	0.476900	0.992100	0.214600
Cd11	Cd1	0.424380	0.925710	0.647380
Cd21	Cd2	0.075620	0.574290	0.147380
Cd31	Cd3	0.575620	0.074290	0.352620
Cd41	Cd4	0.924380	0.425710	0.852620
Cd51	Cd5	0.500000	0.000000	0.500000
Cd61	Cd6	0.000000	0.500000	0.000000
H11	H1	0.663000	0.859000	0.463400
H21	H2	0.092000	0.875000	0.444100
H31	H3	0.936000	0.926000	0.607300
H41	H4	0.673600	0.863200	0.355800
H51	H5	0.642800	0.775100	0.376100
H61	H6	0.699200	0.800700	0.307800
H71	H7	0.842400	0.715700	0.393000
H81	H8	0.999000	0.767900	0.382700
H91	H9	0.897800	0.740700	0.324500
H101	H10	0.924500	0.938200	0.332800
H111	H11	0.945700	0.870200	0.289400
H121	H12	0.047000	0.898000	0.347500
H131	H13	0.302000	0.807000	0.265100
H141	H14	0.379000	0.819000	0.456000
H151	H15	0.161000	0.613000	0.372000
H161	H16	0.116800	0.725200	0.530100
H171	H17	0.277000	0.773800	0.536800
H181	H18	0.216900	0.699500	0.579100
H191	H19	0.407800	0.646500	0.549400
H201	H20	0.470600	0.723200	0.510100
H211	H21	0.447300	0.640800	0.478000
H221	H22	0.066400	0.592300	0.478700
H231	H23	0.161200	0.570700	0.532200
H241	H24	0.197100	0.559800	0.461100
H251	H25	0.837000	0.641000	0.963400
H261	H26	0.408000	0.625000	0.944100
H271	H27	0.564000	0.574000	0.107300
H281	H28	0.826400	0.636800	0.855800
H291	H29	0.857200	0.724900	0.876100
H301	H30	0.800800	0.699300	0.807800
H311	H31	0.657600	0.784300	0.893000
H321	H32	0.501000	0.732100	0.882700
H331	H33	0.602200	0.759300	0.824500
H341	H34	0.575500	0.561800	0.832800
H351	H35	0.554300	0.629800	0.789400
H361	H36	0.453000	0.602000	0.847500
H371	H37	0.198000	0.693000	0.765100
H381	H38	0.121000	0.681000	0.956000
H391	H39	0.339000	0.887000	0.872000
H401	H40	0.383200	0.774800	0.030100
H411	H41	0.223000	0.726200	0.036800
H421	H42	0.283100	0.800500	0.079100
H431	H43	0.092200	0.853500	0.049400
H441	H44	0.029400	0.776800	0.010100
H451	H45	0.052700	0.859200	0.978000
H461	H46	0.433600	0.907700	0.978700
H471	H47	0.338800	0.929300	0.032200
H481	H48	0.302900	0.940200	0.961100
H491	H49	0.337000	0.141000	0.536600
H501	H50	0.908000	0.125000	0.555900
H511	H51	0.064000	0.074000	0.392700
H521	H52	0.326400	0.136800	0.644200
H531	H53	0.357200	0.224900	0.623900
H541	H54	0.300800	0.199300	0.692200
H551	H55	0.157600	0.284300	0.607000
H561	H56	0.001000	0.232100	0.617300
H571	H57	0.102200	0.259300	0.675500
H581	H58	0.075500	0.061800	0.667200
H591	H59	0.054300	0.129800	0.710600
H601	H60	0.953000	0.102000	0.652500
H611	H61	0.698000	0.193000	0.734900
H621	H62	0.621000	0.181000	0.544000
H631	H63	0.839000	0.387000	0.628000
H641	H64	0.883200	0.274800	0.469900
H651	H65	0.723000	0.226200	0.463200
H661	H66	0.783100	0.300500	0.420900
H671	H67	0.592200	0.353500	0.450600
H681	H68	0.529400	0.276800	0.489900
H691	H69	0.552700	0.359200	0.522000
H701	H70	0.933600	0.407700	0.521300
H711	H71	0.838800	0.429300	0.467800
H721	H72	0.802900	0.440200	0.538900
H731	H73	0.163000	0.359000	0.036600
H741	H74	0.592000	0.375000	0.055900
H751	H75	0.436000	0.426000	0.892700
H761	H76	0.173600	0.363200	0.144200
H771	H77	0.142800	0.275100	0.123900
H781	H78	0.199200	0.300700	0.192200
H791	H79	0.342400	0.215700	0.107000
H801	H80	0.499000	0.267900	0.117300
H811	H81	0.397800	0.240700	0.175500
H821	H82	0.424500	0.438200	0.167200
H831	H83	0.445700	0.370200	0.210600
H841	H84	0.547000	0.398000	0.152500
H851	H85	0.802000	0.307000	0.234900
H861	H86	0.879000	0.319000	0.044000
H871	H87	0.661000	0.113000	0.128000
H881	H88	0.616800	0.225200	0.969900
H891	H89	0.777000	0.273800	0.963200
H901	H90	0.716900	0.199500	0.920900
H911	H91	0.907800	0.146500	0.950600
H921	H92	0.970600	0.223200	0.989900
H931	H93	0.947300	0.140800	0.022000
H941	H94	0.566400	0.092300	0.021300
H951	H95	0.661200	0.070700	0.967800
H961	H96	0.697100	0.059800	0.038900
C11	C1	0.656100	0.897690	0.583180
C21	C2	0.779700	0.890970	0.542980
C31	C3	0.757200	0.866470	0.480220
C41	C4	0.870400	0.859000	0.442000
C51	C5	0.006800	0.879700	0.468370
C61	C6	0.030900	0.904130	0.530880
C71	C7	0.916400	0.909110	0.568530
C81	C8	0.182200	0.925010	0.555100
C91	C9	0.849500	0.830000	0.373560
C101	C10	0.704200	0.816100	0.351500
C111	C11	0.902000	0.756900	0.367900
C121	C12	0.951000	0.889600	0.332000
C131	C13	0.165900	0.659000	0.252320
C141	C14	0.225200	0.705190	0.310350
C151	C15	0.291700	0.784470	0.304870
C161	C16	0.348100	0.827230	0.358280
C171	C17	0.335300	0.790420	0.417260
C181	C18	0.267300	0.710990	0.423790
C191	C19	0.213000	0.669060	0.369060
C201	C20	0.426900	0.913390	0.351490
C211	C21	0.255000	0.672000	0.489060
C221	C22	0.212600	0.722100	0.538100
C231	C23	0.410200	0.670500	0.508500
C241	C24	0.161900	0.591800	0.490400
C251	C25	0.843900	0.602310	0.083180
C261	C26	0.720300	0.609030	0.042980
C271	C27	0.742800	0.633530	0.980220
C281	C28	0.629600	0.641000	0.942000
C291	C29	0.493200	0.620300	0.968370
C301	C30	0.469100	0.595870	0.030880
C311	C31	0.583600	0.590890	0.068530
C321	C32	0.317800	0.574990	0.055100
C331	C33	0.650500	0.670000	0.873560
C341	C34	0.795800	0.683900	0.851500
C351	C35	0.598000	0.743100	0.867900
C361	C36	0.549000	0.610400	0.832000
C371	C37	0.334100	0.841000	0.752320
C381	C38	0.274800	0.794810	0.810350
C391	C39	0.208300	0.715530	0.804870
C401	C40	0.151900	0.672770	0.858280
C411	C41	0.164700	0.709580	0.917260
C421	C42	0.232700	0.789010	0.923790
C431	C43	0.287000	0.830940	0.869060
C441	C44	0.073100	0.586610	0.851490
C451	C45	0.245000	0.828000	0.989060
C461	C46	0.287400	0.777900	0.038100
C471	C47	0.089800	0.829500	0.008500
C481	C48	0.338100	0.908200	0.990400
C491	C49	0.343900	0.102310	0.416820
C501	C50	0.220300	0.109030	0.457020
C511	C51	0.242800	0.133530	0.519780
C521	C52	0.129600	0.141000	0.558000
C531	C53	0.993200	0.120300	0.531630
C541	C54	0.969100	0.095870	0.469120
C551	C55	0.083600	0.090890	0.431470
C561	C56	0.817800	0.074990	0.444900
C571	C57	0.150500	0.170000	0.626440
C581	C58	0.295800	0.183900	0.648500
C591	C59	0.098000	0.243100	0.632100
C601	C60	0.049000	0.110400	0.668000
C611	C61	0.834100	0.341000	0.747680
C621	C62	0.774800	0.294810	0.689650
C631	C63	0.708300	0.215530	0.695130
C641	C64	0.651900	0.172770	0.641720
C651	C65	0.664700	0.209580	0.582740
C661	C66	0.732700	0.289010	0.576210
C671	C67	0.787000	0.330940	0.630940
C681	C68	0.573100	0.086610	0.648510
C691	C69	0.745000	0.328000	0.510940
C701	C70	0.787400	0.277900	0.461900
C711	C71	0.589800	0.329500	0.491500
C721	C72	0.838100	0.408200	0.509600
C731	C73	0.156100	0.397690	0.916820
C741	C74	0.279700	0.390970	0.957020
C751	C75	0.257200	0.366470	0.019780
C761	C76	0.370400	0.359000	0.058000
C771	C77	0.506800	0.379700	0.031630
C781	C78	0.530900	0.404130	0.969120
C791	C79	0.416400	0.409110	0.931470
C801	C80	0.682200	0.425010	0.944900
C811	C81	0.349500	0.330000	0.126440
C821	C82	0.204200	0.316100	0.148500
C831	C83	0.402000	0.256900	0.132100
C841	C84	0.451000	0.389600	0.168000
C851	C85	0.665900	0.159000	0.247680
C861	C86	0.725200	0.205190	0.189650
C871	C87	0.791700	0.284470	0.195130
C881	C88	0.848100	0.327230	0.141720
C891	C89	0.835300	0.290420	0.082740
C901	C90	0.767300	0.210990	0.076210
C911	C91	0.713000	0.169060	0.130940
C921	C92	0.926900	0.413390	0.148510
C931	C93	0.755000	0.172000	0.010940
C941	C94	0.712600	0.222100	0.961900
C951	C95	0.910200	0.170500	0.991500
C961	C96	0.661900	0.091800	0.009600
O11	O1	0.536100	0.894940	0.555690
O21	O2	0.668900	0.905850	0.641250
O31	O3	0.203500	0.924280	0.612900
O41	O4	0.276600	0.940250	0.512740
O51	O5	0.171400	0.692790	0.200260
O61	O6	0.113800	0.585800	0.257110
O71	O7	0.434100	0.944140	0.299040
O81	O8	0.488700	0.949330	0.398990
O91	O9	0.963900	0.605060	0.055690
O101	O10	0.831100	0.594150	0.141250
O111	O11	0.296500	0.575720	0.112900
O121	O12	0.223400	0.559750	0.012740
O131	O13	0.328600	0.807210	0.700260
O141	O14	0.386200	0.914200	0.757110
O151	O15	0.065900	0.555860	0.799040
O161	O16	0.011300	0.550670	0.898990
O171	O17	0.463900	0.105060	0.444310
O181	O18	0.331100	0.094150	0.358750
O191	O19	0.796500	0.075720	0.387100
O201	O20	0.723400	0.059750	0.487260
O211	O21	0.828600	0.307210	0.799740
O221	O22	0.886200	0.414200	0.742890
O231	O23	0.565900	0.055860	0.700960
O241	O24	0.511300	0.050670	0.601010
O251	O25	0.036100	0.394940	0.944310
O261	O26	0.168900	0.405850	0.858750
O271	O27	0.703500	0.424280	0.887100
O281	O28	0.776600	0.440250	0.987260
O291	O29	0.671400	0.192790	0.299740
O301	O30	0.613800	0.085800	0.242890
O311	O31	0.934100	0.444140	0.200960
O321	O32	0.988700	0.449330	0.101010
