data_QUSCEN_clean_PM
_symmetry_space_group_name_H-M	'P1'
_cell_length_a	23.303300
_cell_length_b	23.303300
_cell_length_c	6.578800
_cell_angle_alpha	90.000000
_cell_angle_beta	90.000000
_cell_angle_gamma	90.000000
_symmetry_Int_Tables_number 1

loop_
_symmetry_equiv_pos_as_xyz
'x,y,z'

loop_
_atom_site_label
_atom_site_type_symbol
_atom_site_fract_x
_atom_site_fract_y
_atom_site_fract_z
O11	O1	0.962750	0.544340	0.454500
O21	O2	0.925580	0.575700	0.732300
C11	C1	0.929170	0.578100	0.547200
C21	C2	0.897880	0.622540	0.427600
C31	C3	0.854300	0.653200	0.523600
H11	H1	0.844600	0.644700	0.657300
C41	C4	0.825500	0.696200	0.422300
H21	H2	0.796600	0.716600	0.487800
C51	C5	0.839300	0.708670	0.227500
C61	C6	0.880900	0.675600	0.125900
H31	H3	0.888700	0.682300	0.989200
C71	C7	0.909890	0.633890	0.228100
H41	H4	0.938100	0.612900	0.161600
O31	O3	0.462750	0.044340	0.954500
O41	O4	0.425580	0.075700	0.232300
C81	C8	0.429170	0.078100	0.047200
C91	C9	0.397880	0.122540	0.927600
C101	C10	0.354300	0.153200	0.023600
H51	H5	0.344600	0.144700	0.157300
C111	C11	0.325500	0.196200	0.922300
H61	H6	0.296600	0.216600	0.987800
C121	C12	0.339300	0.208670	0.727500
C131	C13	0.380900	0.175600	0.625900
H71	H7	0.388700	0.182300	0.489200
C141	C14	0.409890	0.133890	0.728100
H81	H8	0.438100	0.112900	0.661600
O51	O5	0.037250	0.455660	0.454500
O61	O6	0.074420	0.424300	0.732300
C151	C15	0.070830	0.421900	0.547200
C161	C16	0.102120	0.377460	0.427600
C171	C17	0.145700	0.346800	0.523600
H91	H9	0.155400	0.355300	0.657300
C181	C18	0.174500	0.303800	0.422300
H101	H10	0.203400	0.283400	0.487800
C191	C19	0.160700	0.291330	0.227500
C201	C20	0.119100	0.324400	0.125900
H111	H11	0.111300	0.317700	0.989200
C211	C21	0.090110	0.366110	0.228100
H121	H12	0.061900	0.387100	0.161600
O71	O7	0.537250	0.955660	0.954500
O81	O8	0.574420	0.924300	0.232300
C221	C22	0.570830	0.921900	0.047200
C231	C23	0.602120	0.877460	0.927600
C241	C24	0.645700	0.846800	0.023600
H131	H13	0.655400	0.855300	0.157300
C251	C25	0.674500	0.803800	0.922300
H141	H14	0.703400	0.783400	0.987800
C261	C26	0.660700	0.791330	0.727500
C271	C27	0.619100	0.824400	0.625900
H151	H15	0.611300	0.817700	0.489200
C281	C28	0.590110	0.866110	0.728100
H161	H16	0.561900	0.887100	0.661600
O91	O9	0.544340	0.037250	0.545500
O101	O10	0.575700	0.074420	0.267700
C291	C29	0.578100	0.070830	0.452800
C301	C30	0.622540	0.102120	0.572400
C311	C31	0.653200	0.145700	0.476400
H171	H17	0.644700	0.155400	0.342700
C321	C32	0.696200	0.174500	0.577700
H181	H18	0.716600	0.203400	0.512200
C331	C33	0.708670	0.160700	0.772500
C341	C34	0.675600	0.119100	0.874100
H191	H19	0.682300	0.111300	0.010800
C351	C35	0.633890	0.090110	0.771900
H201	H20	0.612900	0.061900	0.838400
O111	O11	0.044340	0.537250	0.045500
O121	O12	0.075700	0.574420	0.767700
C361	C36	0.078100	0.570830	0.952800
C371	C37	0.122540	0.602120	0.072400
C381	C38	0.153200	0.645700	0.976400
H211	H21	0.144700	0.655400	0.842700
C391	C39	0.196200	0.674500	0.077700
H221	H22	0.216600	0.703400	0.012200
C401	C40	0.208670	0.660700	0.272500
C411	C41	0.175600	0.619100	0.374100
H231	H23	0.182300	0.611300	0.510800
C421	C42	0.133890	0.590110	0.271900
H241	H24	0.112900	0.561900	0.338400
O131	O13	0.455660	0.962750	0.545500
O141	O14	0.424300	0.925580	0.267700
C431	C43	0.421900	0.929170	0.452800
C441	C44	0.377460	0.897880	0.572400
C451	C45	0.346800	0.854300	0.476400
H251	H25	0.355300	0.844600	0.342700
C461	C46	0.303800	0.825500	0.577700
H261	H26	0.283400	0.796600	0.512200
C471	C47	0.291330	0.839300	0.772500
C481	C48	0.324400	0.880900	0.874100
H271	H27	0.317700	0.888700	0.010800
C491	C49	0.366110	0.909890	0.771900
H281	H28	0.387100	0.938100	0.838400
O151	O15	0.955660	0.462750	0.045500
O161	O16	0.924300	0.425580	0.767700
C501	C50	0.921900	0.429170	0.952800
C511	C51	0.877460	0.397880	0.072400
C521	C52	0.846800	0.354300	0.976400
H291	H29	0.855300	0.344600	0.842700
C531	C53	0.803800	0.325500	0.077700
H301	H30	0.783400	0.296600	0.012200
C541	C54	0.791330	0.339300	0.272500
C551	C55	0.824400	0.380900	0.374100
H311	H31	0.817700	0.388700	0.510800
C561	C56	0.866110	0.409890	0.271900
H321	H32	0.887100	0.438100	0.338400
O171	O17	0.537250	0.544340	0.295500
O181	O18	0.574420	0.575700	0.017700
C571	C57	0.570830	0.578100	0.202800
C581	C58	0.602120	0.622540	0.322400
C591	C59	0.645700	0.653200	0.226400
H331	H33	0.655400	0.644700	0.092700
C601	C60	0.674500	0.696200	0.327700
H341	H34	0.703400	0.716600	0.262200
C611	C61	0.660700	0.708670	0.522500
C621	C62	0.619100	0.675600	0.624100
H351	H35	0.611300	0.682300	0.760800
C631	C63	0.590110	0.633890	0.521900
H361	H36	0.561900	0.612900	0.588400
O191	O19	0.037250	0.044340	0.795500
O201	O20	0.074420	0.075700	0.517700
C641	C64	0.070830	0.078100	0.702800
C651	C65	0.102120	0.122540	0.822400
C661	C66	0.145700	0.153200	0.726400
H371	H37	0.155400	0.144700	0.592700
C671	C67	0.174500	0.196200	0.827700
H381	H38	0.203400	0.216600	0.762200
C681	C68	0.160700	0.208670	0.022500
C691	C69	0.119100	0.175600	0.124100
H391	H39	0.111300	0.182300	0.260800
C701	C70	0.090110	0.133890	0.021900
H401	H40	0.061900	0.112900	0.088400
O211	O21	0.462750	0.455660	0.295500
O221	O22	0.425580	0.424300	0.017700
C711	C71	0.429170	0.421900	0.202800
C721	C72	0.397880	0.377460	0.322400
C731	C73	0.354300	0.346800	0.226400
H411	H41	0.344600	0.355300	0.092700
C741	C74	0.325500	0.303800	0.327700
H421	H42	0.296600	0.283400	0.262200
C751	C75	0.339300	0.291330	0.522500
C761	C76	0.380900	0.324400	0.624100
H431	H43	0.388700	0.317700	0.760800
C771	C77	0.409890	0.366110	0.521900
H441	H44	0.438100	0.387100	0.588400
O231	O23	0.962750	0.955660	0.795500
O241	O24	0.925580	0.924300	0.517700
C781	C78	0.929170	0.921900	0.702800
C791	C79	0.897880	0.877460	0.822400
C801	C80	0.854300	0.846800	0.726400
H451	H45	0.844600	0.855300	0.592700
C811	C81	0.825500	0.803800	0.827700
H461	H46	0.796600	0.783400	0.762200
C821	C82	0.839300	0.791330	0.022500
C831	C83	0.880900	0.824400	0.124100
H471	H47	0.888700	0.817700	0.260800
C841	C84	0.909890	0.866110	0.021900
H481	H48	0.938100	0.887100	0.088400
O251	O25	0.955660	0.037250	0.204500
O261	O26	0.924300	0.074420	0.482300
C851	C85	0.921900	0.070830	0.297200
C861	C86	0.877460	0.102120	0.177600
C871	C87	0.846800	0.145700	0.273600
H491	H49	0.855300	0.155400	0.407300
C881	C88	0.803800	0.174500	0.172300
H501	H50	0.783400	0.203400	0.237800
C891	C89	0.791330	0.160700	0.977500
C901	C90	0.824400	0.119100	0.875900
H511	H51	0.817700	0.111300	0.739200
C911	C91	0.866110	0.090110	0.978100
H521	H52	0.887100	0.061900	0.911600
O271	O27	0.455660	0.537250	0.704500
O281	O28	0.424300	0.574420	0.982300
C921	C92	0.421900	0.570830	0.797200
C931	C93	0.377460	0.602120	0.677600
C941	C94	0.346800	0.645700	0.773600
H531	H53	0.355300	0.655400	0.907300
C951	C95	0.303800	0.674500	0.672300
H541	H54	0.283400	0.703400	0.737800
C961	C96	0.291330	0.660700	0.477500
C971	C97	0.324400	0.619100	0.375900
H551	H55	0.317700	0.611300	0.239200
C981	C98	0.366110	0.590110	0.478100
H561	H56	0.387100	0.561900	0.411600
O291	O29	0.044340	0.962750	0.204500
O301	O30	0.075700	0.925580	0.482300
C991	C99	0.078100	0.929170	0.297200
C1001	C100	0.122540	0.897880	0.177600
C1011	C101	0.153200	0.854300	0.273600
H571	H57	0.144700	0.844600	0.407300
C1021	C102	0.196200	0.825500	0.172300
H581	H58	0.216600	0.796600	0.237800
C1031	C103	0.208670	0.839300	0.977500
C1041	C104	0.175600	0.880900	0.875900
H591	H59	0.182300	0.888700	0.739200
C1051	C105	0.133890	0.909890	0.978100
H601	H60	0.112900	0.938100	0.911600
O311	O31	0.544340	0.462750	0.704500
O321	O32	0.575700	0.425580	0.982300
C1061	C106	0.578100	0.429170	0.797200
C1071	C107	0.622540	0.397880	0.677600
C1081	C108	0.653200	0.354300	0.773600
H611	H61	0.644700	0.344600	0.907300
C1091	C109	0.696200	0.325500	0.672300
H621	H62	0.716600	0.296600	0.737800
C1101	C110	0.708670	0.339300	0.477500
C1111	C111	0.675600	0.380900	0.375900
H631	H63	0.682300	0.388700	0.239200
C1121	C112	0.633890	0.409890	0.478100
H641	H64	0.612900	0.438100	0.411600
Cd11	Cd1	0.000000	0.500000	0.750000
Cd21	Cd2	0.500000	0.000000	0.250000
Cd31	Cd3	0.500000	0.500000	0.000000
Cd41	Cd4	0.000000	0.000000	0.500000
O331	O33	0.808520	0.750000	0.125000
O341	O34	0.308520	0.250000	0.625000
O351	O35	0.191480	0.250000	0.125000
O361	O36	0.750000	0.191480	0.875000
O371	O37	0.250000	0.691480	0.375000
O381	O38	0.250000	0.808520	0.875000
O391	O39	0.750000	0.308520	0.375000
O401	O40	0.691480	0.750000	0.625000
Li11	Li1	0.000000	0.500000	0.250000
Li21	Li2	0.500000	0.000000	0.750000
Li31	Li3	0.500000	0.500000	0.500000
Li41	Li4	0.000000	0.000000	0.000000
