data_QUSSII_clean_PM
_symmetry_space_group_name_H-M	'P1'
_cell_length_a	11.497000
_cell_length_b	33.542000
_cell_length_c	12.106000
_cell_angle_alpha	90.000000
_cell_angle_beta	116.840000
_cell_angle_gamma	90.000000
_symmetry_Int_Tables_number 1

loop_
_symmetry_equiv_pos_as_xyz
'x,y,z'

loop_
_atom_site_label
_atom_site_type_symbol
_atom_site_fract_x
_atom_site_fract_y
_atom_site_fract_z
C11	C1	0.973200	0.112600	0.681700
H11	H1	0.011400	0.107000	0.766100
C21	C2	0.048100	0.108600	0.619500
H21	H2	0.134900	0.100800	0.661000
C31	C3	0.990800	0.116500	0.494800
C41	C4	0.863600	0.127600	0.436400
H31	H3	0.822900	0.132700	0.351800
C51	C5	0.795700	0.131400	0.506000
H41	H4	0.709000	0.139500	0.466300
C61	C6	0.070000	0.114800	0.422500
C71	C7	0.166600	0.086300	0.447300
H51	H5	0.186300	0.067800	0.510400
C81	C8	0.232500	0.086100	0.376000
H61	H6	0.293800	0.066300	0.388700
C91	C9	0.118300	0.142200	0.267300
H71	H7	0.102900	0.161600	0.207300
C101	C10	0.047500	0.142700	0.332300
H81	H8	0.983700	0.162100	0.315300
C111	C11	0.283600	0.114600	0.216500
H91	H9	0.649000	0.180100	0.837200
C121	C12	0.416800	0.110400	0.277700
H101	H10	0.460700	0.107300	0.363100
C131	C13	0.483200	0.111200	0.205000
H111	H11	0.573300	0.108200	0.242200
C141	C14	0.415600	0.116300	0.078300
C151	C15	0.283200	0.120300	0.021400
H121	H12	0.239000	0.124000	0.936200
C161	C16	0.213900	0.118900	0.091200
H131	H13	0.123500	0.120900	0.053600
C171	C17	0.486100	0.119500	0.997700
C181	C18	0.318400	0.182300	0.559100
C191	C19	0.216200	0.214500	0.522800
C201	C20	0.145700	0.219200	0.590300
H141	H14	0.158500	0.201900	0.654700
C211	C21	0.056600	0.250000	0.560000
H151	H15	0.010200	0.253500	0.605400
C221	C22	0.035500	0.275740	0.463500
C231	C23	0.103700	0.269700	0.393500
H161	H16	0.087500	0.286000	0.325800
C241	C24	0.194500	0.239700	0.425500
H171	H17	0.241900	0.236400	0.380900
C251	C25	0.939800	0.309060	0.431800
C261	C26	0.535000	0.073710	0.633200
C271	C27	0.519200	0.035320	0.566900
C281	C28	0.434800	0.006190	0.570900
H181	H18	0.391300	0.010400	0.618600
C291	C29	0.585100	0.028750	0.495100
H191	H19	0.641900	0.047900	0.492100
C301	C30	0.865500	0.076880	0.948500
C311	C31	0.937000	0.037100	0.977000
C321	C32	0.997300	0.021800	0.095800
H201	H20	0.995600	0.036200	0.160700
C331	C33	0.939900	0.014700	0.880500
H211	H21	0.899300	0.024400	0.799900
N11	N1	0.848900	0.123980	0.626300
N21	N2	0.209900	0.114190	0.288100
O11	O1	0.606800	0.117760	0.048600
O21	O2	0.413300	0.122500	0.885600
O31	O3	0.330400	0.161510	0.650900
O41	O4	0.380700	0.177620	0.498400
O51	O5	0.913200	0.320930	0.515700
O61	O6	0.896000	0.322670	0.325100
O71	O7	0.593700	0.101640	0.610300
O81	O8	0.483300	0.076160	0.705500
O91	O9	0.826300	0.089620	0.842000
O101	O10	0.851900	0.093810	0.038300
O111	O11	0.645200	0.156450	0.833300
Zn11	Zn1	0.745840	0.139470	0.730110
Zn21	Zn2	0.476350	0.130190	0.761940
Zn31	Zn3	0.758690	0.145820	0.011570
C341	C34	0.026800	0.612600	0.818300
H221	H22	0.988600	0.607000	0.733900
C351	C35	0.951900	0.608600	0.880500
H231	H23	0.865100	0.600800	0.839000
C361	C36	0.009200	0.616500	0.005200
C371	C37	0.136400	0.627600	0.063600
H241	H24	0.177100	0.632700	0.148200
C381	C38	0.204300	0.631400	0.994000
H251	H25	0.291000	0.639500	0.033700
C391	C39	0.930000	0.614800	0.077500
C401	C40	0.833400	0.586300	0.052700
H261	H26	0.813700	0.567800	0.989600
C411	C41	0.767500	0.586100	0.124000
H271	H27	0.706200	0.566300	0.111300
C421	C42	0.881700	0.642200	0.232700
H281	H28	0.897100	0.661600	0.292700
C431	C43	0.952500	0.642700	0.167700
H291	H29	0.016300	0.662100	0.184700
C441	C44	0.716400	0.614600	0.283500
H301	H30	0.351000	0.680100	0.662800
C451	C45	0.583200	0.610400	0.222300
H311	H31	0.539300	0.607300	0.136900
C461	C46	0.516800	0.611200	0.295000
H321	H32	0.426700	0.608200	0.257800
C471	C47	0.584400	0.616300	0.421700
C481	C48	0.716800	0.620300	0.478600
H331	H33	0.761000	0.624000	0.563800
C491	C49	0.786100	0.618900	0.408800
H341	H34	0.876500	0.620900	0.446400
C501	C50	0.513900	0.619500	0.502300
C511	C51	0.681600	0.682300	0.940900
C521	C52	0.783800	0.714500	0.977200
C531	C53	0.854300	0.719200	0.909700
H351	H35	0.841500	0.701900	0.845300
C541	C54	0.943400	0.750000	0.940000
H361	H36	0.989800	0.753500	0.894600
C551	C55	0.964500	0.775740	0.036500
C561	C56	0.896300	0.769700	0.106500
H371	H37	0.912500	0.786000	0.174200
C571	C57	0.805500	0.739700	0.074500
H381	H38	0.758100	0.736400	0.119100
C581	C58	0.060200	0.809060	0.068200
C591	C59	0.465000	0.573710	0.866800
C601	C60	0.480800	0.535320	0.933100
C611	C61	0.565200	0.506190	0.929100
H391	H39	0.608700	0.510400	0.881400
C621	C62	0.414900	0.528750	0.004900
H401	H40	0.358100	0.547900	0.007900
C631	C63	0.134500	0.576880	0.551500
C641	C64	0.063000	0.537100	0.523000
C651	C65	0.002700	0.521800	0.404200
H411	H41	0.004400	0.536200	0.339300
C661	C66	0.060100	0.514700	0.619500
H421	H42	0.100700	0.524400	0.700100
N31	N3	0.151100	0.623980	0.873700
N41	N4	0.790100	0.614190	0.211900
O121	O12	0.393200	0.617760	0.451400
O131	O13	0.586700	0.622500	0.614400
O141	O14	0.669600	0.661510	0.849100
O151	O15	0.619300	0.677620	0.001600
O161	O16	0.086800	0.820930	0.984300
O171	O17	0.104000	0.822670	0.174900
O181	O18	0.406300	0.601640	0.889700
O191	O19	0.516700	0.576160	0.794500
O201	O20	0.173700	0.589620	0.658000
O211	O21	0.148100	0.593810	0.461700
O221	O22	0.354800	0.656450	0.666700
Zn41	Zn4	0.254160	0.639470	0.769890
Zn51	Zn5	0.523650	0.630190	0.738060
Zn61	Zn6	0.241310	0.645820	0.488430
C671	C67	0.026800	0.887400	0.318300
H431	H43	0.988600	0.893000	0.233900
C681	C68	0.951900	0.891400	0.380500
H441	H44	0.865100	0.899200	0.339000
C691	C69	0.009200	0.883500	0.505200
C701	C70	0.136400	0.872400	0.563600
H451	H45	0.177100	0.867300	0.648200
C711	C71	0.204300	0.868600	0.494000
H461	H46	0.291000	0.860500	0.533700
C721	C72	0.930000	0.885200	0.577500
C731	C73	0.833400	0.913700	0.552700
H471	H47	0.813700	0.932200	0.489600
C741	C74	0.767500	0.913900	0.624000
H481	H48	0.706200	0.933700	0.611300
C751	C75	0.881700	0.857800	0.732700
H491	H49	0.897100	0.838400	0.792700
C761	C76	0.952500	0.857300	0.667700
H501	H50	0.016300	0.837900	0.684700
C771	C77	0.716400	0.885400	0.783500
H511	H51	0.351000	0.819900	0.162800
C781	C78	0.583200	0.889600	0.722300
H521	H52	0.539300	0.892700	0.636900
C791	C79	0.516800	0.888800	0.795000
H531	H53	0.426700	0.891800	0.757800
C801	C80	0.584400	0.883700	0.921700
C811	C81	0.716800	0.879700	0.978600
H541	H54	0.761000	0.876000	0.063800
C821	C82	0.786100	0.881100	0.908800
H551	H55	0.876500	0.879100	0.946400
C831	C83	0.513900	0.880500	0.002300
C841	C84	0.681600	0.817700	0.440900
C851	C85	0.783800	0.785500	0.477200
C861	C86	0.854300	0.780800	0.409700
H561	H56	0.841500	0.798100	0.345300
C871	C87	0.943400	0.750000	0.440000
H571	H57	0.989800	0.746500	0.394600
C881	C88	0.964500	0.724260	0.536500
C891	C89	0.896300	0.730300	0.606500
H581	H58	0.912500	0.714000	0.674200
C901	C90	0.805500	0.760300	0.574500
H591	H59	0.758100	0.763600	0.619100
C911	C91	0.060200	0.690940	0.568200
C921	C92	0.465000	0.926290	0.366800
C931	C93	0.480800	0.964680	0.433100
C941	C94	0.565200	0.993810	0.429100
H601	H60	0.608700	0.989600	0.381400
C951	C95	0.414900	0.971250	0.504900
H611	H61	0.358100	0.952100	0.507900
C961	C96	0.134500	0.923120	0.051500
C971	C97	0.063000	0.962900	0.023000
C981	C98	0.002700	0.978200	0.904200
H621	H62	0.004400	0.963800	0.839300
C991	C99	0.060100	0.985300	0.119500
H631	H63	0.100700	0.975600	0.200100
N51	N5	0.151100	0.876020	0.373700
N61	N6	0.790100	0.885810	0.711900
O231	O23	0.393200	0.882240	0.951400
O241	O24	0.586700	0.877500	0.114400
O251	O25	0.669600	0.838490	0.349100
O261	O26	0.619300	0.822380	0.501600
O271	O27	0.086800	0.679070	0.484300
O281	O28	0.104000	0.677330	0.674900
O291	O29	0.406300	0.898360	0.389700
O301	O30	0.516700	0.923840	0.294500
O311	O31	0.173700	0.910380	0.158000
O321	O32	0.148100	0.906190	0.961700
O331	O33	0.354800	0.843550	0.166700
Zn71	Zn7	0.254160	0.860530	0.269890
Zn81	Zn8	0.523650	0.869810	0.238060
Zn91	Zn9	0.241310	0.854180	0.988430
C1001	C100	0.973200	0.387400	0.181700
H641	H64	0.011400	0.393000	0.266100
C1011	C101	0.048100	0.391400	0.119500
H651	H65	0.134900	0.399200	0.161000
C1021	C102	0.990800	0.383500	0.994800
C1031	C103	0.863600	0.372400	0.936400
H661	H66	0.822900	0.367300	0.851800
C1041	C104	0.795700	0.368600	0.006000
H671	H67	0.709000	0.360500	0.966300
C1051	C105	0.070000	0.385200	0.922500
C1061	C106	0.166600	0.413700	0.947300
H681	H68	0.186300	0.432200	0.010400
C1071	C107	0.232500	0.413900	0.876000
H691	H69	0.293800	0.433700	0.888700
C1081	C108	0.118300	0.357800	0.767300
H701	H70	0.102900	0.338400	0.707300
C1091	C109	0.047500	0.357300	0.832300
H711	H71	0.983700	0.337900	0.815300
C1101	C110	0.283600	0.385400	0.716500
H721	H72	0.649000	0.319900	0.337200
C1111	C111	0.416800	0.389600	0.777700
H731	H73	0.460700	0.392700	0.863100
C1121	C112	0.483200	0.388800	0.705000
H741	H74	0.573300	0.391800	0.742200
C1131	C113	0.415600	0.383700	0.578300
C1141	C114	0.283200	0.379700	0.521400
H751	H75	0.239000	0.376000	0.436200
C1151	C115	0.213900	0.381100	0.591200
H761	H76	0.123500	0.379100	0.553600
C1161	C116	0.486100	0.380500	0.497700
C1171	C117	0.318400	0.317700	0.059100
C1181	C118	0.216200	0.285500	0.022800
C1191	C119	0.145700	0.280800	0.090300
H771	H77	0.158500	0.298100	0.154700
C1201	C120	0.056600	0.250000	0.060000
H781	H78	0.010200	0.246500	0.105400
C1211	C121	0.035500	0.224260	0.963500
C1221	C122	0.103700	0.230300	0.893500
H791	H79	0.087500	0.214000	0.825800
C1231	C123	0.194500	0.260300	0.925500
H801	H80	0.241900	0.263600	0.880900
C1241	C124	0.939800	0.190940	0.931800
C1251	C125	0.535000	0.426290	0.133200
C1261	C126	0.519200	0.464680	0.066900
C1271	C127	0.434800	0.493810	0.070900
H811	H81	0.391300	0.489600	0.118600
C1281	C128	0.585100	0.471250	0.995100
H821	H82	0.641900	0.452100	0.992100
C1291	C129	0.865500	0.423120	0.448500
C1301	C130	0.937000	0.462900	0.477000
C1311	C131	0.997300	0.478200	0.595800
H831	H83	0.995600	0.463800	0.660700
C1321	C132	0.939900	0.485300	0.380500
H841	H84	0.899300	0.475600	0.299900
N71	N7	0.848900	0.376020	0.126300
N81	N8	0.209900	0.385810	0.788100
O341	O34	0.606800	0.382240	0.548600
O351	O35	0.413300	0.377500	0.385600
O361	O36	0.330400	0.338490	0.150900
O371	O37	0.380700	0.322380	0.998400
O381	O38	0.913200	0.179070	0.015700
O391	O39	0.896000	0.177330	0.825100
O401	O40	0.593700	0.398360	0.110300
O411	O41	0.483300	0.423840	0.205500
O421	O42	0.826300	0.410380	0.342000
O431	O43	0.851900	0.406190	0.538300
O441	O44	0.645200	0.343550	0.333300
Zn101	Zn10	0.745840	0.360530	0.230110
Zn111	Zn11	0.476350	0.369810	0.261940
Zn121	Zn12	0.758690	0.354180	0.511570
