data_QUTTII_clean_PM
_symmetry_space_group_name_H-M	'P1'
_cell_length_a	7.452000
_cell_length_b	14.586000
_cell_length_c	16.472000
_cell_angle_alpha	90.000000
_cell_angle_beta	90.000000
_cell_angle_gamma	95.460000
_symmetry_Int_Tables_number 1

loop_
_symmetry_equiv_pos_as_xyz
'x,y,z'

loop_
_atom_site_label
_atom_site_type_symbol
_atom_site_fract_x
_atom_site_fract_y
_atom_site_fract_z
Co11	Co1	0.209000	0.676110	0.486470
Co21	Co2	0.188710	0.472510	0.372160
Co31	Co3	0.291000	0.823890	0.986470
Co41	Co4	0.311290	0.027490	0.872160
Co51	Co5	0.791000	0.323890	0.513530
Co61	Co6	0.811290	0.527490	0.627840
Co71	Co7	0.709000	0.176110	0.013530
Co81	Co8	0.688710	0.972510	0.127840
Co91	Co9	0.500000	0.500000	0.500000
Co101	Co10	0.000000	0.000000	0.000000
H11	H1	0.837000	0.490200	0.475900
H21	H2	0.432100	0.669600	0.205100
H31	H3	0.050500	0.725900	0.225000
H41	H4	0.663000	0.009800	0.975900
H51	H5	0.067900	0.830400	0.705100
H61	H6	0.449500	0.774100	0.725000
H71	H7	0.163000	0.509800	0.524100
H81	H8	0.567900	0.330400	0.794900
H91	H9	0.949500	0.274100	0.775000
H101	H10	0.337000	0.990200	0.024100
H111	H11	0.932100	0.169600	0.294900
H121	H12	0.550500	0.225900	0.275000
C11	C1	0.832700	0.663200	0.280500
C21	C2	0.646700	0.645800	0.275600
C31	C3	0.556100	0.683300	0.210100
C41	C4	0.647400	0.740200	0.152700
C51	C5	0.835500	0.756000	0.158700
C61	C6	0.925500	0.716300	0.222100
C71	C7	0.943700	0.625800	0.346600
C81	C8	0.532100	0.591600	0.337200
C91	C9	0.530500	0.778500	0.088700
C101	C10	0.951400	0.816800	0.101900
C111	C11	0.667300	0.836800	0.780500
C121	C12	0.853300	0.854200	0.775600
C131	C13	0.943900	0.816700	0.710100
C141	C14	0.852600	0.759800	0.652700
C151	C15	0.664500	0.744000	0.658700
C161	C16	0.574500	0.783700	0.722100
C171	C17	0.556300	0.874200	0.846600
C181	C18	0.967900	0.908400	0.837200
C191	C19	0.969500	0.721500	0.588700
C201	C20	0.548600	0.683200	0.601900
C211	C21	0.167300	0.336800	0.719500
C221	C22	0.353300	0.354200	0.724400
C231	C23	0.443900	0.316700	0.789900
C241	C24	0.352600	0.259800	0.847300
C251	C25	0.164500	0.244000	0.841300
C261	C26	0.074500	0.283700	0.777900
C271	C27	0.056300	0.374200	0.653400
C281	C28	0.467900	0.408400	0.662800
C291	C29	0.469500	0.221500	0.911300
C301	C30	0.048600	0.183200	0.898100
C311	C31	0.332700	0.163200	0.219500
C321	C32	0.146700	0.145800	0.224400
C331	C33	0.056100	0.183300	0.289900
C341	C34	0.147400	0.240200	0.347300
C351	C35	0.335500	0.256000	0.341300
C361	C36	0.425500	0.216300	0.277900
C371	C37	0.443700	0.125800	0.153400
C381	C38	0.032100	0.091600	0.162800
C391	C39	0.030500	0.278500	0.411300
C401	C40	0.451400	0.316800	0.398100
O11	O1	0.962200	0.539400	0.343500
O21	O2	0.014200	0.679800	0.396700
O31	O3	0.373700	0.562000	0.317600
O41	O4	0.602900	0.582100	0.405600
O51	O5	0.520300	0.863200	0.082700
O61	O6	0.432900	0.723200	0.046900
O71	O7	0.093900	0.788500	0.075800
O81	O8	0.899700	0.896400	0.084300
O91	O9	0.758000	0.459300	0.517200
O101	O10	0.537800	0.960600	0.843500
O111	O11	0.485800	0.820200	0.896700
O121	O12	0.126300	0.938000	0.817600
O131	O13	0.897100	0.917900	0.905600
O141	O14	0.979700	0.636800	0.582700
O151	O15	0.067100	0.776800	0.546900
O161	O16	0.406100	0.711500	0.575800
O171	O17	0.600300	0.603600	0.584300
O181	O18	0.742000	0.040700	0.017200
O191	O19	0.037800	0.460600	0.656500
O201	O20	0.985800	0.320200	0.603300
O211	O21	0.626300	0.438000	0.682400
O221	O22	0.397100	0.417900	0.594400
O231	O23	0.479700	0.136800	0.917300
O241	O24	0.567100	0.276800	0.953100
O251	O25	0.906100	0.211500	0.924200
O261	O26	0.100300	0.103600	0.915700
O271	O27	0.242000	0.540700	0.482800
O281	O28	0.462200	0.039400	0.156500
O291	O29	0.514200	0.179800	0.103300
O301	O30	0.873700	0.062000	0.182400
O311	O31	0.102900	0.082100	0.094400
O321	O32	0.020300	0.363200	0.417300
O331	O33	0.932900	0.223200	0.453100
O341	O34	0.593900	0.288500	0.424200
O351	O35	0.399700	0.396400	0.415700
O361	O36	0.258000	0.959300	0.982800
