data_QUTTII01_clean_PM
_symmetry_space_group_name_H-M	'P1'
_cell_length_a	7.412000
_cell_length_b	16.466600
_cell_length_c	14.502800
_cell_angle_alpha	90.000000
_cell_angle_beta	95.352000
_cell_angle_gamma	90.000000
_symmetry_Int_Tables_number 1

loop_
_symmetry_equiv_pos_as_xyz
'x,y,z'

loop_
_atom_site_label
_atom_site_type_symbol
_atom_site_fract_x
_atom_site_fract_y
_atom_site_fract_z
Co11	Co1	0.709140	0.013250	0.676710
Co21	Co2	0.689010	0.127920	0.473370
O11	O1	0.741100	0.016560	0.540000
O21	O2	0.514000	0.102960	0.681470
O31	O3	0.463000	0.155460	0.539530
O41	O4	0.019300	0.417610	0.864390
O51	O5	0.102100	0.094160	0.582450
O61	O6	0.931400	0.451940	0.722500
O71	O7	0.400600	0.415280	0.896890
O81	O8	0.873100	0.183020	0.564730
O91	O9	0.592300	0.423040	0.788640
C11	C1	0.442600	0.152080	0.624700
C21	C2	0.337300	0.340090	0.757870
C31	C3	0.144100	0.224850	0.646970
C41	C4	0.452500	0.397850	0.818450
C51	C5	0.331400	0.218970	0.662960
C61	C6	0.056600	0.289840	0.683480
H11	H1	0.932300	0.295600	0.669200
C71	C7	0.031600	0.162230	0.592790
C81	C8	0.426000	0.277480	0.716950
H21	H2	0.551700	0.274600	0.725800
C91	C9	0.147600	0.346540	0.740380
C101	C10	0.030100	0.410130	0.778590
Co31	Co3	0.790860	0.513250	0.823290
Co41	Co4	0.810990	0.627920	0.026630
O101	O10	0.758900	0.516560	0.960000
O111	O11	0.986000	0.602960	0.818530
O121	O12	0.037000	0.655460	0.960470
O131	O13	0.480700	0.917610	0.635610
O141	O14	0.397900	0.594160	0.917550
O151	O15	0.568600	0.951940	0.777500
O161	O16	0.099400	0.915280	0.603110
O171	O17	0.626900	0.683020	0.935270
O181	O18	0.907700	0.923040	0.711360
C111	C11	0.057400	0.652080	0.875300
C121	C12	0.162700	0.840090	0.742130
C131	C13	0.355900	0.724850	0.853030
C141	C14	0.047500	0.897850	0.681550
C151	C15	0.168600	0.718970	0.837040
C161	C16	0.443400	0.789840	0.816520
H31	H3	0.567700	0.795600	0.830800
C171	C17	0.468400	0.662230	0.907210
C181	C18	0.074000	0.777480	0.783050
H41	H4	0.948300	0.774600	0.774200
C191	C19	0.352400	0.846540	0.759620
C201	C20	0.469900	0.910130	0.721410
Co51	Co5	0.290860	0.986750	0.323290
Co61	Co6	0.310990	0.872080	0.526630
O191	O19	0.258900	0.983440	0.460000
O201	O20	0.486000	0.897040	0.318530
O211	O21	0.537000	0.844540	0.460470
O221	O22	0.980700	0.582390	0.135610
O231	O23	0.897900	0.905840	0.417550
O241	O24	0.068600	0.548060	0.277500
O251	O25	0.599400	0.584720	0.103110
O261	O26	0.126900	0.816980	0.435270
O271	O27	0.407700	0.576960	0.211360
C211	C21	0.557400	0.847920	0.375300
C221	C22	0.662700	0.659910	0.242130
C231	C23	0.855900	0.775150	0.353030
C241	C24	0.547500	0.602150	0.181550
C251	C25	0.668600	0.781030	0.337040
C261	C26	0.943400	0.710160	0.316520
H51	H5	0.067700	0.704400	0.330800
C271	C27	0.968400	0.837770	0.407210
C281	C28	0.574000	0.722520	0.283050
H61	H6	0.448300	0.725400	0.274200
C291	C29	0.852400	0.653460	0.259620
C301	C30	0.969900	0.589870	0.221410
Co71	Co7	0.209140	0.486750	0.176710
Co81	Co8	0.189010	0.372080	0.973370
O281	O28	0.241100	0.483440	0.040000
O291	O29	0.014000	0.397040	0.181470
O301	O30	0.963000	0.344540	0.039530
O311	O31	0.519300	0.082390	0.364390
O321	O32	0.602100	0.405840	0.082450
O331	O33	0.431400	0.048060	0.222500
O341	O34	0.900600	0.084720	0.396890
O351	O35	0.373100	0.316980	0.064730
O361	O36	0.092300	0.076960	0.288640
C311	C31	0.942600	0.347920	0.124700
C321	C32	0.837300	0.159910	0.257870
C331	C33	0.644100	0.275150	0.146970
C341	C34	0.952500	0.102150	0.318450
C351	C35	0.831400	0.281030	0.162960
C361	C36	0.556600	0.210160	0.183480
H71	H7	0.432300	0.204400	0.169200
C371	C37	0.531600	0.337770	0.092790
C381	C38	0.926000	0.222520	0.216950
H81	H8	0.051700	0.225400	0.225800
C391	C39	0.647600	0.153460	0.240380
C401	C40	0.530100	0.089870	0.278590
Co91	Co9	0.000000	0.000000	0.500000
Co101	Co10	0.500000	0.500000	0.000000
