data_QUVDOB_clean_PM
_symmetry_space_group_name_H-M	'P1'
_cell_length_a	11.431900
_cell_length_b	14.845700
_cell_length_c	16.389000
_cell_angle_alpha	90.000000
_cell_angle_beta	90.000000
_cell_angle_gamma	90.000000
_symmetry_Int_Tables_number 1

loop_
_symmetry_equiv_pos_as_xyz
'x,y,z'

loop_
_atom_site_label
_atom_site_type_symbol
_atom_site_fract_x
_atom_site_fract_y
_atom_site_fract_z
Dy11	Dy1	0.274060	0.744080	0.431430
Dy21	Dy2	0.236270	0.805140	0.054960
Dy31	Dy3	0.225940	0.255920	0.931430
Dy41	Dy4	0.263730	0.194860	0.554960
Dy51	Dy5	0.725940	0.244080	0.068570
Dy61	Dy6	0.763730	0.305140	0.445040
Dy71	Dy7	0.774060	0.755920	0.568570
Dy81	Dy8	0.736270	0.694860	0.945040
P11	P1	0.258300	0.817800	0.832400
P21	P2	0.317500	0.947700	0.547300
P31	P3	0.241700	0.182200	0.332400
P41	P4	0.182500	0.052300	0.047300
P51	P5	0.741700	0.317800	0.667600
P61	P6	0.682500	0.447700	0.952700
P71	P7	0.758300	0.682200	0.167600
P81	P8	0.817500	0.552300	0.452700
H11	H1	0.398900	0.747300	0.796600
H21	H2	0.470900	0.007300	0.534100
H31	H3	0.232200	0.005100	0.694400
H41	H4	0.877400	0.153700	0.743600
H51	H5	0.335100	0.956600	0.802300
H61	H6	0.203900	0.966400	0.827400
H71	H7	0.387400	0.905400	0.677600
H81	H8	0.292000	0.836400	0.649100
H91	H9	0.088700	0.937900	0.626000
H101	H10	0.090600	0.858300	0.688600
H111	H11	0.993900	0.882900	0.822800
H121	H12	0.858900	0.959900	0.899300
H131	H13	0.801700	0.101400	0.858000
H141	H14	0.989000	0.072300	0.657600
H151	H15	0.101100	0.252700	0.296600
H161	H16	0.029100	0.992700	0.034100
H171	H17	0.267800	0.994900	0.194400
H181	H18	0.622600	0.846300	0.243600
H191	H19	0.164900	0.043400	0.302300
H201	H20	0.296100	0.033600	0.327400
H211	H21	0.112600	0.094600	0.177600
H221	H22	0.208000	0.163600	0.149100
H231	H23	0.411300	0.062100	0.126000
H241	H24	0.409400	0.141700	0.188600
H251	H25	0.506100	0.117100	0.322800
H261	H26	0.641100	0.040100	0.399300
H271	H27	0.698300	0.898600	0.358000
H281	H28	0.511000	0.927700	0.157600
H291	H29	0.601100	0.247300	0.703400
H301	H30	0.529100	0.507300	0.965900
H311	H31	0.767800	0.505100	0.805600
H321	H32	0.122600	0.653700	0.756400
H331	H33	0.664900	0.456600	0.697700
H341	H34	0.796100	0.466400	0.672600
H351	H35	0.612600	0.405400	0.822400
H361	H36	0.708000	0.336400	0.850900
H371	H37	0.911300	0.437900	0.874000
H381	H38	0.909400	0.358300	0.811400
H391	H39	0.006100	0.382900	0.677200
H401	H40	0.141100	0.459900	0.600700
H411	H41	0.198300	0.601400	0.642000
H421	H42	0.011000	0.572300	0.842400
H431	H43	0.898900	0.752700	0.203400
H441	H44	0.970900	0.492700	0.465900
H451	H45	0.732200	0.494900	0.305600
H461	H46	0.377400	0.346300	0.256400
H471	H47	0.835100	0.543400	0.197700
H481	H48	0.703900	0.533600	0.172600
H491	H49	0.887400	0.594600	0.322400
H501	H50	0.792000	0.663600	0.350900
H511	H51	0.588700	0.562100	0.374000
H521	H52	0.590600	0.641700	0.311400
H531	H53	0.493900	0.617100	0.177200
H541	H54	0.358900	0.540100	0.100700
H551	H55	0.301700	0.398600	0.142000
H561	H56	0.489000	0.427700	0.342400
C11	C1	0.257600	0.931500	0.794200
C21	C2	0.311000	0.900000	0.652400
C31	C3	0.102000	0.922800	0.682800
C41	C4	0.010000	0.971600	0.735100
C51	C5	0.968000	0.939000	0.805000
C61	C6	0.888600	0.985100	0.851600
C71	C7	0.854000	0.068000	0.827000
C81	C8	0.968700	0.050800	0.709000
C91	C9	0.500100	0.739900	0.543400
C101	C10	0.548700	0.764700	0.457400
C111	C11	0.261300	0.823500	0.251200
C121	C12	0.243000	0.723100	0.237200
C131	C13	0.462500	0.702400	0.987500
C141	C14	0.508200	0.798200	0.007700
C151	C15	0.242400	0.068500	0.294200
C161	C16	0.189000	0.100000	0.152400
C171	C17	0.398000	0.077200	0.182800
C181	C18	0.490000	0.028400	0.235100
C191	C19	0.532000	0.061000	0.305000
C201	C20	0.611400	0.014900	0.351600
C211	C21	0.646000	0.932000	0.327000
C221	C22	0.531300	0.949200	0.209000
C231	C23	0.999900	0.260100	0.043400
C241	C24	0.951300	0.235300	0.957400
C251	C25	0.238700	0.176500	0.751200
C261	C26	0.257000	0.276900	0.737200
C271	C27	0.037500	0.297600	0.487500
C281	C28	0.991800	0.201800	0.507700
C291	C29	0.742400	0.431500	0.705800
C301	C30	0.689000	0.400000	0.847600
C311	C31	0.898000	0.422800	0.817200
C321	C32	0.990000	0.471600	0.764900
C331	C33	0.032000	0.439000	0.695000
C341	C34	0.111400	0.485100	0.648400
C351	C35	0.146000	0.568000	0.673000
C361	C36	0.031300	0.550800	0.791000
C371	C37	0.499900	0.239900	0.956600
C381	C38	0.451300	0.264700	0.042600
C391	C39	0.738700	0.323500	0.248800
C401	C40	0.757000	0.223100	0.262800
C411	C41	0.537500	0.202400	0.512500
C421	C42	0.491800	0.298200	0.492300
C431	C43	0.757600	0.568500	0.205800
C441	C44	0.811000	0.600000	0.347600
C451	C45	0.602000	0.577200	0.317200
C461	C46	0.510000	0.528400	0.264900
C471	C47	0.468000	0.561000	0.195000
C481	C48	0.388600	0.514900	0.148400
C491	C49	0.354000	0.432000	0.173000
C501	C50	0.468700	0.449200	0.291000
C511	C51	0.000100	0.760100	0.456600
C521	C52	0.048700	0.735300	0.542600
C531	C53	0.761300	0.676500	0.748800
C541	C54	0.743000	0.776900	0.762800
C551	C55	0.962500	0.797600	0.012500
C561	C56	0.008200	0.701800	0.992300
N11	N1	0.224000	0.945100	0.704300
N21	N2	0.896100	0.100000	0.758100
N31	N3	0.276000	0.054900	0.204300
N41	N4	0.603900	0.900000	0.258100
N51	N5	0.776000	0.445100	0.795700
N61	N6	0.103900	0.600000	0.741900
N71	N7	0.724000	0.554900	0.295700
N81	N8	0.396100	0.400000	0.241900
O11	O1	0.181000	0.763900	0.783800
O21	O2	0.232400	0.829800	0.919300
O31	O3	0.391200	0.789400	0.828500
O41	O4	0.260800	0.038800	0.551300
O51	O5	0.263000	0.884500	0.489400
O61	O6	0.450300	0.954500	0.531100
O71	O7	0.392800	0.726400	0.551600
O81	O8	0.574000	0.736800	0.600300
O91	O9	0.652400	0.779500	0.453000
O101	O10	0.471600	0.761700	0.401300
O111	O11	0.272100	0.849700	0.322100
O121	O12	0.259400	0.868600	0.187000
O131	O13	0.228200	0.696100	0.166200
O141	O14	0.250900	0.672700	0.300300
O151	O15	0.531400	0.650400	0.952300
O161	O16	0.361300	0.683900	0.008000
O171	O17	0.435600	0.847200	0.044400
O181	O18	0.608400	0.815900	0.986300
O191	O19	0.319000	0.236100	0.283800
O201	O20	0.267600	0.170200	0.419300
O211	O21	0.108800	0.210600	0.328500
O221	O22	0.239200	0.961200	0.051300
O231	O23	0.237000	0.115500	0.989400
O241	O24	0.049700	0.045500	0.031100
O251	O25	0.107200	0.273600	0.051600
O261	O26	0.926000	0.263200	0.100300
O271	O27	0.847600	0.220500	0.953000
O281	O28	0.028400	0.238300	0.901300
O291	O29	0.227900	0.150300	0.822100
O301	O30	0.240600	0.131400	0.687000
O311	O31	0.271800	0.303900	0.666200
O321	O32	0.249100	0.327300	0.800300
O331	O33	0.968600	0.349600	0.452300
O341	O34	0.138700	0.316100	0.508000
O351	O35	0.064400	0.152800	0.544400
O361	O36	0.891600	0.184100	0.486300
O371	O37	0.819000	0.263900	0.716200
O381	O38	0.767600	0.329800	0.580700
O391	O39	0.608800	0.289400	0.671500
O401	O40	0.739200	0.538800	0.948700
O411	O41	0.737000	0.384500	0.010600
O421	O42	0.549700	0.454500	0.968900
O431	O43	0.607200	0.226400	0.948400
O441	O44	0.426000	0.236800	0.899700
O451	O45	0.347600	0.279500	0.047000
O461	O46	0.528400	0.261700	0.098700
O471	O47	0.727900	0.349700	0.177900
O481	O48	0.740600	0.368600	0.313000
O491	O49	0.771800	0.196100	0.333800
O501	O50	0.749100	0.172700	0.199700
O511	O51	0.468600	0.150400	0.547700
O521	O52	0.638700	0.183900	0.492000
O531	O53	0.564400	0.347200	0.455600
O541	O54	0.391600	0.315900	0.513700
O551	O55	0.681000	0.736100	0.216200
O561	O56	0.732400	0.670200	0.080700
O571	O57	0.891200	0.710600	0.171500
O581	O58	0.760800	0.461200	0.448700
O591	O59	0.763000	0.615500	0.510600
O601	O60	0.950300	0.545500	0.468900
O611	O61	0.892800	0.773600	0.448400
O621	O62	0.074000	0.763200	0.399700
O631	O63	0.152400	0.720500	0.547000
O641	O64	0.971600	0.738300	0.598700
O651	O65	0.772100	0.650300	0.677900
O661	O66	0.759400	0.631400	0.813000
O671	O67	0.728200	0.803900	0.833800
O681	O68	0.750900	0.827300	0.699700
O691	O69	0.031400	0.849600	0.047700
O701	O70	0.861300	0.816100	0.992000
O711	O71	0.935600	0.652800	0.955600
O721	O72	0.108400	0.684100	0.013700
