data_QUVFET_clean_PM
_symmetry_space_group_name_H-M	'P1'
_cell_length_a	11.250600
_cell_length_b	14.835400
_cell_length_c	16.184300
_cell_angle_alpha	90.000000
_cell_angle_beta	90.000000
_cell_angle_gamma	90.000000
_symmetry_Int_Tables_number 1

loop_
_symmetry_equiv_pos_as_xyz
'x,y,z'

loop_
_atom_site_label
_atom_site_type_symbol
_atom_site_fract_x
_atom_site_fract_y
_atom_site_fract_z
Lu11	Lu1	0.272970	0.747300	0.431890
Lu21	Lu2	0.243090	0.804650	0.055020
Lu31	Lu3	0.227030	0.252700	0.931890
Lu41	Lu4	0.256910	0.195350	0.555020
Lu51	Lu5	0.727030	0.247300	0.068110
Lu61	Lu6	0.756910	0.304650	0.444980
Lu71	Lu7	0.772970	0.752700	0.568110
Lu81	Lu8	0.743090	0.695350	0.944980
P11	P1	0.261400	0.818500	0.833190
P21	P2	0.312200	0.950500	0.545200
P31	P3	0.238600	0.181500	0.333190
P41	P4	0.187800	0.049500	0.045200
P51	P5	0.738600	0.318500	0.666810
P61	P6	0.687800	0.450500	0.954800
P71	P7	0.761400	0.681500	0.166810
P81	P8	0.812200	0.549500	0.454800
H11	H1	0.404000	0.751200	0.794100
H21	H2	0.466000	0.011800	0.528700
H31	H3	0.227400	0.007000	0.695800
H41	H4	0.862900	0.152100	0.742300
H51	H5	0.327800	0.963700	0.805100
H61	H6	0.192700	0.964600	0.827000
H71	H7	0.387400	0.908600	0.675100
H81	H8	0.290500	0.839100	0.647300
H91	H9	0.085300	0.933000	0.627300
H101	H10	0.089900	0.856900	0.694500
H111	H11	0.982800	0.877700	0.826300
H121	H12	0.852800	0.959500	0.903500
H131	H13	0.797000	0.101900	0.863500
H141	H14	0.999600	0.077100	0.662600
H151	H15	0.096000	0.248800	0.294100
H161	H16	0.034000	0.988200	0.028700
H171	H17	0.272600	0.993000	0.195800
H181	H18	0.637100	0.847900	0.242300
H191	H19	0.172200	0.036300	0.305100
H201	H20	0.307300	0.035400	0.327000
H211	H21	0.112600	0.091400	0.175100
H221	H22	0.209500	0.160900	0.147300
H231	H23	0.414700	0.067000	0.127300
H241	H24	0.410100	0.143100	0.194500
H251	H25	0.517200	0.122300	0.326300
H261	H26	0.647200	0.040500	0.403500
H271	H27	0.703000	0.898100	0.363500
H281	H28	0.500400	0.922900	0.162600
H291	H29	0.596000	0.251200	0.705900
H301	H30	0.534000	0.511800	0.971300
H311	H31	0.772600	0.507000	0.804200
H321	H32	0.137100	0.652100	0.757700
H331	H33	0.672200	0.463700	0.694900
H341	H34	0.807300	0.464600	0.673000
H351	H35	0.612600	0.408600	0.824900
H361	H36	0.709500	0.339100	0.852700
H371	H37	0.914700	0.433000	0.872700
H381	H38	0.910100	0.356900	0.805500
H391	H39	0.017200	0.377700	0.673700
H401	H40	0.147200	0.459500	0.596500
H411	H41	0.203000	0.601900	0.636500
H421	H42	0.000400	0.577100	0.837400
H431	H43	0.904000	0.748800	0.205900
H441	H44	0.966000	0.488200	0.471300
H451	H45	0.727400	0.493000	0.304200
H461	H46	0.362900	0.347900	0.257700
H471	H47	0.827800	0.536300	0.194900
H481	H48	0.692700	0.535400	0.173000
H491	H49	0.887400	0.591400	0.324900
H501	H50	0.790500	0.660900	0.352700
H511	H51	0.585300	0.567000	0.372700
H521	H52	0.589900	0.643100	0.305500
H531	H53	0.482800	0.622300	0.173700
H541	H54	0.352800	0.540500	0.096500
H551	H55	0.297000	0.398100	0.136500
H561	H56	0.499600	0.422900	0.337400
C11	C1	0.252700	0.933800	0.794500
C21	C2	0.308900	0.902900	0.650800
C31	C3	0.099700	0.921100	0.685400
C41	C4	0.007300	0.972800	0.737500
C51	C5	0.960600	0.935300	0.809600
C61	C6	0.883100	0.983800	0.854900
C71	C7	0.848000	0.068100	0.830600
C81	C8	0.970300	0.052700	0.711500
C91	C9	0.498500	0.743700	0.543900
C101	C10	0.545800	0.766200	0.456700
C111	C11	0.263100	0.822300	0.250100
C121	C12	0.248100	0.723300	0.236500
C131	C13	0.469400	0.701700	0.986200
C141	C14	0.515400	0.795800	0.006000
C151	C15	0.247300	0.066200	0.294500
C161	C16	0.191100	0.097100	0.150800
C171	C17	0.400300	0.078900	0.185400
C181	C18	0.492700	0.027200	0.237500
C191	C19	0.539400	0.064700	0.309600
C201	C20	0.616900	0.016200	0.354900
C211	C21	0.652000	0.931900	0.330600
C221	C22	0.529700	0.947300	0.211500
C231	C23	0.001500	0.256300	0.043900
C241	C24	0.954200	0.233800	0.956700
C251	C25	0.236900	0.177700	0.750100
C261	C26	0.251900	0.276700	0.736500
C271	C27	0.030600	0.298300	0.486200
C281	C28	0.984600	0.204200	0.506000
C291	C29	0.747300	0.433800	0.705500
C301	C30	0.691100	0.402900	0.849200
C311	C31	0.900300	0.421100	0.814600
C321	C32	0.992700	0.472800	0.762500
C331	C33	0.039400	0.435300	0.690400
C341	C34	0.116900	0.483800	0.645100
C351	C35	0.152000	0.568100	0.669400
C361	C36	0.029700	0.552700	0.788500
C371	C37	0.501500	0.243700	0.956100
C381	C38	0.454200	0.266200	0.043300
C391	C39	0.736900	0.322300	0.249900
C401	C40	0.751900	0.223300	0.263500
C411	C41	0.530600	0.201700	0.513800
C421	C42	0.484600	0.295800	0.494000
C431	C43	0.752700	0.566200	0.205500
C441	C44	0.808900	0.597100	0.349200
C451	C45	0.599700	0.578900	0.314600
C461	C46	0.507300	0.527200	0.262500
C471	C47	0.460600	0.564700	0.190400
C481	C48	0.383100	0.516200	0.145100
C491	C49	0.348000	0.431900	0.169400
C501	C50	0.470300	0.447300	0.288500
C511	C51	0.998500	0.756300	0.456100
C521	C52	0.045800	0.733800	0.543300
C531	C53	0.763100	0.677700	0.749900
C541	C54	0.748100	0.776700	0.763500
C551	C55	0.969400	0.798300	0.013800
C561	C56	0.015400	0.704200	0.994000
N11	N1	0.221700	0.946800	0.705700
N21	N2	0.887600	0.100700	0.759700
N31	N3	0.278300	0.053200	0.205700
N41	N4	0.612400	0.899300	0.259700
N51	N5	0.778300	0.446800	0.794300
N61	N6	0.112400	0.600700	0.740300
N71	N7	0.721700	0.553200	0.294300
N81	N8	0.387600	0.399300	0.240300
O11	O1	0.179200	0.761000	0.784200
O21	O2	0.236600	0.827800	0.921400
O31	O3	0.396000	0.793500	0.826100
O41	O4	0.254200	0.040600	0.548100
O51	O5	0.259300	0.884400	0.486300
O61	O6	0.445800	0.958800	0.525600
O71	O7	0.388700	0.731300	0.551200
O81	O8	0.573900	0.738000	0.601500
O91	O9	0.652400	0.779200	0.451300
O101	O10	0.471000	0.764900	0.400000
O111	O11	0.275400	0.849900	0.322900
O121	O12	0.264500	0.869500	0.185400
O131	O13	0.233700	0.697900	0.164900
O141	O14	0.252100	0.674300	0.301800
O151	O15	0.542400	0.652100	0.949500
O161	O16	0.367300	0.684600	0.007200
O171	O17	0.443000	0.847800	0.044700
O181	O18	0.620800	0.816800	0.988200
O191	O19	0.320800	0.239000	0.284200
O201	O20	0.263400	0.172200	0.421400
O211	O21	0.104000	0.206500	0.326100
O221	O22	0.245800	0.959400	0.048100
O231	O23	0.240700	0.115600	0.986300
O241	O24	0.054200	0.041200	0.025600
O251	O25	0.111300	0.268700	0.051200
O261	O26	0.926100	0.262000	0.101500
O271	O27	0.847600	0.220800	0.951300
O281	O28	0.029000	0.235100	0.900000
O291	O29	0.224600	0.150100	0.822900
O301	O30	0.235500	0.130500	0.685400
O311	O31	0.266300	0.302100	0.664900
O321	O32	0.247900	0.325700	0.801800
O331	O33	0.957600	0.347900	0.449500
O341	O34	0.132700	0.315400	0.507200
O351	O35	0.057000	0.152200	0.544700
O361	O36	0.879200	0.183200	0.488200
O371	O37	0.820800	0.261000	0.715800
O381	O38	0.763400	0.327800	0.578600
O391	O39	0.604000	0.293500	0.673900
O401	O40	0.745800	0.540600	0.951900
O411	O41	0.740700	0.384400	0.013700
O421	O42	0.554200	0.458800	0.974400
O431	O43	0.611300	0.231300	0.948800
O441	O44	0.426100	0.238000	0.898500
O451	O45	0.347600	0.279200	0.048700
O461	O46	0.529000	0.264900	0.100000
O471	O47	0.724600	0.349900	0.177100
O481	O48	0.735500	0.369500	0.314600
O491	O49	0.766300	0.197900	0.335100
O501	O50	0.747900	0.174300	0.198200
O511	O51	0.457600	0.152100	0.550500
O521	O52	0.632700	0.184600	0.492800
O531	O53	0.557000	0.347800	0.455300
O541	O54	0.379200	0.316800	0.511800
O551	O55	0.679200	0.739000	0.215800
O561	O56	0.736600	0.672200	0.078600
O571	O57	0.896000	0.706500	0.173900
O581	O58	0.754200	0.459400	0.451900
O591	O59	0.759300	0.615600	0.513700
O601	O60	0.945800	0.541200	0.474400
O611	O61	0.888700	0.768700	0.448800
O621	O62	0.073900	0.762000	0.398500
O631	O63	0.152400	0.720800	0.548700
O641	O64	0.971000	0.735100	0.600000
O651	O65	0.775400	0.650100	0.677100
O661	O66	0.764500	0.630500	0.814600
O671	O67	0.733700	0.802100	0.835100
O681	O68	0.752100	0.825700	0.698200
O691	O69	0.042400	0.847900	0.050500
O701	O70	0.867300	0.815400	0.992800
O711	O71	0.943000	0.652200	0.955300
O721	O72	0.120800	0.683200	0.011800
