data_QUWYEO_clean_PM
_symmetry_space_group_name_H-M	'P1'
_cell_length_a	11.688400
_cell_length_b	5.564300
_cell_length_c	22.815900
_cell_angle_alpha	90.000000
_cell_angle_beta	100.691000
_cell_angle_gamma	90.000000
_symmetry_Int_Tables_number 1

loop_
_symmetry_equiv_pos_as_xyz
'x,y,z'

loop_
_atom_site_label
_atom_site_type_symbol
_atom_site_fract_x
_atom_site_fract_y
_atom_site_fract_z
Ca11	Ca1	0.862580	0.756330	0.278180
S11	S1	0.101450	0.964540	0.393300
O11	O1	0.239700	0.915050	0.690920
O21	O2	0.236210	0.523430	0.672120
O31	O3	0.542110	0.918790	0.244610
O41	O4	0.512960	0.523830	0.253480
O51	O5	0.084460	0.220590	0.389500
O61	O6	0.004940	0.805620	0.370300
C11	C1	0.146700	0.890900	0.469290
C21	C2	0.205950	0.062000	0.507750
H11	H1	0.227800	0.211100	0.492800
C31	C3	0.232760	0.012200	0.568370
H21	H2	0.272200	0.128300	0.595300
C41	C4	0.201700	0.791400	0.589600
C51	C5	0.146770	0.618800	0.550250
H31	H3	0.128700	0.466300	0.564900
C61	C6	0.118020	0.667000	0.489620
H41	H4	0.079600	0.549900	0.462600
C71	C7	0.226190	0.738400	0.655250
C81	C8	0.218730	0.890800	0.358110
C91	C9	0.307790	0.059100	0.359550
H51	H5	0.307100	0.205100	0.381100
C101	C10	0.397630	0.009800	0.328970
H61	H6	0.457600	0.124500	0.328500
C111	C11	0.399520	0.791800	0.299020
C121	C12	0.311630	0.623200	0.299720
H71	H7	0.314600	0.473200	0.280100
C131	C13	0.219400	0.672100	0.328840
H81	H8	0.158600	0.558800	0.328700
C141	C14	0.493520	0.741000	0.262890
Ca21	Ca2	0.637420	0.256330	0.221820
S21	S2	0.398550	0.464540	0.106700
O71	O7	0.260300	0.415050	0.809080
O81	O8	0.263790	0.023430	0.827880
O91	O9	0.957890	0.418790	0.255390
O101	O10	0.987040	0.023830	0.246520
O111	O11	0.415540	0.720590	0.110500
O121	O12	0.495060	0.305620	0.129700
C151	C15	0.353300	0.390900	0.030710
C161	C16	0.294050	0.562000	0.992250
H91	H9	0.272200	0.711100	0.007200
C171	C17	0.267240	0.512200	0.931630
H101	H10	0.227800	0.628300	0.904700
C181	C18	0.298300	0.291400	0.910400
C191	C19	0.353230	0.118800	0.949750
H111	H11	0.371300	0.966300	0.935100
C201	C20	0.381980	0.167000	0.010380
H121	H12	0.420400	0.049900	0.037400
C211	C21	0.273810	0.238400	0.844750
C221	C22	0.281270	0.390800	0.141890
C231	C23	0.192210	0.559100	0.140450
H131	H13	0.192900	0.705100	0.118900
C241	C24	0.102370	0.509800	0.171030
H141	H14	0.042400	0.624500	0.171500
C251	C25	0.100480	0.291800	0.200980
C261	C26	0.188370	0.123200	0.200280
H151	H15	0.185400	0.973200	0.219900
C271	C27	0.280600	0.172100	0.171160
H161	H16	0.341400	0.058800	0.171300
C281	C28	0.006480	0.241000	0.237110
Ca31	Ca3	0.137420	0.243670	0.721820
S31	S3	0.898550	0.035460	0.606700
O131	O13	0.760300	0.084950	0.309080
O141	O14	0.763790	0.476570	0.327880
O151	O15	0.457890	0.081210	0.755390
O161	O16	0.487040	0.476170	0.746520
O171	O17	0.915540	0.779410	0.610500
O181	O18	0.995060	0.194380	0.629700
C291	C29	0.853300	0.109100	0.530710
C301	C30	0.794050	0.938000	0.492250
H171	H17	0.772200	0.788900	0.507200
C311	C31	0.767240	0.987800	0.431630
H181	H18	0.727800	0.871700	0.404700
C321	C32	0.798300	0.208600	0.410400
C331	C33	0.853230	0.381200	0.449750
H191	H19	0.871300	0.533700	0.435100
C341	C34	0.881980	0.333000	0.510380
H201	H20	0.920400	0.450100	0.537400
C351	C35	0.773810	0.261600	0.344750
C361	C36	0.781270	0.109200	0.641890
C371	C37	0.692210	0.940900	0.640450
H211	H21	0.692900	0.794900	0.618900
C381	C38	0.602370	0.990200	0.671030
H221	H22	0.542400	0.875500	0.671500
C391	C39	0.600480	0.208200	0.700980
C401	C40	0.688370	0.376800	0.700280
H231	H23	0.685400	0.526800	0.719900
C411	C41	0.780600	0.327900	0.671160
H241	H24	0.841400	0.441200	0.671300
C421	C42	0.506480	0.259000	0.737110
Ca41	Ca4	0.362580	0.743670	0.778180
S41	S4	0.601450	0.535460	0.893300
O191	O19	0.739700	0.584950	0.190920
O201	O20	0.736210	0.976570	0.172120
O211	O21	0.042110	0.581210	0.744610
O221	O22	0.012960	0.976170	0.753480
O231	O23	0.584460	0.279410	0.889500
O241	O24	0.504940	0.694380	0.870300
C431	C43	0.646700	0.609100	0.969290
C441	C44	0.705950	0.438000	0.007750
H251	H25	0.727800	0.288900	0.992800
C451	C45	0.732760	0.487800	0.068370
H261	H26	0.772200	0.371700	0.095300
C461	C46	0.701700	0.708600	0.089600
C471	C47	0.646770	0.881200	0.050250
H271	H27	0.628700	0.033700	0.064900
C481	C48	0.618020	0.833000	0.989620
H281	H28	0.579600	0.950100	0.962600
C491	C49	0.726190	0.761600	0.155250
C501	C50	0.718730	0.609200	0.858110
C511	C51	0.807790	0.440900	0.859550
H291	H29	0.807100	0.294900	0.881100
C521	C52	0.897630	0.490200	0.828970
H301	H30	0.957600	0.375500	0.828500
C531	C53	0.899520	0.708200	0.799020
C541	C54	0.811630	0.876800	0.799720
H311	H31	0.814600	0.026800	0.780100
C551	C55	0.719400	0.827900	0.828840
H321	H32	0.658600	0.941200	0.828700
C561	C56	0.993520	0.759000	0.762890
