data_QUXQUX_clean_PM
_symmetry_space_group_name_H-M	'P1'
_cell_length_a	11.801300
_cell_length_b	5.582700
_cell_length_c	22.723000
_cell_angle_alpha	90.000000
_cell_angle_beta	100.092000
_cell_angle_gamma	90.000000
_symmetry_Int_Tables_number 1

loop_
_symmetry_equiv_pos_as_xyz
'x,y,z'

loop_
_atom_site_label
_atom_site_type_symbol
_atom_site_fract_x
_atom_site_fract_y
_atom_site_fract_z
Ca11	Ca1	0.637830	0.244230	0.222870
S11	S1	0.401150	0.036400	0.108050
O11	O1	0.265760	0.475300	0.828290
O21	O2	0.261770	0.084100	0.809200
O31	O3	0.418540	0.781600	0.112150
O41	O4	0.495920	0.195800	0.130920
O51	O5	0.985690	0.476200	0.244940
O61	O6	0.956420	0.081500	0.253900
C11	C1	0.276110	0.260900	0.844850
C21	C2	0.302250	0.207500	0.910900
C31	C3	0.355750	0.380500	0.950240
H11	H1	0.373100	0.532800	0.935400
C41	C4	0.384090	0.332900	0.010960
H21	H2	0.421100	0.450700	0.037800
C51	C5	0.357190	0.108800	0.031650
C61	C6	0.299800	0.936700	0.993290
H31	H3	0.279400	0.787300	0.008500
C71	C7	0.272830	0.986000	0.932460
H41	H4	0.234500	0.869400	0.905700
C81	C8	0.283800	0.108900	0.143220
C91	C9	0.281440	0.328700	0.172170
H51	H5	0.341300	0.442600	0.172300
C101	C10	0.188840	0.376400	0.200830
H61	H6	0.184700	0.526000	0.220300
C111	C11	0.102130	0.207500	0.201370
C121	C12	0.005970	0.259700	0.236140
C131	C13	0.105610	0.989400	0.171900
H71	H7	0.046300	0.874600	0.172300
C141	C14	0.196040	0.940100	0.141890
H81	H8	0.198100	0.793800	0.120800
Ca21	Ca2	0.862170	0.744230	0.277130
S21	S2	0.098850	0.536400	0.391950
O71	O7	0.234240	0.975300	0.671710
O81	O8	0.238230	0.584100	0.690800
O91	O9	0.081460	0.281600	0.387850
O101	O10	0.004080	0.695800	0.369080
O111	O11	0.514310	0.976200	0.255060
O121	O12	0.543580	0.581500	0.246100
C151	C15	0.223890	0.760900	0.655150
C161	C16	0.197750	0.707500	0.589100
C171	C17	0.144250	0.880500	0.549760
H91	H9	0.126900	0.032800	0.564600
C181	C18	0.115910	0.832900	0.489040
H101	H10	0.078900	0.950700	0.462200
C191	C19	0.142810	0.608800	0.468350
C201	C20	0.200200	0.436700	0.506710
H111	H11	0.220600	0.287300	0.491500
C211	C21	0.227170	0.486000	0.567540
H121	H12	0.265500	0.369400	0.594300
C221	C22	0.216200	0.608900	0.356780
C231	C23	0.218560	0.828700	0.327830
H131	H13	0.158700	0.942600	0.327700
C241	C24	0.311160	0.876400	0.299170
H141	H14	0.315300	0.026000	0.279700
C251	C25	0.397870	0.707500	0.298630
C261	C26	0.494030	0.759700	0.263860
C271	C27	0.394390	0.489400	0.328100
H151	H15	0.453700	0.374600	0.327700
C281	C28	0.303960	0.440100	0.358110
H161	H16	0.301900	0.293800	0.379200
Ca31	Ca3	0.362170	0.755770	0.777130
S31	S3	0.598850	0.963600	0.891950
O131	O13	0.734240	0.524700	0.171710
O141	O14	0.738230	0.915900	0.190800
O151	O15	0.581460	0.218400	0.887850
O161	O16	0.504080	0.804200	0.869080
O171	O17	0.014310	0.523800	0.755060
O181	O18	0.043580	0.918500	0.746100
C291	C29	0.723890	0.739100	0.155150
C301	C30	0.697750	0.792500	0.089100
C311	C31	0.644250	0.619500	0.049760
H171	H17	0.626900	0.467200	0.064600
C321	C32	0.615910	0.667100	0.989040
H181	H18	0.578900	0.549300	0.962200
C331	C33	0.642810	0.891200	0.968350
C341	C34	0.700200	0.063300	0.006710
H191	H19	0.720600	0.212700	0.991500
C351	C35	0.727170	0.014000	0.067540
H201	H20	0.765500	0.130600	0.094300
C361	C36	0.716200	0.891100	0.856780
C371	C37	0.718560	0.671300	0.827830
H211	H21	0.658700	0.557400	0.827700
C381	C38	0.811160	0.623600	0.799170
H221	H22	0.815300	0.474000	0.779700
C391	C39	0.897870	0.792500	0.798630
C401	C40	0.994030	0.740300	0.763860
C411	C41	0.894390	0.010600	0.828100
H231	H23	0.953700	0.125400	0.827700
C421	C42	0.803960	0.059900	0.858110
H241	H24	0.801900	0.206200	0.879200
Ca41	Ca4	0.137830	0.255770	0.722870
S41	S4	0.901150	0.463600	0.608050
O191	O19	0.765760	0.024700	0.328290
O201	O20	0.761770	0.415900	0.309200
O211	O21	0.918540	0.718400	0.612150
O221	O22	0.995920	0.304200	0.630920
O231	O23	0.485690	0.023800	0.744940
O241	O24	0.456420	0.418500	0.753900
C431	C43	0.776110	0.239100	0.344850
C441	C44	0.802250	0.292500	0.410900
C451	C45	0.855750	0.119500	0.450240
H251	H25	0.873100	0.967200	0.435400
C461	C46	0.884090	0.167100	0.510960
H261	H26	0.921100	0.049300	0.537800
C471	C47	0.857190	0.391200	0.531650
C481	C48	0.799800	0.563300	0.493290
H271	H27	0.779400	0.712700	0.508500
C491	C49	0.772830	0.514000	0.432460
H281	H28	0.734500	0.630600	0.405700
C501	C50	0.783800	0.391100	0.643220
C511	C51	0.781440	0.171300	0.672170
H291	H29	0.841300	0.057400	0.672300
C521	C52	0.688840	0.123600	0.700830
H301	H30	0.684700	0.974000	0.720300
C531	C53	0.602130	0.292500	0.701370
C541	C54	0.505970	0.240300	0.736140
C551	C55	0.605610	0.510600	0.671900
H311	H31	0.546300	0.625400	0.672300
C561	C56	0.696040	0.559900	0.641890
H321	H32	0.698100	0.706200	0.620800
