data_QUXRIM_clean_PM
_symmetry_space_group_name_H-M	'P1'
_cell_length_a	11.876700
_cell_length_b	5.576900
_cell_length_c	22.486000
_cell_angle_alpha	90.000000
_cell_angle_beta	99.893000
_cell_angle_gamma	90.000000
_symmetry_Int_Tables_number 1

loop_
_symmetry_equiv_pos_as_xyz
'x,y,z'

loop_
_atom_site_label
_atom_site_type_symbol
_atom_site_fract_x
_atom_site_fract_y
_atom_site_fract_z
Ca11	Ca1	0.596300	0.744170	0.041610
S11	S1	0.883970	0.533880	0.102420
O11	O1	0.404650	0.581400	0.026710
O21	O2	0.370650	0.971800	0.030240
O31	O3	0.803860	0.695400	0.066510
O41	O4	0.868860	0.279300	0.095380
O51	O5	0.887130	0.972300	0.380110
O61	O6	0.898720	0.579400	0.400220
C11	C1	0.342360	0.757700	0.035490
C21	C2	0.230400	0.704800	0.055280
C31	C3	0.145070	0.877500	0.047950
H11	H1	0.159300	0.030200	0.032100
C41	C4	0.039230	0.829900	0.063530
H21	H2	0.980900	0.948400	0.058600
C51	C5	0.020660	0.605600	0.086470
C61	C6	0.106230	0.433200	0.096290
H31	H3	0.092800	0.283000	0.113700
C71	C7	0.211500	0.483200	0.080290
H41	H4	0.270600	0.366300	0.086400
C81	C8	0.889680	0.605800	0.179100
C91	C9	0.849300	0.826000	0.195110
H51	H5	0.819400	0.940400	0.165200
C101	C10	0.853950	0.874200	0.256320
H61	H6	0.827800	0.024400	0.268500
C111	C11	0.896450	0.705000	0.299800
C121	C12	0.894530	0.756400	0.365810
C131	C13	0.936690	0.485500	0.282670
H71	H7	0.965700	0.370100	0.312500
C141	C14	0.934380	0.435500	0.221950
H81	H8	0.962900	0.287400	0.209900
Ca21	Ca2	0.903700	0.244170	0.458390
S21	S2	0.616030	0.033880	0.397580
O71	O7	0.095350	0.081400	0.473290
O81	O8	0.129350	0.471800	0.469760
O91	O9	0.696140	0.195400	0.433490
O101	O10	0.631140	0.779300	0.404620
O111	O11	0.612870	0.472300	0.119890
O121	O12	0.601280	0.079400	0.099780
C151	C15	0.157640	0.257700	0.464510
C161	C16	0.269600	0.204800	0.444720
C171	C17	0.354930	0.377500	0.452050
H91	H9	0.340700	0.530200	0.467900
C181	C18	0.460770	0.329900	0.436470
H101	H10	0.519100	0.448400	0.441400
C191	C19	0.479340	0.105600	0.413530
C201	C20	0.393770	0.933200	0.403710
H111	H11	0.407200	0.783000	0.386300
C211	C21	0.288500	0.983200	0.419710
H121	H12	0.229400	0.866300	0.413600
C221	C22	0.610320	0.105800	0.320900
C231	C23	0.650700	0.326000	0.304890
H131	H13	0.680600	0.440400	0.334800
C241	C24	0.646050	0.374200	0.243680
H141	H14	0.672200	0.524400	0.231500
C251	C25	0.603550	0.205000	0.200200
C261	C26	0.605470	0.256400	0.134190
C271	C27	0.563310	0.985500	0.217330
H151	H15	0.534300	0.870100	0.187500
C281	C28	0.565620	0.935500	0.278050
H161	H16	0.537100	0.787400	0.290100
Ca31	Ca3	0.403700	0.255830	0.958390
S31	S3	0.116030	0.466120	0.897580
O131	O13	0.595350	0.418600	0.973290
O141	O14	0.629350	0.028200	0.969760
O151	O15	0.196140	0.304600	0.933490
O161	O16	0.131140	0.720700	0.904620
O171	O17	0.112870	0.027700	0.619890
O181	O18	0.101280	0.420600	0.599780
C291	C29	0.657640	0.242300	0.964510
C301	C30	0.769600	0.295200	0.944720
C311	C31	0.854930	0.122500	0.952050
H171	H17	0.840700	0.969800	0.967900
C321	C32	0.960770	0.170100	0.936470
H181	H18	0.019100	0.051600	0.941400
C331	C33	0.979340	0.394400	0.913530
C341	C34	0.893770	0.566800	0.903710
H191	H19	0.907200	0.717000	0.886300
C351	C35	0.788500	0.516800	0.919710
H201	H20	0.729400	0.633700	0.913600
C361	C36	0.110320	0.394200	0.820900
C371	C37	0.150700	0.174000	0.804890
H211	H21	0.180600	0.059600	0.834800
C381	C38	0.146050	0.125800	0.743680
H221	H22	0.172200	0.975600	0.731500
C391	C39	0.103550	0.295000	0.700200
C401	C40	0.105470	0.243600	0.634190
C411	C41	0.063310	0.514500	0.717330
H231	H23	0.034300	0.629900	0.687500
C421	C42	0.065620	0.564500	0.778050
H241	H24	0.037100	0.712600	0.790100
Ca41	Ca4	0.096300	0.755830	0.541610
S41	S4	0.383970	0.966120	0.602420
O191	O19	0.904650	0.918600	0.526710
O201	O20	0.870650	0.528200	0.530240
O211	O21	0.303860	0.804600	0.566510
O221	O22	0.368860	0.220700	0.595380
O231	O23	0.387130	0.527700	0.880110
O241	O24	0.398720	0.920600	0.900220
C431	C43	0.842360	0.742300	0.535490
C441	C44	0.730400	0.795200	0.555280
C451	C45	0.645070	0.622500	0.547950
H251	H25	0.659300	0.469800	0.532100
C461	C46	0.539230	0.670100	0.563530
H261	H26	0.480900	0.551600	0.558600
C471	C47	0.520660	0.894400	0.586470
C481	C48	0.606230	0.066800	0.596290
H271	H27	0.592800	0.217000	0.613700
C491	C49	0.711500	0.016800	0.580290
H281	H28	0.770600	0.133700	0.586400
C501	C50	0.389680	0.894200	0.679100
C511	C51	0.349300	0.674000	0.695110
H291	H29	0.319400	0.559600	0.665200
C521	C52	0.353950	0.625800	0.756320
H301	H30	0.327800	0.475600	0.768500
C531	C53	0.396450	0.795000	0.799800
C541	C54	0.394530	0.743600	0.865810
C551	C55	0.436690	0.014500	0.782670
H311	H31	0.465700	0.129900	0.812500
C561	C56	0.434380	0.064500	0.721950
H321	H32	0.462900	0.212600	0.709900
