data_RACHUA_clean_PM
_symmetry_space_group_name_H-M	'P1'
_cell_length_a	21.560000
_cell_length_b	21.560000
_cell_length_c	77.814000
_cell_angle_alpha	90.000000
_cell_angle_beta	90.000000
_cell_angle_gamma	120.000000
_symmetry_Int_Tables_number 1

loop_
_symmetry_equiv_pos_as_xyz
'x,y,z'

loop_
_atom_site_label
_atom_site_type_symbol
_atom_site_fract_x
_atom_site_fract_y
_atom_site_fract_z
Zn11	Zn1	0.769840	0.411380	0.854470
Zn21	Zn2	0.672510	0.327280	0.885360
Zn31	Zn3	0.672050	0.241650	0.853110
Zn41	Zn4	0.597940	0.340590	0.851490
Zn51	Zn5	0.641540	0.230160	0.187800
Zn61	Zn6	0.654770	0.327490	0.218690
Zn71	Zn7	0.569600	0.327950	0.186440
Zn81	Zn8	0.742650	0.402060	0.184820
Zn91	Zn9	0.588620	0.358460	0.521140
Zn101	Zn10	0.672720	0.345230	0.552020
Zn111	Zn11	0.758350	0.430400	0.519770
Zn121	Zn12	0.659410	0.257350	0.518150
Zn131	Zn13	0.230160	0.588620	0.354470
Zn141	Zn14	0.327490	0.672720	0.385360
Zn151	Zn15	0.327950	0.758350	0.353110
Zn161	Zn16	0.402060	0.659410	0.351490
Zn171	Zn17	0.358460	0.769840	0.687800
Zn181	Zn18	0.345230	0.672510	0.718690
Zn191	Zn19	0.430400	0.672050	0.686440
Zn201	Zn20	0.257350	0.597940	0.684820
Zn211	Zn21	0.411380	0.641540	0.021140
Zn221	Zn22	0.327280	0.654770	0.052020
Zn231	Zn23	0.241650	0.569600	0.019770
Zn241	Zn24	0.340590	0.742650	0.018150
H11	H1	0.793800	0.473100	0.922400
H21	H2	0.030200	0.631300	0.907200
H31	H3	0.951500	0.552900	0.886600
H41	H4	0.840400	0.523600	0.955100
H51	H5	0.848500	0.597500	0.949200
H61	H6	0.002000	0.698800	0.939300
H71	H7	0.046900	0.659800	0.942200
H81	H8	0.994500	0.548000	0.956900
H91	H9	0.934300	0.523100	0.971100
H101	H10	0.968000	0.709900	0.967500
H111	H11	0.915100	0.645700	0.979500
H121	H12	0.086200	0.565100	0.984400
H131	H13	0.144400	0.746500	0.009700
H141	H14	0.056900	0.761000	0.995500
H151	H15	0.921500	0.416500	0.817200
H161	H16	0.923900	0.200200	0.817200
H171	H17	0.840800	0.211100	0.833300
H181	H18	0.011700	0.444100	0.788500
H191	H19	0.069400	0.454400	0.802500
H201	H20	0.083300	0.331800	0.805400
H211	H21	0.033500	0.270900	0.792300
H221	H22	0.154400	0.458400	0.786200
H231	H23	0.150900	0.388500	0.778700
H241	H24	0.959200	0.342000	0.770900
H251	H25	0.996500	0.296900	0.766600
H261	H26	0.216100	0.517100	0.753500
H271	H27	0.069200	0.461800	0.716300
H281	H28	0.981700	0.380200	0.733900
H291	H29	0.603000	0.487400	0.829400
H301	H30	0.803700	0.684100	0.805300
H311	H31	0.814000	0.605700	0.823400
H321	H32	0.532900	0.504500	0.800300
H331	H33	0.539800	0.570000	0.810800
H341	H34	0.696300	0.681800	0.782500
H351	H35	0.662300	0.702200	0.797900
H361	H36	0.491200	0.595600	0.785100
H371	H37	0.556400	0.674600	0.785900
H381	H38	0.645000	0.572100	0.771100
H391	H39	0.563500	0.512500	0.772300
H401	H40	0.484400	0.673800	0.755200
H411	H41	0.556800	0.602000	0.716200
H421	H42	0.606300	0.563900	0.735300
H431	H43	0.679300	0.206200	0.255730
H441	H44	0.601100	0.969800	0.240530
H451	H45	0.601400	0.048500	0.219930
H461	H46	0.683200	0.159600	0.288430
H471	H47	0.749000	0.151500	0.282530
H481	H48	0.696800	0.998000	0.272630
H491	H49	0.612900	0.953100	0.275530
H501	H50	0.553500	0.005500	0.290230
H511	H51	0.588800	0.065700	0.304430
H521	H52	0.741900	0.032000	0.300830
H531	H53	0.730600	0.084900	0.312830
H541	H54	0.478900	0.913800	0.317730
H551	H55	0.602100	0.855600	0.343030
H561	H56	0.704100	0.943100	0.328830
H571	H57	0.495000	0.078500	0.150530
H581	H58	0.276300	0.076100	0.150530
H591	H59	0.370300	0.159200	0.166630
H601	H60	0.432400	0.988300	0.121830
H611	H61	0.385000	0.930600	0.135830
H621	H62	0.248500	0.916700	0.138730
H631	H63	0.237400	0.966500	0.125630
H641	H64	0.304000	0.845600	0.119530
H651	H65	0.237600	0.849100	0.112030
H661	H66	0.382800	0.040800	0.104230
H671	H67	0.300400	0.003500	0.099930
H681	H68	0.301000	0.783900	0.086830
H691	H69	0.392600	0.930800	0.049630
H701	H70	0.398500	0.018300	0.067230
H711	H71	0.884400	0.397000	0.162730
H721	H72	0.880400	0.196300	0.138630
H731	H73	0.791700	0.186000	0.156730
H741	H74	0.971600	0.467100	0.133630
H751	H75	0.030200	0.460200	0.144130
H761	H76	0.985500	0.303700	0.115830
H771	H77	0.039900	0.337700	0.131230
H781	H78	0.104400	0.508800	0.118430
H791	H79	0.118200	0.443600	0.119230
H801	H80	0.927100	0.355000	0.104430
H811	H81	0.949000	0.436500	0.105630
H821	H82	0.189400	0.515600	0.088530
H831	H83	0.045200	0.443200	0.049530
H841	H84	0.957600	0.393700	0.068630
H851	H85	0.526900	0.320700	0.589070
H861	H86	0.368700	0.398900	0.573870
H871	H87	0.447100	0.398600	0.553270
H881	H88	0.476400	0.316800	0.621770
H891	H89	0.402500	0.251000	0.615870
H901	H90	0.301200	0.303200	0.605970
H911	H91	0.340200	0.387100	0.608870
H921	H92	0.452000	0.446500	0.623570
H931	H93	0.476900	0.411200	0.637770
H941	H94	0.290100	0.258100	0.634170
H951	H95	0.354300	0.269400	0.646170
H961	H96	0.434900	0.521100	0.651070
H971	H97	0.253500	0.397900	0.676370
H981	H98	0.239000	0.295900	0.662170
H991	H99	0.583500	0.505000	0.483870
H1001	H100	0.799800	0.723700	0.483870
H1011	H101	0.788900	0.629700	0.499970
H1021	H102	0.555900	0.567600	0.455170
H1031	H103	0.545600	0.615000	0.469170
H1041	H104	0.668200	0.751500	0.472070
H1051	H105	0.729100	0.762600	0.458970
H1061	H106	0.541600	0.696000	0.452870
H1071	H107	0.611500	0.762400	0.445370
H1081	H108	0.658000	0.617200	0.437570
H1091	H109	0.703100	0.699600	0.433270
H1101	H110	0.482900	0.699000	0.420170
H1111	H111	0.538200	0.607400	0.382970
H1121	H112	0.619800	0.601500	0.400570
H1131	H113	0.512600	0.115600	0.496070
H1141	H114	0.315900	0.119600	0.471970
H1151	H115	0.394300	0.208300	0.490070
H1161	H116	0.495500	0.028400	0.466970
H1171	H117	0.430000	0.969800	0.477470
H1181	H118	0.318200	0.014500	0.449170
H1191	H119	0.297800	0.960100	0.464570
H1201	H120	0.404400	0.895600	0.451770
H1211	H121	0.325400	0.881800	0.452570
H1221	H122	0.427900	0.072900	0.437770
H1231	H123	0.487500	0.051000	0.438970
H1241	H124	0.326200	0.810600	0.421870
H1251	H125	0.398000	0.954800	0.382870
H1261	H126	0.436100	0.042400	0.401970
H1271	H127	0.206200	0.526900	0.422400
H1281	H128	0.969800	0.368700	0.407200
H1291	H129	0.048500	0.447100	0.386600
H1301	H130	0.159600	0.476400	0.455100
H1311	H131	0.151500	0.402500	0.449200
H1321	H132	0.998000	0.301200	0.439300
H1331	H133	0.953100	0.340200	0.442200
H1341	H134	0.005500	0.452000	0.456900
H1351	H135	0.065700	0.476900	0.471100
H1361	H136	0.032000	0.290100	0.467500
H1371	H137	0.084900	0.354300	0.479500
H1381	H138	0.913800	0.434900	0.484400
H1391	H139	0.855600	0.253500	0.509700
H1401	H140	0.943100	0.239000	0.495500
H1411	H141	0.078500	0.583500	0.317200
H1421	H142	0.076100	0.799800	0.317200
H1431	H143	0.159200	0.788900	0.333300
H1441	H144	0.988300	0.555900	0.288500
H1451	H145	0.930600	0.545600	0.302500
H1461	H146	0.916700	0.668200	0.305400
H1471	H147	0.966500	0.729100	0.292300
H1481	H148	0.845600	0.541600	0.286200
H1491	H149	0.849100	0.611500	0.278700
H1501	H150	0.040800	0.658000	0.270900
H1511	H151	0.003500	0.703100	0.266600
H1521	H152	0.783900	0.482900	0.253500
H1531	H153	0.930800	0.538200	0.216300
H1541	H154	0.018300	0.619800	0.233900
H1551	H155	0.397000	0.512600	0.329400
H1561	H156	0.196300	0.315900	0.305300
H1571	H157	0.186000	0.394300	0.323400
H1581	H158	0.467100	0.495500	0.300300
H1591	H159	0.460200	0.430000	0.310800
H1601	H160	0.303700	0.318200	0.282500
H1611	H161	0.337700	0.297800	0.297900
H1621	H162	0.508800	0.404400	0.285100
H1631	H163	0.443600	0.325400	0.285900
H1641	H164	0.355000	0.427900	0.271100
H1651	H165	0.436500	0.487500	0.272300
H1661	H166	0.515600	0.326200	0.255200
H1671	H167	0.443200	0.398000	0.216200
H1681	H168	0.393700	0.436100	0.235300
H1691	H169	0.320700	0.793800	0.755730
H1701	H170	0.398900	0.030200	0.740530
H1711	H171	0.398600	0.951500	0.719930
H1721	H172	0.316800	0.840400	0.788430
H1731	H173	0.251000	0.848500	0.782530
H1741	H174	0.303200	0.002000	0.772630
H1751	H175	0.387100	0.046900	0.775530
H1761	H176	0.446500	0.994500	0.790230
H1771	H177	0.411200	0.934300	0.804430
H1781	H178	0.258100	0.968000	0.800830
H1791	H179	0.269400	0.915100	0.812830
H1801	H180	0.521100	0.086200	0.817730
H1811	H181	0.397900	0.144400	0.843030
H1821	H182	0.295900	0.056900	0.828830
H1831	H183	0.505000	0.921500	0.650530
H1841	H184	0.723700	0.923900	0.650530
H1851	H185	0.629700	0.840800	0.666630
H1861	H186	0.567600	0.011700	0.621830
H1871	H187	0.615000	0.069400	0.635830
H1881	H188	0.751500	0.083300	0.638730
H1891	H189	0.762600	0.033500	0.625630
H1901	H190	0.696000	0.154400	0.619530
H1911	H191	0.762400	0.150900	0.612030
H1921	H192	0.617200	0.959200	0.604230
H1931	H193	0.699600	0.996500	0.599930
H1941	H194	0.699000	0.216100	0.586830
H1951	H195	0.607400	0.069200	0.549630
H1961	H196	0.601500	0.981700	0.567230
H1971	H197	0.115600	0.603000	0.662730
H1981	H198	0.119600	0.803700	0.638630
H1991	H199	0.208300	0.814000	0.656730
H2001	H200	0.028400	0.532900	0.633630
H2011	H201	0.969800	0.539800	0.644130
H2021	H202	0.014500	0.696300	0.615830
H2031	H203	0.960100	0.662300	0.631230
H2041	H204	0.895600	0.491200	0.618430
H2051	H205	0.881800	0.556400	0.619230
H2061	H206	0.072900	0.645000	0.604430
H2071	H207	0.051000	0.563500	0.605630
H2081	H208	0.810600	0.484400	0.588530
H2091	H209	0.954800	0.556800	0.549530
H2101	H210	0.042400	0.606300	0.568630
H2111	H211	0.473100	0.679300	0.089070
H2121	H212	0.631300	0.601100	0.073870
H2131	H213	0.552900	0.601400	0.053270
H2141	H214	0.523600	0.683200	0.121770
H2151	H215	0.597500	0.749000	0.115870
H2161	H216	0.698800	0.696800	0.105970
H2171	H217	0.659800	0.612900	0.108870
H2181	H218	0.548000	0.553500	0.123570
H2191	H219	0.523100	0.588800	0.137770
H2201	H220	0.709900	0.741900	0.134170
H2211	H221	0.645700	0.730600	0.146170
H2221	H222	0.565100	0.478900	0.151070
H2231	H223	0.746500	0.602100	0.176370
H2241	H224	0.761000	0.704100	0.162170
H2251	H225	0.416500	0.495000	0.983870
H2261	H226	0.200200	0.276300	0.983870
H2271	H227	0.211100	0.370300	0.999970
H2281	H228	0.444100	0.432400	0.955170
H2291	H229	0.454400	0.385000	0.969170
H2301	H230	0.331800	0.248500	0.972070
H2311	H231	0.270900	0.237400	0.958970
H2321	H232	0.458400	0.304000	0.952870
H2331	H233	0.388500	0.237600	0.945370
H2341	H234	0.342000	0.382800	0.937570
H2351	H235	0.296900	0.300400	0.933270
H2361	H236	0.517100	0.301000	0.920170
H2371	H237	0.461800	0.392600	0.882970
H2381	H238	0.380200	0.398500	0.900570
H2391	H239	0.487400	0.884400	0.996070
H2401	H240	0.684100	0.880400	0.971970
H2411	H241	0.605700	0.791700	0.990070
H2421	H242	0.504500	0.971600	0.966970
H2431	H243	0.570000	0.030200	0.977470
H2441	H244	0.681800	0.985500	0.949170
H2451	H245	0.702200	0.039900	0.964570
H2461	H246	0.595600	0.104400	0.951770
H2471	H247	0.674600	0.118200	0.952570
H2481	H248	0.572100	0.927100	0.937770
H2491	H249	0.512500	0.949000	0.938970
H2501	H250	0.673800	0.189400	0.921870
H2511	H251	0.602000	0.045200	0.882870
H2521	H252	0.563900	0.957600	0.901970
C11	C1	0.863000	0.504500	0.902820
C21	C2	0.840540	0.505580	0.919180
C31	C3	0.887300	0.554800	0.930860
C41	C4	0.958700	0.601700	0.926790
C51	C5	0.982600	0.600300	0.910100
C61	C6	0.936000	0.553000	0.897720
C71	C7	0.871100	0.568300	0.949170
C81	C8	0.947600	0.609200	0.957590
C91	C9	0.999100	0.652800	0.940960
C101	C10	0.973000	0.564300	0.965360
C111	C11	0.029400	0.615700	0.978440
C121	C12	0.019500	0.669800	0.981860
C131	C13	0.957400	0.664100	0.972220
C141	C14	0.082400	0.605400	0.986680
C151	C15	0.127300	0.655800	0.997890
C161	C16	0.115600	0.712900	0.001500
C171	C17	0.062500	0.721700	0.993280
C181	C18	0.182700	0.647500	0.007180
C191	C19	0.811490	0.453640	0.889980
C201	C20	0.866400	0.310100	0.826570
C211	C21	0.920500	0.372900	0.816880
C221	C22	0.968500	0.364000	0.807570
C231	C23	0.972400	0.302100	0.808470
C241	C24	0.923100	0.242900	0.817370
C251	C25	0.872700	0.249700	0.826580
C261	C26	0.028900	0.419500	0.795810
C271	C27	0.048500	0.371400	0.785280
C281	C28	0.041600	0.314200	0.798080
C291	C29	0.127200	0.416700	0.778960
C301	C30	0.118000	0.438200	0.760870
C311	C31	0.048700	0.397600	0.755360
C321	C32	0.005000	0.344300	0.769430
C331	C33	0.169200	0.488500	0.749790
C341	C34	0.150500	0.496200	0.733040
C351	C35	0.080800	0.455600	0.727500
C361	C36	0.028700	0.407000	0.737800
C371	C37	0.207900	0.548300	0.721930
C381	C38	0.816300	0.315400	0.836960
C391	C39	0.708800	0.537600	0.827860
C401	C40	0.642300	0.524100	0.823810
C411	C41	0.631500	0.563400	0.811610
C421	C42	0.692800	0.628600	0.804960
C431	C43	0.763100	0.643900	0.809600
C441	C44	0.768500	0.597400	0.820560
C451	C45	0.564800	0.554300	0.803190
C461	C46	0.588300	0.598800	0.787580
C471	C47	0.665600	0.663500	0.792520
C481	C48	0.540100	0.626900	0.781390
C491	C49	0.544400	0.629000	0.762200
C501	C50	0.580100	0.596900	0.757570
C511	C51	0.596500	0.563670	0.772000
C521	C52	0.510170	0.652810	0.751090
C531	C53	0.516100	0.643800	0.733380
C541	C54	0.553200	0.609200	0.727870
C551	C55	0.582500	0.587200	0.739230
C561	C56	0.476000	0.663900	0.721100
C571	C57	0.717800	0.488300	0.840410
C581	C58	0.641500	0.137000	0.236150
C591	C59	0.665040	0.159460	0.252510
C601	C60	0.667500	0.112700	0.264190
C611	C61	0.643000	0.041300	0.260120
C621	C62	0.617700	0.017400	0.243430
C631	C63	0.617000	0.064000	0.231050
C641	C64	0.697200	0.128900	0.282500
C651	C65	0.661600	0.052400	0.290920
C661	C66	0.653700	0.000900	0.274290
C671	C67	0.591300	0.027000	0.298690
C681	C68	0.586300	0.970600	0.311770
C691	C69	0.650300	0.980500	0.315190
C701	C70	0.706700	0.042600	0.305550
C711	C71	0.523000	0.917600	0.320010
C721	C72	0.528500	0.872700	0.331220
C731	C73	0.597300	0.884400	0.334830
C741	C74	0.659200	0.937500	0.326610
C751	C75	0.464800	0.817300	0.340510
C761	C76	0.642150	0.188510	0.223310
C771	C77	0.443700	0.133600	0.159900
C781	C78	0.452400	0.079500	0.150210
C791	C79	0.395500	0.031500	0.140900
C801	C80	0.329700	0.027600	0.141800
C811	C81	0.319800	0.076900	0.150700
C821	C82	0.377000	0.127300	0.159910
C831	C83	0.390600	0.971100	0.129140
C841	C84	0.322900	0.951500	0.118610
C851	C85	0.272600	0.958400	0.131410
C861	C86	0.289500	0.872800	0.112290
C871	C87	0.320200	0.882000	0.094200
C881	C88	0.348900	0.951300	0.088690
C891	C89	0.339300	0.995000	0.102760
C901	C90	0.319300	0.830800	0.083120
C911	C91	0.345700	0.849500	0.066370
C921	C92	0.374800	0.919200	0.060830
C931	C93	0.378300	0.971300	0.071130
C941	C94	0.340400	0.792100	0.055260
C951	C95	0.499100	0.183700	0.170290
C961	C96	0.828800	0.291200	0.161190
C971	C97	0.881800	0.357700	0.157140
C981	C98	0.931900	0.368500	0.144940
C991	C99	0.935800	0.307200	0.138290
C1001	C100	0.880800	0.236900	0.142930
C1011	C101	0.828900	0.231500	0.153890
C1021	C102	0.989500	0.435200	0.136520
C1031	C103	0.010500	0.411700	0.120910
C1041	C104	0.997900	0.334400	0.125850
C1051	C105	0.086800	0.459900	0.114720
C1061	C106	0.084600	0.455600	0.095530
C1071	C107	0.016800	0.419900	0.090900
C1081	C108	0.967170	0.403500	0.105330
C1091	C109	0.142640	0.489830	0.084420
C1101	C110	0.127700	0.483900	0.066710
C1111	C111	0.056000	0.446800	0.061200
C1121	C112	0.004700	0.417500	0.072560
C1131	C113	0.187900	0.524000	0.054430
C1141	C114	0.770500	0.282200	0.173740
C1151	C115	0.495500	0.358500	0.569490
C1161	C116	0.494420	0.334960	0.585850
C1171	C117	0.445200	0.332500	0.597530
C1181	C118	0.398300	0.357000	0.593460
C1191	C119	0.399700	0.382300	0.576770
C1201	C120	0.447000	0.383000	0.564390
C1211	C121	0.431700	0.302800	0.615840
C1221	C122	0.390800	0.338400	0.624260
C1231	C123	0.347200	0.346300	0.607630
C1241	C124	0.435700	0.408700	0.632030
C1251	C125	0.384300	0.413700	0.645110
C1261	C126	0.330200	0.349700	0.648530
C1271	C127	0.335900	0.293300	0.638890
C1281	C128	0.394600	0.477000	0.653350
C1291	C129	0.344200	0.471500	0.664560
C1301	C130	0.287100	0.402700	0.668170
C1311	C131	0.278300	0.340800	0.659950
C1321	C132	0.352500	0.535200	0.673850
C1331	C133	0.546360	0.357850	0.556650
C1341	C134	0.689900	0.556300	0.493240
C1351	C135	0.627100	0.547600	0.483550
C1361	C136	0.636000	0.604500	0.474240
C1371	C137	0.697900	0.670300	0.475140
C1381	C138	0.757100	0.680200	0.484040
C1391	C139	0.750300	0.623000	0.493250
C1401	C140	0.580500	0.609400	0.462480
C1411	C141	0.628600	0.677100	0.451950
C1421	C142	0.685800	0.727400	0.464750
C1431	C143	0.583300	0.710500	0.445630
C1441	C144	0.561800	0.679800	0.427540
C1451	C145	0.602400	0.651100	0.422030
C1461	C146	0.655700	0.660700	0.436100
C1471	C147	0.511500	0.680700	0.416460
C1481	C148	0.503800	0.654300	0.399710
C1491	C149	0.544400	0.625200	0.394170
C1501	C150	0.593000	0.621700	0.404470
C1511	C151	0.451700	0.659600	0.388600
C1521	C152	0.684600	0.500900	0.503630
C1531	C153	0.462400	0.171200	0.494530
C1541	C154	0.475900	0.118200	0.490480
C1551	C155	0.436600	0.068100	0.478280
C1561	C156	0.371400	0.064200	0.471630
C1571	C157	0.356100	0.119200	0.476270
C1581	C158	0.402600	0.171100	0.487230
C1591	C159	0.445700	0.010500	0.469860
C1601	C160	0.401200	0.989500	0.454250
C1611	C161	0.336500	0.002100	0.459190
C1621	C162	0.373100	0.913200	0.448060
C1631	C163	0.371000	0.915400	0.428870
C1641	C164	0.403100	0.983200	0.424240
C1651	C165	0.436330	0.032830	0.438670
C1661	C166	0.347190	0.857360	0.417760
C1671	C167	0.356200	0.872300	0.400050
C1681	C168	0.390800	0.944000	0.394540
C1691	C169	0.412800	0.995300	0.405900
C1701	C170	0.336100	0.812100	0.387770
C1711	C171	0.511700	0.229500	0.507080
C1721	C172	0.137000	0.495500	0.402820
C1731	C173	0.159460	0.494420	0.419180
C1741	C174	0.112700	0.445200	0.430860
C1751	C175	0.041300	0.398300	0.426790
C1761	C176	0.017400	0.399700	0.410100
C1771	C177	0.064000	0.447000	0.397720
C1781	C178	0.128900	0.431700	0.449170
C1791	C179	0.052400	0.390800	0.457590
C1801	C180	0.000900	0.347200	0.440960
C1811	C181	0.027000	0.435700	0.465360
C1821	C182	0.970600	0.384300	0.478440
C1831	C183	0.980500	0.330200	0.481860
C1841	C184	0.042600	0.335900	0.472220
C1851	C185	0.917600	0.394600	0.486680
C1861	C186	0.872700	0.344200	0.497890
C1871	C187	0.884400	0.287100	0.501500
C1881	C188	0.937500	0.278300	0.493280
C1891	C189	0.817300	0.352500	0.507180
C1901	C190	0.188510	0.546360	0.389980
C1911	C191	0.133600	0.689900	0.326570
C1921	C192	0.079500	0.627100	0.316880
C1931	C193	0.031500	0.636000	0.307570
C1941	C194	0.027600	0.697900	0.308470
C1951	C195	0.076900	0.757100	0.317370
C1961	C196	0.127300	0.750300	0.326580
C1971	C197	0.971100	0.580500	0.295810
C1981	C198	0.951500	0.628600	0.285280
C1991	C199	0.958400	0.685800	0.298080
C2001	C200	0.872800	0.583300	0.278960
C2011	C201	0.882000	0.561800	0.260870
C2021	C202	0.951300	0.602400	0.255360
C2031	C203	0.995000	0.655700	0.269430
C2041	C204	0.830800	0.511500	0.249790
C2051	C205	0.849500	0.503800	0.233040
C2061	C206	0.919200	0.544400	0.227500
C2071	C207	0.971300	0.593000	0.237800
C2081	C208	0.792100	0.451700	0.221930
C2091	C209	0.183700	0.684600	0.336960
C2101	C210	0.291200	0.462400	0.327860
C2111	C211	0.357700	0.475900	0.323810
C2121	C212	0.368500	0.436600	0.311610
C2131	C213	0.307200	0.371400	0.304960
C2141	C214	0.236900	0.356100	0.309600
C2151	C215	0.231500	0.402600	0.320560
C2161	C216	0.435200	0.445700	0.303190
C2171	C217	0.411700	0.401200	0.287580
C2181	C218	0.334400	0.336500	0.292520
C2191	C219	0.459900	0.373100	0.281390
C2201	C220	0.455600	0.371000	0.262200
C2211	C221	0.419900	0.403100	0.257570
C2221	C222	0.403500	0.436330	0.272000
C2231	C223	0.489830	0.347190	0.251090
C2241	C224	0.483900	0.356200	0.233380
C2251	C225	0.446800	0.390800	0.227870
C2261	C226	0.417500	0.412800	0.239230
C2271	C227	0.524000	0.336100	0.221100
C2281	C228	0.282200	0.511700	0.340410
C2291	C229	0.358500	0.863000	0.736150
C2301	C230	0.334960	0.840540	0.752510
C2311	C231	0.332500	0.887300	0.764190
C2321	C232	0.357000	0.958700	0.760120
C2331	C233	0.382300	0.982600	0.743430
C2341	C234	0.383000	0.936000	0.731050
C2351	C235	0.302800	0.871100	0.782500
C2361	C236	0.338400	0.947600	0.790920
C2371	C237	0.346300	0.999100	0.774290
C2381	C238	0.408700	0.973000	0.798690
C2391	C239	0.413700	0.029400	0.811770
C2401	C240	0.349700	0.019500	0.815190
C2411	C241	0.293300	0.957400	0.805550
C2421	C242	0.477000	0.082400	0.820010
C2431	C243	0.471500	0.127300	0.831220
C2441	C244	0.402700	0.115600	0.834830
C2451	C245	0.340800	0.062500	0.826610
C2461	C246	0.535200	0.182700	0.840510
C2471	C247	0.357850	0.811490	0.723310
C2481	C248	0.556300	0.866400	0.659900
C2491	C249	0.547600	0.920500	0.650210
C2501	C250	0.604500	0.968500	0.640900
C2511	C251	0.670300	0.972400	0.641800
C2521	C252	0.680200	0.923100	0.650700
C2531	C253	0.623000	0.872700	0.659910
C2541	C254	0.609400	0.028900	0.629140
C2551	C255	0.677100	0.048500	0.618610
C2561	C256	0.727400	0.041600	0.631410
C2571	C257	0.710500	0.127200	0.612290
C2581	C258	0.679800	0.118000	0.594200
C2591	C259	0.651100	0.048700	0.588690
C2601	C260	0.660700	0.005000	0.602760
C2611	C261	0.680700	0.169200	0.583120
C2621	C262	0.654300	0.150500	0.566370
C2631	C263	0.625200	0.080800	0.560830
C2641	C264	0.621700	0.028700	0.571130
C2651	C265	0.659600	0.207900	0.555260
C2661	C266	0.500900	0.816300	0.670290
C2671	C267	0.171200	0.708800	0.661190
C2681	C268	0.118200	0.642300	0.657140
C2691	C269	0.068100	0.631500	0.644940
C2701	C270	0.064200	0.692800	0.638290
C2711	C271	0.119200	0.763100	0.642930
C2721	C272	0.171100	0.768500	0.653890
C2731	C273	0.010500	0.564800	0.636520
C2741	C274	0.989500	0.588300	0.620910
C2751	C275	0.002100	0.665600	0.625850
C2761	C276	0.913200	0.540100	0.614720
C2771	C277	0.915400	0.544400	0.595530
C2781	C278	0.983200	0.580100	0.590900
C2791	C279	0.032830	0.596500	0.605330
C2801	C280	0.857360	0.510170	0.584420
C2811	C281	0.872300	0.516100	0.566710
C2821	C282	0.944000	0.553200	0.561200
C2831	C283	0.995300	0.582500	0.572560
C2841	C284	0.812100	0.476000	0.554430
C2851	C285	0.229500	0.717800	0.673740
C2861	C286	0.504500	0.641500	0.069490
C2871	C287	0.505580	0.665040	0.085850
C2881	C288	0.554800	0.667500	0.097530
C2891	C289	0.601700	0.643000	0.093460
C2901	C290	0.600300	0.617700	0.076770
C2911	C291	0.553000	0.617000	0.064390
C2921	C292	0.568300	0.697200	0.115840
C2931	C293	0.609200	0.661600	0.124260
C2941	C294	0.652800	0.653700	0.107630
C2951	C295	0.564300	0.591300	0.132030
C2961	C296	0.615700	0.586300	0.145110
C2971	C297	0.669800	0.650300	0.148530
C2981	C298	0.664100	0.706700	0.138890
C2991	C299	0.605400	0.523000	0.153350
C3001	C300	0.655800	0.528500	0.164560
C3011	C301	0.712900	0.597300	0.168170
C3021	C302	0.721700	0.659200	0.159950
C3031	C303	0.647500	0.464800	0.173850
C3041	C304	0.453640	0.642150	0.056650
C3051	C305	0.310100	0.443700	0.993240
C3061	C306	0.372900	0.452400	0.983550
C3071	C307	0.364000	0.395500	0.974240
C3081	C308	0.302100	0.329700	0.975140
C3091	C309	0.242900	0.319800	0.984040
C3101	C310	0.249700	0.377000	0.993250
C3111	C311	0.419500	0.390600	0.962480
C3121	C312	0.371400	0.322900	0.951950
C3131	C313	0.314200	0.272600	0.964750
C3141	C314	0.416700	0.289500	0.945630
C3151	C315	0.438200	0.320200	0.927540
C3161	C316	0.397600	0.348900	0.922030
C3171	C317	0.344300	0.339300	0.936100
C3181	C318	0.488500	0.319300	0.916460
C3191	C319	0.496200	0.345700	0.899710
C3201	C320	0.455600	0.374800	0.894170
C3211	C321	0.407000	0.378300	0.904470
C3221	C322	0.548300	0.340400	0.888600
C3231	C323	0.315400	0.499100	0.003630
C3241	C324	0.537600	0.828800	0.994530
C3251	C325	0.524100	0.881800	0.990480
C3261	C326	0.563400	0.931900	0.978280
C3271	C327	0.628600	0.935800	0.971630
C3281	C328	0.643900	0.880800	0.976270
C3291	C329	0.597400	0.828900	0.987230
C3301	C330	0.554300	0.989500	0.969860
C3311	C331	0.598800	0.010500	0.954250
C3321	C332	0.663500	0.997900	0.959190
C3331	C333	0.626900	0.086800	0.948060
C3341	C334	0.629000	0.084600	0.928870
C3351	C335	0.596900	0.016800	0.924240
C3361	C336	0.563670	0.967170	0.938670
C3371	C337	0.652810	0.142640	0.917760
C3381	C338	0.643800	0.127700	0.900050
C3391	C339	0.609200	0.056000	0.894540
C3401	C340	0.587200	0.004700	0.905900
C3411	C341	0.663900	0.187900	0.887770
C3421	C342	0.488300	0.770500	0.007080
O11	O1	0.678310	0.329060	0.860760
O21	O2	0.833220	0.456140	0.874830
O31	O3	0.749830	0.412910	0.895680
O41	O4	0.182300	0.589600	0.005100
O51	O5	0.227830	0.700630	0.016070
O61	O6	0.824150	0.379680	0.839780
O71	O7	0.763300	0.258640	0.843090
O81	O8	0.269740	0.585270	0.728630
O91	O9	0.193510	0.551370	0.706280
O101	O10	0.776620	0.492000	0.841370
O111	O11	0.667200	0.452530	0.849780
O121	O12	0.434220	0.681770	0.727580
O131	O13	0.484180	0.658210	0.705260
O141	O14	0.650750	0.321690	0.194090
O151	O15	0.622920	0.166780	0.208160
O161	O16	0.663080	0.250170	0.229010
O171	O17	0.407300	0.817700	0.338430
O181	O18	0.472800	0.772170	0.349400
O191	O19	0.555530	0.175850	0.173110
O201	O20	0.495340	0.236700	0.176420
O211	O21	0.315530	0.730260	0.061960
O221	O22	0.357860	0.806490	0.039610
O231	O23	0.715380	0.223380	0.174700
O241	O24	0.785330	0.332800	0.183110
O251	O25	0.247550	0.565780	0.060910
O261	O26	0.174030	0.515820	0.038590
O271	O27	0.670940	0.349250	0.527430
O281	O28	0.543860	0.377080	0.541500
O291	O29	0.587090	0.336920	0.562350
O301	O30	0.410400	0.592700	0.671770
O311	O31	0.299370	0.527200	0.682740
O321	O32	0.620320	0.444470	0.506450
O331	O33	0.741360	0.504660	0.509760
O341	O34	0.414730	0.684470	0.395300
O351	O35	0.448630	0.642140	0.372950
O361	O36	0.508000	0.284620	0.508040
O371	O37	0.547470	0.214670	0.516450
O381	O38	0.318230	0.752450	0.394250
O391	O39	0.341790	0.825970	0.371930
O401	O40	0.321690	0.670940	0.360760
O411	O41	0.166780	0.543860	0.374830
O421	O42	0.250170	0.587090	0.395680
O431	O43	0.817700	0.410400	0.505100
O441	O44	0.772170	0.299370	0.516070
O451	O45	0.175850	0.620320	0.339780
O461	O46	0.236700	0.741360	0.343090
O471	O47	0.730260	0.414730	0.228630
O481	O48	0.806490	0.448630	0.206280
O491	O49	0.223380	0.508000	0.341370
O501	O50	0.332800	0.547470	0.349780
O511	O51	0.565780	0.318230	0.227580
O521	O52	0.515820	0.341790	0.205260
O531	O53	0.349250	0.678310	0.694090
O541	O54	0.377080	0.833220	0.708160
O551	O55	0.336920	0.749830	0.729010
O561	O56	0.592700	0.182300	0.838430
O571	O57	0.527200	0.227830	0.849400
O581	O58	0.444470	0.824150	0.673110
O591	O59	0.504660	0.763300	0.676420
O601	O60	0.684470	0.269740	0.561960
O611	O61	0.642140	0.193510	0.539610
O621	O62	0.284620	0.776620	0.674700
O631	O63	0.214670	0.667200	0.683110
O641	O64	0.752450	0.434220	0.560910
O651	O65	0.825970	0.484180	0.538590
O661	O66	0.329060	0.650750	0.027430
O671	O67	0.456140	0.622920	0.041500
O681	O68	0.412910	0.663080	0.062350
O691	O69	0.589600	0.407300	0.171770
O701	O70	0.700630	0.472800	0.182740
O711	O71	0.379680	0.555530	0.006450
O721	O72	0.258640	0.495340	0.009760
O731	O73	0.585270	0.315530	0.895300
O741	O74	0.551370	0.357860	0.872950
O751	O75	0.492000	0.715380	0.008040
O761	O76	0.452530	0.785330	0.016450
O771	O77	0.681770	0.247550	0.894250
O781	O78	0.658210	0.174030	0.871930
Zn251	Zn25	0.358460	0.588620	0.478860
Zn261	Zn26	0.345230	0.672720	0.447980
Zn271	Zn27	0.430400	0.758350	0.480230
Zn281	Zn28	0.257350	0.659410	0.481850
Zn291	Zn29	0.411380	0.769840	0.145530
Zn301	Zn30	0.327280	0.672510	0.114640
Zn311	Zn31	0.241650	0.672050	0.146890
Zn321	Zn32	0.340590	0.597940	0.148510
Zn331	Zn33	0.230160	0.641540	0.812200
Zn341	Zn34	0.327490	0.654770	0.781310
Zn351	Zn35	0.327950	0.569600	0.813560
Zn361	Zn36	0.402060	0.742650	0.815180
Zn371	Zn37	0.641540	0.411380	0.978860
Zn381	Zn38	0.654770	0.327280	0.947980
Zn391	Zn39	0.569600	0.241650	0.980230
Zn401	Zn40	0.742650	0.340590	0.981850
Zn411	Zn41	0.588620	0.230160	0.645530
Zn421	Zn42	0.672720	0.327490	0.614640
Zn431	Zn43	0.758350	0.327950	0.646890
Zn441	Zn44	0.659410	0.402060	0.648510
Zn451	Zn45	0.769840	0.358460	0.312200
Zn461	Zn46	0.672510	0.345230	0.281310
Zn471	Zn47	0.672050	0.430400	0.313560
Zn481	Zn48	0.597940	0.257350	0.315180
H2531	H253	0.320700	0.526900	0.410930
H2541	H254	0.398900	0.368700	0.426130
H2551	H255	0.398600	0.447100	0.446730
H2561	H256	0.316800	0.476400	0.378230
H2571	H257	0.251000	0.402500	0.384130
H2581	H258	0.303200	0.301200	0.394030
H2591	H259	0.387100	0.340200	0.391130
H2601	H260	0.446500	0.452000	0.376430
H2611	H261	0.411200	0.476900	0.362230
H2621	H262	0.258100	0.290100	0.365830
H2631	H263	0.269400	0.354300	0.353830
H2641	H264	0.521100	0.434900	0.348930
H2651	H265	0.397900	0.253500	0.323630
H2661	H266	0.295900	0.239000	0.337830
H2671	H267	0.505000	0.583500	0.516130
H2681	H268	0.723700	0.799800	0.516130
H2691	H269	0.629700	0.788900	0.500030
H2701	H270	0.567600	0.555900	0.544830
H2711	H271	0.615000	0.545600	0.530830
H2721	H272	0.751500	0.668200	0.527930
H2731	H273	0.762600	0.729100	0.541030
H2741	H274	0.696000	0.541600	0.547130
H2751	H275	0.762400	0.611500	0.554630
H2761	H276	0.617200	0.658000	0.562430
H2771	H277	0.699600	0.703100	0.566730
H2781	H278	0.699000	0.482900	0.579830
H2791	H279	0.607400	0.538200	0.617030
H2801	H280	0.601500	0.619800	0.599430
H2811	H281	0.115600	0.512600	0.503930
H2821	H282	0.119600	0.315900	0.528030
H2831	H283	0.208300	0.394300	0.509930
H2841	H284	0.028400	0.495500	0.533030
H2851	H285	0.969800	0.430000	0.522530
H2861	H286	0.014500	0.318200	0.550830
H2871	H287	0.960100	0.297800	0.535430
H2881	H288	0.895600	0.404400	0.548230
H2891	H289	0.881800	0.325400	0.547430
H2901	H290	0.072900	0.427900	0.562230
H2911	H291	0.051000	0.487500	0.561030
H2921	H292	0.810600	0.326200	0.578130
H2931	H293	0.954800	0.398000	0.617130
H2941	H294	0.042400	0.436100	0.598030
H2951	H295	0.473100	0.793800	0.077600
H2961	H296	0.631300	0.030200	0.092800
H2971	H297	0.552900	0.951500	0.113400
H2981	H298	0.523600	0.840400	0.044900
H2991	H299	0.597500	0.848500	0.050800
H3001	H300	0.698800	0.002000	0.060700
H3011	H301	0.659800	0.046900	0.057800
H3021	H302	0.548000	0.994500	0.043100
H3031	H303	0.523100	0.934300	0.028900
H3041	H304	0.709900	0.968000	0.032500
H3051	H305	0.645700	0.915100	0.020500
H3061	H306	0.565100	0.086200	0.015600
H3071	H307	0.746500	0.144400	0.990300
H3081	H308	0.761000	0.056900	0.004500
H3091	H309	0.416500	0.921500	0.182800
H3101	H310	0.200200	0.923900	0.182800
H3111	H311	0.211100	0.840800	0.166700
H3121	H312	0.444100	0.011700	0.211500
H3131	H313	0.454400	0.069400	0.197500
H3141	H314	0.331800	0.083300	0.194600
H3151	H315	0.270900	0.033500	0.207700
H3161	H316	0.458400	0.154400	0.213800
H3171	H317	0.388500	0.150900	0.221300
H3181	H318	0.342000	0.959200	0.229100
H3191	H319	0.296900	0.996500	0.233400
H3201	H320	0.517100	0.216100	0.246500
H3211	H321	0.461800	0.069200	0.283700
H3221	H322	0.380200	0.981700	0.266100
H3231	H323	0.487400	0.603000	0.170600
H3241	H324	0.684100	0.803700	0.194700
H3251	H325	0.605700	0.814000	0.176600
H3261	H326	0.504500	0.532900	0.199700
H3271	H327	0.570000	0.539800	0.189200
H3281	H328	0.681800	0.696300	0.217500
H3291	H329	0.702200	0.662300	0.202100
H3301	H330	0.595600	0.491200	0.214900
H3311	H331	0.674600	0.556400	0.214100
H3321	H332	0.572100	0.645000	0.228900
H3331	H333	0.512500	0.563500	0.227700
H3341	H334	0.673800	0.484400	0.244800
H3351	H335	0.602000	0.556800	0.283800
H3361	H336	0.563900	0.606300	0.264700
H3371	H337	0.206200	0.679300	0.744270
H3381	H338	0.969800	0.601100	0.759470
H3391	H339	0.048500	0.601400	0.780070
H3401	H340	0.159600	0.683200	0.711570
H3411	H341	0.151500	0.749000	0.717470
H3421	H342	0.998000	0.696800	0.727370
H3431	H343	0.953100	0.612900	0.724470
H3441	H344	0.005500	0.553500	0.709770
H3451	H345	0.065700	0.588800	0.695570
H3461	H346	0.032000	0.741900	0.699170
H3471	H347	0.084900	0.730600	0.687170
H3481	H348	0.913800	0.478900	0.682270
H3491	H349	0.855600	0.602100	0.656970
H3501	H350	0.943100	0.704100	0.671170
H3511	H351	0.078500	0.495000	0.849470
H3521	H352	0.076100	0.276300	0.849470
H3531	H353	0.159200	0.370300	0.833370
H3541	H354	0.988300	0.432400	0.878170
H3551	H355	0.930600	0.385000	0.864170
H3561	H356	0.916700	0.248500	0.861270
H3571	H357	0.966500	0.237400	0.874370
H3581	H358	0.845600	0.304000	0.880470
H3591	H359	0.849100	0.237600	0.887970
H3601	H360	0.040800	0.382800	0.895770
H3611	H361	0.003500	0.300400	0.900070
H3621	H362	0.783900	0.301000	0.913170
H3631	H363	0.930800	0.392600	0.950370
H3641	H364	0.018300	0.398500	0.932770
H3651	H365	0.397000	0.884400	0.837270
H3661	H366	0.196300	0.880400	0.861370
H3671	H367	0.186000	0.791700	0.843270
H3681	H368	0.467100	0.971600	0.866370
H3691	H369	0.460200	0.030200	0.855870
H3701	H370	0.303700	0.985500	0.884170
H3711	H371	0.337700	0.039900	0.868770
H3721	H372	0.508800	0.104400	0.881570
H3731	H373	0.443600	0.118200	0.880770
H3741	H374	0.355000	0.927100	0.895570
H3751	H375	0.436500	0.949000	0.894370
H3761	H376	0.515600	0.189400	0.911470
H3771	H377	0.443200	0.045200	0.950470
H3781	H378	0.393700	0.957600	0.931370
H3791	H379	0.679300	0.473100	0.910930
H3801	H380	0.601100	0.631300	0.926130
H3811	H381	0.601400	0.552900	0.946730
H3821	H382	0.683200	0.523600	0.878230
H3831	H383	0.749000	0.597500	0.884130
H3841	H384	0.696800	0.698800	0.894030
H3851	H385	0.612900	0.659800	0.891130
H3861	H386	0.553500	0.548000	0.876430
H3871	H387	0.588800	0.523100	0.862230
H3881	H388	0.741900	0.709900	0.865830
H3891	H389	0.730600	0.645700	0.853830
H3901	H390	0.478900	0.565100	0.848930
H3911	H391	0.602100	0.746500	0.823630
H3921	H392	0.704100	0.761000	0.837830
H3931	H393	0.495000	0.416500	0.016130
H3941	H394	0.276300	0.200200	0.016130
H3951	H395	0.370300	0.211100	0.000030
H3961	H396	0.432400	0.444100	0.044830
H3971	H397	0.385000	0.454400	0.030830
H3981	H398	0.248500	0.331800	0.027930
H3991	H399	0.237400	0.270900	0.041030
H4001	H400	0.304000	0.458400	0.047130
H4011	H401	0.237600	0.388500	0.054630
H4021	H402	0.382800	0.342000	0.062430
H4031	H403	0.300400	0.296900	0.066730
H4041	H404	0.301000	0.517100	0.079830
H4051	H405	0.392600	0.461800	0.117030
H4061	H406	0.398500	0.380200	0.099430
H4071	H407	0.884400	0.487400	0.003930
H4081	H408	0.880400	0.684100	0.028030
H4091	H409	0.791700	0.605700	0.009930
H4101	H410	0.971600	0.504500	0.033030
H4111	H411	0.030200	0.570000	0.022530
H4121	H412	0.985500	0.681800	0.050830
H4131	H413	0.039900	0.702200	0.035430
H4141	H414	0.104400	0.595600	0.048230
H4151	H415	0.118200	0.674600	0.047430
H4161	H416	0.927100	0.572100	0.062230
H4171	H417	0.949000	0.512500	0.061030
H4181	H418	0.189400	0.673800	0.078130
H4191	H419	0.045200	0.602000	0.117130
H4201	H420	0.957600	0.563900	0.098030
H4211	H421	0.526900	0.206200	0.577600
H4221	H422	0.368700	0.969800	0.592800
H4231	H423	0.447100	0.048500	0.613400
H4241	H424	0.476400	0.159600	0.544900
H4251	H425	0.402500	0.151500	0.550800
H4261	H426	0.301200	0.998000	0.560700
H4271	H427	0.340200	0.953100	0.557800
H4281	H428	0.452000	0.005500	0.543100
H4291	H429	0.476900	0.065700	0.528900
H4301	H430	0.290100	0.032000	0.532500
H4311	H431	0.354300	0.084900	0.520500
H4321	H432	0.434900	0.913800	0.515600
H4331	H433	0.253500	0.855600	0.490300
H4341	H434	0.239000	0.943100	0.504500
H4351	H435	0.583500	0.078500	0.682800
H4361	H436	0.799800	0.076100	0.682800
H4371	H437	0.788900	0.159200	0.666700
H4381	H438	0.555900	0.988300	0.711500
H4391	H439	0.545600	0.930600	0.697500
H4401	H440	0.668200	0.916700	0.694600
H4411	H441	0.729100	0.966500	0.707700
H4421	H442	0.541600	0.845600	0.713800
H4431	H443	0.611500	0.849100	0.721300
H4441	H444	0.658000	0.040800	0.729100
H4451	H445	0.703100	0.003500	0.733400
H4461	H446	0.482900	0.783900	0.746500
H4471	H447	0.538200	0.930800	0.783700
H4481	H448	0.619800	0.018300	0.766100
H4491	H449	0.512600	0.397000	0.670600
H4501	H450	0.315900	0.196300	0.694700
H4511	H451	0.394300	0.186000	0.676600
H4521	H452	0.495500	0.467100	0.699700
H4531	H453	0.430000	0.460200	0.689200
H4541	H454	0.318200	0.303700	0.717500
H4551	H455	0.297800	0.337700	0.702100
H4561	H456	0.404400	0.508800	0.714900
H4571	H457	0.325400	0.443600	0.714100
H4581	H458	0.427900	0.355000	0.728900
H4591	H459	0.487500	0.436500	0.727700
H4601	H460	0.326200	0.515600	0.744800
H4611	H461	0.398000	0.443200	0.783800
H4621	H462	0.436100	0.393700	0.764700
H4631	H463	0.793800	0.320700	0.244270
H4641	H464	0.030200	0.398900	0.259470
H4651	H465	0.951500	0.398600	0.280070
H4661	H466	0.840400	0.316800	0.211570
H4671	H467	0.848500	0.251000	0.217470
H4681	H468	0.002000	0.303200	0.227370
H4691	H469	0.046900	0.387100	0.224470
H4701	H470	0.994500	0.446500	0.209770
H4711	H471	0.934300	0.411200	0.195570
H4721	H472	0.968000	0.258100	0.199170
H4731	H473	0.915100	0.269400	0.187170
H4741	H474	0.086200	0.521100	0.182270
H4751	H475	0.144400	0.397900	0.156970
H4761	H476	0.056900	0.295900	0.171170
H4771	H477	0.921500	0.505000	0.349470
H4781	H478	0.923900	0.723700	0.349470
H4791	H479	0.840800	0.629700	0.333370
H4801	H480	0.011700	0.567600	0.378170
H4811	H481	0.069400	0.615000	0.364170
H4821	H482	0.083300	0.751500	0.361270
H4831	H483	0.033500	0.762600	0.374370
H4841	H484	0.154400	0.696000	0.380470
H4851	H485	0.150900	0.762400	0.387970
H4861	H486	0.959200	0.617200	0.395770
H4871	H487	0.996500	0.699600	0.400070
H4881	H488	0.216100	0.699000	0.413170
H4891	H489	0.069200	0.607400	0.450370
H4901	H490	0.981700	0.601500	0.432770
H4911	H491	0.603000	0.115600	0.337270
H4921	H492	0.803700	0.119600	0.361370
H4931	H493	0.814000	0.208300	0.343270
H4941	H494	0.532900	0.028400	0.366370
H4951	H495	0.539800	0.969800	0.355870
H4961	H496	0.696300	0.014500	0.384170
H4971	H497	0.662300	0.960100	0.368770
H4981	H498	0.491200	0.895600	0.381570
H4991	H499	0.556400	0.881800	0.380770
H5001	H500	0.645000	0.072900	0.395570
H5011	H501	0.563500	0.051000	0.394370
H5021	H502	0.484400	0.810600	0.411470
H5031	H503	0.556800	0.954800	0.450470
H5041	H504	0.606300	0.042400	0.431370
C3431	C343	0.358500	0.495500	0.430510
C3441	C344	0.334960	0.494420	0.414150
C3451	C345	0.332500	0.445200	0.402470
C3461	C346	0.357000	0.398300	0.406540
C3471	C347	0.382300	0.399700	0.423230
C3481	C348	0.383000	0.447000	0.435610
C3491	C349	0.302800	0.431700	0.384160
C3501	C350	0.338400	0.390800	0.375740
C3511	C351	0.346300	0.347200	0.392370
C3521	C352	0.408700	0.435700	0.367970
C3531	C353	0.413700	0.384300	0.354890
C3541	C354	0.349700	0.330200	0.351470
C3551	C355	0.293300	0.335900	0.361110
C3561	C356	0.477000	0.394600	0.346650
C3571	C357	0.471500	0.344200	0.335440
C3581	C358	0.402700	0.287100	0.331830
C3591	C359	0.340800	0.278300	0.340050
C3601	C360	0.535200	0.352500	0.326150
C3611	C361	0.357850	0.546360	0.443350
C3621	C362	0.556300	0.689900	0.506760
C3631	C363	0.547600	0.627100	0.516450
C3641	C364	0.604500	0.636000	0.525760
C3651	C365	0.670300	0.697900	0.524860
C3661	C366	0.680200	0.757100	0.515960
C3671	C367	0.623000	0.750300	0.506750
C3681	C368	0.609400	0.580500	0.537520
C3691	C369	0.677100	0.628600	0.548050
C3701	C370	0.727400	0.685800	0.535250
C3711	C371	0.710500	0.583300	0.554370
C3721	C372	0.679800	0.561800	0.572460
C3731	C373	0.651100	0.602400	0.577970
C3741	C374	0.660700	0.655700	0.563900
C3751	C375	0.680700	0.511500	0.583540
C3761	C376	0.654300	0.503800	0.600290
C3771	C377	0.625200	0.544400	0.605830
C3781	C378	0.621700	0.593000	0.595530
C3791	C379	0.659600	0.451700	0.611400
C3801	C380	0.500900	0.684600	0.496370
C3811	C381	0.171200	0.462400	0.505470
C3821	C382	0.118200	0.475900	0.509520
C3831	C383	0.068100	0.436600	0.521720
C3841	C384	0.064200	0.371400	0.528370
C3851	C385	0.119200	0.356100	0.523730
C3861	C386	0.171100	0.402600	0.512770
C3871	C387	0.010500	0.445700	0.530140
C3881	C388	0.989500	0.401200	0.545750
C3891	C389	0.002100	0.336500	0.540810
C3901	C390	0.913200	0.373100	0.551940
C3911	C391	0.915400	0.371000	0.571130
C3921	C392	0.983200	0.403100	0.575760
C3931	C393	0.032830	0.436330	0.561330
C3941	C394	0.857360	0.347190	0.582240
C3951	C395	0.872300	0.356200	0.599950
C3961	C396	0.944000	0.390800	0.605460
C3971	C397	0.995300	0.412800	0.594100
C3981	C398	0.812100	0.336100	0.612230
C3991	C399	0.229500	0.511700	0.492920
C4001	C400	0.504500	0.863000	0.097180
C4011	C401	0.505580	0.840540	0.080820
C4021	C402	0.554800	0.887300	0.069140
C4031	C403	0.601700	0.958700	0.073210
C4041	C404	0.600300	0.982600	0.089900
C4051	C405	0.553000	0.936000	0.102280
C4061	C406	0.568300	0.871100	0.050830
C4071	C407	0.609200	0.947600	0.042410
C4081	C408	0.652800	0.999100	0.059040
C4091	C409	0.564300	0.973000	0.034640
C4101	C410	0.615700	0.029400	0.021560
C4111	C411	0.669800	0.019500	0.018140
C4121	C412	0.664100	0.957400	0.027780
C4131	C413	0.605400	0.082400	0.013320
C4141	C414	0.655800	0.127300	0.002110
C4151	C415	0.712900	0.115600	0.998500
C4161	C416	0.721700	0.062500	0.006720
C4171	C417	0.647500	0.182700	0.992820
C4181	C418	0.453640	0.811490	0.110020
C4191	C419	0.310100	0.866400	0.173430
C4201	C420	0.372900	0.920500	0.183120
C4211	C421	0.364000	0.968500	0.192430
C4221	C422	0.302100	0.972400	0.191530
C4231	C423	0.242900	0.923100	0.182630
C4241	C424	0.249700	0.872700	0.173420
C4251	C425	0.419500	0.028900	0.204190
C4261	C426	0.371400	0.048500	0.214720
C4271	C427	0.314200	0.041600	0.201920
C4281	C428	0.416700	0.127200	0.221040
C4291	C429	0.438200	0.118000	0.239130
C4301	C430	0.397600	0.048700	0.244640
C4311	C431	0.344300	0.005000	0.230570
C4321	C432	0.488500	0.169200	0.250210
C4331	C433	0.496200	0.150500	0.266960
C4341	C434	0.455600	0.080800	0.272500
C4351	C435	0.407000	0.028700	0.262200
C4361	C436	0.548300	0.207900	0.278070
C4371	C437	0.315400	0.816300	0.163040
C4381	C438	0.537600	0.708800	0.172140
C4391	C439	0.524100	0.642300	0.176190
C4401	C440	0.563400	0.631500	0.188390
C4411	C441	0.628600	0.692800	0.195040
C4421	C442	0.643900	0.763100	0.190400
C4431	C443	0.597400	0.768500	0.179440
C4441	C444	0.554300	0.564800	0.196810
C4451	C445	0.598800	0.588300	0.212420
C4461	C446	0.663500	0.665600	0.207480
C4471	C447	0.626900	0.540100	0.218610
C4481	C448	0.629000	0.544400	0.237800
C4491	C449	0.596900	0.580100	0.242430
C4501	C450	0.563670	0.596500	0.228000
C4511	C451	0.652810	0.510170	0.248910
C4521	C452	0.643800	0.516100	0.266620
C4531	C453	0.609200	0.553200	0.272130
C4541	C454	0.587200	0.582500	0.260770
C4551	C455	0.663900	0.476000	0.278900
C4561	C456	0.488300	0.717800	0.159590
C4571	C457	0.137000	0.641500	0.763850
C4581	C458	0.159460	0.665040	0.747490
C4591	C459	0.112700	0.667500	0.735810
C4601	C460	0.041300	0.643000	0.739880
C4611	C461	0.017400	0.617700	0.756570
C4621	C462	0.064000	0.617000	0.768950
C4631	C463	0.128900	0.697200	0.717500
C4641	C464	0.052400	0.661600	0.709080
C4651	C465	0.000900	0.653700	0.725710
C4661	C466	0.027000	0.591300	0.701310
C4671	C467	0.970600	0.586300	0.688230
C4681	C468	0.980500	0.650300	0.684810
C4691	C469	0.042600	0.706700	0.694450
C4701	C470	0.917600	0.523000	0.679990
C4711	C471	0.872700	0.528500	0.668780
C4721	C472	0.884400	0.597300	0.665170
C4731	C473	0.937500	0.659200	0.673390
C4741	C474	0.817300	0.464800	0.659490
C4751	C475	0.188510	0.642150	0.776690
C4761	C476	0.133600	0.443700	0.840100
C4771	C477	0.079500	0.452400	0.849790
C4781	C478	0.031500	0.395500	0.859100
C4791	C479	0.027600	0.329700	0.858200
C4801	C480	0.076900	0.319800	0.849300
C4811	C481	0.127300	0.377000	0.840090
C4821	C482	0.971100	0.390600	0.870860
C4831	C483	0.951500	0.322900	0.881390
C4841	C484	0.958400	0.272600	0.868590
C4851	C485	0.872800	0.289500	0.887710
C4861	C486	0.882000	0.320200	0.905800
C4871	C487	0.951300	0.348900	0.911310
C4881	C488	0.995000	0.339300	0.897240
C4891	C489	0.830800	0.319300	0.916880
C4901	C490	0.849500	0.345700	0.933630
C4911	C491	0.919200	0.374800	0.939170
C4921	C492	0.971300	0.378300	0.928870
C4931	C493	0.792100	0.340400	0.944740
C4941	C494	0.183700	0.499100	0.829710
C4951	C495	0.291200	0.828800	0.838810
C4961	C496	0.357700	0.881800	0.842860
C4971	C497	0.368500	0.931900	0.855060
C4981	C498	0.307200	0.935800	0.861710
C4991	C499	0.236900	0.880800	0.857070
C5001	C500	0.231500	0.828900	0.846110
C5011	C501	0.435200	0.989500	0.863480
C5021	C502	0.411700	0.010500	0.879090
C5031	C503	0.334400	0.997900	0.874150
C5041	C504	0.459900	0.086800	0.885280
C5051	C505	0.455600	0.084600	0.904470
C5061	C506	0.419900	0.016800	0.909100
C5071	C507	0.403500	0.967170	0.894670
C5081	C508	0.489830	0.142640	0.915580
C5091	C509	0.483900	0.127700	0.933290
C5101	C510	0.446800	0.056000	0.938800
C5111	C511	0.417500	0.004700	0.927440
C5121	C512	0.524000	0.187900	0.945570
C5131	C513	0.282200	0.770500	0.826260
C5141	C514	0.641500	0.504500	0.930510
C5151	C515	0.665040	0.505580	0.914150
C5161	C516	0.667500	0.554800	0.902470
C5171	C517	0.643000	0.601700	0.906540
C5181	C518	0.617700	0.600300	0.923230
C5191	C519	0.617000	0.553000	0.935610
C5201	C520	0.697200	0.568300	0.884160
C5211	C521	0.661600	0.609200	0.875740
C5221	C522	0.653700	0.652800	0.892370
C5231	C523	0.591300	0.564300	0.867970
C5241	C524	0.586300	0.615700	0.854890
C5251	C525	0.650300	0.669800	0.851470
C5261	C526	0.706700	0.664100	0.861110
C5271	C527	0.523000	0.605400	0.846650
C5281	C528	0.528500	0.655800	0.835440
C5291	C529	0.597300	0.712900	0.831830
C5301	C530	0.659200	0.721700	0.840050
C5311	C531	0.464800	0.647500	0.826150
C5321	C532	0.642150	0.453640	0.943350
C5331	C533	0.443700	0.310100	0.006760
C5341	C534	0.452400	0.372900	0.016450
C5351	C535	0.395500	0.364000	0.025760
C5361	C536	0.329700	0.302100	0.024860
C5371	C537	0.319800	0.242900	0.015960
C5381	C538	0.377000	0.249700	0.006750
C5391	C539	0.390600	0.419500	0.037520
C5401	C540	0.322900	0.371400	0.048050
C5411	C541	0.272600	0.314200	0.035250
C5421	C542	0.289500	0.416700	0.054370
C5431	C543	0.320200	0.438200	0.072460
C5441	C544	0.348900	0.397600	0.077970
C5451	C545	0.339300	0.344300	0.063900
C5461	C546	0.319300	0.488500	0.083540
C5471	C547	0.345700	0.496200	0.100290
C5481	C548	0.374800	0.455600	0.105830
C5491	C549	0.378300	0.407000	0.095530
C5501	C550	0.340400	0.548300	0.111400
C5511	C551	0.499100	0.315400	0.996370
C5521	C552	0.828800	0.537600	0.005470
C5531	C553	0.881800	0.524100	0.009520
C5541	C554	0.931900	0.563400	0.021720
C5551	C555	0.935800	0.628600	0.028370
C5561	C556	0.880800	0.643900	0.023730
C5571	C557	0.828900	0.597400	0.012770
C5581	C558	0.989500	0.554300	0.030140
C5591	C559	0.010500	0.598800	0.045750
C5601	C560	0.997900	0.663500	0.040810
C5611	C561	0.086800	0.626900	0.051940
C5621	C562	0.084600	0.629000	0.071130
C5631	C563	0.016800	0.596900	0.075760
C5641	C564	0.967170	0.563670	0.061330
C5651	C565	0.142640	0.652810	0.082240
C5661	C566	0.127700	0.643800	0.099950
C5671	C567	0.056000	0.609200	0.105460
C5681	C568	0.004700	0.587200	0.094100
C5691	C569	0.187900	0.663900	0.112230
C5701	C570	0.770500	0.488300	0.992920
C5711	C571	0.495500	0.137000	0.597180
C5721	C572	0.494420	0.159460	0.580820
C5731	C573	0.445200	0.112700	0.569140
C5741	C574	0.398300	0.041300	0.573210
C5751	C575	0.399700	0.017400	0.589900
C5761	C576	0.447000	0.064000	0.602280
C5771	C577	0.431700	0.128900	0.550830
C5781	C578	0.390800	0.052400	0.542410
C5791	C579	0.347200	0.000900	0.559040
C5801	C580	0.435700	0.027000	0.534640
C5811	C581	0.384300	0.970600	0.521560
C5821	C582	0.330200	0.980500	0.518140
C5831	C583	0.335900	0.042600	0.527780
C5841	C584	0.394600	0.917600	0.513320
C5851	C585	0.344200	0.872700	0.502110
C5861	C586	0.287100	0.884400	0.498500
C5871	C587	0.278300	0.937500	0.506720
C5881	C588	0.352500	0.817300	0.492820
C5891	C589	0.546360	0.188510	0.610020
C5901	C590	0.689900	0.133600	0.673430
C5911	C591	0.627100	0.079500	0.683120
C5921	C592	0.636000	0.031500	0.692430
C5931	C593	0.697900	0.027600	0.691530
C5941	C594	0.757100	0.076900	0.682630
C5951	C595	0.750300	0.127300	0.673420
C5961	C596	0.580500	0.971100	0.704190
C5971	C597	0.628600	0.951500	0.714720
C5981	C598	0.685800	0.958400	0.701920
C5991	C599	0.583300	0.872800	0.721040
C6001	C600	0.561800	0.882000	0.739130
C6011	C601	0.602400	0.951300	0.744640
C6021	C602	0.655700	0.995000	0.730570
C6031	C603	0.511500	0.830800	0.750210
C6041	C604	0.503800	0.849500	0.766960
C6051	C605	0.544400	0.919200	0.772500
C6061	C606	0.593000	0.971300	0.762200
C6071	C607	0.451700	0.792100	0.778070
C6081	C608	0.684600	0.183700	0.663040
C6091	C609	0.462400	0.291200	0.672140
C6101	C610	0.475900	0.357700	0.676190
C6111	C611	0.436600	0.368500	0.688390
C6121	C612	0.371400	0.307200	0.695040
C6131	C613	0.356100	0.236900	0.690400
C6141	C614	0.402600	0.231500	0.679440
C6151	C615	0.445700	0.435200	0.696810
C6161	C616	0.401200	0.411700	0.712420
C6171	C617	0.336500	0.334400	0.707480
C6181	C618	0.373100	0.459900	0.718610
C6191	C619	0.371000	0.455600	0.737800
C6201	C620	0.403100	0.419900	0.742430
C6211	C621	0.436330	0.403500	0.728000
C6221	C622	0.347190	0.489830	0.748910
C6231	C623	0.356200	0.483900	0.766620
C6241	C624	0.390800	0.446800	0.772130
C6251	C625	0.412800	0.417500	0.760770
C6261	C626	0.336100	0.524000	0.778900
C6271	C627	0.511700	0.282200	0.659590
C6281	C628	0.863000	0.358500	0.263850
C6291	C629	0.840540	0.334960	0.247490
C6301	C630	0.887300	0.332500	0.235810
C6311	C631	0.958700	0.357000	0.239880
C6321	C632	0.982600	0.382300	0.256570
C6331	C633	0.936000	0.383000	0.268950
C6341	C634	0.871100	0.302800	0.217500
C6351	C635	0.947600	0.338400	0.209080
C6361	C636	0.999100	0.346300	0.225710
C6371	C637	0.973000	0.408700	0.201310
C6381	C638	0.029400	0.413700	0.188230
C6391	C639	0.019500	0.349700	0.184810
C6401	C640	0.957400	0.293300	0.194450
C6411	C641	0.082400	0.477000	0.179990
C6421	C642	0.127300	0.471500	0.168780
C6431	C643	0.115600	0.402700	0.165170
C6441	C644	0.062500	0.340800	0.173390
C6451	C645	0.182700	0.535200	0.159490
C6461	C646	0.811490	0.357850	0.276690
C6471	C647	0.866400	0.556300	0.340100
C6481	C648	0.920500	0.547600	0.349790
C6491	C649	0.968500	0.604500	0.359100
C6501	C650	0.972400	0.670300	0.358200
C6511	C651	0.923100	0.680200	0.349300
C6521	C652	0.872700	0.623000	0.340090
C6531	C653	0.028900	0.609400	0.370860
C6541	C654	0.048500	0.677100	0.381390
C6551	C655	0.041600	0.727400	0.368590
C6561	C656	0.127200	0.710500	0.387710
C6571	C657	0.118000	0.679800	0.405800
C6581	C658	0.048700	0.651100	0.411310
C6591	C659	0.005000	0.660700	0.397240
C6601	C660	0.169200	0.680700	0.416880
C6611	C661	0.150500	0.654300	0.433630
C6621	C662	0.080800	0.625200	0.439170
C6631	C663	0.028700	0.621700	0.428870
C6641	C664	0.207900	0.659600	0.444740
C6651	C665	0.816300	0.500900	0.329710
C6661	C666	0.708800	0.171200	0.338810
C6671	C667	0.642300	0.118200	0.342860
C6681	C668	0.631500	0.068100	0.355060
C6691	C669	0.692800	0.064200	0.361710
C6701	C670	0.763100	0.119200	0.357070
C6711	C671	0.768500	0.171100	0.346110
C6721	C672	0.564800	0.010500	0.363480
C6731	C673	0.588300	0.989500	0.379090
C6741	C674	0.665600	0.002100	0.374150
C6751	C675	0.540100	0.913200	0.385280
C6761	C676	0.544400	0.915400	0.404470
C6771	C677	0.580100	0.983200	0.409100
C6781	C678	0.596500	0.032830	0.394670
C6791	C679	0.510170	0.857360	0.415580
C6801	C680	0.516100	0.872300	0.433290
C6811	C681	0.553200	0.944000	0.438800
C6821	C682	0.582500	0.995300	0.427440
C6831	C683	0.476000	0.812100	0.445570
C6841	C684	0.717800	0.229500	0.326260
O791	O79	0.349250	0.670940	0.472570
O801	O80	0.377080	0.543860	0.458500
O811	O81	0.336920	0.587090	0.437650
O821	O82	0.592700	0.410400	0.328230
O831	O83	0.527200	0.299370	0.317260
O841	O84	0.444470	0.620320	0.493550
O851	O85	0.504660	0.741360	0.490240
O861	O86	0.684470	0.414730	0.604700
O871	O87	0.642140	0.448630	0.627050
O881	O88	0.284620	0.508000	0.491960
O891	O89	0.214670	0.547470	0.483550
O901	O90	0.752450	0.318230	0.605750
O911	O91	0.825970	0.341790	0.628070
O921	O92	0.329060	0.678310	0.139240
O931	O93	0.456140	0.833220	0.125170
O941	O94	0.412910	0.749830	0.104320
O951	O95	0.589600	0.182300	0.994900
O961	O96	0.700630	0.227830	0.983930
O971	O97	0.379680	0.824150	0.160220
O981	O98	0.258640	0.763300	0.156910
O991	O99	0.585270	0.269740	0.271370
O1001	O100	0.551370	0.193510	0.293720
O1011	O101	0.492000	0.776620	0.158630
O1021	O102	0.452530	0.667200	0.150220
O1031	O103	0.681770	0.434220	0.272420
O1041	O104	0.658210	0.484180	0.294740
O1051	O105	0.321690	0.650750	0.805910
O1061	O106	0.166780	0.622920	0.791840
O1071	O107	0.250170	0.663080	0.770990
O1081	O108	0.817700	0.407300	0.661570
O1091	O109	0.772170	0.472800	0.650600
O1101	O110	0.175850	0.555530	0.826890
O1111	O111	0.236700	0.495340	0.823580
O1121	O112	0.730260	0.315530	0.938040
O1131	O113	0.806490	0.357860	0.960390
O1141	O114	0.223380	0.715380	0.825300
O1151	O115	0.332800	0.785330	0.816890
O1161	O116	0.565780	0.247550	0.939090
O1171	O117	0.515820	0.174030	0.961410
O1181	O118	0.650750	0.329060	0.972570
O1191	O119	0.622920	0.456140	0.958500
O1201	O120	0.663080	0.412910	0.937650
O1211	O121	0.407300	0.589600	0.828230
O1221	O122	0.472800	0.700630	0.817260
O1231	O123	0.555530	0.379680	0.993550
O1241	O124	0.495340	0.258640	0.990240
O1251	O125	0.315530	0.585270	0.104700
O1261	O126	0.357860	0.551370	0.127050
O1271	O127	0.715380	0.492000	0.991960
O1281	O128	0.785330	0.452530	0.983550
O1291	O129	0.247550	0.681770	0.105750
O1301	O130	0.174030	0.658210	0.128070
O1311	O131	0.670940	0.321690	0.639240
O1321	O132	0.543860	0.166780	0.625170
O1331	O133	0.587090	0.250170	0.604320
O1341	O134	0.410400	0.817700	0.494900
O1351	O135	0.299370	0.772170	0.483930
O1361	O136	0.620320	0.175850	0.660220
O1371	O137	0.741360	0.236700	0.656910
O1381	O138	0.414730	0.730260	0.771370
O1391	O139	0.448630	0.806490	0.793720
O1401	O140	0.508000	0.223380	0.658630
O1411	O141	0.547470	0.332800	0.650220
O1421	O142	0.318230	0.565780	0.772420
O1431	O143	0.341790	0.515820	0.794740
O1441	O144	0.678310	0.349250	0.305910
O1451	O145	0.833220	0.377080	0.291840
O1461	O146	0.749830	0.336920	0.270990
O1471	O147	0.182300	0.592700	0.161570
O1481	O148	0.227830	0.527200	0.150600
O1491	O149	0.824150	0.444470	0.326890
O1501	O150	0.763300	0.504660	0.323580
O1511	O151	0.269740	0.684470	0.438040
O1521	O152	0.193510	0.642140	0.460390
O1531	O153	0.776620	0.284620	0.325300
O1541	O154	0.667200	0.214670	0.316890
O1551	O155	0.434220	0.752450	0.439090
O1561	O156	0.484180	0.825970	0.461410
