data_RACZEC_clean_PM
_symmetry_space_group_name_H-M	'P1'
_cell_length_a	6.401800
_cell_length_b	8.990900
_cell_length_c	26.271000
_cell_angle_alpha	90.000000
_cell_angle_beta	90.000000
_cell_angle_gamma	90.000000
_symmetry_Int_Tables_number 1

loop_
_symmetry_equiv_pos_as_xyz
'x,y,z'

loop_
_atom_site_label
_atom_site_type_symbol
_atom_site_fract_x
_atom_site_fract_y
_atom_site_fract_z
Co11	Co1	0.000000	0.000000	0.714770
Co21	Co2	0.500000	0.000000	0.785230
Co31	Co3	0.000000	0.000000	0.285230
Co41	Co4	0.500000	0.000000	0.214770
H11	H1	0.754400	0.876700	0.626500
H21	H2	0.747900	0.872000	0.539400
H31	H3	0.254400	0.123300	0.873500
H41	H4	0.247900	0.128000	0.960600
H51	H5	0.745600	0.876700	0.873500
H61	H6	0.752100	0.872000	0.960600
H71	H7	0.245600	0.123300	0.626500
H81	H8	0.252100	0.128000	0.539400
H91	H9	0.245600	0.123300	0.373500
H101	H10	0.252100	0.128000	0.460600
H111	H11	0.745600	0.876700	0.126500
H121	H12	0.752100	0.872000	0.039400
H131	H13	0.254400	0.123300	0.126500
H141	H14	0.247900	0.128000	0.039400
H151	H15	0.754400	0.876700	0.373500
H161	H16	0.747900	0.872000	0.460600
C11	C1	0.756300	0.491600	0.794010
C21	C2	0.760500	0.337200	0.794100
C31	C3	0.857200	0.928100	0.608700
C41	C4	0.851900	0.925000	0.556100
C51	C5	0.256300	0.508400	0.705990
C61	C6	0.260500	0.662800	0.705900
C71	C7	0.357200	0.071900	0.891300
C81	C8	0.351900	0.075000	0.943900
C91	C9	0.743700	0.491600	0.705990
C101	C10	0.739500	0.337200	0.705900
C111	C11	0.642800	0.928100	0.891300
C121	C12	0.648100	0.925000	0.943900
C131	C13	0.243700	0.508400	0.794010
C141	C14	0.239500	0.662800	0.794100
C151	C15	0.142800	0.071900	0.608700
C161	C16	0.148100	0.075000	0.556100
C171	C17	0.243700	0.508400	0.205990
C181	C18	0.239500	0.662800	0.205900
C191	C19	0.142800	0.071900	0.391300
C201	C20	0.148100	0.075000	0.443900
C211	C21	0.743700	0.491600	0.294010
C221	C22	0.739500	0.337200	0.294100
C231	C23	0.642800	0.928100	0.108700
C241	C24	0.648100	0.925000	0.056100
C251	C25	0.256300	0.508400	0.294010
C261	C26	0.260500	0.662800	0.294100
C271	C27	0.357200	0.071900	0.108700
C281	C28	0.351900	0.075000	0.056100
C291	C29	0.756300	0.491600	0.205990
C301	C30	0.760500	0.337200	0.205900
C311	C31	0.857200	0.928100	0.391300
C321	C32	0.851900	0.925000	0.443900
C331	C33	0.000000	0.000000	0.528700
C341	C34	0.500000	0.000000	0.971300
C351	C35	0.000000	0.000000	0.471300
C361	C36	0.500000	0.000000	0.028700
C371	C37	0.750000	0.741700	0.750000
C381	C38	0.750000	0.573100	0.750000
C391	C39	0.750000	0.256000	0.750000
C401	C40	0.250000	0.258300	0.750000
C411	C41	0.250000	0.426900	0.750000
C421	C42	0.250000	0.744000	0.750000
C431	C43	0.250000	0.258300	0.250000
C441	C44	0.250000	0.426900	0.250000
C451	C45	0.250000	0.744000	0.250000
C461	C46	0.750000	0.741700	0.250000
C471	C47	0.750000	0.573100	0.250000
C481	C48	0.750000	0.256000	0.250000
N11	N1	0.000000	0.000000	0.635000
N21	N2	0.500000	0.000000	0.865000
N31	N3	0.000000	0.000000	0.365000
N41	N4	0.500000	0.000000	0.135000
O11	O1	0.836200	0.804200	0.713080
O21	O2	0.336200	0.195800	0.786920
O31	O3	0.663800	0.804200	0.786920
O41	O4	0.163800	0.195800	0.713080
O51	O5	0.163800	0.195800	0.286920
O61	O6	0.663800	0.804200	0.213080
O71	O7	0.336200	0.195800	0.213080
O81	O8	0.836200	0.804200	0.286920
O91	O9	0.750000	0.105100	0.750000
O101	O10	0.250000	0.894900	0.750000
O111	O11	0.250000	0.894900	0.250000
O121	O12	0.750000	0.105100	0.250000
F11	F1	0.766000	0.558800	0.840130
F21	F2	0.772800	0.265400	0.839230
F31	F3	0.266000	0.441200	0.659870
F41	F4	0.272800	0.734600	0.660770
F51	F5	0.734000	0.558800	0.659870
F61	F6	0.727200	0.265400	0.660770
F71	F7	0.234000	0.441200	0.840130
F81	F8	0.227200	0.734600	0.839230
F91	F9	0.234000	0.441200	0.159870
F101	F10	0.227200	0.734600	0.160770
F111	F11	0.734000	0.558800	0.340130
F121	F12	0.727200	0.265400	0.339230
F131	F13	0.266000	0.441200	0.340130
F141	F14	0.272800	0.734600	0.339230
F151	F15	0.766000	0.558800	0.159870
F161	F16	0.772800	0.265400	0.160770
