data_RAGYAB_clean_PM
_symmetry_space_group_name_H-M	'P1'
_cell_length_a	8.503300
_cell_length_b	8.503300
_cell_length_c	30.939300
_cell_angle_alpha	90.000000
_cell_angle_beta	90.000000
_cell_angle_gamma	90.000000
_symmetry_Int_Tables_number 1

loop_
_symmetry_equiv_pos_as_xyz
'x,y,z'

loop_
_atom_site_label
_atom_site_type_symbol
_atom_site_fract_x
_atom_site_fract_y
_atom_site_fract_z
Ba11	Ba1	0.497610	0.496140	0.577780
Ba21	Ba2	0.502390	0.503860	0.077780
Ba31	Ba3	0.503860	0.497610	0.327780
Ba41	Ba4	0.496140	0.502390	0.827780
Ge11	Ge1	0.001360	0.996810	0.498400
Ge21	Ge2	0.999730	0.000390	0.650070
Ge31	Ge3	0.998640	0.003190	0.998400
Ge41	Ge4	0.000270	0.999610	0.150070
Ge51	Ge5	0.003190	0.001360	0.248400
Ge61	Ge6	0.999610	0.999730	0.400070
Ge71	Ge7	0.996810	0.998640	0.748400
Ge81	Ge8	0.000390	0.000270	0.900070
H11	H1	0.068500	0.357100	0.607100
H21	H2	0.936000	0.355600	0.541300
H31	H3	0.925900	0.644800	0.607700
H41	H4	0.060300	0.636900	0.542400
H51	H5	0.191200	0.099300	0.701300
H61	H6	0.816200	0.904000	0.699600
H71	H7	0.636200	0.524600	0.678000
H81	H8	0.931500	0.642900	0.107100
H91	H9	0.064000	0.644400	0.041300
H101	H10	0.074100	0.355200	0.107700
H111	H11	0.939700	0.363100	0.042400
H121	H12	0.808800	0.900700	0.201300
H131	H13	0.183800	0.096000	0.199600
H141	H14	0.363800	0.475400	0.178000
H151	H15	0.642900	0.068500	0.357100
H161	H16	0.644400	0.936000	0.291300
H171	H17	0.355200	0.925900	0.357700
H181	H18	0.363100	0.060300	0.292400
H191	H19	0.900700	0.191200	0.451300
H201	H20	0.096000	0.816200	0.449600
H211	H21	0.475400	0.636200	0.428000
H221	H22	0.357100	0.931500	0.857100
H231	H23	0.355600	0.064000	0.791300
H241	H24	0.644800	0.074100	0.857700
H251	H25	0.636900	0.939700	0.792400
H261	H26	0.099300	0.808800	0.951300
H271	H27	0.904000	0.183800	0.949600
H281	H28	0.524600	0.363800	0.928000
C11	C1	0.852600	0.257100	0.620150
C21	C2	0.014700	0.259700	0.598820
C31	C3	0.992100	0.259300	0.549410
C41	C4	0.151600	0.259500	0.526820
C51	C5	0.143600	0.738300	0.621090
C61	C6	0.983400	0.739600	0.598990
C71	C7	0.007100	0.735200	0.550010
C81	C8	0.847500	0.738300	0.528090
C91	C9	0.147400	0.742900	0.120150
C101	C10	0.985300	0.740300	0.098820
C111	C11	0.007900	0.740700	0.049410
C121	C12	0.848400	0.740500	0.026820
C131	C13	0.856400	0.261700	0.121090
C141	C14	0.016600	0.260400	0.098990
C151	C15	0.992900	0.264800	0.050010
C161	C16	0.152500	0.261700	0.028090
C171	C17	0.742900	0.852600	0.370150
C181	C18	0.740300	0.014700	0.348820
C191	C19	0.740700	0.992100	0.299410
C201	C20	0.740500	0.151600	0.276820
C211	C21	0.261700	0.143600	0.371090
C221	C22	0.260400	0.983400	0.348990
C231	C23	0.264800	0.007100	0.300010
C241	C24	0.261700	0.847500	0.278090
C251	C25	0.257100	0.147400	0.870150
C261	C26	0.259700	0.985300	0.848820
C271	C27	0.259300	0.007900	0.799410
C281	C28	0.259500	0.848400	0.776820
C291	C29	0.738300	0.856400	0.871090
C301	C30	0.739600	0.016600	0.848990
C311	C31	0.735200	0.992900	0.800010
C321	C32	0.738300	0.152500	0.778090
O11	O1	0.831400	0.146100	0.647650
O21	O2	0.756100	0.357300	0.611190
O31	O3	0.105800	0.131400	0.612610
O41	O4	0.902400	0.130000	0.535990
O51	O5	0.173500	0.141200	0.500850
O61	O6	0.246900	0.363400	0.532260
O71	O7	0.168600	0.853700	0.647640
O81	O8	0.238100	0.633700	0.614620
O91	O9	0.896000	0.872200	0.611910
O101	O10	0.100500	0.863100	0.535630
O111	O11	0.828900	0.854000	0.500300
O121	O12	0.746700	0.639900	0.535110
O131	O13	0.093700	0.096600	0.699780
O141	O14	0.903200	0.900800	0.699190
O151	O15	0.548800	0.552800	0.665860
O161	O16	0.168600	0.853900	0.147650
O171	O17	0.243900	0.642700	0.111190
O181	O18	0.894200	0.868600	0.112610
O191	O19	0.097600	0.870000	0.035990
O201	O20	0.826500	0.858800	0.000850
O211	O21	0.753100	0.636600	0.032260
O221	O22	0.831400	0.146300	0.147640
O231	O23	0.761900	0.366300	0.114620
O241	O24	0.104000	0.127800	0.111910
O251	O25	0.899500	0.136900	0.035630
O261	O26	0.171100	0.146000	0.000300
O271	O27	0.253300	0.360100	0.035110
O281	O28	0.906300	0.903400	0.199780
O291	O29	0.096800	0.099200	0.199190
O301	O30	0.451200	0.447200	0.165860
O311	O31	0.853900	0.831400	0.397650
O321	O32	0.642700	0.756100	0.361190
O331	O33	0.868600	0.105800	0.362610
O341	O34	0.870000	0.902400	0.285990
O351	O35	0.858800	0.173500	0.250850
O361	O36	0.636600	0.246900	0.282260
O371	O37	0.146300	0.168600	0.397640
O381	O38	0.366300	0.238100	0.364620
O391	O39	0.127800	0.896000	0.361910
O401	O40	0.136900	0.100500	0.285630
O411	O41	0.146000	0.828900	0.250300
O421	O42	0.360100	0.746700	0.285110
O431	O43	0.903400	0.093700	0.449780
O441	O44	0.099200	0.903200	0.449190
O451	O45	0.447200	0.548800	0.415860
O461	O46	0.146100	0.168600	0.897650
O471	O47	0.357300	0.243900	0.861190
O481	O48	0.131400	0.894200	0.862610
O491	O49	0.130000	0.097600	0.785990
O501	O50	0.141200	0.826500	0.750850
O511	O51	0.363400	0.753100	0.782260
O521	O52	0.853700	0.831400	0.897640
O531	O53	0.633700	0.761900	0.864620
O541	O54	0.872200	0.104000	0.861910
O551	O55	0.863100	0.899500	0.785630
O561	O56	0.854000	0.171100	0.750300
O571	O57	0.639900	0.253300	0.785110
O581	O58	0.096600	0.906300	0.949780
O591	O59	0.900800	0.096800	0.949190
O601	O60	0.552800	0.451200	0.915860
