data_RAHBUZ_clean_PM
_symmetry_space_group_name_H-M	'P1'
_cell_length_a	10.120900
_cell_length_b	13.975300
_cell_length_c	18.009100
_cell_angle_alpha	90.000000
_cell_angle_beta	90.000000
_cell_angle_gamma	90.000000
_symmetry_Int_Tables_number 1

loop_
_symmetry_equiv_pos_as_xyz
'x,y,z'

loop_
_atom_site_label
_atom_site_type_symbol
_atom_site_fract_x
_atom_site_fract_y
_atom_site_fract_z
Zn11	Zn1	0.555200	0.476480	0.587430
Zn21	Zn2	0.760200	0.635900	0.659090
Zn31	Zn3	0.944800	0.523520	0.087430
Zn41	Zn4	0.739800	0.364100	0.159090
Zn51	Zn5	0.444800	0.976480	0.912570
Zn61	Zn6	0.239800	0.135900	0.840910
Zn71	Zn7	0.055200	0.023520	0.412570
Zn81	Zn8	0.260200	0.864100	0.340910
H11	H1	0.390700	0.774200	0.760300
H21	H2	0.465700	0.842400	0.702500
H31	H3	0.234100	0.646100	0.712600
H41	H4	0.211800	0.634900	0.624800
H51	H5	0.333000	0.742600	0.534400
H61	H6	0.431800	0.823200	0.565000
H71	H7	0.063400	0.871600	0.733400
H81	H8	0.142900	0.792100	0.779500
H91	H9	0.181900	0.978700	0.644800
H101	H10	0.338500	0.969700	0.633200
H111	H11	0.085200	0.760100	0.553900
H121	H12	0.028900	0.852500	0.596200
H131	H13	0.109300	0.225800	0.260300
H141	H14	0.034300	0.157600	0.202500
H151	H15	0.265900	0.353900	0.212600
H161	H16	0.288200	0.365100	0.124800
H171	H17	0.167000	0.257400	0.034400
H181	H18	0.068200	0.176800	0.065000
H191	H19	0.436600	0.128400	0.233400
H201	H20	0.357100	0.207900	0.279500
H211	H21	0.318100	0.021300	0.144800
H221	H22	0.161500	0.030300	0.133200
H231	H23	0.414800	0.239900	0.053900
H241	H24	0.471100	0.147500	0.096200
H251	H25	0.609300	0.274200	0.739700
H261	H26	0.534300	0.342400	0.797500
H271	H27	0.765900	0.146100	0.787400
H281	H28	0.788200	0.134900	0.875200
H291	H29	0.667000	0.242600	0.965600
H301	H30	0.568200	0.323200	0.935000
H311	H31	0.936600	0.371600	0.766600
H321	H32	0.857100	0.292100	0.720500
H331	H33	0.818100	0.478700	0.855200
H341	H34	0.661500	0.469700	0.866800
H351	H35	0.914800	0.260100	0.946100
H361	H36	0.971100	0.352500	0.903800
H371	H37	0.890700	0.725800	0.239700
H381	H38	0.965700	0.657600	0.297500
H391	H39	0.734100	0.853900	0.287400
H401	H40	0.711800	0.865100	0.375200
H411	H41	0.833000	0.757400	0.465600
H421	H42	0.931800	0.676800	0.435000
H431	H43	0.563400	0.628400	0.266600
H441	H44	0.642900	0.707900	0.220500
H451	H45	0.681900	0.521300	0.355200
H461	H46	0.838500	0.530300	0.366800
H471	H47	0.585200	0.739900	0.446100
H481	H48	0.528900	0.647500	0.403800
C11	C1	0.472300	0.665600	0.644400
C21	C2	0.293800	0.950500	0.778400
C31	C3	0.981400	0.700500	0.677300
C41	C4	0.214500	0.911400	0.503800
C51	C5	0.357800	0.735000	0.650600
C61	C6	0.268000	0.879600	0.716300
C71	C7	0.113300	0.752900	0.668800
C81	C8	0.233700	0.860300	0.578300
C91	C9	0.382100	0.807800	0.712200
C101	C10	0.227900	0.681600	0.665100
C111	C11	0.348000	0.788900	0.575100
C121	C12	0.137700	0.825600	0.731100
C131	C13	0.256600	0.933000	0.642500
C141	C14	0.103100	0.806400	0.594300
C151	C15	0.027700	0.334400	0.144400
C161	C16	0.206200	0.049500	0.278400
C171	C17	0.518600	0.299500	0.177300
C181	C18	0.285500	0.088600	0.003800
C191	C19	0.142200	0.265000	0.150600
C201	C20	0.232000	0.120400	0.216300
C211	C21	0.386700	0.247100	0.168800
C221	C22	0.266300	0.139700	0.078300
C231	C23	0.117900	0.192200	0.212200
C241	C24	0.272100	0.318400	0.165100
C251	C25	0.152000	0.211100	0.075100
C261	C26	0.362300	0.174400	0.231100
C271	C27	0.243400	0.067000	0.142500
C281	C28	0.396900	0.193600	0.094300
C291	C29	0.527700	0.165600	0.855600
C301	C30	0.706200	0.450500	0.721600
C311	C31	0.018600	0.200500	0.822700
C321	C32	0.785500	0.411400	0.996200
C331	C33	0.642200	0.235000	0.849400
C341	C34	0.732000	0.379600	0.783700
C351	C35	0.886700	0.252900	0.831200
C361	C36	0.766300	0.360300	0.921700
C371	C37	0.617900	0.307800	0.787800
C381	C38	0.772100	0.181600	0.834900
C391	C39	0.652000	0.288900	0.924900
C401	C40	0.862300	0.325600	0.768900
C411	C41	0.743400	0.433000	0.857500
C421	C42	0.896900	0.306400	0.905700
C431	C43	0.972300	0.834400	0.355600
C441	C44	0.793800	0.549500	0.221600
C451	C45	0.481400	0.799500	0.322700
C461	C46	0.714500	0.588600	0.496200
C471	C47	0.857800	0.765000	0.349400
C481	C48	0.768000	0.620400	0.283700
C491	C49	0.613300	0.747100	0.331200
C501	C50	0.733700	0.639700	0.421700
C511	C51	0.882100	0.692200	0.287800
C521	C52	0.727900	0.818400	0.334900
C531	C53	0.848000	0.711100	0.424900
C541	C54	0.637700	0.674400	0.268900
C551	C55	0.756600	0.567000	0.357500
C561	C56	0.603100	0.693600	0.405700
O11	O1	0.449100	0.581800	0.625100
O21	O2	0.586000	0.699800	0.658200
O31	O3	0.336900	0.915100	0.838800
O41	O4	0.270800	0.035900	0.767600
O51	O5	0.877200	0.748300	0.686700
O61	O6	0.977000	0.611700	0.669200
O71	O7	0.133800	0.979300	0.503500
O81	O8	0.274600	0.881100	0.449300
O91	O9	0.050900	0.418200	0.125100
O101	O10	0.914000	0.300200	0.158200
O111	O11	0.163100	0.084900	0.338800
O121	O12	0.229200	0.964100	0.267600
O131	O13	0.622800	0.251700	0.186700
O141	O14	0.523000	0.388300	0.169200
O151	O15	0.366200	0.020700	0.003500
O161	O16	0.225400	0.118900	0.949300
O171	O17	0.550900	0.081800	0.874900
O181	O18	0.414000	0.199800	0.841800
O191	O19	0.663100	0.415100	0.661200
O201	O20	0.729200	0.535900	0.732400
O211	O21	0.122800	0.248300	0.813300
O221	O22	0.023000	0.111700	0.830800
O231	O23	0.866200	0.479300	0.996500
O241	O24	0.725400	0.381100	0.050700
O251	O25	0.949100	0.918200	0.374900
O261	O26	0.086000	0.800200	0.341800
O271	O27	0.836900	0.584900	0.161200
O281	O28	0.770800	0.464100	0.232400
O291	O29	0.377200	0.751700	0.313300
O301	O30	0.477000	0.888300	0.330800
O311	O31	0.633800	0.520700	0.496500
O321	O32	0.774600	0.618900	0.550700
