data_RAHNOF_clean_PM
_symmetry_space_group_name_H-M	'P1'
_cell_length_a	30.200500
_cell_length_b	30.200500
_cell_length_c	30.200500
_cell_angle_alpha	60.000000
_cell_angle_beta	60.000000
_cell_angle_gamma	60.000000
_symmetry_Int_Tables_number 1

loop_
_symmetry_equiv_pos_as_xyz
'x,y,z'

loop_
_atom_site_label
_atom_site_type_symbol
_atom_site_fract_x
_atom_site_fract_y
_atom_site_fract_z
Cu11	Cu1	0.000000	0.262540	0.000000
Cu21	Cu2	0.000000	0.350080	0.000000
Cu31	Cu3	0.262540	0.000000	0.737460
Cu41	Cu4	0.350080	0.000000	0.649920
Cu51	Cu5	0.000000	0.737460	0.000000
Cu61	Cu6	0.000000	0.649920	0.000000
Cu71	Cu7	0.737460	0.000000	0.262540
Cu81	Cu8	0.649920	0.000000	0.350080
Cu91	Cu9	0.000000	0.000000	0.737460
Cu101	Cu10	0.000000	0.000000	0.649920
Cu111	Cu11	0.262540	0.737460	0.000000
Cu121	Cu12	0.350080	0.649920	0.000000
Cu131	Cu13	0.000000	0.000000	0.262540
Cu141	Cu14	0.000000	0.000000	0.350080
Cu151	Cu15	0.737460	0.262540	0.000000
Cu161	Cu16	0.649920	0.350080	0.000000
Cu171	Cu17	0.000000	0.737460	0.262540
Cu181	Cu18	0.000000	0.649920	0.350080
Cu191	Cu19	0.262540	0.000000	0.000000
Cu201	Cu20	0.350080	0.000000	0.000000
Cu211	Cu21	0.000000	0.262540	0.737460
Cu221	Cu22	0.000000	0.350080	0.649920
Cu231	Cu23	0.737460	0.000000	0.000000
Cu241	Cu24	0.649920	0.000000	0.000000
H11	H1	0.168900	0.303100	0.969700
H21	H2	0.387500	0.234300	0.939100
H31	H3	0.303100	0.168900	0.558300
H41	H4	0.234300	0.387500	0.439100
H51	H5	0.969700	0.558300	0.168900
H61	H6	0.939100	0.439100	0.387500
H71	H7	0.558300	0.969700	0.303100
H81	H8	0.439100	0.939100	0.234300
H91	H9	0.168900	0.969700	0.558300
H101	H10	0.387500	0.939100	0.439100
H111	H11	0.303100	0.558300	0.969700
H121	H12	0.234300	0.439100	0.939100
H131	H13	0.969700	0.168900	0.303100
H141	H14	0.939100	0.387500	0.234300
H151	H15	0.558300	0.303100	0.168900
H161	H16	0.439100	0.234300	0.387500
H171	H17	0.168900	0.558300	0.303100
H181	H18	0.387500	0.439100	0.234300
H191	H19	0.303100	0.969700	0.168900
H201	H20	0.234300	0.939100	0.387500
H211	H21	0.969700	0.303100	0.558300
H221	H22	0.939100	0.234300	0.439100
H231	H23	0.558300	0.168900	0.969700
H241	H24	0.439100	0.387500	0.939100
H251	H25	0.696900	0.831100	0.030300
H261	H26	0.765700	0.612500	0.060900
H271	H27	0.831100	0.696900	0.441700
H281	H28	0.612500	0.765700	0.560900
H291	H29	0.441700	0.030300	0.831100
H301	H30	0.560900	0.060900	0.612500
H311	H31	0.030300	0.441700	0.696900
H321	H32	0.060900	0.560900	0.765700
H331	H33	0.030300	0.831100	0.441700
H341	H34	0.060900	0.612500	0.560900
H351	H35	0.441700	0.696900	0.030300
H361	H36	0.560900	0.765700	0.060900
H371	H37	0.831100	0.030300	0.696900
H381	H38	0.612500	0.060900	0.765700
H391	H39	0.696900	0.441700	0.831100
H401	H40	0.765700	0.560900	0.612500
H411	H41	0.441700	0.831100	0.696900
H421	H42	0.560900	0.612500	0.765700
H431	H43	0.030300	0.696900	0.831100
H441	H44	0.060900	0.765700	0.612500
H451	H45	0.696900	0.030300	0.441700
H461	H46	0.765700	0.060900	0.560900
H471	H47	0.831100	0.441700	0.030300
H481	H48	0.612500	0.560900	0.060900
H491	H49	0.831100	0.696900	0.030300
H501	H50	0.612500	0.765700	0.060900
H511	H51	0.696900	0.831100	0.441700
H521	H52	0.765700	0.612500	0.560900
H531	H53	0.030300	0.441700	0.831100
H541	H54	0.060900	0.560900	0.612500
H551	H55	0.441700	0.030300	0.696900
H561	H56	0.560900	0.060900	0.765700
H571	H57	0.831100	0.030300	0.441700
H581	H58	0.612500	0.060900	0.560900
H591	H59	0.696900	0.441700	0.030300
H601	H60	0.765700	0.560900	0.060900
H611	H61	0.030300	0.831100	0.696900
H621	H62	0.060900	0.612500	0.765700
H631	H63	0.441700	0.696900	0.831100
H641	H64	0.560900	0.765700	0.612500
H651	H65	0.831100	0.441700	0.696900
H661	H66	0.612500	0.560900	0.765700
H671	H67	0.696900	0.030300	0.831100
H681	H68	0.765700	0.060900	0.612500
H691	H69	0.030300	0.696900	0.441700
H701	H70	0.060900	0.765700	0.560900
H711	H71	0.441700	0.831100	0.030300
H721	H72	0.560900	0.612500	0.060900
H731	H73	0.303100	0.168900	0.969700
H741	H74	0.234300	0.387500	0.939100
H751	H75	0.168900	0.303100	0.558300
H761	H76	0.387500	0.234300	0.439100
H771	H77	0.558300	0.969700	0.168900
H781	H78	0.439100	0.939100	0.387500
H791	H79	0.969700	0.558300	0.303100
H801	H80	0.939100	0.439100	0.234300
H811	H81	0.969700	0.168900	0.558300
H821	H82	0.939100	0.387500	0.439100
H831	H83	0.558300	0.303100	0.969700
H841	H84	0.439100	0.234300	0.939100
H851	H85	0.168900	0.969700	0.303100
H861	H86	0.387500	0.939100	0.234300
H871	H87	0.303100	0.558300	0.168900
H881	H88	0.234300	0.439100	0.387500
H891	H89	0.558300	0.168900	0.303100
H901	H90	0.439100	0.387500	0.234300
H911	H91	0.969700	0.303100	0.168900
H921	H92	0.939100	0.234300	0.387500
H931	H93	0.303100	0.969700	0.558300
H941	H94	0.234300	0.939100	0.439100
H951	H95	0.168900	0.558300	0.969700
H961	H96	0.387500	0.439100	0.939100
H971	H97	0.165400	0.165400	0.983400
H981	H98	0.165400	0.165400	0.685800
H991	H99	0.983400	0.685800	0.165400
H1001	H100	0.685800	0.983400	0.165400
H1011	H101	0.165400	0.983400	0.685800
H1021	H102	0.165400	0.685800	0.983400
H1031	H103	0.983400	0.165400	0.165400
H1041	H104	0.685800	0.165400	0.165400
H1051	H105	0.165400	0.685800	0.165400
H1061	H106	0.165400	0.983400	0.165400
H1071	H107	0.983400	0.165400	0.685800
H1081	H108	0.685800	0.165400	0.983400
H1091	H109	0.834600	0.834600	0.016600
H1101	H110	0.834600	0.834600	0.314200
H1111	H111	0.314200	0.016600	0.834600
H1121	H112	0.016600	0.314200	0.834600
H1131	H113	0.016600	0.834600	0.314200
H1141	H114	0.314200	0.834600	0.016600
H1151	H115	0.834600	0.016600	0.834600
H1161	H116	0.834600	0.314200	0.834600
H1171	H117	0.314200	0.834600	0.834600
H1181	H118	0.016600	0.834600	0.834600
H1191	H119	0.834600	0.016600	0.314200
H1201	H120	0.834600	0.314200	0.016600
C11	C1	0.101090	0.264290	0.982950
C21	C2	0.158440	0.237600	0.977420
C31	C3	0.186650	0.266550	0.970450
C41	C4	0.264290	0.101090	0.651670
C51	C5	0.237600	0.158440	0.626540
C61	C6	0.266550	0.186650	0.576350
C71	C7	0.982950	0.651670	0.101090
C81	C8	0.977420	0.626540	0.158440
C91	C9	0.970450	0.576350	0.186650
C101	C10	0.651670	0.982950	0.264290
C111	C11	0.626540	0.977420	0.237600
C121	C12	0.576350	0.970450	0.266550
C131	C13	0.101090	0.982950	0.651670
C141	C14	0.158440	0.977420	0.626540
C151	C15	0.186650	0.970450	0.576350
C161	C16	0.264290	0.651670	0.982950
C171	C17	0.237600	0.626540	0.977420
C181	C18	0.266550	0.576350	0.970450
C191	C19	0.982950	0.101090	0.264290
C201	C20	0.977420	0.158440	0.237600
C211	C21	0.970450	0.186650	0.266550
C221	C22	0.651670	0.264290	0.101090
C231	C23	0.626540	0.237600	0.158440
C241	C24	0.576350	0.266550	0.186650
C251	C25	0.101090	0.651670	0.264290
C261	C26	0.158440	0.626540	0.237600
C271	C27	0.186650	0.576350	0.266550
C281	C28	0.264290	0.982950	0.101090
C291	C29	0.237600	0.977420	0.158440
C301	C30	0.266550	0.970450	0.186650
C311	C31	0.982950	0.264290	0.651670
C321	C32	0.977420	0.237600	0.626540
C331	C33	0.970450	0.266550	0.576350
C341	C34	0.651670	0.101090	0.982950
C351	C35	0.626540	0.158440	0.977420
C361	C36	0.576350	0.186650	0.970450
C371	C37	0.735710	0.898910	0.017050
C381	C38	0.762400	0.841560	0.022580
C391	C39	0.733450	0.813350	0.029550
C401	C40	0.898910	0.735710	0.348330
C411	C41	0.841560	0.762400	0.373460
C421	C42	0.813350	0.733450	0.423650
C431	C43	0.348330	0.017050	0.898910
C441	C44	0.373460	0.022580	0.841560
C451	C45	0.423650	0.029550	0.813350
C461	C46	0.017050	0.348330	0.735710
C471	C47	0.022580	0.373460	0.762400
C481	C48	0.029550	0.423650	0.733450
C491	C49	0.017050	0.898910	0.348330
C501	C50	0.022580	0.841560	0.373460
C511	C51	0.029550	0.813350	0.423650
C521	C52	0.348330	0.735710	0.017050
C531	C53	0.373460	0.762400	0.022580
C541	C54	0.423650	0.733450	0.029550
C551	C55	0.898910	0.017050	0.735710
C561	C56	0.841560	0.022580	0.762400
C571	C57	0.813350	0.029550	0.733450
C581	C58	0.735710	0.348330	0.898910
C591	C59	0.762400	0.373460	0.841560
C601	C60	0.733450	0.423650	0.813350
C611	C61	0.348330	0.898910	0.735710
C621	C62	0.373460	0.841560	0.762400
C631	C63	0.423650	0.813350	0.733450
C641	C64	0.017050	0.735710	0.898910
C651	C65	0.022580	0.762400	0.841560
C661	C66	0.029550	0.733450	0.813350
C671	C67	0.735710	0.017050	0.348330
C681	C68	0.762400	0.022580	0.373460
C691	C69	0.733450	0.029550	0.423650
C701	C70	0.898910	0.348330	0.017050
C711	C71	0.841560	0.373460	0.022580
C721	C72	0.813350	0.423650	0.029550
C731	C73	0.898910	0.735710	0.017050
C741	C74	0.841560	0.762400	0.022580
C751	C75	0.813350	0.733450	0.029550
C761	C76	0.735710	0.898910	0.348330
C771	C77	0.762400	0.841560	0.373460
C781	C78	0.733450	0.813350	0.423650
C791	C79	0.017050	0.348330	0.898910
C801	C80	0.022580	0.373460	0.841560
C811	C81	0.029550	0.423650	0.813350
C821	C82	0.348330	0.017050	0.735710
C831	C83	0.373460	0.022580	0.762400
C841	C84	0.423650	0.029550	0.733450
C851	C85	0.898910	0.017050	0.348330
C861	C86	0.841560	0.022580	0.373460
C871	C87	0.813350	0.029550	0.423650
C881	C88	0.735710	0.348330	0.017050
C891	C89	0.762400	0.373460	0.022580
C901	C90	0.733450	0.423650	0.029550
C911	C91	0.017050	0.898910	0.735710
C921	C92	0.022580	0.841560	0.762400
C931	C93	0.029550	0.813350	0.733450
C941	C94	0.348330	0.735710	0.898910
C951	C95	0.373460	0.762400	0.841560
C961	C96	0.423650	0.733450	0.813350
C971	C97	0.898910	0.348330	0.735710
C981	C98	0.841560	0.373460	0.762400
C991	C99	0.813350	0.423650	0.733450
C1001	C100	0.735710	0.017050	0.898910
C1011	C101	0.762400	0.022580	0.841560
C1021	C102	0.733450	0.029550	0.813350
C1031	C103	0.017050	0.735710	0.348330
C1041	C104	0.022580	0.762400	0.373460
C1051	C105	0.029550	0.733450	0.423650
C1061	C106	0.348330	0.898910	0.017050
C1071	C107	0.373460	0.841560	0.022580
C1081	C108	0.423650	0.813350	0.029550
C1091	C109	0.264290	0.101090	0.982950
C1101	C110	0.237600	0.158440	0.977420
C1111	C111	0.266550	0.186650	0.970450
C1121	C112	0.101090	0.264290	0.651670
C1131	C113	0.158440	0.237600	0.626540
C1141	C114	0.186650	0.266550	0.576350
C1151	C115	0.651670	0.982950	0.101090
C1161	C116	0.626540	0.977420	0.158440
C1171	C117	0.576350	0.970450	0.186650
C1181	C118	0.982950	0.651670	0.264290
C1191	C119	0.977420	0.626540	0.237600
C1201	C120	0.970450	0.576350	0.266550
C1211	C121	0.982950	0.101090	0.651670
C1221	C122	0.977420	0.158440	0.626540
C1231	C123	0.970450	0.186650	0.576350
C1241	C124	0.651670	0.264290	0.982950
C1251	C125	0.626540	0.237600	0.977420
C1261	C126	0.576350	0.266550	0.970450
C1271	C127	0.101090	0.982950	0.264290
C1281	C128	0.158440	0.977420	0.237600
C1291	C129	0.186650	0.970450	0.266550
C1301	C130	0.264290	0.651670	0.101090
C1311	C131	0.237600	0.626540	0.158440
C1321	C132	0.266550	0.576350	0.186650
C1331	C133	0.651670	0.101090	0.264290
C1341	C134	0.626540	0.158440	0.237600
C1351	C135	0.576350	0.186650	0.266550
C1361	C136	0.982950	0.264290	0.101090
C1371	C137	0.977420	0.237600	0.158440
C1381	C138	0.970450	0.266550	0.186650
C1391	C139	0.264290	0.982950	0.651670
C1401	C140	0.237600	0.977420	0.626540
C1411	C141	0.266550	0.970450	0.576350
C1421	C142	0.101090	0.651670	0.982950
C1431	C143	0.158440	0.626540	0.977420
C1441	C144	0.186650	0.576350	0.970450
C1451	C145	0.184700	0.184700	0.979840
C1461	C146	0.241100	0.241100	0.964900
C1471	C147	0.271400	0.271400	0.956000
C1481	C148	0.295100	0.295100	0.951900
C1491	C149	0.321900	0.321900	0.953700
C1501	C150	0.184700	0.184700	0.650760
C1511	C151	0.241100	0.241100	0.552900
C1521	C152	0.271400	0.271400	0.501200
C1531	C153	0.295100	0.295100	0.457900
C1541	C154	0.321900	0.321900	0.402500
C1551	C155	0.979840	0.650760	0.184700
C1561	C156	0.964900	0.552900	0.241100
C1571	C157	0.956000	0.501200	0.271400
C1581	C158	0.951900	0.457900	0.295100
C1591	C159	0.953700	0.402500	0.321900
C1601	C160	0.650760	0.979840	0.184700
C1611	C161	0.552900	0.964900	0.241100
C1621	C162	0.501200	0.956000	0.271400
C1631	C163	0.457900	0.951900	0.295100
C1641	C164	0.402500	0.953700	0.321900
C1651	C165	0.184700	0.979840	0.650760
C1661	C166	0.241100	0.964900	0.552900
C1671	C167	0.271400	0.956000	0.501200
C1681	C168	0.295100	0.951900	0.457900
C1691	C169	0.321900	0.953700	0.402500
C1701	C170	0.184700	0.650760	0.979840
C1711	C171	0.241100	0.552900	0.964900
C1721	C172	0.271400	0.501200	0.956000
C1731	C173	0.295100	0.457900	0.951900
C1741	C174	0.321900	0.402500	0.953700
C1751	C175	0.979840	0.184700	0.184700
C1761	C176	0.964900	0.241100	0.241100
C1771	C177	0.956000	0.271400	0.271400
C1781	C178	0.951900	0.295100	0.295100
C1791	C179	0.953700	0.321900	0.321900
C1801	C180	0.650760	0.184700	0.184700
C1811	C181	0.552900	0.241100	0.241100
C1821	C182	0.501200	0.271400	0.271400
C1831	C183	0.457900	0.295100	0.295100
C1841	C184	0.402500	0.321900	0.321900
C1851	C185	0.184700	0.650760	0.184700
C1861	C186	0.241100	0.552900	0.241100
C1871	C187	0.271400	0.501200	0.271400
C1881	C188	0.295100	0.457900	0.295100
C1891	C189	0.321900	0.402500	0.321900
C1901	C190	0.184700	0.979840	0.184700
C1911	C191	0.241100	0.964900	0.241100
C1921	C192	0.271400	0.956000	0.271400
C1931	C193	0.295100	0.951900	0.295100
C1941	C194	0.321900	0.953700	0.321900
C1951	C195	0.979840	0.184700	0.650760
C1961	C196	0.964900	0.241100	0.552900
C1971	C197	0.956000	0.271400	0.501200
C1981	C198	0.951900	0.295100	0.457900
C1991	C199	0.953700	0.321900	0.402500
C2001	C200	0.650760	0.184700	0.979840
C2011	C201	0.552900	0.241100	0.964900
C2021	C202	0.501200	0.271400	0.956000
C2031	C203	0.457900	0.295100	0.951900
C2041	C204	0.402500	0.321900	0.953700
C2051	C205	0.815300	0.815300	0.020160
C2061	C206	0.758900	0.758900	0.035100
C2071	C207	0.728600	0.728600	0.044000
C2081	C208	0.704900	0.704900	0.048100
C2091	C209	0.678100	0.678100	0.046300
C2101	C210	0.815300	0.815300	0.349240
C2111	C211	0.758900	0.758900	0.447100
C2121	C212	0.728600	0.728600	0.498800
C2131	C213	0.704900	0.704900	0.542100
C2141	C214	0.678100	0.678100	0.597500
C2151	C215	0.349240	0.020160	0.815300
C2161	C216	0.447100	0.035100	0.758900
C2171	C217	0.498800	0.044000	0.728600
C2181	C218	0.542100	0.048100	0.704900
C2191	C219	0.597500	0.046300	0.678100
C2201	C220	0.020160	0.349240	0.815300
C2211	C221	0.035100	0.447100	0.758900
C2221	C222	0.044000	0.498800	0.728600
C2231	C223	0.048100	0.542100	0.704900
C2241	C224	0.046300	0.597500	0.678100
C2251	C225	0.020160	0.815300	0.349240
C2261	C226	0.035100	0.758900	0.447100
C2271	C227	0.044000	0.728600	0.498800
C2281	C228	0.048100	0.704900	0.542100
C2291	C229	0.046300	0.678100	0.597500
C2301	C230	0.349240	0.815300	0.020160
C2311	C231	0.447100	0.758900	0.035100
C2321	C232	0.498800	0.728600	0.044000
C2331	C233	0.542100	0.704900	0.048100
C2341	C234	0.597500	0.678100	0.046300
C2351	C235	0.815300	0.020160	0.815300
C2361	C236	0.758900	0.035100	0.758900
C2371	C237	0.728600	0.044000	0.728600
C2381	C238	0.704900	0.048100	0.704900
C2391	C239	0.678100	0.046300	0.678100
C2401	C240	0.815300	0.349240	0.815300
C2411	C241	0.758900	0.447100	0.758900
C2421	C242	0.728600	0.498800	0.728600
C2431	C243	0.704900	0.542100	0.704900
C2441	C244	0.678100	0.597500	0.678100
C2451	C245	0.349240	0.815300	0.815300
C2461	C246	0.447100	0.758900	0.758900
C2471	C247	0.498800	0.728600	0.728600
C2481	C248	0.542100	0.704900	0.704900
C2491	C249	0.597500	0.678100	0.678100
C2501	C250	0.020160	0.815300	0.815300
C2511	C251	0.035100	0.758900	0.758900
C2521	C252	0.044000	0.728600	0.728600
C2531	C253	0.048100	0.704900	0.704900
C2541	C254	0.046300	0.678100	0.678100
C2551	C255	0.815300	0.020160	0.349240
C2561	C256	0.758900	0.035100	0.447100
C2571	C257	0.728600	0.044000	0.498800
C2581	C258	0.704900	0.048100	0.542100
C2591	C259	0.678100	0.046300	0.597500
C2601	C260	0.815300	0.349240	0.020160
C2611	C261	0.758900	0.447100	0.035100
C2621	C262	0.728600	0.498800	0.044000
C2631	C263	0.704900	0.542100	0.048100
C2641	C264	0.678100	0.597500	0.046300
C2651	C265	0.376300	0.295700	0.951700
C2661	C266	0.295700	0.376300	0.376300
C2671	C267	0.951700	0.376300	0.376300
C2681	C268	0.376300	0.951700	0.295700
C2691	C269	0.376300	0.951700	0.376300
C2701	C270	0.295700	0.376300	0.951700
C2711	C271	0.951700	0.376300	0.295700
C2721	C272	0.376300	0.295700	0.376300
C2731	C273	0.376300	0.376300	0.295700
C2741	C274	0.295700	0.951700	0.376300
C2751	C275	0.951700	0.295700	0.376300
C2761	C276	0.376300	0.376300	0.951700
C2771	C277	0.704300	0.623700	0.048300
C2781	C278	0.623700	0.704300	0.623700
C2791	C279	0.623700	0.048300	0.623700
C2801	C280	0.048300	0.623700	0.704300
C2811	C281	0.048300	0.623700	0.623700
C2821	C282	0.623700	0.704300	0.048300
C2831	C283	0.623700	0.048300	0.704300
C2841	C284	0.704300	0.623700	0.623700
C2851	C285	0.623700	0.623700	0.704300
C2861	C286	0.048300	0.704300	0.623700
C2871	C287	0.704300	0.048300	0.623700
C2881	C288	0.623700	0.623700	0.048300
N11	N1	0.403800	0.250400	0.942000
N21	N2	0.250400	0.403800	0.403800
N31	N3	0.942000	0.403800	0.403800
N41	N4	0.403800	0.942000	0.250400
N51	N5	0.403800	0.942000	0.403800
N61	N6	0.250400	0.403800	0.942000
N71	N7	0.942000	0.403800	0.250400
N81	N8	0.403800	0.250400	0.403800
N91	N9	0.403800	0.403800	0.250400
N101	N10	0.250400	0.942000	0.403800
N111	N11	0.942000	0.250400	0.403800
N121	N12	0.403800	0.403800	0.942000
N131	N13	0.749600	0.596200	0.058000
N141	N14	0.596200	0.749600	0.596200
N151	N15	0.596200	0.058000	0.596200
N161	N16	0.058000	0.596200	0.749600
N171	N17	0.058000	0.596200	0.596200
N181	N18	0.596200	0.749600	0.058000
N191	N19	0.596200	0.058000	0.749600
N201	N20	0.749600	0.596200	0.596200
N211	N21	0.596200	0.596200	0.749600
N221	N22	0.058000	0.749600	0.596200
N231	N23	0.749600	0.058000	0.596200
N241	N24	0.596200	0.596200	0.058000
O11	O1	0.076490	0.237310	0.987170
O21	O2	0.077360	0.311160	0.986600
O31	O3	0.237310	0.076490	0.699030
O41	O4	0.311160	0.077360	0.624880
O51	O5	0.987170	0.699030	0.076490
O61	O6	0.986600	0.624880	0.077360
O71	O7	0.699030	0.987170	0.237310
O81	O8	0.624880	0.986600	0.311160
O91	O9	0.076490	0.987170	0.699030
O101	O10	0.077360	0.986600	0.624880
O111	O11	0.237310	0.699030	0.987170
O121	O12	0.311160	0.624880	0.986600
O131	O13	0.987170	0.076490	0.237310
O141	O14	0.986600	0.077360	0.311160
O151	O15	0.699030	0.237310	0.076490
O161	O16	0.624880	0.311160	0.077360
O171	O17	0.076490	0.699030	0.237310
O181	O18	0.077360	0.624880	0.311160
O191	O19	0.237310	0.987170	0.076490
O201	O20	0.311160	0.986600	0.077360
O211	O21	0.987170	0.237310	0.699030
O221	O22	0.986600	0.311160	0.624880
O231	O23	0.699030	0.076490	0.987170
O241	O24	0.624880	0.077360	0.986600
O251	O25	0.762690	0.923510	0.012830
O261	O26	0.688840	0.922640	0.013400
O271	O27	0.923510	0.762690	0.300970
O281	O28	0.922640	0.688840	0.375120
O291	O29	0.300970	0.012830	0.923510
O301	O30	0.375120	0.013400	0.922640
O311	O31	0.012830	0.300970	0.762690
O321	O32	0.013400	0.375120	0.688840
O331	O33	0.012830	0.923510	0.300970
O341	O34	0.013400	0.922640	0.375120
O351	O35	0.300970	0.762690	0.012830
O361	O36	0.375120	0.688840	0.013400
O371	O37	0.923510	0.012830	0.762690
O381	O38	0.922640	0.013400	0.688840
O391	O39	0.762690	0.300970	0.923510
O401	O40	0.688840	0.375120	0.922640
O411	O41	0.300970	0.923510	0.762690
O421	O42	0.375120	0.922640	0.688840
O431	O43	0.012830	0.762690	0.923510
O441	O44	0.013400	0.688840	0.922640
O451	O45	0.762690	0.012830	0.300970
O461	O46	0.688840	0.013400	0.375120
O471	O47	0.923510	0.300970	0.012830
O481	O48	0.922640	0.375120	0.013400
O491	O49	0.923510	0.762690	0.012830
O501	O50	0.922640	0.688840	0.013400
O511	O51	0.762690	0.923510	0.300970
O521	O52	0.688840	0.922640	0.375120
O531	O53	0.012830	0.300970	0.923510
O541	O54	0.013400	0.375120	0.922640
O551	O55	0.300970	0.012830	0.762690
O561	O56	0.375120	0.013400	0.688840
O571	O57	0.923510	0.012830	0.300970
O581	O58	0.922640	0.013400	0.375120
O591	O59	0.762690	0.300970	0.012830
O601	O60	0.688840	0.375120	0.013400
O611	O61	0.012830	0.923510	0.762690
O621	O62	0.013400	0.922640	0.688840
O631	O63	0.300970	0.762690	0.923510
O641	O64	0.375120	0.688840	0.922640
O651	O65	0.923510	0.300970	0.762690
O661	O66	0.922640	0.375120	0.688840
O671	O67	0.762690	0.012830	0.923510
O681	O68	0.688840	0.013400	0.922640
O691	O69	0.012830	0.762690	0.300970
O701	O70	0.013400	0.688840	0.375120
O711	O71	0.300970	0.923510	0.012830
O721	O72	0.375120	0.922640	0.013400
O731	O73	0.237310	0.076490	0.987170
O741	O74	0.311160	0.077360	0.986600
O751	O75	0.076490	0.237310	0.699030
O761	O76	0.077360	0.311160	0.624880
O771	O77	0.699030	0.987170	0.076490
O781	O78	0.624880	0.986600	0.077360
O791	O79	0.987170	0.699030	0.237310
O801	O80	0.986600	0.624880	0.311160
O811	O81	0.987170	0.076490	0.699030
O821	O82	0.986600	0.077360	0.624880
O831	O83	0.699030	0.237310	0.987170
O841	O84	0.624880	0.311160	0.986600
O851	O85	0.076490	0.987170	0.237310
O861	O86	0.077360	0.986600	0.311160
O871	O87	0.237310	0.699030	0.076490
O881	O88	0.311160	0.624880	0.077360
O891	O89	0.699030	0.076490	0.237310
O901	O90	0.624880	0.077360	0.311160
O911	O91	0.987170	0.237310	0.076490
O921	O92	0.986600	0.311160	0.077360
O931	O93	0.237310	0.987170	0.699030
O941	O94	0.311160	0.986600	0.624880
O951	O95	0.076490	0.699030	0.987170
O961	O96	0.077360	0.624880	0.986600
