data_RAPBOZ_clean_PM
_symmetry_space_group_name_H-M	'P1'
_cell_length_a	9.992000
_cell_length_b	11.644000
_cell_length_c	12.231000
_cell_angle_alpha	90.000000
_cell_angle_beta	90.000000
_cell_angle_gamma	90.000000
_symmetry_Int_Tables_number 1

loop_
_symmetry_equiv_pos_as_xyz
'x,y,z'

loop_
_atom_site_label
_atom_site_type_symbol
_atom_site_fract_x
_atom_site_fract_y
_atom_site_fract_z
O11	O1	0.030800	0.275100	0.152100
O21	O2	0.880000	0.122000	0.222300
O31	O3	0.238500	0.019500	0.100300
O41	O4	0.612000	0.112300	0.241600
O51	O5	0.969200	0.724900	0.152100
O61	O6	0.120000	0.878000	0.222300
O71	O7	0.761500	0.980500	0.100300
O81	O8	0.388000	0.887700	0.241600
O91	O9	0.969200	0.275100	0.347900
O101	O10	0.120000	0.122000	0.277700
O111	O11	0.761500	0.019500	0.399700
O121	O12	0.388000	0.112300	0.258400
O131	O13	0.030800	0.724900	0.347900
O141	O14	0.880000	0.878000	0.277700
O151	O15	0.238500	0.980500	0.399700
O161	O16	0.612000	0.887700	0.258400
O171	O17	0.969200	0.724900	0.847900
O181	O18	0.120000	0.878000	0.777700
O191	O19	0.761500	0.980500	0.899700
O201	O20	0.388000	0.887700	0.758400
O211	O21	0.030800	0.275100	0.847900
O221	O22	0.880000	0.122000	0.777700
O231	O23	0.238500	0.019500	0.899700
O241	O24	0.612000	0.112300	0.758400
O251	O25	0.030800	0.724900	0.652100
O261	O26	0.880000	0.878000	0.722300
O271	O27	0.238500	0.980500	0.600300
O281	O28	0.612000	0.887700	0.741600
O291	O29	0.969200	0.275100	0.652100
O301	O30	0.120000	0.122000	0.722300
O311	O31	0.761500	0.019500	0.600300
O321	O32	0.388000	0.112300	0.741600
Al11	Al1	0.045300	0.275100	0.000000
P11	P1	0.274200	0.088100	0.000000
O331	O33	0.212500	0.206800	0.000000
O341	O34	0.146600	0.421600	0.000000
O351	O35	0.887600	0.386300	0.000000
O361	O36	0.431300	0.109300	0.000000
C11	C1	0.074900	0.510200	0.000000
Al21	Al2	0.954700	0.724900	0.000000
P21	P2	0.725800	0.911900	0.000000
O371	O37	0.787500	0.793200	0.000000
O381	O38	0.853400	0.578400	0.000000
O391	O39	0.112400	0.613700	0.000000
O401	O40	0.568700	0.890700	0.000000
C21	C2	0.925100	0.489800	0.000000
Al31	Al3	0.954700	0.275100	0.500000
P31	P3	0.725800	0.088100	0.500000
O411	O41	0.787500	0.206800	0.500000
O421	O42	0.853400	0.421600	0.500000
O431	O43	0.112400	0.386300	0.500000
O441	O44	0.568700	0.109300	0.500000
C31	C3	0.925100	0.510200	0.500000
Al41	Al4	0.045300	0.724900	0.500000
P41	P4	0.274200	0.911900	0.500000
O451	O45	0.212500	0.793200	0.500000
O461	O46	0.146600	0.578400	0.500000
O471	O47	0.887600	0.613700	0.500000
O481	O48	0.431300	0.890700	0.500000
C41	C4	0.074900	0.489800	0.500000
Al51	Al5	0.769100	0.000000	0.250000
Al61	Al6	0.230900	0.000000	0.250000
Al71	Al7	0.230900	0.000000	0.750000
Al81	Al8	0.769100	0.000000	0.750000
P51	P5	0.000000	0.197700	0.250000
P61	P6	0.000000	0.802300	0.250000
P71	P7	0.000000	0.802300	0.750000
P81	P8	0.000000	0.197700	0.750000
C51	C5	0.500000	0.065900	0.250000
C61	C6	0.500000	0.934100	0.250000
C71	C7	0.500000	0.934100	0.750000
C81	C8	0.500000	0.065900	0.750000
