data_RAPYUE_clean_PM
_symmetry_space_group_name_H-M	'P1'
_cell_length_a	10.337000
_cell_length_b	14.437000
_cell_length_c	19.420000
_cell_angle_alpha	90.000000
_cell_angle_beta	89.731000
_cell_angle_gamma	90.000000
_symmetry_Int_Tables_number 1

loop_
_symmetry_equiv_pos_as_xyz
'x,y,z'

loop_
_atom_site_label
_atom_site_type_symbol
_atom_site_fract_x
_atom_site_fract_y
_atom_site_fract_z
Zn11	Zn1	0.654430	0.915990	0.751450
Zn21	Zn2	0.969150	0.985040	0.750290
Zn31	Zn3	0.155050	0.780100	0.748610
Zn41	Zn4	0.469940	0.710620	0.749710
Zn51	Zn5	0.345570	0.415990	0.248550
Zn61	Zn6	0.030850	0.485040	0.249710
Zn71	Zn7	0.844950	0.280100	0.251390
Zn81	Zn8	0.530060	0.210620	0.250290
H11	H1	0.955300	0.086700	0.949700
H21	H2	0.923600	0.175500	0.054400
H31	H3	0.558900	0.056500	0.058200
H41	H4	0.573800	0.053000	0.934600
H51	H5	0.575000	0.051100	0.563100
H61	H6	0.549900	0.080200	0.449300
H71	H7	0.932800	0.174900	0.450500
H81	H8	0.947000	0.093800	0.556500
H91	H9	0.286000	0.079300	0.720100
H101	H10	0.271600	0.060800	0.798400
H111	H11	0.044700	0.586700	0.050300
H121	H12	0.076400	0.675500	0.945600
H131	H13	0.441100	0.556500	0.941800
H141	H14	0.426200	0.553000	0.065400
H151	H15	0.425000	0.551100	0.436900
H161	H16	0.450100	0.580200	0.550700
H171	H17	0.067200	0.674900	0.549500
H181	H18	0.053000	0.593800	0.443500
H191	H19	0.714000	0.579300	0.279900
H201	H20	0.728400	0.560800	0.201600
C11	C1	0.791800	0.026700	0.869400
C21	C2	0.769200	0.066300	0.938000
C31	C3	0.873600	0.095600	0.968800
C41	C4	0.855700	0.143000	0.034500
C51	C5	0.734300	0.138700	0.067200
C61	C6	0.721500	0.169100	0.144300
C71	C7	0.628700	0.080000	0.033400
C81	C8	0.644000	0.064300	0.963100
C91	C9	0.792300	0.024800	0.643300
C101	C10	0.756400	0.064900	0.565900
C111	C11	0.647100	0.067500	0.537000
C121	C12	0.627900	0.092500	0.471200
C131	C13	0.731100	0.138700	0.435700
C141	C14	0.724000	0.172500	0.361700
C151	C15	0.862300	0.144600	0.470200
C161	C16	0.867800	0.100000	0.534500
C171	C17	0.231000	0.049300	0.754100
C181	C18	0.364900	0.918900	0.745300
C191	C19	0.866000	0.791800	0.752900
C201	C20	0.243000	0.969000	0.744200
C211	C21	0.208200	0.526700	0.130600
C221	C22	0.230800	0.566300	0.062000
C231	C23	0.126400	0.595600	0.031200
C241	C24	0.144300	0.643000	0.965500
C251	C25	0.265700	0.638700	0.932800
C261	C26	0.278500	0.669100	0.855700
C271	C27	0.371300	0.580000	0.966600
C281	C28	0.356000	0.564300	0.036900
C291	C29	0.207700	0.524800	0.356700
C301	C30	0.243600	0.564900	0.434100
C311	C31	0.352900	0.567500	0.463000
C321	C32	0.372100	0.592500	0.528800
C331	C33	0.268900	0.638700	0.564300
C341	C34	0.276000	0.672500	0.638300
C351	C35	0.137700	0.644600	0.529800
C361	C36	0.132200	0.600000	0.465500
C371	C37	0.769000	0.549300	0.245900
C381	C38	0.635100	0.418900	0.254700
C391	C39	0.134000	0.291800	0.247100
C401	C40	0.757000	0.469000	0.255800
N11	N1	0.131700	0.914400	0.754200
N21	N2	0.626400	0.782500	0.746700
N31	N3	0.868300	0.414400	0.245800
N41	N4	0.373600	0.282500	0.253300
O11	O1	0.896500	0.031600	0.837900
O21	O2	0.689800	0.987900	0.835200
O31	O3	0.605900	0.163300	0.164300
O41	O4	0.816900	0.210700	0.163000
O51	O5	0.895100	0.036000	0.665700
O61	O6	0.691400	0.987300	0.667200
O71	O7	0.604900	0.168600	0.336700
O81	O8	0.814800	0.212000	0.338100
O91	O9	0.111700	0.102200	0.755100
O101	O10	0.356900	0.833400	0.750100
O111	O11	0.463700	0.961500	0.746800
O121	O12	0.971000	0.739800	0.750600
O131	O13	0.853000	0.871000	0.749600
O141	O14	0.103500	0.531600	0.162100
O151	O15	0.310200	0.487900	0.164800
O161	O16	0.394100	0.663300	0.835700
O171	O17	0.183100	0.710700	0.837000
O181	O18	0.104900	0.536000	0.334300
O191	O19	0.308600	0.487300	0.332800
O201	O20	0.395100	0.668600	0.663300
O211	O21	0.185200	0.712000	0.661900
O221	O22	0.888300	0.602200	0.244900
O231	O23	0.643100	0.333400	0.249900
O241	O24	0.536300	0.461500	0.253200
O251	O25	0.029000	0.239800	0.249400
O261	O26	0.147000	0.371000	0.250400
