data_RASKON_clean_PM
_symmetry_space_group_name_H-M	'P1'
_cell_length_a	14.154000
_cell_length_b	16.251100
_cell_length_c	19.149500
_cell_angle_alpha	90.000000
_cell_angle_beta	90.000000
_cell_angle_gamma	90.000000
_symmetry_Int_Tables_number 1

loop_
_symmetry_equiv_pos_as_xyz
'x,y,z'

loop_
_atom_site_label
_atom_site_type_symbol
_atom_site_fract_x
_atom_site_fract_y
_atom_site_fract_z
Mg11	Mg1	0.522440	0.208830	0.455710
Mg21	Mg2	0.310330	0.240770	0.564450
O11	O1	0.416870	0.298080	0.477640
O21	O2	0.376320	0.727950	0.488480
O31	O3	0.558100	0.261330	0.363530
O41	O4	0.480320	0.347350	0.045800
O51	O5	0.242230	0.658970	0.498120
O61	O6	0.305850	0.359860	0.536050
O71	O7	0.412340	0.280040	0.131260
O81	O8	0.713880	0.265670	0.365040
C11	C1	0.328510	0.664320	0.480800
C21	C2	0.373470	0.589160	0.451360
C31	C3	0.349650	0.512890	0.479100
H11	H1	0.303000	0.509500	0.513100
C41	C4	0.394480	0.442020	0.456750
C51	C5	0.460880	0.447010	0.404160
H21	H2	0.490700	0.399500	0.388400
C61	C6	0.483200	0.522040	0.374910
H31	H3	0.526400	0.524800	0.338400
C71	C7	0.441530	0.593210	0.399570
H41	H4	0.459300	0.644000	0.381300
C81	C8	0.635620	0.277930	0.336740
C91	C9	0.559580	0.306790	0.221890
H51	H5	0.505300	0.281100	0.238400
C101	C10	0.636920	0.314290	0.265110
C111	C11	0.716500	0.354000	0.240130
H61	H6	0.769900	0.357800	0.268200
C121	C12	0.479520	0.320840	0.107110
C131	C13	0.561210	0.336730	0.154450
C141	C14	0.640300	0.378600	0.131050
H71	H7	0.641300	0.400500	0.086200
C151	C15	0.371960	0.362270	0.491320
C161	C16	0.717500	0.387800	0.174270
H81	H8	0.770200	0.416800	0.158900
Mg31	Mg3	0.977560	0.791170	0.955710
Mg41	Mg4	0.189670	0.759230	0.064450
O91	O9	0.083130	0.701920	0.977640
O101	O10	0.123680	0.272050	0.988480
O111	O11	0.941900	0.738670	0.863530
O121	O12	0.019680	0.652650	0.545800
O131	O13	0.257770	0.341030	0.998120
O141	O14	0.194150	0.640140	0.036050
O151	O15	0.087660	0.719960	0.631260
O161	O16	0.786120	0.734330	0.865040
C171	C17	0.171490	0.335680	0.980800
C181	C18	0.126530	0.410840	0.951360
C191	C19	0.150350	0.487110	0.979100
H91	H9	0.197000	0.490500	0.013100
C201	C20	0.105520	0.557980	0.956750
C211	C21	0.039120	0.552990	0.904160
H101	H10	0.009300	0.600500	0.888400
C221	C22	0.016800	0.477960	0.874910
H111	H11	0.973600	0.475200	0.838400
C231	C23	0.058470	0.406790	0.899570
H121	H12	0.040700	0.356000	0.881300
C241	C24	0.864380	0.722070	0.836740
C251	C25	0.940420	0.693210	0.721890
H131	H13	0.994700	0.718900	0.738400
C261	C26	0.863080	0.685710	0.765110
C271	C27	0.783500	0.646000	0.740130
H141	H14	0.730100	0.642200	0.768200
C281	C28	0.020480	0.679160	0.607110
C291	C29	0.938790	0.663270	0.654450
C301	C30	0.859700	0.621400	0.631050
H151	H15	0.858700	0.599500	0.586200
C311	C31	0.128040	0.637730	0.991320
C321	C32	0.782500	0.612200	0.674270
H161	H16	0.729800	0.583200	0.658900
Mg51	Mg5	0.477560	0.708830	0.044290
Mg61	Mg6	0.689670	0.740770	0.935550
O171	O17	0.583130	0.798080	0.022360
O181	O18	0.623680	0.227950	0.011520
O191	O19	0.441900	0.761330	0.136470
O201	O20	0.519680	0.847350	0.454200
O211	O21	0.757770	0.158970	0.001880
O221	O22	0.694150	0.859860	0.963950
O231	O23	0.587660	0.780040	0.368740
O241	O24	0.286120	0.765670	0.134960
C331	C33	0.671490	0.164320	0.019200
C341	C34	0.626530	0.089160	0.048640
C351	C35	0.650350	0.012890	0.020900
H171	H17	0.697000	0.009500	0.986900
C361	C36	0.605520	0.942020	0.043250
C371	C37	0.539120	0.947010	0.095840
H181	H18	0.509300	0.899500	0.111600
C381	C38	0.516800	0.022040	0.125090
H191	H19	0.473600	0.024800	0.161600
C391	C39	0.558470	0.093210	0.100430
H201	H20	0.540700	0.144000	0.118700
C401	C40	0.364380	0.777930	0.163260
C411	C41	0.440420	0.806790	0.278110
H211	H21	0.494700	0.781100	0.261600
C421	C42	0.363080	0.814290	0.234890
C431	C43	0.283500	0.854000	0.259870
H221	H22	0.230100	0.857800	0.231800
C441	C44	0.520480	0.820840	0.392890
C451	C45	0.438790	0.836730	0.345550
C461	C46	0.359700	0.878600	0.368950
H231	H23	0.358700	0.900500	0.413800
C471	C47	0.628040	0.862270	0.008680
C481	C48	0.282500	0.887800	0.325730
H241	H24	0.229800	0.916800	0.341100
Mg71	Mg7	0.022440	0.291170	0.544290
Mg81	Mg8	0.810330	0.259230	0.435550
O251	O25	0.916870	0.201920	0.522360
O261	O26	0.876320	0.772050	0.511520
O271	O27	0.058100	0.238670	0.636470
O281	O28	0.980320	0.152650	0.954200
O291	O29	0.742230	0.841030	0.501880
O301	O30	0.805850	0.140140	0.463950
O311	O31	0.912340	0.219960	0.868740
O321	O32	0.213880	0.234330	0.634960
C491	C49	0.828510	0.835680	0.519200
C501	C50	0.873470	0.910840	0.548640
C511	C51	0.849650	0.987110	0.520900
H251	H25	0.803000	0.990500	0.486900
C521	C52	0.894480	0.057980	0.543250
C531	C53	0.960880	0.052990	0.595840
H261	H26	0.990700	0.100500	0.611600
C541	C54	0.983200	0.977960	0.625090
H271	H27	0.026400	0.975200	0.661600
C551	C55	0.941530	0.906790	0.600430
H281	H28	0.959300	0.856000	0.618700
C561	C56	0.135620	0.222070	0.663260
C571	C57	0.059580	0.193210	0.778110
H291	H29	0.005300	0.218900	0.761600
C581	C58	0.136920	0.185710	0.734890
C591	C59	0.216500	0.146000	0.759870
H301	H30	0.269900	0.142200	0.731800
C601	C60	0.979520	0.179160	0.892890
C611	C61	0.061210	0.163270	0.845550
C621	C62	0.140300	0.121400	0.868950
H311	H31	0.141300	0.099500	0.913800
C631	C63	0.871960	0.137730	0.508680
C641	C64	0.217500	0.112200	0.825730
H321	H32	0.270200	0.083200	0.841100
Mg91	Mg9	0.477560	0.791170	0.544290
Mg101	Mg10	0.689670	0.759230	0.435550
O331	O33	0.583130	0.701920	0.522360
O341	O34	0.623680	0.272050	0.511520
O351	O35	0.441900	0.738670	0.636470
O361	O36	0.519680	0.652650	0.954200
O371	O37	0.757770	0.341030	0.501880
O381	O38	0.694150	0.640140	0.463950
O391	O39	0.587660	0.719960	0.868740
O401	O40	0.286120	0.734330	0.634960
C651	C65	0.671490	0.335680	0.519200
C661	C66	0.626530	0.410840	0.548640
C671	C67	0.650350	0.487110	0.520900
H331	H33	0.697000	0.490500	0.486900
C681	C68	0.605520	0.557980	0.543250
C691	C69	0.539120	0.552990	0.595840
H341	H34	0.509300	0.600500	0.611600
C701	C70	0.516800	0.477960	0.625090
H351	H35	0.473600	0.475200	0.661600
C711	C71	0.558470	0.406790	0.600430
H361	H36	0.540700	0.356000	0.618700
C721	C72	0.364380	0.722070	0.663260
C731	C73	0.440420	0.693210	0.778110
H371	H37	0.494700	0.718900	0.761600
C741	C74	0.363080	0.685710	0.734890
C751	C75	0.283500	0.646000	0.759870
H381	H38	0.230100	0.642200	0.731800
C761	C76	0.520480	0.679160	0.892890
C771	C77	0.438790	0.663270	0.845550
C781	C78	0.359700	0.621400	0.868950
H391	H39	0.358700	0.599500	0.913800
C791	C79	0.628040	0.637730	0.508680
C801	C80	0.282500	0.612200	0.825730
H401	H40	0.229800	0.583200	0.841100
Mg111	Mg11	0.022440	0.208830	0.044290
Mg121	Mg12	0.810330	0.240770	0.935550
O411	O41	0.916870	0.298080	0.022360
O421	O42	0.876320	0.727950	0.011520
O431	O43	0.058100	0.261330	0.136470
O441	O44	0.980320	0.347350	0.454200
O451	O45	0.742230	0.658970	0.001880
O461	O46	0.805850	0.359860	0.963950
O471	O47	0.912340	0.280040	0.368740
O481	O48	0.213880	0.265670	0.134960
C811	C81	0.828510	0.664320	0.019200
C821	C82	0.873470	0.589160	0.048640
C831	C83	0.849650	0.512890	0.020900
H411	H41	0.803000	0.509500	0.986900
C841	C84	0.894480	0.442020	0.043250
C851	C85	0.960880	0.447010	0.095840
H421	H42	0.990700	0.399500	0.111600
C861	C86	0.983200	0.522040	0.125090
H431	H43	0.026400	0.524800	0.161600
C871	C87	0.941530	0.593210	0.100430
H441	H44	0.959300	0.644000	0.118700
C881	C88	0.135620	0.277930	0.163260
C891	C89	0.059580	0.306790	0.278110
H451	H45	0.005300	0.281100	0.261600
C901	C90	0.136920	0.314290	0.234890
C911	C91	0.216500	0.354000	0.259870
H461	H46	0.269900	0.357800	0.231800
C921	C92	0.979520	0.320840	0.392890
C931	C93	0.061210	0.336730	0.345550
C941	C94	0.140300	0.378600	0.368950
H471	H47	0.141300	0.400500	0.413800
C951	C95	0.871960	0.362270	0.008680
C961	C96	0.217500	0.387800	0.325730
H481	H48	0.270200	0.416800	0.341100
Mg131	Mg13	0.522440	0.291170	0.955710
Mg141	Mg14	0.310330	0.259230	0.064450
O491	O49	0.416870	0.201920	0.977640
O501	O50	0.376320	0.772050	0.988480
O511	O51	0.558100	0.238670	0.863530
O521	O52	0.480320	0.152650	0.545800
O531	O53	0.242230	0.841030	0.998120
O541	O54	0.305850	0.140140	0.036050
O551	O55	0.412340	0.219960	0.631260
O561	O56	0.713880	0.234330	0.865040
C971	C97	0.328510	0.835680	0.980800
C981	C98	0.373470	0.910840	0.951360
C991	C99	0.349650	0.987110	0.979100
H491	H49	0.303000	0.990500	0.013100
C1001	C100	0.394480	0.057980	0.956750
C1011	C101	0.460880	0.052990	0.904160
H501	H50	0.490700	0.100500	0.888400
C1021	C102	0.483200	0.977960	0.874910
H511	H51	0.526400	0.975200	0.838400
C1031	C103	0.441530	0.906790	0.899570
H521	H52	0.459300	0.856000	0.881300
C1041	C104	0.635620	0.222070	0.836740
C1051	C105	0.559580	0.193210	0.721890
H531	H53	0.505300	0.218900	0.738400
C1061	C106	0.636920	0.185710	0.765110
C1071	C107	0.716500	0.146000	0.740130
H541	H54	0.769900	0.142200	0.768200
C1081	C108	0.479520	0.179160	0.607110
C1091	C109	0.561210	0.163270	0.654450
C1101	C110	0.640300	0.121400	0.631050
H551	H55	0.641300	0.099500	0.586200
C1111	C111	0.371960	0.137730	0.991320
C1121	C112	0.717500	0.112200	0.674270
H561	H56	0.770200	0.083200	0.658900
Mg151	Mg15	0.977560	0.708830	0.455710
Mg161	Mg16	0.189670	0.740770	0.564450
O571	O57	0.083130	0.798080	0.477640
O581	O58	0.123680	0.227950	0.488480
O591	O59	0.941900	0.761330	0.363530
O601	O60	0.019680	0.847350	0.045800
O611	O61	0.257770	0.158970	0.498120
O621	O62	0.194150	0.859860	0.536050
O631	O63	0.087660	0.780040	0.131260
O641	O64	0.786120	0.765670	0.365040
C1131	C113	0.171490	0.164320	0.480800
C1141	C114	0.126530	0.089160	0.451360
C1151	C115	0.150350	0.012890	0.479100
H571	H57	0.197000	0.009500	0.513100
C1161	C116	0.105520	0.942020	0.456750
C1171	C117	0.039120	0.947010	0.404160
H581	H58	0.009300	0.899500	0.388400
C1181	C118	0.016800	0.022040	0.374910
H591	H59	0.973600	0.024800	0.338400
C1191	C119	0.058470	0.093210	0.399570
H601	H60	0.040700	0.144000	0.381300
C1201	C120	0.864380	0.777930	0.336740
C1211	C121	0.940420	0.806790	0.221890
H611	H61	0.994700	0.781100	0.238400
C1221	C122	0.863080	0.814290	0.265110
C1231	C123	0.783500	0.854000	0.240130
H621	H62	0.730100	0.857800	0.268200
C1241	C124	0.020480	0.820840	0.107110
C1251	C125	0.938790	0.836730	0.154450
C1261	C126	0.859700	0.878600	0.131050
H631	H63	0.858700	0.900500	0.086200
C1271	C127	0.128040	0.862270	0.491320
C1281	C128	0.782500	0.887800	0.174270
H641	H64	0.729800	0.916800	0.158900
