data_RASXEP01_clean_PM
_symmetry_space_group_name_H-M	'P1'
_cell_length_a	16.266300
_cell_length_b	16.539700
_cell_length_c	16.539700
_cell_angle_alpha	76.007000
_cell_angle_beta	60.545300
_cell_angle_gamma	60.545300
_symmetry_Int_Tables_number 1

loop_
_symmetry_equiv_pos_as_xyz
'x,y,z'

loop_
_atom_site_label
_atom_site_type_symbol
_atom_site_fract_x
_atom_site_fract_y
_atom_site_fract_z
Sm11	Sm1	0.238170	0.878480	0.469420
Sm21	Sm2	0.512650	0.522660	0.114000
Sm31	Sm3	0.086070	0.621520	0.030580
Sm41	Sm4	0.649310	0.977340	0.386000
Sm51	Sm5	0.707590	0.530580	0.378480
Sm61	Sm6	0.626650	0.886000	0.022660
Sm71	Sm7	0.116650	0.969420	0.121520
Sm81	Sm8	0.035310	0.614000	0.477340
Sm91	Sm9	0.761830	0.121520	0.530580
Sm101	Sm10	0.487350	0.477340	0.886000
Sm111	Sm11	0.913930	0.378480	0.969420
Sm121	Sm12	0.350690	0.022660	0.614000
Sm131	Sm13	0.292410	0.469420	0.621520
Sm141	Sm14	0.373350	0.114000	0.977340
Sm151	Sm15	0.883350	0.030580	0.878480
Sm161	Sm16	0.964690	0.386000	0.522660
H11	H1	0.306700	0.751500	0.252500
H21	H2	0.365400	0.899200	0.217600
H31	H3	0.810700	0.748500	0.247500
H41	H4	0.982200	0.600800	0.282400
H51	H5	0.559200	0.747500	0.251500
H61	H6	0.583000	0.782400	0.399200
H71	H7	0.058200	0.752500	0.248500
H81	H8	0.264600	0.717600	0.100800
H91	H9	0.693300	0.248500	0.747500
H101	H10	0.634600	0.100800	0.782400
H111	H11	0.189300	0.251500	0.752500
H121	H12	0.017800	0.399200	0.717600
H131	H13	0.440800	0.252500	0.748500
H141	H14	0.417000	0.217600	0.600800
H151	H15	0.941800	0.247500	0.751500
H161	H16	0.735400	0.282400	0.899200
C11	C1	0.353300	0.715700	0.278500
C21	C2	0.427300	0.669000	0.369000
C31	C3	0.486100	0.604200	0.298400
C41	C4	0.579300	0.513700	0.275500
C51	C5	0.439100	0.677700	0.448300
C61	C6	0.399200	0.913200	0.240200
C71	C7	0.437100	0.941000	0.337000
C81	C8	0.504900	0.950600	0.245400
C91	C9	0.598500	0.968200	0.205800
C101	C10	0.419400	0.953400	0.431600
C111	C11	0.847500	0.784300	0.221500
C121	C12	0.965300	0.831000	0.131000
C131	C13	0.888700	0.895800	0.201600
C141	C14	0.868500	0.986300	0.224500
C151	C15	0.065100	0.822300	0.051700
C161	C16	0.052600	0.586800	0.259800
C171	C17	0.215100	0.559000	0.163000
C181	C18	0.200900	0.549400	0.254600
C191	C19	0.272500	0.531800	0.294200
C201	C20	0.304400	0.546600	0.068400
C211	C21	0.631800	0.721500	0.215700
C221	C22	0.796300	0.631000	0.169000
C231	C23	0.784500	0.701600	0.104200
C241	C24	0.854800	0.724500	0.013700
C251	C25	0.887400	0.551700	0.177700
C261	C26	0.639400	0.759800	0.413200
C271	C27	0.774100	0.663000	0.441000
C281	C28	0.750300	0.754600	0.450600
C291	C29	0.804300	0.794200	0.468200
C301	C30	0.851000	0.568400	0.453400
C311	C31	0.069000	0.778500	0.284300
C321	C32	0.096300	0.869000	0.331000
C331	C33	0.090300	0.798400	0.395800
C341	C34	0.093000	0.775500	0.486300
C351	C35	0.116800	0.948300	0.322300
C361	C36	0.312400	0.740200	0.086800
C371	C37	0.378100	0.837000	0.059000
C381	C38	0.455500	0.745400	0.049400
C391	C39	0.566700	0.705800	0.031800
C401	C40	0.372800	0.931600	0.046600
C411	C41	0.646700	0.284300	0.721500
C421	C42	0.572700	0.331000	0.631000
C431	C43	0.513900	0.395800	0.701600
C441	C44	0.420700	0.486300	0.724500
C451	C45	0.560900	0.322300	0.551700
C461	C46	0.600800	0.086800	0.759800
C471	C47	0.562900	0.059000	0.663000
C481	C48	0.495100	0.049400	0.754600
C491	C49	0.401500	0.031800	0.794200
C501	C50	0.580600	0.046600	0.568400
C511	C51	0.152500	0.215700	0.778500
C521	C52	0.034700	0.169000	0.869000
C531	C53	0.111300	0.104200	0.798400
C541	C54	0.131500	0.013700	0.775500
C551	C55	0.934900	0.177700	0.948300
C561	C56	0.947400	0.413200	0.740200
C571	C57	0.784900	0.441000	0.837000
C581	C58	0.799100	0.450600	0.745400
C591	C59	0.727500	0.468200	0.705800
C601	C60	0.695600	0.453400	0.931600
C611	C61	0.368200	0.278500	0.784300
C621	C62	0.203700	0.369000	0.831000
C631	C63	0.215500	0.298400	0.895800
C641	C64	0.145200	0.275500	0.986300
C651	C65	0.112600	0.448300	0.822300
C661	C66	0.360600	0.240200	0.586800
C671	C67	0.225900	0.337000	0.559000
C681	C68	0.249700	0.245400	0.549400
C691	C69	0.195700	0.205800	0.531800
C701	C70	0.149000	0.431600	0.546600
C711	C71	0.931000	0.221500	0.715700
C721	C72	0.903700	0.131000	0.669000
C731	C73	0.909700	0.201600	0.604200
C741	C74	0.907000	0.224500	0.513700
C751	C75	0.883200	0.051700	0.677700
C761	C76	0.687600	0.259800	0.913200
C771	C77	0.621900	0.163000	0.941000
C781	C78	0.544500	0.254600	0.950600
C791	C79	0.433300	0.294200	0.968200
C801	C80	0.627200	0.068400	0.953400
N11	N1	0.438800	0.633900	0.241100
N21	N2	0.342600	0.739800	0.356600
N31	N3	0.370000	0.916400	0.331600
N41	N4	0.481200	0.932300	0.185300
N51	N5	0.813800	0.866100	0.258900
N61	N6	0.939000	0.760200	0.143400
N71	N7	0.118000	0.583600	0.168400
N81	N8	0.098800	0.567700	0.314700
N91	N9	0.679900	0.758900	0.133900
N101	N10	0.699200	0.643400	0.239800
N111	N11	0.701600	0.668400	0.416400
N121	N12	0.666500	0.814700	0.432300
N131	N13	0.072700	0.741100	0.366100
N141	N14	0.082400	0.856600	0.260200
N151	N15	0.286400	0.831600	0.083600
N161	N16	0.413500	0.685300	0.067700
N171	N17	0.561200	0.366100	0.758900
N181	N18	0.657400	0.260200	0.643400
N191	N19	0.630000	0.083600	0.668400
N201	N20	0.518800	0.067700	0.814700
N211	N21	0.186200	0.133900	0.741100
N221	N22	0.061000	0.239800	0.856600
N231	N23	0.882000	0.416400	0.831600
N241	N24	0.901200	0.432300	0.685300
N251	N25	0.320100	0.241100	0.866100
N261	N26	0.300800	0.356600	0.760200
N271	N27	0.298400	0.331600	0.583600
N281	N28	0.333500	0.185300	0.567700
N291	N29	0.927300	0.258900	0.633900
N301	N30	0.917600	0.143400	0.739800
N311	N31	0.713600	0.168400	0.916400
N321	N32	0.586500	0.314700	0.932300
O11	O1	0.603300	0.468800	0.209600
O21	O2	0.634100	0.481700	0.320900
O31	O3	0.526500	0.627000	0.454200
O41	O4	0.361900	0.737400	0.508400
O51	O5	0.652500	0.957300	0.118300
O61	O6	0.619400	0.995900	0.255300
O71	O7	0.469400	0.984100	0.443900
O81	O8	0.351100	0.930400	0.499000
O91	O9	0.781700	0.031200	0.290400
O101	O10	0.936700	0.018300	0.179100
O111	O11	0.107700	0.873000	0.045800
O121	O12	0.107700	0.762600	0.991600
O131	O13	0.228100	0.542700	0.381700
O141	O14	0.370600	0.504100	0.244700
O151	O15	0.397400	0.515900	0.056100
O161	O16	0.280500	0.569600	0.001000
O171	O17	0.812900	0.790400	0.968800
O181	O18	0.955000	0.679100	0.981700
O191	O19	0.980700	0.545800	0.127000
O201	O20	0.870300	0.491600	0.237400
O211	O21	0.770800	0.881700	0.457300
O221	O22	0.874700	0.744700	0.495900
O231	O23	0.913300	0.556100	0.484100
O241	O24	0.850100	0.501000	0.430400
O251	O25	0.072100	0.709600	0.531200
O261	O26	0.115800	0.820900	0.518300
O271	O27	0.153500	0.954200	0.373000
O281	O28	0.099300	0.008400	0.262600
O291	O29	0.609800	0.618300	0.042700
O301	O30	0.615300	0.755300	0.004100
O311	O31	0.453500	0.943900	0.015900
O321	O32	0.281500	0.999000	0.069600
O331	O33	0.396700	0.531200	0.790400
O341	O34	0.365900	0.518300	0.679100
O351	O35	0.473500	0.373000	0.545800
O361	O36	0.638100	0.262600	0.491600
O371	O37	0.347500	0.042700	0.881700
O381	O38	0.380600	0.004100	0.744700
O391	O39	0.530600	0.015900	0.556100
O401	O40	0.648900	0.069600	0.501000
O411	O41	0.218300	0.968800	0.709600
O421	O42	0.063300	0.981700	0.820900
O431	O43	0.892300	0.127000	0.954200
O441	O44	0.892300	0.237400	0.008400
O451	O45	0.771900	0.457300	0.618300
O461	O46	0.629400	0.495900	0.755300
O471	O47	0.602600	0.484100	0.943900
O481	O48	0.719500	0.430400	0.999000
O491	O49	0.187100	0.209600	0.031200
O501	O50	0.045000	0.320900	0.018300
O511	O51	0.019300	0.454200	0.873000
O521	O52	0.129700	0.508400	0.762600
O531	O53	0.229200	0.118300	0.542700
O541	O54	0.125300	0.255300	0.504100
O551	O55	0.086700	0.443900	0.515900
O561	O56	0.149900	0.499000	0.569600
O571	O57	0.927900	0.290400	0.468800
O581	O58	0.884200	0.179100	0.481700
O591	O59	0.846500	0.045800	0.627000
O601	O60	0.900700	0.991600	0.737400
O611	O61	0.390200	0.381700	0.957300
O621	O62	0.384700	0.244700	0.995900
O631	O63	0.546500	0.056100	0.984100
O641	O64	0.718500	0.001000	0.930400
