data_RATVEP_clean_PM
_symmetry_space_group_name_H-M	'P1'
_cell_length_a	7.763900
_cell_length_b	10.176500
_cell_length_c	15.949000
_cell_angle_alpha	90.000000
_cell_angle_beta	90.000000
_cell_angle_gamma	90.000000
_symmetry_Int_Tables_number 1

loop_
_symmetry_equiv_pos_as_xyz
'x,y,z'

loop_
_atom_site_label
_atom_site_type_symbol
_atom_site_fract_x
_atom_site_fract_y
_atom_site_fract_z
Mg11	Mg1	0.860260	0.029820	0.789260
Mg21	Mg2	0.139740	0.970180	0.289260
Mg31	Mg3	0.360260	0.470180	0.789260
Mg41	Mg4	0.639740	0.529820	0.289260
H11	H1	0.910400	0.451200	0.598400
H21	H2	0.149600	0.254000	0.372500
H31	H3	0.054400	0.914400	0.474000
H41	H4	0.046300	0.360700	0.489100
H51	H5	0.941800	0.011100	0.591400
H61	H6	0.089600	0.548800	0.098400
H71	H7	0.850400	0.746000	0.872500
H81	H8	0.945600	0.085600	0.974000
H91	H9	0.953700	0.639300	0.989100
H101	H10	0.058200	0.988900	0.091400
H111	H11	0.410400	0.048800	0.598400
H121	H12	0.649600	0.246000	0.372500
H131	H13	0.554400	0.585600	0.474000
H141	H14	0.546300	0.139300	0.489100
H151	H15	0.441800	0.488900	0.591400
H161	H16	0.589600	0.951200	0.098400
H171	H17	0.350400	0.754000	0.872500
H181	H18	0.445600	0.414400	0.974000
H191	H19	0.453700	0.860700	0.989100
H201	H20	0.558200	0.511100	0.091400
C11	C1	0.893400	0.261000	0.625000
C21	C2	0.766000	0.415200	0.699700
C31	C3	0.735500	0.292700	0.734300
C41	C4	0.977500	0.198600	0.552800
C51	C5	0.107000	0.204300	0.416800
C61	C6	0.049900	0.005600	0.476400
C71	C7	0.043800	0.269400	0.486800
C81	C8	0.714200	0.553000	0.722200
C91	C9	0.982800	0.062800	0.547600
C101	C10	0.633000	0.252700	0.809200
C111	C11	0.106600	0.739000	0.125000
C121	C12	0.234000	0.584800	0.199700
C131	C13	0.264500	0.707300	0.234300
C141	C14	0.022500	0.801400	0.052800
C151	C15	0.893000	0.795700	0.916800
C161	C16	0.950100	0.994400	0.976400
C171	C17	0.956200	0.730600	0.986800
C181	C18	0.285800	0.447000	0.222200
C191	C19	0.017200	0.937200	0.047600
C201	C20	0.367000	0.747300	0.309200
C211	C21	0.393400	0.239000	0.625000
C221	C22	0.266000	0.084800	0.699700
C231	C23	0.235500	0.207300	0.734300
C241	C24	0.477500	0.301400	0.552800
C251	C25	0.607000	0.295700	0.416800
C261	C26	0.549900	0.494400	0.476400
C271	C27	0.543800	0.230600	0.486800
C281	C28	0.214200	0.947000	0.722200
C291	C29	0.482800	0.437200	0.547600
C301	C30	0.133000	0.247300	0.809200
C311	C31	0.606600	0.761000	0.125000
C321	C32	0.734000	0.915200	0.199700
C331	C33	0.764500	0.792700	0.234300
C341	C34	0.522500	0.698600	0.052800
C351	C35	0.393000	0.704300	0.916800
C361	C36	0.450100	0.505600	0.976400
C371	C37	0.456200	0.769400	0.986800
C381	C38	0.785800	0.053000	0.222200
C391	C39	0.517200	0.562800	0.047600
C401	C40	0.867000	0.752700	0.309200
N11	N1	0.109400	0.074200	0.410170
N21	N2	0.818100	0.198300	0.688300
N31	N3	0.868800	0.392400	0.631430
N41	N4	0.890600	0.925800	0.910170
N51	N5	0.181900	0.801700	0.188300
N61	N6	0.131200	0.607600	0.131430
N71	N7	0.609400	0.425800	0.410170
N81	N8	0.318100	0.301700	0.688300
N91	N9	0.368800	0.107600	0.631430
N101	N10	0.390600	0.574200	0.910170
N111	N11	0.681900	0.698300	0.188300
N121	N12	0.631200	0.892400	0.131430
O11	O1	0.660600	0.138500	0.836760
O21	O2	0.528100	0.331800	0.839170
O31	O3	0.561200	0.573400	0.743320
O41	O4	0.829100	0.638300	0.716200
O51	O5	0.339400	0.861500	0.336760
O61	O6	0.471900	0.668200	0.339170
O71	O7	0.438800	0.426600	0.243320
O81	O8	0.170900	0.361700	0.216200
O91	O9	0.160600	0.361500	0.836760
O101	O10	0.028100	0.168200	0.839170
O111	O11	0.061200	0.926600	0.743320
O121	O12	0.329100	0.861700	0.716200
O131	O13	0.839400	0.638500	0.336760
O141	O14	0.971900	0.831800	0.339170
O151	O15	0.938800	0.073400	0.243320
O161	O16	0.670900	0.138300	0.216200
