data_RAVCUO_clean_PM
_symmetry_space_group_name_H-M	'P1'
_cell_length_a	9.230700
_cell_length_b	13.622200
_cell_length_c	14.707200
_cell_angle_alpha	90.000000
_cell_angle_beta	90.271000
_cell_angle_gamma	90.000000
_symmetry_Int_Tables_number 1

loop_
_symmetry_equiv_pos_as_xyz
'x,y,z'

loop_
_atom_site_label
_atom_site_type_symbol
_atom_site_fract_x
_atom_site_fract_y
_atom_site_fract_z
Nd11	Nd1	0.250850	0.502450	0.093120
C11	C1	0.002400	0.610400	0.329500
C21	C2	0.026600	0.704000	0.365800
H11	H1	0.091600	0.747900	0.336700
C31	C3	0.954600	0.732700	0.445100
C41	C4	0.864300	0.666000	0.488300
H21	H2	0.815000	0.685600	0.541800
C51	C5	0.843900	0.570900	0.455100
C61	C6	0.910900	0.545900	0.374200
H31	H3	0.893800	0.482800	0.348700
C71	C7	0.758400	0.497600	0.509700
H41	H4	0.827500	0.458600	0.546600
H51	H5	0.696200	0.534400	0.552500
C81	C8	0.664200	0.427800	0.457200
C91	C9	0.643400	0.333000	0.489600
H61	H6	0.696900	0.311200	0.541100
C101	C10	0.545100	0.269300	0.447600
C111	C11	0.468000	0.300700	0.371600
H71	H7	0.398300	0.258900	0.343900
C121	C12	0.493700	0.394200	0.336300
C131	C13	0.590800	0.456800	0.379300
H81	H8	0.607200	0.520500	0.355100
C141	C14	0.080900	0.575200	0.246100
C151	C15	0.973900	0.833300	0.485000
C161	C16	0.525700	0.166700	0.486700
C171	C17	0.414200	0.432000	0.253400
O11	O1	0.024900	0.507700	0.199400
O21	O2	0.202700	0.612500	0.228100
O31	O3	0.061200	0.890400	0.448700
O41	O4	0.899600	0.855200	0.553800
O51	O5	0.617800	0.138900	0.543800
O61	O6	0.422200	0.118300	0.459400
O71	O7	0.294900	0.394300	0.232400
O81	O8	0.471300	0.501600	0.207700
Nd21	Nd2	0.249150	0.002450	0.406870
C181	C18	0.497600	0.110400	0.170500
C191	C19	0.473400	0.204000	0.134200
H91	H9	0.408400	0.247900	0.163300
C201	C20	0.545400	0.232700	0.054900
C211	C21	0.635700	0.166000	0.011700
H101	H10	0.685000	0.185600	0.958200
C221	C22	0.656100	0.070900	0.044900
C231	C23	0.589100	0.045900	0.125800
H111	H11	0.606200	0.982800	0.151300
C241	C24	0.741600	0.997600	0.990300
H121	H12	0.672500	0.958600	0.953400
H131	H13	0.803800	0.034400	0.947500
C251	C25	0.835800	0.927800	0.042800
C261	C26	0.856600	0.833000	0.010400
H141	H14	0.803100	0.811200	0.958900
C271	C27	0.954900	0.769300	0.052400
C281	C28	0.032000	0.800700	0.128400
H151	H15	0.101700	0.758900	0.156100
C291	C29	0.006300	0.894200	0.163700
C301	C30	0.909200	0.956800	0.120700
H161	H16	0.892800	0.020500	0.144900
C311	C31	0.419100	0.075200	0.253900
C321	C32	0.526100	0.333300	0.015000
C331	C33	0.974300	0.666700	0.013300
C341	C34	0.085800	0.932000	0.246600
O91	O9	0.475100	0.007700	0.300600
O101	O10	0.297300	0.112500	0.271900
O111	O11	0.438800	0.390400	0.051300
O121	O12	0.600400	0.355200	0.946200
O131	O13	0.882200	0.638900	0.956200
O141	O14	0.077800	0.618300	0.040600
O151	O15	0.205100	0.894300	0.267600
O161	O16	0.028700	0.001600	0.292300
Nd31	Nd3	0.749150	0.497550	0.906870
C351	C35	0.997600	0.389600	0.670500
C361	C36	0.973400	0.296000	0.634200
H171	H17	0.908400	0.252100	0.663300
C371	C37	0.045400	0.267300	0.554900
C381	C38	0.135700	0.334000	0.511700
H181	H18	0.185000	0.314400	0.458200
C391	C39	0.156100	0.429100	0.544900
C401	C40	0.089100	0.454100	0.625800
H191	H19	0.106200	0.517200	0.651300
C411	C41	0.241600	0.502400	0.490300
H201	H20	0.172500	0.541400	0.453400
H211	H21	0.303800	0.465600	0.447500
C421	C42	0.335800	0.572200	0.542800
C431	C43	0.356600	0.667000	0.510400
H221	H22	0.303100	0.688800	0.458900
C441	C44	0.454900	0.730700	0.552400
C451	C45	0.532000	0.699300	0.628400
H231	H23	0.601700	0.741100	0.656100
C461	C46	0.506300	0.605800	0.663700
C471	C47	0.409200	0.543200	0.620700
H241	H24	0.392800	0.479500	0.644900
C481	C48	0.919100	0.424800	0.753900
C491	C49	0.026100	0.166700	0.515000
C501	C50	0.474300	0.833300	0.513300
C511	C51	0.585800	0.568000	0.746600
O171	O17	0.975100	0.492300	0.800600
O181	O18	0.797300	0.387500	0.771900
O191	O19	0.938800	0.109600	0.551300
O201	O20	0.100400	0.144800	0.446200
O211	O21	0.382200	0.861100	0.456200
O221	O22	0.577800	0.881700	0.540600
O231	O23	0.705100	0.605700	0.767600
O241	O24	0.528700	0.498400	0.792300
Nd41	Nd4	0.750850	0.997550	0.593120
C521	C52	0.502400	0.889600	0.829500
C531	C53	0.526600	0.796000	0.865800
H251	H25	0.591600	0.752100	0.836700
C541	C54	0.454600	0.767300	0.945100
C551	C55	0.364300	0.834000	0.988300
H261	H26	0.315000	0.814400	0.041800
C561	C56	0.343900	0.929100	0.955100
C571	C57	0.410900	0.954100	0.874200
H271	H27	0.393800	0.017200	0.848700
C581	C58	0.258400	0.002400	0.009700
H281	H28	0.327500	0.041400	0.046600
H291	H29	0.196200	0.965600	0.052500
C591	C59	0.164200	0.072200	0.957200
C601	C60	0.143400	0.167000	0.989600
H301	H30	0.196900	0.188800	0.041100
C611	C61	0.045100	0.230700	0.947600
C621	C62	0.968000	0.199300	0.871600
H311	H31	0.898300	0.241100	0.843900
C631	C63	0.993700	0.105800	0.836300
C641	C64	0.090800	0.043200	0.879300
H321	H32	0.107200	0.979500	0.855100
C651	C65	0.580900	0.924800	0.746100
C661	C66	0.473900	0.666700	0.985000
C671	C67	0.025700	0.333300	0.986700
C681	C68	0.914200	0.068000	0.753400
O251	O25	0.524900	0.992300	0.699400
O261	O26	0.702700	0.887500	0.728100
O271	O27	0.561200	0.609600	0.948700
O281	O28	0.399600	0.644800	0.053800
O291	O29	0.117800	0.361100	0.043800
O301	O30	0.922200	0.381700	0.959400
O311	O31	0.794900	0.105700	0.732400
O321	O32	0.971300	0.998400	0.707700
