data_RAVCOI_clean_PM
_symmetry_space_group_name_H-M	'P1'
_cell_length_a	9.277000
_cell_length_b	13.619300
_cell_length_c	14.728800
_cell_angle_alpha	90.000000
_cell_angle_beta	90.274000
_cell_angle_gamma	90.000000
_symmetry_Int_Tables_number 1

loop_
_symmetry_equiv_pos_as_xyz
'x,y,z'

loop_
_atom_site_label
_atom_site_type_symbol
_atom_site_fract_x
_atom_site_fract_y
_atom_site_fract_z
Pr11	Pr1	0.251160	0.996850	0.092630
C11	C1	0.493500	0.104700	0.336600
C21	C2	0.467400	0.197600	0.372400
H11	H1	0.397000	0.239100	0.345200
C31	C3	0.544600	0.229500	0.447900
C41	C4	0.643400	0.166300	0.490000
H21	H2	0.696600	0.188200	0.541400
C51	C5	0.664300	0.072200	0.457300
C61	C6	0.591800	0.043400	0.379900
H31	H3	0.609400	0.979900	0.355400
C71	C7	0.759200	0.003100	0.509800
H41	H4	0.697000	0.971000	0.549000
H51	H5	0.823000	0.040000	0.549000
C81	C8	0.843800	0.929600	0.454800
C91	C9	0.911000	0.954800	0.373900
H61	H6	0.894000	0.017900	0.348500
C101	C10	0.002100	0.890200	0.329100
C111	C11	0.026300	0.796700	0.365500
H71	H7	0.091100	0.752800	0.336600
C121	C12	0.954800	0.768000	0.444600
C131	C13	0.864600	0.834900	0.488200
H81	H8	0.816200	0.815400	0.542000
C141	C14	0.414800	0.067400	0.254200
C151	C15	0.525300	0.331900	0.486700
C161	C16	0.080600	0.924900	0.246300
C171	C17	0.973900	0.667500	0.485100
O11	O1	0.471200	0.997500	0.208300
O21	O2	0.295700	0.104900	0.232800
O31	O3	0.419700	0.379900	0.460700
O41	O4	0.618300	0.361500	0.541500
O51	O5	0.024000	0.991100	0.198300
O61	O6	0.201400	0.887100	0.228600
O71	O7	0.061300	0.610200	0.448900
O81	O8	0.902300	0.646000	0.553900
Pr21	Pr2	0.248840	0.496850	0.407370
C181	C18	0.006500	0.604700	0.163400
C191	C19	0.032600	0.697600	0.127600
H91	H9	0.103000	0.739100	0.154800
C201	C20	0.955400	0.729500	0.052100
C211	C21	0.856600	0.666300	0.010000
H101	H10	0.803400	0.688200	0.958600
C221	C22	0.835700	0.572200	0.042700
C231	C23	0.908200	0.543400	0.120100
H111	H11	0.890600	0.479900	0.144600
C241	C24	0.740800	0.503100	0.990200
H121	H12	0.803000	0.471000	0.951000
H131	H13	0.677000	0.540000	0.951000
C251	C25	0.656200	0.429600	0.045200
C261	C26	0.589000	0.454800	0.126100
H141	H14	0.606000	0.517900	0.151500
C271	C27	0.497900	0.390200	0.170900
C281	C28	0.473700	0.296700	0.134500
H151	H15	0.408900	0.252800	0.163400
C291	C29	0.545200	0.268000	0.055400
C301	C30	0.635400	0.334900	0.011800
H161	H16	0.683800	0.315400	0.958000
C311	C31	0.085200	0.567400	0.245800
C321	C32	0.974700	0.831900	0.013300
C331	C33	0.419400	0.424900	0.253700
C341	C34	0.526100	0.167500	0.014900
O91	O9	0.028800	0.497500	0.291700
O101	O10	0.204300	0.604900	0.267200
O111	O11	0.080300	0.879900	0.039300
O121	O12	0.881700	0.861500	0.958500
O131	O13	0.476000	0.491100	0.301700
O141	O14	0.298600	0.387100	0.271400
O151	O15	0.438700	0.110200	0.051100
O161	O16	0.597700	0.146000	0.946100
Pr31	Pr3	0.748840	0.003150	0.907370
C351	C35	0.506500	0.895300	0.663400
C361	C36	0.532600	0.802400	0.627600
H171	H17	0.603000	0.760900	0.654800
C371	C37	0.455400	0.770500	0.552100
C381	C38	0.356600	0.833700	0.510000
H181	H18	0.303400	0.811800	0.458600
C391	C39	0.335700	0.927800	0.542700
C401	C40	0.408200	0.956600	0.620100
H191	H19	0.390600	0.020100	0.644600
C411	C41	0.240800	0.996900	0.490200
H201	H20	0.303000	0.029000	0.451000
H211	H21	0.177000	0.960000	0.451000
C421	C42	0.156200	0.070400	0.545200
C431	C43	0.089000	0.045200	0.626100
H221	H22	0.106000	0.982100	0.651500
C441	C44	0.997900	0.109800	0.670900
C451	C45	0.973700	0.203300	0.634500
H231	H23	0.908900	0.247200	0.663400
C461	C46	0.045200	0.232000	0.555400
C471	C47	0.135400	0.165100	0.511800
H241	H24	0.183800	0.184600	0.458000
C481	C48	0.585200	0.932600	0.745800
C491	C49	0.474700	0.668100	0.513300
C501	C50	0.919400	0.075100	0.753700
C511	C51	0.026100	0.332500	0.514900
O171	O17	0.528800	0.002500	0.791700
O181	O18	0.704300	0.895100	0.767200
O191	O19	0.580300	0.620100	0.539300
O201	O20	0.381700	0.638500	0.458500
O211	O21	0.976000	0.008900	0.801700
O221	O22	0.798600	0.112900	0.771400
O231	O23	0.938700	0.389800	0.551100
O241	O24	0.097700	0.354000	0.446100
Pr41	Pr4	0.751160	0.503150	0.592630
C521	C52	0.993500	0.395300	0.836600
C531	C53	0.967400	0.302400	0.872400
H251	H25	0.897000	0.260900	0.845200
C541	C54	0.044600	0.270500	0.947900
C551	C55	0.143400	0.333700	0.990000
H261	H26	0.196600	0.311800	0.041400
C561	C56	0.164300	0.427800	0.957300
C571	C57	0.091800	0.456600	0.879900
H271	H27	0.109400	0.520100	0.855400
C581	C58	0.259200	0.496900	0.009800
H281	H28	0.197000	0.529000	0.049000
H291	H29	0.323000	0.460000	0.049000
C591	C59	0.343800	0.570400	0.954800
C601	C60	0.411000	0.545200	0.873900
H301	H30	0.394000	0.482100	0.848500
C611	C61	0.502100	0.609800	0.829100
C621	C62	0.526300	0.703300	0.865500
H311	H31	0.591100	0.747200	0.836600
C631	C63	0.454800	0.732000	0.944600
C641	C64	0.364600	0.665100	0.988200
H321	H32	0.316200	0.684600	0.042000
C651	C65	0.914800	0.432600	0.754200
C661	C66	0.025300	0.168100	0.986700
C671	C67	0.580600	0.575100	0.746300
C681	C68	0.473900	0.832500	0.985100
O251	O25	0.971200	0.502500	0.708300
O261	O26	0.795700	0.395100	0.732800
O271	O27	0.919700	0.120100	0.960700
O281	O28	0.118300	0.138500	0.041500
O291	O29	0.524000	0.508900	0.698300
O301	O30	0.701400	0.612900	0.728600
O311	O31	0.561300	0.889800	0.948900
O321	O32	0.402300	0.854000	0.053900
