data_RAVDUP_clean_PM
_symmetry_space_group_name_H-M	'P1'
_cell_length_a	9.200600
_cell_length_b	13.437800
_cell_length_c	14.563600
_cell_angle_alpha	90.000000
_cell_angle_beta	90.356000
_cell_angle_gamma	90.000000
_symmetry_Int_Tables_number 1

loop_
_symmetry_equiv_pos_as_xyz
'x,y,z'

loop_
_atom_site_label
_atom_site_type_symbol
_atom_site_fract_x
_atom_site_fract_y
_atom_site_fract_z
Dy11	Dy1	0.251100	0.496980	0.592140
C11	C1	0.004700	0.388900	0.827300
C21	C2	0.029600	0.294400	0.864300
H11	H1	0.095600	0.250200	0.835400
C31	C3	0.957100	0.265200	0.943900
C41	C4	0.865000	0.332800	0.987400
H21	H2	0.814700	0.312900	0.041100
C51	C5	0.845400	0.428800	0.953600
C61	C6	0.912200	0.454100	0.871700
H31	H3	0.894100	0.517700	0.845400
C71	C7	0.760600	0.503000	0.009400
H41	H4	0.699700	0.465800	0.053500
H51	H5	0.830500	0.543200	0.045700
C81	C8	0.664000	0.573000	0.956900
C91	C9	0.589800	0.543500	0.878600
H61	H6	0.607000	0.479100	0.854100
C101	C10	0.490800	0.605900	0.835100
C111	C11	0.463500	0.700100	0.871400
H71	H7	0.391600	0.741600	0.844300
C121	C12	0.542100	0.733000	0.947500
C131	C13	0.642600	0.668700	0.989500
H81	H8	0.697000	0.691200	0.041100
C141	C14	0.083800	0.425300	0.743300
C151	C15	0.976600	0.162800	0.984300
C161	C16	0.411500	0.567400	0.751500
C171	C17	0.523700	0.836600	0.986200
O11	O1	0.026800	0.492600	0.695110
O21	O2	0.206700	0.388500	0.724790
O31	O3	0.068300	0.106800	0.949910
O41	O4	0.898500	0.140300	0.052700
O51	O5	0.470300	0.497600	0.705250
O61	O6	0.291200	0.604300	0.728910
O71	O7	0.414700	0.884900	0.961790
O81	O8	0.619700	0.867300	0.040340
Dy21	Dy2	0.248900	0.996980	0.907860
C181	C18	0.495300	0.888900	0.672700
C191	C19	0.470400	0.794400	0.635700
H91	H9	0.404400	0.750200	0.664600
C201	C20	0.542900	0.765200	0.556100
C211	C21	0.635000	0.832800	0.512600
H101	H10	0.685300	0.812900	0.458900
C221	C22	0.654600	0.928800	0.546400
C231	C23	0.587800	0.954100	0.628300
H111	H11	0.605900	0.017700	0.654600
C241	C24	0.739400	0.003000	0.490600
H121	H12	0.800300	0.965800	0.446500
H131	H13	0.669500	0.043200	0.454300
C251	C25	0.836000	0.073000	0.543100
C261	C26	0.910200	0.043500	0.621400
H141	H14	0.893000	0.979100	0.645900
C271	C27	0.009200	0.105900	0.664900
C281	C28	0.036500	0.200100	0.628600
H151	H15	0.108400	0.241600	0.655700
C291	C29	0.957900	0.233000	0.552500
C301	C30	0.857400	0.168700	0.510500
H161	H16	0.803000	0.191200	0.458900
C311	C31	0.416200	0.925300	0.756700
C321	C32	0.523400	0.662800	0.515700
C331	C33	0.088500	0.067400	0.748500
C341	C34	0.976300	0.336600	0.513800
O91	O9	0.473200	0.992600	0.804890
O101	O10	0.293300	0.888500	0.775210
O111	O11	0.431700	0.606800	0.550090
O121	O12	0.601500	0.640300	0.447300
O131	O13	0.029700	0.997600	0.794750
O141	O14	0.208800	0.104300	0.771090
O151	O15	0.085300	0.384900	0.538210
O161	O16	0.880300	0.367300	0.459660
Dy31	Dy3	0.748900	0.503020	0.407860
C351	C35	0.995300	0.611100	0.172700
C361	C36	0.970400	0.705600	0.135700
H171	H17	0.904400	0.749800	0.164600
C371	C37	0.042900	0.734800	0.056100
C381	C38	0.135000	0.667200	0.012600
H181	H18	0.185300	0.687100	0.958900
C391	C39	0.154600	0.571200	0.046400
C401	C40	0.087800	0.545900	0.128300
H191	H19	0.105900	0.482300	0.154600
C411	C41	0.239400	0.497000	0.990600
H201	H20	0.300300	0.534200	0.946500
H211	H21	0.169500	0.456800	0.954300
C421	C42	0.336000	0.427000	0.043100
C431	C43	0.410200	0.456500	0.121400
H221	H22	0.393000	0.520900	0.145900
C441	C44	0.509200	0.394100	0.164900
C451	C45	0.536500	0.299900	0.128600
H231	H23	0.608400	0.258400	0.155700
C461	C46	0.457900	0.267000	0.052500
C471	C47	0.357400	0.331300	0.010500
H241	H24	0.303000	0.308800	0.958900
C481	C48	0.916200	0.574700	0.256700
C491	C49	0.023400	0.837200	0.015700
C501	C50	0.588500	0.432600	0.248500
C511	C51	0.476300	0.163400	0.013800
O171	O17	0.973200	0.507400	0.304890
O181	O18	0.793300	0.611500	0.275210
O191	O19	0.931700	0.893200	0.050090
O201	O20	0.101500	0.859700	0.947300
O211	O21	0.529700	0.502400	0.294750
O221	O22	0.708800	0.395700	0.271090
O231	O23	0.585300	0.115100	0.038210
O241	O24	0.380300	0.132700	0.959660
Dy41	Dy4	0.751100	0.003020	0.092140
C521	C52	0.504700	0.111100	0.327300
C531	C53	0.529600	0.205600	0.364300
H251	H25	0.595600	0.249800	0.335400
C541	C54	0.457100	0.234800	0.443900
C551	C55	0.365000	0.167200	0.487400
H261	H26	0.314700	0.187100	0.541100
C561	C56	0.345400	0.071200	0.453600
C571	C57	0.412200	0.045900	0.371700
H271	H27	0.394100	0.982300	0.345400
C581	C58	0.260600	0.997000	0.509400
H281	H28	0.199700	0.034200	0.553500
H291	H29	0.330500	0.956800	0.545700
C591	C59	0.164000	0.927000	0.456900
C601	C60	0.089800	0.956500	0.378600
H301	H30	0.107000	0.020900	0.354100
C611	C61	0.990800	0.894100	0.335100
C621	C62	0.963500	0.799900	0.371400
H311	H31	0.891600	0.758400	0.344300
C631	C63	0.042100	0.767000	0.447500
C641	C64	0.142600	0.831300	0.489500
H321	H32	0.197000	0.808800	0.541100
C651	C65	0.583800	0.074700	0.243300
C661	C66	0.476600	0.337200	0.484300
C671	C67	0.911500	0.932600	0.251500
C681	C68	0.023700	0.663400	0.486200
O251	O25	0.526800	0.007400	0.195110
O261	O26	0.706700	0.111500	0.224790
O271	O27	0.568300	0.393200	0.449910
O281	O28	0.398500	0.359700	0.552700
O291	O29	0.970300	0.002400	0.205250
O301	O30	0.791200	0.895700	0.228910
O311	O31	0.914700	0.615100	0.461790
O321	O32	0.119700	0.632700	0.540340
