data_RAVFEB_clean_PM
_symmetry_space_group_name_H-M	'P1'
_cell_length_a	15.695800
_cell_length_b	10.698400
_cell_length_c	23.264400
_cell_angle_alpha	90.000000
_cell_angle_beta	90.000000
_cell_angle_gamma	90.000000
_symmetry_Int_Tables_number 1

loop_
_symmetry_equiv_pos_as_xyz
'x,y,z'

loop_
_atom_site_label
_atom_site_type_symbol
_atom_site_fract_x
_atom_site_fract_y
_atom_site_fract_z
Tm11	Tm1	0.547840	0.030630	0.084130
C11	C1	0.405970	0.250100	0.203080
C21	C2	0.382750	0.202900	0.256000
H11	H1	0.400300	0.121400	0.267000
C31	C3	0.333620	0.274900	0.293250
C41	C4	0.307540	0.392900	0.276200
H21	H2	0.271500	0.440200	0.300800
C51	C5	0.332990	0.443800	0.223710
C61	C6	0.382200	0.371300	0.187310
H31	H3	0.400000	0.404100	0.151300
C71	C7	0.309600	0.577900	0.209100
H41	H4	0.253400	0.596500	0.226500
H51	H5	0.351800	0.633900	0.227400
C81	C8	0.305290	0.609800	0.145900
C91	C9	0.235500	0.572900	0.112810
H61	H6	0.190800	0.526400	0.130200
C101	C10	0.230470	0.603100	0.054570
C111	C11	0.296500	0.671300	0.029190
H71	H7	0.294500	0.689900	0.989300
C121	C12	0.364950	0.711700	0.062010
C131	C13	0.369220	0.680600	0.120030
H81	H8	0.416400	0.707900	0.142300
C141	C14	0.457150	0.174200	0.161400
C151	C15	0.307700	0.221900	0.350730
C161	C16	0.155020	0.566700	0.018860
C171	C17	0.430580	0.795300	0.034760
O11	O1	0.491120	0.226200	0.119400
O21	O2	0.464950	0.056300	0.169000
O31	O3	0.657830	0.122700	0.132570
O41	O4	0.251380	0.277000	0.379200
O51	O5	0.415930	0.054200	0.042740
O61	O6	0.666830	0.948600	0.034480
O71	O7	0.579710	0.179000	0.017350
O81	O8	0.490580	0.834300	0.065980
Tm21	Tm2	0.952160	0.469370	0.584130
C181	C18	0.094030	0.249900	0.703080
C191	C19	0.117250	0.297100	0.756000
H91	H9	0.099700	0.378600	0.767000
C201	C20	0.166380	0.225100	0.793250
C211	C21	0.192460	0.107100	0.776200
H101	H10	0.228500	0.059800	0.800800
C221	C22	0.167010	0.056200	0.723710
C231	C23	0.117800	0.128700	0.687310
H111	H11	0.100000	0.095900	0.651300
C241	C24	0.190400	0.922100	0.709100
H121	H12	0.246600	0.903500	0.726500
H131	H13	0.148200	0.866100	0.727400
C251	C25	0.194710	0.890200	0.645900
C261	C26	0.264500	0.927100	0.612810
H141	H14	0.309200	0.973600	0.630200
C271	C27	0.269530	0.896900	0.554570
C281	C28	0.203500	0.828700	0.529190
H151	H15	0.205500	0.810100	0.489300
C291	C29	0.135050	0.788300	0.562010
C301	C30	0.130780	0.819400	0.620030
H161	H16	0.083600	0.792100	0.642300
C311	C31	0.042850	0.325800	0.661400
C321	C32	0.192300	0.278100	0.850730
C331	C33	0.344980	0.933300	0.518860
C341	C34	0.069420	0.704700	0.534760
O91	O9	0.008880	0.273800	0.619400
O101	O10	0.035050	0.443700	0.669000
O111	O11	0.842170	0.377300	0.632570
O121	O12	0.248620	0.223000	0.879200
O131	O13	0.084070	0.445800	0.542740
O141	O14	0.833170	0.551400	0.534480
O151	O15	0.920290	0.321000	0.517350
O161	O16	0.009420	0.665700	0.565980
Tm31	Tm3	0.452160	0.030630	0.415870
C351	C35	0.594030	0.250100	0.296920
C361	C36	0.617250	0.202900	0.244000
H171	H17	0.599700	0.121400	0.233000
C371	C37	0.666380	0.274900	0.206750
C381	C38	0.692460	0.392900	0.223800
H181	H18	0.728500	0.440200	0.199200
C391	C39	0.667010	0.443800	0.276290
C401	C40	0.617800	0.371300	0.312690
H191	H19	0.600000	0.404100	0.348700
C411	C41	0.690400	0.577900	0.290900
H201	H20	0.746600	0.596500	0.273500
H211	H21	0.648200	0.633900	0.272600
C421	C42	0.694710	0.609800	0.354100
C431	C43	0.764500	0.572900	0.387190
H221	H22	0.809200	0.526400	0.369800
C441	C44	0.769530	0.603100	0.445430
C451	C45	0.703500	0.671300	0.470810
H231	H23	0.705500	0.689900	0.510700
C461	C46	0.635050	0.711700	0.437990
C471	C47	0.630780	0.680600	0.379970
H241	H24	0.583600	0.707900	0.357700
C481	C48	0.542850	0.174200	0.338600
C491	C49	0.692300	0.221900	0.149270
C501	C50	0.844980	0.566700	0.481140
C511	C51	0.569420	0.795300	0.465240
O171	O17	0.508880	0.226200	0.380600
O181	O18	0.535050	0.056300	0.331000
O191	O19	0.342170	0.122700	0.367430
O201	O20	0.748620	0.277000	0.120800
O211	O21	0.584070	0.054200	0.457260
O221	O22	0.333170	0.948600	0.465520
O231	O23	0.420290	0.179000	0.482650
O241	O24	0.509420	0.834300	0.434020
Tm41	Tm4	0.047840	0.469370	0.915870
C521	C52	0.905970	0.249900	0.796920
C531	C53	0.882750	0.297100	0.744000
H251	H25	0.900300	0.378600	0.733000
C541	C54	0.833620	0.225100	0.706750
C551	C55	0.807540	0.107100	0.723800
H261	H26	0.771500	0.059800	0.699200
C561	C56	0.832990	0.056200	0.776290
C571	C57	0.882200	0.128700	0.812690
H271	H27	0.900000	0.095900	0.848700
C581	C58	0.809600	0.922100	0.790900
H281	H28	0.753400	0.903500	0.773500
H291	H29	0.851800	0.866100	0.772600
C591	C59	0.805290	0.890200	0.854100
C601	C60	0.735500	0.927100	0.887190
H301	H30	0.690800	0.973600	0.869800
C611	C61	0.730470	0.896900	0.945430
C621	C62	0.796500	0.828700	0.970810
H311	H31	0.794500	0.810100	0.010700
C631	C63	0.864950	0.788300	0.937990
C641	C64	0.869220	0.819400	0.879970
H321	H32	0.916400	0.792100	0.857700
C651	C65	0.957150	0.325800	0.838600
C661	C66	0.807700	0.278100	0.649270
C671	C67	0.655020	0.933300	0.981140
C681	C68	0.930580	0.704700	0.965240
O251	O25	0.991120	0.273800	0.880600
O261	O26	0.964950	0.443700	0.831000
O271	O27	0.157830	0.377300	0.867430
O281	O28	0.751380	0.223000	0.620800
O291	O29	0.915930	0.445800	0.957260
O301	O30	0.166830	0.551400	0.965520
O311	O31	0.079710	0.321000	0.982650
O321	O32	0.990580	0.665700	0.934020
Tm51	Tm5	0.452160	0.969370	0.915870
C691	C69	0.594030	0.749900	0.796920
C701	C70	0.617250	0.797100	0.744000
H331	H33	0.599700	0.878600	0.733000
C711	C71	0.666380	0.725100	0.706750
C721	C72	0.692460	0.607100	0.723800
H341	H34	0.728500	0.559800	0.699200
C731	C73	0.667010	0.556200	0.776290
C741	C74	0.617800	0.628700	0.812690
H351	H35	0.600000	0.595900	0.848700
C751	C75	0.690400	0.422100	0.790900
H361	H36	0.746600	0.403500	0.773500
H371	H37	0.648200	0.366100	0.772600
C761	C76	0.694710	0.390200	0.854100
C771	C77	0.764500	0.427100	0.887190
H381	H38	0.809200	0.473600	0.869800
C781	C78	0.769530	0.396900	0.945430
C791	C79	0.703500	0.328700	0.970810
H391	H39	0.705500	0.310100	0.010700
C801	C80	0.635050	0.288300	0.937990
C811	C81	0.630780	0.319400	0.879970
H401	H40	0.583600	0.292100	0.857700
C821	C82	0.542850	0.825800	0.838600
C831	C83	0.692300	0.778100	0.649270
C841	C84	0.844980	0.433300	0.981140
C851	C85	0.569420	0.204700	0.965240
O331	O33	0.508880	0.773800	0.880600
O341	O34	0.535050	0.943700	0.831000
O351	O35	0.342170	0.877300	0.867430
O361	O36	0.748620	0.723000	0.620800
O371	O37	0.584070	0.945800	0.957260
O381	O38	0.333170	0.051400	0.965520
O391	O39	0.420290	0.821000	0.982650
O401	O40	0.509420	0.165700	0.934020
Tm61	Tm6	0.047840	0.530630	0.415870
C861	C86	0.905970	0.750100	0.296920
C871	C87	0.882750	0.702900	0.244000
H411	H41	0.900300	0.621400	0.233000
C881	C88	0.833620	0.774900	0.206750
C891	C89	0.807540	0.892900	0.223800
H421	H42	0.771500	0.940200	0.199200
C901	C90	0.832990	0.943800	0.276290
C911	C91	0.882200	0.871300	0.312690
H431	H43	0.900000	0.904100	0.348700
C921	C92	0.809600	0.077900	0.290900
H441	H44	0.753400	0.096500	0.273500
H451	H45	0.851800	0.133900	0.272600
C931	C93	0.805290	0.109800	0.354100
C941	C94	0.735500	0.072900	0.387190
H461	H46	0.690800	0.026400	0.369800
C951	C95	0.730470	0.103100	0.445430
C961	C96	0.796500	0.171300	0.470810
H471	H47	0.794500	0.189900	0.510700
C971	C97	0.864950	0.211700	0.437990
C981	C98	0.869220	0.180600	0.379970
H481	H48	0.916400	0.207900	0.357700
C991	C99	0.957150	0.674200	0.338600
C1001	C100	0.807700	0.721900	0.149270
C1011	C101	0.655020	0.066700	0.481140
C1021	C102	0.930580	0.295300	0.465240
O411	O41	0.991120	0.726200	0.380600
O421	O42	0.964950	0.556300	0.331000
O431	O43	0.157830	0.622700	0.367430
O441	O44	0.751380	0.777000	0.120800
O451	O45	0.915930	0.554200	0.457260
O461	O46	0.166830	0.448600	0.465520
O471	O47	0.079710	0.679000	0.482650
O481	O48	0.990580	0.334300	0.434020
Tm71	Tm7	0.547840	0.969370	0.584130
C1031	C103	0.405970	0.749900	0.703080
C1041	C104	0.382750	0.797100	0.756000
H491	H49	0.400300	0.878600	0.767000
C1051	C105	0.333620	0.725100	0.793250
C1061	C106	0.307540	0.607100	0.776200
H501	H50	0.271500	0.559800	0.800800
C1071	C107	0.332990	0.556200	0.723710
C1081	C108	0.382200	0.628700	0.687310
H511	H51	0.400000	0.595900	0.651300
C1091	C109	0.309600	0.422100	0.709100
H521	H52	0.253400	0.403500	0.726500
H531	H53	0.351800	0.366100	0.727400
C1101	C110	0.305290	0.390200	0.645900
C1111	C111	0.235500	0.427100	0.612810
H541	H54	0.190800	0.473600	0.630200
C1121	C112	0.230470	0.396900	0.554570
C1131	C113	0.296500	0.328700	0.529190
H551	H55	0.294500	0.310100	0.489300
C1141	C114	0.364950	0.288300	0.562010
C1151	C115	0.369220	0.319400	0.620030
H561	H56	0.416400	0.292100	0.642300
C1161	C116	0.457150	0.825800	0.661400
C1171	C117	0.307700	0.778100	0.850730
C1181	C118	0.155020	0.433300	0.518860
C1191	C119	0.430580	0.204700	0.534760
O491	O49	0.491120	0.773800	0.619400
O501	O50	0.464950	0.943700	0.669000
O511	O51	0.657830	0.877300	0.632570
O521	O52	0.251380	0.723000	0.879200
O531	O53	0.415930	0.945800	0.542740
O541	O54	0.666830	0.051400	0.534480
O551	O55	0.579710	0.821000	0.517350
O561	O56	0.490580	0.165700	0.565980
Tm81	Tm8	0.952160	0.530630	0.084130
C1201	C120	0.094030	0.750100	0.203080
C1211	C121	0.117250	0.702900	0.256000
H571	H57	0.099700	0.621400	0.267000
C1221	C122	0.166380	0.774900	0.293250
C1231	C123	0.192460	0.892900	0.276200
H581	H58	0.228500	0.940200	0.300800
C1241	C124	0.167010	0.943800	0.223710
C1251	C125	0.117800	0.871300	0.187310
H591	H59	0.100000	0.904100	0.151300
C1261	C126	0.190400	0.077900	0.209100
H601	H60	0.246600	0.096500	0.226500
H611	H61	0.148200	0.133900	0.227400
C1271	C127	0.194710	0.109800	0.145900
C1281	C128	0.264500	0.072900	0.112810
H621	H62	0.309200	0.026400	0.130200
C1291	C129	0.269530	0.103100	0.054570
C1301	C130	0.203500	0.171300	0.029190
H631	H63	0.205500	0.189900	0.989300
C1311	C131	0.135050	0.211700	0.062010
C1321	C132	0.130780	0.180600	0.120030
H641	H64	0.083600	0.207900	0.142300
C1331	C133	0.042850	0.674200	0.161400
C1341	C134	0.192300	0.721900	0.350730
C1351	C135	0.344980	0.066700	0.018860
C1361	C136	0.069420	0.295300	0.034760
O571	O57	0.008880	0.726200	0.119400
O581	O58	0.035050	0.556300	0.169000
O591	O59	0.842170	0.622700	0.132570
O601	O60	0.248620	0.777000	0.379200
O611	O61	0.084070	0.554200	0.042740
O621	O62	0.833170	0.448600	0.034480
O631	O63	0.920290	0.679000	0.017350
O641	O64	0.009420	0.334300	0.065980
