data_RAVWUI_clean_PM
_symmetry_space_group_name_H-M	'P1'
_cell_length_a	6.815200
_cell_length_b	45.461500
_cell_length_c	45.461500
_cell_angle_alpha	60.247500
_cell_angle_beta	87.135700
_cell_angle_gamma	92.864300
_symmetry_Int_Tables_number 1

loop_
_symmetry_equiv_pos_as_xyz
'x,y,z'

loop_
_atom_site_label
_atom_site_type_symbol
_atom_site_fract_x
_atom_site_fract_y
_atom_site_fract_z
Zn11	Zn1	0.055710	0.360190	0.325320
Zn21	Zn2	0.989060	0.641560	0.669000
Zn31	Zn3	0.381030	0.325320	0.314490
Zn41	Zn4	0.658060	0.669000	0.689440
Zn51	Zn5	0.695520	0.314490	0.360190
Zn61	Zn6	0.347500	0.689440	0.641560
H11	H1	0.943640	0.505670	0.500290
H21	H2	0.137600	0.500190	0.526610
H31	H3	0.117150	0.540540	0.490280
H41	H4	0.592700	0.452840	0.427510
H51	H5	0.557670	0.492540	0.391040
H61	H6	0.759460	0.488980	0.415620
H71	H7	0.166150	0.383220	0.492470
H81	H8	0.203530	0.419950	0.495690
H91	H9	0.956760	0.401640	0.500180
H101	H10	0.871320	0.485370	0.338120
H111	H11	0.113750	0.506020	0.330990
H121	H12	0.085170	0.466790	0.331870
H131	H13	0.710650	0.513420	0.448550
H141	H14	0.944370	0.579150	0.482990
H151	H15	0.218240	0.502830	0.379940
H161	H16	0.908490	0.387300	0.449990
H171	H17	0.497990	0.592720	0.578790
H181	H18	0.700220	0.610410	0.609170
H191	H19	0.005980	0.636840	0.597800
H201	H20	0.045510	0.381020	0.387820
H211	H21	0.368740	0.414320	0.362110
H221	H22	0.580690	0.442020	0.382850
H231	H23	0.170840	0.632820	0.533690
H241	H24	0.738940	0.528190	0.591750
H251	H25	0.995990	0.478290	0.470090
H261	H26	0.331480	0.506360	0.532990
H271	H27	0.828560	0.564960	0.641840
H281	H28	0.739780	0.527650	0.642540
H291	H29	0.988250	0.532010	0.650470
H301	H30	0.063310	0.614720	0.476590
H311	H31	0.819650	0.626350	0.480630
H321	H32	0.028460	0.649670	0.482410
H331	H33	0.291310	0.532670	0.569110
H341	H34	0.471090	0.503330	0.590920
H351	H35	0.506710	0.546450	0.580580
H361	H36	0.848830	0.539960	0.440350
H371	H37	0.675590	0.571910	0.422590
H381	H38	0.914060	0.581590	0.431700
H391	H39	0.443930	0.500290	0.994040
H401	H40	0.664210	0.526610	0.973200
H411	H41	0.607430	0.490280	0.969180
H421	H42	0.020210	0.427510	0.119650
H431	H43	0.948710	0.391040	0.116420
H441	H44	0.175080	0.415620	0.095400
H451	H45	0.658620	0.492470	0.124310
H461	H46	0.699220	0.495690	0.084360
H471	H47	0.456940	0.500180	0.098180
H481	H48	0.209440	0.338120	0.176510
H491	H49	0.444740	0.330990	0.162990
H501	H50	0.417040	0.331870	0.201340
H511	H51	0.159200	0.448550	0.038030
H521	H52	0.427360	0.482990	0.937860
H531	H53	0.598180	0.379940	0.117230
H541	H54	0.358480	0.449990	0.162710
H551	H55	0.076780	0.578790	0.828490
H561	H56	0.309390	0.609170	0.780420
H571	H57	0.603780	0.597800	0.765360
H581	H58	0.433330	0.387820	0.231160
H591	H59	0.730850	0.362110	0.223570
H601	H60	0.963540	0.382850	0.175130
H611	H61	0.704530	0.533690	0.833490
H621	H62	0.330690	0.591750	0.880060
H631	H63	0.466080	0.470090	0.051620
H641	H64	0.864470	0.532990	0.960650
H651	H65	0.470400	0.641840	0.793200
H661	H66	0.382320	0.642540	0.829810
H671	H67	0.638720	0.650470	0.817520
H681	H68	0.539900	0.476590	0.908690
H691	H69	0.300280	0.480630	0.893020
H701	H70	0.510870	0.482410	0.867920
H711	H71	0.860420	0.569110	0.898220
H721	H72	0.062010	0.590920	0.905750
H731	H73	0.087290	0.580580	0.872970
H741	H74	0.289180	0.440350	0.019690
H751	H75	0.098180	0.422590	0.005500
H761	H76	0.345760	0.431700	0.986710
H771	H77	0.437970	0.994040	0.505670
H781	H78	0.637410	0.973200	0.500190
H791	H79	0.576610	0.969180	0.540540
H801	H80	0.139860	0.119650	0.452840
H811	H81	0.065130	0.116420	0.492540
H821	H82	0.270480	0.095400	0.488980
H831	H83	0.782930	0.124310	0.383220
H841	H84	0.783580	0.084360	0.419950
H851	H85	0.555120	0.098180	0.401640
H861	H86	0.385950	0.176510	0.485370
H871	H87	0.607730	0.162990	0.506020
H881	H88	0.618380	0.201340	0.466790
H891	H89	0.197230	0.038030	0.513420
H901	H90	0.365220	0.937860	0.579150
H911	H91	0.715410	0.117230	0.502830
H921	H92	0.521190	0.162710	0.387300
H931	H93	0.905270	0.828490	0.592720
H941	H94	0.089810	0.780420	0.610410
H951	H95	0.369140	0.765360	0.636840
H961	H96	0.664490	0.231160	0.381020
H971	H97	0.954420	0.223570	0.414320
H981	H98	0.138670	0.175130	0.442020
H991	H99	0.538020	0.833490	0.632820
H1001	H100	0.210750	0.880060	0.528190
H1011	H101	0.517700	0.051620	0.478290
H1021	H102	0.825120	0.960650	0.506360
H1031	H103	0.263600	0.793200	0.564960
H1041	H104	0.212130	0.829810	0.527650
H1051	H105	0.456240	0.817520	0.532010
H1061	H106	0.448590	0.908690	0.614720
H1071	H107	0.193300	0.893020	0.626350
H1081	H108	0.378790	0.867920	0.649670
H1091	H109	0.758640	0.898220	0.532670
H1101	H110	0.967760	0.905750	0.503330
H1111	H111	0.960260	0.872970	0.546450
H1121	H112	0.308870	0.019690	0.539960
H1131	H113	0.103680	0.005500	0.571910
H1141	H114	0.332470	0.986710	0.581590
C11	C1	0.100670	0.513160	0.500340
C21	C2	0.602960	0.480310	0.416850
C31	C3	0.104570	0.407140	0.486510
C41	C4	0.027990	0.481270	0.343200
C51	C5	0.554140	0.506160	0.452840
C61	C6	0.437850	0.514060	0.473370
C71	C7	0.233380	0.504290	0.479440
C81	C8	0.805160	0.564710	0.493240
C91	C9	0.471650	0.488810	0.438130
C101	C10	0.267950	0.478850	0.444370
C111	C11	0.045050	0.462390	0.380270
C121	C12	0.152710	0.477430	0.395100
C131	C13	0.171590	0.460460	0.429580
C141	C14	0.085730	0.427360	0.449520
C151	C15	0.977590	0.412460	0.434650
C161	C16	0.953860	0.429810	0.400400
C171	C17	0.549510	0.616870	0.607050
C181	C18	0.431970	0.605810	0.590170
C191	C19	0.232090	0.611270	0.588190
C201	C20	0.156570	0.630550	0.601020
C211	C21	0.780200	0.372260	0.369010
C221	C22	0.582290	0.380770	0.362220
C231	C23	0.443120	0.365950	0.348120
C241	C24	0.608320	0.643460	0.641440
C251	C25	0.474180	0.635080	0.621480
C261	C26	0.272810	0.642370	0.617700
C271	C27	0.898450	0.388460	0.381490
C281	C28	0.828720	0.413610	0.386480
C291	C29	0.637190	0.422540	0.379240
C301	C30	0.515780	0.406340	0.367450
C311	C31	0.058660	0.591450	0.581750
C321	C32	0.073640	0.610260	0.546410
C331	C33	0.962780	0.600760	0.527190
C341	C34	0.843430	0.570340	0.543660
C351	C35	0.831000	0.551370	0.578990
C361	C36	0.926010	0.562700	0.598150
C371	C37	0.728260	0.557870	0.524860
C381	C38	0.550790	0.537400	0.538770
C391	C39	0.151420	0.486530	0.465040
C401	C40	0.708780	0.552180	0.475130
C411	C41	0.536420	0.530760	0.489710
C421	C42	0.461420	0.523370	0.521470
C431	C43	0.868340	0.545840	0.635290
C441	C44	0.968850	0.624070	0.489600
C451	C45	0.450840	0.529630	0.571740
C461	C46	0.791550	0.561910	0.440520
C471	C47	0.601010	0.500340	0.986500
C481	C48	0.019810	0.416850	0.102840
C491	C49	0.591080	0.486510	0.106350
C501	C50	0.371190	0.343200	0.175530
C511	C51	0.006980	0.452840	0.041000
C521	C52	0.911220	0.473370	0.012570
C531	C53	0.712820	0.479440	0.016270
C541	C54	0.298400	0.493240	0.942050
C551	C55	0.909780	0.438130	0.073060
C561	C56	0.712320	0.444370	0.076780
C571	C57	0.425320	0.380270	0.157340
C581	C58	0.547810	0.395100	0.127470
C591	C59	0.601170	0.429580	0.109960
C601	C60	0.535250	0.449520	0.123120
C611	C61	0.412240	0.434650	0.152890
C621	C62	0.354260	0.400400	0.169790
C631	C63	0.156560	0.607050	0.776080
C641	C64	0.022140	0.590170	0.804020
C651	C65	0.820280	0.588190	0.800540
C661	C66	0.757590	0.601020	0.768430
C671	C67	0.149210	0.369010	0.258730
C681	C68	0.944510	0.362220	0.257010
C691	C69	0.791240	0.348120	0.285930
C701	C70	0.249760	0.641440	0.715100
C711	C71	0.095660	0.621480	0.743440
C721	C72	0.890510	0.617700	0.739930
C731	C73	0.279940	0.381490	0.230050
C741	C74	0.215200	0.386480	0.199910
C751	C75	0.016430	0.379240	0.198220
C761	C76	0.883230	0.367450	0.226210
C771	C77	0.640410	0.581750	0.826800
C781	C78	0.620050	0.546410	0.843330
C791	C79	0.489970	0.527190	0.872050
C801	C80	0.387090	0.543660	0.886000
C811	C81	0.409990	0.578990	0.869640
C821	C82	0.524160	0.598150	0.839150
C831	C83	0.253120	0.524860	0.917270
C841	C84	0.089560	0.538770	0.923830
C851	C85	0.616460	0.465040	0.048430
C861	C86	0.183910	0.475130	0.972690
C871	C87	0.026130	0.489710	0.979530
C881	C88	0.982890	0.521470	0.955160
C891	C89	0.503630	0.635290	0.818870
C901	C90	0.458450	0.489600	0.886330
C911	C91	0.022580	0.571740	0.898630
C921	C92	0.232070	0.440520	0.997570
C931	C93	0.587510	0.986500	0.513160
C941	C94	0.122650	0.102840	0.480310
C951	C95	0.697430	0.106350	0.407140
C961	C96	0.546720	0.175530	0.481270
C971	C97	0.047980	0.041000	0.506160
C981	C98	0.923790	0.012570	0.514060
C991	C99	0.729090	0.016270	0.504290
C1001	C100	0.240450	0.942050	0.564710
C1011	C101	0.982840	0.073060	0.488810
C1021	C102	0.789100	0.076780	0.478850
C1031	C103	0.582660	0.157340	0.462390
C1041	C104	0.675280	0.127470	0.477430
C1051	C105	0.711130	0.109960	0.460460
C1061	C106	0.658370	0.123120	0.427360
C1071	C107	0.565130	0.152890	0.412460
C1081	C108	0.524050	0.169790	0.429810
C1091	C109	0.932640	0.776080	0.616870
C1101	C110	0.826160	0.804020	0.605810
C1111	C111	0.620820	0.800540	0.611270
C1121	C112	0.526020	0.768430	0.630550
C1131	C113	0.407940	0.258730	0.372260
C1141	C114	0.201520	0.257010	0.380770
C1151	C115	0.077170	0.285930	0.365950
C1161	C116	0.964860	0.715100	0.643460
C1171	C117	0.839100	0.743440	0.635080
C1181	C118	0.630440	0.739930	0.642370
C1191	C119	0.509990	0.230050	0.388460
C1201	C120	0.415110	0.199910	0.413610
C1211	C121	0.214650	0.198220	0.422540
C1221	C122	0.109440	0.226210	0.406340
C1231	C123	0.467210	0.826800	0.591450
C1241	C124	0.463380	0.843330	0.610260
C1251	C125	0.362020	0.872050	0.600760
C1261	C126	0.273090	0.886000	0.570340
C1271	C127	0.279630	0.869640	0.551370
C1281	C128	0.363310	0.839150	0.562700
C1291	C129	0.170390	0.917270	0.557870
C1301	C130	0.013390	0.923830	0.537400
C1311	C131	0.664890	0.048430	0.486530
C1321	C132	0.156600	0.972690	0.552180
C1331	C133	0.005660	0.979530	0.530760
C1341	C134	0.938050	0.955160	0.523370
C1351	C135	0.322500	0.818870	0.545840
C1361	C136	0.344780	0.886330	0.624070
C1371	C137	0.921210	0.898630	0.529630
C1381	C138	0.229640	0.997570	0.561910
O11	O1	0.864140	0.347110	0.365580
O21	O2	0.495400	0.344220	0.340700
O31	O3	0.268740	0.375500	0.343540
O41	O4	0.781840	0.633560	0.644650
O51	O5	0.552510	0.660050	0.655120
O61	O6	0.183410	0.662630	0.628000
O71	O7	0.229720	0.365580	0.287310
O81	O8	0.836100	0.340700	0.315080
O91	O9	0.612280	0.343540	0.280960
O101	O10	0.426490	0.644650	0.721790
O111	O11	0.207630	0.655120	0.684830
O121	O12	0.811410	0.628000	0.709370
O131	O13	0.517030	0.287310	0.347110
O141	O14	0.151180	0.315080	0.344220
O151	O15	0.893240	0.280960	0.375500
O161	O16	0.148280	0.721790	0.633560
O171	O17	0.892460	0.684830	0.660050
O181	O18	0.520780	0.709370	0.662630
