data_RAVXAP_clean_PM
_symmetry_space_group_name_H-M	'P1'
_cell_length_a	6.988600
_cell_length_b	53.144200
_cell_length_c	53.144200
_cell_angle_alpha	60.190500
_cell_angle_beta	87.487700
_cell_angle_gamma	92.512300
_symmetry_Int_Tables_number 1

loop_
_symmetry_equiv_pos_as_xyz
'x,y,z'

loop_
_atom_site_label
_atom_site_type_symbol
_atom_site_fract_x
_atom_site_fract_y
_atom_site_fract_z
Mg11	Mg1	0.905510	0.352720	0.335850
Mg21	Mg2	0.884990	0.643540	0.673110
Mg31	Mg3	0.241360	0.335850	0.311430
Mg41	Mg4	0.558100	0.673110	0.683350
Mg51	Mg5	0.552790	0.311430	0.352720
Mg61	Mg6	0.241450	0.683350	0.643540
H11	H1	0.859250	0.514620	0.357230
H21	H2	0.029120	0.520920	0.378050
H31	H3	0.884700	0.486800	0.394000
H41	H4	0.595630	0.512830	0.390990
H51	H5	0.735080	0.546900	0.373400
H61	H6	0.672930	0.534480	0.422720
H71	H7	0.917680	0.529740	0.418670
H81	H8	0.870090	0.477570	0.445940
H91	H9	0.621650	0.477770	0.441100
H101	H10	0.589540	0.503130	0.471140
H111	H11	0.830520	0.497010	0.479090
H121	H12	0.765410	0.447390	0.511280
H131	H13	0.588360	0.443000	0.491350
H141	H14	0.050960	0.367320	0.560030
H151	H15	0.247690	0.388690	0.561480
H161	H16	0.009330	0.398860	0.562770
H171	H17	0.168220	0.446090	0.415120
H181	H18	0.170280	0.478860	0.417440
H191	H19	0.379240	0.459830	0.422530
H201	H20	0.082050	0.345190	0.502920
H211	H21	0.162290	0.336810	0.475670
H221	H22	0.269630	0.367970	0.475780
H231	H23	0.637510	0.452280	0.394640
H241	H24	0.637980	0.429850	0.378300
H251	H25	0.457040	0.423370	0.406380
H261	H26	0.173900	0.589310	0.578230
H271	H27	0.604740	0.529010	0.639580
H281	H28	0.699070	0.479870	0.533830
H291	H29	0.317060	0.473390	0.464410
H301	H30	0.952300	0.377610	0.514670
H311	H31	0.380950	0.573310	0.622620
H321	H32	0.588110	0.603120	0.633770
H331	H33	0.909290	0.618080	0.628210
H341	H34	0.865840	0.355590	0.395090
H351	H35	0.175260	0.359510	0.401890
H361	H36	0.368480	0.375120	0.428330
H371	H37	0.563930	0.562900	0.554490
H381	H38	0.581670	0.455700	0.604340
H391	H39	0.023520	0.449010	0.540890
H401	H40	0.809170	0.439640	0.435250
H411	H41	0.900440	0.342080	0.448420
H421	H42	0.780430	0.571960	0.666690
H431	H43	0.681530	0.536020	0.678090
H441	H44	0.930240	0.542270	0.679330
H451	H45	0.903670	0.570750	0.538400
H461	H46	0.145450	0.571970	0.546070
H471	H47	0.015770	0.537340	0.559860
H481	H48	0.738610	0.454520	0.642910
H491	H49	0.906900	0.485490	0.630260
H501	H50	0.688140	0.482440	0.650730
H511	H51	0.402940	0.563790	0.516530
H521	H52	0.469490	0.536290	0.508290
H531	H53	0.245250	0.532010	0.527650
H541	H54	0.141720	0.482540	0.586240
H551	H55	0.966240	0.480280	0.564750
H561	H56	0.889820	0.440430	0.614060
H571	H57	0.963940	0.425110	0.592800
H581	H58	0.110180	0.399210	0.636380
H591	H59	0.297260	0.423780	0.611540
H601	H60	0.242550	0.457530	0.631910
H611	H61	0.059500	0.432080	0.657010
H621	H62	0.471710	0.416820	0.653720
H631	H63	0.387450	0.431120	0.676030
H641	H64	0.141940	0.388560	0.701540
H651	H65	0.242640	0.373280	0.680620
H661	H66	0.381230	0.378220	0.705510
H671	H67	0.216480	0.357230	0.128150
H681	H68	0.407170	0.378050	0.101030
H691	H69	0.278700	0.394000	0.119200
H701	H70	0.986620	0.390990	0.096180
H711	H71	0.108480	0.373400	0.079700
H721	H72	0.095650	0.422720	0.042800
H731	H73	0.336350	0.418670	0.051590
H741	H74	0.316030	0.445940	0.076490
H751	H75	0.062750	0.441100	0.081130
H761	H76	0.060680	0.471140	0.025730
H771	H77	0.309610	0.479090	0.023900
H781	H78	0.276690	0.511280	0.041330
H791	H79	0.079710	0.491350	0.065650
H801	H80	0.610990	0.560030	0.072650
H811	H81	0.809170	0.561480	0.049830
H821	H82	0.572100	0.562770	0.038370
H831	H83	0.583340	0.415120	0.138790
H841	H84	0.587720	0.417440	0.103700
H851	H85	0.801770	0.422530	0.117640
H861	H86	0.584970	0.502920	0.151890
H871	H87	0.637960	0.475670	0.187520
H881	H88	0.745410	0.475780	0.156250
H891	H89	0.032150	0.394640	0.153080
H901	H90	0.016280	0.378300	0.191850
H911	H91	0.863420	0.406380	0.170250
H921	H92	0.752130	0.578230	0.832460
H931	H93	0.244320	0.639580	0.831410
H941	H94	0.232900	0.533830	0.986300
H951	H95	0.781470	0.464410	0.062200
H961	H96	0.466970	0.514670	0.107720
H971	H97	0.003570	0.622620	0.804070
H981	H98	0.221880	0.633770	0.763110
H991	H99	0.537500	0.628210	0.753710
H1001	H100	0.260930	0.395090	0.249320
H1011	H101	0.577150	0.401890	0.238600
H1021	H102	0.796810	0.428330	0.196550
H1031	H103	0.118420	0.554490	0.882610
H1041	H104	0.186010	0.604340	0.939960
H1051	H105	0.564410	0.540890	0.010100
H1061	H106	0.244420	0.435250	0.125110
H1071	H107	0.348860	0.448420	0.209500
H1081	H108	0.447120	0.666690	0.761350
H1091	H109	0.359620	0.678090	0.785890
H1101	H110	0.609570	0.679330	0.778400
H1111	H111	0.442070	0.538400	0.890850
H1121	H112	0.691520	0.546070	0.881960
H1131	H113	0.575630	0.559860	0.902800
H1141	H114	0.381520	0.642910	0.902570
H1151	H115	0.537160	0.630260	0.884250
H1161	H116	0.338870	0.650730	0.866830
H1171	H117	0.919470	0.516530	0.919680
H1181	H118	0.977780	0.508290	0.955420
H1191	H119	0.772900	0.527650	0.940340
H1201	H120	0.727960	0.586240	0.931220
H1211	H121	0.530990	0.564750	0.954970
H1221	H122	0.503880	0.614060	0.945510
H1231	H123	0.556740	0.592800	0.982090
H1241	H124	0.746560	0.636380	0.964410
H1251	H125	0.908800	0.611540	0.964680
H1261	H126	0.874460	0.631910	0.910560
H1271	H127	0.716510	0.657010	0.910910
H1281	H128	0.125430	0.653720	0.929460
H1291	H129	0.063480	0.676030	0.892850
H1301	H130	0.843480	0.701540	0.909900
H1311	H131	0.923260	0.680620	0.946100
H1321	H132	0.086740	0.705510	0.916270
H1331	H133	0.344630	0.128150	0.514620
H1341	H134	0.508200	0.101030	0.520920
H1351	H135	0.397900	0.119200	0.486800
H1361	H136	0.082800	0.096180	0.512830
H1371	H137	0.188180	0.079700	0.546900
H1381	H138	0.138450	0.042800	0.534480
H1391	H139	0.387940	0.051590	0.529740
H1401	H140	0.392520	0.076490	0.477570
H1411	H141	0.143880	0.081130	0.477770
H1421	H142	0.086410	0.025730	0.503130
H1431	H143	0.333510	0.023900	0.497010
H1441	H144	0.318020	0.041330	0.447390
H1451	H145	0.145360	0.065650	0.443000
H1461	H146	0.683640	0.072650	0.367320
H1471	H147	0.859000	0.049830	0.388690
H1481	H148	0.610470	0.038370	0.398860
H1491	H149	0.722130	0.138790	0.446090
H1501	H150	0.691420	0.103700	0.478860
H1511	H151	0.919410	0.117640	0.459830
H1521	H152	0.736860	0.151890	0.345190
H1531	H153	0.825480	0.187520	0.336810
H1541	H154	0.901660	0.156250	0.367970
H1551	H155	0.185230	0.153080	0.452280
H1561	H156	0.208130	0.191850	0.429850
H1571	H157	0.033670	0.170250	0.423370
H1581	H158	0.584590	0.832460	0.589310
H1591	H159	0.075730	0.831410	0.529010
H1601	H160	0.219200	0.986300	0.479870
H1611	H161	0.843670	0.062200	0.473390
H1621	H162	0.574690	0.107720	0.377610
H1631	H163	0.807640	0.804070	0.573310
H1641	H164	0.984990	0.763110	0.603120
H1651	H165	0.291210	0.753710	0.618080
H1661	H166	0.510250	0.249320	0.355590
H1671	H167	0.815750	0.238600	0.359510
H1681	H168	0.993360	0.196550	0.375120
H1691	H169	0.001030	0.882610	0.562900
H1701	H170	0.125970	0.939960	0.455700
H1711	H171	0.574510	0.010100	0.449010
H1721	H172	0.369530	0.125110	0.439640
H1731	H173	0.558360	0.209500	0.342080
H1741	H174	0.208470	0.761350	0.571960
H1751	H175	0.145510	0.785890	0.536020
H1761	H176	0.387970	0.778400	0.542270
H1771	H177	0.332920	0.890850	0.570750
H1781	H178	0.573480	0.881960	0.571970
H1791	H179	0.478430	0.902800	0.537340
H1801	H180	0.284090	0.902570	0.454520
H1811	H181	0.421410	0.884250	0.485490
H1821	H182	0.205700	0.866830	0.482440
H1831	H183	0.839150	0.919680	0.563790
H1841	H184	0.933200	0.955420	0.536290
H1851	H185	0.713240	0.940340	0.532010
H1861	H186	0.659180	0.931220	0.482540
H1871	H187	0.485960	0.954970	0.480280
H1881	H188	0.449390	0.945510	0.440430
H1891	H189	0.538830	0.982090	0.425110
H1901	H190	0.710970	0.964410	0.399210
H1911	H191	0.873480	0.964680	0.423780
H1921	H192	0.785020	0.910560	0.457530
H1931	H193	0.627420	0.910910	0.432080
H1941	H194	0.054890	0.929460	0.416820
H1951	H195	0.956330	0.892850	0.431120
H1961	H196	0.753380	0.909900	0.388560
H1971	H197	0.869360	0.946100	0.373280
H1981	H198	0.003010	0.916270	0.378220
C11	C1	0.887400	0.510600	0.379250
C21	C2	0.736530	0.523450	0.389790
C31	C3	0.772500	0.520710	0.419330
C41	C4	0.742280	0.489160	0.444810
C51	C5	0.702310	0.488360	0.473830
C61	C6	0.640760	0.457530	0.499310
C71	C7	0.106900	0.389880	0.552950
C81	C8	0.223710	0.457000	0.426690
C91	C9	0.134110	0.354900	0.479780
C101	C10	0.608350	0.429690	0.399080
C111	C11	0.050100	0.575980	0.591720
C121	C12	0.940740	0.559860	0.582650
C131	C13	0.845210	0.557040	0.636170
C141	C14	0.729410	0.542160	0.626270
C151	C15	0.776560	0.543120	0.599840
C161	C16	0.004100	0.574960	0.618150
C171	C17	0.552200	0.472330	0.535920
C181	C18	0.494010	0.459210	0.519950
C191	C19	0.300440	0.449990	0.522310
C201	C20	0.173730	0.440160	0.459020
C211	C21	0.243780	0.451940	0.475480
C221	C22	0.223890	0.436330	0.505950
C231	C23	0.123770	0.408580	0.520260
C241	C24	0.039700	0.397900	0.503700
C251	C25	0.064200	0.413170	0.473220
C261	C26	0.439900	0.606430	0.633540
C271	C27	0.321350	0.589210	0.627090
C281	C28	0.127830	0.592370	0.626440
C291	C29	0.055920	0.613890	0.631130
C301	C30	0.605940	0.346310	0.381340
C311	C31	0.406230	0.348450	0.381950
C321	C32	0.280110	0.344660	0.362110
C331	C33	0.503060	0.640580	0.651790
C341	C34	0.369380	0.627030	0.640130
C351	C35	0.171960	0.631150	0.638130
C361	C36	0.715350	0.356790	0.395990
C371	C37	0.632660	0.368360	0.412030
C381	C38	0.436480	0.367680	0.414920
C391	C39	0.325530	0.358230	0.399920
C401	C40	0.660460	0.525260	0.591070
C411	C41	0.565830	0.539430	0.565580
C421	C42	0.483660	0.523900	0.553380
C431	C43	0.492100	0.493470	0.567440
C441	C44	0.576930	0.479070	0.593750
C451	C45	0.660270	0.494590	0.605940
C461	C46	0.423380	0.476750	0.553810
C471	C47	0.231720	0.467170	0.556560
C481	C48	0.172390	0.454830	0.540020
C491	C49	0.749840	0.380590	0.426420
C501	C50	0.962270	0.401490	0.456890
C511	C51	0.830990	0.418520	0.437830
C521	C52	0.729300	0.408900	0.421850
C531	C53	0.990470	0.373780	0.460350
C541	C54	0.882750	0.363600	0.445220
C551	C55	0.806680	0.551610	0.666680
C561	C56	0.005010	0.560010	0.555170
C571	C57	0.754290	0.478380	0.633950
C581	C58	0.395390	0.539990	0.524860
C591	C59	0.087050	0.469120	0.577170
C601	C60	0.014310	0.438640	0.602070
C611	C61	0.162320	0.422500	0.623550
C621	C62	0.194320	0.434090	0.644530
C631	C63	0.344380	0.418230	0.665690
C641	C64	0.272100	0.387710	0.689740
C651	C65	0.266650	0.379250	0.110150
C661	C66	0.126320	0.389790	0.086760
C671	C67	0.191830	0.419330	0.059960
C681	C68	0.187090	0.444810	0.066030
C691	C69	0.176140	0.473830	0.037810
C701	C70	0.140070	0.499310	0.043160
C711	C71	0.659850	0.552950	0.057170
C721	C72	0.650400	0.426690	0.116310
C731	C73	0.613890	0.479780	0.165320
C741	C74	0.007430	0.399080	0.171230
C751	C75	0.641820	0.591720	0.832300
C761	C76	0.523390	0.582650	0.857490
C771	C77	0.481380	0.636170	0.806790
C781	C78	0.355680	0.626270	0.831570
C791	C79	0.376400	0.599840	0.857040
C801	C80	0.622250	0.618150	0.806890
C811	C81	0.088120	0.535920	0.991750
C821	C82	0.013960	0.519950	0.020840
C831	C83	0.822750	0.522310	0.027700
C841	C84	0.632750	0.459020	0.100820
C851	C85	0.719260	0.475480	0.072580
C861	C86	0.729840	0.505950	0.057720
C871	C87	0.644030	0.520260	0.071160
C881	C88	0.543400	0.503700	0.098400
C891	C89	0.537420	0.473220	0.113610
C901	C90	0.073440	0.633540	0.760030
C911	C91	0.948440	0.627090	0.783700
C921	C92	0.754270	0.626440	0.781190
C931	C93	0.687050	0.631130	0.754980
C941	C94	0.987280	0.381340	0.272350
C951	C95	0.788180	0.381950	0.269600
C961	C96	0.642220	0.362110	0.293230
C971	C97	0.154850	0.651790	0.707630
C981	C98	0.009510	0.640130	0.732840
C991	C99	0.810090	0.638130	0.730720
C1001	C100	0.111340	0.395990	0.247220
C1011	C101	0.044690	0.412030	0.219610
C1021	C102	0.851400	0.414920	0.217400
C1031	C103	0.725450	0.399920	0.241850
C1041	C104	0.251530	0.591070	0.883670
C1051	C105	0.131410	0.565580	0.894990
C1061	C106	0.037040	0.553380	0.922720
C1071	C107	0.059540	0.567440	0.939090
C1081	C108	0.170680	0.593750	0.927180
C1091	C109	0.266210	0.605940	0.899470
C1101	C110	0.977190	0.553810	0.969440
C1111	C111	0.788280	0.556560	0.976270
C1121	C112	0.712410	0.540020	0.005150
C1131	C113	0.176260	0.426420	0.192990
C1141	C114	0.419160	0.456890	0.141620
C1151	C115	0.268820	0.437830	0.143650
C1161	C116	0.151150	0.421850	0.169250
C1171	C117	0.450820	0.460350	0.165870
C1181	C118	0.327970	0.445220	0.191180
C1191	C119	0.473360	0.666680	0.781710
C1201	C120	0.560180	0.555170	0.884820
C1211	C121	0.388240	0.633950	0.887670
C1221	C122	0.920250	0.524860	0.935150
C1231	C123	0.664220	0.577170	0.953710
C1241	C124	0.616380	0.602070	0.959290
C1251	C125	0.785870	0.623550	0.953950
C1261	C126	0.838850	0.644530	0.921380
C1271	C127	0.010070	0.665690	0.916080
C1281	C128	0.961840	0.689740	0.922550
C1291	C129	0.376800	0.110150	0.510600
C1301	C130	0.213080	0.086760	0.523450
C1311	C131	0.251790	0.059960	0.520710
C1321	C132	0.253120	0.066030	0.489160
C1331	C133	0.213950	0.037810	0.488360
C1341	C134	0.183230	0.043160	0.457530
C1351	C135	0.717020	0.057170	0.389880
C1361	C136	0.766710	0.116310	0.457000
C1371	C137	0.779210	0.165320	0.354900
C1381	C138	0.178660	0.171230	0.429690
C1391	C139	0.474120	0.832300	0.575980
C1401	C140	0.380880	0.857490	0.559860
C1411	C141	0.288170	0.806790	0.557040
C1421	C142	0.187250	0.831570	0.542160
C1431	C143	0.233440	0.857040	0.543120
C1441	C144	0.429140	0.806890	0.574960
C1451	C145	0.079870	0.991750	0.472330
C1461	C146	0.034800	0.020840	0.459210
C1471	C147	0.850450	0.027700	0.449990
C1481	C148	0.733570	0.100820	0.440160
C1491	C149	0.791840	0.072580	0.451940
C1501	C150	0.787560	0.057720	0.436330
C1511	C151	0.715190	0.071160	0.408580
C1521	C152	0.641800	0.098400	0.397900
C1531	C153	0.651030	0.113610	0.413170
C1541	C154	0.833470	0.760030	0.606430
C1551	C155	0.732140	0.783700	0.589210
C1561	C156	0.535460	0.781190	0.592370
C1571	C157	0.442030	0.754980	0.613890
C1581	C158	0.259630	0.272350	0.346310
C1591	C159	0.057780	0.269600	0.348450
C1601	C160	0.935450	0.293230	0.344660
C1611	C161	0.862480	0.707630	0.640580
C1621	C162	0.742350	0.732840	0.627030
C1631	C163	0.540810	0.730720	0.631150
C1641	C164	0.358560	0.247220	0.356790
C1651	C165	0.264300	0.219610	0.368360
C1661	C166	0.068800	0.217400	0.367680
C1671	C167	0.967300	0.241850	0.358230
C1681	C168	0.135200	0.883670	0.525260
C1691	C169	0.026400	0.894990	0.539430
C1701	C170	0.959760	0.922720	0.523900
C1711	C171	0.998630	0.939090	0.493470
C1721	C172	0.097860	0.927180	0.479070
C1731	C173	0.165680	0.899470	0.494590
C1741	C174	0.946630	0.969440	0.476750
C1751	C175	0.764550	0.976270	0.467170
C1761	C176	0.717560	0.005150	0.454830
C1771	C177	0.369250	0.192990	0.380590
C1781	C178	0.560780	0.141620	0.401490
C1791	C179	0.412470	0.143650	0.418520
C1801	C180	0.320400	0.169250	0.408900
C1811	C181	0.616690	0.165870	0.373780
C1821	C182	0.519150	0.191180	0.363600
C1831	C183	0.255070	0.781710	0.551610
C1841	C184	0.445000	0.884820	0.560010
C1851	C185	0.275910	0.887670	0.478380
C1861	C186	0.855400	0.935150	0.539990
C1871	C187	0.617930	0.953710	0.469120
C1881	C188	0.575670	0.959290	0.438640
C1891	C189	0.739820	0.953950	0.422500
C1901	C190	0.760230	0.921380	0.434090
C1911	C191	0.926150	0.916080	0.418230
C1921	C192	0.884390	0.922550	0.387710
O11	O1	0.699120	0.331580	0.369310
O21	O2	0.344550	0.336040	0.345180
O31	O3	0.108010	0.351180	0.361700
O41	O4	0.674500	0.633430	0.654720
O51	O5	0.445570	0.658150	0.659670
O61	O6	0.086820	0.653510	0.640000
O71	O7	0.068430	0.369310	0.299110
O81	O8	0.689730	0.345180	0.318780
O91	O9	0.469710	0.361700	0.287120
O101	O10	0.329220	0.654720	0.711850
O111	O11	0.105240	0.659670	0.682180
O121	O12	0.726820	0.640000	0.706490
O131	O13	0.367540	0.299110	0.331580
O141	O14	0.008510	0.318780	0.336040
O151	O15	0.756830	0.287120	0.351180
O161	O16	0.041070	0.711850	0.633430
O171	O17	0.787420	0.682180	0.658150
O181	O18	0.433310	0.706490	0.653510
