data_RAVXOD_clean_PM
_symmetry_space_group_name_H-M	'P1'
_cell_length_a	7.038200
_cell_length_b	83.773200
_cell_length_c	83.773200
_cell_angle_alpha	60.077800
_cell_angle_beta	88.395200
_cell_angle_gamma	91.604800
_symmetry_Int_Tables_number 1

loop_
_symmetry_equiv_pos_as_xyz
'x,y,z'

loop_
_atom_site_label
_atom_site_type_symbol
_atom_site_fract_x
_atom_site_fract_y
_atom_site_fract_z
Mg11	Mg1	0.365120	0.327670	0.323850
Mg21	Mg2	0.655920	0.671670	0.676230
Mg31	Mg3	0.688970	0.323850	0.348480
Mg41	Mg4	0.332150	0.676230	0.652100
Mg51	Mg5	0.037450	0.348480	0.327670
Mg61	Mg6	0.984250	0.652100	0.671670
H11	H1	0.405630	0.509660	0.087250
H21	H2	0.653250	0.515180	0.079540
H31	H3	0.510840	0.501160	0.073020
H41	H4	0.614470	0.490300	0.112830
H51	H5	0.729660	0.482370	0.098600
H61	H6	0.425480	0.467560	0.097050
H71	H7	0.301480	0.476210	0.110320
H81	H8	0.491110	0.457360	0.137490
H91	H9	0.637440	0.450810	0.123860
H101	H10	0.357740	0.434030	0.119980
H111	H11	0.426410	0.424760	0.143170
H121	H12	0.281850	0.390070	0.141840
H131	H13	0.324630	0.365730	0.152210
H141	H14	0.414400	0.381550	0.128880
H151	H15	0.993690	0.371170	0.142500
H161	H16	0.125860	0.363490	0.128970
H171	H17	0.169960	0.395690	0.102730
H181	H18	0.059700	0.404420	0.116320
H191	H19	0.754510	0.384990	0.119030
H201	H20	0.873470	0.378700	0.103890
H211	H21	0.926630	0.416110	0.081510
H221	H22	0.719540	0.403280	0.081700
H231	H23	0.622370	0.550710	0.924210
H241	H24	0.726770	0.568530	0.928020
H251	H25	0.774530	0.568990	0.906580
H261	H26	0.344390	0.501650	0.972890
H271	H27	0.370250	0.500560	0.952030
H281	H28	0.503090	0.518100	0.954300
H291	H29	0.780600	0.536370	0.957780
H301	H30	0.341080	0.534490	0.921520
H311	H31	0.615990	0.469600	0.021930
H321	H32	0.673640	0.466830	0.002360
H331	H33	0.812300	0.455760	0.022580
H341	H34	0.539130	0.410990	0.102580
H351	H35	0.624130	0.430960	0.081810
H361	H36	0.142370	0.452090	0.137200
H371	H37	0.142950	0.427970	0.153580
H381	H38	0.670740	0.442840	0.166230
H391	H39	0.923230	0.440700	0.169010
H401	H40	0.822560	0.447010	0.147120
H411	H41	0.446220	0.359030	0.191680
H421	H42	0.623850	0.357380	0.176800
H431	H43	0.677780	0.350420	0.200170
H441	H44	0.114610	0.407200	0.195960
H451	H45	0.352450	0.417140	0.190210
H461	H46	0.267970	0.402030	0.181790
H471	H47	0.360670	0.328800	0.268340
H481	H48	0.430910	0.325160	0.249640
H491	H49	0.605870	0.332610	0.260030
H501	H50	0.886130	0.543250	0.895630
H511	H51	0.364560	0.595320	0.865740
H521	H52	0.904590	0.612370	0.770890
H531	H53	0.338050	0.645610	0.772480
H541	H54	0.821430	0.493690	0.977560
H551	H55	0.798720	0.384270	0.156650
H561	H56	0.679060	0.412620	0.195560
H571	H57	0.126930	0.639440	0.753560
H581	H58	0.340930	0.646350	0.727710
H591	H59	0.648920	0.645750	0.720630
H601	H60	0.373200	0.356190	0.276950
H611	H61	0.679250	0.350360	0.273070
H621	H62	0.886480	0.358170	0.246380
H631	H63	0.316820	0.588350	0.801980
H641	H64	0.197940	0.617030	0.840590
H651	H65	0.174610	0.508110	0.019910
H661	H66	0.670780	0.355460	0.224800
H671	H67	0.098580	0.387290	0.227950
H681	H68	0.631860	0.406090	0.131550
H691	H69	0.110310	0.458170	0.101940
H701	H70	0.441920	0.672470	0.745130
H711	H71	0.694970	0.674980	0.740380
H721	H72	0.541660	0.667720	0.728050
H731	H73	0.722770	0.598040	0.816590
H741	H74	0.640910	0.583120	0.807850
H751	H75	0.880220	0.592670	0.802850
H761	H76	0.322760	0.650680	0.797050
H771	H77	0.374760	0.643800	0.820440
H781	H78	0.553240	0.641910	0.805770
H791	H79	0.173520	0.554160	0.850470
H801	H80	0.072270	0.560370	0.828630
H811	H81	0.324810	0.558230	0.831380
H821	H82	0.853620	0.573110	0.843980
H831	H83	0.854020	0.549030	0.860520
H841	H84	0.372600	0.570730	0.915460
H851	H85	0.457520	0.590620	0.894610
H861	H86	0.183670	0.546030	0.974880
H871	H87	0.322290	0.534990	0.995100
H881	H88	0.380010	0.532200	0.975540
H891	H89	0.655530	0.467120	0.076000
H901	H90	0.215860	0.465430	0.039600
H911	H91	0.493360	0.483630	0.043220
H921	H92	0.626100	0.501110	0.045580
H931	H93	0.651940	0.500120	0.024670
H941	H94	0.222220	0.432630	0.090770
H951	H95	0.269900	0.433210	0.069270
H961	H96	0.374290	0.450950	0.073180
H971	H97	0.277280	0.598510	0.915370
H981	H98	0.070120	0.585630	0.915660
H991	H99	0.123330	0.623020	0.893080
H1001	H100	0.242180	0.616590	0.878040
H1011	H101	0.936920	0.597120	0.880890
H1021	H102	0.826750	0.605980	0.894370
H1031	H103	0.870810	0.638100	0.867990
H1041	H104	0.002990	0.630310	0.854560
H1051	H105	0.582250	0.619960	0.868210
H1061	H106	0.672090	0.635680	0.844840
H1071	H107	0.714790	0.611310	0.855360
H1081	H108	0.570250	0.576490	0.854290
H1091	H109	0.638630	0.567330	0.877470
H1101	H110	0.358770	0.550510	0.873700
H1111	H111	0.505030	0.543820	0.860170
H1121	H112	0.694380	0.525060	0.887400
H1131	H113	0.570620	0.533860	0.900550
H1141	H114	0.266230	0.519020	0.899120
H1151	H115	0.380990	0.510960	0.884970
H1161	H116	0.485160	0.500280	0.924720
H1171	H117	0.342180	0.486230	0.918320
H1181	H118	0.589770	0.491680	0.910570
H1191	H119	0.492880	0.087250	0.403090
H1201	H120	0.732790	0.079540	0.405280
H1211	H121	0.583860	0.073020	0.425820
H1221	H122	0.727300	0.112830	0.396870
H1231	H123	0.828260	0.098600	0.419030
H1241	H124	0.522530	0.097050	0.435390
H1251	H125	0.411800	0.110320	0.413470
H1261	H126	0.628600	0.137490	0.405150
H1271	H127	0.761300	0.123860	0.425330
H1281	H128	0.477720	0.119980	0.445990
H1291	H129	0.569580	0.143170	0.432070
H1301	H130	0.423690	0.141840	0.468090
H1311	H131	0.476840	0.152210	0.482060
H1321	H132	0.543280	0.128880	0.489570
H1331	H133	0.136190	0.142500	0.486330
H1341	H134	0.254830	0.128970	0.507540
H1351	H135	0.272690	0.102730	0.501580
H1361	H136	0.176020	0.116320	0.479260
H1371	H137	0.873540	0.119030	0.495980
H1381	H138	0.977360	0.103890	0.517410
H1391	H139	0.008140	0.081510	0.502380
H1401	H140	0.801240	0.081700	0.515020
H1411	H141	0.546580	0.924210	0.525080
H1421	H142	0.654790	0.928020	0.503450
H1431	H143	0.681110	0.906580	0.524430
H1441	H144	0.317280	0.972890	0.525460
H1451	H145	0.322280	0.952030	0.547410
H1461	H146	0.457390	0.954300	0.527600
H1471	H147	0.738380	0.957780	0.505850
H1481	H148	0.262600	0.921520	0.543990
H1491	H149	0.637920	0.021930	0.508470
H1501	H150	0.676000	0.002360	0.530810
H1511	H151	0.834880	0.022580	0.521660
H1521	H152	0.641710	0.102580	0.486430
H1531	H153	0.705940	0.081810	0.487230
H1541	H154	0.279570	0.137200	0.410710
H1551	H155	0.296530	0.153580	0.418450
H1561	H156	0.836970	0.166230	0.390930
H1571	H157	0.092240	0.169010	0.390290
H1581	H158	0.969680	0.147120	0.405870
H1591	H159	0.637900	0.191680	0.449290
H1601	H160	0.800650	0.176800	0.465820
H1611	H161	0.877950	0.200170	0.449410
H1621	H162	0.310570	0.195960	0.396840
H1631	H163	0.542660	0.190210	0.392650
H1641	H164	0.449760	0.181790	0.416180
H1651	H165	0.629010	0.268340	0.402860
H1661	H166	0.680550	0.249640	0.425200
H1671	H167	0.865900	0.260030	0.407360
H1681	H168	0.781760	0.895630	0.561120
H1691	H169	0.230300	0.865740	0.538940
H1701	H170	0.675480	0.770890	0.616740
H1711	H171	0.110530	0.772480	0.581910
H1721	H172	0.798990	0.977560	0.528750
H1731	H173	0.955370	0.156650	0.459080
H1741	H174	0.874620	0.195560	0.391820
H1751	H175	0.880490	0.753560	0.607000
H1761	H176	0.068640	0.727710	0.625940
H1771	H177	0.369550	0.720630	0.633620
H1781	H178	0.650150	0.276950	0.366860
H1791	H179	0.952320	0.273070	0.376570
H1801	H180	0.132860	0.246380	0.395450
H1811	H181	0.118800	0.801980	0.609670
H1821	H182	0.038530	0.840590	0.542380
H1831	H183	0.194520	0.019910	0.471980
H1841	H184	0.895580	0.224800	0.419740
H1851	H185	0.326530	0.227950	0.384760
H1861	H186	0.763410	0.131550	0.462360
H1871	H187	0.212250	0.101940	0.439890
H1881	H188	0.187050	0.745130	0.582400
H1891	H189	0.435350	0.740380	0.584640
H1901	H190	0.269710	0.728050	0.604230
H1911	H191	0.539360	0.816590	0.585370
H1921	H192	0.448760	0.807850	0.609030
H1931	H193	0.683070	0.802850	0.604480
H1941	H194	0.119810	0.797050	0.552270
H1951	H195	0.195200	0.820440	0.535760
H1961	H196	0.359010	0.805770	0.552320
H1971	H197	0.023990	0.850470	0.595370
H1981	H198	0.900900	0.828630	0.611000
H1991	H199	0.156190	0.831380	0.610390
H2001	H200	0.697600	0.843980	0.582910
H2011	H201	0.714540	0.860520	0.590450
H2021	H202	0.288060	0.915460	0.513810
H2031	H203	0.352130	0.894610	0.514770
H2041	H204	0.158550	0.974880	0.479090
H2051	H205	0.317390	0.995100	0.469910
H2061	H206	0.355550	0.975540	0.492260
H2071	H207	0.731530	0.076000	0.456880
H2081	H208	0.255460	0.039600	0.494970
H2091	H209	0.536580	0.043220	0.473150
H2101	H210	0.671680	0.045580	0.453310
H2111	H211	0.676610	0.024670	0.475210
H2121	H212	0.312990	0.090770	0.476600
H2131	H213	0.339170	0.069270	0.497520
H2141	H214	0.447470	0.073180	0.475870
H2151	H215	0.192650	0.915370	0.486120
H2161	H216	0.985780	0.915660	0.498710
H2171	H217	0.016410	0.893080	0.483900
H2181	H218	0.120220	0.878040	0.505370
H2191	H219	0.817810	0.880890	0.521990
H2201	H220	0.721120	0.894370	0.499650
H2211	H221	0.738800	0.867990	0.493910
H2221	H222	0.857550	0.854560	0.515130
H2231	H223	0.450460	0.868210	0.511830
H2241	H224	0.516930	0.844840	0.519480
H2251	H225	0.570150	0.855360	0.533330
H2261	H226	0.424540	0.854290	0.569220
H2271	H227	0.516100	0.877470	0.555200
H2281	H228	0.232470	0.873700	0.575790
H2291	H229	0.365200	0.860170	0.596010
H2301	H230	0.581780	0.887400	0.587540
H2311	H231	0.471170	0.900550	0.565590
H2321	H232	0.165350	0.899120	0.581860
H2331	H233	0.265960	0.884970	0.604070
H2341	H234	0.409880	0.924720	0.575000
H2351	H235	0.260500	0.918320	0.595450
H2361	H236	0.500340	0.910570	0.597750
H2371	H237	0.895970	0.403090	0.509660
H2381	H238	0.138070	0.405280	0.515180
H2391	H239	0.009680	0.425820	0.501160
H2401	H240	0.124170	0.396870	0.490300
H2411	H241	0.247290	0.419030	0.482370
H2421	H242	0.957920	0.435390	0.467560
H2431	H243	0.825270	0.413470	0.476210
H2441	H244	0.033750	0.405150	0.457360
H2451	H245	0.186630	0.425330	0.450810
H2461	H246	0.923710	0.445990	0.434030
H2471	H247	0.001650	0.432070	0.424760
H2481	H248	0.891780	0.468090	0.390070
H2491	H249	0.958900	0.482060	0.365730
H2501	H250	0.032850	0.489570	0.381550
H2511	H251	0.622520	0.486330	0.371170
H2521	H252	0.762370	0.507540	0.363490
H2531	H253	0.774270	0.501580	0.395690
H2541	H254	0.655280	0.479260	0.404420
H2551	H255	0.369520	0.495980	0.384990
H2561	H256	0.494770	0.517410	0.378700
H2571	H257	0.510520	0.502380	0.416110
H2581	H258	0.316260	0.515020	0.403280
H2591	H259	0.071660	0.525080	0.550710
H2601	H260	0.158240	0.503450	0.568530
H2611	H261	0.205540	0.524430	0.568990
H2621	H262	0.842740	0.525460	0.501650
H2631	H263	0.869690	0.547410	0.500560
H2641	H264	0.984990	0.527600	0.518100
H2651	H265	0.244230	0.505850	0.536370
H2661	H266	0.806590	0.543990	0.534490
H2671	H267	0.146390	0.508470	0.469600
H2681	H268	0.206810	0.530810	0.466830
H2691	H269	0.356540	0.521660	0.455760
H2701	H270	0.128140	0.486430	0.410990
H2711	H271	0.193170	0.487230	0.430960
H2721	H272	0.690280	0.410710	0.452090
H2731	H273	0.714980	0.418450	0.427970
H2741	H274	0.227900	0.390930	0.442840
H2751	H275	0.482530	0.390290	0.440700
H2761	H276	0.375550	0.405870	0.447010
H2771	H277	0.087190	0.449290	0.359030
H2781	H278	0.266470	0.465820	0.357380
H2791	H279	0.327360	0.449410	0.350420
H2801	H280	0.707410	0.396840	0.407200
H2811	H281	0.935310	0.392650	0.417140
H2821	H282	0.865940	0.416180	0.402030
H2831	H283	0.031870	0.402860	0.328800
H2841	H284	0.105750	0.425200	0.325160
H2851	H285	0.273260	0.407360	0.332610
H2861	H286	0.342880	0.561120	0.543250
H2871	H287	0.769240	0.538940	0.595320
H2881	H288	0.292220	0.616740	0.612370
H2891	H289	0.692440	0.581910	0.645610
H2901	H290	0.327740	0.528750	0.493690
H2911	H291	0.414450	0.459080	0.384270
H2921	H292	0.266440	0.391820	0.412620
H2931	H293	0.487490	0.607000	0.639440
H2941	H294	0.694580	0.625940	0.646350
H2951	H295	0.003170	0.633620	0.645750
H2961	H296	0.017010	0.366860	0.356190
H2971	H297	0.328890	0.376570	0.350360
H2981	H298	0.528310	0.395450	0.358170
H2991	H299	0.728470	0.609670	0.588350
H3001	H300	0.580910	0.542380	0.617030
H3011	H301	0.666500	0.471980	0.508110
H3021	H302	0.315320	0.419740	0.355460
H3031	H303	0.711290	0.384760	0.387290
H3041	H304	0.225770	0.462360	0.406090
H3051	H305	0.652140	0.439890	0.458170
H3061	H306	0.769450	0.582400	0.672470
H3071	H307	0.019990	0.584640	0.674980
H3081	H308	0.873940	0.604230	0.667720
H3091	H309	0.124730	0.585370	0.598040
H3101	H310	0.057790	0.609030	0.583120
H3111	H311	0.287550	0.604480	0.592670
H3121	H312	0.672080	0.552270	0.650680
H3131	H313	0.730960	0.535760	0.643800
H3141	H314	0.911330	0.552320	0.641910
H3151	H315	0.619360	0.595370	0.554160
H3161	H316	0.511900	0.611000	0.560370
H3171	H317	0.766580	0.610390	0.558230
H3181	H318	0.280510	0.582910	0.573110
H3191	H319	0.304990	0.590450	0.549030
H3201	H320	0.801870	0.513810	0.570730
H3211	H321	0.866900	0.514770	0.590620
H3221	H322	0.637640	0.479090	0.546030
H3231	H323	0.787300	0.469910	0.534990
H3241	H324	0.847810	0.492260	0.532200
H3251	H325	0.188410	0.456880	0.467120
H3261	H326	0.750430	0.494970	0.465430
H3271	H327	0.009730	0.473150	0.483630
H3281	H328	0.124990	0.453310	0.501110
H3291	H329	0.151820	0.475210	0.500120
H3301	H330	0.789590	0.476600	0.432630
H3311	H331	0.836690	0.497520	0.433210
H3321	H332	0.923340	0.475870	0.450950
H3331	H333	0.678770	0.486120	0.598510
H3341	H334	0.484490	0.498710	0.585630
H3351	H335	0.500310	0.483900	0.623020
H3361	H336	0.625590	0.505370	0.616590
H3371	H337	0.339800	0.521990	0.597120
H3381	H338	0.220770	0.499650	0.605980
H3391	H339	0.232710	0.493910	0.638100
H3401	H340	0.372680	0.515130	0.630310
H3411	H341	0.962290	0.511830	0.619960
H3421	H342	0.036410	0.519480	0.635680
H3431	H343	0.103480	0.533330	0.611310
H3441	H344	0.993760	0.569220	0.576490
H3451	H345	0.071300	0.555200	0.567330
H3461	H346	0.808260	0.575790	0.550510
H3471	H347	0.961210	0.596010	0.543820
H3481	H348	0.169320	0.587540	0.525060
H3491	H349	0.036760	0.565590	0.533860
H3501	H350	0.747210	0.581860	0.519020
H3511	H351	0.870030	0.604070	0.510960
H3521	H352	0.984880	0.575000	0.500280
H3531	H353	0.855950	0.595450	0.486230
H3541	H354	0.098090	0.597750	0.491680
C11	C1	0.536740	0.504290	0.084280
C21	C2	0.592910	0.486910	0.101670
C31	C3	0.439180	0.471260	0.108070
C41	C4	0.491520	0.454130	0.126070
C51	C5	0.360610	0.436870	0.131670
C61	C6	0.294240	0.378410	0.139060
C71	C7	0.109670	0.375150	0.131690
C81	C8	0.059260	0.392560	0.113820
C91	C9	0.863710	0.389840	0.107470
C101	C10	0.801110	0.407560	0.090300
C111	C11	0.751490	0.559730	0.921710
C121	C12	0.364510	0.510160	0.957610
C131	C13	0.903690	0.536050	0.949840
C141	C14	0.915150	0.547600	0.930550
C151	C15	0.077040	0.547340	0.920270
C161	C16	0.219900	0.535040	0.929480
C171	C17	0.207730	0.523340	0.948770
C181	C18	0.048560	0.524090	0.959060
C191	C19	0.735200	0.468420	0.013640
C201	C20	0.670640	0.419360	0.094960
C211	C21	0.158990	0.438240	0.138590
C221	C22	0.801260	0.438210	0.162230
C231	C23	0.601380	0.360640	0.188100
C241	C24	0.263860	0.404520	0.193700
C251	C25	0.456710	0.334120	0.255810
C261	C26	0.991600	0.566330	0.869450
C271	C27	0.985820	0.555010	0.888850
C281	C28	0.227600	0.574750	0.891340
C291	C29	0.254600	0.584320	0.872020
C301	C30	0.782080	0.619800	0.771270
C311	C31	0.666790	0.612430	0.787540
C321	C32	0.588590	0.646660	0.756430
C331	C33	0.462930	0.638460	0.772200
C341	C34	0.098660	0.559250	0.899870
C351	C35	0.139410	0.580380	0.860670
C361	C36	0.498730	0.621310	0.787720
C371	C37	0.743560	0.636630	0.755520
C381	C38	0.898260	0.496780	0.986860
C391	C39	0.869710	0.485260	0.006090
C401	C40	0.969950	0.489530	0.018040
C411	C41	0.673890	0.380060	0.182320
C421	C42	0.770440	0.390670	0.164970
C431	C43	0.812020	0.409840	0.157260
C441	C44	0.778220	0.417810	0.168680
C451	C45	0.703190	0.406530	0.186860
C461	C46	0.635000	0.388310	0.193210
C471	C47	0.191120	0.647030	0.725420
C481	C48	0.068150	0.643030	0.740410
C491	C49	0.871440	0.643260	0.738690
C501	C50	0.799660	0.647260	0.721600
C511	C51	0.104990	0.349150	0.292380
C521	C52	0.903040	0.347400	0.291530
C531	C53	0.762490	0.340520	0.307690
C541	C54	0.256200	0.658980	0.692550
C551	C55	0.123150	0.651880	0.707920
C561	C56	0.921540	0.651190	0.706330
C571	C57	0.222210	0.353870	0.276580
C581	C58	0.145830	0.356820	0.260000
C591	C59	0.948920	0.355490	0.259150
C601	C60	0.830310	0.351010	0.274560
C611	C61	0.363050	0.612690	0.804240
C621	C62	0.292880	0.594520	0.810610
C631	C63	0.217520	0.583310	0.828800
C641	C64	0.184090	0.591390	0.840120
C651	C65	0.226230	0.610570	0.832330
C661	C66	0.324040	0.621050	0.815030
C671	C67	0.026100	0.512270	0.979430
C681	C68	0.126280	0.516560	0.991370
C691	C69	0.097730	0.505010	0.010600
C701	C70	0.268100	0.363580	0.242850
C711	C71	0.503210	0.379390	0.210000
C721	C72	0.856840	0.420930	0.136730
C731	C73	0.897880	0.442290	0.097550
C741	C74	0.544930	0.362360	0.225370
C751	C75	0.424230	0.353900	0.241480
C761	C76	0.333590	0.387850	0.210630
C771	C77	0.222770	0.380220	0.227210
C781	C78	0.741790	0.417090	0.125330
C791	C79	0.768950	0.426780	0.105980
C801	C80	0.010630	0.446410	0.108660
C811	C81	0.004770	0.434970	0.128060
C821	C82	0.564860	0.666500	0.741650
C831	C83	0.730620	0.595590	0.804660
C841	C84	0.397850	0.640440	0.809220
C851	C85	0.194440	0.562910	0.835340
C861	C86	0.837420	0.562930	0.859000
C871	C87	0.326030	0.582270	0.902280
C881	C88	0.260770	0.533380	0.983830
C891	C89	0.947840	0.477670	0.038400
C901	C90	0.788750	0.478370	0.048730
C911	C91	0.776710	0.466600	0.068010
C921	C92	0.919600	0.454280	0.077170
C931	C93	0.081480	0.454100	0.066850
C941	C94	0.092840	0.465720	0.047570
C951	C95	0.631880	0.491550	0.039950
C961	C96	0.245200	0.441960	0.075650
C971	C97	0.195630	0.594150	0.906840
C981	C98	0.133010	0.611800	0.889600
C991	C99	0.937420	0.609030	0.883290
C1001	C100	0.887000	0.626380	0.865360
C1011	C101	0.702430	0.623050	0.858040
C1021	C102	0.635790	0.564400	0.865840
C1031	C103	0.504650	0.547140	0.871530
C1041	C104	0.556780	0.530070	0.889590
C1051	C105	0.402820	0.514440	0.896070
C1061	C106	0.458890	0.497090	0.913520
C1071	C107	0.621020	0.084280	0.411430
C1081	C108	0.694580	0.101670	0.411420
C1091	C109	0.547250	0.108070	0.420670
C1101	C110	0.617590	0.126070	0.419800
C1111	C111	0.492280	0.131670	0.431460
C1121	C112	0.433300	0.139060	0.482530
C1131	C113	0.241360	0.131690	0.493160
C1141	C114	0.173080	0.113820	0.493620
C1151	C115	0.971180	0.107470	0.502690
C1161	C116	0.891410	0.090300	0.502140
C1171	C117	0.673200	0.921710	0.518560
C1181	C118	0.322120	0.957610	0.532230
C1191	C119	0.853530	0.949840	0.514110
C1201	C120	0.845700	0.930550	0.521850
C1211	C121	0.997310	0.920270	0.532390
C1221	C122	0.149380	0.929480	0.535480
C1231	C123	0.156500	0.948770	0.527890
C1241	C124	0.007620	0.959060	0.516850
C1251	C125	0.748840	0.013640	0.517940
C1261	C126	0.765600	0.094960	0.485680
C1271	C127	0.297580	0.138590	0.423170
C1281	C128	0.963490	0.162230	0.399560
C1291	C129	0.789480	0.188100	0.451260
C1301	C130	0.457560	0.193700	0.401780
C1311	C131	0.712520	0.255810	0.410070
C1321	C132	0.861050	0.869450	0.564220
C1331	C133	0.874670	0.888850	0.556140
C1341	C134	0.118940	0.891340	0.533910
C1351	C135	0.126620	0.872020	0.543660
C1361	C136	0.553350	0.771270	0.608930
C1371	C137	0.454330	0.787540	0.600030
C1381	C138	0.345020	0.756430	0.596910
C1391	C139	0.235130	0.772200	0.589340
C1401	C140	0.998530	0.899870	0.540880
C1411	C141	0.000080	0.860670	0.558950
C1421	C142	0.286450	0.787720	0.590970
C1431	C143	0.499080	0.755520	0.607850
C1441	C144	0.885120	0.986860	0.516360
C1451	C145	0.875800	0.006090	0.508650
C1461	C146	0.987990	0.018040	0.492430
C1471	C147	0.856210	0.182320	0.437620
C1481	C148	0.935410	0.164970	0.444360
C1491	C149	0.969280	0.157260	0.432900
C1501	C150	0.946900	0.168680	0.413510
C1511	C151	0.890050	0.186860	0.406610
C1521	C152	0.828210	0.193210	0.418480
C1531	C153	0.916540	0.725420	0.627550
C1541	C154	0.808560	0.740410	0.616560
C1551	C155	0.610130	0.738690	0.618050
C1561	C156	0.521260	0.721600	0.631140
C1571	C157	0.397370	0.292380	0.358470
C1581	C158	0.194570	0.291530	0.361070
C1591	C159	0.070180	0.307690	0.351790
C1601	C160	0.948750	0.692550	0.648470
C1611	C161	0.831070	0.707920	0.640200
C1621	C162	0.627870	0.706330	0.642480
C1631	C163	0.498790	0.276580	0.369550
C1641	C164	0.405830	0.260000	0.383180
C1651	C165	0.208070	0.259150	0.385360
C1661	C166	0.104870	0.274560	0.374430
C1671	C167	0.167290	0.804240	0.583070
C1681	C168	0.103490	0.810610	0.594870
C1691	C169	0.046320	0.828800	0.587890
C1701	C170	0.024210	0.840120	0.568490
C1711	C171	0.058560	0.832330	0.557100
C1721	C172	0.139070	0.815030	0.563920
C1731	C173	0.005530	0.979430	0.508300
C1741	C174	0.117650	0.991370	0.492070
C1751	C175	0.108330	0.010600	0.484390
C1761	C176	0.510950	0.242850	0.393570
C1771	C177	0.713210	0.210000	0.410610
C1781	C178	0.993570	0.136730	0.442340
C1791	C179	0.995430	0.097550	0.460160
C1801	C180	0.770300	0.225370	0.412270
C1811	C181	0.665710	0.241480	0.404620
C1821	C182	0.544220	0.210630	0.401520
C1831	C183	0.449980	0.227210	0.392570
C1841	C184	0.867120	0.125330	0.457580
C1851	C185	0.874930	0.105980	0.467240
C1861	C186	0.119290	0.108660	0.444930
C1871	C187	0.132830	0.128060	0.436970
C1881	C188	0.306510	0.741650	0.591850
C1891	C189	0.535280	0.804660	0.599750
C1901	C190	0.207070	0.809220	0.550340
C1911	C191	0.029780	0.835340	0.601750
C1921	C192	0.696420	0.859000	0.578070
C1931	C193	0.228310	0.902280	0.515450
C1941	C194	0.244600	0.983830	0.482790
C1951	C195	0.986240	0.038400	0.483930
C1961	C196	0.837480	0.048730	0.472900
C1971	C197	0.844720	0.068010	0.465390
C1981	C198	0.996770	0.077170	0.468550
C1991	C199	0.148330	0.066850	0.479050
C2001	C200	0.140410	0.047570	0.486710
C2011	C201	0.671830	0.039950	0.468500
C2021	C202	0.320850	0.075650	0.482390
C2031	C203	0.102470	0.906840	0.499010
C2041	C204	0.022610	0.889600	0.498600
C2051	C205	0.820710	0.883290	0.507680
C2061	C206	0.752360	0.865360	0.508260
C2071	C207	0.560470	0.858040	0.518910
C2081	C208	0.501630	0.865840	0.569760
C2091	C209	0.376180	0.871530	0.581330
C2101	C210	0.446370	0.889590	0.580340
C2111	C211	0.298890	0.896070	0.589490
C2121	C212	0.372410	0.913520	0.589390
C2131	C213	0.032450	0.411430	0.504290
C2141	C214	0.106000	0.411420	0.486910
C2151	C215	0.967920	0.420670	0.471260
C2161	C216	0.037390	0.419800	0.454130
C2171	C217	0.923740	0.431460	0.436870
C2181	C218	0.915830	0.482530	0.378410
C2191	C219	0.734520	0.493160	0.375150
C2201	C220	0.666700	0.493620	0.392560
C2211	C221	0.473870	0.502690	0.389840
C2221	C222	0.393550	0.502140	0.407560
C2231	C223	0.191760	0.518560	0.559730
C2241	C224	0.854350	0.532230	0.510160
C2251	C225	0.367640	0.514110	0.536050
C2261	C226	0.367550	0.521850	0.547600
C2271	C227	0.529700	0.532390	0.547340
C2281	C228	0.684860	0.535480	0.535040
C2291	C229	0.684390	0.527890	0.523340
C2301	C230	0.524470	0.516850	0.524090
C2311	C231	0.266780	0.517940	0.468420
C2321	C232	0.251280	0.485680	0.419360
C2331	C233	0.720750	0.423170	0.438240
C2341	C234	0.363050	0.399560	0.438210
C2351	C235	0.240740	0.451260	0.360640
C2361	C236	0.859340	0.401780	0.404520
C2371	C237	0.122590	0.410070	0.334120
C2381	C238	0.425270	0.564220	0.566330
C2391	C239	0.430810	0.556140	0.555010
C2401	C240	0.652850	0.533910	0.574750
C2411	C241	0.670280	0.543660	0.584320
C2421	C242	0.162280	0.608930	0.619800
C2431	C243	0.054360	0.600030	0.612430
C2441	C244	0.941930	0.596910	0.646660
C2451	C245	0.824470	0.589340	0.638460
C2461	C246	0.539410	0.540880	0.559250
C2471	C247	0.559030	0.558950	0.580380
C2481	C248	0.877420	0.590970	0.621310
C2491	C249	0.106930	0.607850	0.636630
C2501	C250	0.401480	0.516360	0.496780
C2511	C251	0.384450	0.508650	0.485260
C2521	C252	0.480420	0.492430	0.489530
C2531	C253	0.293830	0.437620	0.380060
C2541	C254	0.379770	0.444360	0.390670
C2551	C255	0.402180	0.432900	0.409840
C2561	C256	0.360410	0.413510	0.417810
C2571	C257	0.296660	0.406610	0.406530
C2581	C258	0.246690	0.418480	0.388310
C2591	C259	0.544090	0.627550	0.647030
C2601	C260	0.425120	0.616560	0.643030
C2611	C261	0.228180	0.618050	0.643260
C2621	C262	0.152400	0.631140	0.647260
C2631	C263	0.755840	0.358470	0.349150
C2641	C264	0.555640	0.361070	0.347400
C2651	C265	0.421970	0.351790	0.340520
C2661	C266	0.597220	0.648470	0.658980
C2671	C267	0.471270	0.640200	0.651880
C2681	C268	0.270350	0.642480	0.651190
C2691	C269	0.868340	0.369550	0.353870
C2701	C270	0.789010	0.383180	0.356820
C2711	C271	0.593430	0.385360	0.355490
C2721	C272	0.479300	0.374430	0.351010
C2731	C273	0.750360	0.583070	0.612690
C2741	C274	0.698360	0.594870	0.594520
C2751	C275	0.634210	0.587890	0.583310
C2761	C276	0.592700	0.568490	0.591390
C2771	C277	0.615660	0.557100	0.610570
C2781	C278	0.702990	0.563920	0.621050
C2791	C279	0.513830	0.508300	0.512270
C2801	C280	0.609720	0.492070	0.516560
C2811	C281	0.592720	0.484390	0.505010
C2821	C282	0.904520	0.393570	0.363580
C2831	C283	0.123820	0.410610	0.379390
C2841	C284	0.435910	0.442340	0.420930
C2851	C285	0.455590	0.460160	0.442290
C2861	C286	0.182570	0.412270	0.362360
C2871	C287	0.070330	0.404620	0.353900
C2881	C288	0.945740	0.401520	0.387850
C2891	C289	0.842550	0.392570	0.380220
C2901	C290	0.324700	0.457580	0.417090
C2911	C291	0.342170	0.467240	0.426780
C2921	C292	0.564220	0.444930	0.446410
C2931	C293	0.569800	0.436970	0.434970
C2941	C294	0.898360	0.591850	0.666500
C2951	C295	0.135030	0.599750	0.595590
C2961	C296	0.757410	0.550340	0.640440
C2971	C297	0.631530	0.601750	0.562910
C2981	C298	0.274490	0.578070	0.562930
C2991	C299	0.743760	0.515450	0.582270
C3001	C300	0.727390	0.482790	0.533380
C3011	C301	0.470170	0.483930	0.477670
C3021	C302	0.310380	0.472900	0.478370
C3031	C303	0.310110	0.465390	0.466600
C3041	C304	0.465320	0.468550	0.454280
C3051	C305	0.627380	0.479050	0.454100
C3061	C306	0.627120	0.486710	0.465720
C3071	C307	0.140330	0.468500	0.491550
C3081	C308	0.803240	0.482390	0.441960
C3091	C309	0.601480	0.499010	0.594150
C3101	C310	0.521210	0.498600	0.611800
C3111	C311	0.328390	0.507680	0.609030
C3121	C312	0.260620	0.508260	0.626380
C3131	C313	0.079380	0.518910	0.623050
C3141	C314	0.071390	0.569760	0.564400
C3151	C315	0.957510	0.581330	0.547140
C3161	C316	0.026710	0.580340	0.530070
C3171	C317	0.888380	0.589490	0.514440
C3181	C318	0.961800	0.589390	0.497090
O11	O1	0.194020	0.348660	0.307460
O21	O2	0.816170	0.337090	0.323520
O31	O3	0.587000	0.337830	0.305390
O41	O4	0.433690	0.660770	0.694880
O51	O5	0.199080	0.663980	0.676430
O61	O6	0.847720	0.653240	0.691580
O71	O7	0.501480	0.307460	0.343880
O81	O8	0.139690	0.323520	0.339390
O91	O9	0.892390	0.305390	0.356780
O101	O10	0.128570	0.694880	0.644350
O111	O11	0.875510	0.676430	0.659590
O121	O12	0.539300	0.691580	0.655180
O131	O13	0.845360	0.343880	0.348660
O141	O14	0.479080	0.339390	0.337090
O151	O15	0.249170	0.356780	0.337830
O161	O16	0.772920	0.644350	0.660770
O171	O17	0.535100	0.659590	0.663980
O181	O18	0.194480	0.655180	0.653240
