data_RAVXET_clean_PM
_symmetry_space_group_name_H-M	'P1'
_cell_length_a	6.731700
_cell_length_b	54.546700
_cell_length_c	54.546700
_cell_angle_alpha	60.167800
_cell_angle_beta	87.642300
_cell_angle_gamma	92.357700
_symmetry_Int_Tables_number 1

loop_
_symmetry_equiv_pos_as_xyz
'x,y,z'

loop_
_atom_site_label
_atom_site_type_symbol
_atom_site_fract_x
_atom_site_fract_y
_atom_site_fract_z
Mg11	Mg1	0.936770	0.353030	0.329990
Mg21	Mg2	0.266760	0.329990	0.316980
Mg31	Mg3	0.583740	0.316980	0.353030
Mg41	Mg4	0.063230	0.646970	0.670010
Mg51	Mg5	0.733240	0.670010	0.683020
Mg61	Mg6	0.416260	0.683020	0.646970
H11	H1	0.931490	0.365480	0.388370
H21	H2	0.447710	0.412080	0.394680
H31	H3	0.232910	0.393240	0.372090
H41	H4	0.021240	0.413180	0.483950
H51	H5	0.497860	0.497920	0.432610
H61	H6	0.139920	0.484460	0.505670
H71	H7	0.009570	0.468600	0.395760
H81	H8	0.929030	0.363890	0.436370
H91	H9	0.854090	0.449000	0.346310
H101	H10	0.858570	0.477240	0.354600
H111	H11	0.635920	0.454150	0.363610
H121	H12	0.310400	0.388640	0.469610
H131	H13	0.270480	0.363720	0.457590
H141	H14	0.089390	0.364040	0.483140
H151	H15	0.598870	0.473860	0.401590
H161	H16	0.397410	0.496540	0.386140
H171	H17	0.384030	0.460710	0.391950
H181	H18	0.013630	0.435100	0.523660
H191	H19	0.276930	0.433870	0.530980
H201	H20	0.153690	0.405200	0.529160
H211	H21	0.057590	0.508850	0.455810
H221	H22	0.861370	0.533190	0.443040
H231	H23	0.783260	0.517900	0.408400
H241	H24	0.978370	0.493080	0.421080
H251	H25	0.924450	0.546930	0.363570
H261	H26	0.117850	0.522370	0.370480
H271	H27	0.176940	0.584990	0.355100
H281	H28	0.217560	0.571750	0.330490
H291	H29	0.684270	0.581620	0.339610
H301	H30	0.488140	0.604350	0.335400
H311	H31	0.719350	0.569290	0.388870
H321	H32	0.725310	0.607090	0.366940
H331	H33	0.415080	0.545830	0.418960
H341	H34	0.565500	0.565580	0.431540
H351	H35	0.298520	0.568070	0.430370
H361	H36	0.319860	0.388370	0.246150
H371	H37	0.842390	0.394680	0.193240
H381	H38	0.605000	0.372090	0.234670
H391	H39	0.505190	0.483950	0.102870
H401	H40	0.930470	0.432610	0.069470
H411	H41	0.645590	0.505670	0.009870
H421	H42	0.405330	0.395760	0.135640
H431	H43	0.365400	0.436370	0.199740
H441	H44	0.200400	0.346310	0.204690
H451	H45	0.213170	0.354600	0.168160
H461	H46	0.999530	0.363610	0.182240
H471	H47	0.780010	0.469610	0.141750
H481	H48	0.728070	0.457590	0.178690
H491	H49	0.572530	0.483140	0.152820
H501	H50	0.000460	0.401590	0.124550
H511	H51	0.783550	0.386140	0.117320
H521	H52	0.775980	0.391950	0.147340
H531	H53	0.537290	0.523660	0.041240
H541	H54	0.807910	0.530980	0.035150
H551	H55	0.682850	0.529160	0.065640
H561	H56	0.513400	0.455810	0.035340
H571	H57	0.304410	0.443040	0.023770
H581	H58	0.191660	0.408400	0.073700
H591	H59	0.399450	0.421080	0.085840
H601	H60	0.288020	0.363570	0.089500
H611	H61	0.488330	0.370480	0.107150
H621	H62	0.532040	0.355100	0.059910
H631	H63	0.548050	0.330490	0.097760
H641	H64	0.023880	0.339610	0.078770
H651	H65	0.823540	0.335400	0.060250
H661	H66	0.108220	0.388870	0.041840
H671	H67	0.092250	0.366940	0.025970
H681	H68	0.834040	0.418960	0.035210
H691	H69	0.997040	0.431540	0.002880
H701	H70	0.728890	0.430370	0.001560
H711	H71	0.566010	0.246150	0.365480
H721	H72	0.035630	0.193240	0.412080
H731	H73	0.839670	0.234670	0.393240
H741	H74	0.608060	0.102870	0.413180
H751	H75	0.999940	0.069470	0.497920
H761	H76	0.655460	0.009870	0.484460
H771	H77	0.540970	0.135640	0.468600
H781	H78	0.565140	0.199740	0.363890
H791	H79	0.405090	0.204690	0.449000
H801	H80	0.381330	0.168160	0.477240
H811	H81	0.181770	0.182240	0.454150
H821	H82	0.921760	0.141750	0.388640
H831	H83	0.906760	0.178690	0.363720
H841	H84	0.725350	0.152820	0.364040
H851	H85	0.125010	0.124550	0.473860
H861	H86	0.900870	0.117320	0.496540
H871	H87	0.923320	0.147340	0.460710
H881	H88	0.578530	0.041240	0.435100
H891	H89	0.843060	0.035150	0.433870
H901	H90	0.748490	0.065640	0.405200
H911	H91	0.548740	0.035340	0.508850
H921	H92	0.328180	0.023770	0.533190
H931	H93	0.265360	0.073700	0.517900
H941	H94	0.485290	0.085840	0.493080
H951	H95	0.377520	0.089500	0.546930
H961	H96	0.595480	0.107150	0.522370
H971	H97	0.591950	0.059910	0.584990
H981	H98	0.645810	0.097760	0.571750
H991	H99	0.102650	0.078770	0.581620
H1001	H100	0.883790	0.060250	0.604350
H1011	H101	0.150060	0.041840	0.569290
H1021	H102	0.118220	0.025970	0.607090
H1031	H103	0.869250	0.035210	0.545830
H1041	H104	0.999920	0.002880	0.565580
H1051	H105	0.730450	0.001560	0.568070
H1061	H106	0.068510	0.634520	0.611630
H1071	H107	0.552290	0.587920	0.605320
H1081	H108	0.767090	0.606760	0.627910
H1091	H109	0.978760	0.586820	0.516050
H1101	H110	0.502140	0.502080	0.567390
H1111	H111	0.860080	0.515540	0.494330
H1121	H112	0.990430	0.531400	0.604240
H1131	H113	0.070970	0.636110	0.563630
H1141	H114	0.145910	0.551000	0.653690
H1151	H115	0.141430	0.522760	0.645400
H1161	H116	0.364080	0.545850	0.636390
H1171	H117	0.689600	0.611360	0.530390
H1181	H118	0.729520	0.636280	0.542410
H1191	H119	0.910610	0.635960	0.516860
H1201	H120	0.401130	0.526140	0.598410
H1211	H121	0.602590	0.503460	0.613860
H1221	H122	0.615970	0.539290	0.608050
H1231	H123	0.986370	0.564900	0.476340
H1241	H124	0.723070	0.566130	0.469020
H1251	H125	0.846310	0.594800	0.470840
H1261	H126	0.942410	0.491150	0.544190
H1271	H127	0.138630	0.466810	0.556960
H1281	H128	0.216740	0.482100	0.591600
H1291	H129	0.021630	0.506920	0.578920
H1301	H130	0.075550	0.453070	0.636430
H1311	H131	0.882150	0.477630	0.629520
H1321	H132	0.823060	0.415010	0.644900
H1331	H133	0.782440	0.428250	0.669510
H1341	H134	0.315730	0.418380	0.660390
H1351	H135	0.511860	0.395650	0.664600
H1361	H136	0.280650	0.430710	0.611130
H1371	H137	0.274690	0.392910	0.633060
H1381	H138	0.584920	0.454170	0.581040
H1391	H139	0.434500	0.434420	0.568460
H1401	H140	0.701480	0.431930	0.569630
H1411	H141	0.680140	0.611630	0.753850
H1421	H142	0.157610	0.605320	0.806760
H1431	H143	0.395000	0.627910	0.765330
H1441	H144	0.494810	0.516050	0.897130
H1451	H145	0.069530	0.567390	0.930530
H1461	H146	0.354410	0.494330	0.990130
H1471	H147	0.594670	0.604240	0.864360
H1481	H148	0.634600	0.563630	0.800260
H1491	H149	0.799600	0.653690	0.795310
H1501	H150	0.786830	0.645400	0.831840
H1511	H151	0.000470	0.636390	0.817760
H1521	H152	0.219990	0.530390	0.858250
H1531	H153	0.271930	0.542410	0.821310
H1541	H154	0.427470	0.516860	0.847180
H1551	H155	0.999540	0.598410	0.875450
H1561	H156	0.216450	0.613860	0.882680
H1571	H157	0.224020	0.608050	0.852660
H1581	H158	0.462710	0.476340	0.958760
H1591	H159	0.192090	0.469020	0.964850
H1601	H160	0.317150	0.470840	0.934360
H1611	H161	0.486600	0.544190	0.964660
H1621	H162	0.695590	0.556960	0.976230
H1631	H163	0.808340	0.591600	0.926300
H1641	H164	0.600550	0.578920	0.914160
H1651	H165	0.711980	0.636430	0.910500
H1661	H166	0.511670	0.629520	0.892850
H1671	H167	0.467960	0.644900	0.940090
H1681	H168	0.451950	0.669510	0.902240
H1691	H169	0.976120	0.660390	0.921230
H1701	H170	0.176460	0.664600	0.939750
H1711	H171	0.891780	0.611130	0.958160
H1721	H172	0.907750	0.633060	0.974030
H1731	H173	0.165960	0.581040	0.964790
H1741	H174	0.002960	0.568460	0.997120
H1751	H175	0.271110	0.569630	0.998440
H1761	H176	0.433990	0.753850	0.634520
H1771	H177	0.964370	0.806760	0.587920
H1781	H178	0.160330	0.765330	0.606760
H1791	H179	0.391940	0.897130	0.586820
H1801	H180	0.000060	0.930530	0.502080
H1811	H181	0.344540	0.990130	0.515540
H1821	H182	0.459030	0.864360	0.531400
H1831	H183	0.434860	0.800260	0.636110
H1841	H184	0.594910	0.795310	0.551000
H1851	H185	0.618670	0.831840	0.522760
H1861	H186	0.818230	0.817760	0.545850
H1871	H187	0.078240	0.858250	0.611360
H1881	H188	0.093240	0.821310	0.636280
H1891	H189	0.274650	0.847180	0.635960
H1901	H190	0.874990	0.875450	0.526140
H1911	H191	0.099130	0.882680	0.503460
H1921	H192	0.076680	0.852660	0.539290
H1931	H193	0.421470	0.958760	0.564900
H1941	H194	0.156940	0.964850	0.566130
H1951	H195	0.251510	0.934360	0.594800
H1961	H196	0.451260	0.964660	0.491150
H1971	H197	0.671820	0.976230	0.466810
H1981	H198	0.734640	0.926300	0.482100
H1991	H199	0.514710	0.914160	0.506920
H2001	H200	0.622480	0.910500	0.453070
H2011	H201	0.404520	0.892850	0.477630
H2021	H202	0.408050	0.940090	0.415010
H2031	H203	0.354190	0.902240	0.428250
H2041	H204	0.897350	0.921230	0.418380
H2051	H205	0.116210	0.939750	0.395650
H2061	H206	0.849940	0.958160	0.430710
H2071	H207	0.881780	0.974030	0.392910
H2081	H208	0.130750	0.964790	0.454170
H2091	H209	0.000080	0.997120	0.434420
H2101	H210	0.269550	0.998440	0.431930
C11	C1	0.318890	0.358190	0.351770
C21	C2	0.456300	0.367920	0.366630
C31	C3	0.659640	0.360590	0.371030
C41	C4	0.780880	0.372140	0.383810
C51	C5	0.709870	0.391630	0.391300
C61	C6	0.508980	0.398120	0.387800
C71	C7	0.384860	0.386730	0.375360
C81	C8	0.193940	0.440870	0.444320
C91	C9	0.133170	0.430980	0.473040
C101	C10	0.217160	0.443210	0.488150
C111	C11	0.350920	0.468020	0.473450
C121	C12	0.404600	0.478390	0.444460
C131	C13	0.339130	0.464230	0.430270
C141	C14	0.430390	0.484180	0.487180
C151	C15	0.634080	0.494460	0.482790
C161	C16	0.298170	0.490760	0.503570
C171	C17	0.845030	0.404660	0.403400
C181	C18	0.090590	0.427870	0.429220
C191	C19	0.993590	0.445720	0.404560
C201	C20	0.877870	0.434590	0.390880
C211	C21	0.074480	0.398070	0.439920
C221	C22	0.947340	0.386810	0.427400
C231	C23	0.801860	0.454850	0.362330
C241	C24	0.192700	0.377610	0.464010
C251	C25	0.433190	0.474310	0.400780
C261	C26	0.162230	0.428730	0.519750
C271	C27	0.909250	0.512260	0.446650
C281	C28	0.931090	0.513800	0.417830
C291	C29	0.075360	0.541280	0.371870
C301	C30	0.224210	0.566530	0.353050
C311	C31	0.552420	0.584160	0.351090
C321	C32	0.625060	0.587260	0.375850
C331	C33	0.435120	0.566140	0.419260
C341	C34	0.670660	0.351770	0.290040
C351	C35	0.822930	0.366630	0.265450
C361	C36	0.030670	0.371030	0.268380
C371	C37	0.164690	0.383810	0.244050
C381	C38	0.101170	0.391300	0.217070
C391	C39	0.896780	0.387800	0.214080
C401	C40	0.760220	0.375360	0.237910
C411	C41	0.638260	0.444320	0.114810
C421	C42	0.606210	0.473040	0.095980
C431	C43	0.705310	0.488150	0.068640
C441	C44	0.824370	0.473450	0.058530
C451	C45	0.849060	0.444460	0.077150
C461	C46	0.769400	0.430270	0.105500
C471	C47	0.917570	0.487180	0.028640
C481	C48	0.116870	0.482790	0.022750
C491	C49	0.801740	0.503570	0.005670
C501	C50	0.248430	0.403400	0.191940
C511	C51	0.519810	0.429220	0.142910
C521	C52	0.398150	0.404560	0.149720
C531	C53	0.268750	0.390880	0.174530
C541	C54	0.514400	0.439920	0.162010
C551	C55	0.374740	0.427400	0.185790
C561	C56	0.164190	0.362330	0.182820
C571	C57	0.656710	0.464010	0.158380
C581	C58	0.833970	0.400780	0.124910
C591	C59	0.681980	0.519750	0.051520
C601	C60	0.355900	0.446650	0.041090
C611	C61	0.348920	0.417830	0.068370
C621	C62	0.447230	0.371870	0.086850
C631	C63	0.577260	0.353050	0.080420
C641	C64	0.903510	0.351090	0.064750
C651	C65	0.000910	0.375850	0.036890
C661	C66	0.854380	0.419260	0.014600
C671	C67	0.960700	0.290040	0.358190
C681	C68	0.088380	0.265450	0.367920
C691	C69	0.299050	0.268380	0.360590
C701	C70	0.408740	0.244050	0.372140
C711	C71	0.318240	0.217070	0.391630
C721	C72	0.110860	0.214080	0.398120
C731	C73	0.998130	0.237910	0.386730
C741	C74	0.753070	0.114810	0.440870
C751	C75	0.702190	0.095980	0.430980
C761	C76	0.773950	0.068640	0.443210
C771	C77	0.882900	0.058530	0.468020
C781	C78	0.926210	0.077150	0.478390
C791	C79	0.874900	0.105500	0.464230
C801	C80	0.946210	0.028640	0.484180
C811	C81	0.139620	0.022750	0.494460
C821	C82	0.807410	0.005670	0.490760
C831	C83	0.440370	0.191940	0.404660
C841	C84	0.662720	0.142910	0.427870
C851	C85	0.547870	0.149720	0.445720
C861	C86	0.443280	0.174530	0.434590
C871	C87	0.676410	0.162010	0.398070
C881	C88	0.560530	0.185790	0.386810
C891	C89	0.347010	0.182820	0.454850
C901	C90	0.815090	0.158380	0.377610
C911	C91	0.958880	0.124910	0.474310
C921	C92	0.733500	0.051520	0.428730
C931	C93	0.396990	0.041090	0.512260
C941	C94	0.417290	0.068370	0.513800
C951	C95	0.534080	0.086850	0.541280
C961	C96	0.657680	0.080420	0.566530
C971	C97	0.968260	0.064750	0.584160
C981	C98	0.037800	0.036890	0.587260
C991	C99	0.868980	0.014600	0.566140
C1001	C100	0.681110	0.641810	0.648230
C1011	C101	0.543700	0.632080	0.633370
C1021	C102	0.340360	0.639410	0.628970
C1031	C103	0.219120	0.627860	0.616190
C1041	C104	0.290130	0.608370	0.608700
C1051	C105	0.491020	0.601880	0.612200
C1061	C106	0.615140	0.613270	0.624640
C1071	C107	0.806060	0.559130	0.555680
C1081	C108	0.866830	0.569020	0.526960
C1091	C109	0.782840	0.556790	0.511850
C1101	C110	0.649080	0.531980	0.526550
C1111	C111	0.595400	0.521610	0.555540
C1121	C112	0.660870	0.535770	0.569730
C1131	C113	0.569610	0.515820	0.512820
C1141	C114	0.365920	0.505540	0.517210
C1151	C115	0.701830	0.509240	0.496430
C1161	C116	0.154970	0.595340	0.596600
C1171	C117	0.909410	0.572130	0.570780
C1181	C118	0.006410	0.554280	0.595440
C1191	C119	0.122130	0.565410	0.609120
C1201	C120	0.925520	0.601930	0.560080
C1211	C121	0.052660	0.613190	0.572600
C1221	C122	0.198140	0.545150	0.637670
C1231	C123	0.807300	0.622390	0.535990
C1241	C124	0.566810	0.525690	0.599220
C1251	C125	0.837770	0.571270	0.480250
C1261	C126	0.090750	0.487740	0.553350
C1271	C127	0.068910	0.486200	0.582170
C1281	C128	0.924640	0.458720	0.628130
C1291	C129	0.775790	0.433470	0.646950
C1301	C130	0.447580	0.415840	0.648910
C1311	C131	0.374940	0.412740	0.624150
C1321	C132	0.564880	0.433860	0.580740
C1331	C133	0.329340	0.648230	0.709960
C1341	C134	0.177070	0.633370	0.734550
C1351	C135	0.969330	0.628970	0.731620
C1361	C136	0.835310	0.616190	0.755950
C1371	C137	0.898830	0.608700	0.782930
C1381	C138	0.103220	0.612200	0.785920
C1391	C139	0.239780	0.624640	0.762090
C1401	C140	0.361740	0.555680	0.885190
C1411	C141	0.393790	0.526960	0.904020
C1421	C142	0.294690	0.511850	0.931360
C1431	C143	0.175630	0.526550	0.941470
C1441	C144	0.150940	0.555540	0.922850
C1451	C145	0.230600	0.569730	0.894500
C1461	C146	0.082430	0.512820	0.971360
C1471	C147	0.883130	0.517210	0.977250
C1481	C148	0.198260	0.496430	0.994330
C1491	C149	0.751570	0.596600	0.808060
C1501	C150	0.480190	0.570780	0.857090
C1511	C151	0.601850	0.595440	0.850280
C1521	C152	0.731250	0.609120	0.825470
C1531	C153	0.485600	0.560080	0.837990
C1541	C154	0.625260	0.572600	0.814210
C1551	C155	0.835810	0.637670	0.817180
C1561	C156	0.343290	0.535990	0.841620
C1571	C157	0.166030	0.599220	0.875090
C1581	C158	0.318020	0.480250	0.948480
C1591	C159	0.644100	0.553350	0.958910
C1601	C160	0.651080	0.582170	0.931630
C1611	C161	0.552770	0.628130	0.913150
C1621	C162	0.422740	0.646950	0.919580
C1631	C163	0.096490	0.648910	0.935250
C1641	C164	0.999090	0.624150	0.963110
C1651	C165	0.145620	0.580740	0.985400
C1661	C166	0.039300	0.709960	0.641810
C1671	C167	0.911620	0.734550	0.632080
C1681	C168	0.700950	0.731620	0.639410
C1691	C169	0.591260	0.755950	0.627860
C1701	C170	0.681760	0.782930	0.608370
C1711	C171	0.889140	0.785920	0.601880
C1721	C172	0.001870	0.762090	0.613270
C1731	C173	0.246930	0.885190	0.559130
C1741	C174	0.297810	0.904020	0.569020
C1751	C175	0.226050	0.931360	0.556790
C1761	C176	0.117100	0.941470	0.531980
C1771	C177	0.073790	0.922850	0.521610
C1781	C178	0.125100	0.894500	0.535770
C1791	C179	0.053790	0.971360	0.515820
C1801	C180	0.860380	0.977250	0.505540
C1811	C181	0.192590	0.994330	0.509240
C1821	C182	0.559630	0.808060	0.595340
C1831	C183	0.337280	0.857090	0.572130
C1841	C184	0.452130	0.850280	0.554280
C1851	C185	0.556720	0.825470	0.565410
C1861	C186	0.323590	0.837990	0.601930
C1871	C187	0.439470	0.814210	0.613190
C1881	C188	0.652990	0.817180	0.545150
C1891	C189	0.184910	0.841620	0.622390
C1901	C190	0.041120	0.875090	0.525690
C1911	C191	0.266500	0.948480	0.571270
C1921	C192	0.603010	0.958910	0.487740
C1931	C193	0.582710	0.931630	0.486200
C1941	C194	0.465920	0.913150	0.458720
C1951	C195	0.342320	0.919580	0.433470
C1961	C196	0.031740	0.935250	0.415840
C1971	C197	0.962200	0.963110	0.412740
C1981	C198	0.131020	0.985400	0.433860
O11	O1	0.135010	0.364310	0.349850
O21	O2	0.384600	0.344260	0.340420
O31	O3	0.744310	0.340420	0.365440
O41	O4	0.769130	0.488960	0.465710
O51	O5	0.076890	0.535910	0.400160
O61	O6	0.420100	0.559360	0.361810
O71	O7	0.459080	0.589830	0.391380
O81	O8	0.484860	0.349850	0.285840
O91	O9	0.725020	0.340420	0.315320
O101	O10	0.109750	0.365440	0.294140
O111	O11	0.234840	0.465710	0.045330
O121	O12	0.477050	0.400160	0.063930
O131	O13	0.781910	0.361810	0.078830
O141	O14	0.850460	0.391380	0.018790
O151	O15	0.770700	0.285840	0.364310
O161	O16	0.040340	0.315320	0.344260
O171	O17	0.403890	0.294140	0.340420
O181	O18	0.280170	0.045330	0.488960
O191	O19	0.540980	0.063930	0.535910
O201	O20	0.860740	0.078830	0.559360
O211	O21	0.869250	0.018790	0.589830
O221	O22	0.864990	0.635690	0.650150
O231	O23	0.615400	0.655740	0.659580
O241	O24	0.255690	0.659580	0.634560
O251	O25	0.230870	0.511040	0.534290
O261	O26	0.923110	0.464090	0.599840
O271	O27	0.579900	0.440640	0.638190
O281	O28	0.540920	0.410170	0.608620
O291	O29	0.515140	0.650150	0.714160
O301	O30	0.274980	0.659580	0.684680
O311	O31	0.890250	0.634560	0.705860
O321	O32	0.765160	0.534290	0.954670
O331	O33	0.522950	0.599840	0.936070
O341	O34	0.218090	0.638190	0.921170
O351	O35	0.149540	0.608620	0.981210
O361	O36	0.229300	0.714160	0.635690
O371	O37	0.959660	0.684680	0.655740
O381	O38	0.596110	0.705860	0.659580
O391	O39	0.719830	0.954670	0.511040
O401	O40	0.459020	0.936070	0.464090
O411	O41	0.139260	0.921170	0.440640
O421	O42	0.130750	0.981210	0.410170
