data_RAXYOF_clean_PM
_symmetry_space_group_name_H-M	'P1'
_cell_length_a	8.661500
_cell_length_b	14.566300
_cell_length_c	15.239000
_cell_angle_alpha	102.975000
_cell_angle_beta	90.000000
_cell_angle_gamma	107.296000
_symmetry_Int_Tables_number 1

loop_
_symmetry_equiv_pos_as_xyz
'x,y,z'

loop_
_atom_site_label
_atom_site_type_symbol
_atom_site_fract_x
_atom_site_fract_y
_atom_site_fract_z
Mn11	Mn1	0.491700	0.493480	0.383850
Mn21	Mn2	0.998220	0.506520	0.116150
Mn31	Mn3	0.508300	0.506520	0.616150
Mn41	Mn4	0.001780	0.493480	0.883850
H11	H1	0.642400	0.724600	0.381100
H21	H2	0.867500	0.539200	0.416400
H31	H3	0.114700	0.655800	0.420700
H41	H4	0.125700	0.812600	0.406700
H51	H5	0.779600	0.895400	0.381200
H61	H6	0.206000	0.091600	0.361900
H71	H7	0.857100	0.176200	0.352300
H81	H8	0.863800	0.333600	0.343400
H91	H9	0.110700	0.452400	0.350900
H101	H10	0.339700	0.262000	0.358900
H111	H11	0.917800	0.275400	0.118900
H121	H12	0.328300	0.460800	0.083600
H131	H13	0.458900	0.344200	0.079300
H141	H14	0.313100	0.187400	0.093300
H151	H15	0.884200	0.104600	0.118800
H161	H16	0.114400	0.908400	0.138100
H171	H17	0.680900	0.823800	0.147700
H181	H18	0.530200	0.666400	0.156600
H191	H19	0.658300	0.547600	0.149100
H201	H20	0.077700	0.738000	0.141100
H211	H21	0.357600	0.275400	0.618900
H221	H22	0.132500	0.460800	0.583600
H231	H23	0.885300	0.344200	0.579300
H241	H24	0.874300	0.187400	0.593300
H251	H25	0.220400	0.104600	0.618800
H261	H26	0.794000	0.908400	0.638100
H271	H27	0.142900	0.823800	0.647700
H281	H28	0.136200	0.666400	0.656600
H291	H29	0.889300	0.547600	0.649100
H301	H30	0.660300	0.738000	0.641100
H311	H31	0.082200	0.724600	0.881100
H321	H32	0.671700	0.539200	0.916400
H331	H33	0.541100	0.655800	0.920700
H341	H34	0.686900	0.812600	0.906700
H351	H35	0.115800	0.895400	0.881200
H361	H36	0.885600	0.091600	0.861900
H371	H37	0.319100	0.176200	0.852300
H381	H38	0.469800	0.333600	0.843400
H391	H39	0.341700	0.452400	0.850900
H401	H40	0.922300	0.262000	0.858900
C11	C1	0.739030	0.710860	0.389100
C21	C2	0.870740	0.601480	0.409500
C31	C3	0.019810	0.671420	0.412800
C41	C4	0.026330	0.764260	0.404400
C51	C5	0.882540	0.785280	0.392400
C61	C6	0.878100	0.882400	0.383100
C71	C7	0.107410	0.105020	0.363700
C81	C8	0.099890	0.202580	0.357700
C91	C9	0.955700	0.224600	0.352800
C101	C10	0.959420	0.317840	0.348600
C111	C11	0.108800	0.388600	0.352000
C121	C12	0.242610	0.277020	0.358000
C131	C13	0.028170	0.289140	0.110900
C141	C14	0.269260	0.398520	0.090500
C151	C15	0.348390	0.328580	0.087200
C161	C16	0.262070	0.235740	0.095600
C171	C17	0.097260	0.214720	0.107600
C181	C18	0.995700	0.117600	0.116900
C191	C19	0.002390	0.894980	0.136300
C201	C20	0.897310	0.797420	0.142300
C211	C21	0.731100	0.775400	0.147200
C221	C22	0.641580	0.682160	0.151400
C231	C23	0.720200	0.611400	0.148000
C241	C24	0.965590	0.722980	0.142000
C251	C25	0.260970	0.289140	0.610900
C261	C26	0.129260	0.398520	0.590500
C271	C27	0.980190	0.328580	0.587200
C281	C28	0.973670	0.235740	0.595600
C291	C29	0.117460	0.214720	0.607600
C301	C30	0.121900	0.117600	0.616900
C311	C31	0.892590	0.894980	0.636300
C321	C32	0.900110	0.797420	0.642300
C331	C33	0.044300	0.775400	0.647200
C341	C34	0.040580	0.682160	0.651400
C351	C35	0.891200	0.611400	0.648000
C361	C36	0.757390	0.722980	0.642000
C371	C37	0.971830	0.710860	0.889100
C381	C38	0.730740	0.601480	0.909500
C391	C39	0.651610	0.671420	0.912800
C401	C40	0.737930	0.764260	0.904400
C411	C41	0.902740	0.785280	0.892400
C421	C42	0.004300	0.882400	0.883100
C431	C43	0.997610	0.105020	0.863700
C441	C44	0.102690	0.202580	0.857700
C451	C45	0.268900	0.224600	0.852800
C461	C46	0.358420	0.317840	0.848600
C471	C47	0.279800	0.388600	0.852000
C481	C48	0.034410	0.277020	0.858000
N11	N1	0.731380	0.619360	0.396800
N21	N2	0.010570	0.949340	0.377600
N31	N3	0.976260	0.038320	0.371600
N41	N4	0.248720	0.370240	0.357000
N51	N5	0.584580	0.430160	0.487400
N61	N6	0.598540	0.348480	0.475900
N71	N7	0.611020	0.270440	0.464600
N81	N8	0.594310	0.403220	0.280400
N91	N9	0.706990	0.415780	0.237500
N101	N10	0.819200	0.425600	0.195600
N111	N11	0.112020	0.380640	0.103200
N121	N12	0.061230	0.050660	0.122400
N131	N13	0.937940	0.961680	0.128400
N141	N14	0.878480	0.629760	0.143000
N151	N15	0.154420	0.569840	0.012600
N161	N16	0.250060	0.651520	0.024100
N171	N17	0.340580	0.729560	0.035400
N181	N18	0.191090	0.596780	0.219600
N191	N19	0.291210	0.584220	0.262500
N201	N20	0.393600	0.574400	0.304400
N211	N21	0.268620	0.380640	0.603200
N221	N22	0.989430	0.050660	0.622400
N231	N23	0.023740	0.961680	0.628400
N241	N24	0.751280	0.629760	0.643000
N251	N25	0.415420	0.569840	0.512600
N261	N26	0.401460	0.651520	0.524100
N271	N27	0.388980	0.729560	0.535400
N281	N28	0.405690	0.596780	0.719600
N291	N29	0.293010	0.584220	0.762500
N301	N30	0.180800	0.574400	0.804400
N311	N31	0.887980	0.619360	0.896800
N321	N32	0.938770	0.949340	0.877600
N331	N33	0.062060	0.038320	0.871600
N341	N34	0.121520	0.370240	0.857000
N351	N35	0.845580	0.430160	0.987400
N361	N36	0.749940	0.348480	0.975900
N371	N37	0.659420	0.270440	0.964600
N381	N38	0.808910	0.403220	0.780400
N391	N39	0.708790	0.415780	0.737500
N401	N40	0.606400	0.425600	0.695600
