data_RAYFEE_clean_PM
_symmetry_space_group_name_H-M	'P1'
_cell_length_a	13.091100
_cell_length_b	20.352900
_cell_length_c	20.352900
_cell_angle_alpha	64.465900
_cell_angle_beta	77.619600
_cell_angle_gamma	102.380000
_symmetry_Int_Tables_number 1

loop_
_symmetry_equiv_pos_as_xyz
'x,y,z'

loop_
_atom_site_label
_atom_site_type_symbol
_atom_site_fract_x
_atom_site_fract_y
_atom_site_fract_z
Cu11	Cu1	0.871480	0.484350	0.827000
Cu21	Cu2	0.931850	0.478250	0.610150
Cu31	Cu3	0.698480	0.827000	0.688650
Cu41	Cu4	0.542000	0.610150	0.911600
Cu51	Cu5	0.387130	0.688650	0.484350
Cu61	Cu6	0.453600	0.911600	0.478250
Cu71	Cu7	0.128520	0.515650	0.173000
Cu81	Cu8	0.068150	0.521750	0.389850
Cu91	Cu9	0.301520	0.173000	0.311350
Cu101	Cu10	0.458000	0.389850	0.088400
Cu111	Cu11	0.612870	0.311350	0.515650
Cu121	Cu12	0.546400	0.088400	0.521750
H11	H1	0.914900	0.540300	0.942800
H21	H2	0.064000	0.606900	0.956000
H31	H3	0.238400	0.653600	0.866200
H41	H4	0.254900	0.641600	0.754000
H51	H5	0.295200	0.621900	0.383000
H61	H6	0.857700	0.942800	0.516900
H71	H7	0.020000	0.956000	0.437100
H81	H8	0.104600	0.866200	0.480200
H91	H9	0.008900	0.754000	0.604400
H101	H10	0.678200	0.383000	0.995100
H111	H11	0.374600	0.516900	0.540300
H121	H12	0.457100	0.437100	0.606900
H131	H13	0.584800	0.480200	0.653600
H141	H14	0.613300	0.604400	0.641600
H151	H15	0.673300	0.995100	0.621900
H161	H16	0.085100	0.459700	0.057200
H171	H17	0.936000	0.393100	0.044000
H181	H18	0.761600	0.346400	0.133800
H191	H19	0.745100	0.358400	0.246000
H201	H20	0.704800	0.378100	0.617000
H211	H21	0.142300	0.057200	0.483100
H221	H22	0.980000	0.044000	0.562900
H231	H23	0.895400	0.133800	0.519800
H241	H24	0.991100	0.246000	0.395600
H251	H25	0.321800	0.617000	0.004900
H261	H26	0.625400	0.483100	0.459700
H271	H27	0.542900	0.562900	0.393100
H281	H28	0.415200	0.519800	0.346400
H291	H29	0.386700	0.395600	0.358400
H301	H30	0.326700	0.004900	0.378100
C11	C1	0.984700	0.561000	0.904400
C21	C2	0.073600	0.600000	0.913100
C31	C3	0.176000	0.628800	0.859700
C41	C4	0.186100	0.620300	0.793300
C51	C5	0.094010	0.581010	0.788180
C61	C6	0.092110	0.565660	0.724530
C71	C7	0.122230	0.563400	0.622610
C81	C8	0.159400	0.572540	0.545440
C91	C9	0.241150	0.600460	0.431610
C101	C10	0.889100	0.904400	0.534600
C111	C11	0.986700	0.913100	0.486900
C121	C12	0.035700	0.859700	0.511500
C131	C13	0.979400	0.793300	0.586400
C141	C14	0.882190	0.788180	0.630810
C151	C15	0.816640	0.724530	0.709810
C161	C16	0.744840	0.622610	0.813990
C171	C17	0.704840	0.545440	0.882020
C181	C18	0.672760	0.431610	0.967930
C191	C19	0.423700	0.534600	0.561000
C201	C20	0.473600	0.486900	0.600000
C211	C21	0.547200	0.511500	0.628800
C221	C22	0.565800	0.586400	0.620300
C231	C23	0.513000	0.630810	0.581010
C241	C24	0.526450	0.709810	0.565660
C251	C25	0.558830	0.813990	0.563400
C261	C26	0.586860	0.882020	0.572540
C271	C27	0.640690	0.967930	0.600460
C281	C28	0.015300	0.439000	0.095600
C291	C29	0.926400	0.400000	0.086900
C301	C30	0.824000	0.371200	0.140300
C311	C31	0.813900	0.379700	0.206700
C321	C32	0.905990	0.418990	0.211820
C331	C33	0.907890	0.434340	0.275470
C341	C34	0.877770	0.436600	0.377390
C351	C35	0.840600	0.427460	0.454560
C361	C36	0.758850	0.399540	0.568390
C371	C37	0.110900	0.095600	0.465400
C381	C38	0.013300	0.086900	0.513100
C391	C39	0.964300	0.140300	0.488500
C401	C40	0.020600	0.206700	0.413600
C411	C41	0.117810	0.211820	0.369190
C421	C42	0.183360	0.275470	0.290190
C431	C43	0.255160	0.377390	0.186010
C441	C44	0.295160	0.454560	0.117980
C451	C45	0.327240	0.568390	0.032070
C461	C46	0.576300	0.465400	0.439000
C471	C47	0.526400	0.513100	0.400000
C481	C48	0.452800	0.488500	0.371200
C491	C49	0.434200	0.413600	0.379700
C501	C50	0.487000	0.369190	0.418990
C511	C51	0.473550	0.290190	0.434340
C521	C52	0.441170	0.186010	0.436600
C531	C53	0.413140	0.117980	0.427460
C541	C54	0.359310	0.032070	0.399540
S11	S1	0.721300	0.427320	0.753320
S21	S2	0.474620	0.753320	0.819360
S31	S3	0.293980	0.819360	0.427320
S41	S4	0.278700	0.572680	0.246680
S51	S5	0.525380	0.246680	0.180640
S61	S6	0.706020	0.180640	0.572680
N11	N1	0.993050	0.551010	0.842360
N21	N2	0.997140	0.520770	0.731150
N31	N3	0.015420	0.518880	0.664520
N41	N4	0.175760	0.593850	0.656870
N51	N5	0.084210	0.537410	0.526480
N61	N6	0.137510	0.554650	0.452220
N71	N7	0.259270	0.612180	0.488870
N81	N8	0.835410	0.842360	0.606630
N91	N9	0.728290	0.731150	0.748080
N101	N10	0.679940	0.664520	0.816600
N111	N11	0.832630	0.656870	0.749280
N121	N12	0.610690	0.526480	0.936110
N131	N13	0.589730	0.452220	0.993130
N141	N14	0.748140	0.488870	0.898950
N151	N15	0.442040	0.606630	0.551010
N161	N16	0.476370	0.748080	0.520770
N171	N17	0.496540	0.816600	0.518880
N181	N18	0.581910	0.749280	0.593850
N191	N19	0.546800	0.936110	0.537410
N201	N20	0.582860	0.993130	0.554650
N211	N21	0.647090	0.898950	0.612180
N221	N22	0.006950	0.448990	0.157640
N231	N23	0.002860	0.479230	0.268850
N241	N24	0.984580	0.481120	0.335480
N251	N25	0.824240	0.406150	0.343130
N261	N26	0.915790	0.462590	0.473520
N271	N27	0.862490	0.445350	0.547780
N281	N28	0.740730	0.387820	0.511130
N291	N29	0.164590	0.157640	0.393370
N301	N30	0.271710	0.268850	0.251920
N311	N31	0.320060	0.335480	0.183400
N321	N32	0.167370	0.343130	0.250720
N331	N33	0.389310	0.473520	0.063890
N341	N34	0.410270	0.547780	0.006870
N351	N35	0.251860	0.511130	0.101050
N361	N36	0.557960	0.393370	0.448990
N371	N37	0.523630	0.251920	0.479230
N381	N38	0.503460	0.183400	0.481120
N391	N39	0.418090	0.250720	0.406150
N401	N40	0.453200	0.063890	0.462590
N411	N41	0.417140	0.006870	0.445350
N421	N42	0.352910	0.101050	0.387820
O11	O1	0.766840	0.408790	0.816570
O21	O2	0.732000	0.508000	0.718200
O31	O3	0.609400	0.376800	0.779000
O41	O4	0.791790	0.413590	0.696120
O51	O5	0.583410	0.816570	0.774640
O61	O6	0.450200	0.718200	0.773800
O71	O7	0.388400	0.779000	0.844200
O81	O8	0.487910	0.696120	0.890290
O91	O9	0.358050	0.774640	0.408790
O101	O10	0.224000	0.773800	0.508000
O111	O11	0.232600	0.844200	0.376800
O121	O12	0.378200	0.890290	0.413590
O131	O13	0.233160	0.591210	0.183430
O141	O14	0.268000	0.492000	0.281800
O151	O15	0.390600	0.623200	0.221000
O161	O16	0.208210	0.586410	0.303880
O171	O17	0.416590	0.183430	0.225360
O181	O18	0.549800	0.281800	0.226200
O191	O19	0.611600	0.221000	0.155800
O201	O20	0.512090	0.303880	0.109710
O211	O21	0.641950	0.225360	0.591210
O221	O22	0.776000	0.226200	0.492000
O231	O23	0.767400	0.155800	0.623200
O241	O24	0.621800	0.109710	0.586410
