data_RAYMAG_clean_PM
_symmetry_space_group_name_H-M	'P1'
_cell_length_a	10.019600
_cell_length_b	13.563400
_cell_length_c	17.581100
_cell_angle_alpha	71.968000
_cell_angle_beta	83.625000
_cell_angle_gamma	78.833000
_symmetry_Int_Tables_number 1

loop_
_symmetry_equiv_pos_as_xyz
'x,y,z'

loop_
_atom_site_label
_atom_site_type_symbol
_atom_site_fract_x
_atom_site_fract_y
_atom_site_fract_z
Co11	Co1	0.800280	0.508200	0.570220
Co21	Co2	0.199720	0.491800	0.429780
Co31	Co3	0.000000	0.500000	0.000000
H11	H1	0.348100	0.487600	0.574500
H21	H2	0.068200	0.492400	0.755100
H31	H3	0.455000	0.514400	0.779200
H41	H4	0.607600	0.359100	0.559700
H51	H5	0.610900	0.195400	0.548800
H61	H6	0.014900	0.145400	0.552600
H71	H7	0.001000	0.310600	0.563000
H81	H8	0.854900	0.039500	0.490500
H91	H9	0.892700	0.992800	0.580100
H101	H10	0.626700	0.033700	0.526500
H111	H11	0.655600	0.999200	0.617800
H121	H12	0.859300	0.647900	0.668800
H131	H13	0.810000	0.819000	0.672000
H141	H14	0.640600	0.899000	0.462400
H151	H15	0.689100	0.725900	0.465700
H161	H16	0.170500	0.677400	0.936300
H171	H17	0.159900	0.851800	0.921900
H181	H18	0.790500	0.860100	0.029700
H191	H19	0.807700	0.686100	0.042000
H201	H20	0.873500	0.024000	0.974800
H211	H21	0.007800	0.026400	0.920100
H221	H22	0.651900	0.512400	0.425500
H231	H23	0.931800	0.507600	0.244900
H241	H24	0.545000	0.485600	0.220800
H251	H25	0.392400	0.640900	0.440300
H261	H26	0.389100	0.804600	0.451200
H271	H27	0.985100	0.854600	0.447400
H281	H28	0.999000	0.689400	0.437000
H291	H29	0.145100	0.960500	0.509500
H301	H30	0.107300	0.007200	0.419900
H311	H31	0.373300	0.966300	0.473500
H321	H32	0.344400	0.000800	0.382200
H331	H33	0.140700	0.352100	0.331200
H341	H34	0.190000	0.181000	0.328000
H351	H35	0.359400	0.101000	0.537600
H361	H36	0.310900	0.274100	0.534300
H371	H37	0.829500	0.322600	0.063700
H381	H38	0.840100	0.148200	0.078100
H391	H39	0.209500	0.139900	0.970300
H401	H40	0.192300	0.313900	0.958000
H411	H41	0.126500	0.976000	0.025200
H421	H42	0.992200	0.973600	0.079900
C11	C1	0.423100	0.504100	0.670910
C21	C2	0.325000	0.491630	0.626280
C31	C3	0.193200	0.485150	0.658060
C41	C4	0.157600	0.493890	0.734440
C51	C5	0.255900	0.504900	0.780580
C61	C6	0.388800	0.508700	0.748430
C71	C7	0.564700	0.509730	0.634880
C81	C8	0.218600	0.511600	0.864210
C91	C9	0.691200	0.315300	0.558780
C101	C10	0.692500	0.216400	0.552300
C111	C11	0.813800	0.148400	0.550910
C121	C12	0.929900	0.187100	0.554400
C131	C13	0.920800	0.287000	0.560730
C141	C14	0.823800	0.039100	0.544800
C151	C15	0.693000	0.993700	0.565700
C161	C16	0.813100	0.698800	0.627170
C171	C17	0.784900	0.801900	0.628900
C181	C18	0.719300	0.879500	0.567000
C191	C19	0.684300	0.849300	0.505600
C201	C20	0.714100	0.744700	0.508040
C211	C21	0.092700	0.713700	0.955900
C221	C22	0.087600	0.818600	0.948000
C231	C23	0.870200	0.824400	0.011400
C241	C24	0.880800	0.719700	0.017600
C251	C25	0.975300	0.875300	0.978800
C261	C26	0.968400	0.991700	0.972100
C271	C27	0.089600	0.469010	0.608880
C281	C28	0.576900	0.495900	0.329090
C291	C29	0.675000	0.508370	0.373720
C301	C30	0.806800	0.514850	0.341940
C311	C31	0.842400	0.506110	0.265560
C321	C32	0.744100	0.495100	0.219420
C331	C33	0.611200	0.491300	0.251570
C341	C34	0.435300	0.490270	0.365120
C351	C35	0.781400	0.488400	0.135790
C361	C36	0.308800	0.684700	0.441220
C371	C37	0.307500	0.783600	0.447700
C381	C38	0.186200	0.851600	0.449090
C391	C39	0.070100	0.812900	0.445600
C401	C40	0.079200	0.713000	0.439270
C411	C41	0.176200	0.960900	0.455200
C421	C42	0.307000	0.006300	0.434300
C431	C43	0.186900	0.301200	0.372830
C441	C44	0.215100	0.198100	0.371100
C451	C45	0.280700	0.120500	0.433000
C461	C46	0.315700	0.150700	0.494400
C471	C47	0.285900	0.255300	0.491960
C481	C48	0.907300	0.286300	0.044100
C491	C49	0.912400	0.181400	0.052000
C501	C50	0.129800	0.175600	0.988600
C511	C51	0.119200	0.280300	0.982400
C521	C52	0.024700	0.124700	0.021200
C531	C53	0.031600	0.008300	0.027900
C541	C54	0.910400	0.530990	0.391120
N11	N1	0.803560	0.351540	0.563790
N21	N2	0.776490	0.669540	0.567710
N31	N3	0.990900	0.662260	0.990310
N41	N4	0.196440	0.648460	0.436210
N51	N5	0.223510	0.330460	0.432290
N61	N6	0.009100	0.337740	0.009690
O11	O1	0.664030	0.480870	0.679750
O21	O2	0.583390	0.540370	0.560350
O31	O3	0.094860	0.521330	0.886270
O41	O4	0.315010	0.502500	0.908080
O51	O5	0.967610	0.476140	0.635420
O61	O6	0.132170	0.446110	0.545780
O71	O7	0.335970	0.519130	0.320250
O81	O8	0.416610	0.459630	0.439650
O91	O9	0.905140	0.478670	0.113730
O101	O10	0.684990	0.497500	0.091920
O111	O11	0.032390	0.523860	0.364580
O121	O12	0.867830	0.553890	0.454220
