data_RAYMOV_clean_PM
_symmetry_space_group_name_H-M	'P1'
_cell_length_a	20.096200
_cell_length_b	20.096200
_cell_length_c	26.914500
_cell_angle_alpha	90.000000
_cell_angle_beta	90.000000
_cell_angle_gamma	120.000000
_symmetry_Int_Tables_number 1

loop_
_symmetry_equiv_pos_as_xyz
'x,y,z'

loop_
_atom_site_label
_atom_site_type_symbol
_atom_site_fract_x
_atom_site_fract_y
_atom_site_fract_z
Mn11	Mn1	0.367220	0.783350	0.250000
Mn21	Mn2	0.416130	0.632770	0.250000
Mn31	Mn3	0.216640	0.583860	0.250000
Mn41	Mn4	0.583870	0.216650	0.750000
Mn51	Mn5	0.783360	0.367230	0.750000
Mn61	Mn6	0.632780	0.416140	0.750000
H11	H1	0.250900	0.842800	0.367000
H21	H2	0.181000	0.868300	0.423200
H31	H3	0.016100	0.647000	0.420000
H41	H4	0.085800	0.623000	0.360700
H51	H5	0.077300	0.883200	0.444600
H61	H6	0.591900	0.749100	0.367000
H71	H7	0.687300	0.819000	0.423200
H81	H8	0.630900	0.983900	0.420000
H91	H9	0.537200	0.914200	0.360700
H101	H10	0.805900	0.922700	0.444600
H111	H11	0.157200	0.408100	0.367000
H121	H12	0.131700	0.312700	0.423200
H131	H13	0.353000	0.369100	0.420000
H141	H14	0.377000	0.462800	0.360700
H151	H15	0.116800	0.194100	0.444600
H161	H16	0.250900	0.842800	0.133000
H171	H17	0.181000	0.868300	0.076800
H181	H18	0.016100	0.647000	0.080000
H191	H19	0.085800	0.623000	0.139300
H201	H20	0.077300	0.883200	0.055400
H211	H21	0.591900	0.749100	0.133000
H221	H22	0.687300	0.819000	0.076800
H231	H23	0.630900	0.983900	0.080000
H241	H24	0.537200	0.914200	0.139300
H251	H25	0.805900	0.922700	0.055400
H261	H26	0.157200	0.408100	0.133000
H271	H27	0.131700	0.312700	0.076800
H281	H28	0.353000	0.369100	0.080000
H291	H29	0.377000	0.462800	0.139300
H301	H30	0.116800	0.194100	0.055400
H311	H31	0.408100	0.157200	0.633000
H321	H32	0.312700	0.131700	0.576800
H331	H33	0.369100	0.353000	0.580000
H341	H34	0.462800	0.377000	0.639300
H351	H35	0.194100	0.116800	0.555400
H361	H36	0.842800	0.250900	0.633000
H371	H37	0.868300	0.181000	0.576800
H381	H38	0.647000	0.016100	0.580000
H391	H39	0.623000	0.085800	0.639300
H401	H40	0.883200	0.077300	0.555400
H411	H41	0.749100	0.591900	0.633000
H421	H42	0.819000	0.687300	0.576800
H431	H43	0.983900	0.630900	0.580000
H441	H44	0.914200	0.537200	0.639300
H451	H45	0.922700	0.805900	0.555400
H461	H46	0.408100	0.157200	0.867000
H471	H47	0.312700	0.131700	0.923200
H481	H48	0.369100	0.353000	0.920000
H491	H49	0.462800	0.377000	0.860700
H501	H50	0.194100	0.116800	0.944600
H511	H51	0.842800	0.250900	0.867000
H521	H52	0.868300	0.181000	0.923200
H531	H53	0.647000	0.016100	0.920000
H541	H54	0.623000	0.085800	0.860700
H551	H55	0.883200	0.077300	0.944600
H561	H56	0.749100	0.591900	0.867000
H571	H57	0.819000	0.687300	0.923200
H581	H58	0.983900	0.630900	0.920000
H591	H59	0.914200	0.537200	0.860700
H601	H60	0.922700	0.805900	0.944600
H611	H61	0.000000	0.672400	0.500000
H621	H62	0.672400	0.000000	0.500000
H631	H63	0.327600	0.327600	0.500000
H641	H64	0.000000	0.672400	0.000000
H651	H65	0.672400	0.000000	0.000000
H661	H66	0.327600	0.327600	0.000000
H671	H67	0.884700	0.884700	0.500000
H681	H68	0.000000	0.115300	0.500000
H691	H69	0.115300	0.000000	0.500000
H701	H70	0.884700	0.884700	0.000000
H711	H71	0.000000	0.115300	0.000000
H721	H72	0.115300	0.000000	0.000000
C11	C1	0.222150	0.713720	0.320120
C21	C2	0.177550	0.731100	0.358440
C31	C3	0.203450	0.802880	0.377470
C41	C4	0.161780	0.818400	0.411640
C51	C5	0.091980	0.760720	0.428740
C61	C6	0.063410	0.686660	0.409300
C71	C7	0.105610	0.672050	0.373950
C81	C8	0.045010	0.774520	0.465670
C91	C9	0.045850	0.844370	0.466570
C101	C10	0.491570	0.777850	0.320120
C111	C11	0.553550	0.822450	0.358440
C121	C12	0.599430	0.796550	0.377470
C131	C13	0.656620	0.838220	0.411640
C141	C14	0.668740	0.908020	0.428740
C151	C15	0.623250	0.936590	0.409300
C161	C16	0.566440	0.894390	0.373950
C171	C17	0.729510	0.954990	0.465670
C181	C18	0.798520	0.954150	0.466570
C191	C19	0.286280	0.508430	0.320120
C201	C20	0.268900	0.446450	0.358440
C211	C21	0.197120	0.400570	0.377470
C221	C22	0.181600	0.343380	0.411640
C231	C23	0.239280	0.331260	0.428740
C241	C24	0.313340	0.376750	0.409300
C251	C25	0.327950	0.433560	0.373950
C261	C26	0.225480	0.270490	0.465670
C271	C27	0.155630	0.201480	0.466570
C281	C28	0.222150	0.713720	0.179880
C291	C29	0.177550	0.731100	0.141560
C301	C30	0.203450	0.802880	0.122530
C311	C31	0.161780	0.818400	0.088360
C321	C32	0.091980	0.760720	0.071260
C331	C33	0.063410	0.686660	0.090700
C341	C34	0.105610	0.672050	0.126050
C351	C35	0.045010	0.774520	0.034330
C361	C36	0.045850	0.844370	0.033430
C371	C37	0.491570	0.777850	0.179880
C381	C38	0.553550	0.822450	0.141560
C391	C39	0.599430	0.796550	0.122530
C401	C40	0.656620	0.838220	0.088360
C411	C41	0.668740	0.908020	0.071260
C421	C42	0.623250	0.936590	0.090700
C431	C43	0.566440	0.894390	0.126050
C441	C44	0.729510	0.954990	0.034330
C451	C45	0.798520	0.954150	0.033430
C461	C46	0.286280	0.508430	0.179880
C471	C47	0.268900	0.446450	0.141560
C481	C48	0.197120	0.400570	0.122530
C491	C49	0.181600	0.343380	0.088360
C501	C50	0.239280	0.331260	0.071260
C511	C51	0.313340	0.376750	0.090700
C521	C52	0.327950	0.433560	0.126050
C531	C53	0.225480	0.270490	0.034330
C541	C54	0.155630	0.201480	0.033430
C551	C55	0.508430	0.286280	0.679880
C561	C56	0.446450	0.268900	0.641560
C571	C57	0.400570	0.197120	0.622530
C581	C58	0.343380	0.181600	0.588360
C591	C59	0.331260	0.239280	0.571260
C601	C60	0.376750	0.313340	0.590700
C611	C61	0.433560	0.327950	0.626050
C621	C62	0.270490	0.225480	0.534330
C631	C63	0.201480	0.155630	0.533430
C641	C64	0.713720	0.222150	0.679880
C651	C65	0.731100	0.177550	0.641560
C661	C66	0.802880	0.203450	0.622530
C671	C67	0.818400	0.161780	0.588360
C681	C68	0.760720	0.091980	0.571260
C691	C69	0.686660	0.063410	0.590700
C701	C70	0.672050	0.105610	0.626050
C711	C71	0.774520	0.045010	0.534330
C721	C72	0.844370	0.045850	0.533430
C731	C73	0.777850	0.491570	0.679880
C741	C74	0.822450	0.553550	0.641560
C751	C75	0.796550	0.599430	0.622530
C761	C76	0.838220	0.656620	0.588360
C771	C77	0.908020	0.668740	0.571260
C781	C78	0.936590	0.623250	0.590700
C791	C79	0.894390	0.566440	0.626050
C801	C80	0.954990	0.729510	0.534330
C811	C81	0.954150	0.798520	0.533430
C821	C82	0.508430	0.286280	0.820120
C831	C83	0.446450	0.268900	0.858440
C841	C84	0.400570	0.197120	0.877470
C851	C85	0.343380	0.181600	0.911640
C861	C86	0.331260	0.239280	0.928740
C871	C87	0.376750	0.313340	0.909300
C881	C88	0.433560	0.327950	0.873950
C891	C89	0.270490	0.225480	0.965670
C901	C90	0.201480	0.155630	0.966570
C911	C91	0.713720	0.222150	0.820120
C921	C92	0.731100	0.177550	0.858440
C931	C93	0.802880	0.203450	0.877470
C941	C94	0.818400	0.161780	0.911640
C951	C95	0.760720	0.091980	0.928740
C961	C96	0.686660	0.063410	0.909300
C971	C97	0.672050	0.105610	0.873950
C981	C98	0.774520	0.045010	0.965670
C991	C99	0.844370	0.045850	0.966570
C1001	C100	0.777850	0.491570	0.820120
C1011	C101	0.822450	0.553550	0.858440
C1021	C102	0.796550	0.599430	0.877470
C1031	C103	0.838220	0.656620	0.911640
C1041	C104	0.908020	0.668740	0.928740
C1051	C105	0.936590	0.623250	0.909300
C1061	C106	0.894390	0.566440	0.873950
C1071	C107	0.954990	0.729510	0.965670
C1081	C108	0.954150	0.798520	0.966570
C1091	C109	0.000000	0.718680	0.500000
C1101	C110	0.000000	0.856550	0.500000
C1111	C111	0.000000	0.929880	0.500000
C1121	C112	0.718680	0.000000	0.500000
C1131	C113	0.856550	0.000000	0.500000
C1141	C114	0.929880	0.000000	0.500000
C1151	C115	0.281320	0.281320	0.500000
C1161	C116	0.143450	0.143450	0.500000
C1171	C117	0.070120	0.070120	0.500000
C1181	C118	0.000000	0.718680	0.000000
C1191	C119	0.000000	0.856550	0.000000
C1201	C120	0.000000	0.929880	0.000000
C1211	C121	0.718680	0.000000	0.000000
C1221	C122	0.856550	0.000000	0.000000
C1231	C123	0.929880	0.000000	0.000000
C1241	C124	0.281320	0.281320	0.000000
C1251	C125	0.143450	0.143450	0.000000
C1261	C126	0.070120	0.070120	0.000000
C1271	C127	0.931020	0.931020	0.500000
C1281	C128	0.000000	0.068980	0.500000
C1291	C129	0.068980	0.000000	0.500000
C1301	C130	0.931020	0.931020	0.000000
C1311	C131	0.000000	0.068980	0.000000
C1321	C132	0.068980	0.000000	0.000000
O11	O1	0.284170	0.769140	0.306500
O21	O2	0.193210	0.645730	0.306450
O31	O3	0.484970	0.715830	0.306500
O41	O4	0.452520	0.806790	0.306450
O51	O5	0.230860	0.515030	0.306500
O61	O6	0.354270	0.547480	0.306450
O71	O7	0.284170	0.769140	0.193500
O81	O8	0.193210	0.645730	0.193550
O91	O9	0.484970	0.715830	0.193500
O101	O10	0.452520	0.806790	0.193550
O111	O11	0.230860	0.515030	0.193500
O121	O12	0.354270	0.547480	0.193550
O131	O13	0.515030	0.230860	0.693500
O141	O14	0.547480	0.354270	0.693550
O151	O15	0.769140	0.284170	0.693500
O161	O16	0.645730	0.193210	0.693550
O171	O17	0.715830	0.484970	0.693500
O181	O18	0.806790	0.452520	0.693550
O191	O19	0.515030	0.230860	0.806500
O201	O20	0.547480	0.354270	0.806450
O211	O21	0.769140	0.284170	0.806500
O221	O22	0.645730	0.193210	0.806450
O231	O23	0.715830	0.484970	0.806500
O241	O24	0.806790	0.452520	0.806450
O251	O25	0.333330	0.666660	0.250000
O261	O26	0.666670	0.333340	0.750000
