data_RAZJIM_clean_PM
_symmetry_space_group_name_H-M	'P1'
_cell_length_a	9.861800
_cell_length_b	11.705000
_cell_length_c	17.557700
_cell_angle_alpha	78.366000
_cell_angle_beta	84.120000
_cell_angle_gamma	84.769000
_symmetry_Int_Tables_number 1

loop_
_symmetry_equiv_pos_as_xyz
'x,y,z'

loop_
_atom_site_label
_atom_site_type_symbol
_atom_site_fract_x
_atom_site_fract_y
_atom_site_fract_z
Ag11	Ag1	0.430700	0.115950	0.934730
Ag21	Ag2	0.240970	0.099750	0.520750
S11	S1	0.829420	0.927430	0.932790
S21	S2	0.921740	0.155010	0.924740
S31	S3	0.656560	0.096320	0.015220
S41	S4	0.188920	0.103780	0.829840
S51	S5	0.077230	0.837810	0.843740
S61	S6	0.565590	0.394240	0.843370
S71	S7	0.400180	0.563440	0.916450
S81	S8	0.329990	0.314870	0.956570
S91	S9	0.572730	0.763780	0.845280
S101	S10	0.763010	0.569970	0.755760
N11	N1	0.119100	0.193900	0.614500
N21	N2	0.875200	0.922000	0.576900
N31	N3	0.356600	0.951100	0.590200
N41	N4	0.667600	0.725700	0.542600
C11	C1	0.795500	0.060500	0.958600
C21	C2	0.029100	0.062600	0.874800
C31	C3	0.985400	0.954200	0.878900
C41	C4	0.156400	0.259700	0.794800
C51	C5	0.051900	0.291300	0.734500
C61	C6	0.089700	0.238400	0.666400
C71	C7	0.978200	0.829000	0.763500
C81	C8	0.010700	0.927200	0.695200
C91	C9	0.934000	0.924200	0.628600
C101	C10	0.427200	0.420000	0.906600
C111	C11	0.536300	0.617500	0.851900
C121	C12	0.613100	0.538200	0.816500
C131	C13	0.456600	0.839800	0.774700
C141	C14	0.509900	0.825600	0.692200
C151	C15	0.422800	0.894300	0.634100
C161	C16	0.757300	0.480900	0.682500
C171	C17	0.644200	0.518300	0.627600
C181	C18	0.658300	0.634900	0.579500
H11	H1	0.248000	0.287000	0.772000
H21	H2	0.128000	0.297000	0.838000
H31	H3	0.044000	0.371000	0.718000
H41	H4	0.965000	0.267000	0.756000
H51	H5	0.883000	0.833000	0.780000
H61	H6	0.004000	0.757000	0.753000
H71	H7	0.101000	0.922000	0.680000
H81	H8	0.992000	0.001000	0.710000
H91	H9	0.456000	0.921000	0.780000
H101	H10	0.371000	0.810000	0.790000
H111	H11	0.511000	0.747000	0.689000
H121	H12	0.594000	0.853000	0.679000
H131	H13	0.750000	0.393000	0.707000
H141	H14	0.838000	0.490000	0.652000
H151	H15	0.559000	0.519000	0.655000
H161	H16	0.649000	0.466000	0.593000
Ag31	Ag3	0.569300	0.884050	0.065270
Ag41	Ag4	0.759030	0.900250	0.479250
S111	S11	0.170580	0.072570	0.067210
S121	S12	0.078260	0.844990	0.075260
S131	S13	0.343440	0.903680	0.984780
S141	S14	0.811080	0.896220	0.170160
S151	S15	0.922770	0.162190	0.156260
S161	S16	0.434410	0.605760	0.156630
S171	S17	0.599820	0.436560	0.083550
S181	S18	0.670010	0.685130	0.043430
S191	S19	0.427270	0.236220	0.154720
S201	S20	0.236990	0.430030	0.244240
N51	N5	0.880900	0.806100	0.385500
N61	N6	0.124800	0.078000	0.423100
N71	N7	0.643400	0.048900	0.409800
N81	N8	0.332400	0.274300	0.457400
C191	C19	0.204500	0.939500	0.041400
C201	C20	0.970900	0.937400	0.125200
C211	C21	0.014600	0.045800	0.121100
C221	C22	0.843600	0.740300	0.205200
C231	C23	0.948100	0.708700	0.265500
C241	C24	0.910300	0.761600	0.333600
C251	C25	0.021800	0.171000	0.236500
C261	C26	0.989300	0.072800	0.304800
C271	C27	0.066000	0.075800	0.371400
C281	C28	0.572800	0.580000	0.093400
C291	C29	0.463700	0.382500	0.148100
C301	C30	0.386900	0.461800	0.183500
C311	C31	0.543400	0.160200	0.225300
C321	C32	0.490100	0.174400	0.307800
C331	C33	0.577200	0.105700	0.365900
C341	C34	0.242700	0.519100	0.317500
C351	C35	0.355800	0.481700	0.372400
C361	C36	0.341700	0.365100	0.420500
H171	H17	0.752000	0.713000	0.228000
H181	H18	0.872000	0.703000	0.162000
H191	H19	0.956000	0.629000	0.282000
H201	H20	0.035000	0.733000	0.244000
H211	H21	0.117000	0.167000	0.220000
H221	H22	0.996000	0.243000	0.247000
H231	H23	0.899000	0.078000	0.320000
H241	H24	0.008000	0.999000	0.290000
H251	H25	0.544000	0.079000	0.220000
H261	H26	0.629000	0.190000	0.210000
H271	H27	0.489000	0.253000	0.311000
H281	H28	0.406000	0.147000	0.321000
H291	H29	0.250000	0.607000	0.293000
H301	H30	0.162000	0.510000	0.348000
H311	H31	0.441000	0.481000	0.345000
H321	H32	0.351000	0.534000	0.407000
