data_REBSAT_clean_PM
_symmetry_space_group_name_H-M	'P1'
_cell_length_a	16.788700
_cell_length_b	16.788700
_cell_length_c	16.788700
_cell_angle_alpha	90.000000
_cell_angle_beta	90.000000
_cell_angle_gamma	90.000000
_symmetry_Int_Tables_number 1

loop_
_symmetry_equiv_pos_as_xyz
'x,y,z'

loop_
_atom_site_label
_atom_site_type_symbol
_atom_site_fract_x
_atom_site_fract_y
_atom_site_fract_z
O11	O1	0.024600	0.593800	0.304720
O21	O2	0.524600	0.093800	0.804720
O31	O3	0.975400	0.406200	0.304720
O41	O4	0.475400	0.906200	0.804720
O51	O5	0.975400	0.593800	0.695280
O61	O6	0.475400	0.093800	0.195280
O71	O7	0.024600	0.406200	0.695280
O81	O8	0.524600	0.906200	0.195280
O91	O9	0.304720	0.024600	0.593800
O101	O10	0.804720	0.524600	0.093800
O111	O11	0.304720	0.975400	0.406200
O121	O12	0.804720	0.475400	0.906200
O131	O13	0.695280	0.975400	0.593800
O141	O14	0.195280	0.475400	0.093800
O151	O15	0.695280	0.024600	0.406200
O161	O16	0.195280	0.524600	0.906200
O171	O17	0.593800	0.304720	0.024600
O181	O18	0.093800	0.804720	0.524600
O191	O19	0.406200	0.304720	0.975400
O201	O20	0.906200	0.804720	0.475400
O211	O21	0.593800	0.695280	0.975400
O221	O22	0.093800	0.195280	0.475400
O231	O23	0.406200	0.695280	0.024600
O241	O24	0.906200	0.195280	0.524600
O251	O25	0.593800	0.024600	0.304720
O261	O26	0.093800	0.524600	0.804720
O271	O27	0.406200	0.975400	0.304720
O281	O28	0.906200	0.475400	0.804720
O291	O29	0.593800	0.975400	0.695280
O301	O30	0.093800	0.475400	0.195280
O311	O31	0.406200	0.024600	0.695280
O321	O32	0.906200	0.524600	0.195280
O331	O33	0.024600	0.304720	0.593800
O341	O34	0.524600	0.804720	0.093800
O351	O35	0.975400	0.304720	0.406200
O361	O36	0.475400	0.804720	0.906200
O371	O37	0.975400	0.695280	0.593800
O381	O38	0.475400	0.195280	0.093800
O391	O39	0.024600	0.695280	0.406200
O401	O40	0.524600	0.195280	0.906200
O411	O41	0.304720	0.593800	0.024600
O421	O42	0.804720	0.093800	0.524600
O431	O43	0.304720	0.406200	0.975400
O441	O44	0.804720	0.906200	0.475400
O451	O45	0.695280	0.593800	0.975400
O461	O46	0.195280	0.093800	0.475400
O471	O47	0.695280	0.406200	0.024600
O481	O48	0.195280	0.906200	0.524600
Al11	Al1	0.000000	0.500000	0.500000
Al21	Al2	0.500000	0.000000	0.000000
Al31	Al3	0.500000	0.000000	0.500000
Al41	Al4	0.000000	0.500000	0.000000
Al51	Al5	0.500000	0.500000	0.000000
Al61	Al6	0.000000	0.000000	0.500000
Al71	Al7	0.000000	0.500000	0.250000
Al81	Al8	0.000000	0.500000	0.750000
Al91	Al9	0.500000	0.000000	0.250000
Al101	Al10	0.250000	0.000000	0.500000
Al111	Al11	0.750000	0.000000	0.500000
Al121	Al12	0.250000	0.500000	0.000000
Al131	Al13	0.500000	0.250000	0.000000
Al141	Al14	0.500000	0.750000	0.000000
Al151	Al15	0.000000	0.250000	0.500000
Al161	Al16	0.500000	0.000000	0.750000
Al171	Al17	0.000000	0.750000	0.500000
Al181	Al18	0.750000	0.500000	0.000000
P11	P1	0.070500	0.622560	0.377440
O491	O49	0.156100	0.642100	0.357900
O501	O50	0.067400	0.558000	0.442000
P21	P2	0.570500	0.122560	0.877440
O511	O51	0.656100	0.142100	0.857900
O521	O52	0.567400	0.058000	0.942000
P31	P3	0.929500	0.377440	0.377440
O531	O53	0.843900	0.357900	0.357900
O541	O54	0.932600	0.442000	0.442000
P41	P4	0.429500	0.877440	0.877440
O551	O55	0.343900	0.857900	0.857900
O561	O56	0.432600	0.942000	0.942000
P51	P5	0.929500	0.622560	0.622560
O571	O57	0.843900	0.642100	0.642100
O581	O58	0.932600	0.558000	0.558000
P61	P6	0.429500	0.122560	0.122560
O591	O59	0.343900	0.142100	0.142100
O601	O60	0.432600	0.058000	0.058000
P71	P7	0.070500	0.377440	0.622560
O611	O61	0.156100	0.357900	0.642100
O621	O62	0.067400	0.442000	0.558000
P81	P8	0.570500	0.877440	0.122560
O631	O63	0.656100	0.857900	0.142100
O641	O64	0.567400	0.942000	0.058000
P91	P9	0.377440	0.070500	0.622560
O651	O65	0.357900	0.156100	0.642100
O661	O66	0.442000	0.067400	0.558000
P101	P10	0.877440	0.570500	0.122560
O671	O67	0.857900	0.656100	0.142100
O681	O68	0.942000	0.567400	0.058000
P111	P11	0.377440	0.929500	0.377440
O691	O69	0.357900	0.843900	0.357900
O701	O70	0.442000	0.932600	0.442000
P121	P12	0.877440	0.429500	0.877440
O711	O71	0.857900	0.343900	0.857900
O721	O72	0.942000	0.432600	0.942000
P131	P13	0.622560	0.929500	0.622560
O731	O73	0.642100	0.843900	0.642100
O741	O74	0.558000	0.932600	0.558000
P141	P14	0.122560	0.429500	0.122560
O751	O75	0.142100	0.343900	0.142100
O761	O76	0.058000	0.432600	0.058000
P151	P15	0.622560	0.070500	0.377440
O771	O77	0.642100	0.156100	0.357900
O781	O78	0.558000	0.067400	0.442000
P161	P16	0.122560	0.570500	0.877440
O791	O79	0.142100	0.656100	0.857900
O801	O80	0.058000	0.567400	0.942000
P171	P17	0.622560	0.377440	0.070500
O811	O81	0.642100	0.357900	0.156100
O821	O82	0.558000	0.442000	0.067400
P181	P18	0.122560	0.877440	0.570500
O831	O83	0.142100	0.857900	0.656100
O841	O84	0.058000	0.942000	0.567400
P191	P19	0.377440	0.377440	0.929500
O851	O85	0.357900	0.357900	0.843900
O861	O86	0.442000	0.442000	0.932600
P201	P20	0.877440	0.877440	0.429500
O871	O87	0.857900	0.857900	0.343900
O881	O88	0.942000	0.942000	0.432600
P211	P21	0.622560	0.622560	0.929500
O891	O89	0.642100	0.642100	0.843900
O901	O90	0.558000	0.558000	0.932600
P221	P22	0.122560	0.122560	0.429500
O911	O91	0.142100	0.142100	0.343900
O921	O92	0.058000	0.058000	0.432600
P231	P23	0.377440	0.622560	0.070500
O931	O93	0.357900	0.642100	0.156100
O941	O94	0.442000	0.558000	0.067400
P241	P24	0.877440	0.122560	0.570500
O951	O95	0.857900	0.142100	0.656100
O961	O96	0.942000	0.058000	0.567400
