data_REFJET_clean_PM
_symmetry_space_group_name_H-M	'P1'
_cell_length_a	7.362800
_cell_length_b	18.111000
_cell_length_c	18.111000
_cell_angle_alpha	99.138400
_cell_angle_beta	94.884000
_cell_angle_gamma	85.116000
_symmetry_Int_Tables_number 1

loop_
_symmetry_equiv_pos_as_xyz
'x,y,z'

loop_
_atom_site_label
_atom_site_type_symbol
_atom_site_fract_x
_atom_site_fract_y
_atom_site_fract_z
K11	K1	0.782910	0.009160	0.423840
K21	K2	0.717090	0.423840	0.009160
K31	K3	0.217090	0.990840	0.576160
K41	K4	0.282910	0.576160	0.990840
In11	In1	0.702590	0.861880	0.552290
In21	In2	0.797410	0.552290	0.861880
In31	In3	0.297410	0.138120	0.447710
In41	In4	0.202590	0.447710	0.138120
H11	H1	0.543500	0.257400	0.685200
H21	H2	0.944700	0.688900	0.711500
H31	H3	0.841900	0.044900	0.755500
H41	H4	0.956500	0.685200	0.257400
H51	H5	0.555300	0.711500	0.688900
H61	H6	0.658100	0.755500	0.044900
H71	H7	0.456500	0.742600	0.314800
H81	H8	0.055300	0.311100	0.288500
H91	H9	0.158100	0.955100	0.244500
H101	H10	0.043500	0.314800	0.742600
H111	H11	0.444700	0.288500	0.311100
H121	H12	0.341900	0.244500	0.955100
C11	C1	0.601300	0.214110	0.700490
C21	C2	0.696200	0.083650	0.670350
C31	C3	0.709400	0.010640	0.619960
C41	C4	0.117700	0.740000	0.660000
C51	C5	0.602400	0.148480	0.649720
C61	C6	0.068100	0.693410	0.707190
C71	C7	0.302400	0.748330	0.653270
C81	C8	0.365000	0.798400	0.603400
C91	C9	0.965900	0.780620	0.618380
C101	C10	0.498000	0.148000	0.575400
C111	C11	0.778800	0.087870	0.741730
C121	C12	0.681500	0.218900	0.772700
C131	C13	0.773400	0.152510	0.794290
C141	C14	0.656800	0.296400	0.818400
C151	C15	0.867600	0.142700	0.870100
C161	C16	0.898700	0.700490	0.214110
C171	C17	0.803800	0.670350	0.083650
C181	C18	0.790600	0.619960	0.010640
C191	C19	0.382300	0.660000	0.740000
C201	C20	0.897600	0.649720	0.148480
C211	C21	0.431900	0.707190	0.693410
C221	C22	0.197600	0.653270	0.748330
C231	C23	0.135000	0.603400	0.798400
C241	C24	0.534100	0.618380	0.780620
C251	C25	0.002000	0.575400	0.148000
C261	C26	0.721200	0.741730	0.087870
C271	C27	0.818500	0.772700	0.218900
C281	C28	0.726600	0.794290	0.152510
C291	C29	0.843200	0.818400	0.296400
C301	C30	0.632400	0.870100	0.142700
C311	C31	0.398700	0.785890	0.299510
C321	C32	0.303800	0.916350	0.329650
C331	C33	0.290600	0.989360	0.380040
C341	C34	0.882300	0.260000	0.340000
C351	C35	0.397600	0.851520	0.350280
C361	C36	0.931900	0.306590	0.292810
C371	C37	0.697600	0.251670	0.346730
C381	C38	0.635000	0.201600	0.396600
C391	C39	0.034100	0.219380	0.381620
C401	C40	0.502000	0.852000	0.424600
C411	C41	0.221200	0.912130	0.258270
C421	C42	0.318500	0.781100	0.227300
C431	C43	0.226600	0.847490	0.205710
C441	C44	0.343200	0.703600	0.181600
C451	C45	0.132400	0.857300	0.129900
C461	C46	0.101300	0.299510	0.785890
C471	C47	0.196200	0.329650	0.916350
C481	C48	0.209400	0.380040	0.989360
C491	C49	0.617700	0.340000	0.260000
C501	C50	0.102400	0.350280	0.851520
C511	C51	0.568100	0.292810	0.306590
C521	C52	0.802400	0.346730	0.251670
C531	C53	0.865000	0.396600	0.201600
C541	C54	0.465900	0.381620	0.219380
C551	C55	0.998000	0.424600	0.852000
C561	C56	0.278800	0.258270	0.912130
C571	C57	0.181500	0.227300	0.781100
C581	C58	0.273400	0.205710	0.847490
C591	C59	0.156800	0.181600	0.703600
C601	C60	0.367600	0.129900	0.857300
O11	O1	0.599900	0.962510	0.628510
O21	O2	0.710900	0.307700	0.886940
O31	O3	0.884400	0.746030	0.561970
O41	O4	0.426000	0.207160	0.555300
O51	O5	0.919500	0.847750	0.642530
O61	O6	0.831600	0.995670	0.577110
O71	O7	0.255000	0.830600	0.562800
O81	O8	0.474800	0.085450	0.533910
O91	O9	0.535100	0.804700	0.611080
O101	O10	0.579400	0.346790	0.786810
O111	O11	0.865400	0.197240	0.924360
O121	O12	0.949900	0.083050	0.877150
O131	O13	0.900100	0.628510	0.962510
O141	O14	0.789100	0.886940	0.307700
O151	O15	0.615600	0.561970	0.746030
O161	O16	0.074000	0.555300	0.207160
O171	O17	0.580500	0.642530	0.847750
O181	O18	0.668400	0.577110	0.995670
O191	O19	0.245000	0.562800	0.830600
O201	O20	0.025200	0.533910	0.085450
O211	O21	0.964900	0.611080	0.804700
O221	O22	0.920600	0.786810	0.346790
O231	O23	0.634600	0.924360	0.197240
O241	O24	0.550100	0.877150	0.083050
O251	O25	0.400100	0.037490	0.371490
O261	O26	0.289100	0.692300	0.113060
O271	O27	0.115600	0.253970	0.438030
O281	O28	0.574000	0.792840	0.444700
O291	O29	0.080500	0.152250	0.357470
O301	O30	0.168400	0.004330	0.422890
O311	O31	0.745000	0.169400	0.437200
O321	O32	0.525200	0.914550	0.466090
O331	O33	0.464900	0.195300	0.388920
O341	O34	0.420600	0.653210	0.213190
O351	O35	0.134600	0.802760	0.075640
O361	O36	0.050100	0.916950	0.122850
O371	O37	0.099900	0.371490	0.037490
O381	O38	0.210900	0.113060	0.692300
O391	O39	0.384400	0.438030	0.253970
O401	O40	0.926000	0.444700	0.792840
O411	O41	0.419500	0.357470	0.152250
O421	O42	0.331600	0.422890	0.004330
O431	O43	0.755000	0.437200	0.169400
O441	O44	0.974800	0.466090	0.914550
O451	O45	0.035100	0.388920	0.195300
O461	O46	0.079400	0.213190	0.653210
O471	O47	0.365400	0.075640	0.802760
O481	O48	0.449900	0.122850	0.916950
