data_REFMEW_clean_PM
_symmetry_space_group_name_H-M	'P1'
_cell_length_a	32.313000
_cell_length_b	8.180100
_cell_length_c	18.452200
_cell_angle_alpha	90.000000
_cell_angle_beta	90.000000
_cell_angle_gamma	90.000000
_symmetry_Int_Tables_number 1

loop_
_symmetry_equiv_pos_as_xyz
'x,y,z'

loop_
_atom_site_label
_atom_site_type_symbol
_atom_site_fract_x
_atom_site_fract_y
_atom_site_fract_z
O11	O1	0.082440	0.241100	0.970600
O21	O2	0.065800	0.147800	0.080500
O31	O3	0.483660	0.127600	0.076590
C11	C1	0.084250	0.138000	0.020100
O41	O4	0.468870	0.382700	0.110300
O51	O5	0.310990	0.518700	0.921810
O61	O6	0.316870	0.921100	0.928840
C21	C2	0.460550	0.253600	0.078200
C31	C3	0.404740	0.381000	0.004700
H11	H1	0.417800	0.481100	0.011200
C41	C4	0.401040	0.091200	0.028600
H21	H2	0.412200	0.997800	0.049800
C51	C5	0.421090	0.241800	0.035500
C61	C6	0.348830	0.221300	0.956600
H31	H3	0.324800	0.213400	0.929200
C71	C7	0.364430	0.082700	0.989700
C81	C8	0.368190	0.371500	0.963300
C91	C9	0.937230	0.403100	0.313800
H41	H4	0.910400	0.440100	0.305800
O71	O7	0.372990	0.626100	0.903690
O81	O8	0.343110	0.821600	0.031910
C101	C10	0.350240	0.517000	0.927300
C111	C11	0.339780	0.927200	0.984400
H51	H5	0.071000	0.206800	0.369000
H61	H6	0.181800	0.382300	0.135100
Zn11	Zn1	0.039580	0.344760	0.116390
Zn21	Zn2	0.289220	0.730280	0.890410
N11	N1	0.038160	0.314800	0.224800
N21	N2	0.212390	0.253800	0.282840
C121	C12	0.210650	0.850700	0.925100
O91	O9	0.233590	0.727200	0.932610
O101	O10	0.067690	0.544500	0.090240
C131	C13	0.170380	0.847500	0.966800
O111	O11	0.218940	0.971400	0.887150
N31	N3	0.055000	0.233700	0.333130
C141	C14	0.183480	0.321000	0.239800
C151	C15	0.097310	0.842700	0.045200
H71	H7	0.072800	0.841300	0.071600
O121	O12	0.131030	0.437300	0.090970
C161	C16	0.121010	0.701900	0.040100
C171	C17	0.111010	0.219700	0.240500
H81	H8	0.120600	0.118500	0.262100
H91	H9	0.111000	0.205900	0.188300
C181	C18	0.140410	0.358400	0.261000
H101	H10	0.139200	0.376400	0.312900
H111	H11	0.131600	0.458200	0.237100
C191	C19	0.106270	0.547400	0.076600
C201	C20	0.158110	0.705400	0.002600
H121	H12	0.174900	0.613000	0.001400
C211	C21	0.004030	0.336600	0.271000
N41	N4	0.197470	0.348400	0.170540
C221	C22	0.015010	0.283400	0.340100
C231	C23	0.239590	0.298700	0.170800
C241	C24	0.286340	0.171600	0.257100
H131	H13	0.292000	0.126800	0.302300
C251	C25	0.067650	0.254700	0.266000
C261	C26	0.146170	0.986700	0.970700
H141	H14	0.154200	0.081000	0.946200
C271	C27	0.109790	0.985700	0.011200
C281	C28	0.948400	0.352800	0.382200
H151	H15	0.929500	0.363800	0.419800
C291	C29	0.964970	0.400100	0.256700
H161	H16	0.957800	0.438600	0.210900
C301	C30	0.247970	0.237300	0.240200
C311	C31	0.269950	0.302300	0.117000
H171	H17	0.264500	0.343800	0.071100
C321	C32	0.315920	0.176700	0.202200
H181	H18	0.342100	0.134300	0.211100
C331	C33	0.987030	0.286300	0.397200
H191	H19	0.993700	0.245900	0.442800
C341	C34	0.307510	0.242800	0.134800
H201	H20	0.328600	0.246400	0.100500
O131	O13	0.917560	0.758900	0.470600
O141	O14	0.934200	0.852200	0.580500
O151	O15	0.516340	0.872400	0.576590
C351	C35	0.915750	0.862000	0.520100
O161	O16	0.531130	0.617300	0.610300
O171	O17	0.689010	0.481300	0.421810
O181	O18	0.683130	0.078900	0.428840
C361	C36	0.539450	0.746400	0.578200
C371	C37	0.595260	0.619000	0.504700
H211	H21	0.582200	0.518900	0.511200
C381	C38	0.598960	0.908800	0.528600
H221	H22	0.587800	0.002200	0.549800
C391	C39	0.578910	0.758200	0.535500
C401	C40	0.651170	0.778700	0.456600
H231	H23	0.675200	0.786600	0.429200
C411	C41	0.635570	0.917300	0.489700
C421	C42	0.631810	0.628500	0.463300
C431	C43	0.062770	0.596900	0.813800
H241	H24	0.089600	0.559900	0.805800
O191	O19	0.627010	0.373900	0.403690
O201	O20	0.656890	0.178400	0.531910
C441	C44	0.649760	0.483000	0.427300
C451	C45	0.660220	0.072800	0.484400
H251	H25	0.929000	0.793200	0.869000
H261	H26	0.818200	0.617700	0.635100
Zn31	Zn3	0.960420	0.655240	0.616390
Zn41	Zn4	0.710780	0.269720	0.390410
N51	N5	0.961840	0.685200	0.724800
N61	N6	0.787610	0.746200	0.782840
C461	C46	0.789350	0.149300	0.425100
O211	O21	0.766410	0.272800	0.432610
O221	O22	0.932310	0.455500	0.590240
C471	C47	0.829620	0.152500	0.466800
O231	O23	0.781060	0.028600	0.387150
N71	N7	0.945000	0.766300	0.833130
C481	C48	0.816520	0.679000	0.739800
C491	C49	0.902690	0.157300	0.545200
H271	H27	0.927200	0.158700	0.571600
O241	O24	0.868970	0.562700	0.590970
C501	C50	0.878990	0.298100	0.540100
C511	C51	0.888990	0.780300	0.740500
H281	H28	0.879400	0.881500	0.762100
H291	H29	0.889000	0.794100	0.688300
C521	C52	0.859590	0.641600	0.761000
H301	H30	0.860800	0.623600	0.812900
H311	H31	0.868400	0.541800	0.737100
C531	C53	0.893730	0.452600	0.576600
C541	C54	0.841890	0.294600	0.502600
H321	H32	0.825100	0.387000	0.501400
C551	C55	0.995970	0.663400	0.771000
N81	N8	0.802530	0.651600	0.670540
C561	C56	0.984990	0.716600	0.840100
C571	C57	0.760410	0.701300	0.670800
C581	C58	0.713660	0.828400	0.757100
H331	H33	0.708000	0.873200	0.802300
C591	C59	0.932350	0.745300	0.766000
C601	C60	0.853830	0.013300	0.470700
H341	H34	0.845800	0.919000	0.446200
C611	C61	0.890210	0.014300	0.511200
C621	C62	0.051600	0.647200	0.882200
H351	H35	0.070500	0.636200	0.919800
C631	C63	0.035030	0.599900	0.756700
H361	H36	0.042200	0.561400	0.710900
C641	C64	0.752030	0.762700	0.740200
C651	C65	0.730050	0.697700	0.617000
H371	H37	0.735500	0.656200	0.571100
C661	C66	0.684080	0.823300	0.702200
H381	H38	0.657900	0.865700	0.711100
C671	C67	0.012970	0.713700	0.897200
H391	H39	0.006300	0.754100	0.942800
C681	C68	0.692490	0.757200	0.634800
H401	H40	0.671400	0.753600	0.600500
O251	O25	0.582440	0.258900	0.970600
O261	O26	0.565800	0.352200	0.080500
O271	O27	0.983660	0.372400	0.076590
C691	C69	0.584250	0.362000	0.020100
O281	O28	0.968870	0.117300	0.110300
O291	O29	0.810990	0.981300	0.921810
O301	O30	0.816870	0.578900	0.928840
C701	C70	0.960550	0.246400	0.078200
C711	C71	0.904740	0.119000	0.004700
H411	H41	0.917800	0.018900	0.011200
C721	C72	0.901040	0.408800	0.028600
H421	H42	0.912200	0.502200	0.049800
C731	C73	0.921090	0.258200	0.035500
C741	C74	0.848830	0.278700	0.956600
H431	H43	0.824800	0.286600	0.929200
C751	C75	0.864430	0.417300	0.989700
C761	C76	0.868190	0.128500	0.963300
C771	C77	0.437230	0.096900	0.313800
H441	H44	0.410400	0.059900	0.305800
O311	O31	0.872990	0.873900	0.903690
O321	O32	0.843110	0.678400	0.031910
C781	C78	0.850240	0.983000	0.927300
C791	C79	0.839780	0.572800	0.984400
H451	H45	0.571000	0.293200	0.369000
H461	H46	0.681800	0.117700	0.135100
Zn51	Zn5	0.539580	0.155240	0.116390
Zn61	Zn6	0.789220	0.769720	0.890410
N91	N9	0.538160	0.185200	0.224800
N101	N10	0.712390	0.246200	0.282840
C801	C80	0.710650	0.649300	0.925100
O331	O33	0.733590	0.772800	0.932610
O341	O34	0.567690	0.955500	0.090240
C811	C81	0.670380	0.652500	0.966800
O351	O35	0.718940	0.528600	0.887150
N111	N11	0.555000	0.266300	0.333130
C821	C82	0.683480	0.179000	0.239800
C831	C83	0.597310	0.657300	0.045200
H471	H47	0.572800	0.658700	0.071600
O361	O36	0.631030	0.062700	0.090970
C841	C84	0.621010	0.798100	0.040100
C851	C85	0.611010	0.280300	0.240500
H481	H48	0.620600	0.381500	0.262100
H491	H49	0.611000	0.294100	0.188300
C861	C86	0.640410	0.141600	0.261000
H501	H50	0.639200	0.123600	0.312900
H511	H51	0.631600	0.041800	0.237100
C871	C87	0.606270	0.952600	0.076600
C881	C88	0.658110	0.794600	0.002600
H521	H52	0.674900	0.887000	0.001400
C891	C89	0.504030	0.163400	0.271000
N121	N12	0.697470	0.151600	0.170540
C901	C90	0.515010	0.216600	0.340100
C911	C91	0.739590	0.201300	0.170800
C921	C92	0.786340	0.328400	0.257100
H531	H53	0.792000	0.373200	0.302300
C931	C93	0.567650	0.245300	0.266000
C941	C94	0.646170	0.513300	0.970700
H541	H54	0.654200	0.419000	0.946200
C951	C95	0.609790	0.514300	0.011200
C961	C96	0.448400	0.147200	0.382200
H551	H55	0.429500	0.136200	0.419800
C971	C97	0.464970	0.099900	0.256700
H561	H56	0.457800	0.061400	0.210900
C981	C98	0.747970	0.262700	0.240200
C991	C99	0.769950	0.197700	0.117000
H571	H57	0.764500	0.156200	0.071100
C1001	C100	0.815920	0.323300	0.202200
H581	H58	0.842100	0.365700	0.211100
C1011	C101	0.487030	0.213700	0.397200
H591	H59	0.493700	0.254100	0.442800
C1021	C102	0.807510	0.257200	0.134800
H601	H60	0.828600	0.253600	0.100500
O371	O37	0.417560	0.741100	0.470600
O381	O38	0.434200	0.647800	0.580500
O391	O39	0.016340	0.627600	0.576590
C1031	C103	0.415750	0.638000	0.520100
O401	O40	0.031130	0.882700	0.610300
O411	O41	0.189010	0.018700	0.421810
O421	O42	0.183130	0.421100	0.428840
C1041	C104	0.039450	0.753600	0.578200
C1051	C105	0.095260	0.881000	0.504700
H611	H61	0.082200	0.981100	0.511200
C1061	C106	0.098960	0.591200	0.528600
H621	H62	0.087800	0.497800	0.549800
C1071	C107	0.078910	0.741800	0.535500
C1081	C108	0.151170	0.721300	0.456600
H631	H63	0.175200	0.713400	0.429200
C1091	C109	0.135570	0.582700	0.489700
C1101	C110	0.131810	0.871500	0.463300
C1111	C111	0.562770	0.903100	0.813800
H641	H64	0.589600	0.940100	0.805800
O431	O43	0.127010	0.126100	0.403690
O441	O44	0.156890	0.321600	0.531910
C1121	C112	0.149760	0.017000	0.427300
C1131	C113	0.160220	0.427200	0.484400
H651	H65	0.429000	0.706800	0.869000
H661	H66	0.318200	0.882300	0.635100
Zn71	Zn7	0.460420	0.844760	0.616390
Zn81	Zn8	0.210780	0.230280	0.390410
N131	N13	0.461840	0.814800	0.724800
N141	N14	0.287610	0.753800	0.782840
C1141	C114	0.289350	0.350700	0.425100
O451	O45	0.266410	0.227200	0.432610
O461	O46	0.432310	0.044500	0.590240
C1151	C115	0.329620	0.347500	0.466800
O471	O47	0.281060	0.471400	0.387150
N151	N15	0.445000	0.733700	0.833130
C1161	C116	0.316520	0.821000	0.739800
C1171	C117	0.402690	0.342700	0.545200
H671	H67	0.427200	0.341300	0.571600
O481	O48	0.368970	0.937300	0.590970
C1181	C118	0.378990	0.201900	0.540100
C1191	C119	0.388990	0.719700	0.740500
H681	H68	0.379400	0.618500	0.762100
H691	H69	0.389000	0.705900	0.688300
C1201	C120	0.359590	0.858400	0.761000
H701	H70	0.360800	0.876400	0.812900
H711	H71	0.368400	0.958200	0.737100
C1211	C121	0.393730	0.047400	0.576600
C1221	C122	0.341890	0.205400	0.502600
H721	H72	0.325100	0.113000	0.501400
C1231	C123	0.495970	0.836600	0.771000
N161	N16	0.302530	0.848400	0.670540
C1241	C124	0.484990	0.783400	0.840100
C1251	C125	0.260410	0.798700	0.670800
C1261	C126	0.213660	0.671600	0.757100
H731	H73	0.208000	0.626800	0.802300
C1271	C127	0.432350	0.754700	0.766000
C1281	C128	0.353830	0.486700	0.470700
H741	H74	0.345800	0.581000	0.446200
C1291	C129	0.390210	0.485700	0.511200
C1301	C130	0.551600	0.852800	0.882200
H751	H75	0.570500	0.863800	0.919800
C1311	C131	0.535030	0.900100	0.756700
H761	H76	0.542200	0.938600	0.710900
C1321	C132	0.252030	0.737300	0.740200
C1331	C133	0.230050	0.802300	0.617000
H771	H77	0.235500	0.843800	0.571100
C1341	C134	0.184080	0.676700	0.702200
H781	H78	0.157900	0.634300	0.711100
C1351	C135	0.512970	0.786300	0.897200
H791	H79	0.506300	0.745900	0.942800
C1361	C136	0.192490	0.742800	0.634800
H801	H80	0.171400	0.746400	0.600500
