data_REFTON_SL_PM
_symmetry_space_group_name_H-M	'P1'
_cell_length_a	7.307700
_cell_length_b	23.344400
_cell_length_c	18.815100
_cell_angle_alpha	90.000000
_cell_angle_beta	90.000000
_cell_angle_gamma	90.000000
_symmetry_Int_Tables_number 1

loop_
_symmetry_equiv_pos_as_xyz
'x,y,z'

loop_
_atom_site_label
_atom_site_type_symbol
_atom_site_fract_x
_atom_site_fract_y
_atom_site_fract_z
Zn11	Zn1	0.849660	0.913210	0.451320
H21	H2	0.771700	0.025700	0.706100
H31	H3	0.988700	0.871100	0.666300
H41	H4	0.911900	0.921400	0.867300
H51	H5	0.926100	0.804500	0.804900
H61	H6	0.107600	0.812700	0.761600
H71	H7	0.095300	0.834200	0.840400
H81	H8	0.190000	0.835800	0.550200
H91	H9	0.890500	0.775300	0.560400
C101	C10	0.820400	0.991310	0.722280
C111	C11	0.873200	0.949660	0.674120
C121	C12	0.947700	0.898200	0.698820
C131	C13	0.834700	0.957480	0.596150
C141	C14	0.779800	0.026850	0.845100
C151	C15	0.840500	0.981650	0.795120
C161	C16	0.905700	0.928720	0.818740
C171	C17	0.961400	0.886920	0.771000
C181	C18	0.028800	0.829330	0.796850
C191	C19	0.516000	0.856560	0.489990
C201	C20	0.419300	0.801510	0.507450
C211	C21	0.246700	0.801220	0.539270
O221	O22	0.727100	0.996950	0.578930
O231	O23	0.907200	0.922650	0.553700
O241	O24	0.773400	0.015630	0.912870
O251	O25	0.730500	0.074320	0.823430
O261	O26	0.440200	0.902940	0.504000
O271	O27	0.673000	0.850840	0.462190
Zn291	Zn29	0.650340	0.086790	0.951320
H301	H30	0.728300	0.974300	0.206100
H311	H31	0.511300	0.128900	0.166300
H321	H32	0.588100	0.078600	0.367300
H331	H33	0.573900	0.195500	0.304900
H341	H34	0.392400	0.187300	0.261600
H351	H35	0.404700	0.165800	0.340400
H361	H36	0.310000	0.164200	0.050200
H371	H37	0.609500	0.224700	0.060400
C381	C38	0.679600	0.008690	0.222280
C391	C39	0.626800	0.050340	0.174120
C401	C40	0.552300	0.101800	0.198820
C411	C41	0.665300	0.042520	0.096150
C421	C42	0.720200	0.973150	0.345100
C431	C43	0.659500	0.018350	0.295120
C441	C44	0.594300	0.071280	0.318740
C451	C45	0.538600	0.113080	0.271000
C461	C46	0.471200	0.170670	0.296850
C471	C47	0.984000	0.143440	0.989990
C481	C48	0.080700	0.198490	0.007450
C491	C49	0.253300	0.198780	0.039270
O501	O50	0.772900	0.003050	0.078930
O511	O51	0.592800	0.077350	0.053700
O521	O52	0.726600	0.984370	0.412870
O531	O53	0.769500	0.925680	0.323430
O541	O54	0.059800	0.097060	0.004000
O551	O55	0.827000	0.149160	0.962190
Zn571	Zn57	0.150340	0.413210	0.548680
H581	H58	0.228300	0.525700	0.293900
H591	H59	0.011300	0.371100	0.333700
H601	H60	0.088100	0.421400	0.132700
H611	H61	0.073900	0.304500	0.195100
H621	H62	0.892400	0.312700	0.238400
H631	H63	0.904700	0.334200	0.159600
H641	H64	0.810000	0.335800	0.449800
H651	H65	0.109500	0.275300	0.439600
C661	C66	0.179600	0.491310	0.277720
C671	C67	0.126800	0.449660	0.325880
C681	C68	0.052300	0.398200	0.301180
C691	C69	0.165300	0.457480	0.403850
C701	C70	0.220200	0.526850	0.154900
C711	C71	0.159500	0.481650	0.204880
C721	C72	0.094300	0.428720	0.181260
C731	C73	0.038600	0.386920	0.229000
C741	C74	0.971200	0.329330	0.203150
C751	C75	0.484000	0.356560	0.510010
C761	C76	0.580700	0.301510	0.492550
C771	C77	0.753300	0.301220	0.460730
O781	O78	0.272900	0.496950	0.421070
O791	O79	0.092800	0.422650	0.446300
O801	O80	0.226600	0.515630	0.087130
O811	O81	0.269500	0.574320	0.176570
O821	O82	0.559800	0.402940	0.496000
O831	O83	0.327000	0.350840	0.537810
Zn851	Zn85	0.349660	0.586790	0.048680
H861	H86	0.271700	0.474300	0.793900
H871	H87	0.488700	0.628900	0.833700
H881	H88	0.411900	0.578600	0.632700
H891	H89	0.426100	0.695500	0.695100
H901	H90	0.607600	0.687300	0.738400
H911	H91	0.595300	0.665800	0.659600
H921	H92	0.690000	0.664200	0.949800
H931	H93	0.390500	0.724700	0.939600
C941	C94	0.320400	0.508690	0.777720
C951	C95	0.373200	0.550340	0.825880
C961	C96	0.447700	0.601800	0.801180
C971	C97	0.334700	0.542520	0.903850
C981	C98	0.279800	0.473150	0.654900
C991	C99	0.340500	0.518350	0.704880
C1001	C100	0.405700	0.571280	0.681260
C1011	C101	0.461400	0.613080	0.729000
C1021	C102	0.528800	0.670670	0.703150
C1031	C103	0.016000	0.643440	0.010010
C1041	C104	0.919300	0.698490	0.992550
C1051	C105	0.746700	0.698780	0.960730
O1061	O106	0.227100	0.503050	0.921070
O1071	O107	0.407200	0.577350	0.946300
O1081	O108	0.273400	0.484370	0.587130
O1091	O109	0.230500	0.425680	0.676570
O1101	O110	0.940200	0.597060	0.996000
O1111	O111	0.173000	0.649160	0.037810
H1121	H112	0.600420	0.250000	0.113570
Zn1131	Zn113	0.150340	0.086790	0.548680
H1141	H114	0.228300	0.974300	0.293900
H1151	H115	0.011300	0.128900	0.333700
H1161	H116	0.088100	0.078600	0.132700
H1171	H117	0.073900	0.195500	0.195100
H1181	H118	0.892400	0.187300	0.238400
H1191	H119	0.904700	0.165800	0.159600
H1201	H120	0.810000	0.164200	0.449800
H1211	H121	0.109500	0.224700	0.439600
C1221	C122	0.179600	0.008690	0.277720
C1231	C123	0.126800	0.050340	0.325880
C1241	C124	0.052300	0.101800	0.301180
C1251	C125	0.165300	0.042520	0.403850
C1261	C126	0.220200	0.973150	0.154900
C1271	C127	0.159500	0.018350	0.204880
C1281	C128	0.094300	0.071280	0.181260
C1291	C129	0.038600	0.113080	0.229000
C1301	C130	0.971200	0.170670	0.203150
C1311	C131	0.484000	0.143440	0.510010
C1321	C132	0.580700	0.198490	0.492550
C1331	C133	0.753300	0.198780	0.460730
O1341	O134	0.272900	0.003050	0.421070
O1351	O135	0.092800	0.077350	0.446300
O1361	O136	0.226600	0.984370	0.087130
O1371	O137	0.269500	0.925680	0.176570
O1381	O138	0.559800	0.097060	0.496000
O1391	O139	0.327000	0.149160	0.537810
H1401	H140	0.899580	0.750000	0.613570
Zn1411	Zn141	0.349660	0.913210	0.048680
H1421	H142	0.271700	0.025700	0.793900
H1431	H143	0.488700	0.871100	0.833700
H1441	H144	0.411900	0.921400	0.632700
H1451	H145	0.426100	0.804500	0.695100
H1461	H146	0.607600	0.812700	0.738400
H1471	H147	0.595300	0.834200	0.659600
H1481	H148	0.690000	0.835800	0.949800
H1491	H149	0.390500	0.775300	0.939600
C1501	C150	0.320400	0.991310	0.777720
C1511	C151	0.373200	0.949660	0.825880
C1521	C152	0.447700	0.898200	0.801180
C1531	C153	0.334700	0.957480	0.903850
C1541	C154	0.279800	0.026850	0.654900
C1551	C155	0.340500	0.981650	0.704880
C1561	C156	0.405700	0.928720	0.681260
C1571	C157	0.461400	0.886920	0.729000
C1581	C158	0.528800	0.829330	0.703150
C1591	C159	0.016000	0.856560	0.010010
C1601	C160	0.919300	0.801510	0.992550
C1611	C161	0.746700	0.801220	0.960730
O1621	O162	0.227100	0.996950	0.921070
O1631	O163	0.407200	0.922650	0.946300
O1641	O164	0.273400	0.015630	0.587130
O1651	O165	0.230500	0.074320	0.676570
O1661	O166	0.940200	0.902940	0.996000
O1671	O167	0.173000	0.850840	0.037810
Zn1691	Zn169	0.849660	0.586790	0.451320
H1701	H170	0.771700	0.474300	0.706100
H1711	H171	0.988700	0.628900	0.666300
H1721	H172	0.911900	0.578600	0.867300
H1731	H173	0.926100	0.695500	0.804900
H1741	H174	0.107600	0.687300	0.761600
H1751	H175	0.095300	0.665800	0.840400
H1761	H176	0.190000	0.664200	0.550200
H1771	H177	0.890500	0.724700	0.560400
C1781	C178	0.820400	0.508690	0.722280
C1791	C179	0.873200	0.550340	0.674120
C1801	C180	0.947700	0.601800	0.698820
C1811	C181	0.834700	0.542520	0.596150
C1821	C182	0.779800	0.473150	0.845100
C1831	C183	0.840500	0.518350	0.795120
C1841	C184	0.905700	0.571280	0.818740
C1851	C185	0.961400	0.613080	0.771000
C1861	C186	0.028800	0.670670	0.796850
C1871	C187	0.516000	0.643440	0.489990
C1881	C188	0.419300	0.698490	0.507450
C1891	C189	0.246700	0.698780	0.539270
O1901	O190	0.727100	0.503050	0.578930
O1911	O191	0.907200	0.577350	0.553700
O1921	O192	0.773400	0.484370	0.912870
O1931	O193	0.730500	0.425680	0.823430
O1941	O194	0.440200	0.597060	0.504000
O1951	O195	0.673000	0.649160	0.462190
H1961	H196	0.100420	0.250000	0.386430
Zn1971	Zn197	0.650340	0.413210	0.951320
H1981	H198	0.728300	0.525700	0.206100
H1991	H199	0.511300	0.371100	0.166300
H2001	H200	0.588100	0.421400	0.367300
H2011	H201	0.573900	0.304500	0.304900
H2021	H202	0.392400	0.312700	0.261600
H2031	H203	0.404700	0.334200	0.340400
H2041	H204	0.310000	0.335800	0.050200
H2051	H205	0.609500	0.275300	0.060400
C2061	C206	0.679600	0.491310	0.222280
C2071	C207	0.626800	0.449660	0.174120
C2081	C208	0.552300	0.398200	0.198820
C2091	C209	0.665300	0.457480	0.096150
C2101	C210	0.720200	0.526850	0.345100
C2111	C211	0.659500	0.481650	0.295120
C2121	C212	0.594300	0.428720	0.318740
C2131	C213	0.538600	0.386920	0.271000
C2141	C214	0.471200	0.329330	0.296850
C2151	C215	0.984000	0.356560	0.989990
C2161	C216	0.080700	0.301510	0.007450
C2171	C217	0.253300	0.301220	0.039270
O2181	O218	0.772900	0.496950	0.078930
O2191	O219	0.592800	0.422650	0.053700
O2201	O220	0.726600	0.515630	0.412870
O2211	O221	0.769500	0.574320	0.323430
O2221	O222	0.059800	0.402940	0.004000
O2231	O223	0.827000	0.350840	0.962190
H2241	H224	0.399580	0.750000	0.886430
Cd2251	Cd225	0.500000	0.000000	0.500000
Cd2261	Cd226	0.000000	0.000000	0.000000
Cd2271	Cd227	0.500000	0.500000	0.500000
Cd2281	Cd228	0.000000	0.500000	0.000000
H2291	H229	0.617300	0.750000	0.469000
C2301	C230	0.503500	0.750000	0.491100
C2311	C231	0.158700	0.750000	0.554800
C2321	C232	0.968000	0.750000	0.587000
H2331	H233	0.882700	0.250000	0.969000
C2341	C234	0.996500	0.250000	0.991100
C2351	C235	0.341300	0.250000	0.054800
C2361	C236	0.532000	0.250000	0.087000
H2371	H237	0.382700	0.250000	0.531000
C2381	C238	0.496500	0.250000	0.508900
C2391	C239	0.841300	0.250000	0.445200
C2401	C240	0.032000	0.250000	0.413000
H2411	H241	0.117300	0.750000	0.031000
C2421	C242	0.003500	0.750000	0.008900
C2431	C243	0.658700	0.750000	0.945200
C2441	C244	0.468000	0.750000	0.913000
