data_REGMOH_clean_PM
_symmetry_space_group_name_H-M	'P1'
_cell_length_a	13.499500
_cell_length_b	12.421200
_cell_length_c	40.153000
_cell_angle_alpha	90.000000
_cell_angle_beta	108.438000
_cell_angle_gamma	90.000000
_symmetry_Int_Tables_number 1

loop_
_symmetry_equiv_pos_as_xyz
'x,y,z'

loop_
_atom_site_label
_atom_site_type_symbol
_atom_site_fract_x
_atom_site_fract_y
_atom_site_fract_z
Ni11	Ni1	0.679030	0.387920	0.307520
Ni21	Ni2	0.871180	0.094730	0.577570
O11	O1	0.779900	0.236100	0.578350
O21	O2	0.677800	0.354800	0.542280
O31	O3	0.938740	0.970790	0.552750
O41	O4	0.919530	0.908700	0.498660
O51	O5	0.737250	0.230720	0.303770
O61	O6	0.795890	0.083100	0.336150
O71	O7	0.632730	0.522110	0.335430
O81	O8	0.593700	0.553100	0.384760
N11	N1	0.944000	0.583700	0.322500
N21	N2	0.826000	0.457900	0.319540
N31	N3	0.643600	0.833400	0.212200
N41	N4	0.474800	0.833700	0.204460
N51	N5	0.966500	0.555000	0.174190
N61	N6	0.910100	0.448500	0.128720
N71	N7	0.823500	0.138400	0.527670
N81	N8	0.707240	0.332600	0.356090
N91	N9	0.538200	0.477900	0.203180
N101	N10	0.640700	0.434900	0.255870
N111	N11	0.166600	0.265900	0.086740
N121	N12	0.008800	0.316600	0.085860
N131	N13	0.581600	0.571800	0.060420
N141	N14	0.738200	0.504900	0.068290
C11	C1	0.955200	0.715800	0.278060
C21	C2	0.874100	0.789000	0.264540
C31	C3	0.835200	0.805800	0.228210
C41	C4	0.881300	0.755500	0.205730
C51	C5	0.967600	0.689500	0.220000
C61	C6	0.002800	0.665500	0.255650
C71	C7	0.738400	0.277800	0.548750
C81	C8	0.909000	0.977300	0.519340
C91	C9	0.762000	0.175500	0.332150
C101	C10	0.633200	0.498600	0.366000
C111	C11	0.990700	0.686500	0.316230
H11	H1	0.067800	0.680200	0.324700
H21	H2	0.970800	0.744600	0.329800
C121	C12	0.845000	0.550900	0.307330
H31	H3	0.794400	0.590700	0.289800
C131	C13	0.918000	0.430100	0.344440
H41	H4	0.929000	0.366500	0.358300
C141	C14	0.991200	0.507000	0.346410
H51	H5	0.061400	0.507100	0.361500
C151	C15	0.827100	0.847900	0.289070
H61	H6	0.800900	0.795400	0.302500
H71	H7	0.769300	0.893400	0.275300
H81	H8	0.880600	0.892900	0.305300
C161	C16	0.743800	0.881600	0.212970
H91	H9	0.755200	0.948300	0.227200
H101	H10	0.740600	0.901600	0.188800
C171	C17	0.552400	0.883100	0.197560
H111	H11	0.544400	0.946600	0.183800
C181	C18	0.519000	0.748500	0.225300
H121	H12	0.482700	0.698500	0.235100
C191	C19	0.622600	0.746400	0.229900
H131	H13	0.671400	0.694600	0.242900
C201	C20	0.837500	0.771900	0.166240
H141	H14	0.761200	0.766400	0.158800
H151	H15	0.865600	0.716700	0.154300
H161	H16	0.857500	0.843400	0.160200
C211	C21	0.025000	0.643600	0.196140
H171	H17	0.036300	0.701500	0.180800
H181	H18	0.094300	0.616800	0.210700
C221	C22	0.972400	0.528700	0.142760
H191	H19	0.016500	0.563800	0.131800
C231	C23	0.862000	0.421000	0.153040
H201	H20	0.812100	0.365100	0.150400
C241	C24	0.897000	0.486000	0.181170
H211	H21	0.877200	0.484200	0.201900
C251	C25	0.088700	0.584800	0.270290
H221	H22	0.156500	0.619400	0.273800
H231	H23	0.080300	0.524700	0.253800
H241	H24	0.085300	0.557800	0.292800
C261	C26	0.766000	0.226500	0.518370
C271	C27	0.736800	0.264400	0.484390
H251	H25	0.695600	0.327700	0.478100
C281	C28	0.768500	0.208800	0.459310
C291	C29	0.825600	0.114200	0.469730
H261	H26	0.846600	0.073100	0.453200
C301	C30	0.851600	0.080400	0.504260
C311	C31	0.683500	0.391300	0.380280
C321	C32	0.701500	0.352800	0.413810
H271	H27	0.685100	0.396000	0.430900
C331	C33	0.743800	0.250500	0.422740
C341	C34	0.763600	0.188700	0.396370
H281	H28	0.789500	0.117300	0.401100
C351	C35	0.745000	0.233200	0.363370
C361	C36	0.425500	0.483700	0.139740
C371	C37	0.364700	0.391900	0.128230
C381	C38	0.335700	0.361800	0.092860
C391	C39	0.374500	0.420300	0.069470
C401	C40	0.435200	0.511600	0.081540
C411	C41	0.462000	0.544500	0.116680
C421	C42	0.444400	0.523000	0.176730
H291	H29	0.450800	0.602400	0.176900
H301	H30	0.382500	0.505200	0.183800
C431	C43	0.548500	0.472300	0.237330
H311	H31	0.495600	0.492800	0.247100
C441	C44	0.692600	0.415600	0.231830
H321	H32	0.761500	0.388100	0.237200
C451	C45	0.629200	0.442200	0.199220
H331	H33	0.645200	0.437000	0.177900
C461	C46	0.328800	0.325400	0.153920
H341	H34	0.261500	0.352700	0.154800
H351	H35	0.380600	0.330400	0.177300
H361	H36	0.321100	0.250000	0.146300
C471	C47	0.267500	0.264200	0.080050
H371	H37	0.254100	0.257000	0.054500
H381	H38	0.306500	0.199500	0.091400
C481	C48	0.096200	0.345400	0.080000
H391	H39	0.107700	0.414700	0.071900
C491	C49	0.024700	0.213400	0.097180
H401	H40	0.975400	0.170400	0.103500
C501	C50	0.121400	0.180600	0.098110
H411	H41	0.151800	0.111900	0.105200
C511	C51	0.353500	0.380800	0.032200
H421	H42	0.279400	0.390600	0.019000
H431	H43	0.371500	0.304300	0.032500
H441	H44	0.396100	0.422000	0.020900
C521	C52	0.469900	0.582300	0.056490
H451	H45	0.428600	0.563500	0.032100
H461	H46	0.454900	0.658400	0.060500
C531	C53	0.640900	0.483400	0.066390
H471	H47	0.616000	0.413400	0.069000
C541	C54	0.740200	0.614100	0.063460
H481	H48	0.800200	0.654200	0.063600
C551	C55	0.644600	0.656200	0.058480
H491	H49	0.624900	0.729700	0.054400
C561	C56	0.528600	0.642600	0.129520
H501	H50	0.582800	0.646500	0.118100
H511	H51	0.561500	0.637800	0.155000
H521	H52	0.484900	0.707300	0.123800
Ni31	Ni3	0.320970	0.887920	0.192480
Ni41	Ni4	0.128820	0.594730	0.922430
O91	O9	0.220100	0.736100	0.921650
O101	O10	0.322200	0.854800	0.957720
O111	O11	0.061260	0.470790	0.947250
O121	O12	0.080470	0.408700	0.001340
O131	O13	0.262750	0.730720	0.196230
O141	O14	0.204110	0.583100	0.163850
O151	O15	0.367270	0.022110	0.164570
O161	O16	0.406300	0.053100	0.115240
N151	N15	0.056000	0.083700	0.177500
N161	N16	0.174000	0.957900	0.180460
N171	N17	0.356400	0.333400	0.287800
N181	N18	0.525200	0.333700	0.295540
N191	N19	0.033500	0.055000	0.325810
N201	N20	0.089900	0.948500	0.371280
N211	N21	0.176500	0.638400	0.972330
N221	N22	0.292760	0.832600	0.143910
N231	N23	0.461800	0.977900	0.296820
N241	N24	0.359300	0.934900	0.244130
N251	N25	0.833400	0.765900	0.413260
N261	N26	0.991200	0.816600	0.414140
N271	N27	0.418400	0.071800	0.439580
N281	N28	0.261800	0.004900	0.431710
C571	C57	0.044800	0.215800	0.221940
C581	C58	0.125900	0.289000	0.235460
C591	C59	0.164800	0.305800	0.271790
C601	C60	0.118700	0.255500	0.294270
C611	C61	0.032400	0.189500	0.280000
C621	C62	0.997200	0.165500	0.244350
C631	C63	0.261600	0.777800	0.951250
C641	C64	0.091000	0.477300	0.980660
C651	C65	0.238000	0.675500	0.167850
C661	C66	0.366800	0.998600	0.134000
C671	C67	0.009300	0.186500	0.183770
H531	H53	0.932200	0.180200	0.175300
H541	H54	0.029200	0.244600	0.170200
C681	C68	0.155000	0.050900	0.192670
H551	H55	0.205600	0.090700	0.210200
C691	C69	0.082000	0.930100	0.155560
H561	H56	0.071000	0.866500	0.141700
C701	C70	0.008800	0.007000	0.153590
H571	H57	0.938600	0.007100	0.138500
C711	C71	0.172900	0.347900	0.210930
H581	H58	0.199100	0.295400	0.197500
H591	H59	0.230700	0.393400	0.224700
H601	H60	0.119400	0.392900	0.194700
C721	C72	0.256200	0.381600	0.287030
H611	H61	0.244800	0.448300	0.272800
H621	H62	0.259400	0.401600	0.311200
C731	C73	0.447600	0.383100	0.302440
H631	H63	0.455600	0.446600	0.316200
C741	C74	0.481000	0.248500	0.274700
H641	H64	0.517300	0.198500	0.264900
C751	C75	0.377400	0.246400	0.270100
H651	H65	0.328600	0.194600	0.257100
C761	C76	0.162500	0.271900	0.333760
H661	H66	0.238800	0.266400	0.341200
H671	H67	0.134400	0.216700	0.345700
H681	H68	0.142500	0.343400	0.339800
C771	C77	0.975000	0.143600	0.303860
H691	H69	0.963700	0.201500	0.319200
H701	H70	0.905700	0.116800	0.289300
C781	C78	0.027600	0.028700	0.357240
H711	H71	0.983500	0.063800	0.368200
C791	C79	0.138000	0.921000	0.346960
H721	H72	0.187900	0.865100	0.349600
C801	C80	0.103000	0.986000	0.318830
H731	H73	0.122800	0.984200	0.298100
C811	C81	0.911300	0.084800	0.229710
H741	H74	0.843500	0.119400	0.226200
H751	H75	0.919700	0.024700	0.246200
H761	H76	0.914700	0.057800	0.207200
C821	C82	0.234000	0.726500	0.981630
C831	C83	0.263200	0.764400	0.015610
H771	H77	0.304400	0.827700	0.021900
C841	C84	0.231500	0.708800	0.040690
C851	C85	0.174400	0.614200	0.030270
H781	H78	0.153400	0.573100	0.046800
C861	C86	0.148400	0.580400	0.995740
C871	C87	0.316500	0.891300	0.119720
C881	C88	0.298500	0.852800	0.086190
H791	H79	0.314900	0.896000	0.069100
C891	C89	0.256200	0.750500	0.077260
C901	C90	0.236400	0.688700	0.103630
H801	H80	0.210500	0.617300	0.098900
C911	C91	0.255000	0.733200	0.136630
C921	C92	0.574500	0.983700	0.360260
C931	C93	0.635300	0.891900	0.371770
C941	C94	0.664300	0.861800	0.407140
C951	C95	0.625500	0.920300	0.430530
C961	C96	0.564800	0.011600	0.418460
C971	C97	0.538000	0.044500	0.383320
C981	C98	0.555600	0.023000	0.323270
H811	H81	0.549200	0.102400	0.323100
H821	H82	0.617500	0.005200	0.316200
C991	C99	0.451500	0.972300	0.262670
H831	H83	0.504400	0.992800	0.252900
C1001	C100	0.307400	0.915600	0.268170
H841	H84	0.238500	0.888100	0.262800
C1011	C101	0.370800	0.942200	0.300780
H851	H85	0.354800	0.937000	0.322100
C1021	C102	0.671200	0.825400	0.346080
H861	H86	0.738500	0.852700	0.345200
H871	H87	0.619400	0.830400	0.322700
H881	H88	0.678900	0.750000	0.353700
C1031	C103	0.732500	0.764200	0.419950
H891	H89	0.745900	0.757000	0.445500
H901	H90	0.693500	0.699500	0.408600
C1041	C104	0.903800	0.845400	0.420000
H911	H91	0.892300	0.914700	0.428100
C1051	C105	0.975300	0.713400	0.402820
H921	H92	0.024600	0.670400	0.396500
C1061	C106	0.878600	0.680600	0.401890
H931	H93	0.848200	0.611900	0.394800
C1071	C107	0.646500	0.880800	0.467800
H941	H94	0.720600	0.890600	0.481000
H951	H95	0.628500	0.804300	0.467500
H961	H96	0.603900	0.922000	0.479100
C1081	C108	0.530100	0.082300	0.443510
H971	H97	0.571400	0.063500	0.467900
H981	H98	0.545100	0.158400	0.439500
C1091	C109	0.359100	0.983400	0.433610
H991	H99	0.384000	0.913400	0.431000
C1101	C110	0.259800	0.114100	0.436540
H1001	H100	0.199800	0.154200	0.436400
C1111	C111	0.355400	0.156200	0.441520
H1011	H101	0.375100	0.229700	0.445600
C1121	C112	0.471400	0.142600	0.370480
H1021	H102	0.417200	0.146500	0.381900
H1031	H103	0.438500	0.137800	0.345000
H1041	H104	0.515100	0.207300	0.376200
Ni51	Ni5	0.320970	0.612080	0.692480
Ni61	Ni6	0.128820	0.905270	0.422430
O171	O17	0.220100	0.763900	0.421650
O181	O18	0.322200	0.645200	0.457720
O191	O19	0.061260	0.029210	0.447250
O201	O20	0.080470	0.091300	0.501340
O211	O21	0.262750	0.769280	0.696230
O221	O22	0.204110	0.916900	0.663850
O231	O23	0.367270	0.477890	0.664570
O241	O24	0.406300	0.446900	0.615240
N291	N29	0.056000	0.416300	0.677500
N301	N30	0.174000	0.542100	0.680460
N311	N31	0.356400	0.166600	0.787800
N321	N32	0.525200	0.166300	0.795540
N331	N33	0.033500	0.445000	0.825810
N341	N34	0.089900	0.551500	0.871280
N351	N35	0.176500	0.861600	0.472330
N361	N36	0.292760	0.667400	0.643910
N371	N37	0.461800	0.522100	0.796820
N381	N38	0.359300	0.565100	0.744130
N391	N39	0.833400	0.734100	0.913260
N401	N40	0.991200	0.683400	0.914140
N411	N41	0.418400	0.428200	0.939580
N421	N42	0.261800	0.495100	0.931710
C1131	C113	0.044800	0.284200	0.721940
C1141	C114	0.125900	0.211000	0.735460
C1151	C115	0.164800	0.194200	0.771790
C1161	C116	0.118700	0.244500	0.794270
C1171	C117	0.032400	0.310500	0.780000
C1181	C118	0.997200	0.334500	0.744350
C1191	C119	0.261600	0.722200	0.451250
C1201	C120	0.091000	0.022700	0.480660
C1211	C121	0.238000	0.824500	0.667850
C1221	C122	0.366800	0.501400	0.634000
C1231	C123	0.009300	0.313500	0.683770
H1051	H105	0.932200	0.319800	0.675300
H1061	H106	0.029200	0.255400	0.670200
C1241	C124	0.155000	0.449100	0.692670
H1071	H107	0.205600	0.409300	0.710200
C1251	C125	0.082000	0.569900	0.655560
H1081	H108	0.071000	0.633500	0.641700
C1261	C126	0.008800	0.493000	0.653590
H1091	H109	0.938600	0.492900	0.638500
C1271	C127	0.172900	0.152100	0.710930
H1101	H110	0.199100	0.204600	0.697500
H1111	H111	0.230700	0.106600	0.724700
H1121	H112	0.119400	0.107100	0.694700
C1281	C128	0.256200	0.118400	0.787030
H1131	H113	0.244800	0.051700	0.772800
H1141	H114	0.259400	0.098400	0.811200
C1291	C129	0.447600	0.116900	0.802440
H1151	H115	0.455600	0.053400	0.816200
C1301	C130	0.481000	0.251500	0.774700
H1161	H116	0.517300	0.301500	0.764900
C1311	C131	0.377400	0.253600	0.770100
H1171	H117	0.328600	0.305400	0.757100
C1321	C132	0.162500	0.228100	0.833760
H1181	H118	0.238800	0.233600	0.841200
H1191	H119	0.134400	0.283300	0.845700
H1201	H120	0.142500	0.156600	0.839800
C1331	C133	0.975000	0.356400	0.803860
H1211	H121	0.963700	0.298500	0.819200
H1221	H122	0.905700	0.383200	0.789300
C1341	C134	0.027600	0.471300	0.857240
H1231	H123	0.983500	0.436200	0.868200
C1351	C135	0.138000	0.579000	0.846960
H1241	H124	0.187900	0.634900	0.849600
C1361	C136	0.103000	0.514000	0.818830
H1251	H125	0.122800	0.515800	0.798100
C1371	C137	0.911300	0.415200	0.729710
H1261	H126	0.843500	0.380600	0.726200
H1271	H127	0.919700	0.475300	0.746200
H1281	H128	0.914700	0.442200	0.707200
C1381	C138	0.234000	0.773500	0.481630
C1391	C139	0.263200	0.735600	0.515610
H1291	H129	0.304400	0.672300	0.521900
C1401	C140	0.231500	0.791200	0.540690
C1411	C141	0.174400	0.885800	0.530270
H1301	H130	0.153400	0.926900	0.546800
C1421	C142	0.148400	0.919600	0.495740
C1431	C143	0.316500	0.608700	0.619720
C1441	C144	0.298500	0.647200	0.586190
H1311	H131	0.314900	0.604000	0.569100
C1451	C145	0.256200	0.749500	0.577260
C1461	C146	0.236400	0.811300	0.603630
H1321	H132	0.210500	0.882700	0.598900
C1471	C147	0.255000	0.766800	0.636630
C1481	C148	0.574500	0.516300	0.860260
C1491	C149	0.635300	0.608100	0.871770
C1501	C150	0.664300	0.638200	0.907140
C1511	C151	0.625500	0.579700	0.930530
C1521	C152	0.564800	0.488400	0.918460
C1531	C153	0.538000	0.455500	0.883320
C1541	C154	0.555600	0.477000	0.823270
H1331	H133	0.549200	0.397600	0.823100
H1341	H134	0.617500	0.494800	0.816200
C1551	C155	0.451500	0.527700	0.762670
H1351	H135	0.504400	0.507200	0.752900
C1561	C156	0.307400	0.584400	0.768170
H1361	H136	0.238500	0.611900	0.762800
C1571	C157	0.370800	0.557800	0.800780
H1371	H137	0.354800	0.563000	0.822100
C1581	C158	0.671200	0.674600	0.846080
H1381	H138	0.738500	0.647300	0.845200
H1391	H139	0.619400	0.669600	0.822700
H1401	H140	0.678900	0.750000	0.853700
C1591	C159	0.732500	0.735800	0.919950
H1411	H141	0.745900	0.743000	0.945500
H1421	H142	0.693500	0.800500	0.908600
C1601	C160	0.903800	0.654600	0.920000
H1431	H143	0.892300	0.585300	0.928100
C1611	C161	0.975300	0.786600	0.902820
H1441	H144	0.024600	0.829600	0.896500
C1621	C162	0.878600	0.819400	0.901890
H1451	H145	0.848200	0.888100	0.894800
C1631	C163	0.646500	0.619200	0.967800
H1461	H146	0.720600	0.609400	0.981000
H1471	H147	0.628500	0.695700	0.967500
H1481	H148	0.603900	0.578000	0.979100
C1641	C164	0.530100	0.417700	0.943510
H1491	H149	0.571400	0.436500	0.967900
H1501	H150	0.545100	0.341600	0.939500
C1651	C165	0.359100	0.516600	0.933610
H1511	H151	0.384000	0.586600	0.931000
C1661	C166	0.259800	0.385900	0.936540
H1521	H152	0.199800	0.345800	0.936400
C1671	C167	0.355400	0.343800	0.941520
H1531	H153	0.375100	0.270300	0.945600
C1681	C168	0.471400	0.357400	0.870480
H1541	H154	0.417200	0.353500	0.881900
H1551	H155	0.438500	0.362200	0.845000
H1561	H156	0.515100	0.292700	0.876200
Ni71	Ni7	0.679030	0.112080	0.807520
Ni81	Ni8	0.871180	0.405270	0.077570
O251	O25	0.779900	0.263900	0.078350
O261	O26	0.677800	0.145200	0.042280
O271	O27	0.938740	0.529210	0.052750
O281	O28	0.919530	0.591300	0.998660
O291	O29	0.737250	0.269280	0.803770
O301	O30	0.795890	0.416900	0.836150
O311	O31	0.632730	0.977890	0.835430
O321	O32	0.593700	0.946900	0.884760
N431	N43	0.944000	0.916300	0.822500
N441	N44	0.826000	0.042100	0.819540
N451	N45	0.643600	0.666600	0.712200
N461	N46	0.474800	0.666300	0.704460
N471	N47	0.966500	0.945000	0.674190
N481	N48	0.910100	0.051500	0.628720
N491	N49	0.823500	0.361600	0.027670
N501	N50	0.707240	0.167400	0.856090
N511	N51	0.538200	0.022100	0.703180
N521	N52	0.640700	0.065100	0.755870
N531	N53	0.166600	0.234100	0.586740
N541	N54	0.008800	0.183400	0.585860
N551	N55	0.581600	0.928200	0.560420
N561	N56	0.738200	0.995100	0.568290
C1691	C169	0.955200	0.784200	0.778060
C1701	C170	0.874100	0.711000	0.764540
C1711	C171	0.835200	0.694200	0.728210
C1721	C172	0.881300	0.744500	0.705730
C1731	C173	0.967600	0.810500	0.720000
C1741	C174	0.002800	0.834500	0.755650
C1751	C175	0.738400	0.222200	0.048750
C1761	C176	0.909000	0.522700	0.019340
C1771	C177	0.762000	0.324500	0.832150
C1781	C178	0.633200	0.001400	0.866000
C1791	C179	0.990700	0.813500	0.816230
H1571	H157	0.067800	0.819800	0.824700
H1581	H158	0.970800	0.755400	0.829800
C1801	C180	0.845000	0.949100	0.807330
H1591	H159	0.794400	0.909300	0.789800
C1811	C181	0.918000	0.069900	0.844440
H1601	H160	0.929000	0.133500	0.858300
C1821	C182	0.991200	0.993000	0.846410
H1611	H161	0.061400	0.992900	0.861500
C1831	C183	0.827100	0.652100	0.789070
H1621	H162	0.800900	0.704600	0.802500
H1631	H163	0.769300	0.606600	0.775300
H1641	H164	0.880600	0.607100	0.805300
C1841	C184	0.743800	0.618400	0.712970
H1651	H165	0.755200	0.551700	0.727200
H1661	H166	0.740600	0.598400	0.688800
C1851	C185	0.552400	0.616900	0.697560
H1671	H167	0.544400	0.553400	0.683800
C1861	C186	0.519000	0.751500	0.725300
H1681	H168	0.482700	0.801500	0.735100
C1871	C187	0.622600	0.753600	0.729900
H1691	H169	0.671400	0.805400	0.742900
C1881	C188	0.837500	0.728100	0.666240
H1701	H170	0.761200	0.733600	0.658800
H1711	H171	0.865600	0.783300	0.654300
H1721	H172	0.857500	0.656600	0.660200
C1891	C189	0.025000	0.856400	0.696140
H1731	H173	0.036300	0.798500	0.680800
H1741	H174	0.094300	0.883200	0.710700
C1901	C190	0.972400	0.971300	0.642760
H1751	H175	0.016500	0.936200	0.631800
C1911	C191	0.862000	0.079000	0.653040
H1761	H176	0.812100	0.134900	0.650400
C1921	C192	0.897000	0.014000	0.681170
H1771	H177	0.877200	0.015800	0.701900
C1931	C193	0.088700	0.915200	0.770290
H1781	H178	0.156500	0.880600	0.773800
H1791	H179	0.080300	0.975300	0.753800
H1801	H180	0.085300	0.942200	0.792800
C1941	C194	0.766000	0.273500	0.018370
C1951	C195	0.736800	0.235600	0.984390
H1811	H181	0.695600	0.172300	0.978100
C1961	C196	0.768500	0.291200	0.959310
C1971	C197	0.825600	0.385800	0.969730
H1821	H182	0.846600	0.426900	0.953200
C1981	C198	0.851600	0.419600	0.004260
C1991	C199	0.683500	0.108700	0.880280
C2001	C200	0.701500	0.147200	0.913810
H1831	H183	0.685100	0.104000	0.930900
C2011	C201	0.743800	0.249500	0.922740
C2021	C202	0.763600	0.311300	0.896370
H1841	H184	0.789500	0.382700	0.901100
C2031	C203	0.745000	0.266800	0.863370
C2041	C204	0.425500	0.016300	0.639740
C2051	C205	0.364700	0.108100	0.628230
C2061	C206	0.335700	0.138200	0.592860
C2071	C207	0.374500	0.079700	0.569470
C2081	C208	0.435200	0.988400	0.581540
C2091	C209	0.462000	0.955500	0.616680
C2101	C210	0.444400	0.977000	0.676730
H1851	H185	0.450800	0.897600	0.676900
H1861	H186	0.382500	0.994800	0.683800
C2111	C211	0.548500	0.027700	0.737330
H1871	H187	0.495600	0.007200	0.747100
C2121	C212	0.692600	0.084400	0.731830
H1881	H188	0.761500	0.111900	0.737200
C2131	C213	0.629200	0.057800	0.699220
H1891	H189	0.645200	0.063000	0.677900
C2141	C214	0.328800	0.174600	0.653920
H1901	H190	0.261500	0.147300	0.654800
H1911	H191	0.380600	0.169600	0.677300
H1921	H192	0.321100	0.250000	0.646300
C2151	C215	0.267500	0.235800	0.580050
H1931	H193	0.254100	0.243000	0.554500
H1941	H194	0.306500	0.300500	0.591400
C2161	C216	0.096200	0.154600	0.580000
H1951	H195	0.107700	0.085300	0.571900
C2171	C217	0.024700	0.286600	0.597180
H1961	H196	0.975400	0.329600	0.603500
C2181	C218	0.121400	0.319400	0.598110
H1971	H197	0.151800	0.388100	0.605200
C2191	C219	0.353500	0.119200	0.532200
H1981	H198	0.279400	0.109400	0.519000
H1991	H199	0.371500	0.195700	0.532500
H2001	H200	0.396100	0.078000	0.520900
C2201	C220	0.469900	0.917700	0.556490
H2011	H201	0.428600	0.936500	0.532100
H2021	H202	0.454900	0.841600	0.560500
C2211	C221	0.640900	0.016600	0.566390
H2031	H203	0.616000	0.086600	0.569000
C2221	C222	0.740200	0.885900	0.563460
H2041	H204	0.800200	0.845800	0.563600
C2231	C223	0.644600	0.843800	0.558480
H2051	H205	0.624900	0.770300	0.554400
C2241	C224	0.528600	0.857400	0.629520
H2061	H206	0.582800	0.853500	0.618100
H2071	H207	0.561500	0.862200	0.655000
H2081	H208	0.484900	0.792700	0.623800
