data_REGQUR_clean_PM
_symmetry_space_group_name_H-M	'P1'
_cell_length_a	17.964300
_cell_length_b	18.592400
_cell_length_c	18.592400
_cell_angle_alpha	120.000000
_cell_angle_beta	90.000000
_cell_angle_gamma	90.000000
_symmetry_Int_Tables_number 1

loop_
_symmetry_equiv_pos_as_xyz
'x,y,z'

loop_
_atom_site_label
_atom_site_type_symbol
_atom_site_fract_x
_atom_site_fract_y
_atom_site_fract_z
Zn11	Zn1	0.619330	0.099260	0.342210
Zn21	Zn2	0.619330	0.242950	0.900740
Zn31	Zn3	0.619330	0.657790	0.757050
Zn41	Zn4	0.119330	0.900740	0.657790
Zn51	Zn5	0.119330	0.757050	0.099260
Zn61	Zn6	0.119330	0.342210	0.242950
Zn71	Zn7	0.119330	0.242950	0.342210
Zn81	Zn8	0.119330	0.657790	0.900740
Zn91	Zn9	0.119330	0.099260	0.757050
Zn101	Zn10	0.619330	0.757050	0.657790
Zn111	Zn11	0.619330	0.342210	0.099260
Zn121	Zn12	0.619330	0.900740	0.242950
Zn131	Zn13	0.276540	0.344150	0.344150
Zn141	Zn14	0.276540	0.000000	0.655850
Zn151	Zn15	0.276540	0.655850	0.000000
Zn161	Zn16	0.776540	0.655850	0.655850
Zn171	Zn17	0.776540	0.000000	0.344150
Zn181	Zn18	0.776540	0.344150	0.000000
H11	H1	0.582800	0.201200	0.646600
H21	H2	0.397100	0.123600	0.292900
H31	H3	0.582800	0.445400	0.798800
H41	H4	0.397100	0.169300	0.876400
H51	H5	0.582800	0.353400	0.554600
H61	H6	0.397100	0.707100	0.830700
H71	H7	0.082800	0.798800	0.353400
H81	H8	0.897100	0.876400	0.707100
H91	H9	0.082800	0.554600	0.201200
H101	H10	0.897100	0.830700	0.123600
H111	H11	0.082800	0.646600	0.445400
H121	H12	0.897100	0.292900	0.169300
H131	H13	0.082800	0.445400	0.646600
H141	H14	0.897100	0.169300	0.292900
H151	H15	0.082800	0.353400	0.798800
H161	H16	0.897100	0.707100	0.876400
H171	H17	0.082800	0.201200	0.554600
H181	H18	0.897100	0.123600	0.830700
H191	H19	0.582800	0.554600	0.353400
H201	H20	0.397100	0.830700	0.707100
H211	H21	0.582800	0.646600	0.201200
H221	H22	0.397100	0.292900	0.123600
H231	H23	0.582800	0.798800	0.445400
H241	H24	0.397100	0.876400	0.169300
H251	H25	0.206100	0.000000	0.195700
H261	H26	0.206100	0.195700	0.000000
H271	H27	0.206100	0.804300	0.804300
H281	H28	0.706100	0.000000	0.804300
H291	H29	0.706100	0.804300	0.000000
H301	H30	0.706100	0.195700	0.195700
C11	C1	0.588300	0.191900	0.498800
C21	C2	0.587100	0.266900	0.587000
C31	C3	0.585300	0.254900	0.655100
C41	C4	0.254200	0.155400	0.277400
C51	C5	0.295200	0.074000	0.242600
C61	C6	0.372100	0.073900	0.259600
C71	C7	0.588300	0.306900	0.808100
C81	C8	0.587100	0.320100	0.733100
C91	C9	0.585300	0.400200	0.745100
C101	C10	0.254200	0.122000	0.844600
C111	C11	0.295200	0.168600	0.926000
C121	C12	0.372100	0.185700	0.926100
C131	C13	0.588300	0.501200	0.693100
C141	C14	0.587100	0.413000	0.679900
C151	C15	0.585300	0.344900	0.599800
C161	C16	0.254200	0.722600	0.878000
C171	C17	0.295200	0.757400	0.831400
C181	C18	0.372100	0.740400	0.814300
C191	C19	0.088300	0.808100	0.501200
C201	C20	0.087100	0.733100	0.413000
C211	C21	0.085300	0.745100	0.344900
C221	C22	0.754200	0.844600	0.722600
C231	C23	0.795200	0.926000	0.757400
C241	C24	0.872100	0.926100	0.740400
C251	C25	0.088300	0.693100	0.191900
C261	C26	0.087100	0.679900	0.266900
C271	C27	0.085300	0.599800	0.254900
C281	C28	0.754200	0.878000	0.155400
C291	C29	0.795200	0.831400	0.074000
C301	C30	0.872100	0.814300	0.073900
C311	C31	0.088300	0.498800	0.306900
C321	C32	0.087100	0.587000	0.320100
C331	C33	0.085300	0.655100	0.400200
C341	C34	0.754200	0.277400	0.122000
C351	C35	0.795200	0.242600	0.168600
C361	C36	0.872100	0.259600	0.185700
C371	C37	0.088300	0.306900	0.498800
C381	C38	0.087100	0.320100	0.587000
C391	C39	0.085300	0.400200	0.655100
C401	C40	0.754200	0.122000	0.277400
C411	C41	0.795200	0.168600	0.242600
C421	C42	0.872100	0.185700	0.259600
C431	C43	0.088300	0.501200	0.808100
C441	C44	0.087100	0.413000	0.733100
C451	C45	0.085300	0.344900	0.745100
C461	C46	0.754200	0.722600	0.844600
C471	C47	0.795200	0.757400	0.926000
C481	C48	0.872100	0.740400	0.926100
C491	C49	0.088300	0.191900	0.693100
C501	C50	0.087100	0.266900	0.679900
C511	C51	0.085300	0.254900	0.599800
C521	C52	0.754200	0.155400	0.878000
C531	C53	0.795200	0.074000	0.831400
C541	C54	0.872100	0.073900	0.814300
C551	C55	0.588300	0.693100	0.501200
C561	C56	0.587100	0.679900	0.413000
C571	C57	0.585300	0.599800	0.344900
C581	C58	0.254200	0.878000	0.722600
C591	C59	0.295200	0.831400	0.757400
C601	C60	0.372100	0.814300	0.740400
C611	C61	0.588300	0.498800	0.191900
C621	C62	0.587100	0.587000	0.266900
C631	C63	0.585300	0.655100	0.254900
C641	C64	0.254200	0.277400	0.155400
C651	C65	0.295200	0.242600	0.074000
C661	C66	0.372100	0.259600	0.073900
C671	C67	0.588300	0.808100	0.306900
C681	C68	0.587100	0.733100	0.320100
C691	C69	0.585300	0.745100	0.400200
C701	C70	0.254200	0.844600	0.122000
C711	C71	0.295200	0.926000	0.168600
C721	C72	0.372100	0.926100	0.185700
C731	C73	0.408900	0.000000	0.226700
C741	C74	0.491800	0.000000	0.247200
C751	C75	0.257500	0.000000	0.201400
C761	C76	0.408900	0.226700	0.000000
C771	C77	0.491800	0.247200	0.000000
C781	C78	0.257500	0.201400	0.000000
C791	C79	0.408900	0.773300	0.773300
C801	C80	0.491800	0.752800	0.752800
C811	C81	0.257500	0.798600	0.798600
C821	C82	0.908900	0.000000	0.773300
C831	C83	0.991800	0.000000	0.752800
C841	C84	0.757500	0.000000	0.798600
C851	C85	0.908900	0.773300	0.000000
C861	C86	0.991800	0.752800	0.000000
C871	C87	0.757500	0.798600	0.000000
C881	C88	0.908900	0.226700	0.226700
C891	C89	0.991800	0.247200	0.247200
C901	C90	0.757500	0.201400	0.201400
O11	O1	0.609100	0.207400	0.443600
O21	O2	0.575100	0.124100	0.486100
O31	O3	0.289600	0.220400	0.310400
O41	O4	0.184500	0.151200	0.273700
O51	O5	0.521100	0.068300	0.286500
O61	O6	0.609100	0.236200	0.792600
O71	O7	0.575100	0.362000	0.875900
O81	O8	0.289600	0.090000	0.779600
O91	O9	0.184500	0.122500	0.848800
O101	O10	0.521100	0.218200	0.931700
O111	O11	0.609100	0.556400	0.763800
O121	O12	0.575100	0.513900	0.638000
O131	O13	0.289600	0.689600	0.910000
O141	O14	0.184500	0.726300	0.877500
O151	O15	0.521100	0.713500	0.781800
O161	O16	0.109100	0.792600	0.556400
O171	O17	0.075100	0.875900	0.513900
O181	O18	0.789600	0.779600	0.689600
O191	O19	0.684500	0.848800	0.726300
O201	O20	0.021100	0.931700	0.713500
O211	O21	0.109100	0.763800	0.207400
O221	O22	0.075100	0.638000	0.124100
O231	O23	0.789600	0.910000	0.220400
O241	O24	0.684500	0.877500	0.151200
O251	O25	0.021100	0.781800	0.068300
O261	O26	0.109100	0.443600	0.236200
O271	O27	0.075100	0.486100	0.362000
O281	O28	0.789600	0.310400	0.090000
O291	O29	0.684500	0.273700	0.122500
O301	O30	0.021100	0.286500	0.218200
O311	O31	0.109100	0.236200	0.443600
O321	O32	0.075100	0.362000	0.486100
O331	O33	0.789600	0.090000	0.310400
O341	O34	0.684500	0.122500	0.273700
O351	O35	0.021100	0.218200	0.286500
O361	O36	0.109100	0.556400	0.792600
O371	O37	0.075100	0.513900	0.875900
O381	O38	0.789600	0.689600	0.779600
O391	O39	0.684500	0.726300	0.848800
O401	O40	0.021100	0.713500	0.931700
O411	O41	0.109100	0.207400	0.763800
O421	O42	0.075100	0.124100	0.638000
O431	O43	0.789600	0.220400	0.910000
O441	O44	0.684500	0.151200	0.877500
O451	O45	0.021100	0.068300	0.781800
O461	O46	0.609100	0.763800	0.556400
O471	O47	0.575100	0.638000	0.513900
O481	O48	0.289600	0.910000	0.689600
O491	O49	0.184500	0.877500	0.726300
O501	O50	0.521100	0.781800	0.713500
O511	O51	0.609100	0.443600	0.207400
O521	O52	0.575100	0.486100	0.124100
O531	O53	0.289600	0.310400	0.220400
O541	O54	0.184500	0.273700	0.151200
O551	O55	0.521100	0.286500	0.068300
O561	O56	0.609100	0.792600	0.236200
O571	O57	0.575100	0.875900	0.362000
O581	O58	0.289600	0.779600	0.090000
O591	O59	0.184500	0.848800	0.122500
O601	O60	0.521100	0.931700	0.218200
O611	O61	0.662000	0.000000	0.339600
O621	O62	0.662000	0.339600	0.000000
O631	O63	0.662000	0.660400	0.660400
O641	O64	0.162000	0.000000	0.660400
O651	O65	0.162000	0.660400	0.000000
O661	O66	0.162000	0.339600	0.339600
