data_REHVAD_clean_PM
_symmetry_space_group_name_H-M	'P1'
_cell_length_a	20.570000
_cell_length_b	9.901000
_cell_length_c	27.211000
_cell_angle_alpha	90.000000
_cell_angle_beta	108.526000
_cell_angle_gamma	90.000000
_symmetry_Int_Tables_number 1

loop_
_symmetry_equiv_pos_as_xyz
'x,y,z'

loop_
_atom_site_label
_atom_site_type_symbol
_atom_site_fract_x
_atom_site_fract_y
_atom_site_fract_z
Co11	Co1	0.136100	0.555920	0.174280
O11	O1	0.046720	0.687490	0.161980
O21	O2	0.143980	0.787870	0.169520
O31	O3	0.059040	0.409610	0.166690
O41	O4	0.156030	0.299030	0.180860
N11	N1	0.746730	0.062510	0.188400
N21	N2	0.149460	0.565740	0.256290
N31	N3	0.123190	0.467500	0.592990
C11	C1	0.952850	0.054800	0.179350
C21	C2	0.983750	0.931600	0.174660
H11	H1	0.959800	0.849600	0.174800
C31	C3	0.049350	0.927500	0.169790
C41	C4	0.085200	0.047100	0.170270
H21	H2	0.130300	0.044200	0.168000
C51	C5	0.055050	0.171100	0.174060
C61	C6	0.989210	0.174200	0.178830
H31	H3	0.968900	0.258600	0.181800
C71	C7	0.787480	0.954600	0.203780
H41	H4	0.769800	0.878500	0.216600
C81	C8	0.854290	0.948000	0.201960
H51	H5	0.880600	0.868200	0.212800
C91	C9	0.882660	0.058800	0.184140
C101	C10	0.841040	0.172600	0.170310
H61	H6	0.858000	0.251800	0.158900
C111	C11	0.774820	0.170900	0.173120
H71	H7	0.747900	0.250400	0.163800
C121	C12	0.156910	0.558700	0.415790
H81	H8	0.197600	0.590200	0.441000
C131	C13	0.207940	0.588300	0.294840
H91	H9	0.248500	0.604700	0.286200
C141	C14	0.212020	0.589000	0.346780
H101	H10	0.254700	0.605400	0.372700
C151	C15	0.153380	0.565500	0.360920
C161	C16	0.091980	0.547000	0.320680
H111	H11	0.050200	0.534700	0.328000
C171	C17	0.092570	0.547000	0.270110
H121	H12	0.050300	0.532900	0.243400
C181	C18	0.106770	0.511100	0.432610
H131	H13	0.065400	0.482400	0.407400
C191	C19	0.081800	0.793300	0.166450
C201	C20	0.078500	0.395000	0.555800
H141	H14	0.050600	0.331000	0.565700
C211	C21	0.070900	0.408600	0.503350
H151	H15	0.038100	0.355600	0.478400
C221	C22	0.111750	0.500600	0.487720
C231	C23	0.156970	0.578300	0.526360
H161	H16	0.184900	0.644300	0.517500
C241	C24	0.161050	0.559300	0.577500
H171	H17	0.192200	0.613600	0.603100
C251	C25	0.093190	0.301100	0.173920
Co21	Co2	0.636100	0.055920	0.174280
O51	O5	0.546720	0.187490	0.161980
O61	O6	0.643980	0.287870	0.169520
O71	O7	0.559040	0.909610	0.166690
O81	O8	0.656030	0.799030	0.180860
N41	N4	0.246730	0.562510	0.188400
N51	N5	0.649460	0.065740	0.256290
N61	N6	0.623190	0.967500	0.592990
C261	C26	0.452850	0.554800	0.179350
C271	C27	0.483750	0.431600	0.174660
H181	H18	0.459800	0.349600	0.174800
C281	C28	0.549350	0.427500	0.169790
C291	C29	0.585200	0.547100	0.170270
H191	H19	0.630300	0.544200	0.168000
C301	C30	0.555050	0.671100	0.174060
C311	C31	0.489210	0.674200	0.178830
H201	H20	0.468900	0.758600	0.181800
C321	C32	0.287480	0.454600	0.203780
H211	H21	0.269800	0.378500	0.216600
C331	C33	0.354290	0.448000	0.201960
H221	H22	0.380600	0.368200	0.212800
C341	C34	0.382660	0.558800	0.184140
C351	C35	0.341040	0.672600	0.170310
H231	H23	0.358000	0.751800	0.158900
C361	C36	0.274820	0.670900	0.173120
H241	H24	0.247900	0.750400	0.163800
C371	C37	0.656910	0.058700	0.415790
H251	H25	0.697600	0.090200	0.441000
C381	C38	0.707940	0.088300	0.294840
H261	H26	0.748500	0.104700	0.286200
C391	C39	0.712020	0.089000	0.346780
H271	H27	0.754700	0.105400	0.372700
C401	C40	0.653380	0.065500	0.360920
C411	C41	0.591980	0.047000	0.320680
H281	H28	0.550200	0.034700	0.328000
C421	C42	0.592570	0.047000	0.270110
H291	H29	0.550300	0.032900	0.243400
C431	C43	0.606770	0.011100	0.432610
H301	H30	0.565400	0.982400	0.407400
C441	C44	0.581800	0.293300	0.166450
C451	C45	0.578500	0.895000	0.555800
H311	H31	0.550600	0.831000	0.565700
C461	C46	0.570900	0.908600	0.503350
H321	H32	0.538100	0.855600	0.478400
C471	C47	0.611750	0.000600	0.487720
C481	C48	0.656970	0.078300	0.526360
H331	H33	0.684900	0.144300	0.517500
C491	C49	0.661050	0.059300	0.577500
H341	H34	0.692200	0.113600	0.603100
C501	C50	0.593190	0.801100	0.173920
Co31	Co3	0.136100	0.444080	0.674280
O91	O9	0.046720	0.312510	0.661980
O101	O10	0.143980	0.212130	0.669520
O111	O11	0.059040	0.590390	0.666690
O121	O12	0.156030	0.700970	0.680860
N71	N7	0.746730	0.937490	0.688400
N81	N8	0.149460	0.434260	0.756290
N91	N9	0.123190	0.532500	0.092990
C511	C51	0.952850	0.945200	0.679350
C521	C52	0.983750	0.068400	0.674660
H351	H35	0.959800	0.150400	0.674800
C531	C53	0.049350	0.072500	0.669790
C541	C54	0.085200	0.952900	0.670270
H361	H36	0.130300	0.955800	0.668000
C551	C55	0.055050	0.828900	0.674060
C561	C56	0.989210	0.825800	0.678830
H371	H37	0.968900	0.741400	0.681800
C571	C57	0.787480	0.045400	0.703780
H381	H38	0.769800	0.121500	0.716600
C581	C58	0.854290	0.052000	0.701960
H391	H39	0.880600	0.131800	0.712800
C591	C59	0.882660	0.941200	0.684140
C601	C60	0.841040	0.827400	0.670310
H401	H40	0.858000	0.748200	0.658900
C611	C61	0.774820	0.829100	0.673120
H411	H41	0.747900	0.749600	0.663800
C621	C62	0.156910	0.441300	0.915790
H421	H42	0.197600	0.409800	0.941000
C631	C63	0.207940	0.411700	0.794840
H431	H43	0.248500	0.395300	0.786200
C641	C64	0.212020	0.411000	0.846780
H441	H44	0.254700	0.394600	0.872700
C651	C65	0.153380	0.434500	0.860920
C661	C66	0.091980	0.453000	0.820680
H451	H45	0.050200	0.465300	0.828000
C671	C67	0.092570	0.453000	0.770110
H461	H46	0.050300	0.467100	0.743400
C681	C68	0.106770	0.488900	0.932610
H471	H47	0.065400	0.517600	0.907400
C691	C69	0.081800	0.206700	0.666450
C701	C70	0.078500	0.605000	0.055800
H481	H48	0.050600	0.669000	0.065700
C711	C71	0.070900	0.591400	0.003350
H491	H49	0.038100	0.644400	0.978400
C721	C72	0.111750	0.499400	0.987720
C731	C73	0.156970	0.421700	0.026360
H501	H50	0.184900	0.355700	0.017500
C741	C74	0.161050	0.440700	0.077500
H511	H51	0.192200	0.386400	0.103100
C751	C75	0.093190	0.698900	0.673920
Co41	Co4	0.636100	0.944080	0.674280
O131	O13	0.546720	0.812510	0.661980
O141	O14	0.643980	0.712130	0.669520
O151	O15	0.559040	0.090390	0.666690
O161	O16	0.656030	0.200970	0.680860
N101	N10	0.246730	0.437490	0.688400
N111	N11	0.649460	0.934260	0.756290
N121	N12	0.623190	0.032500	0.092990
C761	C76	0.452850	0.445200	0.679350
C771	C77	0.483750	0.568400	0.674660
H521	H52	0.459800	0.650400	0.674800
C781	C78	0.549350	0.572500	0.669790
C791	C79	0.585200	0.452900	0.670270
H531	H53	0.630300	0.455800	0.668000
C801	C80	0.555050	0.328900	0.674060
C811	C81	0.489210	0.325800	0.678830
H541	H54	0.468900	0.241400	0.681800
C821	C82	0.287480	0.545400	0.703780
H551	H55	0.269800	0.621500	0.716600
C831	C83	0.354290	0.552000	0.701960
H561	H56	0.380600	0.631800	0.712800
C841	C84	0.382660	0.441200	0.684140
C851	C85	0.341040	0.327400	0.670310
H571	H57	0.358000	0.248200	0.658900
C861	C86	0.274820	0.329100	0.673120
H581	H58	0.247900	0.249600	0.663800
C871	C87	0.656910	0.941300	0.915790
H591	H59	0.697600	0.909800	0.941000
C881	C88	0.707940	0.911700	0.794840
H601	H60	0.748500	0.895300	0.786200
C891	C89	0.712020	0.911000	0.846780
H611	H61	0.754700	0.894600	0.872700
C901	C90	0.653380	0.934500	0.860920
C911	C91	0.591980	0.953000	0.820680
H621	H62	0.550200	0.965300	0.828000
C921	C92	0.592570	0.953000	0.770110
H631	H63	0.550300	0.967100	0.743400
C931	C93	0.606770	0.988900	0.932610
H641	H64	0.565400	0.017600	0.907400
C941	C94	0.581800	0.706700	0.666450
C951	C95	0.578500	0.105000	0.055800
H651	H65	0.550600	0.169000	0.065700
C961	C96	0.570900	0.091400	0.003350
H661	H66	0.538100	0.144400	0.978400
C971	C97	0.611750	0.999400	0.987720
C981	C98	0.656970	0.921700	0.026360
H671	H67	0.684900	0.855700	0.017500
C991	C99	0.661050	0.940700	0.077500
H681	H68	0.692200	0.886400	0.103100
C1001	C100	0.593190	0.198900	0.673920
Co51	Co5	0.863900	0.555920	0.325720
O171	O17	0.953280	0.687490	0.338020
O181	O18	0.856020	0.787870	0.330480
O191	O19	0.940960	0.409610	0.333310
O201	O20	0.843970	0.299030	0.319140
N131	N13	0.253270	0.062510	0.311600
N141	N14	0.850540	0.565740	0.243710
N151	N15	0.876810	0.467500	0.907010
C1011	C101	0.047150	0.054800	0.320650
C1021	C102	0.016250	0.931600	0.325340
H691	H69	0.040200	0.849600	0.325200
C1031	C103	0.950650	0.927500	0.330210
C1041	C104	0.914800	0.047100	0.329730
H701	H70	0.869700	0.044200	0.332000
C1051	C105	0.944950	0.171100	0.325940
C1061	C106	0.010790	0.174200	0.321170
H711	H71	0.031100	0.258600	0.318200
C1071	C107	0.212520	0.954600	0.296220
H721	H72	0.230200	0.878500	0.283400
C1081	C108	0.145710	0.948000	0.298040
H731	H73	0.119400	0.868200	0.287200
C1091	C109	0.117340	0.058800	0.315860
C1101	C110	0.158960	0.172600	0.329690
H741	H74	0.142000	0.251800	0.341100
C1111	C111	0.225180	0.170900	0.326880
H751	H75	0.252100	0.250400	0.336200
C1121	C112	0.843090	0.558700	0.084210
H761	H76	0.802400	0.590200	0.059000
C1131	C113	0.792060	0.588300	0.205160
H771	H77	0.751500	0.604700	0.213800
C1141	C114	0.787980	0.589000	0.153220
H781	H78	0.745300	0.605400	0.127300
C1151	C115	0.846620	0.565500	0.139080
C1161	C116	0.908020	0.547000	0.179320
H791	H79	0.949800	0.534700	0.172000
C1171	C117	0.907430	0.547000	0.229890
H801	H80	0.949700	0.532900	0.256600
C1181	C118	0.893230	0.511100	0.067390
H811	H81	0.934600	0.482400	0.092600
C1191	C119	0.918200	0.793300	0.333550
C1201	C120	0.921500	0.395000	0.944200
H821	H82	0.949400	0.331000	0.934300
C1211	C121	0.929100	0.408600	0.996650
H831	H83	0.961900	0.355600	0.021600
C1221	C122	0.888250	0.500600	0.012280
C1231	C123	0.843030	0.578300	0.973640
H841	H84	0.815100	0.644300	0.982500
C1241	C124	0.838950	0.559300	0.922500
H851	H85	0.807800	0.613600	0.896900
C1251	C125	0.906810	0.301100	0.326080
Co61	Co6	0.363900	0.055920	0.325720
O211	O21	0.453280	0.187490	0.338020
O221	O22	0.356020	0.287870	0.330480
O231	O23	0.440960	0.909610	0.333310
O241	O24	0.343970	0.799030	0.319140
N161	N16	0.753270	0.562510	0.311600
N171	N17	0.350540	0.065740	0.243710
N181	N18	0.376810	0.967500	0.907010
C1261	C126	0.547150	0.554800	0.320650
C1271	C127	0.516250	0.431600	0.325340
H861	H86	0.540200	0.349600	0.325200
C1281	C128	0.450650	0.427500	0.330210
C1291	C129	0.414800	0.547100	0.329730
H871	H87	0.369700	0.544200	0.332000
C1301	C130	0.444950	0.671100	0.325940
C1311	C131	0.510790	0.674200	0.321170
H881	H88	0.531100	0.758600	0.318200
C1321	C132	0.712520	0.454600	0.296220
H891	H89	0.730200	0.378500	0.283400
C1331	C133	0.645710	0.448000	0.298040
H901	H90	0.619400	0.368200	0.287200
C1341	C134	0.617340	0.558800	0.315860
C1351	C135	0.658960	0.672600	0.329690
H911	H91	0.642000	0.751800	0.341100
C1361	C136	0.725180	0.670900	0.326880
H921	H92	0.752100	0.750400	0.336200
C1371	C137	0.343090	0.058700	0.084210
H931	H93	0.302400	0.090200	0.059000
C1381	C138	0.292060	0.088300	0.205160
H941	H94	0.251500	0.104700	0.213800
C1391	C139	0.287980	0.089000	0.153220
H951	H95	0.245300	0.105400	0.127300
C1401	C140	0.346620	0.065500	0.139080
C1411	C141	0.408020	0.047000	0.179320
H961	H96	0.449800	0.034700	0.172000
C1421	C142	0.407430	0.047000	0.229890
H971	H97	0.449700	0.032900	0.256600
C1431	C143	0.393230	0.011100	0.067390
H981	H98	0.434600	0.982400	0.092600
C1441	C144	0.418200	0.293300	0.333550
C1451	C145	0.421500	0.895000	0.944200
H991	H99	0.449400	0.831000	0.934300
C1461	C146	0.429100	0.908600	0.996650
H1001	H100	0.461900	0.855600	0.021600
C1471	C147	0.388250	0.000600	0.012280
C1481	C148	0.343030	0.078300	0.973640
H1011	H101	0.315100	0.144300	0.982500
C1491	C149	0.338950	0.059300	0.922500
H1021	H102	0.307800	0.113600	0.896900
C1501	C150	0.406810	0.801100	0.326080
Co71	Co7	0.863900	0.444080	0.825720
O251	O25	0.953280	0.312510	0.838020
O261	O26	0.856020	0.212130	0.830480
O271	O27	0.940960	0.590390	0.833310
O281	O28	0.843970	0.700970	0.819140
N191	N19	0.253270	0.937490	0.811600
N201	N20	0.850540	0.434260	0.743710
N211	N21	0.876810	0.532500	0.407010
C1511	C151	0.047150	0.945200	0.820650
C1521	C152	0.016250	0.068400	0.825340
H1031	H103	0.040200	0.150400	0.825200
C1531	C153	0.950650	0.072500	0.830210
C1541	C154	0.914800	0.952900	0.829730
H1041	H104	0.869700	0.955800	0.832000
C1551	C155	0.944950	0.828900	0.825940
C1561	C156	0.010790	0.825800	0.821170
H1051	H105	0.031100	0.741400	0.818200
C1571	C157	0.212520	0.045400	0.796220
H1061	H106	0.230200	0.121500	0.783400
C1581	C158	0.145710	0.052000	0.798040
H1071	H107	0.119400	0.131800	0.787200
C1591	C159	0.117340	0.941200	0.815860
C1601	C160	0.158960	0.827400	0.829690
H1081	H108	0.142000	0.748200	0.841100
C1611	C161	0.225180	0.829100	0.826880
H1091	H109	0.252100	0.749600	0.836200
C1621	C162	0.843090	0.441300	0.584210
H1101	H110	0.802400	0.409800	0.559000
C1631	C163	0.792060	0.411700	0.705160
H1111	H111	0.751500	0.395300	0.713800
C1641	C164	0.787980	0.411000	0.653220
H1121	H112	0.745300	0.394600	0.627300
C1651	C165	0.846620	0.434500	0.639080
C1661	C166	0.908020	0.453000	0.679320
H1131	H113	0.949800	0.465300	0.672000
C1671	C167	0.907430	0.453000	0.729890
H1141	H114	0.949700	0.467100	0.756600
C1681	C168	0.893230	0.488900	0.567390
H1151	H115	0.934600	0.517600	0.592600
C1691	C169	0.918200	0.206700	0.833550
C1701	C170	0.921500	0.605000	0.444200
H1161	H116	0.949400	0.669000	0.434300
C1711	C171	0.929100	0.591400	0.496650
H1171	H117	0.961900	0.644400	0.521600
C1721	C172	0.888250	0.499400	0.512280
C1731	C173	0.843030	0.421700	0.473640
H1181	H118	0.815100	0.355700	0.482500
C1741	C174	0.838950	0.440700	0.422500
H1191	H119	0.807800	0.386400	0.396900
C1751	C175	0.906810	0.698900	0.826080
Co81	Co8	0.363900	0.944080	0.825720
O291	O29	0.453280	0.812510	0.838020
O301	O30	0.356020	0.712130	0.830480
O311	O31	0.440960	0.090390	0.833310
O321	O32	0.343970	0.200970	0.819140
N221	N22	0.753270	0.437490	0.811600
N231	N23	0.350540	0.934260	0.743710
N241	N24	0.376810	0.032500	0.407010
C1761	C176	0.547150	0.445200	0.820650
C1771	C177	0.516250	0.568400	0.825340
H1201	H120	0.540200	0.650400	0.825200
C1781	C178	0.450650	0.572500	0.830210
C1791	C179	0.414800	0.452900	0.829730
H1211	H121	0.369700	0.455800	0.832000
C1801	C180	0.444950	0.328900	0.825940
C1811	C181	0.510790	0.325800	0.821170
H1221	H122	0.531100	0.241400	0.818200
C1821	C182	0.712520	0.545400	0.796220
H1231	H123	0.730200	0.621500	0.783400
C1831	C183	0.645710	0.552000	0.798040
H1241	H124	0.619400	0.631800	0.787200
C1841	C184	0.617340	0.441200	0.815860
C1851	C185	0.658960	0.327400	0.829690
H1251	H125	0.642000	0.248200	0.841100
C1861	C186	0.725180	0.329100	0.826880
H1261	H126	0.752100	0.249600	0.836200
C1871	C187	0.343090	0.941300	0.584210
H1271	H127	0.302400	0.909800	0.559000
C1881	C188	0.292060	0.911700	0.705160
H1281	H128	0.251500	0.895300	0.713800
C1891	C189	0.287980	0.911000	0.653220
H1291	H129	0.245300	0.894600	0.627300
C1901	C190	0.346620	0.934500	0.639080
C1911	C191	0.408020	0.953000	0.679320
H1301	H130	0.449800	0.965300	0.672000
C1921	C192	0.407430	0.953000	0.729890
H1311	H131	0.449700	0.967100	0.756600
C1931	C193	0.393230	0.988900	0.567390
H1321	H132	0.434600	0.017600	0.592600
C1941	C194	0.418200	0.706700	0.833550
C1951	C195	0.421500	0.105000	0.444200
H1331	H133	0.449400	0.169000	0.434300
C1961	C196	0.429100	0.091400	0.496650
H1341	H134	0.461900	0.144400	0.521600
C1971	C197	0.388250	0.999400	0.512280
C1981	C198	0.343030	0.921700	0.473640
H1351	H135	0.315100	0.855700	0.482500
C1991	C199	0.338950	0.940700	0.422500
H1361	H136	0.307800	0.886400	0.396900
C2001	C200	0.406810	0.198900	0.826080
