data_REKCUG_clean_PM
_symmetry_space_group_name_H-M	'P1'
_cell_length_a	8.988400
_cell_length_b	10.326000
_cell_length_c	11.917000
_cell_angle_alpha	66.980000
_cell_angle_beta	89.010000
_cell_angle_gamma	78.980000
_symmetry_Int_Tables_number 1

loop_
_symmetry_equiv_pos_as_xyz
'x,y,z'

loop_
_atom_site_label
_atom_site_type_symbol
_atom_site_fract_x
_atom_site_fract_y
_atom_site_fract_z
Zn11	Zn1	0.889800	0.004570	0.762250
Zn21	Zn2	0.410680	0.028320	0.648620
Zn31	Zn3	0.867890	0.632740	0.072220
P11	P1	0.615450	0.854920	0.885580
H11	H1	0.517000	0.895000	0.952000
P21	P2	0.676440	0.142510	0.510470
H21	H2	0.681000	0.260000	0.404000
P31	P3	0.155280	0.145480	0.801710
H31	H3	0.233000	0.044000	0.901000
P41	P4	0.110620	0.695850	0.867680
H41	H4	0.252000	0.724000	0.874000
O11	O1	0.718900	0.961200	0.858200
O21	O2	0.817900	0.120500	0.589900
O31	O3	0.993400	0.124500	0.806200
O41	O4	0.017600	0.827600	0.766800
O51	O5	0.528100	0.863700	0.774600
O61	O6	0.528300	0.177500	0.565900
O71	O7	0.682800	0.015400	0.475800
O81	O8	0.231000	0.128900	0.692100
O91	O9	0.692300	0.700900	0.957700
O101	O10	0.125500	0.570100	0.831700
O111	O11	0.164600	0.290400	0.802500
O121	O12	0.057300	0.668100	0.995000
Zn41	Zn4	0.110200	0.995430	0.237750
Zn51	Zn5	0.589320	0.971680	0.351380
Zn61	Zn6	0.132110	0.367260	0.927780
P51	P5	0.384550	0.145080	0.114420
H51	H5	0.483000	0.105000	0.048000
P61	P6	0.323560	0.857490	0.489530
H61	H6	0.319000	0.740000	0.596000
P71	P7	0.844720	0.854520	0.198290
H71	H7	0.767000	0.956000	0.099000
P81	P8	0.889380	0.304150	0.132320
H81	H8	0.748000	0.276000	0.126000
O131	O13	0.281100	0.038800	0.141800
O141	O14	0.182100	0.879500	0.410100
O151	O15	0.006600	0.875500	0.193800
O161	O16	0.982400	0.172400	0.233200
O171	O17	0.471900	0.136300	0.225400
O181	O18	0.471700	0.822500	0.434100
O191	O19	0.317200	0.984600	0.524200
O201	O20	0.769000	0.871100	0.307900
O211	O21	0.307700	0.299100	0.042300
O221	O22	0.874500	0.429900	0.168300
O231	O23	0.835400	0.709600	0.197500
O241	O24	0.942700	0.331900	0.005000
