data_RENWEM_clean_PM
_symmetry_space_group_name_H-M	'P1'
_cell_length_a	8.132000
_cell_length_b	13.224000
_cell_length_c	7.537000
_cell_angle_alpha	90.000000
_cell_angle_beta	115.310000
_cell_angle_gamma	90.000000
_symmetry_Int_Tables_number 1

loop_
_symmetry_equiv_pos_as_xyz
'x,y,z'

loop_
_atom_site_label
_atom_site_type_symbol
_atom_site_fract_x
_atom_site_fract_y
_atom_site_fract_z
Co11	Co1	0.500000	0.639330	0.500000
O11	O1	0.471200	0.491800	0.388800
O21	O2	0.332700	0.379100	0.153500
O31	O3	0.277900	0.676900	0.241900
O41	O4	0.987600	0.707800	0.057800
C11	C1	0.331100	0.447700	0.270600
C21	C2	0.148200	0.466700	0.266300
C31	C3	0.054700	0.552500	0.221600
C41	C4	0.114600	0.652300	0.172000
Co21	Co2	0.000000	0.139330	0.500000
O51	O5	0.971200	0.991800	0.388800
O61	O6	0.832700	0.879100	0.153500
O71	O7	0.777900	0.176900	0.241900
O81	O8	0.487600	0.207800	0.057800
C51	C5	0.831100	0.947700	0.270600
C61	C6	0.648200	0.966700	0.266300
C71	C7	0.554700	0.052500	0.221600
C81	C8	0.614600	0.152300	0.172000
Co31	Co3	0.500000	0.360670	0.000000
O91	O9	0.471200	0.508200	0.888800
O101	O10	0.332700	0.620900	0.653500
O111	O11	0.277900	0.323100	0.741900
O121	O12	0.987600	0.292200	0.557800
C91	C9	0.331100	0.552300	0.770600
C101	C10	0.148200	0.533300	0.766300
C111	C11	0.054700	0.447500	0.721600
C121	C12	0.114600	0.347700	0.672000
Co41	Co4	0.000000	0.860670	0.000000
O131	O13	0.971200	0.008200	0.888800
O141	O14	0.832700	0.120900	0.653500
O151	O15	0.777900	0.823100	0.741900
O161	O16	0.487600	0.792200	0.557800
C131	C13	0.831100	0.052300	0.770600
C141	C14	0.648200	0.033300	0.766300
C151	C15	0.554700	0.947500	0.721600
C161	C16	0.614600	0.847700	0.672000
