data_RENWEM01_clean_PM
_symmetry_space_group_name_H-M	'P1'
_cell_length_a	7.497000
_cell_length_b	7.737600
_cell_length_c	7.737600
_cell_angle_alpha	116.720000
_cell_angle_beta	102.892000
_cell_angle_gamma	102.892000
_symmetry_Int_Tables_number 1

loop_
_symmetry_equiv_pos_as_xyz
'x,y,z'

loop_
_atom_site_label
_atom_site_type_symbol
_atom_site_fract_x
_atom_site_fract_y
_atom_site_fract_z
Co11	Co1	0.499580	0.858370	0.137120
Co21	Co2	0.999580	0.137120	0.858370
H11	H1	0.276800	0.682000	0.475200
H21	H2	0.219100	0.387300	0.494900
H31	H3	0.776800	0.475200	0.682000
H41	H4	0.719100	0.494900	0.387300
C11	C1	0.269300	0.880610	0.776590
C21	C2	0.264800	0.678790	0.612810
C31	C3	0.220600	0.499050	0.605150
C41	C4	0.171200	0.461140	0.763860
C51	C5	0.769300	0.776590	0.880610
C61	C6	0.764800	0.612810	0.678790
C71	C7	0.720600	0.605150	0.499050
C81	C8	0.671200	0.763860	0.461140
O11	O1	0.388100	0.976480	0.960720
O21	O2	0.152700	0.950600	0.709200
O31	O3	0.240700	0.599570	0.952830
O41	O4	0.057800	0.277270	0.692730
O51	O5	0.888100	0.960720	0.976480
O61	O6	0.652700	0.709200	0.950600
O71	O7	0.740700	0.952830	0.599570
O81	O8	0.557800	0.692730	0.277270
