data_RESQAJ_clean_PM
_symmetry_space_group_name_H-M	'P1'
_cell_length_a	12.138000
_cell_length_b	13.146000
_cell_length_c	14.321000
_cell_angle_alpha	91.158000
_cell_angle_beta	98.911000
_cell_angle_gamma	90.567000
_symmetry_Int_Tables_number 1

loop_
_symmetry_equiv_pos_as_xyz
'x,y,z'

loop_
_atom_site_label
_atom_site_type_symbol
_atom_site_fract_x
_atom_site_fract_y
_atom_site_fract_z
Cd11	Cd1	0.301600	0.074060	0.325080
Cd21	Cd2	0.436000	0.774420	0.281360
Cd31	Cd3	0.698400	0.925940	0.674920
Cd41	Cd4	0.564000	0.225580	0.718640
H11	H1	0.289400	0.373300	0.862800
H21	H2	0.344500	0.437600	0.790400
H31	H3	0.154400	0.343600	0.754500
H41	H4	0.971500	0.307700	0.690100
H51	H5	0.835800	0.427400	0.687900
H61	H6	0.062700	0.624700	0.823800
H71	H7	0.713300	0.547600	0.768400
H81	H8	0.932800	0.743500	0.708800
H91	H9	0.412000	0.577600	0.776800
H101	H10	0.520900	0.644200	0.808900
H111	H11	0.209500	0.781800	0.873400
H121	H12	0.091700	0.871800	0.764800
H131	H13	0.136700	0.897900	0.616200
H141	H14	0.418300	0.742700	0.686400
H151	H15	0.329400	0.001500	0.550300
H161	H16	0.321700	0.714400	0.479700
H171	H17	0.643400	0.723800	0.022500
H181	H18	0.624000	0.702200	0.912600
H191	H19	0.755600	0.822300	0.920300
H201	H20	0.906100	0.931100	0.920700
H211	H21	0.082900	0.881100	0.986700
H221	H22	0.959900	0.609700	0.042800
H231	H23	0.191700	0.831200	0.161200
H241	H24	0.177000	0.570900	0.021600
H251	H25	0.991900	0.914300	0.447300
H261	H26	0.814100	0.851200	0.440900
H271	H27	0.770700	0.858200	0.157500
H281	H28	0.950700	0.918100	0.163600
H291	H29	0.500800	0.152500	0.079900
H301	H30	0.565600	0.145500	0.937500
H311	H31	0.710600	0.626700	0.137200
H321	H32	0.655500	0.562400	0.209600
H331	H33	0.845600	0.656400	0.245500
H341	H34	0.028500	0.692300	0.309900
H351	H35	0.164200	0.572600	0.312100
H361	H36	0.937300	0.375300	0.176200
H371	H37	0.286700	0.452400	0.231600
H381	H38	0.067200	0.256500	0.291200
H391	H39	0.588000	0.422400	0.223200
H401	H40	0.479100	0.355800	0.191100
H411	H41	0.790500	0.218200	0.126600
H421	H42	0.908300	0.128200	0.235200
H431	H43	0.863300	0.102100	0.383800
H441	H44	0.581700	0.257300	0.313600
H451	H45	0.670600	0.998500	0.449700
H461	H46	0.678300	0.285600	0.520300
H471	H47	0.356600	0.276200	0.977500
H481	H48	0.376000	0.297800	0.087400
H491	H49	0.244400	0.177700	0.079700
H501	H50	0.093900	0.068900	0.079300
H511	H51	0.917100	0.118900	0.013300
H521	H52	0.040100	0.390300	0.957200
H531	H53	0.808300	0.168800	0.838800
H541	H54	0.823000	0.429100	0.978400
H551	H55	0.008100	0.085700	0.552700
H561	H56	0.185900	0.148800	0.559100
H571	H57	0.229300	0.141800	0.842500
H581	H58	0.049300	0.081900	0.836400
H591	H59	0.499200	0.847500	0.920100
H601	H60	0.434400	0.854500	0.062500
C11	C1	0.411200	0.473100	0.929400
C21	C2	0.481100	0.553700	0.916600
C31	C3	0.571100	0.582100	0.986800
C41	C4	0.317200	0.440300	0.850500
C51	C5	0.126700	0.485900	0.799700
C61	C6	0.099900	0.392400	0.756700
C71	C7	0.990100	0.372000	0.716500
C81	C8	0.909100	0.442800	0.714600
C91	C9	0.938100	0.537500	0.752900
C101	C10	0.045100	0.560600	0.796700
C111	C11	0.746700	0.607600	0.753000
C121	C12	0.866500	0.713900	0.720600
C131	C13	0.453600	0.617300	0.828600
C141	C14	0.324100	0.749600	0.790000
C151	C15	0.227400	0.791100	0.813300
C161	C16	0.157400	0.845700	0.748700
C171	C17	0.184100	0.861900	0.660700
C181	C18	0.282200	0.823900	0.639600
C191	C19	0.352400	0.767900	0.702600
C201	C20	0.333000	0.941000	0.516200
C211	C21	0.328100	0.784900	0.478000
C221	C22	0.647000	0.672200	0.973800
C231	C23	0.842900	0.704300	0.979300
C241	C24	0.827000	0.801200	0.944600
C251	C25	0.916800	0.866800	0.946000
C261	C26	0.022200	0.837000	0.985000
C271	C27	0.036300	0.741500	0.021200
C281	C28	0.948500	0.674500	0.018500
C291	C29	0.209200	0.767100	0.139500
C301	C30	0.201300	0.624400	0.063500
C311	C31	0.097600	0.983900	0.310500
C321	C32	0.987900	0.927800	0.306800
C331	C33	0.946900	0.904200	0.389000
C341	C34	0.840800	0.866100	0.385200
C351	C35	0.773400	0.849700	0.299900
C361	C36	0.815400	0.870000	0.215600
C371	C37	0.922200	0.906900	0.219200
C381	C38	0.653600	0.818200	0.294400
C391	C39	0.416700	0.011100	0.178600
C401	C40	0.461300	0.003800	0.086300
C411	C41	0.500600	0.090500	0.047400
C421	C42	0.539300	0.086700	0.962000
C431	C43	0.588800	0.526900	0.070600
C441	C44	0.518900	0.446300	0.083400
C451	C45	0.428900	0.417900	0.013200
C461	C46	0.682800	0.559700	0.149500
C471	C47	0.873300	0.514100	0.200300
C481	C48	0.900100	0.607600	0.243300
C491	C49	0.009900	0.628000	0.283500
C501	C50	0.090900	0.557200	0.285400
C511	C51	0.061900	0.462500	0.247100
C521	C52	0.954900	0.439400	0.203300
C531	C53	0.253300	0.392400	0.247000
C541	C54	0.133500	0.286100	0.279400
C551	C55	0.546400	0.382700	0.171400
C561	C56	0.675900	0.250400	0.210000
C571	C57	0.772600	0.208900	0.186700
C581	C58	0.842600	0.154300	0.251300
C591	C59	0.815900	0.138100	0.339300
C601	C60	0.717800	0.176100	0.360400
C611	C61	0.647600	0.232100	0.297400
C621	C62	0.667000	0.059000	0.483800
C631	C63	0.671900	0.215100	0.522000
C641	C64	0.353000	0.327800	0.026200
C651	C65	0.157100	0.295700	0.020700
C661	C66	0.173000	0.198800	0.055400
C671	C67	0.083200	0.133200	0.054000
C681	C68	0.977800	0.163000	0.015000
C691	C69	0.963700	0.258500	0.978800
C701	C70	0.051500	0.325500	0.981500
C711	C71	0.790800	0.232900	0.860500
C721	C72	0.798700	0.375600	0.936500
C731	C73	0.902400	0.016100	0.689500
C741	C74	0.012100	0.072200	0.693200
C751	C75	0.053100	0.095800	0.611000
C761	C76	0.159200	0.133900	0.614800
C771	C77	0.226600	0.150300	0.700100
C781	C78	0.184600	0.130000	0.784400
C791	C79	0.077800	0.093100	0.780800
C801	C80	0.346400	0.181800	0.705600
C811	C81	0.583300	0.988900	0.821400
C821	C82	0.538700	0.996200	0.913700
C831	C83	0.499400	0.909500	0.952600
C841	C84	0.460700	0.913300	0.038000
N11	N1	0.855600	0.616300	0.745100
N21	N2	0.772700	0.761100	0.715800
N31	N3	0.693600	0.691900	0.736700
N41	N4	0.313000	0.849100	0.550200
N51	N5	0.357000	0.937300	0.433400
N61	N6	0.352700	0.834400	0.406400
N71	N7	0.144900	0.712000	0.069400
N81	N8	0.298100	0.717300	0.171600
N91	N9	0.293300	0.624100	0.123100
N101	N10	0.144400	0.383700	0.254900
N111	N11	0.227300	0.238900	0.284200
N121	N12	0.306400	0.308100	0.263300
N131	N13	0.687000	0.150900	0.449800
N141	N14	0.643000	0.062700	0.566600
N151	N15	0.647300	0.165600	0.593600
N161	N16	0.855100	0.288000	0.930600
N171	N17	0.701900	0.282700	0.828400
N181	N18	0.706700	0.375900	0.876900
O11	O1	0.229200	0.513800	0.847700
O21	O2	0.387200	0.697400	0.858700
O31	O3	0.759500	0.633800	0.980200
O41	O4	0.133600	0.035500	0.383600
O51	O5	0.147900	0.978600	0.241200
O61	O6	0.604800	0.839800	0.363700
O71	O7	0.603900	0.775800	0.221300
O81	O8	0.401000	0.098500	0.210200
O91	O9	0.391200	0.932500	0.218300
O101	O10	0.770800	0.486200	0.152300
O111	O11	0.612800	0.302600	0.141300
O121	O12	0.240500	0.366200	0.019800
O131	O13	0.866400	0.964500	0.616400
O141	O14	0.852100	0.021400	0.758800
O151	O15	0.395200	0.160200	0.636300
O161	O16	0.396100	0.224200	0.778700
O171	O17	0.599000	0.901500	0.789800
O181	O18	0.608800	0.067500	0.781700
