data_RESWUI02_clean_PM
_symmetry_space_group_name_H-M	'P1'
_cell_length_a	8.513900
_cell_length_b	10.216500
_cell_length_c	11.072100
_cell_angle_alpha	64.208000
_cell_angle_beta	71.563000
_cell_angle_gamma	80.752000
_symmetry_Int_Tables_number 1

loop_
_symmetry_equiv_pos_as_xyz
'x,y,z'

loop_
_atom_site_label
_atom_site_type_symbol
_atom_site_fract_x
_atom_site_fract_y
_atom_site_fract_z
Er11	Er1	0.866520	0.063770	0.837690
Er21	Er2	0.133480	0.936230	0.162310
H11	H1	0.994200	0.473600	0.219600
H21	H2	0.052600	0.724100	0.812100
H31	H3	0.462800	0.148400	0.616000
H41	H4	0.276800	0.885000	0.514600
H51	H5	0.776700	0.453000	0.416000
H61	H6	0.361400	0.367600	0.731200
H71	H7	0.005800	0.526400	0.780400
H81	H8	0.947400	0.275900	0.187900
H91	H9	0.537200	0.851600	0.384000
H101	H10	0.723200	0.115000	0.485400
H111	H11	0.223300	0.547000	0.584000
H121	H12	0.638600	0.632400	0.268800
C11	C1	0.056000	0.746400	0.042700
C21	C2	0.027700	0.619200	0.019400
C31	C3	0.996400	0.484300	0.131200
C41	C4	0.031400	0.634200	0.887600
C51	C5	0.173700	0.046600	0.661300
C61	C6	0.342700	0.021200	0.577800
C71	C7	0.478100	0.088900	0.569000
C81	C8	0.366300	0.931300	0.508500
C91	C9	0.677300	0.272400	0.678700
C101	C10	0.584800	0.391800	0.587300
C111	C11	0.664700	0.471800	0.450100
C121	C12	0.417400	0.420400	0.638400
C131	C13	0.944000	0.253600	0.957300
C141	C14	0.972300	0.380800	0.980600
C151	C15	0.003600	0.515700	0.868800
C161	C16	0.968600	0.365800	0.112400
C171	C17	0.826300	0.953400	0.338700
C181	C18	0.657300	0.978800	0.422200
C191	C19	0.521900	0.911100	0.431000
C201	C20	0.633700	0.068700	0.491500
C211	C21	0.322700	0.727600	0.321300
C221	C22	0.415200	0.608200	0.412700
C231	C23	0.335300	0.528200	0.549900
C241	C24	0.582600	0.579600	0.361600
O11	O1	0.015800	0.872700	0.967000
O21	O2	0.121600	0.723400	0.136500
O31	O3	0.051400	0.989300	0.663500
O41	O4	0.154900	0.122600	0.730100
O51	O5	0.826600	0.246100	0.627000
O61	O6	0.605000	0.196500	0.806000
O71	O7	0.984200	0.127300	0.033000
O81	O8	0.878400	0.276600	0.863500
O91	O9	0.948600	0.010700	0.336500
O101	O10	0.845100	0.877400	0.269900
O111	O11	0.173400	0.753900	0.373000
O121	O12	0.395000	0.803500	0.194000
