data_RESWUI_clean_PM
_symmetry_space_group_name_H-M	'P1'
_cell_length_a	8.524700
_cell_length_b	10.200400
_cell_length_c	10.889800
_cell_angle_alpha	63.722000
_cell_angle_beta	71.281000
_cell_angle_gamma	81.148000
_symmetry_Int_Tables_number 1

loop_
_symmetry_equiv_pos_as_xyz
'x,y,z'

loop_
_atom_site_label
_atom_site_type_symbol
_atom_site_fract_x
_atom_site_fract_y
_atom_site_fract_z
Er11	Er1	0.133620	0.936260	0.660370
Er21	Er2	0.866380	0.063740	0.339630
H11	H1	0.721000	0.114000	0.984000
H21	H2	0.538000	0.842000	0.899000
H31	H3	0.213000	0.545000	0.090000
H41	H4	0.626000	0.630000	0.761000
H51	H5	0.985000	0.535800	0.269300
H61	H6	0.949000	0.263400	0.696400
H71	H7	0.279000	0.886000	0.016000
H81	H8	0.462000	0.158000	0.101000
H91	H9	0.787000	0.455000	0.910000
H101	H10	0.374000	0.370000	0.239000
H111	H11	0.015000	0.464200	0.730700
H121	H12	0.051000	0.736600	0.303600
C11	C1	0.827420	0.951460	0.840850
C21	C2	0.657710	0.977380	0.923000
C31	C3	0.634600	0.071960	0.988190
C41	C4	0.523890	0.906630	0.934120
C51	C5	0.321830	0.729800	0.821430
C61	C6	0.414830	0.609320	0.911950
C71	C7	0.334440	0.527710	0.055680
C81	C8	0.580530	0.580790	0.856810
C91	C9	0.942740	0.255310	0.455150
C101	C10	0.971280	0.381540	0.479570
C111	C11	0.996350	0.520180	0.366150
C121	C12	0.973970	0.361760	0.613620
C131	C13	0.172580	0.048540	0.159150
C141	C14	0.342290	0.022620	0.077000
C151	C15	0.365400	0.928040	0.011810
C161	C16	0.476110	0.093370	0.065880
C171	C17	0.678170	0.270200	0.178570
C181	C18	0.585170	0.390680	0.088050
C191	C19	0.665560	0.472290	0.944320
C201	C20	0.419470	0.419210	0.143190
C211	C21	0.057260	0.744690	0.544850
C221	C22	0.028720	0.618460	0.520430
C231	C23	0.003650	0.479820	0.633850
C241	C24	0.026030	0.638240	0.386380
O11	O1	0.949090	0.009360	0.837720
O21	O2	0.846750	0.872680	0.773190
O31	O3	0.172280	0.753920	0.876730
O41	O4	0.393720	0.806880	0.690930
O51	O5	0.983450	0.127160	0.528690
O61	O6	0.874730	0.281800	0.359990
O71	O7	0.050910	0.990640	0.162280
O81	O8	0.153250	0.127320	0.226810
O91	O9	0.827720	0.246080	0.123270
O101	O10	0.606280	0.193120	0.309070
O111	O11	0.016550	0.872840	0.471310
O121	O12	0.125270	0.718200	0.640010
