data_RESWUI01_clean_PM
_symmetry_space_group_name_H-M	'P1'
_cell_length_a	8.513900
_cell_length_b	10.216500
_cell_length_c	11.072100
_cell_angle_alpha	64.208000
_cell_angle_beta	71.563000
_cell_angle_gamma	80.752000
_symmetry_Int_Tables_number 1

loop_
_symmetry_equiv_pos_as_xyz
'x,y,z'

loop_
_atom_site_label
_atom_site_type_symbol
_atom_site_fract_x
_atom_site_fract_y
_atom_site_fract_z
Er11	Er1	0.866510	0.063790	0.837680
Er21	Er2	0.133490	0.936210	0.162310
H11	H1	0.994000	0.473500	0.221500
H21	H2	0.051600	0.726400	0.810400
H31	H3	0.461700	0.149600	0.617400
H41	H4	0.274100	0.884300	0.514900
H51	H5	0.779100	0.452000	0.415200
H61	H6	0.360700	0.365800	0.733500
H71	H7	0.006000	0.526500	0.778500
H81	H8	0.948400	0.273600	0.189600
H91	H9	0.538300	0.850400	0.382600
H101	H10	0.725900	0.115700	0.485100
H111	H11	0.220900	0.548000	0.584800
H121	H12	0.639300	0.634200	0.266500
C11	C1	0.056000	0.746400	0.042800
C21	C2	0.027600	0.619200	0.019500
C31	C3	0.996500	0.484300	0.131200
C41	C4	0.030700	0.634400	0.887500
C51	C5	0.173600	0.046500	0.661400
C61	C6	0.342700	0.021100	0.577800
C71	C7	0.477600	0.088900	0.569300
C81	C8	0.365600	0.931400	0.508700
C91	C9	0.677300	0.272500	0.678700
C101	C10	0.584500	0.391900	0.587300
C111	C11	0.664800	0.471500	0.450100
C121	C12	0.417800	0.420100	0.638700
C131	C13	0.944000	0.253600	0.957200
C141	C14	0.972400	0.380800	0.980500
C151	C15	0.003500	0.515700	0.868800
C161	C16	0.969300	0.365600	0.112500
C171	C17	0.826400	0.953500	0.338600
C181	C18	0.657300	0.978900	0.422200
C191	C19	0.522400	0.911100	0.430700
C201	C20	0.634400	0.068600	0.491300
C211	C21	0.322700	0.727500	0.321300
C221	C22	0.415500	0.608100	0.412700
C231	C23	0.335200	0.528500	0.549900
C241	C24	0.582200	0.579900	0.361300
O11	O1	0.015900	0.872800	0.967000
O21	O2	0.121800	0.723500	0.136500
O31	O3	0.051500	0.989200	0.663400
O41	O4	0.155000	0.122400	0.730200
O51	O5	0.826600	0.246200	0.626800
O61	O6	0.605000	0.196500	0.805900
O71	O7	0.984100	0.127200	0.033000
O81	O8	0.878200	0.276500	0.863500
O91	O9	0.948500	0.010800	0.336600
O101	O10	0.845000	0.877600	0.269800
O111	O11	0.173400	0.753800	0.373200
O121	O12	0.395000	0.803500	0.194100
