data_REWNEO_clean_PM
_symmetry_space_group_name_H-M	'P1'
_cell_length_a	31.310900
_cell_length_b	31.310900
_cell_length_c	31.497700
_cell_angle_alpha	60.195900
_cell_angle_beta	60.195900
_cell_angle_gamma	90.000000
_symmetry_Int_Tables_number 1

loop_
_symmetry_equiv_pos_as_xyz
'x,y,z'

loop_
_atom_site_label
_atom_site_type_symbol
_atom_site_fract_x
_atom_site_fract_y
_atom_site_fract_z
Cu11	Cu1	0.732150	0.482250	0.745600
Cu21	Cu2	0.809480	0.474250	0.663680
Cu31	Cu3	0.522250	0.772150	0.745600
Cu41	Cu4	0.526840	0.862070	0.663680
Cu51	Cu5	0.482250	0.522250	0.745600
Cu61	Cu6	0.474250	0.526840	0.663680
Cu71	Cu7	0.772150	0.732150	0.745600
Cu81	Cu8	0.862070	0.809480	0.663680
Cu91	Cu9	0.267850	0.517750	0.254400
Cu101	Cu10	0.190520	0.525750	0.336320
Cu111	Cu11	0.477750	0.227850	0.254400
Cu121	Cu12	0.473160	0.137930	0.336320
Cu131	Cu13	0.517750	0.477750	0.254400
Cu141	Cu14	0.525750	0.473160	0.336320
Cu151	Cu15	0.227850	0.267850	0.254400
Cu161	Cu16	0.137930	0.190520	0.336320
Cu171	Cu17	0.749480	0.461480	0.000000
Cu181	Cu18	0.833500	0.449790	0.000000
Cu191	Cu19	0.250520	0.538520	0.000000
Cu201	Cu20	0.166500	0.550210	0.000000
Cu211	Cu21	0.461480	0.250520	0.000000
Cu221	Cu22	0.449790	0.166500	0.000000
Cu231	Cu23	0.538520	0.749480	0.000000
Cu241	Cu24	0.550210	0.833500	0.000000
H11	H1	0.370000	0.459800	0.452000
H21	H2	0.203300	0.458300	0.549800
H31	H3	0.133200	0.457800	0.634000
H41	H4	0.088400	0.459000	0.775200
H51	H5	0.232800	0.460900	0.679600
H61	H6	0.256000	0.488200	0.728600
H71	H7	0.308600	0.494800	0.754000
H81	H8	0.328100	0.516100	0.857000
H91	H9	0.188600	0.495300	0.889400
H101	H10	0.785000	0.446800	0.857400
H111	H11	0.907000	0.421800	0.863200
H121	H12	0.899100	0.434800	0.734800
H131	H13	0.006900	0.460900	0.785000
H141	H14	0.356500	0.474600	0.326200
H151	H15	0.240200	0.482000	0.454800
H161	H16	0.178000	0.088200	0.452000
H171	H17	0.246900	0.991900	0.549800
H181	H18	0.232800	0.908200	0.634000
H191	H19	0.136400	0.765800	0.775200
H201	H20	0.087600	0.859500	0.679600
H211	H21	0.015400	0.783200	0.728600
H221	H22	0.937400	0.751200	0.754000
H231	H23	0.814900	0.626900	0.857000
H241	H24	0.922000	0.615300	0.889400
H251	H25	0.357600	0.695800	0.857400
H261	H26	0.229800	0.715000	0.863200
H271	H27	0.366100	0.830400	0.734800
H281	H28	0.208100	0.754100	0.785000
H291	H29	0.317300	0.199200	0.326200
H301	H30	0.305000	0.063200	0.454800
H311	H31	0.459800	0.178000	0.452000
H321	H32	0.458300	0.246900	0.549800
H331	H33	0.457800	0.232800	0.634000
H341	H34	0.459000	0.136400	0.775200
H351	H35	0.460900	0.087600	0.679600
H361	H36	0.488200	0.015400	0.728600
H371	H37	0.494800	0.937400	0.754000
H381	H38	0.516100	0.814900	0.857000
H391	H39	0.495300	0.922000	0.889400
H401	H40	0.446800	0.357600	0.857400
H411	H41	0.421800	0.229800	0.863200
H421	H42	0.434800	0.366100	0.734800
H431	H43	0.460900	0.208100	0.785000
H441	H44	0.474600	0.317300	0.326200
H451	H45	0.482000	0.305000	0.454800
H461	H46	0.088200	0.370000	0.452000
H471	H47	0.991900	0.203300	0.549800
H481	H48	0.908200	0.133200	0.634000
H491	H49	0.765800	0.088400	0.775200
H501	H50	0.859500	0.232800	0.679600
H511	H51	0.783200	0.256000	0.728600
H521	H52	0.751200	0.308600	0.754000
H531	H53	0.626900	0.328100	0.857000
H541	H54	0.615300	0.188600	0.889400
H551	H55	0.695800	0.785000	0.857400
H561	H56	0.715000	0.907000	0.863200
H571	H57	0.830400	0.899100	0.734800
H581	H58	0.754100	0.006900	0.785000
H591	H59	0.199200	0.356500	0.326200
H601	H60	0.063200	0.240200	0.454800
H611	H61	0.630000	0.540200	0.548000
H621	H62	0.796700	0.541700	0.450200
H631	H63	0.866800	0.542200	0.366000
H641	H64	0.911600	0.541000	0.224800
H651	H65	0.767200	0.539100	0.320400
H661	H66	0.744000	0.511800	0.271400
H671	H67	0.691400	0.505200	0.246000
H681	H68	0.671900	0.483900	0.143000
H691	H69	0.811400	0.504700	0.110600
H701	H70	0.215000	0.553200	0.142600
H711	H71	0.093000	0.578200	0.136800
H721	H72	0.100900	0.565200	0.265200
H731	H73	0.993100	0.539100	0.215000
H741	H74	0.643500	0.525400	0.673800
H751	H75	0.759800	0.518000	0.545200
H761	H76	0.822000	0.911800	0.548000
H771	H77	0.753100	0.008100	0.450200
H781	H78	0.767200	0.091800	0.366000
H791	H79	0.863600	0.234200	0.224800
H801	H80	0.912400	0.140500	0.320400
H811	H81	0.984600	0.216800	0.271400
H821	H82	0.062600	0.248800	0.246000
H831	H83	0.185100	0.373100	0.143000
H841	H84	0.078000	0.384700	0.110600
H851	H85	0.642400	0.304200	0.142600
H861	H86	0.770200	0.285000	0.136800
H871	H87	0.633900	0.169600	0.265200
H881	H88	0.791900	0.245900	0.215000
H891	H89	0.682700	0.800800	0.673800
H901	H90	0.695000	0.936800	0.545200
H911	H91	0.540200	0.822000	0.548000
H921	H92	0.541700	0.753100	0.450200
H931	H93	0.542200	0.767200	0.366000
H941	H94	0.541000	0.863600	0.224800
H951	H95	0.539100	0.912400	0.320400
H961	H96	0.511800	0.984600	0.271400
H971	H97	0.505200	0.062600	0.246000
H981	H98	0.483900	0.185100	0.143000
H991	H99	0.504700	0.078000	0.110600
H1001	H100	0.553200	0.642400	0.142600
H1011	H101	0.578200	0.770200	0.136800
H1021	H102	0.565200	0.633900	0.265200
H1031	H103	0.539100	0.791900	0.215000
H1041	H104	0.525400	0.682700	0.673800
H1051	H105	0.518000	0.695000	0.545200
H1061	H106	0.911800	0.630000	0.548000
H1071	H107	0.008100	0.796700	0.450200
H1081	H108	0.091800	0.866800	0.366000
H1091	H109	0.234200	0.911600	0.224800
H1101	H110	0.140500	0.767200	0.320400
H1111	H111	0.216800	0.744000	0.271400
H1121	H112	0.248800	0.691400	0.246000
H1131	H113	0.373100	0.671900	0.143000
H1141	H114	0.384700	0.811400	0.110600
H1151	H115	0.304200	0.215000	0.142600
H1161	H116	0.285000	0.093000	0.136800
H1171	H117	0.169600	0.100900	0.265200
H1181	H118	0.245900	0.993100	0.215000
H1191	H119	0.800800	0.643500	0.673800
H1201	H120	0.936800	0.759800	0.545200
C11	C1	0.428700	0.470900	0.348600
C21	C2	0.372300	0.474200	0.383200
C31	C3	0.351900	0.467000	0.434000
C41	C4	0.303800	0.470200	0.460800
C51	C5	0.231600	0.461100	0.552600
C61	C6	0.231600	0.459700	0.599800
C71	C7	0.187100	0.449100	0.654400
C81	C8	0.137400	0.449800	0.664400
C91	C9	0.099900	0.440300	0.712000
C101	C10	0.114900	0.456900	0.744800
C111	C11	0.161600	0.467600	0.731800
C121	C12	0.199600	0.459300	0.687000
C131	C13	0.169000	0.471200	0.769000
C141	C14	0.223100	0.483700	0.759000
C151	C15	0.239300	0.497000	0.820000
C161	C16	0.296200	0.500800	0.783800
C171	C17	0.330100	0.513800	0.797000
C181	C18	0.308300	0.517400	0.842000
C191	C19	0.259600	0.523100	0.871400
C201	C20	0.224500	0.503700	0.862600
C211	C21	0.240600	0.530500	0.918600
C221	C22	0.812000	0.458500	0.760800
C231	C23	0.839900	0.445400	0.790000
C241	C24	0.818600	0.444300	0.839600
C251	C25	0.846500	0.439300	0.866000
C261	C26	0.891600	0.431900	0.842000
C271	C27	0.917600	0.438000	0.788000
C281	C28	0.886600	0.438800	0.766200
C291	C29	0.826200	0.439200	0.916600
C301	C30	0.005000	0.444400	0.767600
C311	C31	0.380800	0.518000	0.763800
C321	C32	0.043600	0.429900	0.732200
C331	C33	0.343800	0.477900	0.358000
C341	C34	0.298000	0.486200	0.381800
C351	C35	0.273800	0.480000	0.435600
C361	C36	0.272300	0.496700	0.351800
C371	C37	0.222700	0.180500	0.348600
C381	C38	0.244500	0.142600	0.383200
C391	C39	0.214100	0.099000	0.434000
C401	C40	0.235400	0.069000	0.460800
C411	C41	0.215800	0.986300	0.552600
C421	C42	0.168600	0.940500	0.599800
C431	C43	0.158500	0.896500	0.654400
C441	C44	0.198200	0.885800	0.664400
C451	C45	0.188100	0.847700	0.712000
C461	C46	0.140300	0.798300	0.744800
C471	C47	0.106600	0.800600	0.731800
C481	C48	0.113400	0.853700	0.687000
C491	C49	0.062000	0.759800	0.769000
C501	C50	0.017900	0.757300	0.759000
C511	C51	0.940700	0.683000	0.820000
C521	C52	0.920000	0.715400	0.783800
C531	C53	0.872900	0.689200	0.797000
C541	C54	0.849700	0.640600	0.842000
C551	C55	0.869000	0.605500	0.871400
C561	C56	0.912900	0.633700	0.862600
C571	C57	0.840800	0.550900	0.918600
C581	C58	0.427200	0.780700	0.760800
C591	C59	0.370100	0.764600	0.790000
C601	C60	0.341800	0.716100	0.839600
C611	C61	0.287500	0.694700	0.866000
C621	C62	0.266400	0.726100	0.842000
C631	C63	0.294400	0.774000	0.788000
C641	C64	0.347200	0.795000	0.766200
C651	C65	0.257200	0.644200	0.916600
C661	C66	0.227400	0.788000	0.767600
C671	C67	0.855400	0.718200	0.763800
C681	C68	0.224200	0.837900	0.732200
C691	C69	0.298200	0.164100	0.358000
C701	C70	0.320200	0.132000	0.381800
C711	C71	0.290600	0.084400	0.435600
C721	C72	0.375900	0.151500	0.351800
C731	C73	0.470900	0.222700	0.348600
C741	C74	0.474200	0.244500	0.383200
C751	C75	0.467000	0.214100	0.434000
C761	C76	0.470200	0.235400	0.460800
C771	C77	0.461100	0.215800	0.552600
C781	C78	0.459700	0.168600	0.599800
C791	C79	0.449100	0.158500	0.654400
C801	C80	0.449800	0.198200	0.664400
C811	C81	0.440300	0.188100	0.712000
C821	C82	0.456900	0.140300	0.744800
C831	C83	0.467600	0.106600	0.731800
C841	C84	0.459300	0.113400	0.687000
C851	C85	0.471200	0.062000	0.769000
C861	C86	0.483700	0.017900	0.759000
C871	C87	0.497000	0.940700	0.820000
C881	C88	0.500800	0.920000	0.783800
C891	C89	0.513800	0.872900	0.797000
C901	C90	0.517400	0.849700	0.842000
C911	C91	0.523100	0.869000	0.871400
C921	C92	0.503700	0.912900	0.862600
C931	C93	0.530500	0.840800	0.918600
C941	C94	0.458500	0.427200	0.760800
C951	C95	0.445400	0.370100	0.790000
C961	C96	0.444300	0.341800	0.839600
C971	C97	0.439300	0.287500	0.866000
C981	C98	0.431900	0.266400	0.842000
C991	C99	0.438000	0.294400	0.788000
C1001	C100	0.438800	0.347200	0.766200
C1011	C101	0.439200	0.257200	0.916600
C1021	C102	0.444400	0.227400	0.767600
C1031	C103	0.518000	0.855400	0.763800
C1041	C104	0.429900	0.224200	0.732200
C1051	C105	0.477900	0.298200	0.358000
C1061	C106	0.486200	0.320200	0.381800
C1071	C107	0.480000	0.290600	0.435600
C1081	C108	0.496700	0.375900	0.351800
C1091	C109	0.180500	0.428700	0.348600
C1101	C110	0.142600	0.372300	0.383200
C1111	C111	0.099000	0.351900	0.434000
C1121	C112	0.069000	0.303800	0.460800
C1131	C113	0.986300	0.231600	0.552600
C1141	C114	0.940500	0.231600	0.599800
C1151	C115	0.896500	0.187100	0.654400
C1161	C116	0.885800	0.137400	0.664400
C1171	C117	0.847700	0.099900	0.712000
C1181	C118	0.798300	0.114900	0.744800
C1191	C119	0.800600	0.161600	0.731800
C1201	C120	0.853700	0.199600	0.687000
C1211	C121	0.759800	0.169000	0.769000
C1221	C122	0.757300	0.223100	0.759000
C1231	C123	0.683000	0.239300	0.820000
C1241	C124	0.715400	0.296200	0.783800
C1251	C125	0.689200	0.330100	0.797000
C1261	C126	0.640600	0.308300	0.842000
C1271	C127	0.605500	0.259600	0.871400
C1281	C128	0.633700	0.224500	0.862600
C1291	C129	0.550900	0.240600	0.918600
C1301	C130	0.780700	0.812000	0.760800
C1311	C131	0.764600	0.839900	0.790000
C1321	C132	0.716100	0.818600	0.839600
C1331	C133	0.694700	0.846500	0.866000
C1341	C134	0.726100	0.891600	0.842000
C1351	C135	0.774000	0.917600	0.788000
C1361	C136	0.795000	0.886600	0.766200
C1371	C137	0.644200	0.826200	0.916600
C1381	C138	0.788000	0.005000	0.767600
C1391	C139	0.718200	0.380800	0.763800
C1401	C140	0.837900	0.043600	0.732200
C1411	C141	0.164100	0.343800	0.358000
C1421	C142	0.132000	0.298000	0.381800
C1431	C143	0.084400	0.273800	0.435600
C1441	C144	0.151500	0.272300	0.351800
C1451	C145	0.571300	0.529100	0.651400
C1461	C146	0.627700	0.525800	0.616800
C1471	C147	0.648100	0.533000	0.566000
C1481	C148	0.696200	0.529800	0.539200
C1491	C149	0.768400	0.538900	0.447400
C1501	C150	0.768400	0.540300	0.400200
C1511	C151	0.812900	0.550900	0.345600
C1521	C152	0.862600	0.550200	0.335600
C1531	C153	0.900100	0.559700	0.288000
C1541	C154	0.885100	0.543100	0.255200
C1551	C155	0.838400	0.532400	0.268200
C1561	C156	0.800400	0.540700	0.313000
C1571	C157	0.831000	0.528800	0.231000
C1581	C158	0.776900	0.516300	0.241000
C1591	C159	0.760700	0.503000	0.180000
C1601	C160	0.703800	0.499200	0.216200
C1611	C161	0.669900	0.486200	0.203000
C1621	C162	0.691700	0.482600	0.158000
C1631	C163	0.740400	0.476900	0.128600
C1641	C164	0.775500	0.496300	0.137400
C1651	C165	0.759400	0.469500	0.081400
C1661	C166	0.188000	0.541500	0.239200
C1671	C167	0.160100	0.554600	0.210000
C1681	C168	0.181400	0.555700	0.160400
C1691	C169	0.153500	0.560700	0.134000
C1701	C170	0.108400	0.568100	0.158000
C1711	C171	0.082400	0.562000	0.212000
C1721	C172	0.113400	0.561200	0.233800
C1731	C173	0.173800	0.560800	0.083400
C1741	C174	0.995000	0.555600	0.232400
C1751	C175	0.619200	0.482000	0.236200
C1761	C176	0.956400	0.570100	0.267800
C1771	C177	0.656200	0.522100	0.642000
C1781	C178	0.702000	0.513800	0.618200
C1791	C179	0.726200	0.520000	0.564400
C1801	C180	0.727700	0.503300	0.648200
C1811	C181	0.777300	0.819500	0.651400
C1821	C182	0.755500	0.857400	0.616800
C1831	C183	0.785900	0.901000	0.566000
C1841	C184	0.764600	0.931000	0.539200
C1851	C185	0.784200	0.013700	0.447400
C1861	C186	0.831400	0.059500	0.400200
C1871	C187	0.841500	0.103500	0.345600
C1881	C188	0.801800	0.114200	0.335600
C1891	C189	0.811900	0.152300	0.288000
C1901	C190	0.859700	0.201700	0.255200
C1911	C191	0.893400	0.199400	0.268200
C1921	C192	0.886600	0.146300	0.313000
C1931	C193	0.938000	0.240200	0.231000
C1941	C194	0.982100	0.242700	0.241000
C1951	C195	0.059300	0.317000	0.180000
C1961	C196	0.080000	0.284600	0.216200
C1971	C197	0.127100	0.310800	0.203000
C1981	C198	0.150300	0.359400	0.158000
C1991	C199	0.131000	0.394500	0.128600
C2001	C200	0.087100	0.366300	0.137400
C2011	C201	0.159200	0.449100	0.081400
C2021	C202	0.572800	0.219300	0.239200
C2031	C203	0.629900	0.235400	0.210000
C2041	C204	0.658200	0.283900	0.160400
C2051	C205	0.712500	0.305300	0.134000
C2061	C206	0.733600	0.273900	0.158000
C2071	C207	0.705600	0.226000	0.212000
C2081	C208	0.652800	0.205000	0.233800
C2091	C209	0.742800	0.355800	0.083400
C2101	C210	0.772600	0.212000	0.232400
C2111	C211	0.144600	0.281800	0.236200
C2121	C212	0.775800	0.162100	0.267800
C2131	C213	0.701800	0.835900	0.642000
C2141	C214	0.679800	0.868000	0.618200
C2151	C215	0.709400	0.915600	0.564400
C2161	C216	0.624100	0.848500	0.648200
C2171	C217	0.529100	0.777300	0.651400
C2181	C218	0.525800	0.755500	0.616800
C2191	C219	0.533000	0.785900	0.566000
C2201	C220	0.529800	0.764600	0.539200
C2211	C221	0.538900	0.784200	0.447400
C2221	C222	0.540300	0.831400	0.400200
C2231	C223	0.550900	0.841500	0.345600
C2241	C224	0.550200	0.801800	0.335600
C2251	C225	0.559700	0.811900	0.288000
C2261	C226	0.543100	0.859700	0.255200
C2271	C227	0.532400	0.893400	0.268200
C2281	C228	0.540700	0.886600	0.313000
C2291	C229	0.528800	0.938000	0.231000
C2301	C230	0.516300	0.982100	0.241000
C2311	C231	0.503000	0.059300	0.180000
C2321	C232	0.499200	0.080000	0.216200
C2331	C233	0.486200	0.127100	0.203000
C2341	C234	0.482600	0.150300	0.158000
C2351	C235	0.476900	0.131000	0.128600
C2361	C236	0.496300	0.087100	0.137400
C2371	C237	0.469500	0.159200	0.081400
C2381	C238	0.541500	0.572800	0.239200
C2391	C239	0.554600	0.629900	0.210000
C2401	C240	0.555700	0.658200	0.160400
C2411	C241	0.560700	0.712500	0.134000
C2421	C242	0.568100	0.733600	0.158000
C2431	C243	0.562000	0.705600	0.212000
C2441	C244	0.561200	0.652800	0.233800
C2451	C245	0.560800	0.742800	0.083400
C2461	C246	0.555600	0.772600	0.232400
C2471	C247	0.482000	0.144600	0.236200
C2481	C248	0.570100	0.775800	0.267800
C2491	C249	0.522100	0.701800	0.642000
C2501	C250	0.513800	0.679800	0.618200
C2511	C251	0.520000	0.709400	0.564400
C2521	C252	0.503300	0.624100	0.648200
C2531	C253	0.819500	0.571300	0.651400
C2541	C254	0.857400	0.627700	0.616800
C2551	C255	0.901000	0.648100	0.566000
C2561	C256	0.931000	0.696200	0.539200
C2571	C257	0.013700	0.768400	0.447400
C2581	C258	0.059500	0.768400	0.400200
C2591	C259	0.103500	0.812900	0.345600
C2601	C260	0.114200	0.862600	0.335600
C2611	C261	0.152300	0.900100	0.288000
C2621	C262	0.201700	0.885100	0.255200
C2631	C263	0.199400	0.838400	0.268200
C2641	C264	0.146300	0.800400	0.313000
C2651	C265	0.240200	0.831000	0.231000
C2661	C266	0.242700	0.776900	0.241000
C2671	C267	0.317000	0.760700	0.180000
C2681	C268	0.284600	0.703800	0.216200
C2691	C269	0.310800	0.669900	0.203000
C2701	C270	0.359400	0.691700	0.158000
C2711	C271	0.394500	0.740400	0.128600
C2721	C272	0.366300	0.775500	0.137400
C2731	C273	0.449100	0.759400	0.081400
C2741	C274	0.219300	0.188000	0.239200
C2751	C275	0.235400	0.160100	0.210000
C2761	C276	0.283900	0.181400	0.160400
C2771	C277	0.305300	0.153500	0.134000
C2781	C278	0.273900	0.108400	0.158000
C2791	C279	0.226000	0.082400	0.212000
C2801	C280	0.205000	0.113400	0.233800
C2811	C281	0.355800	0.173800	0.083400
C2821	C282	0.212000	0.995000	0.232400
C2831	C283	0.281800	0.619200	0.236200
C2841	C284	0.162100	0.956400	0.267800
C2851	C285	0.835900	0.656200	0.642000
C2861	C286	0.868000	0.702000	0.618200
C2871	C287	0.915600	0.726200	0.564400
C2881	C288	0.848500	0.727700	0.648200
N11	N1	0.276400	0.466600	0.518000
N21	N2	0.313100	0.483500	0.526200
N31	N3	0.273700	0.465500	0.584600
N41	N4	0.137100	0.457200	0.822800
N51	N5	0.159300	0.461100	0.847600
N61	N6	0.210600	0.486100	0.803000
N71	N7	0.964600	0.426600	0.768000
N81	N8	0.980500	0.415900	0.726400
N91	N9	0.030600	0.416100	0.711400
N101	N10	0.205600	0.015400	0.518000
N111	N11	0.160700	0.990300	0.526200
N121	N12	0.141700	0.949900	0.584600
N131	N13	0.040100	0.720000	0.822800
N141	N14	0.993100	0.691300	0.847600
N151	N15	0.986400	0.710900	0.803000
N161	N16	0.267400	0.805400	0.768000
N171	N17	0.293100	0.857700	0.726400
N181	N18	0.258000	0.872500	0.711400
N191	N19	0.466600	0.205600	0.518000
N201	N20	0.483500	0.160700	0.526200
N211	N21	0.465500	0.141700	0.584600
N221	N22	0.457200	0.040100	0.822800
N231	N23	0.461100	0.993100	0.847600
N241	N24	0.486100	0.986400	0.803000
N251	N25	0.426600	0.267400	0.768000
N261	N26	0.415900	0.293100	0.726400
N271	N27	0.416100	0.258000	0.711400
N281	N28	0.015400	0.276400	0.518000
N291	N29	0.990300	0.313100	0.526200
N301	N30	0.949900	0.273700	0.584600
N311	N31	0.720000	0.137100	0.822800
N321	N32	0.691300	0.159300	0.847600
N331	N33	0.710900	0.210600	0.803000
N341	N34	0.805400	0.964600	0.768000
N351	N35	0.857700	0.980500	0.726400
N361	N36	0.872500	0.030600	0.711400
N371	N37	0.723600	0.533400	0.482000
N381	N38	0.686900	0.516500	0.473800
N391	N39	0.726300	0.534500	0.415400
N401	N40	0.862900	0.542800	0.177200
N411	N41	0.840700	0.538900	0.152400
N421	N42	0.789400	0.513900	0.197000
N431	N43	0.035400	0.573400	0.232000
N441	N44	0.019500	0.584100	0.273600
N451	N45	0.969400	0.583900	0.288600
N461	N46	0.794400	0.984600	0.482000
N471	N47	0.839300	0.009700	0.473800
N481	N48	0.858300	0.050100	0.415400
N491	N49	0.959900	0.280000	0.177200
N501	N50	0.006900	0.308700	0.152400
N511	N51	0.013600	0.289100	0.197000
N521	N52	0.732600	0.194600	0.232000
N531	N53	0.706900	0.142300	0.273600
N541	N54	0.742000	0.127500	0.288600
N551	N55	0.533400	0.794400	0.482000
N561	N56	0.516500	0.839300	0.473800
N571	N57	0.534500	0.858300	0.415400
N581	N58	0.542800	0.959900	0.177200
N591	N59	0.538900	0.006900	0.152400
N601	N60	0.513900	0.013600	0.197000
N611	N61	0.573400	0.732600	0.232000
N621	N62	0.584100	0.706900	0.273600
N631	N63	0.583900	0.742000	0.288600
N641	N64	0.984600	0.723600	0.482000
N651	N65	0.009700	0.686900	0.473800
N661	N66	0.050100	0.726300	0.415400
N671	N67	0.280000	0.862900	0.177200
N681	N68	0.308700	0.840700	0.152400
N691	N69	0.289100	0.789400	0.197000
N701	N70	0.194600	0.035400	0.232000
N711	N71	0.142300	0.019500	0.273600
N721	N72	0.127500	0.969400	0.288600
O11	O1	0.447160	0.475020	0.303160
O21	O2	0.451480	0.464000	0.375600
O31	O3	0.767320	0.458540	0.786640
O41	O4	0.835890	0.456320	0.713160
O51	O5	0.413130	0.520490	0.780380
O61	O6	0.401880	0.517070	0.716060
O71	O7	0.291750	0.497210	0.304700
O81	O8	0.227770	0.506730	0.374940
O91	O9	0.778310	0.446730	0.939340
O101	O10	0.851900	0.438400	0.938200
O111	O11	0.267970	0.526920	0.939460
O121	O12	0.195590	0.535140	0.940360
O131	O13	0.249680	0.221820	0.303160
O141	O14	0.172920	0.160400	0.375600
O151	O15	0.446040	0.754820	0.786640
O161	O16	0.450950	0.830520	0.713160
O171	O17	0.806490	0.699130	0.780380
O181	O18	0.882060	0.766870	0.716060
O191	O19	0.403550	0.198090	0.304700
O201	O20	0.397290	0.118330	0.374940
O211	O21	0.282350	0.613930	0.939340
O221	O22	0.209900	0.623400	0.938200
O231	O23	0.792570	0.533620	0.939460
O241	O24	0.864050	0.524500	0.940360
O251	O25	0.475020	0.249680	0.303160
O261	O26	0.464000	0.172920	0.375600
O271	O27	0.458540	0.446040	0.786640
O281	O28	0.456320	0.450950	0.713160
O291	O29	0.520490	0.806490	0.780380
O301	O30	0.517070	0.882060	0.716060
O311	O31	0.497210	0.403550	0.304700
O321	O32	0.506730	0.397290	0.374940
O331	O33	0.446730	0.282350	0.939340
O341	O34	0.438400	0.209900	0.938200
O351	O35	0.526920	0.792570	0.939460
O361	O36	0.535140	0.864050	0.940360
O371	O37	0.221820	0.447160	0.303160
O381	O38	0.160400	0.451480	0.375600
O391	O39	0.754820	0.767320	0.786640
O401	O40	0.830520	0.835890	0.713160
O411	O41	0.699130	0.413130	0.780380
O421	O42	0.766870	0.401880	0.716060
O431	O43	0.198090	0.291750	0.304700
O441	O44	0.118330	0.227770	0.374940
O451	O45	0.613930	0.778310	0.939340
O461	O46	0.623400	0.851900	0.938200
O471	O47	0.533620	0.267970	0.939460
O481	O48	0.524500	0.195590	0.940360
O491	O49	0.552840	0.524980	0.696840
O501	O50	0.548520	0.536000	0.624400
O511	O51	0.232680	0.541460	0.213360
O521	O52	0.164110	0.543680	0.286840
O531	O53	0.586870	0.479510	0.219620
O541	O54	0.598120	0.482930	0.283940
O551	O55	0.708250	0.502790	0.695300
O561	O56	0.772230	0.493270	0.625060
O571	O57	0.221690	0.553270	0.060660
O581	O58	0.148100	0.561600	0.061800
O591	O59	0.732030	0.473080	0.060540
O601	O60	0.804410	0.464860	0.059640
O611	O61	0.750320	0.778180	0.696840
O621	O62	0.827080	0.839600	0.624400
O631	O63	0.553960	0.245180	0.213360
O641	O64	0.549050	0.169480	0.286840
O651	O65	0.193510	0.300870	0.219620
O661	O66	0.117940	0.233130	0.283940
O671	O67	0.596450	0.801910	0.695300
O681	O68	0.602710	0.881670	0.625060
O691	O69	0.717650	0.386070	0.060660
O701	O70	0.790100	0.376600	0.061800
O711	O71	0.207430	0.466380	0.060540
O721	O72	0.135950	0.475500	0.059640
O731	O73	0.524980	0.750320	0.696840
O741	O74	0.536000	0.827080	0.624400
O751	O75	0.541460	0.553960	0.213360
O761	O76	0.543680	0.549050	0.286840
O771	O77	0.479510	0.193510	0.219620
O781	O78	0.482930	0.117940	0.283940
O791	O79	0.502790	0.596450	0.695300
O801	O80	0.493270	0.602710	0.625060
O811	O81	0.553270	0.717650	0.060660
O821	O82	0.561600	0.790100	0.061800
O831	O83	0.473080	0.207430	0.060540
O841	O84	0.464860	0.135950	0.059640
O851	O85	0.778180	0.552840	0.696840
O861	O86	0.839600	0.548520	0.624400
O871	O87	0.245180	0.232680	0.213360
O881	O88	0.169480	0.164110	0.286840
O891	O89	0.300870	0.586870	0.219620
O901	O90	0.233130	0.598120	0.283940
O911	O91	0.801910	0.708250	0.695300
O921	O92	0.881670	0.772230	0.625060
O931	O93	0.386070	0.221690	0.060660
O941	O94	0.376600	0.148100	0.061800
O951	O95	0.466380	0.732030	0.060540
O961	O96	0.475500	0.804410	0.059640
