data_REXCUU_clean_PM
_symmetry_space_group_name_H-M	'P1'
_cell_length_a	14.950000
_cell_length_b	18.828400
_cell_length_c	30.348000
_cell_angle_alpha	99.279700
_cell_angle_beta	90.000000
_cell_angle_gamma	113.391000
_symmetry_Int_Tables_number 1

loop_
_symmetry_equiv_pos_as_xyz
'x,y,z'

loop_
_atom_site_label
_atom_site_type_symbol
_atom_site_fract_x
_atom_site_fract_y
_atom_site_fract_z
Zn11	Zn1	0.226730	0.259280	0.056410
Zn21	Zn2	0.291380	0.834660	0.905660
Zn31	Zn3	0.966180	0.654940	0.729970
Zn41	Zn4	0.032550	0.259280	0.556410
Zn51	Zn5	0.543280	0.834660	0.405660
Zn61	Zn6	0.688760	0.654940	0.229970
H11	H1	0.104900	0.160800	0.116300
H21	H2	0.955500	0.062800	0.118300
H31	H3	0.899800	0.053400	0.988300
H41	H4	0.052300	0.154200	0.988100
H51	H5	0.571600	0.668600	0.154400
H61	H6	0.584100	0.747000	0.101600
H71	H7	0.857600	0.871400	0.149600
H81	H8	0.843000	0.776800	0.190900
H91	H9	0.496800	0.965400	0.932600
H101	H10	0.636400	0.986000	0.971900
H111	H11	0.480900	0.793000	0.024900
H121	H12	0.350100	0.775600	0.979300
H131	H13	0.465200	0.819600	0.863900
H141	H14	0.510700	0.737600	0.815400
H151	H15	0.224500	0.609800	0.777000
H161	H16	0.187600	0.687400	0.835400
H171	H17	0.829100	0.719000	0.770100
H181	H18	0.668400	0.698200	0.769300
H191	H19	0.616300	0.517800	0.666700
H201	H20	0.779100	0.539800	0.675200
H211	H21	0.050400	0.379200	0.638900
H221	H22	0.171700	0.476400	0.690800
H231	H23	0.374400	0.425600	0.619700
H241	H24	0.248300	0.331600	0.571100
H251	H25	0.055900	0.160800	0.616300
H261	H26	0.107300	0.062800	0.618300
H271	H27	0.153600	0.053400	0.488300
H281	H28	0.101900	0.154200	0.488100
H291	H29	0.097000	0.668600	0.654400
H301	H30	0.162900	0.747000	0.601600
H311	H31	0.013800	0.871400	0.649600
H321	H32	0.933800	0.776800	0.690900
H331	H33	0.468600	0.965400	0.432600
H341	H34	0.349600	0.986000	0.471900
H351	H35	0.312100	0.793000	0.524900
H361	H36	0.425500	0.775600	0.479300
H371	H37	0.354400	0.819600	0.363900
H381	H38	0.226900	0.737600	0.315400
H391	H39	0.385300	0.609800	0.277000
H401	H40	0.499800	0.687400	0.335400
H411	H41	0.889900	0.719000	0.270100
H421	H42	0.029800	0.698200	0.269300
H431	H43	0.901500	0.517800	0.166700
H441	H44	0.760700	0.539800	0.175200
H451	H45	0.328800	0.379200	0.138900
H461	H46	0.304700	0.476400	0.190800
H471	H47	0.051200	0.425600	0.119700
H481	H48	0.083300	0.331600	0.071100
C11	C1	0.062900	0.138800	0.089700
C21	C2	0.976400	0.078800	0.090500
C31	C3	0.916100	0.040000	0.052400
C41	C4	0.942800	0.073000	0.014600
C51	C5	0.032100	0.134800	0.015000
C61	C6	0.821200	0.971600	0.052800
C71	C7	0.731900	0.871000	0.086100
C81	C8	0.663600	0.904000	0.031000
C91	C9	0.631900	0.711600	0.153000
C101	C10	0.638700	0.758800	0.121800
C111	C11	0.722000	0.821000	0.119800
C121	C12	0.796500	0.828000	0.148500
C131	C13	0.786200	0.774600	0.175700
C141	C14	0.495600	0.927800	0.950300
C151	C15	0.578400	0.941800	0.974400
C161	C16	0.578600	0.891800	0.002400
C171	C17	0.487400	0.828200	0.004700
C181	C18	0.410200	0.819000	0.977700
C191	C19	0.415300	0.773000	0.848000
C201	C20	0.443700	0.728400	0.817300
C211	C21	0.371900	0.668200	0.788500
C221	C22	0.275400	0.652000	0.795600
C231	C23	0.254300	0.698400	0.830700
C241	C24	0.398800	0.620200	0.751000
C251	C25	0.518200	0.593000	0.716500
C261	C26	0.358300	0.522400	0.691300
C271	C27	0.784300	0.676400	0.749300
C281	C28	0.689400	0.665600	0.748500
C291	C29	0.623200	0.606600	0.717000
C301	C30	0.658600	0.559200	0.688900
C311	C31	0.755800	0.573400	0.693800
C321	C32	0.117000	0.388200	0.635600
C331	C33	0.188900	0.446800	0.666500
C341	C34	0.283800	0.459400	0.660400
C351	C35	0.308200	0.416600	0.624500
C361	C36	0.232400	0.360600	0.596200
C371	C37	0.075900	0.138800	0.589700
C381	C38	0.102400	0.078800	0.590500
C391	C39	0.123900	0.040000	0.552400
C401	C40	0.130200	0.073000	0.514600
C411	C41	0.102700	0.134800	0.515000
C421	C42	0.150400	0.971600	0.552800
C431	C43	0.139100	0.871000	0.586100
C441	C44	0.240400	0.904000	0.531000
C451	C45	0.079700	0.711600	0.653000
C461	C46	0.120100	0.758800	0.621800
C471	C47	0.099000	0.821000	0.619800
C481	C48	0.031500	0.828000	0.648500
C491	C49	0.988400	0.774600	0.675700
C501	C50	0.432200	0.927800	0.450300
C511	C51	0.363400	0.941800	0.474400
C521	C52	0.313200	0.891800	0.502400
C531	C53	0.340800	0.828200	0.504700
C541	C54	0.408800	0.819000	0.477700
C551	C55	0.357700	0.773000	0.348000
C561	C56	0.284700	0.728400	0.317300
C571	C57	0.296300	0.668200	0.288500
C581	C58	0.376600	0.652000	0.295600
C591	C59	0.444100	0.698400	0.330700
C601	C60	0.221400	0.620200	0.251000
C611	C61	0.074800	0.593000	0.216500
C621	C62	0.164100	0.522400	0.191300
C631	C63	0.892100	0.676400	0.249300
C641	C64	0.976200	0.665600	0.248500
C651	C65	0.983400	0.606600	0.217000
C661	C66	0.900600	0.559200	0.188900
C671	C67	0.817600	0.573400	0.193800
C681	C68	0.271200	0.388200	0.135600
C691	C69	0.257900	0.446800	0.166500
C701	C70	0.175600	0.459400	0.160400
C711	C71	0.108400	0.416600	0.124500
C721	C72	0.128200	0.360600	0.096200
I11	I1	0.248760	0.304240	0.982470
I21	I2	0.340940	0.217420	0.096570
I31	I3	0.319720	0.951200	0.867060
I41	I4	0.144060	0.758720	0.944830
I51	I5	0.030980	0.740640	0.805840
I61	I6	0.996540	0.532420	0.704620
I71	I7	0.055480	0.304240	0.482470
I81	I8	0.876480	0.217420	0.596570
I91	I9	0.631480	0.951200	0.367060
I101	I10	0.614660	0.758720	0.444830
I111	I11	0.709660	0.740640	0.305840
I121	I12	0.535880	0.532420	0.204620
N11	N1	0.091900	0.168400	0.052800
N21	N2	0.818700	0.927600	0.084600
N31	N3	0.650300	0.857000	0.060900
N41	N4	0.749300	0.961200	0.023800
N51	N5	0.706900	0.724000	0.181300
N61	N6	0.412100	0.865200	0.949500
N71	N7	0.322600	0.758200	0.858500
N81	N8	0.495600	0.639200	0.748900
N91	N9	0.456400	0.536800	0.688000
N101	N10	0.329500	0.563000	0.724800
N111	N11	0.818800	0.632000	0.723300
N121	N12	0.139300	0.344400	0.601500
N131	N13	0.076500	0.168400	0.552800
N141	N14	0.108900	0.927600	0.584600
N151	N15	0.206700	0.857000	0.560900
N161	N16	0.211900	0.961200	0.523800
N171	N17	0.017100	0.724000	0.681300
N181	N18	0.453100	0.865200	0.449500
N191	N19	0.435600	0.758200	0.358500
N201	N20	0.143600	0.639200	0.248900
N211	N21	0.080400	0.536800	0.188000
N221	N22	0.233500	0.563000	0.224800
N231	N23	0.813200	0.632000	0.223300
N241	N24	0.205100	0.344400	0.101500
Zn71	Zn7	0.967450	0.740720	0.443590
Zn81	Zn8	0.456720	0.165340	0.594340
Zn91	Zn9	0.311240	0.345060	0.770030
Zn101	Zn10	0.773270	0.740720	0.943590
Zn111	Zn11	0.708620	0.165340	0.094340
Zn121	Zn12	0.033820	0.345060	0.270030
H491	H49	0.944100	0.839200	0.383700
H501	H50	0.892700	0.937200	0.381700
H511	H51	0.846400	0.946600	0.511700
H521	H52	0.898100	0.845800	0.511900
H531	H53	0.903000	0.331400	0.345600
H541	H54	0.837100	0.253000	0.398400
H551	H55	0.986200	0.128600	0.350400
H561	H56	0.066200	0.223200	0.309100
H571	H57	0.531400	0.034600	0.567400
H581	H58	0.650400	0.014000	0.528100
H591	H59	0.687900	0.207000	0.475100
H601	H60	0.574500	0.224400	0.520700
H611	H61	0.645600	0.180400	0.636100
H621	H62	0.773100	0.262400	0.684600
H631	H63	0.614700	0.390200	0.723000
H641	H64	0.500200	0.312600	0.664600
H651	H65	0.110100	0.281000	0.729900
H661	H66	0.970200	0.301800	0.730700
H671	H67	0.098500	0.482200	0.833300
H681	H68	0.239300	0.460200	0.824800
H691	H69	0.671200	0.620800	0.861100
H701	H70	0.695300	0.523600	0.809200
H711	H71	0.948800	0.574400	0.880300
H721	H72	0.916700	0.668400	0.928900
H731	H73	0.895100	0.839200	0.883700
H741	H74	0.044500	0.937200	0.881700
H751	H75	0.100200	0.946600	0.011700
H761	H76	0.947700	0.845800	0.011900
H771	H77	0.428400	0.331400	0.845600
H781	H78	0.415900	0.253000	0.898400
H791	H79	0.142400	0.128600	0.850400
H801	H80	0.157000	0.223200	0.809100
H811	H81	0.503200	0.034600	0.067400
H821	H82	0.363600	0.014000	0.028100
H831	H83	0.519100	0.207000	0.975100
H841	H84	0.649900	0.224400	0.020700
H851	H85	0.534800	0.180400	0.136100
H861	H86	0.489300	0.262400	0.184600
H871	H87	0.775500	0.390200	0.223000
H881	H88	0.812400	0.312600	0.164600
H891	H89	0.170900	0.281000	0.229900
H901	H90	0.331600	0.301800	0.230700
H911	H91	0.383700	0.482200	0.333300
H921	H92	0.220900	0.460200	0.324800
H931	H93	0.949600	0.620800	0.361100
H941	H94	0.828300	0.523600	0.309200
H951	H95	0.625600	0.574400	0.380300
H961	H96	0.751700	0.668400	0.428900
C731	C73	0.924100	0.861200	0.410300
C741	C74	0.897600	0.921200	0.409500
C751	C75	0.876100	0.960000	0.447600
C761	C76	0.869800	0.927000	0.485400
C771	C77	0.897300	0.865200	0.485000
C781	C78	0.849600	0.028400	0.447200
C791	C79	0.860900	0.129000	0.413900
C801	C80	0.759600	0.096000	0.469000
C811	C81	0.920300	0.288400	0.347000
C821	C82	0.879900	0.241200	0.378200
C831	C83	0.901000	0.179000	0.380200
C841	C84	0.968500	0.172000	0.351500
C851	C85	0.011600	0.225400	0.324300
C861	C86	0.567800	0.072200	0.549700
C871	C87	0.636600	0.058200	0.525600
C881	C88	0.686800	0.108200	0.497600
C891	C89	0.659200	0.171800	0.495300
C901	C90	0.591200	0.181000	0.522300
C911	C91	0.642300	0.227000	0.652000
C921	C92	0.715300	0.271600	0.682700
C931	C93	0.703700	0.331800	0.711500
C941	C94	0.623400	0.348000	0.704400
C951	C95	0.555900	0.301600	0.669300
C961	C96	0.778600	0.379800	0.749000
C971	C97	0.925200	0.407000	0.783500
C981	C98	0.835900	0.477600	0.808700
C991	C99	0.107900	0.323600	0.750700
C1001	C100	0.023800	0.334400	0.751500
C1011	C101	0.016600	0.393400	0.783000
C1021	C102	0.099400	0.440800	0.811100
C1031	C103	0.182400	0.426600	0.806200
C1041	C104	0.728800	0.611800	0.864400
C1051	C105	0.742100	0.553200	0.833500
C1061	C106	0.824400	0.540600	0.839600
C1071	C107	0.891600	0.583400	0.875500
C1081	C108	0.871800	0.639400	0.903800
C1091	C109	0.937100	0.861200	0.910300
C1101	C110	0.023600	0.921200	0.909500
C1111	C111	0.083900	0.960000	0.947600
C1121	C112	0.057200	0.927000	0.985400
C1131	C113	0.967900	0.865200	0.985000
C1141	C114	0.178800	0.028400	0.947200
C1151	C115	0.268100	0.129000	0.913900
C1161	C116	0.336400	0.096000	0.969000
C1171	C117	0.368100	0.288400	0.847000
C1181	C118	0.361300	0.241200	0.878200
C1191	C119	0.278000	0.179000	0.880200
C1201	C120	0.203500	0.172000	0.851500
C1211	C121	0.213800	0.225400	0.824300
C1221	C122	0.504400	0.072200	0.049700
C1231	C123	0.421600	0.058200	0.025600
C1241	C124	0.421400	0.108200	0.997600
C1251	C125	0.512600	0.171800	0.995300
C1261	C126	0.589800	0.181000	0.022300
C1271	C127	0.584700	0.227000	0.152000
C1281	C128	0.556300	0.271600	0.182700
C1291	C129	0.628100	0.331800	0.211500
C1301	C130	0.724600	0.348000	0.204400
C1311	C131	0.745700	0.301600	0.169300
C1321	C132	0.601200	0.379800	0.249000
C1331	C133	0.481800	0.407000	0.283500
C1341	C134	0.641700	0.477600	0.308700
C1351	C135	0.215700	0.323600	0.250700
C1361	C136	0.310600	0.334400	0.251500
C1371	C137	0.376800	0.393400	0.283000
C1381	C138	0.341400	0.440800	0.311100
C1391	C139	0.244200	0.426600	0.306200
C1401	C140	0.883000	0.611800	0.364400
C1411	C141	0.811100	0.553200	0.333500
C1421	C142	0.716200	0.540600	0.339600
C1431	C143	0.691800	0.583400	0.375500
C1441	C144	0.767600	0.639400	0.403800
I131	I13	0.944520	0.695760	0.517530
I141	I14	0.123520	0.782580	0.403430
I151	I15	0.368520	0.048800	0.632940
I161	I16	0.385340	0.241280	0.555170
I171	I17	0.290340	0.259360	0.694160
I181	I18	0.464120	0.467580	0.795380
I191	I19	0.751240	0.695760	0.017530
I201	I20	0.659060	0.782580	0.903430
I211	I21	0.680280	0.048800	0.132940
I221	I22	0.855940	0.241280	0.055170
I231	I23	0.969020	0.259360	0.194160
I241	I24	0.003460	0.467580	0.295380
N251	N25	0.923500	0.831600	0.447200
N261	N26	0.891100	0.072400	0.415400
N271	N27	0.793300	0.143000	0.439100
N281	N28	0.788100	0.038800	0.476200
N291	N29	0.982900	0.276000	0.318700
N301	N30	0.546900	0.134800	0.550500
N311	N31	0.564400	0.241800	0.641500
N321	N32	0.856400	0.360800	0.751100
N331	N33	0.919600	0.463200	0.812000
N341	N34	0.766500	0.437000	0.775200
N351	N35	0.186800	0.368000	0.776700
N361	N36	0.794900	0.655600	0.898500
N371	N37	0.908100	0.831600	0.947200
N381	N38	0.181300	0.072400	0.915400
N391	N39	0.349700	0.143000	0.939100
N401	N40	0.250700	0.038800	0.976200
N411	N41	0.293100	0.276000	0.818700
N421	N42	0.587900	0.134800	0.050500
N431	N43	0.677400	0.241800	0.141500
N441	N44	0.504400	0.360800	0.251100
N451	N45	0.543600	0.463200	0.312000
N461	N46	0.670500	0.437000	0.275200
N471	N47	0.181200	0.368000	0.276700
N481	N48	0.860700	0.655600	0.398500
