data_REXDAB_clean_PM
_symmetry_space_group_name_H-M	'P1'
_cell_length_a	14.853000
_cell_length_b	32.866000
_cell_length_c	34.850000
_cell_angle_alpha	105.848000
_cell_angle_beta	90.000000
_cell_angle_gamma	90.000000
_symmetry_Int_Tables_number 1

loop_
_symmetry_equiv_pos_as_xyz
'x,y,z'

loop_
_atom_site_label
_atom_site_type_symbol
_atom_site_fract_x
_atom_site_fract_y
_atom_site_fract_z
Zn11	Zn1	0.732720	0.306050	0.869240
Zn21	Zn2	0.706010	0.671470	0.150990
Zn31	Zn3	0.185800	0.981180	0.081180
Zn41	Zn4	0.946040	0.174840	0.119580
Zn51	Zn5	0.459610	0.490340	0.083980
Zn61	Zn6	0.259780	0.307700	0.368090
Zn71	Zn7	0.915760	0.801090	0.870470
Zn81	Zn8	0.231190	0.677430	0.619520
Zn91	Zn9	0.994670	0.481310	0.587130
Zn101	Zn10	0.724070	0.989520	0.587710
Zn111	Zn11	0.448240	0.819830	0.362540
Zn121	Zn12	0.465000	0.175170	0.655750
H11	H1	0.914100	0.331100	0.900000
H21	H2	0.988900	0.378700	0.953000
H31	H3	0.754900	0.438600	0.985000
H41	H4	0.681100	0.379800	0.937600
H51	H5	0.284900	0.532800	0.106500
H61	H6	0.137600	0.531300	0.092000
H71	H7	0.177500	0.423100	0.009100
H81	H8	0.335100	0.432200	0.025900
H91	H9	0.658500	0.589800	0.090800
H101	H10	0.733500	0.523800	0.059100
H111	H11	0.968900	0.579600	0.098100
H121	H12	0.890400	0.639800	0.131200
H131	H13	0.813700	0.728600	0.114800
H141	H14	0.936800	0.773000	0.127900
H151	H15	0.967100	0.747900	0.234500
H161	H16	0.844100	0.701400	0.218300
H171	H17	0.294600	0.930500	0.126700
H181	H18	0.265000	0.886500	0.166200
H191	H19	0.999200	0.887100	0.142200
H201	H20	0.030200	0.935600	0.106800
H211	H21	0.289500	0.766800	0.323500
H221	H22	0.183800	0.763500	0.272300
H231	H23	0.321100	0.862700	0.248200
H241	H24	0.414100	0.861700	0.299800
H251	H25	0.313000	0.930100	0.016500
H261	H26	0.466100	0.926500	0.001000
H271	H27	0.515000	0.012400	0.105300
H281	H28	0.357800	0.008700	0.118600
H291	H29	0.961300	0.883300	0.930500
H301	H30	0.895400	0.937500	0.975900
H311	H31	0.659500	0.873500	0.951400
H321	H32	0.731700	0.824700	0.905800
H331	H33	0.756500	0.143500	0.115700
H341	H34	0.675000	0.080900	0.091300
H351	H35	0.915500	0.019200	0.064100
H361	H36	0.983000	0.082300	0.095400
H371	H37	0.836300	0.239900	0.095700
H381	H38	0.718900	0.287500	0.118800
H391	H39	0.714300	0.250400	0.219400
H401	H40	0.840800	0.205500	0.195300
H411	H41	0.376700	0.458100	0.150800
H421	H42	0.396200	0.404200	0.180100
H431	H43	0.629400	0.379000	0.121200
H441	H44	0.593800	0.422800	0.086000
H451	H45	0.392500	0.251400	0.306000
H461	H46	0.472600	0.254600	0.251900
H471	H47	0.391800	0.376900	0.270600
H481	H48	0.319300	0.371100	0.328200
H491	H49	0.793300	0.745900	0.808500
H501	H50	0.702800	0.751600	0.754400
H511	H51	0.792000	0.870200	0.771300
H521	H52	0.887000	0.860300	0.822100
H531	H53	0.344200	0.739700	0.595200
H541	H54	0.470000	0.782600	0.617400
H551	H55	0.464000	0.749200	0.720600
H561	H56	0.340700	0.706500	0.696000
H571	H57	0.832800	0.937100	0.634200
H581	H58	0.803200	0.887700	0.667600
H591	H59	0.543600	0.888700	0.639400
H601	H60	0.571700	0.940800	0.607300
H611	H61	0.196700	0.582200	0.588600
H621	H62	0.274900	0.520700	0.561400
H631	H63	0.503400	0.587800	0.576700
H641	H64	0.423100	0.647600	0.604100
H651	H65	0.449200	0.333400	0.391400
H661	H66	0.530400	0.385000	0.443500
H671	H67	0.288700	0.430700	0.489300
H681	H68	0.218400	0.381000	0.437000
H691	H69	0.834600	0.533400	0.603900
H701	H70	0.678400	0.533100	0.585700
H711	H71	0.717800	0.421200	0.506400
H721	H72	0.869300	0.426400	0.523000
H731	H73	0.848800	0.935800	0.522700
H741	H74	0.997700	0.931200	0.507800
H751	H75	0.050400	0.024800	0.607200
H761	H76	0.898200	0.027100	0.621100
H771	H77	0.492000	0.895300	0.428600
H781	H78	0.431000	0.942200	0.482600
H791	H79	0.186700	0.886500	0.447700
H801	H80	0.260500	0.838800	0.397900
H811	H81	0.287600	0.153200	0.616400
H821	H82	0.209600	0.090600	0.584400
H831	H83	0.446400	0.029400	0.563100
H841	H84	0.516600	0.091500	0.599200
H851	H85	0.312700	0.196100	0.716500
H861	H86	0.187000	0.238600	0.730400
H871	H87	0.244900	0.282800	0.636000
H881	H88	0.374000	0.241600	0.626900
H891	H89	0.768600	0.356500	0.817400
H901	H90	0.855500	0.360200	0.760600
H911	H91	0.974900	0.253000	0.767100
H921	H92	0.883700	0.253200	0.820000
H931	H93	0.136600	0.439700	0.622800
H941	H94	0.156600	0.388600	0.654400
H951	H95	0.886200	0.380000	0.663000
H961	H96	0.873600	0.433700	0.632600
C11	C1	0.879200	0.352000	0.918200
C21	C2	0.925800	0.381100	0.949800
C31	C3	0.878100	0.412000	0.974900
C41	C4	0.788400	0.415300	0.969600
C51	C5	0.745000	0.381300	0.938900
C61	C6	0.920800	0.443700	0.007100
C71	C7	0.041900	0.472600	0.044700
C81	C8	0.910500	0.506900	0.055200
C91	C9	0.263600	0.509200	0.086100
C101	C10	0.174900	0.508200	0.078800
C111	C11	0.139300	0.474400	0.052700
C121	C12	0.197500	0.446000	0.030500
C131	C13	0.293200	0.452100	0.041000
C141	C14	0.722000	0.587400	0.092800
C151	C15	0.767600	0.547900	0.072800
C161	C16	0.855200	0.545700	0.073900
C171	C17	0.905200	0.580700	0.096400
C181	C18	0.857900	0.616200	0.115500
C191	C19	0.845100	0.732600	0.139300
C201	C20	0.917400	0.759000	0.147000
C211	C21	0.961600	0.765000	0.182200
C221	C22	0.935900	0.743900	0.210000
C231	C23	0.862800	0.716900	0.200400
C241	C24	0.043700	0.793500	0.190000
C251	C25	0.119300	0.847900	0.179200
C261	C26	0.174000	0.815100	0.222500
C271	C27	0.234200	0.923100	0.130700
C281	C28	0.216100	0.895600	0.153000
C291	C29	0.133300	0.880800	0.157500
C301	C30	0.059100	0.896200	0.139800
C311	C31	0.079100	0.925100	0.118800
C321	C32	0.295200	0.786100	0.307800
C331	C33	0.230900	0.783800	0.277200
C341	C34	0.239900	0.813000	0.254300
C351	C35	0.312200	0.842800	0.263100
C361	C36	0.367200	0.841300	0.293500
C371	C37	0.353900	0.947500	0.034800
C381	C38	0.445500	0.944900	0.025500
C391	C39	0.505200	0.969000	0.052100
C401	C40	0.475600	0.994600	0.086600
C411	C41	0.380000	0.993300	0.093200
C421	C42	0.603400	0.968800	0.041600
C431	C43	0.723700	0.945100	0.003700
C441	C44	0.734500	0.005200	0.051600
C451	C45	0.898200	0.881900	0.934600
C461	C46	0.860300	0.913700	0.962500
C471	C47	0.768700	0.911800	0.971700
C481	C48	0.722300	0.876500	0.947900
C491	C49	0.765600	0.848100	0.920900
C501	C50	0.787700	0.117500	0.105500
C511	C51	0.738900	0.080600	0.090300
C521	C52	0.785800	0.043200	0.073400
C531	C53	0.880600	0.043900	0.074900
C541	C54	0.919400	0.081800	0.092700
C551	C55	0.811200	0.242200	0.121300
C561	C56	0.740500	0.270100	0.134500
C571	C57	0.702900	0.272000	0.170400
C581	C58	0.738900	0.248600	0.193800
C591	C59	0.814200	0.221300	0.179100
C601	C60	0.623700	0.300500	0.184400
C611	C61	0.538600	0.355100	0.177300
C621	C62	0.504700	0.321100	0.224000
C631	C63	0.427300	0.440000	0.143200
C641	C64	0.440100	0.409300	0.162100
C651	C65	0.519100	0.385600	0.154600
C661	C66	0.573900	0.393800	0.126700
C671	C67	0.554700	0.420700	0.107000
C681	C68	0.390500	0.276900	0.298300
C691	C69	0.440400	0.278700	0.266900
C701	C70	0.443800	0.316200	0.257100
C711	C71	0.393400	0.351400	0.278400
C721	C72	0.346700	0.346800	0.311000
C731	C73	0.791700	0.771600	0.801100
C741	C74	0.738200	0.775000	0.768700
C751	C75	0.737400	0.811900	0.757800
C761	C76	0.791300	0.844200	0.778200
C771	C77	0.845500	0.838900	0.809300
C781	C78	0.681100	0.815900	0.723500
C791	C79	0.561700	0.798100	0.684900
C801	C80	0.649000	0.852000	0.678300
C811	C81	0.369500	0.741100	0.620500
C821	C82	0.443800	0.767100	0.633900
C831	C83	0.479500	0.770400	0.671700
C841	C84	0.440900	0.747500	0.694800
C851	C85	0.368500	0.722200	0.680100
C861	C86	0.772700	0.927600	0.635100
C871	C87	0.754900	0.898300	0.655200
C881	C88	0.669300	0.883600	0.658100
C891	C89	0.603200	0.899100	0.639100
C901	C90	0.620100	0.929600	0.619100
C911	C91	0.260500	0.583500	0.586900
C921	C92	0.306300	0.546800	0.570400
C931	C93	0.400400	0.548000	0.567100
C941	C94	0.440100	0.585700	0.579400
C951	C95	0.391400	0.621600	0.595900
C961	C96	0.450600	0.509600	0.547300
C971	C97	0.462300	0.446700	0.500800
C981	C98	0.587000	0.476600	0.535800
C991	C99	0.417400	0.353400	0.411700
C1001	C100	0.466500	0.384800	0.442500
C1011	C101	0.417300	0.413800	0.469600
C1021	C102	0.323400	0.411800	0.469200
C1031	C103	0.282200	0.381300	0.438700
C1041	C104	0.811100	0.509900	0.584100
C1051	C105	0.716200	0.510000	0.573100
C1061	C106	0.682800	0.476300	0.544600
C1071	C107	0.739200	0.444900	0.526500
C1081	C108	0.829800	0.447800	0.537700
C1091	C109	0.890100	0.954300	0.539700
C1101	C110	0.978300	0.952000	0.531000
C1111	C111	0.043300	0.978300	0.554300
C1121	C112	0.010300	0.006600	0.589200
C1131	C113	0.919300	0.007900	0.597200
C1141	C114	0.140000	0.978600	0.543800
C1151	C115	0.256300	0.952600	0.505600
C1161	C116	0.269300	0.014000	0.552100
C1171	C117	0.429200	0.893500	0.433200
C1181	C118	0.393700	0.921700	0.465300
C1191	C119	0.297900	0.920200	0.472900
C1201	C120	0.250100	0.888600	0.445200
C1211	C121	0.293400	0.861200	0.415200
C1221	C122	0.319600	0.127300	0.607000
C1231	C123	0.273200	0.090100	0.587000
C1241	C124	0.318100	0.053900	0.571800
C1251	C125	0.412100	0.054000	0.575000
C1261	C126	0.453000	0.091000	0.596200
C1271	C127	0.299500	0.214800	0.700700
C1281	C128	0.224400	0.239600	0.708500
C1291	C129	0.201200	0.266000	0.685200
C1301	C130	0.258100	0.266000	0.653600
C1311	C131	0.334600	0.241000	0.648200
C1321	C132	0.119400	0.292700	0.693100
C1331	C133	0.990100	0.310800	0.726500
C1341	C134	0.038000	0.346800	0.684000
C1351	C135	0.809700	0.334400	0.805900
C1361	C136	0.863400	0.337500	0.772200
C1371	C137	0.926100	0.306500	0.757800
C1381	C138	0.932200	0.275000	0.776000
C1391	C139	0.877000	0.275100	0.807100
C1401	C140	0.084500	0.426700	0.630000
C1411	C141	0.097200	0.396900	0.649800
C1421	C142	0.024300	0.378500	0.663400
C1431	C143	0.938900	0.392000	0.655100
C1441	C144	0.932100	0.423100	0.635300
I11	I1	0.586300	0.339100	0.855710
I21	I2	0.748060	0.237190	0.888060
I31	I3	0.674580	0.642360	0.209700
I41	I4	0.600610	0.706930	0.113020
I51	I5	0.094120	0.956310	0.017680
I61	I6	0.171610	0.055930	0.126780
I71	I7	0.982810	0.180270	0.049490
I81	I8	0.064670	0.178690	0.170260
I91	I9	0.478400	0.562620	0.132590
I101	I10	0.552840	0.464010	0.020810
I111	I11	0.112620	0.341070	0.355440
I121	I12	0.269620	0.237970	0.384980
I131	I13	0.890540	0.730330	0.884340
I141	I14	0.067030	0.828850	0.858000
I151	I15	0.174110	0.691640	0.555260
I161	I16	0.123750	0.675260	0.673670
I171	I17	0.023820	0.554050	0.634490
I181	I18	0.100930	0.452150	0.528050
I191	I19	0.621650	0.964240	0.527320
I201	I20	0.694180	0.059330	0.639610
I211	I21	0.587140	0.856780	0.345610
I221	I22	0.454140	0.753340	0.385010
I231	I23	0.487450	0.139460	0.711120
I241	I24	0.584470	0.211670	0.624770
N11	N1	0.795400	0.351800	0.912400
N21	N2	0.009200	0.440500	0.013500
N31	N3	0.995700	0.506000	0.066400
N41	N4	0.867500	0.477100	0.026300
N51	N5	0.323300	0.481900	0.068800
N61	N6	0.769400	0.619500	0.113400
N71	N7	0.817500	0.712300	0.165300
N81	N8	0.047200	0.824400	0.171500
N91	N9	0.184100	0.846800	0.205900
N101	N10	0.105400	0.787200	0.216200
N111	N11	0.162900	0.939800	0.113900
N121	N12	0.362000	0.813400	0.315800
N131	N13	0.322100	0.973000	0.067500
N141	N14	0.636400	0.939400	0.012000
N151	N15	0.775000	0.976500	0.023500
N161	N16	0.646600	0.002600	0.063800
N171	N17	0.854400	0.848500	0.912300
N181	N18	0.876400	0.117400	0.106300
N191	N19	0.845600	0.218200	0.143700
N201	N20	0.608400	0.329100	0.164500
N211	N21	0.486000	0.352000	0.206700
N221	N22	0.571600	0.294100	0.213400
N231	N23	0.481100	0.446000	0.114900
N241	N24	0.337800	0.308100	0.320000
N251	N25	0.838700	0.803900	0.820800
N261	N26	0.610400	0.790500	0.714000
N271	N27	0.575200	0.828800	0.667000
N281	N28	0.703400	0.847500	0.708500
N291	N29	0.335300	0.719300	0.642000
N301	N30	0.706500	0.943700	0.616300
N311	N31	0.302400	0.622400	0.601300
N321	N32	0.409800	0.479900	0.520500
N331	N33	0.551300	0.444400	0.506200
N341	N34	0.539600	0.510300	0.556500
N351	N35	0.328100	0.353100	0.412400
N361	N36	0.865000	0.478200	0.567400
N371	N37	0.859900	0.983500	0.573200
N381	N38	0.170900	0.947300	0.514200
N391	N39	0.310200	0.985400	0.523000
N401	N40	0.182900	0.012400	0.564000
N411	N41	0.385700	0.864900	0.408800
N421	N42	0.406200	0.126300	0.612700
N431	N43	0.355300	0.216800	0.670500
N441	N44	0.058500	0.282700	0.717500
N451	N45	0.974700	0.341400	0.708400
N461	N46	0.113600	0.324000	0.676200
N471	N47	0.815600	0.303700	0.820300
N481	N48	0.002000	0.439700	0.619500
Zn131	Zn13	0.232720	0.693950	0.130760
Zn141	Zn14	0.206010	0.328530	0.849010
Zn151	Zn15	0.685800	0.018820	0.918820
Zn161	Zn16	0.446040	0.825160	0.880420
Zn171	Zn17	0.959610	0.509660	0.916020
Zn181	Zn18	0.759780	0.692300	0.631910
Zn191	Zn19	0.415760	0.198910	0.129530
Zn201	Zn20	0.731190	0.322570	0.380480
Zn211	Zn21	0.494670	0.518690	0.412870
Zn221	Zn22	0.224070	0.010480	0.412290
Zn231	Zn23	0.948240	0.180170	0.637460
Zn241	Zn24	0.965000	0.824830	0.344250
H971	H97	0.414100	0.668900	0.100000
H981	H98	0.488900	0.621300	0.047000
H991	H99	0.254900	0.561400	0.015000
H1001	H100	0.181100	0.620200	0.062400
H1011	H101	0.784900	0.467200	0.893500
H1021	H102	0.637600	0.468700	0.908000
H1031	H103	0.677500	0.576900	0.990900
H1041	H104	0.835100	0.567800	0.974100
H1051	H105	0.158500	0.410200	0.909200
H1061	H106	0.233500	0.476200	0.940900
H1071	H107	0.468900	0.420400	0.901900
H1081	H108	0.390400	0.360200	0.868800
H1091	H109	0.313700	0.271400	0.885200
H1101	H110	0.436800	0.227000	0.872100
H1111	H111	0.467100	0.252100	0.765500
H1121	H112	0.344100	0.298600	0.781700
H1131	H113	0.794600	0.069500	0.873300
H1141	H114	0.765000	0.113500	0.833800
H1151	H115	0.499200	0.112900	0.857800
H1161	H116	0.530200	0.064400	0.893200
H1171	H117	0.789500	0.233200	0.676500
H1181	H118	0.683800	0.236500	0.727700
H1191	H119	0.821100	0.137300	0.751800
H1201	H120	0.914100	0.138300	0.700200
H1211	H121	0.813000	0.069900	0.983500
H1221	H122	0.966100	0.073500	0.999000
H1231	H123	0.015000	0.987600	0.894700
H1241	H124	0.857800	0.991300	0.881400
H1251	H125	0.461300	0.116700	0.069500
H1261	H126	0.395400	0.062500	0.024100
H1271	H127	0.159500	0.126500	0.048600
H1281	H128	0.231700	0.175300	0.094200
H1291	H129	0.256500	0.856500	0.884300
H1301	H130	0.175000	0.919100	0.908700
H1311	H131	0.415500	0.980800	0.935900
H1321	H132	0.483000	0.917700	0.904600
H1331	H133	0.336300	0.760100	0.904300
H1341	H134	0.218900	0.712500	0.881200
H1351	H135	0.214300	0.749600	0.780600
H1361	H136	0.340800	0.794500	0.804700
H1371	H137	0.876700	0.541900	0.849200
H1381	H138	0.896200	0.595800	0.819900
H1391	H139	0.129400	0.621000	0.878800
H1401	H140	0.093800	0.577200	0.914000
H1411	H141	0.892500	0.748600	0.694000
H1421	H142	0.972600	0.745400	0.748100
H1431	H143	0.891800	0.623100	0.729400
H1441	H144	0.819300	0.628900	0.671800
H1451	H145	0.293300	0.254100	0.191500
H1461	H146	0.202800	0.248400	0.245600
H1471	H147	0.292000	0.129800	0.228700
H1481	H148	0.387000	0.139700	0.177900
H1491	H149	0.844200	0.260300	0.404800
H1501	H150	0.970000	0.217400	0.382600
H1511	H151	0.964000	0.250800	0.279400
H1521	H152	0.840700	0.293500	0.304000
H1531	H153	0.332800	0.062900	0.365800
H1541	H154	0.303200	0.112300	0.332400
H1551	H155	0.043600	0.111300	0.360600
H1561	H156	0.071700	0.059200	0.392700
H1571	H157	0.696700	0.417800	0.411400
H1581	H158	0.774900	0.479300	0.438600
H1591	H159	0.003400	0.412200	0.423300
H1601	H160	0.923100	0.352400	0.395900
H1611	H161	0.949200	0.666600	0.608600
H1621	H162	0.030400	0.615000	0.556500
H1631	H163	0.788700	0.569300	0.510700
H1641	H164	0.718400	0.619000	0.563000
H1651	H165	0.334600	0.466600	0.396100
H1661	H166	0.178400	0.466900	0.414300
H1671	H167	0.217800	0.578800	0.493600
H1681	H168	0.369300	0.573600	0.477000
H1691	H169	0.348800	0.064200	0.477300
H1701	H170	0.497700	0.068800	0.492200
H1711	H171	0.550400	0.975200	0.392800
H1721	H172	0.398200	0.972900	0.378900
H1731	H173	0.992000	0.104700	0.571400
H1741	H174	0.931000	0.057800	0.517400
H1751	H175	0.686700	0.113500	0.552300
H1761	H176	0.760500	0.161200	0.602100
H1771	H177	0.787600	0.846800	0.383600
H1781	H178	0.709600	0.909400	0.415600
H1791	H179	0.946400	0.970600	0.436900
H1801	H180	0.016600	0.908500	0.400800
H1811	H181	0.812700	0.803900	0.283500
H1821	H182	0.687000	0.761400	0.269600
H1831	H183	0.744900	0.717200	0.364000
H1841	H184	0.874000	0.758400	0.373100
H1851	H185	0.268600	0.643500	0.182600
H1861	H186	0.355500	0.639800	0.239400
H1871	H187	0.474900	0.747000	0.232900
H1881	H188	0.383700	0.746800	0.180000
H1891	H189	0.636600	0.560300	0.377200
H1901	H190	0.656600	0.611400	0.345600
H1911	H191	0.386200	0.620000	0.337000
H1921	H192	0.373600	0.566300	0.367400
C1451	C145	0.379200	0.648000	0.081800
C1461	C146	0.425800	0.618900	0.050200
C1471	C147	0.378100	0.588000	0.025100
C1481	C148	0.288400	0.584700	0.030400
C1491	C149	0.245000	0.618700	0.061100
C1501	C150	0.420800	0.556300	0.992900
C1511	C151	0.541900	0.527400	0.955300
C1521	C152	0.410500	0.493100	0.944800
C1531	C153	0.763600	0.490800	0.913900
C1541	C154	0.674900	0.491800	0.921200
C1551	C155	0.639300	0.525600	0.947300
C1561	C156	0.697500	0.554000	0.969500
C1571	C157	0.793200	0.547900	0.959000
C1581	C158	0.222000	0.412600	0.907200
C1591	C159	0.267600	0.452100	0.927200
C1601	C160	0.355200	0.454300	0.926100
C1611	C161	0.405200	0.419300	0.903600
C1621	C162	0.357900	0.383800	0.884500
C1631	C163	0.345100	0.267400	0.860700
C1641	C164	0.417400	0.241000	0.853000
C1651	C165	0.461600	0.235000	0.817800
C1661	C166	0.435900	0.256100	0.790000
C1671	C167	0.362800	0.283100	0.799600
C1681	C168	0.543700	0.206500	0.810000
C1691	C169	0.619300	0.152100	0.820800
C1701	C170	0.674000	0.184900	0.777500
C1711	C171	0.734200	0.076900	0.869300
C1721	C172	0.716100	0.104400	0.847000
C1731	C173	0.633300	0.119200	0.842500
C1741	C174	0.559100	0.103800	0.860200
C1751	C175	0.579100	0.074900	0.881200
C1761	C176	0.795200	0.213900	0.692200
C1771	C177	0.730900	0.216200	0.722800
C1781	C178	0.739900	0.187000	0.745700
C1791	C179	0.812200	0.157200	0.736900
C1801	C180	0.867200	0.158700	0.706500
C1811	C181	0.853900	0.052500	0.965200
C1821	C182	0.945500	0.055100	0.974500
C1831	C183	0.005200	0.031000	0.947900
C1841	C184	0.975600	0.005400	0.913400
C1851	C185	0.880000	0.006700	0.906800
C1861	C186	0.103400	0.031200	0.958400
C1871	C187	0.223700	0.054900	0.996300
C1881	C188	0.234500	0.994800	0.948400
C1891	C189	0.398200	0.118100	0.065400
C1901	C190	0.360300	0.086300	0.037500
C1911	C191	0.268700	0.088200	0.028300
C1921	C192	0.222300	0.123500	0.052100
C1931	C193	0.265600	0.151900	0.079100
C1941	C194	0.287700	0.882500	0.894500
C1951	C195	0.238900	0.919400	0.909700
C1961	C196	0.285800	0.956800	0.926600
C1971	C197	0.380600	0.956100	0.925100
C1981	C198	0.419400	0.918200	0.907300
C1991	C199	0.311200	0.757800	0.878700
C2001	C200	0.240500	0.729900	0.865500
C2011	C201	0.202900	0.728000	0.829600
C2021	C202	0.238900	0.751400	0.806200
C2031	C203	0.314200	0.778700	0.820900
C2041	C204	0.123700	0.699500	0.815600
C2051	C205	0.038600	0.644900	0.822700
C2061	C206	0.004700	0.678900	0.776000
C2071	C207	0.927300	0.560000	0.856800
C2081	C208	0.940100	0.590700	0.837900
C2091	C209	0.019100	0.614400	0.845400
C2101	C210	0.073900	0.606200	0.873300
C2111	C211	0.054700	0.579300	0.893000
C2121	C212	0.890500	0.723100	0.701700
C2131	C213	0.940400	0.721300	0.733100
C2141	C214	0.943800	0.683800	0.742900
C2151	C215	0.893400	0.648600	0.721600
C2161	C216	0.846700	0.653200	0.689000
C2171	C217	0.291700	0.228400	0.198900
C2181	C218	0.238200	0.225000	0.231300
C2191	C219	0.237400	0.188100	0.242200
C2201	C220	0.291300	0.155800	0.221800
C2211	C221	0.345500	0.161100	0.190700
C2221	C222	0.181100	0.184100	0.276500
C2231	C223	0.061700	0.201900	0.315100
C2241	C224	0.149000	0.148000	0.321700
C2251	C225	0.869500	0.258900	0.379500
C2261	C226	0.943800	0.232900	0.366100
C2271	C227	0.979500	0.229600	0.328300
C2281	C228	0.940900	0.252500	0.305200
C2291	C229	0.868500	0.277800	0.319900
C2301	C230	0.272700	0.072400	0.364900
C2311	C231	0.254900	0.101700	0.344800
C2321	C232	0.169300	0.116400	0.341900
C2331	C233	0.103200	0.100900	0.360900
C2341	C234	0.120100	0.070400	0.380900
C2351	C235	0.760500	0.416500	0.413100
C2361	C236	0.806300	0.453200	0.429600
C2371	C237	0.900400	0.452000	0.432900
C2381	C238	0.940100	0.414300	0.420600
C2391	C239	0.891400	0.378400	0.404100
C2401	C240	0.950600	0.490400	0.452700
C2411	C241	0.962300	0.553300	0.499200
C2421	C242	0.087000	0.523400	0.464200
C2431	C243	0.917400	0.646600	0.588300
C2441	C244	0.966500	0.615200	0.557500
C2451	C245	0.917300	0.586200	0.530400
C2461	C246	0.823400	0.588200	0.530800
C2471	C247	0.782200	0.618700	0.561300
C2481	C248	0.311100	0.490100	0.415900
C2491	C249	0.216200	0.490000	0.426900
C2501	C250	0.182800	0.523700	0.455400
C2511	C251	0.239200	0.555100	0.473500
C2521	C252	0.329800	0.552200	0.462300
C2531	C253	0.390100	0.045700	0.460300
C2541	C254	0.478300	0.048000	0.469000
C2551	C255	0.543300	0.021700	0.445700
C2561	C256	0.510300	0.993400	0.410800
C2571	C257	0.419300	0.992100	0.402800
C2581	C258	0.640000	0.021400	0.456200
C2591	C259	0.756300	0.047400	0.494400
C2601	C260	0.769300	0.986000	0.447900
C2611	C261	0.929200	0.106500	0.566800
C2621	C262	0.893700	0.078300	0.534700
C2631	C263	0.797900	0.079800	0.527100
C2641	C264	0.750100	0.111400	0.554800
C2651	C265	0.793400	0.138800	0.584800
C2661	C266	0.819600	0.872700	0.393000
C2671	C267	0.773200	0.909900	0.413000
C2681	C268	0.818100	0.946100	0.428200
C2691	C269	0.912100	0.946000	0.425000
C2701	C270	0.953000	0.909000	0.403800
C2711	C271	0.799500	0.785200	0.299300
C2721	C272	0.724400	0.760400	0.291500
C2731	C273	0.701200	0.734000	0.314800
C2741	C274	0.758100	0.734000	0.346400
C2751	C275	0.834600	0.759000	0.351800
C2761	C276	0.619400	0.707300	0.306900
C2771	C277	0.490100	0.689200	0.273500
C2781	C278	0.538000	0.653200	0.316000
C2791	C279	0.309700	0.665600	0.194100
C2801	C280	0.363400	0.662500	0.227800
C2811	C281	0.426100	0.693500	0.242200
C2821	C282	0.432200	0.725000	0.224000
C2831	C283	0.377000	0.724900	0.192900
C2841	C284	0.584500	0.573300	0.370000
C2851	C285	0.597200	0.603100	0.350200
C2861	C286	0.524300	0.621500	0.336600
C2871	C287	0.438900	0.608000	0.344900
C2881	C288	0.432100	0.576900	0.364700
I251	I25	0.086300	0.660900	0.144290
I261	I26	0.248060	0.762810	0.111940
I271	I27	0.174580	0.357640	0.790300
I281	I28	0.100610	0.293070	0.886980
I291	I29	0.594120	0.043690	0.982320
I301	I30	0.671610	0.944070	0.873220
I311	I31	0.482810	0.819730	0.950510
I321	I32	0.564670	0.821310	0.829740
I331	I33	0.978400	0.437380	0.867410
I341	I34	0.052840	0.535990	0.979190
I351	I35	0.612620	0.658930	0.644560
I361	I36	0.769620	0.762030	0.615020
I371	I37	0.390540	0.269670	0.115660
I381	I38	0.567030	0.171150	0.142000
I391	I39	0.674110	0.308360	0.444740
I401	I40	0.623750	0.324740	0.326330
I411	I41	0.523820	0.445950	0.365510
I421	I42	0.600930	0.547850	0.471950
I431	I43	0.121650	0.035760	0.472680
I441	I44	0.194180	0.940670	0.360390
I451	I45	0.087140	0.143220	0.654390
I461	I46	0.954140	0.246660	0.614990
I471	I47	0.987450	0.860540	0.288880
I481	I48	0.084470	0.788330	0.375230
N491	N49	0.295400	0.648200	0.087600
N501	N50	0.509200	0.559500	0.986500
N511	N51	0.495700	0.494000	0.933600
N521	N52	0.367500	0.522900	0.973700
N531	N53	0.823300	0.518100	0.931200
N541	N54	0.269400	0.380500	0.886600
N551	N55	0.317500	0.287700	0.834700
N561	N56	0.547200	0.175600	0.828500
N571	N57	0.684100	0.153200	0.794100
N581	N58	0.605400	0.212800	0.783800
N591	N59	0.662900	0.060200	0.886100
N601	N60	0.862000	0.186600	0.684200
N611	N61	0.822100	0.027000	0.932500
N621	N62	0.136400	0.060600	0.988000
N631	N63	0.275000	0.023500	0.976500
N641	N64	0.146600	0.997400	0.936200
N651	N65	0.354400	0.151500	0.087700
N661	N66	0.376400	0.882600	0.893700
N671	N67	0.345600	0.781800	0.856300
N681	N68	0.108400	0.670900	0.835500
N691	N69	0.986000	0.648000	0.793300
N701	N70	0.071600	0.705900	0.786600
N711	N71	0.981100	0.554000	0.885100
N721	N72	0.837800	0.691900	0.680000
N731	N73	0.338700	0.196100	0.179200
N741	N74	0.110400	0.209500	0.286000
N751	N75	0.075200	0.171200	0.333000
N761	N76	0.203400	0.152500	0.291500
N771	N77	0.835300	0.280700	0.358000
N781	N78	0.206500	0.056300	0.383700
N791	N79	0.802400	0.377600	0.398700
N801	N80	0.909800	0.520100	0.479500
N811	N81	0.051300	0.555600	0.493800
N821	N82	0.039600	0.489700	0.443500
N831	N83	0.828100	0.646900	0.587600
N841	N84	0.365000	0.521800	0.432600
N851	N85	0.359900	0.016500	0.426800
N861	N86	0.670900	0.052700	0.485800
N871	N87	0.810200	0.014600	0.477000
N881	N88	0.682900	0.987600	0.436000
N891	N89	0.885700	0.135100	0.591200
N901	N90	0.906200	0.873700	0.387300
N911	N91	0.855300	0.783200	0.329500
N921	N92	0.558500	0.717300	0.282500
N931	N93	0.474700	0.658600	0.291600
N941	N94	0.613600	0.676000	0.323800
N951	N95	0.315600	0.696300	0.179700
N961	N96	0.502000	0.560300	0.380500
