data_REXDIJ_clean_PM
_symmetry_space_group_name_H-M	'P1'
_cell_length_a	14.902000
_cell_length_b	19.417500
_cell_length_c	31.358000
_cell_angle_alpha	101.708000
_cell_angle_beta	90.000000
_cell_angle_gamma	112.565000
_symmetry_Int_Tables_number 1

loop_
_symmetry_equiv_pos_as_xyz
'x,y,z'

loop_
_atom_site_label
_atom_site_type_symbol
_atom_site_fract_x
_atom_site_fract_y
_atom_site_fract_z
Zn11	Zn1	0.529550	0.349960	0.282600
Zn21	Zn2	0.477760	0.755920	0.429710
Zn31	Zn3	0.956030	0.145840	0.601450
Zn41	Zn4	0.820410	0.349960	0.782600
Zn51	Zn5	0.278160	0.755920	0.929710
Zn61	Zn6	0.189810	0.145840	0.101450
H11	H1	0.726400	0.477200	0.325900
H21	H2	0.889900	0.498400	0.326100
H31	H3	0.826200	0.300400	0.239700
H41	H4	0.661400	0.278800	0.244100
H51	H5	0.455600	0.638400	0.346100
H61	H6	0.337200	0.537200	0.300700
H71	H7	0.137100	0.600000	0.365600
H81	H8	0.262200	0.695200	0.412000
H91	H9	0.021600	0.171400	0.140000
H101	H10	0.984000	0.255800	0.194300
H111	H11	0.272800	0.388200	0.218900
H121	H12	0.301800	0.301600	0.163100
H131	H13	0.397200	0.852400	0.495300
H141	H14	0.361400	0.959200	0.503400
H151	H15	0.413000	0.961600	0.376800
H161	H16	0.442300	0.850400	0.372100
H171	H17	0.067400	0.213400	0.531900
H181	H18	0.198000	0.212400	0.492700
H191	H19	0.163200	0.013200	0.524200
H201	H20	0.038200	0.023800	0.564000
H211	H21	0.495600	0.195200	0.293400
H221	H22	0.431600	0.112400	0.338900
H231	H23	0.377700	0.278400	0.418100
H241	H24	0.437800	0.356600	0.369800
H251	H25	0.750800	0.477200	0.825900
H261	H26	0.608500	0.498400	0.826100
H271	H27	0.474200	0.300400	0.739700
H281	H28	0.617400	0.278800	0.744100
H291	H29	0.182800	0.638400	0.846100
H301	H30	0.200000	0.537200	0.800700
H311	H31	0.462900	0.600000	0.865600
H321	H32	0.433000	0.695200	0.912000
H331	H33	0.149800	0.171400	0.640000
H341	H34	0.271800	0.255800	0.694300
H351	H35	0.115400	0.388200	0.718900
H361	H36	0.999800	0.301600	0.663100
H371	H37	0.455200	0.852400	0.995300
H381	H38	0.597800	0.959200	0.003400
H391	H39	0.548600	0.961600	0.876800
H401	H40	0.408100	0.850400	0.872100
H411	H41	0.146000	0.213400	0.031900
H421	H42	0.014400	0.212400	0.992700
H431	H43	0.850000	0.013200	0.024200
H441	H44	0.985600	0.023800	0.064000
H451	H45	0.699600	0.195200	0.793400
H461	H46	0.680800	0.112400	0.838900
H471	H47	0.900700	0.278400	0.918100
H481	H48	0.918800	0.356600	0.869800
C11	C1	0.746300	0.440000	0.309000
C21	C2	0.843700	0.453000	0.308200
C31	C3	0.876800	0.403000	0.282500
C41	C4	0.807700	0.337200	0.258100
C51	C5	0.709200	0.324800	0.260900
C61	C6	0.982400	0.419600	0.279300
C71	C7	0.141300	0.491600	0.298600
C81	C8	0.097100	0.386400	0.245900
C91	C9	0.389200	0.628600	0.350800
C101	C10	0.319700	0.569800	0.322900
C111	C11	0.221800	0.557600	0.327400
C121	C12	0.202500	0.606000	0.361300
C131	C13	0.277400	0.662600	0.388800
C141	C14	0.072900	0.215400	0.156600
C151	C15	0.050000	0.266800	0.188300
C161	C16	0.123200	0.333200	0.210900
C171	C17	0.220100	0.345000	0.202700
C181	C18	0.236800	0.291800	0.170500
C191	C19	0.404000	0.876600	0.471400
C201	C20	0.380400	0.938800	0.476400
C211	C21	0.385500	0.970000	0.441100
C221	C22	0.410300	0.939600	0.401500
C231	C23	0.430900	0.875600	0.399500
C241	C24	0.356000	0.036600	0.443200
C251	C25	0.262100	0.101600	0.471800
C261	C26	0.361900	0.136400	0.416500
C271	C27	0.089700	0.173600	0.531800
C281	C28	0.164000	0.171000	0.506200
C291	C29	0.188600	0.110000	0.500300
C301	C30	0.144400	0.054800	0.524900
C311	C31	0.072900	0.064000	0.549900
C321	C32	0.473400	0.213200	0.320100
C331	C33	0.435000	0.163400	0.346900
C341	C34	0.401500	0.187400	0.384900
C351	C35	0.403400	0.260400	0.392500
C361	C36	0.440900	0.307600	0.364300
C371	C37	0.693700	0.440000	0.809000
C381	C38	0.609300	0.453000	0.808200
C391	C39	0.526200	0.403000	0.782500
C401	C40	0.529500	0.337200	0.758100
C411	C41	0.615600	0.324800	0.760900
C421	C42	0.437200	0.419600	0.779300
C431	C43	0.350300	0.491600	0.798600
C441	C44	0.289300	0.386400	0.745900
C451	C45	0.239400	0.628600	0.850800
C461	C46	0.250100	0.569800	0.822900
C471	C47	0.335800	0.557600	0.827400
C481	C48	0.403500	0.606000	0.861300
C491	C49	0.385200	0.662600	0.888800
C501	C50	0.142500	0.215400	0.656600
C511	C51	0.216800	0.266800	0.688300
C521	C52	0.210000	0.333200	0.710900
C531	C53	0.124900	0.345000	0.702700
C541	C54	0.055000	0.291800	0.670500
C551	C55	0.472600	0.876600	0.971400
C561	C56	0.558400	0.938800	0.976400
C571	C57	0.584500	0.970000	0.941100
C581	C58	0.529300	0.939600	0.901500
C591	C59	0.444700	0.875600	0.899500
C601	C60	0.680600	0.036600	0.943200
C611	C61	0.839500	0.101600	0.971800
C621	C62	0.774500	0.136400	0.916500
C631	C63	0.083900	0.173600	0.031800
C641	C64	0.007000	0.171000	0.006200
C651	C65	0.921400	0.110000	0.000300
C661	C66	0.910400	0.054800	0.024900
C671	C67	0.991100	0.064000	0.049900
C681	C68	0.739800	0.213200	0.820100
C691	C69	0.728400	0.163400	0.846900
C701	C70	0.785900	0.187400	0.884900
C711	C71	0.857000	0.260400	0.892500
C721	C72	0.866700	0.307600	0.864300
I11	I1	0.456730	0.261100	0.208230
I21	I2	0.506460	0.474260	0.308380
I31	I3	0.454500	0.710660	0.500710
I41	I4	0.634870	0.791680	0.392460
I51	I5	0.873570	0.030760	0.634940
I61	I6	0.867460	0.211100	0.568420
I71	I7	0.804370	0.261100	0.708230
I81	I8	0.967800	0.474260	0.808380
I91	I9	0.256160	0.710660	0.000710
I101	I10	0.156810	0.791680	0.892460
I111	I11	0.157190	0.030760	0.134940
I121	I12	0.343640	0.211100	0.068420
N11	N1	0.680000	0.374400	0.285900
N21	N2	0.050300	0.481400	0.306400
N31	N3	0.169800	0.447200	0.269500
N41	N4	0.001700	0.368000	0.249600
N51	N5	0.370200	0.674000	0.384600
N61	N6	0.164500	0.226800	0.149200
N71	N7	0.435600	0.847200	0.435500
N81	N8	0.296100	0.046200	0.473400
N91	N9	0.298100	0.150000	0.444500
N101	N10	0.390000	0.079000	0.414000
N111	N11	0.047100	0.123200	0.556500
N121	N12	0.481700	0.285600	0.329400
N131	N13	0.694400	0.374400	0.785900
N141	N14	0.431100	0.481400	0.806400
N151	N15	0.277400	0.447200	0.769500
N161	N16	0.366300	0.368000	0.749600
N171	N17	0.303800	0.674000	0.884600
N181	N18	0.062300	0.226800	0.649200
N191	N19	0.411600	0.847200	0.935500
N201	N20	0.750100	0.046200	0.973400
N211	N21	0.851900	0.150000	0.944500
N221	N22	0.689000	0.079000	0.914000
N231	N23	0.076100	0.123200	0.056500
N241	N24	0.803900	0.285600	0.829400
Zn71	Zn7	0.179590	0.650040	0.217400
Zn81	Zn8	0.721840	0.244080	0.070290
Zn91	Zn9	0.810190	0.854160	0.898550
Zn101	Zn10	0.470450	0.650040	0.717400
Zn111	Zn11	0.522240	0.244080	0.570290
Zn121	Zn12	0.043970	0.854160	0.398550
H491	H49	0.249200	0.522800	0.174100
H501	H50	0.391500	0.501600	0.173900
H511	H51	0.525800	0.699600	0.260300
H521	H52	0.382600	0.721200	0.255900
H531	H53	0.817200	0.361600	0.153900
H541	H54	0.800000	0.462800	0.199300
H551	H55	0.537100	0.400000	0.134400
H561	H56	0.567000	0.304800	0.088000
H571	H57	0.850200	0.828600	0.360000
H581	H58	0.728200	0.744200	0.305700
H591	H59	0.884600	0.611800	0.281100
H601	H60	0.000200	0.698400	0.336900
H611	H61	0.544800	0.147600	0.004700
H621	H62	0.402200	0.040800	0.996600
H631	H63	0.451400	0.038400	0.123200
H641	H64	0.591900	0.149600	0.127900
H651	H65	0.854000	0.786600	0.968100
H661	H66	0.985600	0.787600	0.007300
H671	H67	0.150000	0.986800	0.975800
H681	H68	0.014400	0.976200	0.936000
H691	H69	0.300400	0.804800	0.206600
H701	H70	0.319200	0.887600	0.161100
H711	H71	0.099300	0.721600	0.081900
H721	H72	0.081200	0.643400	0.130200
H731	H73	0.273600	0.522800	0.674100
H741	H74	0.110100	0.501600	0.673900
H751	H75	0.173800	0.699600	0.760300
H761	H76	0.338600	0.721200	0.755900
H771	H77	0.544400	0.361600	0.653900
H781	H78	0.662800	0.462800	0.699300
H791	H79	0.862900	0.400000	0.634400
H801	H80	0.737800	0.304800	0.588000
H811	H81	0.978400	0.828600	0.860000
H821	H82	0.016000	0.744200	0.805700
H831	H83	0.727200	0.611800	0.781100
H841	H84	0.698200	0.698400	0.836900
H851	H85	0.602800	0.147600	0.504700
H861	H86	0.638600	0.040800	0.496600
H871	H87	0.587000	0.038400	0.623200
H881	H88	0.557700	0.149600	0.627900
H891	H89	0.932600	0.786600	0.468100
H901	H90	0.802000	0.787600	0.507300
H911	H91	0.836800	0.986800	0.475800
H921	H92	0.961800	0.976200	0.436000
H931	H93	0.504400	0.804800	0.706600
H941	H94	0.568400	0.887600	0.661100
H951	H95	0.622300	0.721600	0.581900
H961	H96	0.562200	0.643400	0.630200
C731	C73	0.306300	0.560000	0.191000
C741	C74	0.390700	0.547000	0.191800
C751	C75	0.473800	0.597000	0.217500
C761	C76	0.470500	0.662800	0.241900
C771	C77	0.384400	0.675200	0.239100
C781	C78	0.562800	0.580400	0.220700
C791	C79	0.649700	0.508400	0.201400
C801	C80	0.710700	0.613600	0.254100
C811	C81	0.760600	0.371400	0.149200
C821	C82	0.749900	0.430200	0.177100
C831	C83	0.664200	0.442400	0.172600
C841	C84	0.596500	0.394000	0.138700
C851	C85	0.614800	0.337400	0.111200
C861	C86	0.857500	0.784600	0.343400
C871	C87	0.783200	0.733200	0.311700
C881	C88	0.790000	0.666800	0.289100
C891	C89	0.875100	0.655000	0.297300
C901	C90	0.945000	0.708200	0.329500
C911	C91	0.527400	0.123400	0.028600
C921	C92	0.441600	0.061200	0.023600
C931	C93	0.415500	0.030000	0.058900
C941	C94	0.470700	0.060400	0.098500
C951	C95	0.555300	0.124400	0.100500
C961	C96	0.319400	0.963400	0.056800
C971	C97	0.160500	0.898400	0.028200
C981	C98	0.225500	0.863600	0.083500
C991	C99	0.916100	0.826400	0.968200
C1001	C100	0.993000	0.829000	0.993800
C1011	C101	0.078600	0.890000	0.999700
C1021	C102	0.089600	0.945200	0.975100
C1031	C103	0.008900	0.936000	0.950100
C1041	C104	0.260200	0.786800	0.179900
C1051	C105	0.271600	0.836600	0.153100
C1061	C106	0.214100	0.812600	0.115100
C1071	C107	0.143000	0.739600	0.107500
C1081	C108	0.133300	0.692400	0.135700
C1091	C109	0.253700	0.560000	0.691000
C1101	C110	0.156300	0.547000	0.691800
C1111	C111	0.123200	0.597000	0.717500
C1121	C112	0.192300	0.662800	0.741900
C1131	C113	0.290800	0.675200	0.739100
C1141	C114	0.017600	0.580400	0.720700
C1151	C115	0.858700	0.508400	0.701400
C1161	C116	0.902900	0.613600	0.754100
C1171	C117	0.610800	0.371400	0.649200
C1181	C118	0.680300	0.430200	0.677100
C1191	C119	0.778200	0.442400	0.672600
C1201	C120	0.797500	0.394000	0.638700
C1211	C121	0.722600	0.337400	0.611200
C1221	C122	0.927100	0.784600	0.843400
C1231	C123	0.950000	0.733200	0.811700
C1241	C124	0.876800	0.666800	0.789100
C1251	C125	0.779900	0.655000	0.797300
C1261	C126	0.763200	0.708200	0.829500
C1271	C127	0.596000	0.123400	0.528600
C1281	C128	0.619600	0.061200	0.523600
C1291	C129	0.614500	0.030000	0.558900
C1301	C130	0.589700	0.060400	0.598500
C1311	C131	0.569100	0.124400	0.600500
C1321	C132	0.644000	0.963400	0.556800
C1331	C133	0.737900	0.898400	0.528200
C1341	C134	0.638100	0.863600	0.583500
C1351	C135	0.910300	0.826400	0.468200
C1361	C136	0.836000	0.829000	0.493800
C1371	C137	0.811400	0.890000	0.499700
C1381	C138	0.855600	0.945200	0.475100
C1391	C139	0.927100	0.936000	0.450100
C1401	C140	0.526600	0.786800	0.679900
C1411	C141	0.565000	0.836600	0.653100
C1421	C142	0.598500	0.812600	0.615100
C1431	C143	0.596600	0.739600	0.607500
C1441	C144	0.559100	0.692400	0.635700
I131	I13	0.195630	0.738900	0.291770
I141	I14	0.032200	0.525740	0.191620
I151	I15	0.743840	0.289340	0.999290
I161	I16	0.843190	0.208320	0.107540
I171	I17	0.842810	0.969240	0.865060
I181	I18	0.656360	0.788900	0.931580
I191	I19	0.543270	0.738900	0.791770
I201	I20	0.493540	0.525740	0.691620
I211	I21	0.545500	0.289340	0.499290
I221	I22	0.365130	0.208320	0.607540
I231	I23	0.126430	0.969240	0.365060
I241	I24	0.132540	0.788900	0.431580
N251	N25	0.305600	0.625600	0.214100
N261	N26	0.568900	0.518600	0.193600
N271	N27	0.722600	0.552800	0.230500
N281	N28	0.633700	0.632000	0.250400
N291	N29	0.696200	0.326000	0.115400
N301	N30	0.937700	0.773200	0.350800
N311	N31	0.588400	0.152800	0.064500
N321	N32	0.249900	0.953800	0.026600
N331	N33	0.148100	0.850000	0.055500
N341	N34	0.311000	0.921000	0.086000
N351	N35	0.923900	0.876800	0.943500
N361	N36	0.196100	0.714400	0.170600
N371	N37	0.320000	0.625600	0.714100
N381	N38	0.949700	0.518600	0.693600
N391	N39	0.830200	0.552800	0.730500
N401	N40	0.998300	0.632000	0.750400
N411	N41	0.629800	0.326000	0.615400
N421	N42	0.835500	0.773200	0.850800
N431	N43	0.564400	0.152800	0.564500
N441	N44	0.703900	0.953800	0.526600
N451	N45	0.701900	0.850000	0.555500
N461	N46	0.610000	0.921000	0.586000
N471	N47	0.952900	0.876800	0.443500
N481	N48	0.518300	0.714400	0.670600
