data_REXFOR_clean_PM
_symmetry_space_group_name_H-M	'P1'
_cell_length_a	14.879000
_cell_length_b	18.852000
_cell_length_c	30.836000
_cell_angle_alpha	100.818000
_cell_angle_beta	90.000000
_cell_angle_gamma	113.243000
_symmetry_Int_Tables_number 1

loop_
_symmetry_equiv_pos_as_xyz
'x,y,z'

loop_
_atom_site_label
_atom_site_type_symbol
_atom_site_fract_x
_atom_site_fract_y
_atom_site_fract_z
Zn11	Zn1	0.520400	0.252080	0.558320
Zn21	Zn2	0.799750	0.846020	0.903310
Zn31	Zn3	0.181320	0.648240	0.223690
Zn41	Zn4	0.731680	0.252080	0.058320
Zn51	Zn5	0.046270	0.846020	0.403310
Zn61	Zn6	0.466920	0.648240	0.723690
H11	H1	0.740400	0.323400	0.572700
H21	H2	0.867300	0.413200	0.624400
H31	H3	0.662800	0.462600	0.695700
H41	H4	0.542600	0.366600	0.645400
H51	H5	0.332800	0.721000	0.760500
H61	H6	0.171200	0.703800	0.761200
H71	H7	0.106900	0.506600	0.670000
H81	H8	0.270000	0.528600	0.669700
H91	H9	0.691700	0.693000	0.836000
H101	H10	0.724600	0.609200	0.780600
H111	H11	0.010600	0.738600	0.813800
H121	H12	0.970900	0.821600	0.865300
H131	H13	0.008200	0.969800	0.933700
H141	H14	0.144500	0.987400	0.974600
H151	H15	0.978800	0.797800	0.023200
H161	H16	0.850200	0.781400	0.974200
H171	H17	0.632700	0.125400	0.106300
H181	H18	0.479200	0.030600	0.110400
H191	H19	0.395500	0.056400	0.994500
H201	H20	0.542600	0.154400	0.995100
H211	H21	0.077200	0.644800	0.137300
H221	H22	0.088700	0.726000	0.088500
H231	H23	0.343600	0.881200	0.156200
H241	H24	0.319400	0.799600	0.206400
H251	H25	0.583000	0.323400	0.072700
H261	H26	0.545900	0.413200	0.124400
H271	H27	0.799800	0.462600	0.195700
H281	H28	0.824000	0.366600	0.145400
H291	H29	0.388200	0.721000	0.260500
H301	H30	0.532600	0.703800	0.261200
H311	H31	0.399700	0.506600	0.170000
H321	H32	0.258600	0.528600	0.169700
H331	H33	0.001300	0.693000	0.336000
H341	H34	0.884600	0.609200	0.280600
H351	H35	0.728000	0.738600	0.313800
H361	H36	0.850700	0.821600	0.365300
H371	H37	0.961600	0.969800	0.433700
H381	H38	0.842900	0.987400	0.474600
H391	H39	0.819000	0.797800	0.523200
H401	H40	0.931200	0.781400	0.474200
H411	H41	0.492700	0.125400	0.606300
H421	H42	0.551400	0.030600	0.610400
H431	H43	0.660900	0.056400	0.494500
H441	H44	0.611800	0.154400	0.495100
H451	H45	0.567600	0.644800	0.637300
H461	H46	0.637300	0.726000	0.588500
H471	H47	0.537600	0.881200	0.656200
H481	H48	0.480200	0.799600	0.706400
C11	C1	0.724900	0.350000	0.599100
C21	C2	0.801100	0.405400	0.628600
C31	C3	0.777000	0.450200	0.665400
C41	C4	0.680600	0.433800	0.671000
C51	C5	0.609200	0.376000	0.641100
C61	C6	0.856000	0.516600	0.694600
C71	C7	0.015200	0.586600	0.716600
C81	C8	0.900200	0.617200	0.751100
C91	C9	0.285400	0.675200	0.742100
C101	C10	0.189900	0.666600	0.742500
C111	C11	0.122500	0.601800	0.714600
C121	C12	0.153700	0.552000	0.689100
C131	C13	0.250100	0.563600	0.689500
C141	C14	0.758300	0.703200	0.831000
C151	C15	0.777300	0.653600	0.797400
C161	C16	0.872400	0.667800	0.788000
C171	C17	0.943400	0.729200	0.816500
C181	C18	0.919000	0.776800	0.848300
C191	C19	0.002800	0.931800	0.951000
C201	C20	0.084500	0.944200	0.975800
C211	C21	0.078500	0.893400	0.002200
C221	C22	0.987900	0.832600	0.003400
C231	C23	0.911300	0.824800	0.974700
C241	C24	0.164800	0.903000	0.030700
C251	C25	0.325900	0.965400	0.054500
C261	C26	0.230000	0.865400	0.084900
C271	C27	0.582100	0.113600	0.084000
C281	C28	0.492500	0.054600	0.085300
C291	C29	0.422500	0.030200	0.051500
C301	C30	0.443200	0.070200	0.018600
C311	C31	0.530000	0.129000	0.019700
C321	C32	0.131000	0.694600	0.141600
C331	C33	0.137900	0.742200	0.112200
C341	C34	0.217200	0.814200	0.117300
C351	C35	0.286400	0.833400	0.152400
C361	C36	0.272700	0.783800	0.181700
C371	C37	0.625100	0.350000	0.099100
C381	C38	0.604300	0.405400	0.128600
C391	C39	0.673200	0.450200	0.165400
C401	C40	0.753200	0.433800	0.171000
C411	C41	0.766800	0.376000	0.141100
C421	C42	0.660600	0.516600	0.194600
C431	C43	0.571400	0.586600	0.216600
C441	C44	0.717000	0.617200	0.251100
C451	C45	0.389800	0.675200	0.242100
C461	C46	0.476700	0.666600	0.242500
C471	C47	0.479300	0.601800	0.214600
C481	C48	0.398300	0.552000	0.189100
C491	C49	0.313500	0.563600	0.189500
C501	C50	0.944900	0.703200	0.331000
C511	C51	0.876300	0.653600	0.297400
C521	C52	0.795400	0.667800	0.288000
C531	C53	0.785800	0.729200	0.316500
C541	C54	0.857800	0.776800	0.348300
C551	C55	0.929000	0.931800	0.451000
C561	C56	0.859700	0.944200	0.475800
C571	C57	0.814900	0.893400	0.502200
C581	C58	0.844700	0.832600	0.503400
C591	C59	0.913500	0.824800	0.474700
C601	C60	0.738200	0.903000	0.530700
C611	C61	0.639500	0.965400	0.554500
C621	C62	0.635400	0.865400	0.584900
C631	C63	0.531500	0.113600	0.584000
C641	C64	0.562100	0.054600	0.585300
C651	C65	0.607700	0.030200	0.551500
C661	C66	0.627000	0.070200	0.518600
C671	C67	0.599000	0.129000	0.519700
C681	C68	0.563600	0.694600	0.641600
C691	C69	0.604300	0.742200	0.612200
C701	C70	0.597000	0.814200	0.617300
C711	C71	0.547000	0.833400	0.652400
C721	C72	0.511100	0.783800	0.681700
I11	I1	0.560880	0.304560	0.488050
I21	I2	0.365280	0.222240	0.594510
I31	I3	0.833920	0.962060	0.866170
I41	I4	0.646560	0.773620	0.939280
I51	I5	0.033110	0.521960	0.197740
I61	I6	0.201940	0.739520	0.299350
I71	I7	0.743680	0.304560	0.988050
I81	I8	0.856960	0.222240	0.094510
I91	I9	0.128140	0.962060	0.366170
I101	I10	0.127060	0.773620	0.439280
I111	I11	0.488850	0.521960	0.697740
I121	I12	0.537580	0.739520	0.799350
N11	N1	0.629100	0.331800	0.605900
N21	N2	0.948800	0.527800	0.688000
N31	N3	0.993700	0.637200	0.748000
N41	N4	0.828200	0.557200	0.726500
N51	N5	0.317600	0.625400	0.718400
N61	N6	0.829100	0.765800	0.857300
N71	N7	0.917300	0.873200	0.948300
N81	N8	0.252100	0.957800	0.026000
N91	N9	0.318500	0.921600	0.084000
N101	N10	0.148900	0.852200	0.058500
N111	N11	0.600700	0.155400	0.051800
N121	N12	0.197600	0.715600	0.176700
N131	N13	0.702700	0.331800	0.105900
N141	N14	0.579000	0.527800	0.188000
N151	N15	0.643500	0.637200	0.248000
N161	N16	0.729000	0.557200	0.226500
N171	N17	0.307800	0.625400	0.218400
N181	N18	0.936700	0.765800	0.357300
N191	N19	0.955900	0.873200	0.448300
N201	N20	0.705700	0.957800	0.526000
N211	N21	0.603100	0.921600	0.584000
N221	N22	0.703300	0.852200	0.558500
N231	N23	0.554700	0.155400	0.551800
N241	N24	0.518000	0.715600	0.676700
Zn71	Zn7	0.268320	0.747920	0.941680
Zn81	Zn8	0.953730	0.153980	0.596690
Zn91	Zn9	0.533080	0.351760	0.276310
Zn101	Zn10	0.479600	0.747920	0.441680
Zn111	Zn11	0.200250	0.153980	0.096690
Zn121	Zn12	0.818680	0.351760	0.776310
H491	H49	0.417000	0.676600	0.927300
H501	H50	0.454100	0.586800	0.875600
H511	H51	0.200200	0.537400	0.804300
H521	H52	0.176000	0.633400	0.854600
H531	H53	0.611800	0.279000	0.739500
H541	H54	0.467400	0.296200	0.738800
H551	H55	0.600300	0.493400	0.830000
H561	H56	0.741400	0.471400	0.830300
H571	H57	0.998700	0.307000	0.664000
H581	H58	0.115400	0.390800	0.719400
H591	H59	0.272000	0.261400	0.686200
H601	H60	0.149300	0.178400	0.634700
H611	H61	0.038400	0.030200	0.566300
H621	H62	0.157100	0.012600	0.525400
H631	H63	0.181000	0.202200	0.476800
H641	H64	0.068800	0.218600	0.525800
H651	H65	0.507300	0.874600	0.393700
H661	H66	0.448600	0.969400	0.389600
H671	H67	0.339100	0.943600	0.505500
H681	H68	0.388200	0.845600	0.504900
H691	H69	0.432400	0.355200	0.362700
H701	H70	0.362700	0.274000	0.411500
H711	H71	0.462400	0.118800	0.343800
H721	H72	0.519800	0.200400	0.293600
H731	H73	0.259600	0.676600	0.427300
H741	H74	0.132700	0.586800	0.375600
H751	H75	0.337200	0.537400	0.304300
H761	H76	0.457400	0.633400	0.354600
H771	H77	0.667200	0.279000	0.239500
H781	H78	0.828800	0.296200	0.238800
H791	H79	0.893100	0.493400	0.330000
H801	H80	0.730000	0.471400	0.330300
H811	H81	0.308300	0.307000	0.164000
H821	H82	0.275400	0.390800	0.219400
H831	H83	0.989400	0.261400	0.186200
H841	H84	0.029100	0.178400	0.134700
H851	H85	0.991800	0.030200	0.066300
H861	H86	0.855500	0.012600	0.025400
H871	H87	0.021200	0.202200	0.976800
H881	H88	0.149800	0.218600	0.025800
H891	H89	0.367300	0.874600	0.893700
H901	H90	0.520800	0.969400	0.889600
H911	H91	0.604500	0.943600	0.005500
H921	H92	0.457400	0.845600	0.004900
H931	H93	0.922800	0.355200	0.862700
H941	H94	0.911300	0.274000	0.911500
H951	H95	0.656400	0.118800	0.843800
H961	H96	0.680600	0.200400	0.793600
C731	C73	0.374900	0.650000	0.900900
C741	C74	0.395700	0.594600	0.871400
C751	C75	0.326800	0.549800	0.834600
C761	C76	0.246800	0.566200	0.829000
C771	C77	0.233200	0.624000	0.858900
C781	C78	0.339400	0.483400	0.805400
C791	C79	0.428600	0.413400	0.783400
C801	C80	0.283000	0.382800	0.748900
C811	C81	0.610200	0.324800	0.757900
C821	C82	0.523300	0.333400	0.757500
C831	C83	0.520700	0.398200	0.785400
C841	C84	0.601700	0.448000	0.810900
C851	C85	0.686500	0.436400	0.810500
C861	C86	0.055100	0.296800	0.669000
C871	C87	0.123700	0.346400	0.702600
C881	C88	0.204600	0.332200	0.712000
C891	C89	0.214200	0.270800	0.683500
C901	C90	0.142200	0.223200	0.651700
C911	C91	0.071000	0.068200	0.549000
C921	C92	0.140300	0.055800	0.524200
C931	C93	0.185100	0.106600	0.497800
C941	C94	0.155300	0.167400	0.496600
C951	C95	0.086500	0.175200	0.525300
C961	C96	0.261800	0.097000	0.469300
C971	C97	0.360500	0.034600	0.445500
C981	C98	0.364600	0.134600	0.415100
C991	C99	0.468500	0.886400	0.416000
C1001	C100	0.437900	0.945400	0.414700
C1011	C101	0.392300	0.969800	0.448500
C1021	C102	0.373000	0.929800	0.481400
C1031	C103	0.401000	0.871000	0.480300
C1041	C104	0.436400	0.305400	0.358400
C1051	C105	0.395700	0.257800	0.387800
C1061	C106	0.403000	0.185800	0.382700
C1071	C107	0.453000	0.166600	0.347600
C1081	C108	0.488900	0.216200	0.318300
C1091	C109	0.275100	0.650000	0.400900
C1101	C110	0.198900	0.594600	0.371400
C1111	C111	0.223000	0.549800	0.334600
C1121	C112	0.319400	0.566200	0.329000
C1131	C113	0.390800	0.624000	0.358900
C1141	C114	0.144000	0.483400	0.305400
C1151	C115	0.984800	0.413400	0.283400
C1161	C116	0.099800	0.382800	0.248900
C1171	C117	0.714600	0.324800	0.257900
C1181	C118	0.810100	0.333400	0.257500
C1191	C119	0.877500	0.398200	0.285400
C1201	C120	0.846300	0.448000	0.310900
C1211	C121	0.749900	0.436400	0.310500
C1221	C122	0.241700	0.296800	0.169000
C1231	C123	0.222700	0.346400	0.202600
C1241	C124	0.127600	0.332200	0.212000
C1251	C125	0.056600	0.270800	0.183500
C1261	C126	0.081000	0.223200	0.151700
C1271	C127	0.997200	0.068200	0.049000
C1281	C128	0.915500	0.055800	0.024200
C1291	C129	0.921500	0.106600	0.997800
C1301	C130	0.012100	0.167400	0.996600
C1311	C131	0.088700	0.175200	0.025300
C1321	C132	0.835200	0.097000	0.969300
C1331	C133	0.674100	0.034600	0.945500
C1341	C134	0.770000	0.134600	0.915100
C1351	C135	0.417900	0.886400	0.916000
C1361	C136	0.507500	0.945400	0.914700
C1371	C137	0.577500	0.969800	0.948500
C1381	C138	0.556800	0.929800	0.981400
C1391	C139	0.470000	0.871000	0.980300
C1401	C140	0.869000	0.305400	0.858400
C1411	C141	0.862100	0.257800	0.887800
C1421	C142	0.782800	0.185800	0.882700
C1431	C143	0.713600	0.166600	0.847600
C1441	C144	0.727300	0.216200	0.818300
I131	I13	0.256320	0.695440	0.011950
I141	I14	0.143040	0.777760	0.905490
I151	I15	0.871860	0.037940	0.633830
I161	I16	0.872940	0.226380	0.560720
I171	I17	0.511150	0.478040	0.302260
I181	I18	0.462420	0.260480	0.200650
I191	I19	0.439120	0.695440	0.511950
I201	I20	0.634720	0.777760	0.405490
I211	I21	0.166080	0.037940	0.133830
I221	I22	0.353440	0.226380	0.060720
I231	I23	0.966890	0.478040	0.802260
I241	I24	0.798060	0.260480	0.700650
N251	N25	0.297300	0.668200	0.894100
N261	N26	0.421000	0.472200	0.812000
N271	N27	0.356500	0.362800	0.752000
N281	N28	0.271000	0.442800	0.773500
N291	N29	0.692200	0.374600	0.781600
N301	N30	0.063300	0.234200	0.642700
N311	N31	0.044100	0.126800	0.551700
N321	N32	0.294300	0.042200	0.474000
N331	N33	0.396900	0.078400	0.416000
N341	N34	0.296700	0.147800	0.441500
N351	N35	0.445300	0.844600	0.448200
N361	N36	0.482000	0.284400	0.323300
N371	N37	0.370900	0.668200	0.394100
N381	N38	0.051200	0.472200	0.312000
N391	N39	0.006300	0.362800	0.252000
N401	N40	0.171800	0.442800	0.273500
N411	N41	0.682400	0.374600	0.281600
N421	N42	0.170900	0.234200	0.142700
N431	N43	0.082700	0.126800	0.051700
N441	N44	0.747900	0.042200	0.974000
N451	N45	0.681500	0.078400	0.916000
N461	N46	0.851100	0.147800	0.941500
N471	N47	0.399300	0.844600	0.948200
N481	N48	0.802400	0.284400	0.823300
