data_REZJIR02_clean_PM
_symmetry_space_group_name_H-M	'P1'
_cell_length_a	12.303400
_cell_length_b	12.440800
_cell_length_c	12.815600
_cell_angle_alpha	90.000000
_cell_angle_beta	91.190000
_cell_angle_gamma	90.000000
_symmetry_Int_Tables_number 1

loop_
_symmetry_equiv_pos_as_xyz
'x,y,z'

loop_
_atom_site_label
_atom_site_type_symbol
_atom_site_fract_x
_atom_site_fract_y
_atom_site_fract_z
C11	C1	0.719200	0.502760	0.022900
C21	C2	0.774800	0.001230	0.986900
C31	C3	0.736900	0.271100	0.755300
C41	C4	0.752800	0.780800	0.241500
C51	C5	0.010500	0.717400	0.996500
C61	C6	0.492500	0.229500	0.043200
H11	H1	0.790000	0.326000	0.759000
H21	H2	0.797000	0.833000	0.244000
H31	H3	0.005000	0.771000	0.938000
H41	H4	0.496000	0.305000	0.077000
H51	H5	0.779000	0.504000	0.073000
H61	H6	0.710000	0.996000	0.941000
Mn11	Mn1	0.740300	0.252810	0.007800
Mn21	Mn2	0.759290	0.752410	0.993470
O11	O1	0.578210	0.191950	0.017820
O21	O2	0.921700	0.686970	0.029700
O31	O3	0.806030	0.090380	0.018450
O41	O4	0.100340	0.683170	0.025200
O51	O5	0.401370	0.188230	0.037940
O61	O6	0.706900	0.233810	0.839950
O71	O7	0.817610	0.914450	0.009400
O81	O8	0.674440	0.415150	0.002620
O91	O9	0.702500	0.240790	0.670210
O101	O10	0.727500	0.740590	0.157710
O111	O11	0.721100	0.751030	0.327460
O121	O12	0.699650	0.587900	0.979760
C71	C7	0.780800	0.002760	0.477100
C81	C8	0.725200	0.501230	0.513100
C91	C9	0.763100	0.771100	0.744700
C101	C10	0.747200	0.280800	0.258500
C111	C11	0.489500	0.217400	0.503500
C121	C12	0.007500	0.729500	0.456800
H71	H7	0.710000	0.826000	0.741000
H81	H8	0.703000	0.333000	0.256000
H91	H9	0.495000	0.271000	0.562000
H101	H10	0.004000	0.805000	0.423000
H111	H11	0.721000	0.004000	0.427000
H121	H12	0.790000	0.496000	0.559000
Mn31	Mn3	0.759700	0.752810	0.492200
Mn41	Mn4	0.740710	0.252410	0.506530
O131	O13	0.921790	0.691950	0.482180
O141	O14	0.578300	0.186970	0.470300
O151	O15	0.693970	0.590380	0.481550
O161	O16	0.399660	0.183170	0.474800
O171	O17	0.098630	0.688230	0.462060
O181	O18	0.793100	0.733810	0.660050
O191	O19	0.682390	0.414450	0.490600
O201	O20	0.825560	0.915150	0.497380
O211	O21	0.797500	0.740790	0.829790
O221	O22	0.772500	0.240590	0.342290
O231	O23	0.778900	0.251030	0.172540
O241	O24	0.800350	0.087900	0.520240
C131	C13	0.280800	0.497240	0.977100
C141	C14	0.225200	0.998770	0.013100
C151	C15	0.263100	0.728900	0.244700
C161	C16	0.247200	0.219200	0.758500
C171	C17	0.989500	0.282600	0.003500
C181	C18	0.507500	0.770500	0.956800
H131	H13	0.210000	0.674000	0.241000
H141	H14	0.203000	0.167000	0.756000
H151	H15	0.995000	0.229000	0.062000
H161	H16	0.504000	0.695000	0.923000
H171	H17	0.221000	0.496000	0.927000
H181	H18	0.290000	0.004000	0.059000
Mn51	Mn5	0.259700	0.747190	0.992200
Mn61	Mn6	0.240710	0.247590	0.006530
O251	O25	0.421790	0.808050	0.982180
O261	O26	0.078300	0.313030	0.970300
O271	O27	0.193970	0.909620	0.981550
O281	O28	0.899660	0.316830	0.974800
O291	O29	0.598630	0.811770	0.962060
O301	O30	0.293100	0.766190	0.160050
O311	O31	0.182390	0.085550	0.990600
O321	O32	0.325560	0.584850	0.997380
O331	O33	0.297500	0.759210	0.329790
O341	O34	0.272500	0.259410	0.842290
O351	O35	0.278900	0.248970	0.672540
O361	O36	0.300350	0.412100	0.020240
C191	C19	0.219200	0.997240	0.522900
C201	C20	0.274800	0.498770	0.486900
C211	C21	0.236900	0.228900	0.255300
C221	C22	0.252800	0.719200	0.741500
C231	C23	0.510500	0.782600	0.496500
C241	C24	0.992500	0.270500	0.543200
H191	H19	0.290000	0.174000	0.259000
H201	H20	0.297000	0.667000	0.744000
H211	H21	0.505000	0.729000	0.438000
H221	H22	0.996000	0.195000	0.577000
H231	H23	0.279000	0.996000	0.573000
H241	H24	0.210000	0.504000	0.441000
Mn71	Mn7	0.240300	0.247190	0.507800
Mn81	Mn8	0.259290	0.747590	0.493470
O371	O37	0.078210	0.308050	0.517820
O381	O38	0.421700	0.813030	0.529700
O391	O39	0.306030	0.409620	0.518450
O401	O40	0.600340	0.816830	0.525200
O411	O41	0.901370	0.311770	0.537940
O421	O42	0.206900	0.266190	0.339950
O431	O43	0.317610	0.585550	0.509400
O441	O44	0.174440	0.084850	0.502620
O451	O45	0.202500	0.259210	0.170210
O461	O46	0.227500	0.759410	0.657710
O471	O47	0.221100	0.748970	0.827460
O481	O48	0.199650	0.912100	0.479760
