data_RIBDAJ_clean_PM
_symmetry_space_group_name_H-M	'P1'
_cell_length_a	9.961600
_cell_length_b	9.961600
_cell_length_c	19.680000
_cell_angle_alpha	90.000000
_cell_angle_beta	90.000000
_cell_angle_gamma	102.879000
_symmetry_Int_Tables_number 1

loop_
_symmetry_equiv_pos_as_xyz
'x,y,z'

loop_
_atom_site_label
_atom_site_type_symbol
_atom_site_fract_x
_atom_site_fract_y
_atom_site_fract_z
Ni11	Ni1	0.313040	0.431320	0.733650
Ni21	Ni2	0.686960	0.568680	0.233650
Ni31	Ni3	0.568680	0.686960	0.766350
Ni41	Ni4	0.431320	0.313040	0.266350
H11	H1	0.674400	0.712200	0.600000
H21	H2	0.336100	0.988300	0.748400
H31	H3	0.325600	0.287800	0.100000
H41	H4	0.663900	0.011700	0.248400
H51	H5	0.287800	0.325600	0.900000
H61	H6	0.011700	0.663900	0.751600
H71	H7	0.712200	0.674400	0.400000
H81	H8	0.988300	0.336100	0.251600
H91	H9	0.413700	0.413700	0.500000
H101	H10	0.586300	0.586300	0.000000
H111	H11	0.951100	0.048900	0.750000
H121	H12	0.048900	0.951100	0.250000
C11	C1	0.643100	0.667500	0.559600
C21	C2	0.441700	0.504900	0.623400
C31	C3	0.530300	0.559500	0.561000
C41	C4	0.209700	0.193900	0.746600
C51	C5	0.241500	0.952700	0.749100
C61	C6	0.151100	0.041900	0.749500
C71	C7	0.356900	0.332500	0.059600
C81	C8	0.558300	0.495100	0.123400
C91	C9	0.469700	0.440500	0.061000
C101	C10	0.790300	0.806100	0.246600
C111	C11	0.758500	0.047300	0.249100
C121	C12	0.848900	0.958100	0.249500
C131	C13	0.332500	0.356900	0.940400
C141	C14	0.495100	0.558300	0.876600
C151	C15	0.440500	0.469700	0.939000
C161	C16	0.806100	0.790300	0.753400
C171	C17	0.047300	0.758500	0.750900
C181	C18	0.958100	0.848900	0.750500
C191	C19	0.667500	0.643100	0.440400
C201	C20	0.504900	0.441700	0.376600
C211	C21	0.559500	0.530300	0.439000
C221	C22	0.193900	0.209700	0.253400
C231	C23	0.952700	0.241500	0.250900
C241	C24	0.041900	0.151100	0.250500
C251	C25	0.831900	0.831900	0.500000
C261	C26	0.711100	0.711100	0.500000
C271	C27	0.488500	0.488500	0.500000
C281	C28	0.168100	0.168100	0.000000
C291	C29	0.288900	0.288900	0.000000
C301	C30	0.511500	0.511500	0.000000
C311	C31	0.010800	0.989200	0.750000
C321	C32	0.286300	0.713700	0.750000
C331	C33	0.189900	0.810100	0.750000
C341	C34	0.989200	0.010800	0.250000
C351	C35	0.713700	0.286300	0.250000
C361	C36	0.810100	0.189900	0.250000
O11	O1	0.855900	0.895900	0.553700
O21	O2	0.327500	0.434100	0.614100
O31	O3	0.137900	0.278300	0.759800
O41	O4	0.336700	0.239100	0.732600
O51	O5	0.231200	0.588600	0.741600
O61	O6	0.488200	0.535800	0.679300
O71	O7	0.144100	0.104100	0.053700
O81	O8	0.672500	0.565900	0.114100
O91	O9	0.862100	0.721700	0.259800
O101	O10	0.663300	0.760900	0.232600
O111	O11	0.768800	0.411400	0.241600
O121	O12	0.511800	0.464200	0.179300
O131	O13	0.104100	0.144100	0.946300
O141	O14	0.565900	0.672500	0.885900
O151	O15	0.721700	0.862100	0.740200
O161	O16	0.760900	0.663300	0.767400
O171	O17	0.411400	0.768800	0.758400
O181	O18	0.464200	0.511800	0.820700
O191	O19	0.895900	0.855900	0.446300
O201	O20	0.434100	0.327500	0.385900
O211	O21	0.278300	0.137900	0.240200
O221	O22	0.239100	0.336700	0.267400
O231	O23	0.588600	0.231200	0.258400
O241	O24	0.535800	0.488200	0.320700
