data_RIBTAZ_clean_PM
_symmetry_space_group_name_H-M	'P1'
_cell_length_a	16.000000
_cell_length_b	19.198000
_cell_length_c	21.411000
_cell_angle_alpha	90.000000
_cell_angle_beta	90.000000
_cell_angle_gamma	99.861000
_symmetry_Int_Tables_number 1

loop_
_symmetry_equiv_pos_as_xyz
'x,y,z'

loop_
_atom_site_label
_atom_site_type_symbol
_atom_site_fract_x
_atom_site_fract_y
_atom_site_fract_z
Cu11	Cu1	0.638770	0.978090	0.350950
Cu21	Cu2	0.510470	0.904160	0.227950
Cu31	Cu3	0.687440	0.870600	0.261570
Cu41	Cu4	0.812680	0.914640	0.374100
Cu51	Cu5	0.361230	0.521910	0.850950
Cu61	Cu6	0.489530	0.595840	0.727950
Cu71	Cu7	0.312560	0.629400	0.761570
Cu81	Cu8	0.187320	0.585360	0.874100
Cu91	Cu9	0.361230	0.021910	0.649050
Cu101	Cu10	0.489530	0.095840	0.772060
Cu111	Cu11	0.312560	0.129400	0.738430
Cu121	Cu12	0.187320	0.085360	0.625900
Cu131	Cu13	0.638770	0.478090	0.149050
Cu141	Cu14	0.510470	0.404160	0.272060
Cu151	Cu15	0.687440	0.370600	0.238430
Cu161	Cu16	0.812680	0.414640	0.125900
H11	H1	0.122600	0.036800	0.337600
H21	H2	0.048400	0.167800	0.128700
H31	H3	0.177300	0.034400	0.435900
H41	H4	0.310000	0.988300	0.287900
H51	H5	0.410200	0.987700	0.460500
H61	H6	0.957700	0.250200	0.158600
H71	H7	0.319500	0.035000	0.137100
H81	H8	0.947800	0.061900	0.242900
H91	H9	0.201200	0.126400	0.037700
H101	H10	0.233400	0.145300	0.934100
H111	H11	0.443900	0.063100	0.955700
H121	H12	0.407400	0.036400	0.057600
H131	H13	0.763900	0.175700	0.273500
H141	H14	0.877400	0.463200	0.837600
H151	H15	0.951600	0.332200	0.628700
H161	H16	0.822700	0.465600	0.935900
H171	H17	0.690000	0.511700	0.787900
H181	H18	0.589800	0.512300	0.960500
H191	H19	0.042300	0.249800	0.658600
H201	H20	0.680500	0.465000	0.637100
H211	H21	0.052200	0.438100	0.742900
H221	H22	0.798800	0.373600	0.537700
H231	H23	0.766600	0.354700	0.434100
H241	H24	0.556100	0.436900	0.455700
H251	H25	0.592600	0.463600	0.557600
H261	H26	0.236100	0.324300	0.773500
H271	H27	0.877400	0.963200	0.662400
H281	H28	0.951600	0.832200	0.871300
H291	H29	0.822700	0.965600	0.564100
H301	H30	0.690000	0.011700	0.712100
H311	H31	0.589800	0.012300	0.539500
H321	H32	0.042300	0.749800	0.841400
H331	H33	0.680500	0.965000	0.862900
H341	H34	0.052200	0.938100	0.757100
H351	H35	0.798800	0.873600	0.962300
H361	H36	0.766600	0.854700	0.065900
H371	H37	0.556100	0.936900	0.044300
H381	H38	0.592600	0.963600	0.942400
H391	H39	0.236100	0.824300	0.726500
H401	H40	0.122600	0.536800	0.162400
H411	H41	0.048400	0.667800	0.371300
H421	H42	0.177300	0.534400	0.064100
H431	H43	0.310000	0.488300	0.212100
H441	H44	0.410200	0.487700	0.039500
H451	H45	0.957700	0.750200	0.341400
H461	H46	0.319500	0.535000	0.362900
H471	H47	0.947800	0.561900	0.257100
H481	H48	0.201200	0.626400	0.462300
H491	H49	0.233400	0.645300	0.565900
H501	H50	0.443900	0.563100	0.544300
H511	H51	0.407400	0.536400	0.442400
H521	H52	0.763900	0.675700	0.226500
C11	C1	0.966190	0.154700	0.197430
C21	C2	0.226880	0.023030	0.419200
C31	C3	0.169080	0.058700	0.257830
C41	C4	0.104490	0.113610	0.184470
C51	C5	0.306000	0.995860	0.330670
C61	C6	0.291190	0.010650	0.459070
C71	C7	0.235210	0.018770	0.355060
C81	C8	0.221920	0.071410	0.161220
C91	C9	0.365340	0.993170	0.434390
C101	C10	0.930940	0.215470	0.185590
C111	C11	0.299800	0.077820	0.058460
C121	C12	0.924480	0.102320	0.235490
C131	C13	0.249100	0.111900	0.021070
C141	C14	0.282890	0.019750	0.528600
C151	C15	0.269400	0.124200	0.959200
C161	C16	0.342190	0.106040	0.933200
C171	C17	0.393800	0.074400	0.971580
C181	C18	0.363100	0.116280	0.865540
C191	C19	0.372600	0.059300	0.033000
C201	C20	0.854730	0.223020	0.215070
C211	C21	0.847360	0.109400	0.263140
C221	C22	0.798300	0.048260	0.298930
C231	C23	0.814090	0.170220	0.253680
C241	C24	0.817100	0.288940	0.203630
C251	C25	0.371670	0.984080	0.370630
C261	C26	0.450310	0.963360	0.342580
C271	C27	0.033810	0.345300	0.697430
C281	C28	0.773120	0.476970	0.919200
C291	C29	0.830920	0.441300	0.757830
C301	C30	0.895510	0.386390	0.684470
C311	C31	0.694000	0.504140	0.830670
C321	C32	0.708810	0.489350	0.959070
C331	C33	0.764790	0.481230	0.855060
C341	C34	0.778080	0.428590	0.661220
C351	C35	0.634660	0.506830	0.934390
C361	C36	0.069060	0.284530	0.685590
C371	C37	0.700200	0.422180	0.558460
C381	C38	0.075520	0.397680	0.735490
C391	C39	0.750900	0.388100	0.521070
C401	C40	0.717110	0.480250	0.028600
C411	C41	0.730600	0.375800	0.459200
C421	C42	0.657810	0.393960	0.433200
C431	C43	0.606200	0.425600	0.471580
C441	C44	0.636900	0.383720	0.365540
C451	C45	0.627400	0.440700	0.533000
C461	C46	0.145270	0.276980	0.715070
C471	C47	0.152640	0.390600	0.763140
C481	C48	0.201700	0.451740	0.798930
C491	C49	0.185910	0.329780	0.753680
C501	C50	0.182900	0.211060	0.703630
C511	C51	0.628330	0.515920	0.870630
C521	C52	0.549690	0.536640	0.842580
C531	C53	0.033810	0.845300	0.802570
C541	C54	0.773120	0.976970	0.580800
C551	C55	0.830920	0.941300	0.742170
C561	C56	0.895510	0.886390	0.815530
C571	C57	0.694000	0.004140	0.669330
C581	C58	0.708810	0.989350	0.540930
C591	C59	0.764790	0.981230	0.644940
C601	C60	0.778080	0.928590	0.838780
C611	C61	0.634660	0.006830	0.565610
C621	C62	0.069060	0.784530	0.814410
C631	C63	0.700200	0.922180	0.941540
C641	C64	0.075520	0.897680	0.764510
C651	C65	0.750900	0.888100	0.978930
C661	C66	0.717110	0.980250	0.471400
C671	C67	0.730600	0.875800	0.040800
C681	C68	0.657810	0.893960	0.066800
C691	C69	0.606200	0.925600	0.028420
C701	C70	0.636900	0.883720	0.134460
C711	C71	0.627400	0.940700	0.967000
C721	C72	0.145270	0.776980	0.784930
C731	C73	0.152640	0.890600	0.736860
C741	C74	0.201700	0.951740	0.701070
C751	C75	0.185910	0.829780	0.746320
C761	C76	0.182900	0.711060	0.796370
C771	C77	0.628330	0.015920	0.629370
C781	C78	0.549690	0.036640	0.657420
C791	C79	0.966190	0.654700	0.302570
C801	C80	0.226880	0.523030	0.080800
C811	C81	0.169080	0.558700	0.242170
C821	C82	0.104490	0.613610	0.315530
C831	C83	0.306000	0.495860	0.169330
C841	C84	0.291190	0.510650	0.040930
C851	C85	0.235210	0.518770	0.144940
C861	C86	0.221920	0.571410	0.338780
C871	C87	0.365340	0.493170	0.065610
C881	C88	0.930940	0.715470	0.314410
C891	C89	0.299800	0.577820	0.441540
C901	C90	0.924480	0.602320	0.264510
C911	C91	0.249100	0.611900	0.478930
C921	C92	0.282890	0.519750	0.971400
C931	C93	0.269400	0.624200	0.540800
C941	C94	0.342190	0.606040	0.566800
C951	C95	0.393800	0.574400	0.528420
C961	C96	0.363100	0.616280	0.634460
C971	C97	0.372600	0.559300	0.467000
C981	C98	0.854730	0.723020	0.284930
C991	C99	0.847360	0.609400	0.236860
C1001	C100	0.798300	0.548260	0.201070
C1011	C101	0.814090	0.670220	0.246320
C1021	C102	0.817100	0.788940	0.296370
C1031	C103	0.371670	0.484080	0.129370
C1041	C104	0.450310	0.463360	0.157420
N11	N1	0.229680	0.046070	0.218950
N21	N2	0.163150	0.107600	0.141150
N31	N3	0.103330	0.090850	0.243520
N41	N4	0.170050	0.038190	0.318310
N51	N5	0.041690	0.147980	0.164760
N61	N6	0.283860	0.058840	0.121140
N71	N7	0.770320	0.453930	0.718950
N81	N8	0.836850	0.392400	0.641150
N91	N9	0.896670	0.409150	0.743520
N101	N10	0.829950	0.461810	0.818310
N111	N11	0.958310	0.352020	0.664760
N121	N12	0.716140	0.441160	0.621140
N131	N13	0.770320	0.953930	0.781050
N141	N14	0.836850	0.892400	0.858850
N151	N15	0.896670	0.909150	0.756480
N161	N16	0.829950	0.961810	0.681690
N171	N17	0.958310	0.852020	0.835240
N181	N18	0.716140	0.941160	0.878860
N191	N19	0.229680	0.546070	0.281050
N201	N20	0.163150	0.607600	0.358850
N211	N21	0.103330	0.590850	0.256480
N221	N22	0.170050	0.538190	0.181690
N231	N23	0.041690	0.647980	0.335240
N241	N24	0.283860	0.558840	0.378860
O11	O1	0.343960	0.006770	0.561380
O21	O2	0.216450	0.038920	0.548150
O31	O3	0.306600	0.129670	0.828850
O41	O4	0.437450	0.110540	0.850620
O51	O5	0.730820	0.058650	0.325340
O61	O6	0.824290	0.990210	0.297500
O71	O7	0.757530	0.297890	0.239310
O81	O8	0.847870	0.328630	0.160850
O91	O9	0.695540	0.885080	0.351490
O101	O10	0.619350	0.949510	0.263130
O111	O11	0.517730	0.979620	0.370950
O121	O12	0.439570	0.930040	0.292340
O131	O13	0.656040	0.493230	0.061380
O141	O14	0.783550	0.461080	0.048150
O151	O15	0.693400	0.370330	0.328850
O161	O16	0.562550	0.389460	0.350620
O171	O17	0.269180	0.441350	0.825340
O181	O18	0.175710	0.509790	0.797500
O191	O19	0.242470	0.202110	0.739310
O201	O20	0.152130	0.171370	0.660850
O211	O21	0.304460	0.614920	0.851490
O221	O22	0.380650	0.550490	0.763130
O231	O23	0.482270	0.520380	0.870950
O241	O24	0.560430	0.569960	0.792340
O251	O25	0.656040	0.993230	0.438620
O261	O26	0.783550	0.961080	0.451850
O271	O27	0.693400	0.870330	0.171150
O281	O28	0.562550	0.889460	0.149380
O291	O29	0.269180	0.941350	0.674660
O301	O30	0.175710	0.009790	0.702500
O311	O31	0.242470	0.702110	0.760690
O321	O32	0.152130	0.671370	0.839150
O331	O33	0.304460	0.114920	0.648510
O341	O34	0.380650	0.050490	0.736870
O351	O35	0.482270	0.020380	0.629050
O361	O36	0.560430	0.069960	0.707660
O371	O37	0.343960	0.506770	0.938620
O381	O38	0.216450	0.538920	0.951850
O391	O39	0.306600	0.629670	0.671150
O401	O40	0.437450	0.610540	0.649380
O411	O41	0.730820	0.558650	0.174660
O421	O42	0.824290	0.490210	0.202500
O431	O43	0.757530	0.797890	0.260690
O441	O44	0.847870	0.828630	0.339150
O451	O45	0.695540	0.385080	0.148510
O461	O46	0.619350	0.449510	0.236870
O471	O47	0.517730	0.479620	0.129050
O481	O48	0.439570	0.430040	0.207660
