data_RIFGAQ_clean_PM
_symmetry_space_group_name_H-M	'P1'
_cell_length_a	26.336800
_cell_length_b	26.336800
_cell_length_c	26.336800
_cell_angle_alpha	90.000000
_cell_angle_beta	90.000000
_cell_angle_gamma	90.000000
_symmetry_Int_Tables_number 1

loop_
_symmetry_equiv_pos_as_xyz
'x,y,z'

loop_
_atom_site_label
_atom_site_type_symbol
_atom_site_fract_x
_atom_site_fract_y
_atom_site_fract_z
O11	O1	0.756970	0.947650	0.316790
O21	O2	0.756970	0.447650	0.816790
O31	O3	0.256970	0.947650	0.816790
O41	O4	0.256970	0.447650	0.316790
O51	O5	0.243030	0.052350	0.316790
O61	O6	0.243030	0.552350	0.816790
O71	O7	0.743030	0.052350	0.816790
O81	O8	0.743030	0.552350	0.316790
O91	O9	0.243030	0.947650	0.683210
O101	O10	0.243030	0.447650	0.183210
O111	O11	0.743030	0.947650	0.183210
O121	O12	0.743030	0.447650	0.683210
O131	O13	0.756970	0.052350	0.683210
O141	O14	0.756970	0.552350	0.183210
O151	O15	0.256970	0.052350	0.183210
O161	O16	0.256970	0.552350	0.683210
O171	O17	0.316790	0.756970	0.947650
O181	O18	0.316790	0.256970	0.447650
O191	O19	0.816790	0.756970	0.447650
O201	O20	0.816790	0.256970	0.947650
O211	O21	0.316790	0.243030	0.052350
O221	O22	0.316790	0.743030	0.552350
O231	O23	0.816790	0.243030	0.552350
O241	O24	0.816790	0.743030	0.052350
O251	O25	0.683210	0.243030	0.947650
O261	O26	0.683210	0.743030	0.447650
O271	O27	0.183210	0.243030	0.447650
O281	O28	0.183210	0.743030	0.947650
O291	O29	0.683210	0.756970	0.052350
O301	O30	0.683210	0.256970	0.552350
O311	O31	0.183210	0.756970	0.552350
O321	O32	0.183210	0.256970	0.052350
O331	O33	0.947650	0.316790	0.756970
O341	O34	0.947650	0.816790	0.256970
O351	O35	0.447650	0.316790	0.256970
O361	O36	0.447650	0.816790	0.756970
O371	O37	0.052350	0.316790	0.243030
O381	O38	0.052350	0.816790	0.743030
O391	O39	0.552350	0.316790	0.743030
O401	O40	0.552350	0.816790	0.243030
O411	O41	0.947650	0.683210	0.243030
O421	O42	0.947650	0.183210	0.743030
O431	O43	0.447650	0.683210	0.743030
O441	O44	0.447650	0.183210	0.243030
O451	O45	0.052350	0.683210	0.756970
O461	O46	0.052350	0.183210	0.256970
O471	O47	0.552350	0.683210	0.256970
O481	O48	0.552350	0.183210	0.756970
O491	O49	0.947650	0.756970	0.683210
O501	O50	0.947650	0.256970	0.183210
O511	O51	0.447650	0.756970	0.183210
O521	O52	0.447650	0.256970	0.683210
O531	O53	0.052350	0.243030	0.683210
O541	O54	0.052350	0.743030	0.183210
O551	O55	0.552350	0.243030	0.183210
O561	O56	0.552350	0.743030	0.683210
O571	O57	0.947650	0.243030	0.316790
O581	O58	0.947650	0.743030	0.816790
O591	O59	0.447650	0.243030	0.816790
O601	O60	0.447650	0.743030	0.316790
O611	O61	0.052350	0.756970	0.316790
O621	O62	0.052350	0.256970	0.816790
O631	O63	0.552350	0.756970	0.816790
O641	O64	0.552350	0.256970	0.316790
O651	O65	0.756970	0.316790	0.052350
O661	O66	0.756970	0.816790	0.552350
O671	O67	0.256970	0.316790	0.552350
O681	O68	0.256970	0.816790	0.052350
O691	O69	0.243030	0.316790	0.947650
O701	O70	0.243030	0.816790	0.447650
O711	O71	0.743030	0.316790	0.447650
O721	O72	0.743030	0.816790	0.947650
O731	O73	0.243030	0.683210	0.052350
O741	O74	0.243030	0.183210	0.552350
O751	O75	0.743030	0.683210	0.552350
O761	O76	0.743030	0.183210	0.052350
O771	O77	0.756970	0.683210	0.947650
O781	O78	0.756970	0.183210	0.447650
O791	O79	0.256970	0.683210	0.447650
O801	O80	0.256970	0.183210	0.947650
O811	O81	0.316790	0.947650	0.243030
O821	O82	0.316790	0.447650	0.743030
O831	O83	0.816790	0.947650	0.743030
O841	O84	0.816790	0.447650	0.243030
O851	O85	0.316790	0.052350	0.756970
O861	O86	0.316790	0.552350	0.256970
O871	O87	0.816790	0.052350	0.256970
O881	O88	0.816790	0.552350	0.756970
O891	O89	0.683210	0.947650	0.756970
O901	O90	0.683210	0.447650	0.256970
O911	O91	0.183210	0.947650	0.256970
O921	O92	0.183210	0.447650	0.756970
O931	O93	0.683210	0.052350	0.243030
O941	O94	0.683210	0.552350	0.743030
O951	O95	0.183210	0.052350	0.743030
O961	O96	0.183210	0.552350	0.243030
O971	O97	0.243030	0.052350	0.683210
O981	O98	0.243030	0.552350	0.183210
O991	O99	0.743030	0.052350	0.183210
O1001	O100	0.743030	0.552350	0.683210
O1011	O101	0.756970	0.947650	0.683210
O1021	O102	0.756970	0.447650	0.183210
O1031	O103	0.256970	0.947650	0.183210
O1041	O104	0.256970	0.447650	0.683210
O1051	O105	0.756970	0.052350	0.316790
O1061	O106	0.756970	0.552350	0.816790
O1071	O107	0.256970	0.052350	0.816790
O1081	O108	0.256970	0.552350	0.316790
O1091	O109	0.243030	0.947650	0.316790
O1101	O110	0.243030	0.447650	0.816790
O1111	O111	0.743030	0.947650	0.816790
O1121	O112	0.743030	0.447650	0.316790
O1131	O113	0.683210	0.243030	0.052350
O1141	O114	0.683210	0.743030	0.552350
O1151	O115	0.183210	0.243030	0.552350
O1161	O116	0.183210	0.743030	0.052350
O1171	O117	0.683210	0.756970	0.947650
O1181	O118	0.683210	0.256970	0.447650
O1191	O119	0.183210	0.756970	0.447650
O1201	O120	0.183210	0.256970	0.947650
O1211	O121	0.316790	0.756970	0.052350
O1221	O122	0.316790	0.256970	0.552350
O1231	O123	0.816790	0.756970	0.552350
O1241	O124	0.816790	0.256970	0.052350
O1251	O125	0.316790	0.243030	0.947650
O1261	O126	0.316790	0.743030	0.447650
O1271	O127	0.816790	0.243030	0.447650
O1281	O128	0.816790	0.743030	0.947650
O1291	O129	0.052350	0.683210	0.243030
O1301	O130	0.052350	0.183210	0.743030
O1311	O131	0.552350	0.683210	0.743030
O1321	O132	0.552350	0.183210	0.243030
O1331	O133	0.947650	0.683210	0.756970
O1341	O134	0.947650	0.183210	0.256970
O1351	O135	0.447650	0.683210	0.256970
O1361	O136	0.447650	0.183210	0.756970
O1371	O137	0.052350	0.316790	0.756970
O1381	O138	0.052350	0.816790	0.256970
O1391	O139	0.552350	0.316790	0.256970
O1401	O140	0.552350	0.816790	0.756970
O1411	O141	0.947650	0.316790	0.243030
O1421	O142	0.947650	0.816790	0.743030
O1431	O143	0.447650	0.316790	0.743030
O1441	O144	0.447650	0.816790	0.243030
O1451	O145	0.052350	0.243030	0.316790
O1461	O146	0.052350	0.743030	0.816790
O1471	O147	0.552350	0.243030	0.816790
O1481	O148	0.552350	0.743030	0.316790
O1491	O149	0.947650	0.756970	0.316790
O1501	O150	0.947650	0.256970	0.816790
O1511	O151	0.447650	0.756970	0.816790
O1521	O152	0.447650	0.256970	0.316790
O1531	O153	0.052350	0.756970	0.683210
O1541	O154	0.052350	0.256970	0.183210
O1551	O155	0.552350	0.756970	0.183210
O1561	O156	0.552350	0.256970	0.683210
O1571	O157	0.947650	0.243030	0.683210
O1581	O158	0.947650	0.743030	0.183210
O1591	O159	0.447650	0.243030	0.183210
O1601	O160	0.447650	0.743030	0.683210
O1611	O161	0.243030	0.683210	0.947650
O1621	O162	0.243030	0.183210	0.447650
O1631	O163	0.743030	0.683210	0.447650
O1641	O164	0.743030	0.183210	0.947650
O1651	O165	0.756970	0.683210	0.052350
O1661	O166	0.756970	0.183210	0.552350
O1671	O167	0.256970	0.683210	0.552350
O1681	O168	0.256970	0.183210	0.052350
O1691	O169	0.756970	0.316790	0.947650
O1701	O170	0.756970	0.816790	0.447650
O1711	O171	0.256970	0.316790	0.447650
O1721	O172	0.256970	0.816790	0.947650
O1731	O173	0.243030	0.316790	0.052350
O1741	O174	0.243030	0.816790	0.552350
O1751	O175	0.743030	0.316790	0.552350
O1761	O176	0.743030	0.816790	0.052350
O1771	O177	0.683210	0.052350	0.756970
O1781	O178	0.683210	0.552350	0.256970
O1791	O179	0.183210	0.052350	0.256970
O1801	O180	0.183210	0.552350	0.756970
O1811	O181	0.683210	0.947650	0.243030
O1821	O182	0.683210	0.447650	0.743030
O1831	O183	0.183210	0.947650	0.743030
O1841	O184	0.183210	0.447650	0.243030
O1851	O185	0.316790	0.052350	0.243030
O1861	O186	0.316790	0.552350	0.743030
O1871	O187	0.816790	0.052350	0.743030
O1881	O188	0.816790	0.552350	0.243030
O1891	O189	0.316790	0.947650	0.756970
O1901	O190	0.316790	0.447650	0.256970
O1911	O191	0.816790	0.947650	0.256970
O1921	O192	0.816790	0.447650	0.756970
C11	C1	0.823400	0.888900	0.323400
C21	C2	0.797700	0.931400	0.297700
C31	C3	0.823400	0.388900	0.823400
C41	C4	0.797700	0.431400	0.797700
C51	C5	0.176600	0.111100	0.323400
C61	C6	0.202300	0.068600	0.297700
C71	C7	0.176600	0.611100	0.823400
C81	C8	0.202300	0.568600	0.797700
C91	C9	0.676600	0.111100	0.823400
C101	C10	0.702300	0.068600	0.797700
C111	C11	0.176600	0.888900	0.676600
C121	C12	0.202300	0.931400	0.702300
C131	C13	0.176600	0.388900	0.176600
C141	C14	0.202300	0.431400	0.202300
C151	C15	0.676600	0.388900	0.676600
C161	C16	0.702300	0.431400	0.702300
C171	C17	0.823400	0.111100	0.676600
C181	C18	0.797700	0.068600	0.702300
C191	C19	0.823400	0.611100	0.176600
C201	C20	0.797700	0.568600	0.202300
C211	C21	0.323400	0.823400	0.888900
C221	C22	0.297700	0.797700	0.931400
C231	C23	0.323400	0.323400	0.388900
C241	C24	0.297700	0.297700	0.431400
C251	C25	0.823400	0.823400	0.388900
C261	C26	0.797700	0.797700	0.431400
C271	C27	0.323400	0.176600	0.111100
C281	C28	0.297700	0.202300	0.068600
C291	C29	0.323400	0.676600	0.611100
C301	C30	0.297700	0.702300	0.568600
C311	C31	0.823400	0.676600	0.111100
C321	C32	0.797700	0.702300	0.068600
C331	C33	0.676600	0.176600	0.888900
C341	C34	0.702300	0.202300	0.931400
C351	C35	0.676600	0.676600	0.388900
C361	C36	0.702300	0.702300	0.431400
C371	C37	0.676600	0.823400	0.111100
C381	C38	0.702300	0.797700	0.068600
C391	C39	0.676600	0.323400	0.611100
C401	C40	0.702300	0.297700	0.568600
C411	C41	0.888900	0.323400	0.823400
C421	C42	0.931400	0.297700	0.797700
C431	C43	0.388900	0.323400	0.323400
C441	C44	0.431400	0.297700	0.297700
C451	C45	0.388900	0.823400	0.823400
C461	C46	0.431400	0.797700	0.797700
C471	C47	0.111100	0.323400	0.176600
C481	C48	0.068600	0.297700	0.202300
C491	C49	0.111100	0.823400	0.676600
C501	C50	0.068600	0.797700	0.702300
C511	C51	0.611100	0.323400	0.676600
C521	C52	0.568600	0.297700	0.702300
C531	C53	0.888900	0.676600	0.176600
C541	C54	0.931400	0.702300	0.202300
C551	C55	0.388900	0.676600	0.676600
C561	C56	0.431400	0.702300	0.702300
C571	C57	0.111100	0.676600	0.823400
C581	C58	0.068600	0.702300	0.797700
C591	C59	0.611100	0.676600	0.323400
C601	C60	0.568600	0.702300	0.297700
C611	C61	0.888900	0.823400	0.676600
C621	C62	0.931400	0.797700	0.702300
C631	C63	0.388900	0.823400	0.176600
C641	C64	0.431400	0.797700	0.202300
C651	C65	0.111100	0.176600	0.676600
C661	C66	0.068600	0.202300	0.702300
C671	C67	0.611100	0.176600	0.176600
C681	C68	0.568600	0.202300	0.202300
C691	C69	0.611100	0.676600	0.676600
C701	C70	0.568600	0.702300	0.702300
C711	C71	0.888900	0.176600	0.323400
C721	C72	0.931400	0.202300	0.297700
C731	C73	0.888900	0.676600	0.823400
C741	C74	0.931400	0.702300	0.797700
C751	C75	0.388900	0.176600	0.823400
C761	C76	0.431400	0.202300	0.797700
C771	C77	0.111100	0.823400	0.323400
C781	C78	0.068600	0.797700	0.297700
C791	C79	0.611100	0.823400	0.823400
C801	C80	0.568600	0.797700	0.797700
C811	C81	0.823400	0.323400	0.111100
C821	C82	0.797700	0.297700	0.068600
C831	C83	0.823400	0.823400	0.611100
C841	C84	0.797700	0.797700	0.568600
C851	C85	0.176600	0.323400	0.888900
C861	C86	0.202300	0.297700	0.931400
C871	C87	0.176600	0.823400	0.388900
C881	C88	0.202300	0.797700	0.431400
C891	C89	0.676600	0.823400	0.888900
C901	C90	0.702300	0.797700	0.931400
C911	C91	0.176600	0.676600	0.111100
C921	C92	0.202300	0.702300	0.068600
C931	C93	0.176600	0.176600	0.611100
C941	C94	0.202300	0.202300	0.568600
C951	C95	0.676600	0.676600	0.611100
C961	C96	0.702300	0.702300	0.568600
C971	C97	0.823400	0.676600	0.888900
C981	C98	0.797700	0.702300	0.931400
C991	C99	0.823400	0.176600	0.388900
C1001	C100	0.797700	0.202300	0.431400
C1011	C101	0.323400	0.888900	0.176600
C1021	C102	0.297700	0.931400	0.202300
C1031	C103	0.323400	0.388900	0.676600
C1041	C104	0.297700	0.431400	0.702300
C1051	C105	0.823400	0.888900	0.676600
C1061	C106	0.797700	0.931400	0.702300
C1071	C107	0.323400	0.111100	0.823400
C1081	C108	0.297700	0.068600	0.797700
C1091	C109	0.323400	0.611100	0.323400
C1101	C110	0.297700	0.568600	0.297700
C1111	C111	0.823400	0.611100	0.823400
C1121	C112	0.797700	0.568600	0.797700
C1131	C113	0.676600	0.888900	0.823400
C1141	C114	0.702300	0.931400	0.797700
C1151	C115	0.676600	0.388900	0.323400
C1161	C116	0.702300	0.431400	0.297700
C1171	C117	0.676600	0.111100	0.176600
C1181	C118	0.702300	0.068600	0.202300
C1191	C119	0.676600	0.611100	0.676600
C1201	C120	0.702300	0.568600	0.702300
C1211	C121	0.176600	0.111100	0.676600
C1221	C122	0.202300	0.068600	0.702300
C1231	C123	0.176600	0.611100	0.176600
C1241	C124	0.202300	0.568600	0.202300
C1251	C125	0.823400	0.388900	0.176600
C1261	C126	0.797700	0.431400	0.202300
C1271	C127	0.823400	0.111100	0.323400
C1281	C128	0.797700	0.068600	0.297700
C1291	C129	0.176600	0.888900	0.323400
C1301	C130	0.202300	0.931400	0.297700
C1311	C131	0.176600	0.388900	0.823400
C1321	C132	0.202300	0.431400	0.797700
C1331	C133	0.676600	0.176600	0.111100
C1341	C134	0.702300	0.202300	0.068600
C1351	C135	0.676600	0.323400	0.388900
C1361	C136	0.702300	0.297700	0.431400
C1371	C137	0.323400	0.823400	0.111100
C1381	C138	0.297700	0.797700	0.068600
C1391	C139	0.323400	0.323400	0.611100
C1401	C140	0.297700	0.297700	0.568600
C1411	C141	0.323400	0.176600	0.888900
C1421	C142	0.297700	0.202300	0.931400
C1431	C143	0.323400	0.676600	0.388900
C1441	C144	0.297700	0.702300	0.431400
C1451	C145	0.111100	0.676600	0.176600
C1461	C146	0.068600	0.702300	0.202300
C1471	C147	0.388900	0.676600	0.323400
C1481	C148	0.431400	0.702300	0.297700
C1491	C149	0.111100	0.323400	0.823400
C1501	C150	0.068600	0.297700	0.797700
C1511	C151	0.611100	0.323400	0.323400
C1521	C152	0.568600	0.297700	0.297700
C1531	C153	0.888900	0.323400	0.176600
C1541	C154	0.931400	0.297700	0.202300
C1551	C155	0.388900	0.323400	0.676600
C1561	C156	0.431400	0.297700	0.702300
C1571	C157	0.111100	0.176600	0.323400
C1581	C158	0.068600	0.202300	0.297700
C1591	C159	0.611100	0.176600	0.823400
C1601	C160	0.568600	0.202300	0.797700
C1611	C161	0.888900	0.823400	0.323400
C1621	C162	0.931400	0.797700	0.297700
C1631	C163	0.611100	0.823400	0.176600
C1641	C164	0.568600	0.797700	0.202300
C1651	C165	0.888900	0.176600	0.676600
C1661	C166	0.931400	0.202300	0.702300
C1671	C167	0.388900	0.176600	0.176600
C1681	C168	0.431400	0.202300	0.202300
C1691	C169	0.176600	0.676600	0.888900
C1701	C170	0.202300	0.702300	0.931400
C1711	C171	0.176600	0.176600	0.388900
C1721	C172	0.202300	0.202300	0.431400
C1731	C173	0.823400	0.176600	0.611100
C1741	C174	0.797700	0.202300	0.568600
C1751	C175	0.823400	0.323400	0.888900
C1761	C176	0.797700	0.297700	0.931400
C1771	C177	0.176600	0.323400	0.111100
C1781	C178	0.202300	0.297700	0.068600
C1791	C179	0.176600	0.823400	0.611100
C1801	C180	0.202300	0.797700	0.568600
C1811	C181	0.676600	0.611100	0.323400
C1821	C182	0.702300	0.568600	0.297700
C1831	C183	0.676600	0.888900	0.176600
C1841	C184	0.702300	0.931400	0.202300
C1851	C185	0.323400	0.111100	0.176600
C1861	C186	0.297700	0.068600	0.202300
C1871	C187	0.323400	0.611100	0.676600
C1881	C188	0.297700	0.568600	0.702300
C1891	C189	0.323400	0.888900	0.823400
C1901	C190	0.297700	0.931400	0.797700
C1911	C191	0.323400	0.388900	0.323400
C1921	C192	0.297700	0.431400	0.297700
C1931	C193	0.802400	0.867200	0.367200
H11	H1	0.774100	0.882100	0.382100
C1941	C194	0.302400	0.867200	0.867200
H21	H2	0.274100	0.882100	0.882100
C1951	C195	0.197600	0.132800	0.367200
H31	H3	0.225900	0.117900	0.382100
C1961	C196	0.197600	0.632800	0.867200
H41	H4	0.225900	0.617900	0.882100
C1971	C197	0.697600	0.132800	0.867200
H51	H5	0.725900	0.117900	0.882100
C1981	C198	0.197600	0.867200	0.632800
H61	H6	0.225900	0.882100	0.617900
C1991	C199	0.697600	0.867200	0.132800
H71	H7	0.725900	0.882100	0.117900
C2001	C200	0.802400	0.132800	0.632800
H81	H8	0.774100	0.117900	0.617900
C2011	C201	0.302400	0.132800	0.132800
H91	H9	0.274100	0.117900	0.117900
C2021	C202	0.302400	0.632800	0.632800
H101	H10	0.274100	0.617900	0.617900
C2031	C203	0.367200	0.802400	0.867200
H111	H11	0.382100	0.774100	0.882100
C2041	C204	0.367200	0.302400	0.367200
H121	H12	0.382100	0.274100	0.382100
C2051	C205	0.867200	0.302400	0.867200
H131	H13	0.882100	0.274100	0.882100
C2061	C206	0.367200	0.197600	0.132800
H141	H14	0.382100	0.225900	0.117900
C2071	C207	0.367200	0.697600	0.632800
H151	H15	0.382100	0.725900	0.617900
C2081	C208	0.867200	0.197600	0.632800
H161	H16	0.882100	0.225900	0.617900
C2091	C209	0.632800	0.197600	0.867200
H171	H17	0.617900	0.225900	0.882100
C2101	C210	0.632800	0.697600	0.367200
H181	H18	0.617900	0.725900	0.382100
C2111	C211	0.632800	0.802400	0.132800
H191	H19	0.617900	0.774100	0.117900
C2121	C212	0.632800	0.302400	0.632800
H201	H20	0.617900	0.274100	0.617900
C2131	C213	0.867200	0.367200	0.802400
H211	H21	0.882100	0.382100	0.774100
C2141	C214	0.867200	0.867200	0.302400
H221	H22	0.882100	0.882100	0.274100
C2151	C215	0.132800	0.367200	0.197600
H231	H23	0.117900	0.382100	0.225900
C2161	C216	0.132800	0.867200	0.697600
H241	H24	0.117900	0.882100	0.725900
C2171	C217	0.632800	0.867200	0.197600
H251	H25	0.617900	0.882100	0.225900
C2181	C218	0.867200	0.632800	0.197600
H261	H26	0.882100	0.617900	0.225900
C2191	C219	0.867200	0.132800	0.697600
H271	H27	0.882100	0.117900	0.725900
C2201	C220	0.132800	0.632800	0.802400
H281	H28	0.117900	0.617900	0.774100
C2211	C221	0.132800	0.132800	0.302400
H291	H29	0.117900	0.117900	0.274100
C2221	C222	0.632800	0.632800	0.302400
H301	H30	0.617900	0.617900	0.274100
C2231	C223	0.867200	0.802400	0.632800
H311	H31	0.882100	0.774100	0.617900
C2241	C224	0.867200	0.302400	0.132800
H321	H32	0.882100	0.274100	0.117900
C2251	C225	0.132800	0.197600	0.632800
H331	H33	0.117900	0.225900	0.617900
C2261	C226	0.132800	0.697600	0.132800
H341	H34	0.117900	0.725900	0.117900
C2271	C227	0.632800	0.697600	0.632800
H351	H35	0.617900	0.725900	0.617900
C2281	C228	0.867200	0.197600	0.367200
H361	H36	0.882100	0.225900	0.382100
C2291	C229	0.867200	0.697600	0.867200
H371	H37	0.882100	0.725900	0.882100
C2301	C230	0.132800	0.802400	0.367200
H381	H38	0.117900	0.774100	0.382100
C2311	C231	0.132800	0.302400	0.867200
H391	H39	0.117900	0.274100	0.882100
C2321	C232	0.632800	0.802400	0.867200
H401	H40	0.617900	0.774100	0.882100
C2331	C233	0.802400	0.367200	0.132800
H411	H41	0.774100	0.382100	0.117900
C2341	C234	0.802400	0.867200	0.632800
H421	H42	0.774100	0.882100	0.617900
C2351	C235	0.302400	0.367200	0.632800
H431	H43	0.274100	0.382100	0.617900
C2361	C236	0.197600	0.367200	0.867200
H441	H44	0.225900	0.382100	0.882100
C2371	C237	0.697600	0.367200	0.367200
H451	H45	0.725900	0.382100	0.382100
C2381	C238	0.697600	0.867200	0.867200
H461	H46	0.725900	0.882100	0.882100
C2391	C239	0.197600	0.632800	0.132800
H471	H47	0.225900	0.617900	0.117900
C2401	C240	0.697600	0.632800	0.632800
H481	H48	0.725900	0.617900	0.617900
C2411	C241	0.802400	0.632800	0.867200
H491	H49	0.774100	0.617900	0.882100
C2421	C242	0.302400	0.632800	0.367200
H501	H50	0.274100	0.617900	0.382100
C2431	C243	0.367200	0.867200	0.197600
H511	H51	0.382100	0.882100	0.225900
C2441	C244	0.367200	0.367200	0.697600
H521	H52	0.382100	0.382100	0.725900
C2451	C245	0.867200	0.867200	0.697600
H531	H53	0.882100	0.882100	0.725900
C2461	C246	0.367200	0.132800	0.802400
H541	H54	0.382100	0.117900	0.774100
C2471	C247	0.367200	0.632800	0.302400
H551	H55	0.382100	0.617900	0.274100
C2481	C248	0.867200	0.632800	0.802400
H561	H56	0.882100	0.617900	0.774100
C2491	C249	0.632800	0.867200	0.802400
H571	H57	0.617900	0.882100	0.774100
C2501	C250	0.632800	0.367200	0.302400
H581	H58	0.617900	0.382100	0.274100
C2511	C251	0.632800	0.132800	0.197600
H591	H59	0.617900	0.117900	0.225900
C2521	C252	0.632800	0.632800	0.697600
H601	H60	0.617900	0.617900	0.725900
C2531	C253	0.197600	0.132800	0.632800
H611	H61	0.225900	0.117900	0.617900
C2541	C254	0.697600	0.132800	0.132800
H621	H62	0.725900	0.117900	0.117900
C2551	C255	0.302400	0.867200	0.132800
H631	H63	0.274100	0.882100	0.117900
C2561	C256	0.802400	0.132800	0.367200
H641	H64	0.774100	0.117900	0.382100
C2571	C257	0.302400	0.132800	0.867200
H651	H65	0.274100	0.117900	0.882100
C2581	C258	0.197600	0.867200	0.367200
H661	H66	0.225900	0.882100	0.382100
C2591	C259	0.632800	0.197600	0.132800
H671	H67	0.617900	0.225900	0.117900
C2601	C260	0.632800	0.302400	0.367200
H681	H68	0.617900	0.274100	0.382100
C2611	C261	0.367200	0.802400	0.132800
H691	H69	0.382100	0.774100	0.117900
C2621	C262	0.367200	0.302400	0.632800
H701	H70	0.382100	0.274100	0.617900
C2631	C263	0.367200	0.197600	0.867200
H711	H71	0.382100	0.225900	0.882100
C2641	C264	0.367200	0.697600	0.367200
H721	H72	0.382100	0.725900	0.382100
C2651	C265	0.132800	0.632800	0.197600
H731	H73	0.117900	0.617900	0.225900
C2661	C266	0.132800	0.132800	0.697600
H741	H74	0.117900	0.117900	0.725900
C2671	C267	0.867200	0.132800	0.302400
H751	H75	0.882100	0.117900	0.274100
C2681	C268	0.132800	0.367200	0.802400
H761	H76	0.117900	0.382100	0.774100
C2691	C269	0.132800	0.867200	0.302400
H771	H77	0.117900	0.882100	0.274100
C2701	C270	0.867200	0.367200	0.197600
H781	H78	0.882100	0.382100	0.225900
C2711	C271	0.132800	0.197600	0.367200
H791	H79	0.117900	0.225900	0.382100
C2721	C272	0.132800	0.697600	0.867200
H801	H80	0.117900	0.725900	0.882100
C2731	C273	0.867200	0.802400	0.367200
H811	H81	0.882100	0.774100	0.382100
C2741	C274	0.132800	0.802400	0.632800
H821	H82	0.117900	0.774100	0.617900
C2751	C275	0.132800	0.302400	0.132800
H831	H83	0.117900	0.274100	0.117900
C2761	C276	0.867200	0.697600	0.132800
H841	H84	0.882100	0.725900	0.117900
C2771	C277	0.697600	0.632800	0.367200
H851	H85	0.725900	0.617900	0.382100
C2781	C278	0.802400	0.632800	0.132800
H861	H86	0.774100	0.617900	0.117900
C2791	C279	0.802400	0.367200	0.867200
H871	H87	0.774100	0.382100	0.882100
C2801	C280	0.302400	0.367200	0.367200
H881	H88	0.274100	0.382100	0.382100
C2811	C281	0.197600	0.367200	0.132800
H891	H89	0.225900	0.382100	0.117900
C2821	C282	0.697600	0.367200	0.632800
H901	H90	0.725900	0.382100	0.617900
C2831	C283	0.632800	0.132800	0.802400
H911	H91	0.617900	0.117900	0.774100
C2841	C284	0.632800	0.367200	0.697600
H921	H92	0.617900	0.382100	0.725900
C2851	C285	0.367200	0.132800	0.197600
H931	H93	0.382100	0.117900	0.225900
C2861	C286	0.367200	0.632800	0.697600
H941	H94	0.382100	0.617900	0.725900
C2871	C287	0.367200	0.867200	0.802400
H951	H95	0.382100	0.882100	0.774100
C2881	C288	0.367200	0.367200	0.302400
H961	H96	0.382100	0.382100	0.274100
Cu11	Cu1	0.714600	0.000000	0.285400
Cu21	Cu2	0.714600	0.500000	0.785400
Cu31	Cu3	0.214600	0.000000	0.785400
Cu41	Cu4	0.214600	0.500000	0.285400
Cu51	Cu5	0.285400	0.000000	0.285400
Cu61	Cu6	0.285400	0.500000	0.785400
Cu71	Cu7	0.785400	0.000000	0.785400
Cu81	Cu8	0.785400	0.500000	0.285400
Cu91	Cu9	0.285400	0.000000	0.714600
Cu101	Cu10	0.285400	0.500000	0.214600
Cu111	Cu11	0.785400	0.000000	0.214600
Cu121	Cu12	0.785400	0.500000	0.714600
Cu131	Cu13	0.714600	0.000000	0.714600
Cu141	Cu14	0.714600	0.500000	0.214600
Cu151	Cu15	0.214600	0.000000	0.214600
Cu161	Cu16	0.214600	0.500000	0.714600
Cu171	Cu17	0.285400	0.714600	0.000000
Cu181	Cu18	0.285400	0.214600	0.500000
Cu191	Cu19	0.785400	0.714600	0.500000
Cu201	Cu20	0.785400	0.214600	0.000000
Cu211	Cu21	0.285400	0.285400	0.000000
Cu221	Cu22	0.285400	0.785400	0.500000
Cu231	Cu23	0.785400	0.285400	0.500000
Cu241	Cu24	0.785400	0.785400	0.000000
Cu251	Cu25	0.714600	0.285400	0.000000
Cu261	Cu26	0.714600	0.785400	0.500000
Cu271	Cu27	0.214600	0.285400	0.500000
Cu281	Cu28	0.214600	0.785400	0.000000
Cu291	Cu29	0.714600	0.714600	0.000000
Cu301	Cu30	0.714600	0.214600	0.500000
Cu311	Cu31	0.214600	0.714600	0.500000
Cu321	Cu32	0.214600	0.214600	0.000000
Cu331	Cu33	0.000000	0.285400	0.714600
Cu341	Cu34	0.000000	0.785400	0.214600
Cu351	Cu35	0.500000	0.285400	0.214600
Cu361	Cu36	0.500000	0.785400	0.714600
Cu371	Cu37	0.000000	0.285400	0.285400
Cu381	Cu38	0.000000	0.785400	0.785400
Cu391	Cu39	0.500000	0.285400	0.785400
Cu401	Cu40	0.500000	0.785400	0.285400
Cu411	Cu41	0.000000	0.714600	0.285400
Cu421	Cu42	0.000000	0.214600	0.785400
Cu431	Cu43	0.500000	0.714600	0.785400
Cu441	Cu44	0.500000	0.214600	0.285400
Cu451	Cu45	0.000000	0.714600	0.714600
Cu461	Cu46	0.000000	0.214600	0.214600
Cu471	Cu47	0.500000	0.714600	0.214600
Cu481	Cu48	0.500000	0.214600	0.714600
