data_RIFSOQ_clean_PM
_symmetry_space_group_name_H-M	'P1'
_cell_length_a	45.306700
_cell_length_b	45.306700
_cell_length_c	45.306700
_cell_angle_alpha	60.000000
_cell_angle_beta	60.000000
_cell_angle_gamma	60.000000
_symmetry_Int_Tables_number 1

loop_
_symmetry_equiv_pos_as_xyz
'x,y,z'

loop_
_atom_site_label
_atom_site_type_symbol
_atom_site_fract_x
_atom_site_fract_y
_atom_site_fract_z
C161	C16	0.060580	0.293440	0.686300
H171	H17	0.039700	0.314300	0.687700
C181	C18	0.092600	0.298060	0.660440
H191	H19	0.093600	0.321600	0.644600
C201	C20	0.124040	0.267740	0.657520
H211	H21	0.146500	0.270100	0.639500
C221	C22	0.120860	0.234100	0.682260
C231	C23	0.087190	0.232210	0.707730
H241	H24	0.085400	0.209200	0.724600
C251	C25	0.228780	0.961660	0.835980
C261	C26	0.205980	0.074760	0.734660
H271	H27	0.225200	0.075200	0.712400
C281	C28	0.177950	0.106850	0.737850
C291	C29	0.149310	0.106150	0.770930
H301	H30	0.129400	0.127600	0.773800
C311	C31	0.150850	0.073710	0.799010
H321	H32	0.132300	0.072300	0.821900
C331	C33	0.180060	0.042860	0.793360
H341	H34	0.180700	0.020700	0.812900
C351	C35	0.177510	0.140290	0.706090
C361	C36	0.202650	0.168150	0.646710
C371	C37	0.151300	0.200000	0.680240
C381	C38	0.230560	0.166200	0.611420
C391	C39	0.259580	0.134420	0.607520
H401	H40	0.262300	0.113100	0.627900
C411	C41	0.284170	0.134690	0.573510
H421	H42	0.304200	0.113600	0.570000
C431	C43	0.279270	0.166690	0.543950
H441	H44	0.296400	0.166600	0.520600
C451	C45	0.227920	0.196600	0.580360
H461	H46	0.208200	0.218000	0.583000
C471	C47	0.203740	0.297540	0.552840
C481	C48	0.296180	0.238340	0.538480
H491	H49	0.274000	0.240200	0.558000
C501	C50	0.326310	0.230730	0.544230
H511	H51	0.325000	0.227400	0.567200
C521	C52	0.359480	0.227900	0.515740
H531	H53	0.381000	0.222400	0.519000
C541	C54	0.359700	0.233560	0.482400
C551	C55	0.327880	0.240940	0.478800
H561	H56	0.328500	0.244300	0.456100
C571	C57	0.393490	0.232490	0.450830
N581	N58	0.244430	0.969850	0.804690
N591	N59	0.057160	0.261140	0.709600
N601	N60	0.207000	0.042900	0.762060
N611	N61	0.150220	0.170720	0.710040
N621	N62	0.177300	0.200380	0.647740
N631	N63	0.204620	0.137240	0.674980
N641	N64	0.251520	0.197240	0.547320
N651	N65	0.218140	0.279380	0.535500
N661	N66	0.295950	0.243550	0.506230
N671	N67	0.421290	0.232330	0.453570
S681	S68	0.205060	0.951000	0.878610
S691	S69	0.183230	0.323310	0.577230
C851	C85	0.293440	0.060580	0.459680
H861	H86	0.314300	0.039700	0.458300
C871	C87	0.298060	0.092600	0.448900
H881	H88	0.321600	0.093600	0.440200
C891	C89	0.267740	0.124040	0.450700
H901	H90	0.270100	0.146500	0.443900
C911	C91	0.234100	0.120860	0.462780
C921	C92	0.232210	0.087190	0.472870
H931	H93	0.209200	0.085400	0.480800
C941	C94	0.961660	0.228780	0.473580
C951	C95	0.074760	0.205980	0.484600
H961	H96	0.075200	0.225200	0.487200
C971	C97	0.106850	0.177950	0.477350
C981	C98	0.106150	0.149310	0.473610
H991	H99	0.127600	0.129400	0.469200
C1001	C100	0.073710	0.150850	0.476430
H1011	H101	0.072300	0.132300	0.473500
C1021	C102	0.042860	0.180060	0.483720
H1031	H103	0.020700	0.180700	0.485700
C1041	C104	0.140290	0.177510	0.476110
C1051	C105	0.168150	0.202650	0.482490
C1061	C106	0.200000	0.151300	0.468460
C1071	C107	0.166200	0.230560	0.491820
C1081	C108	0.134420	0.259580	0.498480
H1091	H109	0.113100	0.262300	0.496700
C1101	C110	0.134690	0.284170	0.507630
H1111	H111	0.113600	0.304200	0.512200
C1121	C112	0.166690	0.279270	0.510090
H1131	H113	0.166600	0.296400	0.516400
C1141	C114	0.196600	0.227920	0.495120
H1151	H115	0.218000	0.208200	0.490800
C1161	C116	0.297540	0.203740	0.445880
C1171	C117	0.238340	0.296180	0.427000
H1181	H118	0.240200	0.274000	0.427800
C1191	C119	0.230730	0.326310	0.398730
H1201	H120	0.227400	0.325000	0.380400
C1211	C121	0.227900	0.359480	0.396880
H1221	H122	0.222400	0.381000	0.377600
C1231	C123	0.233560	0.359700	0.424340
C1241	C124	0.240940	0.327880	0.452380
H1251	H125	0.244300	0.328500	0.471100
C1261	C126	0.232490	0.393490	0.423190
N1271	N127	0.969850	0.244430	0.481030
N1281	N128	0.261140	0.057160	0.472100
N1291	N129	0.042900	0.207000	0.488040
N1301	N130	0.170720	0.150220	0.469020
N1311	N131	0.200380	0.177300	0.474580
N1321	N132	0.137240	0.204620	0.483160
N1331	N133	0.197240	0.251520	0.503920
N1341	N134	0.279380	0.218140	0.466980
N1351	N135	0.243550	0.295950	0.454270
N1361	N136	0.232330	0.421290	0.392810
S1371	S137	0.951000	0.205060	0.465340
S1381	S138	0.323310	0.183230	0.416230
C1541	C154	0.686300	0.459680	0.060580
H1551	H155	0.687700	0.458300	0.039700
C1561	C156	0.660440	0.448900	0.092600
H1571	H157	0.644600	0.440200	0.093600
C1581	C158	0.657520	0.450700	0.124040
H1591	H159	0.639500	0.443900	0.146500
C1601	C160	0.682260	0.462780	0.120860
C1611	C161	0.707730	0.472870	0.087190
H1621	H162	0.724600	0.480800	0.085400
C1631	C163	0.835980	0.473580	0.228780
C1641	C164	0.734660	0.484600	0.205980
H1651	H165	0.712400	0.487200	0.225200
C1661	C166	0.737850	0.477350	0.177950
C1671	C167	0.770930	0.473610	0.149310
H1681	H168	0.773800	0.469200	0.129400
C1691	C169	0.799010	0.476430	0.150850
H1701	H170	0.821900	0.473500	0.132300
C1711	C171	0.793360	0.483720	0.180060
H1721	H172	0.812900	0.485700	0.180700
C1731	C173	0.706090	0.476110	0.177510
C1741	C174	0.646710	0.482490	0.202650
C1751	C175	0.680240	0.468460	0.151300
C1761	C176	0.611420	0.491820	0.230560
C1771	C177	0.607520	0.498480	0.259580
H1781	H178	0.627900	0.496700	0.262300
C1791	C179	0.573510	0.507630	0.284170
H1801	H180	0.570000	0.512200	0.304200
C1811	C181	0.543950	0.510090	0.279270
H1821	H182	0.520600	0.516400	0.296400
C1831	C183	0.580360	0.495120	0.227920
H1841	H184	0.583000	0.490800	0.208200
C1851	C185	0.552840	0.445880	0.203740
C1861	C186	0.538480	0.427000	0.296180
H1871	H187	0.558000	0.427800	0.274000
C1881	C188	0.544230	0.398730	0.326310
H1891	H189	0.567200	0.380400	0.325000
C1901	C190	0.515740	0.396880	0.359480
H1911	H191	0.519000	0.377600	0.381000
C1921	C192	0.482400	0.424340	0.359700
C1931	C193	0.478800	0.452380	0.327880
H1941	H194	0.456100	0.471100	0.328500
C1951	C195	0.450830	0.423190	0.393490
N1961	N196	0.804690	0.481030	0.244430
N1971	N197	0.709600	0.472100	0.057160
N1981	N198	0.762060	0.488040	0.207000
N1991	N199	0.710040	0.469020	0.150220
N2001	N200	0.647740	0.474580	0.177300
N2011	N201	0.674980	0.483160	0.204620
N2021	N202	0.547320	0.503920	0.251520
N2031	N203	0.535500	0.466980	0.218140
N2041	N204	0.506230	0.454270	0.295950
N2051	N205	0.453570	0.392810	0.421290
S2061	S206	0.878610	0.465340	0.205060
S2071	S207	0.577230	0.416230	0.183230
C2231	C223	0.459680	0.686300	0.293440
H2241	H224	0.458300	0.687700	0.314300
C2251	C225	0.448900	0.660440	0.298060
H2261	H226	0.440200	0.644600	0.321600
C2271	C227	0.450700	0.657520	0.267740
H2281	H228	0.443900	0.639500	0.270100
C2291	C229	0.462780	0.682260	0.234100
C2301	C230	0.472870	0.707730	0.232210
H2311	H231	0.480800	0.724600	0.209200
C2321	C232	0.473580	0.835980	0.961660
C2331	C233	0.484600	0.734660	0.074760
H2341	H234	0.487200	0.712400	0.075200
C2351	C235	0.477350	0.737850	0.106850
C2361	C236	0.473610	0.770930	0.106150
H2371	H237	0.469200	0.773800	0.127600
C2381	C238	0.476430	0.799010	0.073710
H2391	H239	0.473500	0.821900	0.072300
C2401	C240	0.483720	0.793360	0.042860
H2411	H241	0.485700	0.812900	0.020700
C2421	C242	0.476110	0.706090	0.140290
C2431	C243	0.482490	0.646710	0.168150
C2441	C244	0.468460	0.680240	0.200000
C2451	C245	0.491820	0.611420	0.166200
C2461	C246	0.498480	0.607520	0.134420
H2471	H247	0.496700	0.627900	0.113100
C2481	C248	0.507630	0.573510	0.134690
H2491	H249	0.512200	0.570000	0.113600
C2501	C250	0.510090	0.543950	0.166690
H2511	H251	0.516400	0.520600	0.166600
C2521	C252	0.495120	0.580360	0.196600
H2531	H253	0.490800	0.583000	0.218000
C2541	C254	0.445880	0.552840	0.297540
C2551	C255	0.427000	0.538480	0.238340
H2561	H256	0.427800	0.558000	0.240200
C2571	C257	0.398730	0.544230	0.230730
H2581	H258	0.380400	0.567200	0.227400
C2591	C259	0.396880	0.515740	0.227900
H2601	H260	0.377600	0.519000	0.222400
C2611	C261	0.424340	0.482400	0.233560
C2621	C262	0.452380	0.478800	0.240940
H2631	H263	0.471100	0.456100	0.244300
C2641	C264	0.423190	0.450830	0.232490
N2651	N265	0.481030	0.804690	0.969850
N2661	N266	0.472100	0.709600	0.261140
N2671	N267	0.488040	0.762060	0.042900
N2681	N268	0.469020	0.710040	0.170720
N2691	N269	0.474580	0.647740	0.200380
N2701	N270	0.483160	0.674980	0.137240
N2711	N271	0.503920	0.547320	0.197240
N2721	N272	0.466980	0.535500	0.279380
N2731	N273	0.454270	0.506230	0.243550
N2741	N274	0.392810	0.453570	0.232330
S2751	S275	0.465340	0.878610	0.951000
S2761	S276	0.416230	0.577230	0.323310
C2921	C292	0.686300	0.060580	0.293440
H2931	H293	0.687700	0.039700	0.314300
C2941	C294	0.660440	0.092600	0.298060
H2951	H295	0.644600	0.093600	0.321600
C2961	C296	0.657520	0.124040	0.267740
H2971	H297	0.639500	0.146500	0.270100
C2981	C298	0.682260	0.120860	0.234100
C2991	C299	0.707730	0.087190	0.232210
H3001	H300	0.724600	0.085400	0.209200
C3011	C301	0.835980	0.228780	0.961660
C3021	C302	0.734660	0.205980	0.074760
H3031	H303	0.712400	0.225200	0.075200
C3041	C304	0.737850	0.177950	0.106850
C3051	C305	0.770930	0.149310	0.106150
H3061	H306	0.773800	0.129400	0.127600
C3071	C307	0.799010	0.150850	0.073710
H3081	H308	0.821900	0.132300	0.072300
C3091	C309	0.793360	0.180060	0.042860
H3101	H310	0.812900	0.180700	0.020700
C3111	C311	0.706090	0.177510	0.140290
C3121	C312	0.646710	0.202650	0.168150
C3131	C313	0.680240	0.151300	0.200000
C3141	C314	0.611420	0.230560	0.166200
C3151	C315	0.607520	0.259580	0.134420
H3161	H316	0.627900	0.262300	0.113100
C3171	C317	0.573510	0.284170	0.134690
H3181	H318	0.570000	0.304200	0.113600
C3191	C319	0.543950	0.279270	0.166690
H3201	H320	0.520600	0.296400	0.166600
C3211	C321	0.580360	0.227920	0.196600
H3221	H322	0.583000	0.208200	0.218000
C3231	C323	0.552840	0.203740	0.297540
C3241	C324	0.538480	0.296180	0.238340
H3251	H325	0.558000	0.274000	0.240200
C3261	C326	0.544230	0.326310	0.230730
H3271	H327	0.567200	0.325000	0.227400
C3281	C328	0.515740	0.359480	0.227900
H3291	H329	0.519000	0.381000	0.222400
C3301	C330	0.482400	0.359700	0.233560
C3311	C331	0.478800	0.327880	0.240940
H3321	H332	0.456100	0.328500	0.244300
C3331	C333	0.450830	0.393490	0.232490
N3341	N334	0.804690	0.244430	0.969850
N3351	N335	0.709600	0.057160	0.261140
N3361	N336	0.762060	0.207000	0.042900
N3371	N337	0.710040	0.150220	0.170720
N3381	N338	0.647740	0.177300	0.200380
N3391	N339	0.674980	0.204620	0.137240
N3401	N340	0.547320	0.251520	0.197240
N3411	N341	0.535500	0.218140	0.279380
N3421	N342	0.506230	0.295950	0.243550
N3431	N343	0.453570	0.421290	0.232330
S3441	S344	0.878610	0.205060	0.951000
S3451	S345	0.577230	0.183230	0.323310
C3611	C361	0.459680	0.293440	0.060580
H3621	H362	0.458300	0.314300	0.039700
C3631	C363	0.448900	0.298060	0.092600
H3641	H364	0.440200	0.321600	0.093600
C3651	C365	0.450700	0.267740	0.124040
H3661	H366	0.443900	0.270100	0.146500
C3671	C367	0.462780	0.234100	0.120860
C3681	C368	0.472870	0.232210	0.087190
H3691	H369	0.480800	0.209200	0.085400
C3701	C370	0.473580	0.961660	0.228780
C3711	C371	0.484600	0.074760	0.205980
H3721	H372	0.487200	0.075200	0.225200
C3731	C373	0.477350	0.106850	0.177950
C3741	C374	0.473610	0.106150	0.149310
H3751	H375	0.469200	0.127600	0.129400
C3761	C376	0.476430	0.073710	0.150850
H3771	H377	0.473500	0.072300	0.132300
C3781	C378	0.483720	0.042860	0.180060
H3791	H379	0.485700	0.020700	0.180700
C3801	C380	0.476110	0.140290	0.177510
C3811	C381	0.482490	0.168150	0.202650
C3821	C382	0.468460	0.200000	0.151300
C3831	C383	0.491820	0.166200	0.230560
C3841	C384	0.498480	0.134420	0.259580
H3851	H385	0.496700	0.113100	0.262300
C3861	C386	0.507630	0.134690	0.284170
H3871	H387	0.512200	0.113600	0.304200
C3881	C388	0.510090	0.166690	0.279270
H3891	H389	0.516400	0.166600	0.296400
C3901	C390	0.495120	0.196600	0.227920
H3911	H391	0.490800	0.218000	0.208200
C3921	C392	0.445880	0.297540	0.203740
C3931	C393	0.427000	0.238340	0.296180
H3941	H394	0.427800	0.240200	0.274000
C3951	C395	0.398730	0.230730	0.326310
H3961	H396	0.380400	0.227400	0.325000
C3971	C397	0.396880	0.227900	0.359480
H3981	H398	0.377600	0.222400	0.381000
C3991	C399	0.424340	0.233560	0.359700
C4001	C400	0.452380	0.240940	0.327880
H4011	H401	0.471100	0.244300	0.328500
C4021	C402	0.423190	0.232490	0.393490
N4031	N403	0.481030	0.969850	0.244430
N4041	N404	0.472100	0.261140	0.057160
N4051	N405	0.488040	0.042900	0.207000
N4061	N406	0.469020	0.170720	0.150220
N4071	N407	0.474580	0.200380	0.177300
N4081	N408	0.483160	0.137240	0.204620
N4091	N409	0.503920	0.197240	0.251520
N4101	N410	0.466980	0.279380	0.218140
N4111	N411	0.454270	0.243550	0.295950
N4121	N412	0.392810	0.232330	0.421290
S4131	S413	0.465340	0.951000	0.205060
S4141	S414	0.416230	0.323310	0.183230
C4301	C430	0.060580	0.686300	0.459680
H4311	H431	0.039700	0.687700	0.458300
C4321	C432	0.092600	0.660440	0.448900
H4331	H433	0.093600	0.644600	0.440200
C4341	C434	0.124040	0.657520	0.450700
H4351	H435	0.146500	0.639500	0.443900
C4361	C436	0.120860	0.682260	0.462780
C4371	C437	0.087190	0.707730	0.472870
H4381	H438	0.085400	0.724600	0.480800
C4391	C439	0.228780	0.835980	0.473580
C4401	C440	0.205980	0.734660	0.484600
H4411	H441	0.225200	0.712400	0.487200
C4421	C442	0.177950	0.737850	0.477350
C4431	C443	0.149310	0.770930	0.473610
H4441	H444	0.129400	0.773800	0.469200
C4451	C445	0.150850	0.799010	0.476430
H4461	H446	0.132300	0.821900	0.473500
C4471	C447	0.180060	0.793360	0.483720
H4481	H448	0.180700	0.812900	0.485700
C4491	C449	0.177510	0.706090	0.476110
C4501	C450	0.202650	0.646710	0.482490
C4511	C451	0.151300	0.680240	0.468460
C4521	C452	0.230560	0.611420	0.491820
C4531	C453	0.259580	0.607520	0.498480
H4541	H454	0.262300	0.627900	0.496700
C4551	C455	0.284170	0.573510	0.507630
H4561	H456	0.304200	0.570000	0.512200
C4571	C457	0.279270	0.543950	0.510090
H4581	H458	0.296400	0.520600	0.516400
C4591	C459	0.227920	0.580360	0.495120
H4601	H460	0.208200	0.583000	0.490800
C4611	C461	0.203740	0.552840	0.445880
C4621	C462	0.296180	0.538480	0.427000
H4631	H463	0.274000	0.558000	0.427800
C4641	C464	0.326310	0.544230	0.398730
H4651	H465	0.325000	0.567200	0.380400
C4661	C466	0.359480	0.515740	0.396880
H4671	H467	0.381000	0.519000	0.377600
C4681	C468	0.359700	0.482400	0.424340
C4691	C469	0.327880	0.478800	0.452380
H4701	H470	0.328500	0.456100	0.471100
C4711	C471	0.393490	0.450830	0.423190
N4721	N472	0.244430	0.804690	0.481030
N4731	N473	0.057160	0.709600	0.472100
N4741	N474	0.207000	0.762060	0.488040
N4751	N475	0.150220	0.710040	0.469020
N4761	N476	0.177300	0.647740	0.474580
N4771	N477	0.204620	0.674980	0.483160
N4781	N478	0.251520	0.547320	0.503920
N4791	N479	0.218140	0.535500	0.466980
N4801	N480	0.295950	0.506230	0.454270
N4811	N481	0.421290	0.453570	0.392810
S4821	S482	0.205060	0.878610	0.465340
S4831	S483	0.183230	0.577230	0.416230
C4991	C499	0.293440	0.459680	0.686300
H5001	H500	0.314300	0.458300	0.687700
C5011	C501	0.298060	0.448900	0.660440
H5021	H502	0.321600	0.440200	0.644600
C5031	C503	0.267740	0.450700	0.657520
H5041	H504	0.270100	0.443900	0.639500
C5051	C505	0.234100	0.462780	0.682260
C5061	C506	0.232210	0.472870	0.707730
H5071	H507	0.209200	0.480800	0.724600
C5081	C508	0.961660	0.473580	0.835980
C5091	C509	0.074760	0.484600	0.734660
H5101	H510	0.075200	0.487200	0.712400
C5111	C511	0.106850	0.477350	0.737850
C5121	C512	0.106150	0.473610	0.770930
H5131	H513	0.127600	0.469200	0.773800
C5141	C514	0.073710	0.476430	0.799010
H5151	H515	0.072300	0.473500	0.821900
C5161	C516	0.042860	0.483720	0.793360
H5171	H517	0.020700	0.485700	0.812900
C5181	C518	0.140290	0.476110	0.706090
C5191	C519	0.168150	0.482490	0.646710
C5201	C520	0.200000	0.468460	0.680240
C5211	C521	0.166200	0.491820	0.611420
C5221	C522	0.134420	0.498480	0.607520
H5231	H523	0.113100	0.496700	0.627900
C5241	C524	0.134690	0.507630	0.573510
H5251	H525	0.113600	0.512200	0.570000
C5261	C526	0.166690	0.510090	0.543950
H5271	H527	0.166600	0.516400	0.520600
C5281	C528	0.196600	0.495120	0.580360
H5291	H529	0.218000	0.490800	0.583000
C5301	C530	0.297540	0.445880	0.552840
C5311	C531	0.238340	0.427000	0.538480
H5321	H532	0.240200	0.427800	0.558000
C5331	C533	0.230730	0.398730	0.544230
H5341	H534	0.227400	0.380400	0.567200
C5351	C535	0.227900	0.396880	0.515740
H5361	H536	0.222400	0.377600	0.519000
C5371	C537	0.233560	0.424340	0.482400
C5381	C538	0.240940	0.452380	0.478800
H5391	H539	0.244300	0.471100	0.456100
C5401	C540	0.232490	0.423190	0.450830
N5411	N541	0.969850	0.481030	0.804690
N5421	N542	0.261140	0.472100	0.709600
N5431	N543	0.042900	0.488040	0.762060
N5441	N544	0.170720	0.469020	0.710040
N5451	N545	0.200380	0.474580	0.647740
N5461	N546	0.137240	0.483160	0.674980
N5471	N547	0.197240	0.503920	0.547320
N5481	N548	0.279380	0.466980	0.535500
N5491	N549	0.243550	0.454270	0.506230
N5501	N550	0.232330	0.392810	0.453570
S5511	S551	0.951000	0.465340	0.878610
S5521	S552	0.323310	0.416230	0.577230
C5681	C568	0.293440	0.686300	0.060580
H5691	H569	0.314300	0.687700	0.039700
C5701	C570	0.298060	0.660440	0.092600
H5711	H571	0.321600	0.644600	0.093600
C5721	C572	0.267740	0.657520	0.124040
H5731	H573	0.270100	0.639500	0.146500
C5741	C574	0.234100	0.682260	0.120860
C5751	C575	0.232210	0.707730	0.087190
H5761	H576	0.209200	0.724600	0.085400
C5771	C577	0.961660	0.835980	0.228780
C5781	C578	0.074760	0.734660	0.205980
H5791	H579	0.075200	0.712400	0.225200
C5801	C580	0.106850	0.737850	0.177950
C5811	C581	0.106150	0.770930	0.149310
H5821	H582	0.127600	0.773800	0.129400
C5831	C583	0.073710	0.799010	0.150850
H5841	H584	0.072300	0.821900	0.132300
C5851	C585	0.042860	0.793360	0.180060
H5861	H586	0.020700	0.812900	0.180700
C5871	C587	0.140290	0.706090	0.177510
C5881	C588	0.168150	0.646710	0.202650
C5891	C589	0.200000	0.680240	0.151300
C5901	C590	0.166200	0.611420	0.230560
C5911	C591	0.134420	0.607520	0.259580
H5921	H592	0.113100	0.627900	0.262300
C5931	C593	0.134690	0.573510	0.284170
H5941	H594	0.113600	0.570000	0.304200
C5951	C595	0.166690	0.543950	0.279270
H5961	H596	0.166600	0.520600	0.296400
C5971	C597	0.196600	0.580360	0.227920
H5981	H598	0.218000	0.583000	0.208200
C5991	C599	0.297540	0.552840	0.203740
C6001	C600	0.238340	0.538480	0.296180
H6011	H601	0.240200	0.558000	0.274000
C6021	C602	0.230730	0.544230	0.326310
H6031	H603	0.227400	0.567200	0.325000
C6041	C604	0.227900	0.515740	0.359480
H6051	H605	0.222400	0.519000	0.381000
C6061	C606	0.233560	0.482400	0.359700
C6071	C607	0.240940	0.478800	0.327880
H6081	H608	0.244300	0.456100	0.328500
C6091	C609	0.232490	0.450830	0.393490
N6101	N610	0.969850	0.804690	0.244430
N6111	N611	0.261140	0.709600	0.057160
N6121	N612	0.042900	0.762060	0.207000
N6131	N613	0.170720	0.710040	0.150220
N6141	N614	0.200380	0.647740	0.177300
N6151	N615	0.137240	0.674980	0.204620
N6161	N616	0.197240	0.547320	0.251520
N6171	N617	0.279380	0.535500	0.218140
N6181	N618	0.243550	0.506230	0.295950
N6191	N619	0.232330	0.453570	0.421290
S6201	S620	0.951000	0.878610	0.205060
S6211	S621	0.323310	0.577230	0.183230
C6371	C637	0.060580	0.459680	0.293440
H6381	H638	0.039700	0.458300	0.314300
C6391	C639	0.092600	0.448900	0.298060
H6401	H640	0.093600	0.440200	0.321600
C6411	C641	0.124040	0.450700	0.267740
H6421	H642	0.146500	0.443900	0.270100
C6431	C643	0.120860	0.462780	0.234100
C6441	C644	0.087190	0.472870	0.232210
H6451	H645	0.085400	0.480800	0.209200
C6461	C646	0.228780	0.473580	0.961660
C6471	C647	0.205980	0.484600	0.074760
H6481	H648	0.225200	0.487200	0.075200
C6491	C649	0.177950	0.477350	0.106850
C6501	C650	0.149310	0.473610	0.106150
H6511	H651	0.129400	0.469200	0.127600
C6521	C652	0.150850	0.476430	0.073710
H6531	H653	0.132300	0.473500	0.072300
C6541	C654	0.180060	0.483720	0.042860
H6551	H655	0.180700	0.485700	0.020700
C6561	C656	0.177510	0.476110	0.140290
C6571	C657	0.202650	0.482490	0.168150
C6581	C658	0.151300	0.468460	0.200000
C6591	C659	0.230560	0.491820	0.166200
C6601	C660	0.259580	0.498480	0.134420
H6611	H661	0.262300	0.496700	0.113100
C6621	C662	0.284170	0.507630	0.134690
H6631	H663	0.304200	0.512200	0.113600
C6641	C664	0.279270	0.510090	0.166690
H6651	H665	0.296400	0.516400	0.166600
C6661	C666	0.227920	0.495120	0.196600
H6671	H667	0.208200	0.490800	0.218000
C6681	C668	0.203740	0.445880	0.297540
C6691	C669	0.296180	0.427000	0.238340
H6701	H670	0.274000	0.427800	0.240200
C6711	C671	0.326310	0.398730	0.230730
H6721	H672	0.325000	0.380400	0.227400
C6731	C673	0.359480	0.396880	0.227900
H6741	H674	0.381000	0.377600	0.222400
C6751	C675	0.359700	0.424340	0.233560
C6761	C676	0.327880	0.452380	0.240940
H6771	H677	0.328500	0.471100	0.244300
C6781	C678	0.393490	0.423190	0.232490
N6791	N679	0.244430	0.481030	0.969850
N6801	N680	0.057160	0.472100	0.261140
N6811	N681	0.207000	0.488040	0.042900
N6821	N682	0.150220	0.469020	0.170720
N6831	N683	0.177300	0.474580	0.200380
N6841	N684	0.204620	0.483160	0.137240
N6851	N685	0.251520	0.503920	0.197240
N6861	N686	0.218140	0.466980	0.279380
N6871	N687	0.295950	0.454270	0.243550
N6881	N688	0.421290	0.392810	0.232330
S6891	S689	0.205060	0.465340	0.951000
S6901	S690	0.183230	0.416230	0.323310
C7061	C706	0.459680	0.060580	0.686300
H7071	H707	0.458300	0.039700	0.687700
C7081	C708	0.448900	0.092600	0.660440
H7091	H709	0.440200	0.093600	0.644600
C7101	C710	0.450700	0.124040	0.657520
H7111	H711	0.443900	0.146500	0.639500
C7121	C712	0.462780	0.120860	0.682260
C7131	C713	0.472870	0.087190	0.707730
H7141	H714	0.480800	0.085400	0.724600
C7151	C715	0.473580	0.228780	0.835980
C7161	C716	0.484600	0.205980	0.734660
H7171	H717	0.487200	0.225200	0.712400
C7181	C718	0.477350	0.177950	0.737850
C7191	C719	0.473610	0.149310	0.770930
H7201	H720	0.469200	0.129400	0.773800
C7211	C721	0.476430	0.150850	0.799010
H7221	H722	0.473500	0.132300	0.821900
C7231	C723	0.483720	0.180060	0.793360
H7241	H724	0.485700	0.180700	0.812900
C7251	C725	0.476110	0.177510	0.706090
C7261	C726	0.482490	0.202650	0.646710
C7271	C727	0.468460	0.151300	0.680240
C7281	C728	0.491820	0.230560	0.611420
C7291	C729	0.498480	0.259580	0.607520
H7301	H730	0.496700	0.262300	0.627900
C7311	C731	0.507630	0.284170	0.573510
H7321	H732	0.512200	0.304200	0.570000
C7331	C733	0.510090	0.279270	0.543950
H7341	H734	0.516400	0.296400	0.520600
C7351	C735	0.495120	0.227920	0.580360
H7361	H736	0.490800	0.208200	0.583000
C7371	C737	0.445880	0.203740	0.552840
C7381	C738	0.427000	0.296180	0.538480
H7391	H739	0.427800	0.274000	0.558000
C7401	C740	0.398730	0.326310	0.544230
H7411	H741	0.380400	0.325000	0.567200
C7421	C742	0.396880	0.359480	0.515740
H7431	H743	0.377600	0.381000	0.519000
C7441	C744	0.424340	0.359700	0.482400
C7451	C745	0.452380	0.327880	0.478800
H7461	H746	0.471100	0.328500	0.456100
C7471	C747	0.423190	0.393490	0.450830
N7481	N748	0.481030	0.244430	0.804690
N7491	N749	0.472100	0.057160	0.709600
N7501	N750	0.488040	0.207000	0.762060
N7511	N751	0.469020	0.150220	0.710040
N7521	N752	0.474580	0.177300	0.647740
N7531	N753	0.483160	0.204620	0.674980
N7541	N754	0.503920	0.251520	0.547320
N7551	N755	0.466980	0.218140	0.535500
N7561	N756	0.454270	0.295950	0.506230
N7571	N757	0.392810	0.421290	0.453570
S7581	S758	0.465340	0.205060	0.878610
S7591	S759	0.416230	0.183230	0.577230
C7751	C775	0.686300	0.293440	0.459680
H7761	H776	0.687700	0.314300	0.458300
C7771	C777	0.660440	0.298060	0.448900
H7781	H778	0.644600	0.321600	0.440200
C7791	C779	0.657520	0.267740	0.450700
H7801	H780	0.639500	0.270100	0.443900
C7811	C781	0.682260	0.234100	0.462780
C7821	C782	0.707730	0.232210	0.472870
H7831	H783	0.724600	0.209200	0.480800
C7841	C784	0.835980	0.961660	0.473580
C7851	C785	0.734660	0.074760	0.484600
H7861	H786	0.712400	0.075200	0.487200
C7871	C787	0.737850	0.106850	0.477350
C7881	C788	0.770930	0.106150	0.473610
H7891	H789	0.773800	0.127600	0.469200
C7901	C790	0.799010	0.073710	0.476430
H7911	H791	0.821900	0.072300	0.473500
C7921	C792	0.793360	0.042860	0.483720
H7931	H793	0.812900	0.020700	0.485700
C7941	C794	0.706090	0.140290	0.476110
C7951	C795	0.646710	0.168150	0.482490
C7961	C796	0.680240	0.200000	0.468460
C7971	C797	0.611420	0.166200	0.491820
C7981	C798	0.607520	0.134420	0.498480
H7991	H799	0.627900	0.113100	0.496700
C8001	C800	0.573510	0.134690	0.507630
H8011	H801	0.570000	0.113600	0.512200
C8021	C802	0.543950	0.166690	0.510090
H8031	H803	0.520600	0.166600	0.516400
C8041	C804	0.580360	0.196600	0.495120
H8051	H805	0.583000	0.218000	0.490800
C8061	C806	0.552840	0.297540	0.445880
C8071	C807	0.538480	0.238340	0.427000
H8081	H808	0.558000	0.240200	0.427800
C8091	C809	0.544230	0.230730	0.398730
H8101	H810	0.567200	0.227400	0.380400
C8111	C811	0.515740	0.227900	0.396880
H8121	H812	0.519000	0.222400	0.377600
C8131	C813	0.482400	0.233560	0.424340
C8141	C814	0.478800	0.240940	0.452380
H8151	H815	0.456100	0.244300	0.471100
C8161	C816	0.450830	0.232490	0.423190
N8171	N817	0.804690	0.969850	0.481030
N8181	N818	0.709600	0.261140	0.472100
N8191	N819	0.762060	0.042900	0.488040
N8201	N820	0.710040	0.170720	0.469020
N8211	N821	0.647740	0.200380	0.474580
N8221	N822	0.674980	0.137240	0.483160
N8231	N823	0.547320	0.197240	0.503920
N8241	N824	0.535500	0.279380	0.466980
N8251	N825	0.506230	0.243550	0.454270
N8261	N826	0.453570	0.232330	0.392810
S8271	S827	0.878610	0.951000	0.465340
S8281	S828	0.577230	0.323310	0.416230
C8441	C844	0.439420	0.206560	0.040320
H8451	H845	0.460300	0.185700	0.041700
C8461	C846	0.407400	0.201940	0.051100
H8471	H847	0.406400	0.178400	0.059800
C8481	C848	0.375960	0.232260	0.049300
H8491	H849	0.353500	0.229900	0.056100
C8501	C850	0.379140	0.265900	0.037220
C8511	C851	0.412810	0.267790	0.027130
H8521	H852	0.414600	0.290800	0.019200
C8531	C853	0.271220	0.538340	0.026420
C8541	C854	0.294020	0.425240	0.015400
H8551	H855	0.274800	0.424800	0.012800
C8561	C856	0.322050	0.393150	0.022650
C8571	C857	0.350690	0.393850	0.026390
H8581	H858	0.370600	0.372400	0.030800
C8591	C859	0.349150	0.426290	0.023570
H8601	H860	0.367700	0.427700	0.026500
C8611	C861	0.319940	0.457140	0.016280
H8621	H862	0.319300	0.479300	0.014300
C8631	C863	0.322490	0.359710	0.023890
C8641	C864	0.297350	0.331850	0.017510
C8651	C865	0.348700	0.300000	0.031540
C8661	C866	0.269440	0.333800	0.008180
C8671	C867	0.240420	0.365580	0.001520
H8681	H868	0.237700	0.386900	0.003300
C8691	C869	0.215830	0.365310	0.992370
H8701	H870	0.195800	0.386400	0.987800
C8711	C871	0.220730	0.333310	0.989910
H8721	H872	0.203600	0.333400	0.983600
C8731	C873	0.272080	0.303400	0.004880
H8741	H874	0.291800	0.282000	0.009200
C8751	C875	0.296260	0.202460	0.054120
C8761	C876	0.203820	0.261660	0.073000
H8771	H877	0.226000	0.259800	0.072200
C8781	C878	0.173690	0.269270	0.101270
H8791	H879	0.175000	0.272600	0.119600
C8801	C880	0.140520	0.272100	0.103120
H8811	H881	0.119000	0.277600	0.122400
C8821	C882	0.140300	0.266440	0.075660
C8831	C883	0.172120	0.259060	0.047620
H8841	H884	0.171500	0.255700	0.028900
C8851	C885	0.106510	0.267510	0.076810
N8861	N886	0.255570	0.530150	0.018970
N8871	N887	0.442840	0.238860	0.027900
N8881	N888	0.293000	0.457100	0.011960
N8891	N889	0.349780	0.329280	0.030980
N8901	N890	0.322700	0.299620	0.025420
N8911	N891	0.295380	0.362760	0.016840
N8921	N892	0.248480	0.302760	0.996080
N8931	N893	0.281860	0.220620	0.033020
N8941	N894	0.204050	0.256450	0.045730
N8951	N895	0.078710	0.267670	0.107190
S8961	S896	0.294940	0.549000	0.034660
S8971	S897	0.316770	0.176690	0.083770
C9131	C913	0.206560	0.439420	0.813700
H9141	H914	0.185700	0.460300	0.812300
C9151	C915	0.201940	0.407400	0.839560
H9161	H916	0.178400	0.406400	0.855400
C9171	C917	0.232260	0.375960	0.842480
H9181	H918	0.229900	0.353500	0.860500
C9191	C919	0.265900	0.379140	0.817740
C9201	C920	0.267790	0.412810	0.792270
H9211	H921	0.290800	0.414600	0.775400
C9221	C922	0.538340	0.271220	0.664020
C9231	C923	0.425240	0.294020	0.765340
H9241	H924	0.424800	0.274800	0.787600
C9251	C925	0.393150	0.322050	0.762150
C9261	C926	0.393850	0.350690	0.729070
H9271	H927	0.372400	0.370600	0.726200
C9281	C928	0.426290	0.349150	0.700990
H9291	H929	0.427700	0.367700	0.678100
C9301	C930	0.457140	0.319940	0.706640
H9311	H931	0.479300	0.319300	0.687100
C9321	C932	0.359710	0.322490	0.793910
C9331	C933	0.331850	0.297350	0.853290
C9341	C934	0.300000	0.348700	0.819760
C9351	C935	0.333800	0.269440	0.888580
C9361	C936	0.365580	0.240420	0.892480
H9371	H937	0.386900	0.237700	0.872100
C9381	C938	0.365310	0.215830	0.926490
H9391	H939	0.386400	0.195800	0.930000
C9401	C940	0.333310	0.220730	0.956050
H9411	H941	0.333400	0.203600	0.979400
C9421	C942	0.303400	0.272080	0.919640
H9431	H943	0.282000	0.291800	0.917000
C9441	C944	0.202460	0.296260	0.947160
C9451	C945	0.261660	0.203820	0.961520
H9461	H946	0.259800	0.226000	0.942000
C9471	C947	0.269270	0.173690	0.955770
H9481	H948	0.272600	0.175000	0.932800
C9491	C949	0.272100	0.140520	0.984260
H9501	H950	0.277600	0.119000	0.981000
C9511	C951	0.266440	0.140300	0.017600
C9521	C952	0.259060	0.172120	0.021200
H9531	H953	0.255700	0.171500	0.043900
C9541	C954	0.267510	0.106510	0.049170
N9551	N955	0.530150	0.255570	0.695310
N9561	N956	0.238860	0.442840	0.790400
N9571	N957	0.457100	0.293000	0.737940
N9581	N958	0.329280	0.349780	0.789960
N9591	N959	0.299620	0.322700	0.852260
N9601	N960	0.362760	0.295380	0.825020
N9611	N961	0.302760	0.248480	0.952680
N9621	N962	0.220620	0.281860	0.964500
N9631	N963	0.256450	0.204050	0.993770
N9641	N964	0.267670	0.078710	0.046430
S9651	S965	0.549000	0.294940	0.621390
S9661	S966	0.176690	0.316770	0.922770
C9821	C982	0.813700	0.040320	0.206560
H9831	H983	0.812300	0.041700	0.185700
C9841	C984	0.839560	0.051100	0.201940
H9851	H985	0.855400	0.059800	0.178400
C9861	C986	0.842480	0.049300	0.232260
H9871	H987	0.860500	0.056100	0.229900
C9881	C988	0.817740	0.037220	0.265900
C9891	C989	0.792270	0.027130	0.267790
H9901	H990	0.775400	0.019200	0.290800
C9911	C991	0.664020	0.026420	0.538340
C9921	C992	0.765340	0.015400	0.425240
H9931	H993	0.787600	0.012800	0.424800
C9941	C994	0.762150	0.022650	0.393150
C9951	C995	0.729070	0.026390	0.393850
H9961	H996	0.726200	0.030800	0.372400
C9971	C997	0.700990	0.023570	0.426290
H9981	H998	0.678100	0.026500	0.427700
C9991	C999	0.706640	0.016280	0.457140
H10001	H1000	0.687100	0.014300	0.479300
C10011	C1001	0.793910	0.023890	0.359710
C10021	C1002	0.853290	0.017510	0.331850
C10031	C1003	0.819760	0.031540	0.300000
C10041	C1004	0.888580	0.008180	0.333800
C10051	C1005	0.892480	0.001520	0.365580
H10061	H1006	0.872100	0.003300	0.386900
C10071	C1007	0.926490	0.992370	0.365310
H10081	H1008	0.930000	0.987800	0.386400
C10091	C1009	0.956050	0.989910	0.333310
H10101	H1010	0.979400	0.983600	0.333400
C10111	C1011	0.919640	0.004880	0.303400
H10121	H1012	0.917000	0.009200	0.282000
C10131	C1013	0.947160	0.054120	0.202460
C10141	C1014	0.961520	0.073000	0.261660
H10151	H1015	0.942000	0.072200	0.259800
C10161	C1016	0.955770	0.101270	0.269270
H10171	H1017	0.932800	0.119600	0.272600
C10181	C1018	0.984260	0.103120	0.272100
H10191	H1019	0.981000	0.122400	0.277600
C10201	C1020	0.017600	0.075660	0.266440
C10211	C1021	0.021200	0.047620	0.259060
H10221	H1022	0.043900	0.028900	0.255700
C10231	C1023	0.049170	0.076810	0.267510
N10241	N1024	0.695310	0.018970	0.530150
N10251	N1025	0.790400	0.027900	0.238860
N10261	N1026	0.737940	0.011960	0.457100
N10271	N1027	0.789960	0.030980	0.329280
N10281	N1028	0.852260	0.025420	0.299620
N10291	N1029	0.825020	0.016840	0.362760
N10301	N1030	0.952680	0.996080	0.302760
N10311	N1031	0.964500	0.033020	0.220620
N10321	N1032	0.993770	0.045730	0.256450
N10331	N1033	0.046430	0.107190	0.267670
S10341	S1034	0.621390	0.034660	0.549000
S10351	S1035	0.922770	0.083770	0.176690
C10511	C1051	0.040320	0.813700	0.439420
H10521	H1052	0.041700	0.812300	0.460300
C10531	C1053	0.051100	0.839560	0.407400
H10541	H1054	0.059800	0.855400	0.406400
C10551	C1055	0.049300	0.842480	0.375960
H10561	H1056	0.056100	0.860500	0.353500
C10571	C1057	0.037220	0.817740	0.379140
C10581	C1058	0.027130	0.792270	0.412810
H10591	H1059	0.019200	0.775400	0.414600
C10601	C1060	0.026420	0.664020	0.271220
C10611	C1061	0.015400	0.765340	0.294020
H10621	H1062	0.012800	0.787600	0.274800
C10631	C1063	0.022650	0.762150	0.322050
C10641	C1064	0.026390	0.729070	0.350690
H10651	H1065	0.030800	0.726200	0.370600
C10661	C1066	0.023570	0.700990	0.349150
H10671	H1067	0.026500	0.678100	0.367700
C10681	C1068	0.016280	0.706640	0.319940
H10691	H1069	0.014300	0.687100	0.319300
C10701	C1070	0.023890	0.793910	0.322490
C10711	C1071	0.017510	0.853290	0.297350
C10721	C1072	0.031540	0.819760	0.348700
C10731	C1073	0.008180	0.888580	0.269440
C10741	C1074	0.001520	0.892480	0.240420
H10751	H1075	0.003300	0.872100	0.237700
C10761	C1076	0.992370	0.926490	0.215830
H10771	H1077	0.987800	0.930000	0.195800
C10781	C1078	0.989910	0.956050	0.220730
H10791	H1079	0.983600	0.979400	0.203600
C10801	C1080	0.004880	0.919640	0.272080
H10811	H1081	0.009200	0.917000	0.291800
C10821	C1082	0.054120	0.947160	0.296260
C10831	C1083	0.073000	0.961520	0.203820
H10841	H1084	0.072200	0.942000	0.226000
C10851	C1085	0.101270	0.955770	0.173690
H10861	H1086	0.119600	0.932800	0.175000
C10871	C1087	0.103120	0.984260	0.140520
H10881	H1088	0.122400	0.981000	0.119000
C10891	C1089	0.075660	0.017600	0.140300
C10901	C1090	0.047620	0.021200	0.172120
H10911	H1091	0.028900	0.043900	0.171500
C10921	C1092	0.076810	0.049170	0.106510
N10931	N1093	0.018970	0.695310	0.255570
N10941	N1094	0.027900	0.790400	0.442840
N10951	N1095	0.011960	0.737940	0.293000
N10961	N1096	0.030980	0.789960	0.349780
N10971	N1097	0.025420	0.852260	0.322700
N10981	N1098	0.016840	0.825020	0.295380
N10991	N1099	0.996080	0.952680	0.248480
N11001	N1100	0.033020	0.964500	0.281860
N11011	N1101	0.045730	0.993770	0.204050
N11021	N1102	0.107190	0.046430	0.078710
S11031	S1103	0.034660	0.621390	0.294940
S11041	S1104	0.083770	0.922770	0.316770
C11201	C1120	0.813700	0.439420	0.040320
H11211	H1121	0.812300	0.460300	0.041700
C11221	C1122	0.839560	0.407400	0.051100
H11231	H1123	0.855400	0.406400	0.059800
C11241	C1124	0.842480	0.375960	0.049300
H11251	H1125	0.860500	0.353500	0.056100
C11261	C1126	0.817740	0.379140	0.037220
C11271	C1127	0.792270	0.412810	0.027130
H11281	H1128	0.775400	0.414600	0.019200
C11291	C1129	0.664020	0.271220	0.026420
C11301	C1130	0.765340	0.294020	0.015400
H11311	H1131	0.787600	0.274800	0.012800
C11321	C1132	0.762150	0.322050	0.022650
C11331	C1133	0.729070	0.350690	0.026390
H11341	H1134	0.726200	0.370600	0.030800
C11351	C1135	0.700990	0.349150	0.023570
H11361	H1136	0.678100	0.367700	0.026500
C11371	C1137	0.706640	0.319940	0.016280
H11381	H1138	0.687100	0.319300	0.014300
C11391	C1139	0.793910	0.322490	0.023890
C11401	C1140	0.853290	0.297350	0.017510
C11411	C1141	0.819760	0.348700	0.031540
C11421	C1142	0.888580	0.269440	0.008180
C11431	C1143	0.892480	0.240420	0.001520
H11441	H1144	0.872100	0.237700	0.003300
C11451	C1145	0.926490	0.215830	0.992370
H11461	H1146	0.930000	0.195800	0.987800
C11471	C1147	0.956050	0.220730	0.989910
H11481	H1148	0.979400	0.203600	0.983600
C11491	C1149	0.919640	0.272080	0.004880
H11501	H1150	0.917000	0.291800	0.009200
C11511	C1151	0.947160	0.296260	0.054120
C11521	C1152	0.961520	0.203820	0.073000
H11531	H1153	0.942000	0.226000	0.072200
C11541	C1154	0.955770	0.173690	0.101270
H11551	H1155	0.932800	0.175000	0.119600
C11561	C1156	0.984260	0.140520	0.103120
H11571	H1157	0.981000	0.119000	0.122400
C11581	C1158	0.017600	0.140300	0.075660
C11591	C1159	0.021200	0.172120	0.047620
H11601	H1160	0.043900	0.171500	0.028900
C11611	C1161	0.049170	0.106510	0.076810
N11621	N1162	0.695310	0.255570	0.018970
N11631	N1163	0.790400	0.442840	0.027900
N11641	N1164	0.737940	0.293000	0.011960
N11651	N1165	0.789960	0.349780	0.030980
N11661	N1166	0.852260	0.322700	0.025420
N11671	N1167	0.825020	0.295380	0.016840
N11681	N1168	0.952680	0.248480	0.996080
N11691	N1169	0.964500	0.281860	0.033020
N11701	N1170	0.993770	0.204050	0.045730
N11711	N1171	0.046430	0.078710	0.107190
S11721	S1172	0.621390	0.294940	0.034660
S11731	S1173	0.922770	0.316770	0.083770
C11891	C1189	0.040320	0.206560	0.813700
H11901	H1190	0.041700	0.185700	0.812300
C11911	C1191	0.051100	0.201940	0.839560
H11921	H1192	0.059800	0.178400	0.855400
C11931	C1193	0.049300	0.232260	0.842480
H11941	H1194	0.056100	0.229900	0.860500
C11951	C1195	0.037220	0.265900	0.817740
C11961	C1196	0.027130	0.267790	0.792270
H11971	H1197	0.019200	0.290800	0.775400
C11981	C1198	0.026420	0.538340	0.664020
C11991	C1199	0.015400	0.425240	0.765340
H12001	H1200	0.012800	0.424800	0.787600
C12011	C1201	0.022650	0.393150	0.762150
C12021	C1202	0.026390	0.393850	0.729070
H12031	H1203	0.030800	0.372400	0.726200
C12041	C1204	0.023570	0.426290	0.700990
H12051	H1205	0.026500	0.427700	0.678100
C12061	C1206	0.016280	0.457140	0.706640
H12071	H1207	0.014300	0.479300	0.687100
C12081	C1208	0.023890	0.359710	0.793910
C12091	C1209	0.017510	0.331850	0.853290
C12101	C1210	0.031540	0.300000	0.819760
C12111	C1211	0.008180	0.333800	0.888580
C12121	C1212	0.001520	0.365580	0.892480
H12131	H1213	0.003300	0.386900	0.872100
C12141	C1214	0.992370	0.365310	0.926490
H12151	H1215	0.987800	0.386400	0.930000
C12161	C1216	0.989910	0.333310	0.956050
H12171	H1217	0.983600	0.333400	0.979400
C12181	C1218	0.004880	0.303400	0.919640
H12191	H1219	0.009200	0.282000	0.917000
C12201	C1220	0.054120	0.202460	0.947160
C12211	C1221	0.073000	0.261660	0.961520
H12221	H1222	0.072200	0.259800	0.942000
C12231	C1223	0.101270	0.269270	0.955770
H12241	H1224	0.119600	0.272600	0.932800
C12251	C1225	0.103120	0.272100	0.984260
H12261	H1226	0.122400	0.277600	0.981000
C12271	C1227	0.075660	0.266440	0.017600
C12281	C1228	0.047620	0.259060	0.021200
H12291	H1229	0.028900	0.255700	0.043900
C12301	C1230	0.076810	0.267510	0.049170
N12311	N1231	0.018970	0.530150	0.695310
N12321	N1232	0.027900	0.238860	0.790400
N12331	N1233	0.011960	0.457100	0.737940
N12341	N1234	0.030980	0.329280	0.789960
N12351	N1235	0.025420	0.299620	0.852260
N12361	N1236	0.016840	0.362760	0.825020
N12371	N1237	0.996080	0.302760	0.952680
N12381	N1238	0.033020	0.220620	0.964500
N12391	N1239	0.045730	0.256450	0.993770
N12401	N1240	0.107190	0.267670	0.046430
S12411	S1241	0.034660	0.549000	0.621390
S12421	S1242	0.083770	0.176690	0.922770
C12581	C1258	0.439420	0.813700	0.206560
H12591	H1259	0.460300	0.812300	0.185700
C12601	C1260	0.407400	0.839560	0.201940
H12611	H1261	0.406400	0.855400	0.178400
C12621	C1262	0.375960	0.842480	0.232260
H12631	H1263	0.353500	0.860500	0.229900
C12641	C1264	0.379140	0.817740	0.265900
C12651	C1265	0.412810	0.792270	0.267790
H12661	H1266	0.414600	0.775400	0.290800
C12671	C1267	0.271220	0.664020	0.538340
C12681	C1268	0.294020	0.765340	0.425240
H12691	H1269	0.274800	0.787600	0.424800
C12701	C1270	0.322050	0.762150	0.393150
C12711	C1271	0.350690	0.729070	0.393850
H12721	H1272	0.370600	0.726200	0.372400
C12731	C1273	0.349150	0.700990	0.426290
H12741	H1274	0.367700	0.678100	0.427700
C12751	C1275	0.319940	0.706640	0.457140
H12761	H1276	0.319300	0.687100	0.479300
C12771	C1277	0.322490	0.793910	0.359710
C12781	C1278	0.297350	0.853290	0.331850
C12791	C1279	0.348700	0.819760	0.300000
C12801	C1280	0.269440	0.888580	0.333800
C12811	C1281	0.240420	0.892480	0.365580
H12821	H1282	0.237700	0.872100	0.386900
C12831	C1283	0.215830	0.926490	0.365310
H12841	H1284	0.195800	0.930000	0.386400
C12851	C1285	0.220730	0.956050	0.333310
H12861	H1286	0.203600	0.979400	0.333400
C12871	C1287	0.272080	0.919640	0.303400
H12881	H1288	0.291800	0.917000	0.282000
C12891	C1289	0.296260	0.947160	0.202460
C12901	C1290	0.203820	0.961520	0.261660
H12911	H1291	0.226000	0.942000	0.259800
C12921	C1292	0.173690	0.955770	0.269270
H12931	H1293	0.175000	0.932800	0.272600
C12941	C1294	0.140520	0.984260	0.272100
H12951	H1295	0.119000	0.981000	0.277600
C12961	C1296	0.140300	0.017600	0.266440
C12971	C1297	0.172120	0.021200	0.259060
H12981	H1298	0.171500	0.043900	0.255700
C12991	C1299	0.106510	0.049170	0.267510
N13001	N1300	0.255570	0.695310	0.530150
N13011	N1301	0.442840	0.790400	0.238860
N13021	N1302	0.293000	0.737940	0.457100
N13031	N1303	0.349780	0.789960	0.329280
N13041	N1304	0.322700	0.852260	0.299620
N13051	N1305	0.295380	0.825020	0.362760
N13061	N1306	0.248480	0.952680	0.302760
N13071	N1307	0.281860	0.964500	0.220620
N13081	N1308	0.204050	0.993770	0.256450
N13091	N1309	0.078710	0.046430	0.267670
S13101	S1310	0.294940	0.621390	0.549000
S13111	S1311	0.316770	0.922770	0.176690
C13271	C1327	0.206560	0.040320	0.439420
H13281	H1328	0.185700	0.041700	0.460300
C13291	C1329	0.201940	0.051100	0.407400
H13301	H1330	0.178400	0.059800	0.406400
C13311	C1331	0.232260	0.049300	0.375960
H13321	H1332	0.229900	0.056100	0.353500
C13331	C1333	0.265900	0.037220	0.379140
C13341	C1334	0.267790	0.027130	0.412810
H13351	H1335	0.290800	0.019200	0.414600
C13361	C1336	0.538340	0.026420	0.271220
C13371	C1337	0.425240	0.015400	0.294020
H13381	H1338	0.424800	0.012800	0.274800
C13391	C1339	0.393150	0.022650	0.322050
C13401	C1340	0.393850	0.026390	0.350690
H13411	H1341	0.372400	0.030800	0.370600
C13421	C1342	0.426290	0.023570	0.349150
H13431	H1343	0.427700	0.026500	0.367700
C13441	C1344	0.457140	0.016280	0.319940
H13451	H1345	0.479300	0.014300	0.319300
C13461	C1346	0.359710	0.023890	0.322490
C13471	C1347	0.331850	0.017510	0.297350
C13481	C1348	0.300000	0.031540	0.348700
C13491	C1349	0.333800	0.008180	0.269440
C13501	C1350	0.365580	0.001520	0.240420
H13511	H1351	0.386900	0.003300	0.237700
C13521	C1352	0.365310	0.992370	0.215830
H13531	H1353	0.386400	0.987800	0.195800
C13541	C1354	0.333310	0.989910	0.220730
H13551	H1355	0.333400	0.983600	0.203600
C13561	C1356	0.303400	0.004880	0.272080
H13571	H1357	0.282000	0.009200	0.291800
C13581	C1358	0.202460	0.054120	0.296260
C13591	C1359	0.261660	0.073000	0.203820
H13601	H1360	0.259800	0.072200	0.226000
C13611	C1361	0.269270	0.101270	0.173690
H13621	H1362	0.272600	0.119600	0.175000
C13631	C1363	0.272100	0.103120	0.140520
H13641	H1364	0.277600	0.122400	0.119000
C13651	C1365	0.266440	0.075660	0.140300
C13661	C1366	0.259060	0.047620	0.172120
H13671	H1367	0.255700	0.028900	0.171500
C13681	C1368	0.267510	0.076810	0.106510
N13691	N1369	0.530150	0.018970	0.255570
N13701	N1370	0.238860	0.027900	0.442840
N13711	N1371	0.457100	0.011960	0.293000
N13721	N1372	0.329280	0.030980	0.349780
N13731	N1373	0.299620	0.025420	0.322700
N13741	N1374	0.362760	0.016840	0.295380
N13751	N1375	0.302760	0.996080	0.248480
N13761	N1376	0.220620	0.033020	0.281860
N13771	N1377	0.256450	0.045730	0.204050
N13781	N1378	0.267670	0.107190	0.078710
S13791	S1379	0.549000	0.034660	0.294940
S13801	S1380	0.176690	0.083770	0.316770
C13961	C1396	0.206560	0.813700	0.040320
H13971	H1397	0.185700	0.812300	0.041700
C13981	C1398	0.201940	0.839560	0.051100
H13991	H1399	0.178400	0.855400	0.059800
C14001	C1400	0.232260	0.842480	0.049300
H14011	H1401	0.229900	0.860500	0.056100
C14021	C1402	0.265900	0.817740	0.037220
C14031	C1403	0.267790	0.792270	0.027130
H14041	H1404	0.290800	0.775400	0.019200
C14051	C1405	0.538340	0.664020	0.026420
C14061	C1406	0.425240	0.765340	0.015400
H14071	H1407	0.424800	0.787600	0.012800
C14081	C1408	0.393150	0.762150	0.022650
C14091	C1409	0.393850	0.729070	0.026390
H14101	H1410	0.372400	0.726200	0.030800
C14111	C1411	0.426290	0.700990	0.023570
H14121	H1412	0.427700	0.678100	0.026500
C14131	C1413	0.457140	0.706640	0.016280
H14141	H1414	0.479300	0.687100	0.014300
C14151	C1415	0.359710	0.793910	0.023890
C14161	C1416	0.331850	0.853290	0.017510
C14171	C1417	0.300000	0.819760	0.031540
C14181	C1418	0.333800	0.888580	0.008180
C14191	C1419	0.365580	0.892480	0.001520
H14201	H1420	0.386900	0.872100	0.003300
C14211	C1421	0.365310	0.926490	0.992370
H14221	H1422	0.386400	0.930000	0.987800
C14231	C1423	0.333310	0.956050	0.989910
H14241	H1424	0.333400	0.979400	0.983600
C14251	C1425	0.303400	0.919640	0.004880
H14261	H1426	0.282000	0.917000	0.009200
C14271	C1427	0.202460	0.947160	0.054120
C14281	C1428	0.261660	0.961520	0.073000
H14291	H1429	0.259800	0.942000	0.072200
C14301	C1430	0.269270	0.955770	0.101270
H14311	H1431	0.272600	0.932800	0.119600
C14321	C1432	0.272100	0.984260	0.103120
H14331	H1433	0.277600	0.981000	0.122400
C14341	C1434	0.266440	0.017600	0.075660
C14351	C1435	0.259060	0.021200	0.047620
H14361	H1436	0.255700	0.043900	0.028900
C14371	C1437	0.267510	0.049170	0.076810
N14381	N1438	0.530150	0.695310	0.018970
N14391	N1439	0.238860	0.790400	0.027900
N14401	N1440	0.457100	0.737940	0.011960
N14411	N1441	0.329280	0.789960	0.030980
N14421	N1442	0.299620	0.852260	0.025420
N14431	N1443	0.362760	0.825020	0.016840
N14441	N1444	0.302760	0.952680	0.996080
N14451	N1445	0.220620	0.964500	0.033020
N14461	N1446	0.256450	0.993770	0.045730
N14471	N1447	0.267670	0.046430	0.107190
S14481	S1448	0.549000	0.621390	0.034660
S14491	S1449	0.176690	0.922770	0.083770
C14651	C1465	0.439420	0.040320	0.813700
H14661	H1466	0.460300	0.041700	0.812300
C14671	C1467	0.407400	0.051100	0.839560
H14681	H1468	0.406400	0.059800	0.855400
C14691	C1469	0.375960	0.049300	0.842480
H14701	H1470	0.353500	0.056100	0.860500
C14711	C1471	0.379140	0.037220	0.817740
C14721	C1472	0.412810	0.027130	0.792270
H14731	H1473	0.414600	0.019200	0.775400
C14741	C1474	0.271220	0.026420	0.664020
C14751	C1475	0.294020	0.015400	0.765340
H14761	H1476	0.274800	0.012800	0.787600
C14771	C1477	0.322050	0.022650	0.762150
C14781	C1478	0.350690	0.026390	0.729070
H14791	H1479	0.370600	0.030800	0.726200
C14801	C1480	0.349150	0.023570	0.700990
H14811	H1481	0.367700	0.026500	0.678100
C14821	C1482	0.319940	0.016280	0.706640
H14831	H1483	0.319300	0.014300	0.687100
C14841	C1484	0.322490	0.023890	0.793910
C14851	C1485	0.297350	0.017510	0.853290
C14861	C1486	0.348700	0.031540	0.819760
C14871	C1487	0.269440	0.008180	0.888580
C14881	C1488	0.240420	0.001520	0.892480
H14891	H1489	0.237700	0.003300	0.872100
C14901	C1490	0.215830	0.992370	0.926490
H14911	H1491	0.195800	0.987800	0.930000
C14921	C1492	0.220730	0.989910	0.956050
H14931	H1493	0.203600	0.983600	0.979400
C14941	C1494	0.272080	0.004880	0.919640
H14951	H1495	0.291800	0.009200	0.917000
C14961	C1496	0.296260	0.054120	0.947160
C14971	C1497	0.203820	0.073000	0.961520
H14981	H1498	0.226000	0.072200	0.942000
C14991	C1499	0.173690	0.101270	0.955770
H15001	H1500	0.175000	0.119600	0.932800
C15011	C1501	0.140520	0.103120	0.984260
H15021	H1502	0.119000	0.122400	0.981000
C15031	C1503	0.140300	0.075660	0.017600
C15041	C1504	0.172120	0.047620	0.021200
H15051	H1505	0.171500	0.028900	0.043900
C15061	C1506	0.106510	0.076810	0.049170
N15071	N1507	0.255570	0.018970	0.695310
N15081	N1508	0.442840	0.027900	0.790400
N15091	N1509	0.293000	0.011960	0.737940
N15101	N1510	0.349780	0.030980	0.789960
N15111	N1511	0.322700	0.025420	0.852260
N15121	N1512	0.295380	0.016840	0.825020
N15131	N1513	0.248480	0.996080	0.952680
N15141	N1514	0.281860	0.033020	0.964500
N15151	N1515	0.204050	0.045730	0.993770
N15161	N1516	0.078710	0.107190	0.046430
S15171	S1517	0.294940	0.034660	0.621390
S15181	S1518	0.316770	0.083770	0.922770
C15341	C1534	0.040320	0.439420	0.206560
H15351	H1535	0.041700	0.460300	0.185700
C15361	C1536	0.051100	0.407400	0.201940
H15371	H1537	0.059800	0.406400	0.178400
C15381	C1538	0.049300	0.375960	0.232260
H15391	H1539	0.056100	0.353500	0.229900
C15401	C1540	0.037220	0.379140	0.265900
C15411	C1541	0.027130	0.412810	0.267790
H15421	H1542	0.019200	0.414600	0.290800
C15431	C1543	0.026420	0.271220	0.538340
C15441	C1544	0.015400	0.294020	0.425240
H15451	H1545	0.012800	0.274800	0.424800
C15461	C1546	0.022650	0.322050	0.393150
C15471	C1547	0.026390	0.350690	0.393850
H15481	H1548	0.030800	0.370600	0.372400
C15491	C1549	0.023570	0.349150	0.426290
H15501	H1550	0.026500	0.367700	0.427700
C15511	C1551	0.016280	0.319940	0.457140
H15521	H1552	0.014300	0.319300	0.479300
C15531	C1553	0.023890	0.322490	0.359710
C15541	C1554	0.017510	0.297350	0.331850
C15551	C1555	0.031540	0.348700	0.300000
C15561	C1556	0.008180	0.269440	0.333800
C15571	C1557	0.001520	0.240420	0.365580
H15581	H1558	0.003300	0.237700	0.386900
C15591	C1559	0.992370	0.215830	0.365310
H15601	H1560	0.987800	0.195800	0.386400
C15611	C1561	0.989910	0.220730	0.333310
H15621	H1562	0.983600	0.203600	0.333400
C15631	C1563	0.004880	0.272080	0.303400
H15641	H1564	0.009200	0.291800	0.282000
C15651	C1565	0.054120	0.296260	0.202460
C15661	C1566	0.073000	0.203820	0.261660
H15671	H1567	0.072200	0.226000	0.259800
C15681	C1568	0.101270	0.173690	0.269270
H15691	H1569	0.119600	0.175000	0.272600
C15701	C1570	0.103120	0.140520	0.272100
H15711	H1571	0.122400	0.119000	0.277600
C15721	C1572	0.075660	0.140300	0.266440
C15731	C1573	0.047620	0.172120	0.259060
H15741	H1574	0.028900	0.171500	0.255700
C15751	C1575	0.076810	0.106510	0.267510
N15761	N1576	0.018970	0.255570	0.530150
N15771	N1577	0.027900	0.442840	0.238860
N15781	N1578	0.011960	0.293000	0.457100
N15791	N1579	0.030980	0.349780	0.329280
N15801	N1580	0.025420	0.322700	0.299620
N15811	N1581	0.016840	0.295380	0.362760
N15821	N1582	0.996080	0.248480	0.302760
N15831	N1583	0.033020	0.281860	0.220620
N15841	N1584	0.045730	0.204050	0.256450
N15851	N1585	0.107190	0.078710	0.267670
S15861	S1586	0.034660	0.294940	0.549000
S15871	S1587	0.083770	0.316770	0.176690
C16031	C1603	0.813700	0.206560	0.439420
H16041	H1604	0.812300	0.185700	0.460300
C16051	C1605	0.839560	0.201940	0.407400
H16061	H1606	0.855400	0.178400	0.406400
C16071	C1607	0.842480	0.232260	0.375960
H16081	H1608	0.860500	0.229900	0.353500
C16091	C1609	0.817740	0.265900	0.379140
C16101	C1610	0.792270	0.267790	0.412810
H16111	H1611	0.775400	0.290800	0.414600
C16121	C1612	0.664020	0.538340	0.271220
C16131	C1613	0.765340	0.425240	0.294020
H16141	H1614	0.787600	0.424800	0.274800
C16151	C1615	0.762150	0.393150	0.322050
C16161	C1616	0.729070	0.393850	0.350690
H16171	H1617	0.726200	0.372400	0.370600
C16181	C1618	0.700990	0.426290	0.349150
H16191	H1619	0.678100	0.427700	0.367700
C16201	C1620	0.706640	0.457140	0.319940
H16211	H1621	0.687100	0.479300	0.319300
C16221	C1622	0.793910	0.359710	0.322490
C16231	C1623	0.853290	0.331850	0.297350
C16241	C1624	0.819760	0.300000	0.348700
C16251	C1625	0.888580	0.333800	0.269440
C16261	C1626	0.892480	0.365580	0.240420
H16271	H1627	0.872100	0.386900	0.237700
C16281	C1628	0.926490	0.365310	0.215830
H16291	H1629	0.930000	0.386400	0.195800
C16301	C1630	0.956050	0.333310	0.220730
H16311	H1631	0.979400	0.333400	0.203600
C16321	C1632	0.919640	0.303400	0.272080
H16331	H1633	0.917000	0.282000	0.291800
C16341	C1634	0.947160	0.202460	0.296260
C16351	C1635	0.961520	0.261660	0.203820
H16361	H1636	0.942000	0.259800	0.226000
C16371	C1637	0.955770	0.269270	0.173690
H16381	H1638	0.932800	0.272600	0.175000
C16391	C1639	0.984260	0.272100	0.140520
H16401	H1640	0.981000	0.277600	0.119000
C16411	C1641	0.017600	0.266440	0.140300
C16421	C1642	0.021200	0.259060	0.172120
H16431	H1643	0.043900	0.255700	0.171500
C16441	C1644	0.049170	0.267510	0.106510
N16451	N1645	0.695310	0.530150	0.255570
N16461	N1646	0.790400	0.238860	0.442840
N16471	N1647	0.737940	0.457100	0.293000
N16481	N1648	0.789960	0.329280	0.349780
N16491	N1649	0.852260	0.299620	0.322700
N16501	N1650	0.825020	0.362760	0.295380
N16511	N1651	0.952680	0.302760	0.248480
N16521	N1652	0.964500	0.220620	0.281860
N16531	N1653	0.993770	0.256450	0.204050
N16541	N1654	0.046430	0.267670	0.078710
S16551	S1655	0.621390	0.549000	0.294940
S16561	S1656	0.922770	0.176690	0.316770
C16721	C1672	0.939420	0.706560	0.313700
H16731	H1673	0.960300	0.685700	0.312300
C16741	C1674	0.907400	0.701940	0.339560
H16751	H1675	0.906400	0.678400	0.355400
C16761	C1676	0.875960	0.732260	0.342480
H16771	H1677	0.853500	0.729900	0.360500
C16781	C1678	0.879140	0.765900	0.317740
C16791	C1679	0.912810	0.767790	0.292270
H16801	H1680	0.914600	0.790800	0.275400
C16811	C1681	0.771220	0.038340	0.164020
C16821	C1682	0.794020	0.925240	0.265340
H16831	H1683	0.774800	0.924800	0.287600
C16841	C1684	0.822050	0.893150	0.262150
C16851	C1685	0.850690	0.893850	0.229070
H16861	H1686	0.870600	0.872400	0.226200
C16871	C1687	0.849150	0.926290	0.200990
H16881	H1688	0.867700	0.927700	0.178100
C16891	C1689	0.819940	0.957140	0.206640
H16901	H1690	0.819300	0.979300	0.187100
C16911	C1691	0.822490	0.859710	0.293910
C16921	C1692	0.797350	0.831850	0.353290
C16931	C1693	0.848700	0.800000	0.319760
C16941	C1694	0.769440	0.833800	0.388580
C16951	C1695	0.740420	0.865580	0.392480
H16961	H1696	0.737700	0.886900	0.372100
C16971	C1697	0.715830	0.865310	0.426490
H16981	H1698	0.695800	0.886400	0.430000
C16991	C1699	0.720730	0.833310	0.456050
H17001	H1700	0.703600	0.833400	0.479400
C17011	C1701	0.772080	0.803400	0.419640
H17021	H1702	0.791800	0.782000	0.417000
C17031	C1703	0.796260	0.702460	0.447160
C17041	C1704	0.703820	0.761660	0.461520
H17051	H1705	0.726000	0.759800	0.442000
C17061	C1706	0.673690	0.769270	0.455770
H17071	H1707	0.675000	0.772600	0.432800
C17081	C1708	0.640520	0.772100	0.484260
H17091	H1709	0.619000	0.777600	0.481000
C17101	C1710	0.640300	0.766440	0.517600
C17111	C1711	0.672120	0.759060	0.521200
H17121	H1712	0.671500	0.755700	0.543900
C17131	C1713	0.606510	0.767510	0.549170
N17141	N1714	0.755570	0.030150	0.195310
N17151	N1715	0.942840	0.738860	0.290400
N17161	N1716	0.793000	0.957100	0.237940
N17171	N1717	0.849780	0.829280	0.289960
N17181	N1718	0.822700	0.799620	0.352260
N17191	N1719	0.795380	0.862760	0.325020
N17201	N1720	0.748480	0.802760	0.452680
N17211	N1721	0.781860	0.720620	0.464500
N17221	N1722	0.704050	0.756450	0.493770
N17231	N1723	0.578710	0.767670	0.546430
S17241	S1724	0.794940	0.049000	0.121390
S17251	S1725	0.816770	0.676690	0.422770
C17411	C1741	0.706560	0.939420	0.540320
H17421	H1742	0.685700	0.960300	0.541700
C17431	C1743	0.701940	0.907400	0.551100
H17441	H1744	0.678400	0.906400	0.559800
C17451	C1745	0.732260	0.875960	0.549300
H17461	H1746	0.729900	0.853500	0.556100
C17471	C1747	0.765900	0.879140	0.537220
C17481	C1748	0.767790	0.912810	0.527130
H17491	H1749	0.790800	0.914600	0.519200
C17501	C1750	0.038340	0.771220	0.526420
C17511	C1751	0.925240	0.794020	0.515400
H17521	H1752	0.924800	0.774800	0.512800
C17531	C1753	0.893150	0.822050	0.522650
C17541	C1754	0.893850	0.850690	0.526390
H17551	H1755	0.872400	0.870600	0.530800
C17561	C1756	0.926290	0.849150	0.523570
H17571	H1757	0.927700	0.867700	0.526500
C17581	C1758	0.957140	0.819940	0.516280
H17591	H1759	0.979300	0.819300	0.514300
C17601	C1760	0.859710	0.822490	0.523890
C17611	C1761	0.831850	0.797350	0.517510
C17621	C1762	0.800000	0.848700	0.531540
C17631	C1763	0.833800	0.769440	0.508180
C17641	C1764	0.865580	0.740420	0.501520
H17651	H1765	0.886900	0.737700	0.503300
C17661	C1766	0.865310	0.715830	0.492370
H17671	H1767	0.886400	0.695800	0.487800
C17681	C1768	0.833310	0.720730	0.489910
H17691	H1769	0.833400	0.703600	0.483600
C17701	C1770	0.803400	0.772080	0.504880
H17711	H1771	0.782000	0.791800	0.509200
C17721	C1772	0.702460	0.796260	0.554120
C17731	C1773	0.761660	0.703820	0.573000
H17741	H1774	0.759800	0.726000	0.572200
C17751	C1775	0.769270	0.673690	0.601270
H17761	H1776	0.772600	0.675000	0.619600
C17771	C1777	0.772100	0.640520	0.603120
H17781	H1778	0.777600	0.619000	0.622400
C17791	C1779	0.766440	0.640300	0.575660
C17801	C1780	0.759060	0.672120	0.547620
H17811	H1781	0.755700	0.671500	0.528900
C17821	C1782	0.767510	0.606510	0.576810
N17831	N1783	0.030150	0.755570	0.518970
N17841	N1784	0.738860	0.942840	0.527900
N17851	N1785	0.957100	0.793000	0.511960
N17861	N1786	0.829280	0.849780	0.530980
N17871	N1787	0.799620	0.822700	0.525420
N17881	N1788	0.862760	0.795380	0.516840
N17891	N1789	0.802760	0.748480	0.496080
N17901	N1790	0.720620	0.781860	0.533020
N17911	N1791	0.756450	0.704050	0.545730
N17921	N1792	0.767670	0.578710	0.607190
S17931	S1793	0.049000	0.794940	0.534660
S17941	S1794	0.676690	0.816770	0.583770
C18101	C1810	0.313700	0.540320	0.939420
H18111	H1811	0.312300	0.541700	0.960300
C18121	C1812	0.339560	0.551100	0.907400
H18131	H1813	0.355400	0.559800	0.906400
C18141	C1814	0.342480	0.549300	0.875960
H18151	H1815	0.360500	0.556100	0.853500
C18161	C1816	0.317740	0.537220	0.879140
C18171	C1817	0.292270	0.527130	0.912810
H18181	H1818	0.275400	0.519200	0.914600
C18191	C1819	0.164020	0.526420	0.771220
C18201	C1820	0.265340	0.515400	0.794020
H18211	H1821	0.287600	0.512800	0.774800
C18221	C1822	0.262150	0.522650	0.822050
C18231	C1823	0.229070	0.526390	0.850690
H18241	H1824	0.226200	0.530800	0.870600
C18251	C1825	0.200990	0.523570	0.849150
H18261	H1826	0.178100	0.526500	0.867700
C18271	C1827	0.206640	0.516280	0.819940
H18281	H1828	0.187100	0.514300	0.819300
C18291	C1829	0.293910	0.523890	0.822490
C18301	C1830	0.353290	0.517510	0.797350
C18311	C1831	0.319760	0.531540	0.848700
C18321	C1832	0.388580	0.508180	0.769440
C18331	C1833	0.392480	0.501520	0.740420
H18341	H1834	0.372100	0.503300	0.737700
C18351	C1835	0.426490	0.492370	0.715830
H18361	H1836	0.430000	0.487800	0.695800
C18371	C1837	0.456050	0.489910	0.720730
H18381	H1838	0.479400	0.483600	0.703600
C18391	C1839	0.419640	0.504880	0.772080
H18401	H1840	0.417000	0.509200	0.791800
C18411	C1841	0.447160	0.554120	0.796260
C18421	C1842	0.461520	0.573000	0.703820
H18431	H1843	0.442000	0.572200	0.726000
C18441	C1844	0.455770	0.601270	0.673690
H18451	H1845	0.432800	0.619600	0.675000
C18461	C1846	0.484260	0.603120	0.640520
H18471	H1847	0.481000	0.622400	0.619000
C18481	C1848	0.517600	0.575660	0.640300
C18491	C1849	0.521200	0.547620	0.672120
H18501	H1850	0.543900	0.528900	0.671500
C18511	C1851	0.549170	0.576810	0.606510
N18521	N1852	0.195310	0.518970	0.755570
N18531	N1853	0.290400	0.527900	0.942840
N18541	N1854	0.237940	0.511960	0.793000
N18551	N1855	0.289960	0.530980	0.849780
N18561	N1856	0.352260	0.525420	0.822700
N18571	N1857	0.325020	0.516840	0.795380
N18581	N1858	0.452680	0.496080	0.748480
N18591	N1859	0.464500	0.533020	0.781860
N18601	N1860	0.493770	0.545730	0.704050
N18611	N1861	0.546430	0.607190	0.578710
S18621	S1862	0.121390	0.534660	0.794940
S18631	S1863	0.422770	0.583770	0.816770
C18791	C1879	0.540320	0.313700	0.706560
H18801	H1880	0.541700	0.312300	0.685700
C18811	C1881	0.551100	0.339560	0.701940
H18821	H1882	0.559800	0.355400	0.678400
C18831	C1883	0.549300	0.342480	0.732260
H18841	H1884	0.556100	0.360500	0.729900
C18851	C1885	0.537220	0.317740	0.765900
C18861	C1886	0.527130	0.292270	0.767790
H18871	H1887	0.519200	0.275400	0.790800
C18881	C1888	0.526420	0.164020	0.038340
C18891	C1889	0.515400	0.265340	0.925240
H18901	H1890	0.512800	0.287600	0.924800
C18911	C1891	0.522650	0.262150	0.893150
C18921	C1892	0.526390	0.229070	0.893850
H18931	H1893	0.530800	0.226200	0.872400
C18941	C1894	0.523570	0.200990	0.926290
H18951	H1895	0.526500	0.178100	0.927700
C18961	C1896	0.516280	0.206640	0.957140
H18971	H1897	0.514300	0.187100	0.979300
C18981	C1898	0.523890	0.293910	0.859710
C18991	C1899	0.517510	0.353290	0.831850
C19001	C1900	0.531540	0.319760	0.800000
C19011	C1901	0.508180	0.388580	0.833800
C19021	C1902	0.501520	0.392480	0.865580
H19031	H1903	0.503300	0.372100	0.886900
C19041	C1904	0.492370	0.426490	0.865310
H19051	H1905	0.487800	0.430000	0.886400
C19061	C1906	0.489910	0.456050	0.833310
H19071	H1907	0.483600	0.479400	0.833400
C19081	C1908	0.504880	0.419640	0.803400
H19091	H1909	0.509200	0.417000	0.782000
C19101	C1910	0.554120	0.447160	0.702460
C19111	C1911	0.573000	0.461520	0.761660
H19121	H1912	0.572200	0.442000	0.759800
C19131	C1913	0.601270	0.455770	0.769270
H19141	H1914	0.619600	0.432800	0.772600
C19151	C1915	0.603120	0.484260	0.772100
H19161	H1916	0.622400	0.481000	0.777600
C19171	C1917	0.575660	0.517600	0.766440
C19181	C1918	0.547620	0.521200	0.759060
H19191	H1919	0.528900	0.543900	0.755700
C19201	C1920	0.576810	0.549170	0.767510
N19211	N1921	0.518970	0.195310	0.030150
N19221	N1922	0.527900	0.290400	0.738860
N19231	N1923	0.511960	0.237940	0.957100
N19241	N1924	0.530980	0.289960	0.829280
N19251	N1925	0.525420	0.352260	0.799620
N19261	N1926	0.516840	0.325020	0.862760
N19271	N1927	0.496080	0.452680	0.802760
N19281	N1928	0.533020	0.464500	0.720620
N19291	N1929	0.545730	0.493770	0.756450
N19301	N1930	0.607190	0.546430	0.767670
S19311	S1931	0.534660	0.121390	0.049000
S19321	S1932	0.583770	0.422770	0.676690
C19481	C1948	0.313700	0.939420	0.706560
H19491	H1949	0.312300	0.960300	0.685700
C19501	C1950	0.339560	0.907400	0.701940
H19511	H1951	0.355400	0.906400	0.678400
C19521	C1952	0.342480	0.875960	0.732260
H19531	H1953	0.360500	0.853500	0.729900
C19541	C1954	0.317740	0.879140	0.765900
C19551	C1955	0.292270	0.912810	0.767790
H19561	H1956	0.275400	0.914600	0.790800
C19571	C1957	0.164020	0.771220	0.038340
C19581	C1958	0.265340	0.794020	0.925240
H19591	H1959	0.287600	0.774800	0.924800
C19601	C1960	0.262150	0.822050	0.893150
C19611	C1961	0.229070	0.850690	0.893850
H19621	H1962	0.226200	0.870600	0.872400
C19631	C1963	0.200990	0.849150	0.926290
H19641	H1964	0.178100	0.867700	0.927700
C19651	C1965	0.206640	0.819940	0.957140
H19661	H1966	0.187100	0.819300	0.979300
C19671	C1967	0.293910	0.822490	0.859710
C19681	C1968	0.353290	0.797350	0.831850
C19691	C1969	0.319760	0.848700	0.800000
C19701	C1970	0.388580	0.769440	0.833800
C19711	C1971	0.392480	0.740420	0.865580
H19721	H1972	0.372100	0.737700	0.886900
C19731	C1973	0.426490	0.715830	0.865310
H19741	H1974	0.430000	0.695800	0.886400
C19751	C1975	0.456050	0.720730	0.833310
H19761	H1976	0.479400	0.703600	0.833400
C19771	C1977	0.419640	0.772080	0.803400
H19781	H1978	0.417000	0.791800	0.782000
C19791	C1979	0.447160	0.796260	0.702460
C19801	C1980	0.461520	0.703820	0.761660
H19811	H1981	0.442000	0.726000	0.759800
C19821	C1982	0.455770	0.673690	0.769270
H19831	H1983	0.432800	0.675000	0.772600
C19841	C1984	0.484260	0.640520	0.772100
H19851	H1985	0.481000	0.619000	0.777600
C19861	C1986	0.517600	0.640300	0.766440
C19871	C1987	0.521200	0.672120	0.759060
H19881	H1988	0.543900	0.671500	0.755700
C19891	C1989	0.549170	0.606510	0.767510
N19901	N1990	0.195310	0.755570	0.030150
N19911	N1991	0.290400	0.942840	0.738860
N19921	N1992	0.237940	0.793000	0.957100
N19931	N1993	0.289960	0.849780	0.829280
N19941	N1994	0.352260	0.822700	0.799620
N19951	N1995	0.325020	0.795380	0.862760
N19961	N1996	0.452680	0.748480	0.802760
N19971	N1997	0.464500	0.781860	0.720620
N19981	N1998	0.493770	0.704050	0.756450
N19991	N1999	0.546430	0.578710	0.767670
S20001	S2000	0.121390	0.794940	0.049000
S20011	S2001	0.422770	0.816770	0.676690
C20171	C2017	0.540320	0.706560	0.939420
H20181	H2018	0.541700	0.685700	0.960300
C20191	C2019	0.551100	0.701940	0.907400
H20201	H2020	0.559800	0.678400	0.906400
C20211	C2021	0.549300	0.732260	0.875960
H20221	H2022	0.556100	0.729900	0.853500
C20231	C2023	0.537220	0.765900	0.879140
C20241	C2024	0.527130	0.767790	0.912810
H20251	H2025	0.519200	0.790800	0.914600
C20261	C2026	0.526420	0.038340	0.771220
C20271	C2027	0.515400	0.925240	0.794020
H20281	H2028	0.512800	0.924800	0.774800
C20291	C2029	0.522650	0.893150	0.822050
C20301	C2030	0.526390	0.893850	0.850690
H20311	H2031	0.530800	0.872400	0.870600
C20321	C2032	0.523570	0.926290	0.849150
H20331	H2033	0.526500	0.927700	0.867700
C20341	C2034	0.516280	0.957140	0.819940
H20351	H2035	0.514300	0.979300	0.819300
C20361	C2036	0.523890	0.859710	0.822490
C20371	C2037	0.517510	0.831850	0.797350
C20381	C2038	0.531540	0.800000	0.848700
C20391	C2039	0.508180	0.833800	0.769440
C20401	C2040	0.501520	0.865580	0.740420
H20411	H2041	0.503300	0.886900	0.737700
C20421	C2042	0.492370	0.865310	0.715830
H20431	H2043	0.487800	0.886400	0.695800
C20441	C2044	0.489910	0.833310	0.720730
H20451	H2045	0.483600	0.833400	0.703600
C20461	C2046	0.504880	0.803400	0.772080
H20471	H2047	0.509200	0.782000	0.791800
C20481	C2048	0.554120	0.702460	0.796260
C20491	C2049	0.573000	0.761660	0.703820
H20501	H2050	0.572200	0.759800	0.726000
C20511	C2051	0.601270	0.769270	0.673690
H20521	H2052	0.619600	0.772600	0.675000
C20531	C2053	0.603120	0.772100	0.640520
H20541	H2054	0.622400	0.777600	0.619000
C20551	C2055	0.575660	0.766440	0.640300
C20561	C2056	0.547620	0.759060	0.672120
H20571	H2057	0.528900	0.755700	0.671500
C20581	C2058	0.576810	0.767510	0.606510
N20591	N2059	0.518970	0.030150	0.755570
N20601	N2060	0.527900	0.738860	0.942840
N20611	N2061	0.511960	0.957100	0.793000
N20621	N2062	0.530980	0.829280	0.849780
N20631	N2063	0.525420	0.799620	0.822700
N20641	N2064	0.516840	0.862760	0.795380
N20651	N2065	0.496080	0.802760	0.748480
N20661	N2066	0.533020	0.720620	0.781860
N20671	N2067	0.545730	0.756450	0.704050
N20681	N2068	0.607190	0.767670	0.578710
S20691	S2069	0.534660	0.049000	0.794940
S20701	S2070	0.583770	0.676690	0.816770
C20861	C2086	0.939420	0.313700	0.540320
H20871	H2087	0.960300	0.312300	0.541700
C20881	C2088	0.907400	0.339560	0.551100
H20891	H2089	0.906400	0.355400	0.559800
C20901	C2090	0.875960	0.342480	0.549300
H20911	H2091	0.853500	0.360500	0.556100
C20921	C2092	0.879140	0.317740	0.537220
C20931	C2093	0.912810	0.292270	0.527130
H20941	H2094	0.914600	0.275400	0.519200
C20951	C2095	0.771220	0.164020	0.526420
C20961	C2096	0.794020	0.265340	0.515400
H20971	H2097	0.774800	0.287600	0.512800
C20981	C2098	0.822050	0.262150	0.522650
C20991	C2099	0.850690	0.229070	0.526390
H21001	H2100	0.870600	0.226200	0.530800
C21011	C2101	0.849150	0.200990	0.523570
H21021	H2102	0.867700	0.178100	0.526500
C21031	C2103	0.819940	0.206640	0.516280
H21041	H2104	0.819300	0.187100	0.514300
C21051	C2105	0.822490	0.293910	0.523890
C21061	C2106	0.797350	0.353290	0.517510
C21071	C2107	0.848700	0.319760	0.531540
C21081	C2108	0.769440	0.388580	0.508180
C21091	C2109	0.740420	0.392480	0.501520
H21101	H2110	0.737700	0.372100	0.503300
C21111	C2111	0.715830	0.426490	0.492370
H21121	H2112	0.695800	0.430000	0.487800
C21131	C2113	0.720730	0.456050	0.489910
H21141	H2114	0.703600	0.479400	0.483600
C21151	C2115	0.772080	0.419640	0.504880
H21161	H2116	0.791800	0.417000	0.509200
C21171	C2117	0.796260	0.447160	0.554120
C21181	C2118	0.703820	0.461520	0.573000
H21191	H2119	0.726000	0.442000	0.572200
C21201	C2120	0.673690	0.455770	0.601270
H21211	H2121	0.675000	0.432800	0.619600
C21221	C2122	0.640520	0.484260	0.603120
H21231	H2123	0.619000	0.481000	0.622400
C21241	C2124	0.640300	0.517600	0.575660
C21251	C2125	0.672120	0.521200	0.547620
H21261	H2126	0.671500	0.543900	0.528900
C21271	C2127	0.606510	0.549170	0.576810
N21281	N2128	0.755570	0.195310	0.518970
N21291	N2129	0.942840	0.290400	0.527900
N21301	N2130	0.793000	0.237940	0.511960
N21311	N2131	0.849780	0.289960	0.530980
N21321	N2132	0.822700	0.352260	0.525420
N21331	N2133	0.795380	0.325020	0.516840
N21341	N2134	0.748480	0.452680	0.496080
N21351	N2135	0.781860	0.464500	0.533020
N21361	N2136	0.704050	0.493770	0.545730
N21371	N2137	0.578710	0.546430	0.607190
S21381	S2138	0.794940	0.121390	0.534660
S21391	S2139	0.816770	0.422770	0.583770
C21551	C2155	0.706560	0.540320	0.313700
H21561	H2156	0.685700	0.541700	0.312300
C21571	C2157	0.701940	0.551100	0.339560
H21581	H2158	0.678400	0.559800	0.355400
C21591	C2159	0.732260	0.549300	0.342480
H21601	H2160	0.729900	0.556100	0.360500
C21611	C2161	0.765900	0.537220	0.317740
C21621	C2162	0.767790	0.527130	0.292270
H21631	H2163	0.790800	0.519200	0.275400
C21641	C2164	0.038340	0.526420	0.164020
C21651	C2165	0.925240	0.515400	0.265340
H21661	H2166	0.924800	0.512800	0.287600
C21671	C2167	0.893150	0.522650	0.262150
C21681	C2168	0.893850	0.526390	0.229070
H21691	H2169	0.872400	0.530800	0.226200
C21701	C2170	0.926290	0.523570	0.200990
H21711	H2171	0.927700	0.526500	0.178100
C21721	C2172	0.957140	0.516280	0.206640
H21731	H2173	0.979300	0.514300	0.187100
C21741	C2174	0.859710	0.523890	0.293910
C21751	C2175	0.831850	0.517510	0.353290
C21761	C2176	0.800000	0.531540	0.319760
C21771	C2177	0.833800	0.508180	0.388580
C21781	C2178	0.865580	0.501520	0.392480
H21791	H2179	0.886900	0.503300	0.372100
C21801	C2180	0.865310	0.492370	0.426490
H21811	H2181	0.886400	0.487800	0.430000
C21821	C2182	0.833310	0.489910	0.456050
H21831	H2183	0.833400	0.483600	0.479400
C21841	C2184	0.803400	0.504880	0.419640
H21851	H2185	0.782000	0.509200	0.417000
C21861	C2186	0.702460	0.554120	0.447160
C21871	C2187	0.761660	0.573000	0.461520
H21881	H2188	0.759800	0.572200	0.442000
C21891	C2189	0.769270	0.601270	0.455770
H21901	H2190	0.772600	0.619600	0.432800
C21911	C2191	0.772100	0.603120	0.484260
H21921	H2192	0.777600	0.622400	0.481000
C21931	C2193	0.766440	0.575660	0.517600
C21941	C2194	0.759060	0.547620	0.521200
H21951	H2195	0.755700	0.528900	0.543900
C21961	C2196	0.767510	0.576810	0.549170
N21971	N2197	0.030150	0.518970	0.195310
N21981	N2198	0.738860	0.527900	0.290400
N21991	N2199	0.957100	0.511960	0.237940
N22001	N2200	0.829280	0.530980	0.289960
N22011	N2201	0.799620	0.525420	0.352260
N22021	N2202	0.862760	0.516840	0.325020
N22031	N2203	0.802760	0.496080	0.452680
N22041	N2204	0.720620	0.533020	0.464500
N22051	N2205	0.756450	0.545730	0.493770
N22061	N2206	0.767670	0.607190	0.546430
S22071	S2207	0.049000	0.534660	0.121390
S22081	S2208	0.676690	0.583770	0.422770
C22241	C2224	0.706560	0.313700	0.939420
H22251	H2225	0.685700	0.312300	0.960300
C22261	C2226	0.701940	0.339560	0.907400
H22271	H2227	0.678400	0.355400	0.906400
C22281	C2228	0.732260	0.342480	0.875960
H22291	H2229	0.729900	0.360500	0.853500
C22301	C2230	0.765900	0.317740	0.879140
C22311	C2231	0.767790	0.292270	0.912810
H22321	H2232	0.790800	0.275400	0.914600
C22331	C2233	0.038340	0.164020	0.771220
C22341	C2234	0.925240	0.265340	0.794020
H22351	H2235	0.924800	0.287600	0.774800
C22361	C2236	0.893150	0.262150	0.822050
C22371	C2237	0.893850	0.229070	0.850690
H22381	H2238	0.872400	0.226200	0.870600
C22391	C2239	0.926290	0.200990	0.849150
H22401	H2240	0.927700	0.178100	0.867700
C22411	C2241	0.957140	0.206640	0.819940
H22421	H2242	0.979300	0.187100	0.819300
C22431	C2243	0.859710	0.293910	0.822490
C22441	C2244	0.831850	0.353290	0.797350
C22451	C2245	0.800000	0.319760	0.848700
C22461	C2246	0.833800	0.388580	0.769440
C22471	C2247	0.865580	0.392480	0.740420
H22481	H2248	0.886900	0.372100	0.737700
C22491	C2249	0.865310	0.426490	0.715830
H22501	H2250	0.886400	0.430000	0.695800
C22511	C2251	0.833310	0.456050	0.720730
H22521	H2252	0.833400	0.479400	0.703600
C22531	C2253	0.803400	0.419640	0.772080
H22541	H2254	0.782000	0.417000	0.791800
C22551	C2255	0.702460	0.447160	0.796260
C22561	C2256	0.761660	0.461520	0.703820
H22571	H2257	0.759800	0.442000	0.726000
C22581	C2258	0.769270	0.455770	0.673690
H22591	H2259	0.772600	0.432800	0.675000
C22601	C2260	0.772100	0.484260	0.640520
H22611	H2261	0.777600	0.481000	0.619000
C22621	C2262	0.766440	0.517600	0.640300
C22631	C2263	0.759060	0.521200	0.672120
H22641	H2264	0.755700	0.543900	0.671500
C22651	C2265	0.767510	0.549170	0.606510
N22661	N2266	0.030150	0.195310	0.755570
N22671	N2267	0.738860	0.290400	0.942840
N22681	N2268	0.957100	0.237940	0.793000
N22691	N2269	0.829280	0.289960	0.849780
N22701	N2270	0.799620	0.352260	0.822700
N22711	N2271	0.862760	0.325020	0.795380
N22721	N2272	0.802760	0.452680	0.748480
N22731	N2273	0.720620	0.464500	0.781860
N22741	N2274	0.756450	0.493770	0.704050
N22751	N2275	0.767670	0.546430	0.578710
S22761	S2276	0.049000	0.121390	0.794940
S22771	S2277	0.676690	0.422770	0.816770
C22931	C2293	0.939420	0.540320	0.706560
H22941	H2294	0.960300	0.541700	0.685700
C22951	C2295	0.907400	0.551100	0.701940
H22961	H2296	0.906400	0.559800	0.678400
C22971	C2297	0.875960	0.549300	0.732260
H22981	H2298	0.853500	0.556100	0.729900
C22991	C2299	0.879140	0.537220	0.765900
C23001	C2300	0.912810	0.527130	0.767790
H23011	H2301	0.914600	0.519200	0.790800
C23021	C2302	0.771220	0.526420	0.038340
C23031	C2303	0.794020	0.515400	0.925240
H23041	H2304	0.774800	0.512800	0.924800
C23051	C2305	0.822050	0.522650	0.893150
C23061	C2306	0.850690	0.526390	0.893850
H23071	H2307	0.870600	0.530800	0.872400
C23081	C2308	0.849150	0.523570	0.926290
H23091	H2309	0.867700	0.526500	0.927700
C23101	C2310	0.819940	0.516280	0.957140
H23111	H2311	0.819300	0.514300	0.979300
C23121	C2312	0.822490	0.523890	0.859710
C23131	C2313	0.797350	0.517510	0.831850
C23141	C2314	0.848700	0.531540	0.800000
C23151	C2315	0.769440	0.508180	0.833800
C23161	C2316	0.740420	0.501520	0.865580
H23171	H2317	0.737700	0.503300	0.886900
C23181	C2318	0.715830	0.492370	0.865310
H23191	H2319	0.695800	0.487800	0.886400
C23201	C2320	0.720730	0.489910	0.833310
H23211	H2321	0.703600	0.483600	0.833400
C23221	C2322	0.772080	0.504880	0.803400
H23231	H2323	0.791800	0.509200	0.782000
C23241	C2324	0.796260	0.554120	0.702460
C23251	C2325	0.703820	0.573000	0.761660
H23261	H2326	0.726000	0.572200	0.759800
C23271	C2327	0.673690	0.601270	0.769270
H23281	H2328	0.675000	0.619600	0.772600
C23291	C2329	0.640520	0.603120	0.772100
H23301	H2330	0.619000	0.622400	0.777600
C23311	C2331	0.640300	0.575660	0.766440
C23321	C2332	0.672120	0.547620	0.759060
H23331	H2333	0.671500	0.528900	0.755700
C23341	C2334	0.606510	0.576810	0.767510
N23351	N2335	0.755570	0.518970	0.030150
N23361	N2336	0.942840	0.527900	0.738860
N23371	N2337	0.793000	0.511960	0.957100
N23381	N2338	0.849780	0.530980	0.829280
N23391	N2339	0.822700	0.525420	0.799620
N23401	N2340	0.795380	0.516840	0.862760
N23411	N2341	0.748480	0.496080	0.802760
N23421	N2342	0.781860	0.533020	0.720620
N23431	N2343	0.704050	0.545730	0.756450
N23441	N2344	0.578710	0.607190	0.767670
S23451	S2345	0.794940	0.534660	0.049000
S23461	S2346	0.816770	0.583770	0.676690
C23621	C2362	0.540320	0.939420	0.313700
H23631	H2363	0.541700	0.960300	0.312300
C23641	C2364	0.551100	0.907400	0.339560
H23651	H2365	0.559800	0.906400	0.355400
C23661	C2366	0.549300	0.875960	0.342480
H23671	H2367	0.556100	0.853500	0.360500
C23681	C2368	0.537220	0.879140	0.317740
C23691	C2369	0.527130	0.912810	0.292270
H23701	H2370	0.519200	0.914600	0.275400
C23711	C2371	0.526420	0.771220	0.164020
C23721	C2372	0.515400	0.794020	0.265340
H23731	H2373	0.512800	0.774800	0.287600
C23741	C2374	0.522650	0.822050	0.262150
C23751	C2375	0.526390	0.850690	0.229070
H23761	H2376	0.530800	0.870600	0.226200
C23771	C2377	0.523570	0.849150	0.200990
H23781	H2378	0.526500	0.867700	0.178100
C23791	C2379	0.516280	0.819940	0.206640
H23801	H2380	0.514300	0.819300	0.187100
C23811	C2381	0.523890	0.822490	0.293910
C23821	C2382	0.517510	0.797350	0.353290
C23831	C2383	0.531540	0.848700	0.319760
C23841	C2384	0.508180	0.769440	0.388580
C23851	C2385	0.501520	0.740420	0.392480
H23861	H2386	0.503300	0.737700	0.372100
C23871	C2387	0.492370	0.715830	0.426490
H23881	H2388	0.487800	0.695800	0.430000
C23891	C2389	0.489910	0.720730	0.456050
H23901	H2390	0.483600	0.703600	0.479400
C23911	C2391	0.504880	0.772080	0.419640
H23921	H2392	0.509200	0.791800	0.417000
C23931	C2393	0.554120	0.796260	0.447160
C23941	C2394	0.573000	0.703820	0.461520
H23951	H2395	0.572200	0.726000	0.442000
C23961	C2396	0.601270	0.673690	0.455770
H23971	H2397	0.619600	0.675000	0.432800
C23981	C2398	0.603120	0.640520	0.484260
H23991	H2399	0.622400	0.619000	0.481000
C24001	C2400	0.575660	0.640300	0.517600
C24011	C2401	0.547620	0.672120	0.521200
H24021	H2402	0.528900	0.671500	0.543900
C24031	C2403	0.576810	0.606510	0.549170
N24041	N2404	0.518970	0.755570	0.195310
N24051	N2405	0.527900	0.942840	0.290400
N24061	N2406	0.511960	0.793000	0.237940
N24071	N2407	0.530980	0.849780	0.289960
N24081	N2408	0.525420	0.822700	0.352260
N24091	N2409	0.516840	0.795380	0.325020
N24101	N2410	0.496080	0.748480	0.452680
N24111	N2411	0.533020	0.781860	0.464500
N24121	N2412	0.545730	0.704050	0.493770
N24131	N2413	0.607190	0.578710	0.546430
S24141	S2414	0.534660	0.794940	0.121390
S24151	S2415	0.583770	0.816770	0.422770
C24311	C2431	0.313700	0.706560	0.540320
H24321	H2432	0.312300	0.685700	0.541700
C24331	C2433	0.339560	0.701940	0.551100
H24341	H2434	0.355400	0.678400	0.559800
C24351	C2435	0.342480	0.732260	0.549300
H24361	H2436	0.360500	0.729900	0.556100
C24371	C2437	0.317740	0.765900	0.537220
C24381	C2438	0.292270	0.767790	0.527130
H24391	H2439	0.275400	0.790800	0.519200
C24401	C2440	0.164020	0.038340	0.526420
C24411	C2441	0.265340	0.925240	0.515400
H24421	H2442	0.287600	0.924800	0.512800
C24431	C2443	0.262150	0.893150	0.522650
C24441	C2444	0.229070	0.893850	0.526390
H24451	H2445	0.226200	0.872400	0.530800
C24461	C2446	0.200990	0.926290	0.523570
H24471	H2447	0.178100	0.927700	0.526500
C24481	C2448	0.206640	0.957140	0.516280
H24491	H2449	0.187100	0.979300	0.514300
C24501	C2450	0.293910	0.859710	0.523890
C24511	C2451	0.353290	0.831850	0.517510
C24521	C2452	0.319760	0.800000	0.531540
C24531	C2453	0.388580	0.833800	0.508180
C24541	C2454	0.392480	0.865580	0.501520
H24551	H2455	0.372100	0.886900	0.503300
C24561	C2456	0.426490	0.865310	0.492370
H24571	H2457	0.430000	0.886400	0.487800
C24581	C2458	0.456050	0.833310	0.489910
H24591	H2459	0.479400	0.833400	0.483600
C24601	C2460	0.419640	0.803400	0.504880
H24611	H2461	0.417000	0.782000	0.509200
C24621	C2462	0.447160	0.702460	0.554120
C24631	C2463	0.461520	0.761660	0.573000
H24641	H2464	0.442000	0.759800	0.572200
C24651	C2465	0.455770	0.769270	0.601270
H24661	H2466	0.432800	0.772600	0.619600
C24671	C2467	0.484260	0.772100	0.603120
H24681	H2468	0.481000	0.777600	0.622400
C24691	C2469	0.517600	0.766440	0.575660
C24701	C2470	0.521200	0.759060	0.547620
H24711	H2471	0.543900	0.755700	0.528900
C24721	C2472	0.549170	0.767510	0.576810
N24731	N2473	0.195310	0.030150	0.518970
N24741	N2474	0.290400	0.738860	0.527900
N24751	N2475	0.237940	0.957100	0.511960
N24761	N2476	0.289960	0.829280	0.530980
N24771	N2477	0.352260	0.799620	0.525420
N24781	N2478	0.325020	0.862760	0.516840
N24791	N2479	0.452680	0.802760	0.496080
N24801	N2480	0.464500	0.720620	0.533020
N24811	N2481	0.493770	0.756450	0.545730
N24821	N2482	0.546430	0.767670	0.607190
S24831	S2483	0.121390	0.049000	0.534660
S24841	S2484	0.422770	0.676690	0.583770
C25001	C2500	0.560580	0.793440	0.959680
H25011	H2501	0.539700	0.814300	0.958300
C25021	C2502	0.592600	0.798060	0.948900
H25031	H2503	0.593600	0.821600	0.940200
C25041	C2504	0.624040	0.767740	0.950700
H25051	H2505	0.646500	0.770100	0.943900
C25061	C2506	0.620860	0.734100	0.962780
C25071	C2507	0.587190	0.732210	0.972870
H25081	H2508	0.585400	0.709200	0.980800
C25091	C2509	0.728780	0.461660	0.973580
C25101	C2510	0.705980	0.574760	0.984600
H25111	H2511	0.725200	0.575200	0.987200
C25121	C2512	0.677950	0.606850	0.977350
C25131	C2513	0.649310	0.606150	0.973610
H25141	H2514	0.629400	0.627600	0.969200
C25151	C2515	0.650850	0.573710	0.976430
H25161	H2516	0.632300	0.572300	0.973500
C25171	C2517	0.680060	0.542860	0.983720
H25181	H2518	0.680700	0.520700	0.985700
C25191	C2519	0.677510	0.640290	0.976110
C25201	C2520	0.702650	0.668150	0.982490
C25211	C2521	0.651300	0.700000	0.968460
C25221	C2522	0.730560	0.666200	0.991820
C25231	C2523	0.759580	0.634420	0.998480
H25241	H2524	0.762300	0.613100	0.996700
C25251	C2525	0.784170	0.634690	0.007630
H25261	H2526	0.804200	0.613600	0.012200
C25271	C2527	0.779270	0.666690	0.010090
H25281	H2528	0.796400	0.666600	0.016400
C25291	C2529	0.727920	0.696600	0.995120
H25301	H2530	0.708200	0.718000	0.990800
C25311	C2531	0.703740	0.797540	0.945880
C25321	C2532	0.796180	0.738340	0.927000
H25331	H2533	0.774000	0.740200	0.927800
C25341	C2534	0.826310	0.730730	0.898730
H25351	H2535	0.825000	0.727400	0.880400
C25361	C2536	0.859480	0.727900	0.896880
H25371	H2537	0.881000	0.722400	0.877600
C25381	C2538	0.859700	0.733560	0.924340
C25391	C2539	0.827880	0.740940	0.952380
H25401	H2540	0.828500	0.744300	0.971100
C25411	C2541	0.893490	0.732490	0.923190
N25421	N2542	0.744430	0.469850	0.981030
N25431	N2543	0.557160	0.761140	0.972100
N25441	N2544	0.707000	0.542900	0.988040
N25451	N2545	0.650220	0.670720	0.969020
N25461	N2546	0.677300	0.700380	0.974580
N25471	N2547	0.704620	0.637240	0.983160
N25481	N2548	0.751520	0.697240	0.003920
N25491	N2549	0.718140	0.779380	0.966980
N25501	N2550	0.795950	0.743550	0.954270
N25511	N2551	0.921290	0.732330	0.892810
S25521	S2552	0.705060	0.451000	0.965340
S25531	S2553	0.683230	0.823310	0.916230
C25691	C2569	0.793440	0.560580	0.186300
H25701	H2570	0.814300	0.539700	0.187700
C25711	C2571	0.798060	0.592600	0.160440
H25721	H2572	0.821600	0.593600	0.144600
C25731	C2573	0.767740	0.624040	0.157520
H25741	H2574	0.770100	0.646500	0.139500
C25751	C2575	0.734100	0.620860	0.182260
C25761	C2576	0.732210	0.587190	0.207730
H25771	H2577	0.709200	0.585400	0.224600
C25781	C2578	0.461660	0.728780	0.335980
C25791	C2579	0.574760	0.705980	0.234660
H25801	H2580	0.575200	0.725200	0.212400
C25811	C2581	0.606850	0.677950	0.237850
C25821	C2582	0.606150	0.649310	0.270930
H25831	H2583	0.627600	0.629400	0.273800
C25841	C2584	0.573710	0.650850	0.299010
H25851	H2585	0.572300	0.632300	0.321900
C25861	C2586	0.542860	0.680060	0.293360
H25871	H2587	0.520700	0.680700	0.312900
C25881	C2588	0.640290	0.677510	0.206090
C25891	C2589	0.668150	0.702650	0.146710
C25901	C2590	0.700000	0.651300	0.180240
C25911	C2591	0.666200	0.730560	0.111420
C25921	C2592	0.634420	0.759580	0.107520
H25931	H2593	0.613100	0.762300	0.127900
C25941	C2594	0.634690	0.784170	0.073510
H25951	H2595	0.613600	0.804200	0.070000
C25961	C2596	0.666690	0.779270	0.043950
H25971	H2597	0.666600	0.796400	0.020600
C25981	C2598	0.696600	0.727920	0.080360
H25991	H2599	0.718000	0.708200	0.083000
C26001	C2600	0.797540	0.703740	0.052840
C26011	C2601	0.738340	0.796180	0.038480
H26021	H2602	0.740200	0.774000	0.058000
C26031	C2603	0.730730	0.826310	0.044230
H26041	H2604	0.727400	0.825000	0.067200
C26051	C2605	0.727900	0.859480	0.015740
H26061	H2606	0.722400	0.881000	0.019000
C26071	C2607	0.733560	0.859700	0.982400
C26081	C2608	0.740940	0.827880	0.978800
H26091	H2609	0.744300	0.828500	0.956100
C26101	C2610	0.732490	0.893490	0.950830
N26111	N2611	0.469850	0.744430	0.304690
N26121	N2612	0.761140	0.557160	0.209600
N26131	N2613	0.542900	0.707000	0.262060
N26141	N2614	0.670720	0.650220	0.210040
N26151	N2615	0.700380	0.677300	0.147740
N26161	N2616	0.637240	0.704620	0.174980
N26171	N2617	0.697240	0.751520	0.047320
N26181	N2618	0.779380	0.718140	0.035500
N26191	N2619	0.743550	0.795950	0.006230
N26201	N2620	0.732330	0.921290	0.953570
S26211	S2621	0.451000	0.705060	0.378610
S26221	S2622	0.823310	0.683230	0.077230
C26381	C2638	0.186300	0.959680	0.793440
H26391	H2639	0.187700	0.958300	0.814300
C26401	C2640	0.160440	0.948900	0.798060
H26411	H2641	0.144600	0.940200	0.821600
C26421	C2642	0.157520	0.950700	0.767740
H26431	H2643	0.139500	0.943900	0.770100
C26441	C2644	0.182260	0.962780	0.734100
C26451	C2645	0.207730	0.972870	0.732210
H26461	H2646	0.224600	0.980800	0.709200
C26471	C2647	0.335980	0.973580	0.461660
C26481	C2648	0.234660	0.984600	0.574760
H26491	H2649	0.212400	0.987200	0.575200
C26501	C2650	0.237850	0.977350	0.606850
C26511	C2651	0.270930	0.973610	0.606150
H26521	H2652	0.273800	0.969200	0.627600
C26531	C2653	0.299010	0.976430	0.573710
H26541	H2654	0.321900	0.973500	0.572300
C26551	C2655	0.293360	0.983720	0.542860
H26561	H2656	0.312900	0.985700	0.520700
C26571	C2657	0.206090	0.976110	0.640290
C26581	C2658	0.146710	0.982490	0.668150
C26591	C2659	0.180240	0.968460	0.700000
C26601	C2660	0.111420	0.991820	0.666200
C26611	C2661	0.107520	0.998480	0.634420
H26621	H2662	0.127900	0.996700	0.613100
C26631	C2663	0.073510	0.007630	0.634690
H26641	H2664	0.070000	0.012200	0.613600
C26651	C2665	0.043950	0.010090	0.666690
H26661	H2666	0.020600	0.016400	0.666600
C26671	C2667	0.080360	0.995120	0.696600
H26681	H2668	0.083000	0.990800	0.718000
C26691	C2669	0.052840	0.945880	0.797540
C26701	C2670	0.038480	0.927000	0.738340
H26711	H2671	0.058000	0.927800	0.740200
C26721	C2672	0.044230	0.898730	0.730730
H26731	H2673	0.067200	0.880400	0.727400
C26741	C2674	0.015740	0.896880	0.727900
H26751	H2675	0.019000	0.877600	0.722400
C26761	C2676	0.982400	0.924340	0.733560
C26771	C2677	0.978800	0.952380	0.740940
H26781	H2678	0.956100	0.971100	0.744300
C26791	C2679	0.950830	0.923190	0.732490
N26801	N2680	0.304690	0.981030	0.469850
N26811	N2681	0.209600	0.972100	0.761140
N26821	N2682	0.262060	0.988040	0.542900
N26831	N2683	0.210040	0.969020	0.670720
N26841	N2684	0.147740	0.974580	0.700380
N26851	N2685	0.174980	0.983160	0.637240
N26861	N2686	0.047320	0.003920	0.697240
N26871	N2687	0.035500	0.966980	0.779380
N26881	N2688	0.006230	0.954270	0.743550
N26891	N2689	0.953570	0.892810	0.732330
S26901	S2690	0.378610	0.965340	0.451000
S26911	S2691	0.077230	0.916230	0.823310
C27071	C2707	0.959680	0.186300	0.560580
H27081	H2708	0.958300	0.187700	0.539700
C27091	C2709	0.948900	0.160440	0.592600
H27101	H2710	0.940200	0.144600	0.593600
C27111	C2711	0.950700	0.157520	0.624040
H27121	H2712	0.943900	0.139500	0.646500
C27131	C2713	0.962780	0.182260	0.620860
C27141	C2714	0.972870	0.207730	0.587190
H27151	H2715	0.980800	0.224600	0.585400
C27161	C2716	0.973580	0.335980	0.728780
C27171	C2717	0.984600	0.234660	0.705980
H27181	H2718	0.987200	0.212400	0.725200
C27191	C2719	0.977350	0.237850	0.677950
C27201	C2720	0.973610	0.270930	0.649310
H27211	H2721	0.969200	0.273800	0.629400
C27221	C2722	0.976430	0.299010	0.650850
H27231	H2723	0.973500	0.321900	0.632300
C27241	C2724	0.983720	0.293360	0.680060
H27251	H2725	0.985700	0.312900	0.680700
C27261	C2726	0.976110	0.206090	0.677510
C27271	C2727	0.982490	0.146710	0.702650
C27281	C2728	0.968460	0.180240	0.651300
C27291	C2729	0.991820	0.111420	0.730560
C27301	C2730	0.998480	0.107520	0.759580
H27311	H2731	0.996700	0.127900	0.762300
C27321	C2732	0.007630	0.073510	0.784170
H27331	H2733	0.012200	0.070000	0.804200
C27341	C2734	0.010090	0.043950	0.779270
H27351	H2735	0.016400	0.020600	0.796400
C27361	C2736	0.995120	0.080360	0.727920
H27371	H2737	0.990800	0.083000	0.708200
C27381	C2738	0.945880	0.052840	0.703740
C27391	C2739	0.927000	0.038480	0.796180
H27401	H2740	0.927800	0.058000	0.774000
C27411	C2741	0.898730	0.044230	0.826310
H27421	H2742	0.880400	0.067200	0.825000
C27431	C2743	0.896880	0.015740	0.859480
H27441	H2744	0.877600	0.019000	0.881000
C27451	C2745	0.924340	0.982400	0.859700
C27461	C2746	0.952380	0.978800	0.827880
H27471	H2747	0.971100	0.956100	0.828500
C27481	C2748	0.923190	0.950830	0.893490
N27491	N2749	0.981030	0.304690	0.744430
N27501	N2750	0.972100	0.209600	0.557160
N27511	N2751	0.988040	0.262060	0.707000
N27521	N2752	0.969020	0.210040	0.650220
N27531	N2753	0.974580	0.147740	0.677300
N27541	N2754	0.983160	0.174980	0.704620
N27551	N2755	0.003920	0.047320	0.751520
N27561	N2756	0.966980	0.035500	0.718140
N27571	N2757	0.954270	0.006230	0.795950
N27581	N2758	0.892810	0.953570	0.921290
S27591	S2759	0.965340	0.378610	0.705060
S27601	S2760	0.916230	0.077230	0.683230
C27761	C2776	0.186300	0.560580	0.959680
H27771	H2777	0.187700	0.539700	0.958300
C27781	C2778	0.160440	0.592600	0.948900
H27791	H2779	0.144600	0.593600	0.940200
C27801	C2780	0.157520	0.624040	0.950700
H27811	H2781	0.139500	0.646500	0.943900
C27821	C2782	0.182260	0.620860	0.962780
C27831	C2783	0.207730	0.587190	0.972870
H27841	H2784	0.224600	0.585400	0.980800
C27851	C2785	0.335980	0.728780	0.973580
C27861	C2786	0.234660	0.705980	0.984600
H27871	H2787	0.212400	0.725200	0.987200
C27881	C2788	0.237850	0.677950	0.977350
C27891	C2789	0.270930	0.649310	0.973610
H27901	H2790	0.273800	0.629400	0.969200
C27911	C2791	0.299010	0.650850	0.976430
H27921	H2792	0.321900	0.632300	0.973500
C27931	C2793	0.293360	0.680060	0.983720
H27941	H2794	0.312900	0.680700	0.985700
C27951	C2795	0.206090	0.677510	0.976110
C27961	C2796	0.146710	0.702650	0.982490
C27971	C2797	0.180240	0.651300	0.968460
C27981	C2798	0.111420	0.730560	0.991820
C27991	C2799	0.107520	0.759580	0.998480
H28001	H2800	0.127900	0.762300	0.996700
C28011	C2801	0.073510	0.784170	0.007630
H28021	H2802	0.070000	0.804200	0.012200
C28031	C2803	0.043950	0.779270	0.010090
H28041	H2804	0.020600	0.796400	0.016400
C28051	C2805	0.080360	0.727920	0.995120
H28061	H2806	0.083000	0.708200	0.990800
C28071	C2807	0.052840	0.703740	0.945880
C28081	C2808	0.038480	0.796180	0.927000
H28091	H2809	0.058000	0.774000	0.927800
C28101	C2810	0.044230	0.826310	0.898730
H28111	H2811	0.067200	0.825000	0.880400
C28121	C2812	0.015740	0.859480	0.896880
H28131	H2813	0.019000	0.881000	0.877600
C28141	C2814	0.982400	0.859700	0.924340
C28151	C2815	0.978800	0.827880	0.952380
H28161	H2816	0.956100	0.828500	0.971100
C28171	C2817	0.950830	0.893490	0.923190
N28181	N2818	0.304690	0.744430	0.981030
N28191	N2819	0.209600	0.557160	0.972100
N28201	N2820	0.262060	0.707000	0.988040
N28211	N2821	0.210040	0.650220	0.969020
N28221	N2822	0.147740	0.677300	0.974580
N28231	N2823	0.174980	0.704620	0.983160
N28241	N2824	0.047320	0.751520	0.003920
N28251	N2825	0.035500	0.718140	0.966980
N28261	N2826	0.006230	0.795950	0.954270
N28271	N2827	0.953570	0.921290	0.892810
S28281	S2828	0.378610	0.705060	0.965340
S28291	S2829	0.077230	0.683230	0.916230
C28451	C2845	0.959680	0.793440	0.186300
H28461	H2846	0.958300	0.814300	0.187700
C28471	C2847	0.948900	0.798060	0.160440
H28481	H2848	0.940200	0.821600	0.144600
C28491	C2849	0.950700	0.767740	0.157520
H28501	H2850	0.943900	0.770100	0.139500
C28511	C2851	0.962780	0.734100	0.182260
C28521	C2852	0.972870	0.732210	0.207730
H28531	H2853	0.980800	0.709200	0.224600
C28541	C2854	0.973580	0.461660	0.335980
C28551	C2855	0.984600	0.574760	0.234660
H28561	H2856	0.987200	0.575200	0.212400
C28571	C2857	0.977350	0.606850	0.237850
C28581	C2858	0.973610	0.606150	0.270930
H28591	H2859	0.969200	0.627600	0.273800
C28601	C2860	0.976430	0.573710	0.299010
H28611	H2861	0.973500	0.572300	0.321900
C28621	C2862	0.983720	0.542860	0.293360
H28631	H2863	0.985700	0.520700	0.312900
C28641	C2864	0.976110	0.640290	0.206090
C28651	C2865	0.982490	0.668150	0.146710
C28661	C2866	0.968460	0.700000	0.180240
C28671	C2867	0.991820	0.666200	0.111420
C28681	C2868	0.998480	0.634420	0.107520
H28691	H2869	0.996700	0.613100	0.127900
C28701	C2870	0.007630	0.634690	0.073510
H28711	H2871	0.012200	0.613600	0.070000
C28721	C2872	0.010090	0.666690	0.043950
H28731	H2873	0.016400	0.666600	0.020600
C28741	C2874	0.995120	0.696600	0.080360
H28751	H2875	0.990800	0.718000	0.083000
C28761	C2876	0.945880	0.797540	0.052840
C28771	C2877	0.927000	0.738340	0.038480
H28781	H2878	0.927800	0.740200	0.058000
C28791	C2879	0.898730	0.730730	0.044230
H28801	H2880	0.880400	0.727400	0.067200
C28811	C2881	0.896880	0.727900	0.015740
H28821	H2882	0.877600	0.722400	0.019000
C28831	C2883	0.924340	0.733560	0.982400
C28841	C2884	0.952380	0.740940	0.978800
H28851	H2885	0.971100	0.744300	0.956100
C28861	C2886	0.923190	0.732490	0.950830
N28871	N2887	0.981030	0.469850	0.304690
N28881	N2888	0.972100	0.761140	0.209600
N28891	N2889	0.988040	0.542900	0.262060
N28901	N2890	0.969020	0.670720	0.210040
N28911	N2891	0.974580	0.700380	0.147740
N28921	N2892	0.983160	0.637240	0.174980
N28931	N2893	0.003920	0.697240	0.047320
N28941	N2894	0.966980	0.779380	0.035500
N28951	N2895	0.954270	0.743550	0.006230
N28961	N2896	0.892810	0.732330	0.953570
S28971	S2897	0.965340	0.451000	0.378610
S28981	S2898	0.916230	0.823310	0.077230
C29141	C2914	0.560580	0.186300	0.793440
H29151	H2915	0.539700	0.187700	0.814300
C29161	C2916	0.592600	0.160440	0.798060
H29171	H2917	0.593600	0.144600	0.821600
C29181	C2918	0.624040	0.157520	0.767740
H29191	H2919	0.646500	0.139500	0.770100
C29201	C2920	0.620860	0.182260	0.734100
C29211	C2921	0.587190	0.207730	0.732210
H29221	H2922	0.585400	0.224600	0.709200
C29231	C2923	0.728780	0.335980	0.461660
C29241	C2924	0.705980	0.234660	0.574760
H29251	H2925	0.725200	0.212400	0.575200
C29261	C2926	0.677950	0.237850	0.606850
C29271	C2927	0.649310	0.270930	0.606150
H29281	H2928	0.629400	0.273800	0.627600
C29291	C2929	0.650850	0.299010	0.573710
H29301	H2930	0.632300	0.321900	0.572300
C29311	C2931	0.680060	0.293360	0.542860
H29321	H2932	0.680700	0.312900	0.520700
C29331	C2933	0.677510	0.206090	0.640290
C29341	C2934	0.702650	0.146710	0.668150
C29351	C2935	0.651300	0.180240	0.700000
C29361	C2936	0.730560	0.111420	0.666200
C29371	C2937	0.759580	0.107520	0.634420
H29381	H2938	0.762300	0.127900	0.613100
C29391	C2939	0.784170	0.073510	0.634690
H29401	H2940	0.804200	0.070000	0.613600
C29411	C2941	0.779270	0.043950	0.666690
H29421	H2942	0.796400	0.020600	0.666600
C29431	C2943	0.727920	0.080360	0.696600
H29441	H2944	0.708200	0.083000	0.718000
C29451	C2945	0.703740	0.052840	0.797540
C29461	C2946	0.796180	0.038480	0.738340
H29471	H2947	0.774000	0.058000	0.740200
C29481	C2948	0.826310	0.044230	0.730730
H29491	H2949	0.825000	0.067200	0.727400
C29501	C2950	0.859480	0.015740	0.727900
H29511	H2951	0.881000	0.019000	0.722400
C29521	C2952	0.859700	0.982400	0.733560
C29531	C2953	0.827880	0.978800	0.740940
H29541	H2954	0.828500	0.956100	0.744300
C29551	C2955	0.893490	0.950830	0.732490
N29561	N2956	0.744430	0.304690	0.469850
N29571	N2957	0.557160	0.209600	0.761140
N29581	N2958	0.707000	0.262060	0.542900
N29591	N2959	0.650220	0.210040	0.670720
N29601	N2960	0.677300	0.147740	0.700380
N29611	N2961	0.704620	0.174980	0.637240
N29621	N2962	0.751520	0.047320	0.697240
N29631	N2963	0.718140	0.035500	0.779380
N29641	N2964	0.795950	0.006230	0.743550
N29651	N2965	0.921290	0.953570	0.732330
S29661	S2966	0.705060	0.378610	0.451000
S29671	S2967	0.683230	0.077230	0.823310
C29831	C2983	0.793440	0.959680	0.560580
H29841	H2984	0.814300	0.958300	0.539700
C29851	C2985	0.798060	0.948900	0.592600
H29861	H2986	0.821600	0.940200	0.593600
C29871	C2987	0.767740	0.950700	0.624040
H29881	H2988	0.770100	0.943900	0.646500
C29891	C2989	0.734100	0.962780	0.620860
C29901	C2990	0.732210	0.972870	0.587190
H29911	H2991	0.709200	0.980800	0.585400
C29921	C2992	0.461660	0.973580	0.728780
C29931	C2993	0.574760	0.984600	0.705980
H29941	H2994	0.575200	0.987200	0.725200
C29951	C2995	0.606850	0.977350	0.677950
C29961	C2996	0.606150	0.973610	0.649310
H29971	H2997	0.627600	0.969200	0.629400
C29981	C2998	0.573710	0.976430	0.650850
H29991	H2999	0.572300	0.973500	0.632300
C30001	C3000	0.542860	0.983720	0.680060
H30011	H3001	0.520700	0.985700	0.680700
C30021	C3002	0.640290	0.976110	0.677510
C30031	C3003	0.668150	0.982490	0.702650
C30041	C3004	0.700000	0.968460	0.651300
C30051	C3005	0.666200	0.991820	0.730560
C30061	C3006	0.634420	0.998480	0.759580
H30071	H3007	0.613100	0.996700	0.762300
C30081	C3008	0.634690	0.007630	0.784170
H30091	H3009	0.613600	0.012200	0.804200
C30101	C3010	0.666690	0.010090	0.779270
H30111	H3011	0.666600	0.016400	0.796400
C30121	C3012	0.696600	0.995120	0.727920
H30131	H3013	0.718000	0.990800	0.708200
C30141	C3014	0.797540	0.945880	0.703740
C30151	C3015	0.738340	0.927000	0.796180
H30161	H3016	0.740200	0.927800	0.774000
C30171	C3017	0.730730	0.898730	0.826310
H30181	H3018	0.727400	0.880400	0.825000
C30191	C3019	0.727900	0.896880	0.859480
H30201	H3020	0.722400	0.877600	0.881000
C30211	C3021	0.733560	0.924340	0.859700
C30221	C3022	0.740940	0.952380	0.827880
H30231	H3023	0.744300	0.971100	0.828500
C30241	C3024	0.732490	0.923190	0.893490
N30251	N3025	0.469850	0.981030	0.744430
N30261	N3026	0.761140	0.972100	0.557160
N30271	N3027	0.542900	0.988040	0.707000
N30281	N3028	0.670720	0.969020	0.650220
N30291	N3029	0.700380	0.974580	0.677300
N30301	N3030	0.637240	0.983160	0.704620
N30311	N3031	0.697240	0.003920	0.751520
N30321	N3032	0.779380	0.966980	0.718140
N30331	N3033	0.743550	0.954270	0.795950
N30341	N3034	0.732330	0.892810	0.921290
S30351	S3035	0.451000	0.965340	0.705060
S30361	S3036	0.823310	0.916230	0.683230
C30521	C3052	0.793440	0.186300	0.959680
H30531	H3053	0.814300	0.187700	0.958300
C30541	C3054	0.798060	0.160440	0.948900
H30551	H3055	0.821600	0.144600	0.940200
C30561	C3056	0.767740	0.157520	0.950700
H30571	H3057	0.770100	0.139500	0.943900
C30581	C3058	0.734100	0.182260	0.962780
C30591	C3059	0.732210	0.207730	0.972870
H30601	H3060	0.709200	0.224600	0.980800
C30611	C3061	0.461660	0.335980	0.973580
C30621	C3062	0.574760	0.234660	0.984600
H30631	H3063	0.575200	0.212400	0.987200
C30641	C3064	0.606850	0.237850	0.977350
C30651	C3065	0.606150	0.270930	0.973610
H30661	H3066	0.627600	0.273800	0.969200
C30671	C3067	0.573710	0.299010	0.976430
H30681	H3068	0.572300	0.321900	0.973500
C30691	C3069	0.542860	0.293360	0.983720
H30701	H3070	0.520700	0.312900	0.985700
C30711	C3071	0.640290	0.206090	0.976110
C30721	C3072	0.668150	0.146710	0.982490
C30731	C3073	0.700000	0.180240	0.968460
C30741	C3074	0.666200	0.111420	0.991820
C30751	C3075	0.634420	0.107520	0.998480
H30761	H3076	0.613100	0.127900	0.996700
C30771	C3077	0.634690	0.073510	0.007630
H30781	H3078	0.613600	0.070000	0.012200
C30791	C3079	0.666690	0.043950	0.010090
H30801	H3080	0.666600	0.020600	0.016400
C30811	C3081	0.696600	0.080360	0.995120
H30821	H3082	0.718000	0.083000	0.990800
C30831	C3083	0.797540	0.052840	0.945880
C30841	C3084	0.738340	0.038480	0.927000
H30851	H3085	0.740200	0.058000	0.927800
C30861	C3086	0.730730	0.044230	0.898730
H30871	H3087	0.727400	0.067200	0.880400
C30881	C3088	0.727900	0.015740	0.896880
H30891	H3089	0.722400	0.019000	0.877600
C30901	C3090	0.733560	0.982400	0.924340
C30911	C3091	0.740940	0.978800	0.952380
H30921	H3092	0.744300	0.956100	0.971100
C30931	C3093	0.732490	0.950830	0.923190
N30941	N3094	0.469850	0.304690	0.981030
N30951	N3095	0.761140	0.209600	0.972100
N30961	N3096	0.542900	0.262060	0.988040
N30971	N3097	0.670720	0.210040	0.969020
N30981	N3098	0.700380	0.147740	0.974580
N30991	N3099	0.637240	0.174980	0.983160
N31001	N3100	0.697240	0.047320	0.003920
N31011	N3101	0.779380	0.035500	0.966980
N31021	N3102	0.743550	0.006230	0.954270
N31031	N3103	0.732330	0.953570	0.892810
S31041	S3104	0.451000	0.378610	0.965340
S31051	S3105	0.823310	0.077230	0.916230
C31211	C3121	0.560580	0.959680	0.186300
H31221	H3122	0.539700	0.958300	0.187700
C31231	C3123	0.592600	0.948900	0.160440
H31241	H3124	0.593600	0.940200	0.144600
C31251	C3125	0.624040	0.950700	0.157520
H31261	H3126	0.646500	0.943900	0.139500
C31271	C3127	0.620860	0.962780	0.182260
C31281	C3128	0.587190	0.972870	0.207730
H31291	H3129	0.585400	0.980800	0.224600
C31301	C3130	0.728780	0.973580	0.335980
C31311	C3131	0.705980	0.984600	0.234660
H31321	H3132	0.725200	0.987200	0.212400
C31331	C3133	0.677950	0.977350	0.237850
C31341	C3134	0.649310	0.973610	0.270930
H31351	H3135	0.629400	0.969200	0.273800
C31361	C3136	0.650850	0.976430	0.299010
H31371	H3137	0.632300	0.973500	0.321900
C31381	C3138	0.680060	0.983720	0.293360
H31391	H3139	0.680700	0.985700	0.312900
C31401	C3140	0.677510	0.976110	0.206090
C31411	C3141	0.702650	0.982490	0.146710
C31421	C3142	0.651300	0.968460	0.180240
C31431	C3143	0.730560	0.991820	0.111420
C31441	C3144	0.759580	0.998480	0.107520
H31451	H3145	0.762300	0.996700	0.127900
C31461	C3146	0.784170	0.007630	0.073510
H31471	H3147	0.804200	0.012200	0.070000
C31481	C3148	0.779270	0.010090	0.043950
H31491	H3149	0.796400	0.016400	0.020600
C31501	C3150	0.727920	0.995120	0.080360
H31511	H3151	0.708200	0.990800	0.083000
C31521	C3152	0.703740	0.945880	0.052840
C31531	C3153	0.796180	0.927000	0.038480
H31541	H3154	0.774000	0.927800	0.058000
C31551	C3155	0.826310	0.898730	0.044230
H31561	H3156	0.825000	0.880400	0.067200
C31571	C3157	0.859480	0.896880	0.015740
H31581	H3158	0.881000	0.877600	0.019000
C31591	C3159	0.859700	0.924340	0.982400
C31601	C3160	0.827880	0.952380	0.978800
H31611	H3161	0.828500	0.971100	0.956100
C31621	C3162	0.893490	0.923190	0.950830
N31631	N3163	0.744430	0.981030	0.304690
N31641	N3164	0.557160	0.972100	0.209600
N31651	N3165	0.707000	0.988040	0.262060
N31661	N3166	0.650220	0.969020	0.210040
N31671	N3167	0.677300	0.974580	0.147740
N31681	N3168	0.704620	0.983160	0.174980
N31691	N3169	0.751520	0.003920	0.047320
N31701	N3170	0.718140	0.966980	0.035500
N31711	N3171	0.795950	0.954270	0.006230
N31721	N3172	0.921290	0.892810	0.953570
S31731	S3173	0.705060	0.965340	0.378610
S31741	S3174	0.683230	0.916230	0.077230
C31901	C3190	0.959680	0.560580	0.793440
H31911	H3191	0.958300	0.539700	0.814300
C31921	C3192	0.948900	0.592600	0.798060
H31931	H3193	0.940200	0.593600	0.821600
C31941	C3194	0.950700	0.624040	0.767740
H31951	H3195	0.943900	0.646500	0.770100
C31961	C3196	0.962780	0.620860	0.734100
C31971	C3197	0.972870	0.587190	0.732210
H31981	H3198	0.980800	0.585400	0.709200
C31991	C3199	0.973580	0.728780	0.461660
C32001	C3200	0.984600	0.705980	0.574760
H32011	H3201	0.987200	0.725200	0.575200
C32021	C3202	0.977350	0.677950	0.606850
C32031	C3203	0.973610	0.649310	0.606150
H32041	H3204	0.969200	0.629400	0.627600
C32051	C3205	0.976430	0.650850	0.573710
H32061	H3206	0.973500	0.632300	0.572300
C32071	C3207	0.983720	0.680060	0.542860
H32081	H3208	0.985700	0.680700	0.520700
C32091	C3209	0.976110	0.677510	0.640290
C32101	C3210	0.982490	0.702650	0.668150
C32111	C3211	0.968460	0.651300	0.700000
C32121	C3212	0.991820	0.730560	0.666200
C32131	C3213	0.998480	0.759580	0.634420
H32141	H3214	0.996700	0.762300	0.613100
C32151	C3215	0.007630	0.784170	0.634690
H32161	H3216	0.012200	0.804200	0.613600
C32171	C3217	0.010090	0.779270	0.666690
H32181	H3218	0.016400	0.796400	0.666600
C32191	C3219	0.995120	0.727920	0.696600
H32201	H3220	0.990800	0.708200	0.718000
C32211	C3221	0.945880	0.703740	0.797540
C32221	C3222	0.927000	0.796180	0.738340
H32231	H3223	0.927800	0.774000	0.740200
C32241	C3224	0.898730	0.826310	0.730730
H32251	H3225	0.880400	0.825000	0.727400
C32261	C3226	0.896880	0.859480	0.727900
H32271	H3227	0.877600	0.881000	0.722400
C32281	C3228	0.924340	0.859700	0.733560
C32291	C3229	0.952380	0.827880	0.740940
H32301	H3230	0.971100	0.828500	0.744300
C32311	C3231	0.923190	0.893490	0.732490
N32321	N3232	0.981030	0.744430	0.469850
N32331	N3233	0.972100	0.557160	0.761140
N32341	N3234	0.988040	0.707000	0.542900
N32351	N3235	0.969020	0.650220	0.670720
N32361	N3236	0.974580	0.677300	0.700380
N32371	N3237	0.983160	0.704620	0.637240
N32381	N3238	0.003920	0.751520	0.697240
N32391	N3239	0.966980	0.718140	0.779380
N32401	N3240	0.954270	0.795950	0.743550
N32411	N3241	0.892810	0.921290	0.732330
S32421	S3242	0.965340	0.705060	0.451000
S32431	S3243	0.916230	0.683230	0.823310
C32591	C3259	0.186300	0.793440	0.560580
H32601	H3260	0.187700	0.814300	0.539700
C32611	C3261	0.160440	0.798060	0.592600
H32621	H3262	0.144600	0.821600	0.593600
C32631	C3263	0.157520	0.767740	0.624040
H32641	H3264	0.139500	0.770100	0.646500
C32651	C3265	0.182260	0.734100	0.620860
C32661	C3266	0.207730	0.732210	0.587190
H32671	H3267	0.224600	0.709200	0.585400
C32681	C3268	0.335980	0.461660	0.728780
C32691	C3269	0.234660	0.574760	0.705980
H32701	H3270	0.212400	0.575200	0.725200
C32711	C3271	0.237850	0.606850	0.677950
C32721	C3272	0.270930	0.606150	0.649310
H32731	H3273	0.273800	0.627600	0.629400
C32741	C3274	0.299010	0.573710	0.650850
H32751	H3275	0.321900	0.572300	0.632300
C32761	C3276	0.293360	0.542860	0.680060
H32771	H3277	0.312900	0.520700	0.680700
C32781	C3278	0.206090	0.640290	0.677510
C32791	C3279	0.146710	0.668150	0.702650
C32801	C3280	0.180240	0.700000	0.651300
C32811	C3281	0.111420	0.666200	0.730560
C32821	C3282	0.107520	0.634420	0.759580
H32831	H3283	0.127900	0.613100	0.762300
C32841	C3284	0.073510	0.634690	0.784170
H32851	H3285	0.070000	0.613600	0.804200
C32861	C3286	0.043950	0.666690	0.779270
H32871	H3287	0.020600	0.666600	0.796400
C32881	C3288	0.080360	0.696600	0.727920
H32891	H3289	0.083000	0.718000	0.708200
C32901	C3290	0.052840	0.797540	0.703740
C32911	C3291	0.038480	0.738340	0.796180
H32921	H3292	0.058000	0.740200	0.774000
C32931	C3293	0.044230	0.730730	0.826310
H32941	H3294	0.067200	0.727400	0.825000
C32951	C3295	0.015740	0.727900	0.859480
H32961	H3296	0.019000	0.722400	0.881000
C32971	C3297	0.982400	0.733560	0.859700
C32981	C3298	0.978800	0.740940	0.827880
H32991	H3299	0.956100	0.744300	0.828500
C33001	C3300	0.950830	0.732490	0.893490
N33011	N3301	0.304690	0.469850	0.744430
N33021	N3302	0.209600	0.761140	0.557160
N33031	N3303	0.262060	0.542900	0.707000
N33041	N3304	0.210040	0.670720	0.650220
N33051	N3305	0.147740	0.700380	0.677300
N33061	N3306	0.174980	0.637240	0.704620
N33071	N3307	0.047320	0.697240	0.751520
N33081	N3308	0.035500	0.779380	0.718140
N33091	N3309	0.006230	0.743550	0.795950
N33101	N3310	0.953570	0.732330	0.921290
S33111	S3311	0.378610	0.451000	0.705060
S33121	S3312	0.077230	0.823310	0.683230
Co33131	Co3313	0.250000	0.993560	0.750000
Co33141	Co3314	0.993560	0.250000	0.506440
Co33151	Co3315	0.750000	0.506440	0.250000
Co33161	Co3316	0.506440	0.750000	0.993560
Co33171	Co3317	0.750000	0.250000	0.993560
Co33181	Co3318	0.506440	0.993560	0.250000
Co33191	Co3319	0.250000	0.750000	0.506440
Co33201	Co3320	0.993560	0.506440	0.750000
Co33211	Co3321	0.993560	0.750000	0.250000
Co33221	Co3322	0.250000	0.506440	0.993560
Co33231	Co3323	0.506440	0.250000	0.750000
Co33241	Co3324	0.750000	0.993560	0.506440
Co33251	Co3325	0.750000	0.006440	0.250000
Co33261	Co3326	0.006440	0.750000	0.493560
Co33271	Co3327	0.250000	0.493560	0.750000
Co33281	Co3328	0.493560	0.250000	0.006440
Co33291	Co3329	0.250000	0.750000	0.006440
Co33301	Co3330	0.493560	0.006440	0.750000
Co33311	Co3331	0.750000	0.250000	0.493560
Co33321	Co3332	0.006440	0.493560	0.250000
Co33331	Co3333	0.006440	0.250000	0.750000
Co33341	Co3334	0.750000	0.493560	0.006440
Co33351	Co3335	0.493560	0.750000	0.250000
Co33361	Co3336	0.250000	0.006440	0.493560
Co33371	Co3337	0.247880	0.247880	0.502120
Co33381	Co3338	0.502120	0.502120	0.247880
Co33391	Co3339	0.502120	0.247880	0.247880
Co33401	Co3340	0.247880	0.502120	0.502120
Co33411	Co3341	0.247880	0.502120	0.247880
Co33421	Co3342	0.502120	0.247880	0.502120
Co33431	Co3343	0.252120	0.252120	0.997880
Co33441	Co3344	0.997880	0.997880	0.252120
Co33451	Co3345	0.997880	0.252120	0.997880
Co33461	Co3346	0.252120	0.997880	0.252120
Co33471	Co3347	0.252120	0.997880	0.997880
Co33481	Co3348	0.997880	0.252120	0.252120
Co33491	Co3349	0.752120	0.752120	0.497880
Co33501	Co3350	0.497880	0.497880	0.752120
Co33511	Co3351	0.497880	0.752120	0.752120
Co33521	Co3352	0.752120	0.497880	0.497880
Co33531	Co3353	0.752120	0.497880	0.752120
Co33541	Co3354	0.497880	0.752120	0.497880
Co33551	Co3355	0.747880	0.747880	0.002120
Co33561	Co3356	0.002120	0.002120	0.747880
Co33571	Co3357	0.002120	0.747880	0.002120
Co33581	Co3358	0.747880	0.002120	0.747880
Co33591	Co3359	0.747880	0.002120	0.002120
Co33601	Co3360	0.002120	0.747880	0.747880
