data_RIGPEE01_clean_PM
_symmetry_space_group_name_H-M	'P1'
_cell_length_a	9.876000
_cell_length_b	9.295000
_cell_length_c	22.594000
_cell_angle_alpha	90.000000
_cell_angle_beta	106.800000
_cell_angle_gamma	90.000000
_symmetry_Int_Tables_number 1

loop_
_symmetry_equiv_pos_as_xyz
'x,y,z'

loop_
_atom_site_label
_atom_site_type_symbol
_atom_site_fract_x
_atom_site_fract_y
_atom_site_fract_z
Cu11	Cu1	0.693740	0.875560	0.846820
N11	N1	0.611900	0.911600	0.756700
C11	C1	0.488800	0.856500	0.723700
H11	H1	0.447700	0.786400	0.742200
C21	C2	0.603600	0.057000	0.668000
H21	H2	0.648900	0.125500	0.650400
C31	C3	0.418300	0.895900	0.664200
H31	H3	0.333000	0.852000	0.643600
C41	C4	0.475100	0.002300	0.634500
C51	C5	0.402800	0.046500	0.569400
C61	C6	0.391500	0.193500	0.482800
N21	N2	0.282600	0.973600	0.538700
C71	C7	0.268600	0.119000	0.450700
H41	H4	0.222300	0.144100	0.410000
C81	C8	0.215400	0.009200	0.478300
C91	C9	0.087800	0.922900	0.445400
C101	C10	0.003700	0.957300	0.386600
H51	H5	0.024800	0.036200	0.365600
C111	C11	0.932300	0.725900	0.443300
H61	H6	0.907900	0.647900	0.463900
C121	C12	0.887300	0.871200	0.359900
H71	H7	0.829800	0.897400	0.321000
N31	N3	0.852000	0.753200	0.386100
N41	N4	0.584300	0.510800	0.395000
C131	C13	0.665000	0.011000	0.727000
H81	H8	0.751000	0.052400	0.748300
C141	C14	0.455500	0.154200	0.542300
H91	H9	0.536800	0.202200	0.564700
C151	C15	0.048900	0.805400	0.474000
H101	H10	0.101300	0.780000	0.513800
C161	C16	0.454200	0.307500	0.452800
C171	C17	0.381500	0.371800	0.397100
H111	H11	0.287600	0.347800	0.378100
C181	C18	0.448700	0.470900	0.370400
H121	H12	0.397700	0.512700	0.333200
C191	C19	0.650700	0.451000	0.449100
H131	H13	0.743300	0.479600	0.468200
C201	C20	0.592700	0.351000	0.478600
H141	H14	0.646100	0.312100	0.516000
Cu21	Cu2	0.693740	0.624440	0.346820
N51	N5	0.611900	0.588400	0.256700
C211	C21	0.488800	0.643500	0.223700
H151	H15	0.447700	0.713600	0.242200
C221	C22	0.603600	0.443000	0.168000
H161	H16	0.648900	0.374500	0.150400
C231	C23	0.418300	0.604100	0.164200
H171	H17	0.333000	0.648000	0.143600
C241	C24	0.475100	0.497700	0.134500
C251	C25	0.402800	0.453500	0.069400
C261	C26	0.391500	0.306500	0.982800
N61	N6	0.282600	0.526400	0.038700
C271	C27	0.268600	0.381000	0.950700
H181	H18	0.222300	0.355900	0.910000
C281	C28	0.215400	0.490800	0.978300
C291	C29	0.087800	0.577100	0.945400
C301	C30	0.003700	0.542700	0.886600
H191	H19	0.024800	0.463800	0.865600
C311	C31	0.932300	0.774100	0.943300
H201	H20	0.907900	0.852100	0.963900
C321	C32	0.887300	0.628800	0.859900
H211	H21	0.829800	0.602600	0.821000
N71	N7	0.852000	0.746800	0.886100
N81	N8	0.584300	0.989200	0.895000
C331	C33	0.665000	0.489000	0.227000
H221	H22	0.751000	0.447600	0.248300
C341	C34	0.455500	0.345800	0.042300
H231	H23	0.536800	0.297800	0.064700
C351	C35	0.048900	0.694600	0.974000
H241	H24	0.101300	0.720000	0.013800
C361	C36	0.454200	0.192500	0.952800
C371	C37	0.381500	0.128200	0.897100
H251	H25	0.287600	0.152200	0.878100
C381	C38	0.448700	0.029100	0.870400
H261	H26	0.397700	0.987300	0.833200
C391	C39	0.650700	0.049000	0.949100
H271	H27	0.743300	0.020400	0.968200
C401	C40	0.592700	0.149000	0.978600
H281	H28	0.646100	0.187900	0.016000
Cu31	Cu3	0.306260	0.375560	0.653180
N91	N9	0.388100	0.411600	0.743300
C411	C41	0.511200	0.356500	0.776300
H291	H29	0.552300	0.286400	0.757800
C421	C42	0.396400	0.557000	0.832000
H301	H30	0.351100	0.625500	0.849600
C431	C43	0.581700	0.395900	0.835800
H311	H31	0.667000	0.352000	0.856400
C441	C44	0.524900	0.502300	0.865500
C451	C45	0.597200	0.546500	0.930600
C461	C46	0.608500	0.693500	0.017200
N101	N10	0.717400	0.473600	0.961300
C471	C47	0.731400	0.619000	0.049300
H321	H32	0.777700	0.644100	0.090000
C481	C48	0.784600	0.509200	0.021700
C491	C49	0.912200	0.422900	0.054600
C501	C50	0.996300	0.457300	0.113400
H331	H33	0.975200	0.536200	0.134400
C511	C51	0.067700	0.225900	0.056700
H341	H34	0.092100	0.147900	0.036100
C521	C52	0.112700	0.371200	0.140100
H351	H35	0.170200	0.397400	0.179000
N111	N11	0.148000	0.253200	0.113900
N121	N12	0.415700	0.010800	0.105000
C531	C53	0.335000	0.511000	0.773000
H361	H36	0.249000	0.552400	0.751700
C541	C54	0.544500	0.654200	0.957700
H371	H37	0.463200	0.702200	0.935300
C551	C55	0.951100	0.305400	0.026000
H381	H38	0.898700	0.280000	0.986200
C561	C56	0.545800	0.807500	0.047200
C571	C57	0.618500	0.871800	0.102900
H391	H39	0.712400	0.847800	0.121900
C581	C58	0.551300	0.970900	0.129600
H401	H40	0.602300	0.012700	0.166800
C591	C59	0.349300	0.951000	0.050900
H411	H41	0.256700	0.979600	0.031800
C601	C60	0.407300	0.851000	0.021400
H421	H42	0.353900	0.812100	0.984000
Cu41	Cu4	0.306260	0.124440	0.153180
N131	N13	0.388100	0.088400	0.243300
C611	C61	0.511200	0.143500	0.276300
H431	H43	0.552300	0.213600	0.257800
C621	C62	0.396400	0.943000	0.332000
H441	H44	0.351100	0.874500	0.349600
C631	C63	0.581700	0.104100	0.335800
H451	H45	0.667000	0.148000	0.356400
C641	C64	0.524900	0.997700	0.365500
C651	C65	0.597200	0.953500	0.430600
C661	C66	0.608500	0.806500	0.517200
N141	N14	0.717400	0.026400	0.461300
C671	C67	0.731400	0.881000	0.549300
H461	H46	0.777700	0.855900	0.590000
C681	C68	0.784600	0.990800	0.521700
C691	C69	0.912200	0.077100	0.554600
C701	C70	0.996300	0.042700	0.613400
H471	H47	0.975200	0.963800	0.634400
C711	C71	0.067700	0.274100	0.556700
H481	H48	0.092100	0.352100	0.536100
C721	C72	0.112700	0.128800	0.640100
H491	H49	0.170200	0.102600	0.679000
N151	N15	0.148000	0.246800	0.613900
N161	N16	0.415700	0.489200	0.605000
C731	C73	0.335000	0.989000	0.273000
H501	H50	0.249000	0.947600	0.251700
C741	C74	0.544500	0.845800	0.457700
H511	H51	0.463200	0.797800	0.435300
C751	C75	0.951100	0.194600	0.526000
H521	H52	0.898700	0.220000	0.486200
C761	C76	0.545800	0.692500	0.547200
C771	C77	0.618500	0.628200	0.602900
H531	H53	0.712400	0.652200	0.621900
C781	C78	0.551300	0.529100	0.629600
H541	H54	0.602300	0.487300	0.666800
C791	C79	0.349300	0.549000	0.550900
H551	H55	0.256700	0.520400	0.531800
C801	C80	0.407300	0.649000	0.521400
H561	H56	0.353900	0.687900	0.484000
