data_RILVOZ_clean_PM
_symmetry_space_group_name_H-M	'P1'
_cell_length_a	7.437000
_cell_length_b	11.278000
_cell_length_c	15.164000
_cell_angle_alpha	90.000000
_cell_angle_beta	90.000000
_cell_angle_gamma	90.000000
_symmetry_Int_Tables_number 1

loop_
_symmetry_equiv_pos_as_xyz
'x,y,z'

loop_
_atom_site_label
_atom_site_type_symbol
_atom_site_fract_x
_atom_site_fract_y
_atom_site_fract_z
Mn11	Mn1	0.535310	0.286150	0.220590
Mn21	Mn2	0.464690	0.786150	0.779410
Mn31	Mn3	0.035310	0.286150	0.279410
Mn41	Mn4	0.964690	0.786150	0.720590
H11	H1	0.806400	0.029900	0.500700
H21	H2	0.360600	0.821600	0.496200
H31	H3	0.494300	0.018000	0.282100
H41	H4	0.030500	0.790800	0.331900
H51	H5	0.066900	0.869200	0.418000
H61	H6	0.166700	0.744600	0.406100
H71	H7	0.193600	0.529900	0.499300
H81	H8	0.639400	0.321600	0.503800
H91	H9	0.505700	0.518000	0.717900
H101	H10	0.969500	0.290800	0.668100
H111	H11	0.933100	0.369200	0.582000
H121	H12	0.833300	0.244600	0.593900
H131	H13	0.306400	0.029900	0.999300
H141	H14	0.860600	0.821600	0.003800
H151	H15	0.994300	0.018000	0.217900
H161	H16	0.530500	0.790800	0.168100
H171	H17	0.566900	0.869200	0.082000
H181	H18	0.666700	0.744600	0.093900
H191	H19	0.693600	0.529900	0.000700
H201	H20	0.139400	0.321600	0.996200
H211	H21	0.005700	0.518000	0.782100
H221	H22	0.469500	0.290800	0.831900
H231	H23	0.433100	0.369200	0.918000
H241	H24	0.333300	0.244600	0.906100
C11	C1	0.781300	0.130930	0.341820
C21	C2	0.636200	0.868160	0.601060
C31	C3	0.664200	0.039490	0.386060
C41	C4	0.703400	0.000410	0.470800
C51	C5	0.591700	0.917940	0.512000
C61	C6	0.439600	0.875510	0.467760
C71	C7	0.404700	0.912370	0.382340
C81	C8	0.517700	0.993810	0.341060
C91	C9	0.121200	0.814800	0.375270
C101	C10	0.218700	0.630930	0.658180
C111	C11	0.363800	0.368160	0.398940
C121	C12	0.335800	0.539490	0.613940
C131	C13	0.296600	0.500410	0.529200
C141	C14	0.408300	0.417940	0.488000
C151	C15	0.560400	0.375510	0.532240
C161	C16	0.595300	0.412370	0.617660
C171	C17	0.482300	0.493810	0.658940
C181	C18	0.878800	0.314800	0.624730
C191	C19	0.281300	0.130930	0.158180
C201	C20	0.136200	0.868160	0.898940
C211	C21	0.164200	0.039490	0.113940
C221	C22	0.203400	0.000410	0.029200
C231	C23	0.091700	0.917940	0.988000
C241	C24	0.939600	0.875510	0.032240
C251	C25	0.904700	0.912370	0.117660
C261	C26	0.017700	0.993810	0.158940
C271	C27	0.621200	0.814800	0.124730
C281	C28	0.718700	0.630930	0.841820
C291	C29	0.863800	0.368160	0.101060
C301	C30	0.835800	0.539490	0.886060
C311	C31	0.796600	0.500410	0.970800
C321	C32	0.908300	0.417940	0.012000
C331	C33	0.060400	0.375510	0.967760
C341	C34	0.095300	0.412370	0.882340
C351	C35	0.982300	0.493810	0.841060
C361	C36	0.378800	0.314800	0.875270
O11	O1	0.738310	0.168350	0.265890
O21	O2	0.920380	0.165320	0.379360
O31	O3	0.797610	0.870570	0.624750
O41	O4	0.507750	0.825100	0.644650
O51	O5	0.263210	0.871730	0.332200
O61	O6	0.261690	0.668350	0.734110
O71	O7	0.079620	0.665320	0.620640
O81	O8	0.202390	0.370570	0.375250
O91	O9	0.492250	0.325100	0.355350
O101	O10	0.736790	0.371730	0.667800
O111	O11	0.238310	0.168350	0.234110
O121	O12	0.420380	0.165320	0.120640
O131	O13	0.297610	0.870570	0.875250
O141	O14	0.007750	0.825100	0.855350
O151	O15	0.763210	0.871730	0.167800
O161	O16	0.761690	0.668350	0.765890
O171	O17	0.579620	0.665320	0.879360
O181	O18	0.702390	0.370570	0.124750
O191	O19	0.992250	0.325100	0.144650
O201	O20	0.236790	0.371730	0.832200
