data_RIPNIP_clean_PM
_symmetry_space_group_name_H-M	'P1'
_cell_length_a	11.933900
_cell_length_b	12.436900
_cell_length_c	17.962700
_cell_angle_alpha	90.000000
_cell_angle_beta	104.051000
_cell_angle_gamma	90.000000
_symmetry_Int_Tables_number 1

loop_
_symmetry_equiv_pos_as_xyz
'x,y,z'

loop_
_atom_site_label
_atom_site_type_symbol
_atom_site_fract_x
_atom_site_fract_y
_atom_site_fract_z
Zn11	Zn1	0.046090	0.741660	0.768260
Zn21	Zn2	0.256400	0.937050	0.778740
Zn31	Zn3	0.453910	0.241660	0.731740
Zn41	Zn4	0.243600	0.437050	0.721260
Zn51	Zn5	0.953910	0.258340	0.231740
Zn61	Zn6	0.743600	0.062950	0.221260
Zn71	Zn7	0.546090	0.758340	0.268260
Zn81	Zn8	0.756400	0.562950	0.278740
C11	C1	0.352700	0.691900	0.951300
C21	C2	0.316200	0.669100	0.017600
C31	C3	0.391900	0.632800	0.082900
C41	C4	0.506700	0.612800	0.085500
C51	C5	0.540700	0.630200	0.019100
C61	C6	0.469300	0.671800	0.954400
C71	C7	0.275200	0.742600	0.881900
C81	C8	0.596700	0.583900	0.157600
C91	C9	0.446400	0.094100	0.845900
C101	C10	0.473600	0.045000	0.925800
C111	C11	0.559100	0.967700	0.947200
C121	C12	0.584300	0.924700	0.020600
C131	C13	0.059400	0.945200	0.855000
C141	C14	0.029300	0.974600	0.930100
C151	C15	0.919600	0.011900	0.932400
C161	C16	0.892300	0.037100	0.999400
C171	C17	0.147300	0.191900	0.548700
C181	C18	0.183800	0.169100	0.482400
C191	C19	0.108100	0.132800	0.417100
C201	C20	0.993300	0.112800	0.414500
C211	C21	0.959300	0.130200	0.480900
C221	C22	0.030700	0.171800	0.545600
C231	C23	0.224800	0.242600	0.618100
C241	C24	0.903300	0.083900	0.342400
C251	C25	0.053600	0.594100	0.654100
C261	C26	0.026400	0.545000	0.574200
C271	C27	0.940900	0.467700	0.552800
C281	C28	0.915700	0.424700	0.479400
C291	C29	0.440600	0.445200	0.645000
C301	C30	0.470700	0.474600	0.569900
C311	C31	0.580400	0.511900	0.567600
C321	C32	0.607700	0.537100	0.500600
C331	C33	0.647300	0.308100	0.048700
C341	C34	0.683800	0.330900	0.982400
C351	C35	0.608100	0.367200	0.917100
C361	C36	0.493300	0.387200	0.914500
C371	C37	0.459300	0.369800	0.980900
C381	C38	0.530700	0.328200	0.045600
C391	C39	0.724800	0.257400	0.118100
C401	C40	0.403300	0.416100	0.842400
C411	C41	0.553600	0.905900	0.154100
C421	C42	0.526400	0.955000	0.074200
C431	C43	0.440900	0.032300	0.052800
C441	C44	0.415700	0.075300	0.979400
C451	C45	0.940600	0.054800	0.145000
C461	C46	0.970700	0.025400	0.069900
C471	C47	0.080400	0.988100	0.067600
C481	C48	0.107700	0.962900	0.000600
C491	C49	0.852700	0.808100	0.451300
C501	C50	0.816200	0.830900	0.517600
C511	C51	0.891900	0.867200	0.582900
C521	C52	0.006700	0.887200	0.585500
C531	C53	0.040700	0.869800	0.519100
C541	C54	0.969300	0.828200	0.454400
C551	C55	0.775200	0.757400	0.381900
C561	C56	0.096700	0.916100	0.657600
C571	C57	0.946400	0.405900	0.345900
C581	C58	0.973600	0.455000	0.425800
C591	C59	0.059100	0.532300	0.447200
C601	C60	0.084300	0.575300	0.520600
C611	C61	0.559400	0.554800	0.355000
C621	C62	0.529300	0.525400	0.430100
C631	C63	0.419600	0.488100	0.432400
C641	C64	0.392300	0.462900	0.499400
O11	O1	0.319200	0.822600	0.856400
O21	O2	0.176700	0.702800	0.856000
O31	O3	0.641600	0.494200	0.165700
O41	O4	0.628400	0.659600	0.206500
O51	O5	0.354600	0.069000	0.798500
O61	O6	0.517100	0.159500	0.831000
O71	O7	0.146500	0.989700	0.843100
O81	O8	0.995200	0.876300	0.816400
O91	O9	0.180800	0.322600	0.643600
O101	O10	0.323300	0.202800	0.644000
O111	O11	0.858400	0.994200	0.334300
O121	O12	0.871600	0.159600	0.293500
O131	O13	0.145400	0.569000	0.701500
O141	O14	0.982900	0.659500	0.669000
O151	O15	0.353500	0.489700	0.656900
O161	O16	0.504800	0.376300	0.683600
O171	O17	0.680800	0.177400	0.143600
O181	O18	0.823300	0.297200	0.144000
O191	O19	0.358400	0.505800	0.834300
O201	O20	0.371600	0.340400	0.793500
O211	O21	0.645400	0.931000	0.201500
O221	O22	0.482900	0.840500	0.169000
O231	O23	0.853500	0.010300	0.156900
O241	O24	0.004800	0.123700	0.183600
O251	O25	0.819200	0.677400	0.356400
O261	O26	0.676700	0.797200	0.356000
O271	O27	0.141600	0.005800	0.665700
O281	O28	0.128400	0.840400	0.706500
O291	O29	0.854600	0.431000	0.298500
O301	O30	0.017100	0.340500	0.331000
O311	O31	0.646500	0.510300	0.343100
O321	O32	0.495200	0.623700	0.316400
F11	F1	0.205400	0.686800	0.019300
F21	F2	0.353200	0.620300	0.147470
F31	F3	0.652400	0.610700	0.017600
F41	F4	0.511000	0.691600	0.893000
F51	F5	0.617100	0.932700	0.896440
F61	F6	0.668200	0.849100	0.038500
F71	F7	0.840000	0.028300	0.865700
F81	F8	0.786300	0.077000	0.997600
F91	F9	0.294600	0.186800	0.480700
F101	F10	0.146800	0.120300	0.352530
F111	F11	0.847600	0.110700	0.482400
F121	F12	0.989000	0.191600	0.607000
F131	F13	0.882900	0.432700	0.603560
F141	F14	0.831800	0.349100	0.461500
F151	F15	0.660000	0.528300	0.634300
F161	F16	0.713700	0.577000	0.502400
F171	F17	0.794600	0.313200	0.980700
F181	F18	0.646800	0.379700	0.852530
F191	F19	0.347600	0.389300	0.982400
F201	F20	0.489000	0.308400	0.107000
F211	F21	0.382900	0.067300	0.103560
F221	F22	0.331800	0.150900	0.961500
F231	F23	0.160000	0.971700	0.134300
F241	F24	0.213700	0.923000	0.002400
F251	F25	0.705400	0.813200	0.519300
F261	F26	0.853200	0.879700	0.647470
F271	F27	0.152400	0.889300	0.517600
F281	F28	0.011000	0.808400	0.393000
F291	F29	0.117100	0.567300	0.396440
F301	F30	0.168200	0.650900	0.538500
F311	F31	0.340000	0.471700	0.365700
F321	F32	0.286300	0.423000	0.497600
