data_RIWMUH_clean_PM
_symmetry_space_group_name_H-M	'P1'
_cell_length_a	27.086000
_cell_length_b	27.086000
_cell_length_c	6.705200
_cell_angle_alpha	90.000000
_cell_angle_beta	90.000000
_cell_angle_gamma	90.000000
_symmetry_Int_Tables_number 1

loop_
_symmetry_equiv_pos_as_xyz
'x,y,z'

loop_
_atom_site_label
_atom_site_type_symbol
_atom_site_fract_x
_atom_site_fract_y
_atom_site_fract_z
C11	C1	0.491130	0.083740	0.836200
C21	C2	0.487700	0.133550	0.738900
C31	C3	0.465630	0.137560	0.554500
H11	H1	0.452800	0.109800	0.491700
C41	C4	0.462740	0.183490	0.463400
C51	C5	0.482910	0.225610	0.551300
C61	C6	0.503850	0.220680	0.735900
H21	H2	0.516600	0.248400	0.799600
C71	C7	0.506430	0.175220	0.829800
H31	H3	0.520900	0.172800	0.955200
C81	C8	0.412400	0.151840	0.203200
H41	H4	0.398500	0.162000	0.078100
H51	H5	0.386300	0.143100	0.293500
H61	H6	0.433500	0.123800	0.182300
O11	O1	0.510760	0.082660	0.004800
O21	O2	0.474960	0.046890	0.745500
O31	O3	0.440240	0.190960	0.285000
C91	C9	0.008870	0.416260	0.836200
C101	C10	0.012300	0.366450	0.738900
C111	C11	0.034370	0.362440	0.554500
H71	H7	0.047200	0.390200	0.491700
C121	C12	0.037260	0.316510	0.463400
C131	C13	0.017090	0.274390	0.551300
C141	C14	0.996150	0.279320	0.735900
H81	H8	0.983400	0.251600	0.799600
C151	C15	0.993570	0.324780	0.829800
H91	H9	0.979100	0.327200	0.955200
C161	C16	0.087600	0.348160	0.203200
H101	H10	0.101500	0.338000	0.078100
H111	H11	0.113700	0.356900	0.293500
H121	H12	0.066500	0.376200	0.182300
O41	O4	0.989240	0.417340	0.004800
O51	O5	0.025040	0.453110	0.745500
O61	O6	0.059760	0.309040	0.285000
C171	C17	0.416260	0.491130	0.836200
C181	C18	0.366450	0.487700	0.738900
C191	C19	0.362440	0.465630	0.554500
H131	H13	0.390200	0.452800	0.491700
C201	C20	0.316510	0.462740	0.463400
C211	C21	0.274390	0.482910	0.551300
C221	C22	0.279320	0.503850	0.735900
H141	H14	0.251600	0.516600	0.799600
C231	C23	0.324780	0.506430	0.829800
H151	H15	0.327200	0.520900	0.955200
C241	C24	0.348160	0.412400	0.203200
H161	H16	0.338000	0.398500	0.078100
H171	H17	0.356900	0.386300	0.293500
H181	H18	0.376200	0.433500	0.182300
O71	O7	0.417340	0.510760	0.004800
O81	O8	0.453110	0.474960	0.745500
O91	O9	0.309040	0.440240	0.285000
C251	C25	0.083740	0.008870	0.836200
C261	C26	0.133550	0.012300	0.738900
C271	C27	0.137560	0.034370	0.554500
H191	H19	0.109800	0.047200	0.491700
C281	C28	0.183490	0.037260	0.463400
C291	C29	0.225610	0.017090	0.551300
C301	C30	0.220680	0.996150	0.735900
H201	H20	0.248400	0.983400	0.799600
C311	C31	0.175220	0.993570	0.829800
H211	H21	0.172800	0.979100	0.955200
C321	C32	0.151840	0.087600	0.203200
H221	H22	0.162000	0.101500	0.078100
H231	H23	0.143100	0.113700	0.293500
H241	H24	0.123800	0.066500	0.182300
O101	O10	0.082660	0.989240	0.004800
O111	O11	0.046890	0.025040	0.745500
O121	O12	0.190960	0.059760	0.285000
C331	C33	0.008870	0.083740	0.163800
C341	C34	0.012300	0.133550	0.261100
C351	C35	0.034370	0.137560	0.445500
H251	H25	0.047200	0.109800	0.508300
C361	C36	0.037260	0.183490	0.536600
C371	C37	0.017090	0.225610	0.448700
C381	C38	0.996150	0.220680	0.264100
H261	H26	0.983400	0.248400	0.200400
C391	C39	0.993570	0.175220	0.170200
H271	H27	0.979100	0.172800	0.044800
C401	C40	0.087600	0.151840	0.796800
H281	H28	0.101500	0.162000	0.921900
H291	H29	0.113700	0.143100	0.706500
H301	H30	0.066500	0.123800	0.817700
O131	O13	0.989240	0.082660	0.995200
O141	O14	0.025040	0.046890	0.254500
O151	O15	0.059760	0.190960	0.715000
C411	C41	0.491130	0.416260	0.163800
C421	C42	0.487700	0.366450	0.261100
C431	C43	0.465630	0.362440	0.445500
H311	H31	0.452800	0.390200	0.508300
C441	C44	0.462740	0.316510	0.536600
C451	C45	0.482910	0.274390	0.448700
C461	C46	0.503850	0.279320	0.264100
H321	H32	0.516600	0.251600	0.200400
C471	C47	0.506430	0.324780	0.170200
H331	H33	0.520900	0.327200	0.044800
C481	C48	0.412400	0.348160	0.796800
H341	H34	0.398500	0.338000	0.921900
H351	H35	0.386300	0.356900	0.706500
H361	H36	0.433500	0.376200	0.817700
O161	O16	0.510760	0.417340	0.995200
O171	O17	0.474960	0.453110	0.254500
O181	O18	0.440240	0.309040	0.715000
C491	C49	0.083740	0.491130	0.163800
C501	C50	0.133550	0.487700	0.261100
C511	C51	0.137560	0.465630	0.445500
H371	H37	0.109800	0.452800	0.508300
C521	C52	0.183490	0.462740	0.536600
C531	C53	0.225610	0.482910	0.448700
C541	C54	0.220680	0.503850	0.264100
H381	H38	0.248400	0.516600	0.200400
C551	C55	0.175220	0.506430	0.170200
H391	H39	0.172800	0.520900	0.044800
C561	C56	0.151840	0.412400	0.796800
H401	H40	0.162000	0.398500	0.921900
H411	H41	0.143100	0.386300	0.706500
H421	H42	0.123800	0.433500	0.817700
O191	O19	0.082660	0.510760	0.995200
O201	O20	0.046890	0.474960	0.254500
O211	O21	0.190960	0.440240	0.715000
C571	C57	0.416260	0.008870	0.163800
C581	C58	0.366450	0.012300	0.261100
C591	C59	0.362440	0.034370	0.445500
H431	H43	0.390200	0.047200	0.508300
C601	C60	0.316510	0.037260	0.536600
C611	C61	0.274390	0.017090	0.448700
C621	C62	0.279320	0.996150	0.264100
H441	H44	0.251600	0.983400	0.200400
C631	C63	0.324780	0.993570	0.170200
H451	H45	0.327200	0.979100	0.044800
C641	C64	0.348160	0.087600	0.796800
H461	H46	0.338000	0.101500	0.921900
H471	H47	0.356900	0.113700	0.706500
H481	H48	0.376200	0.066500	0.817700
O221	O22	0.417340	0.989240	0.995200
O231	O23	0.453110	0.025040	0.254500
O241	O24	0.309040	0.059760	0.715000
C651	C65	0.508870	0.916260	0.163800
C661	C66	0.512300	0.866450	0.261100
C671	C67	0.534370	0.862440	0.445500
H491	H49	0.547200	0.890200	0.508300
C681	C68	0.537260	0.816510	0.536600
C691	C69	0.517090	0.774390	0.448700
C701	C70	0.496150	0.779320	0.264100
H501	H50	0.483400	0.751600	0.200400
C711	C71	0.493570	0.824780	0.170200
H511	H51	0.479100	0.827200	0.044800
C721	C72	0.587600	0.848160	0.796800
H521	H52	0.601500	0.838000	0.921900
H531	H53	0.613700	0.856900	0.706500
H541	H54	0.566500	0.876200	0.817700
O251	O25	0.489240	0.917340	0.995200
O261	O26	0.525040	0.953110	0.254500
O271	O27	0.559760	0.809040	0.715000
C731	C73	0.991130	0.583740	0.163800
C741	C74	0.987700	0.633550	0.261100
C751	C75	0.965630	0.637560	0.445500
H551	H55	0.952800	0.609800	0.508300
C761	C76	0.962740	0.683490	0.536600
C771	C77	0.982910	0.725610	0.448700
C781	C78	0.003850	0.720680	0.264100
H561	H56	0.016600	0.748400	0.200400
C791	C79	0.006430	0.675220	0.170200
H571	H57	0.020900	0.672800	0.044800
C801	C80	0.912400	0.651840	0.796800
H581	H58	0.898500	0.662000	0.921900
H591	H59	0.886300	0.643100	0.706500
H601	H60	0.933500	0.623800	0.817700
O281	O28	0.010760	0.582660	0.995200
O291	O29	0.974960	0.546890	0.254500
O301	O30	0.940240	0.690960	0.715000
C811	C81	0.583740	0.508870	0.163800
C821	C82	0.633550	0.512300	0.261100
C831	C83	0.637560	0.534370	0.445500
H611	H61	0.609800	0.547200	0.508300
C841	C84	0.683490	0.537260	0.536600
C851	C85	0.725610	0.517090	0.448700
C861	C86	0.720680	0.496150	0.264100
H621	H62	0.748400	0.483400	0.200400
C871	C87	0.675220	0.493570	0.170200
H631	H63	0.672800	0.479100	0.044800
C881	C88	0.651840	0.587600	0.796800
H641	H64	0.662000	0.601500	0.921900
H651	H65	0.643100	0.613700	0.706500
H661	H66	0.623800	0.566500	0.817700
O311	O31	0.582660	0.489240	0.995200
O321	O32	0.546890	0.525040	0.254500
O331	O33	0.690960	0.559760	0.715000
C891	C89	0.916260	0.991130	0.163800
C901	C90	0.866450	0.987700	0.261100
C911	C91	0.862440	0.965630	0.445500
H671	H67	0.890200	0.952800	0.508300
C921	C92	0.816510	0.962740	0.536600
C931	C93	0.774390	0.982910	0.448700
C941	C94	0.779320	0.003850	0.264100
H681	H68	0.751600	0.016600	0.200400
C951	C95	0.824780	0.006430	0.170200
H691	H69	0.827200	0.020900	0.044800
C961	C96	0.848160	0.912400	0.796800
H701	H70	0.838000	0.898500	0.921900
H711	H71	0.856900	0.886300	0.706500
H721	H72	0.876200	0.933500	0.817700
O341	O34	0.917340	0.010760	0.995200
O351	O35	0.953110	0.974960	0.254500
O361	O36	0.809040	0.940240	0.715000
C971	C97	0.991130	0.916260	0.836200
C981	C98	0.987700	0.866450	0.738900
C991	C99	0.965630	0.862440	0.554500
H731	H73	0.952800	0.890200	0.491700
C1001	C100	0.962740	0.816510	0.463400
C1011	C101	0.982910	0.774390	0.551300
C1021	C102	0.003850	0.779320	0.735900
H741	H74	0.016600	0.751600	0.799600
C1031	C103	0.006430	0.824780	0.829800
H751	H75	0.020900	0.827200	0.955200
C1041	C104	0.912400	0.848160	0.203200
H761	H76	0.898500	0.838000	0.078100
H771	H77	0.886300	0.856900	0.293500
H781	H78	0.933500	0.876200	0.182300
O371	O37	0.010760	0.917340	0.004800
O381	O38	0.974960	0.953110	0.745500
O391	O39	0.940240	0.809040	0.285000
C1051	C105	0.508870	0.583740	0.836200
C1061	C106	0.512300	0.633550	0.738900
C1071	C107	0.534370	0.637560	0.554500
H791	H79	0.547200	0.609800	0.491700
C1081	C108	0.537260	0.683490	0.463400
C1091	C109	0.517090	0.725610	0.551300
C1101	C110	0.496150	0.720680	0.735900
H801	H80	0.483400	0.748400	0.799600
C1111	C111	0.493570	0.675220	0.829800
H811	H81	0.479100	0.672800	0.955200
C1121	C112	0.587600	0.651840	0.203200
H821	H82	0.601500	0.662000	0.078100
H831	H83	0.613700	0.643100	0.293500
H841	H84	0.566500	0.623800	0.182300
O401	O40	0.489240	0.582660	0.004800
O411	O41	0.525040	0.546890	0.745500
O421	O42	0.559760	0.690960	0.285000
C1131	C113	0.916260	0.508870	0.836200
C1141	C114	0.866450	0.512300	0.738900
C1151	C115	0.862440	0.534370	0.554500
H851	H85	0.890200	0.547200	0.491700
C1161	C116	0.816510	0.537260	0.463400
C1171	C117	0.774390	0.517090	0.551300
C1181	C118	0.779320	0.496150	0.735900
H861	H86	0.751600	0.483400	0.799600
C1191	C119	0.824780	0.493570	0.829800
H871	H87	0.827200	0.479100	0.955200
C1201	C120	0.848160	0.587600	0.203200
H881	H88	0.838000	0.601500	0.078100
H891	H89	0.856900	0.613700	0.293500
H901	H90	0.876200	0.566500	0.182300
O431	O43	0.917340	0.489240	0.004800
O441	O44	0.953110	0.525040	0.745500
O451	O45	0.809040	0.559760	0.285000
C1211	C121	0.583740	0.991130	0.836200
C1221	C122	0.633550	0.987700	0.738900
C1231	C123	0.637560	0.965630	0.554500
H911	H91	0.609800	0.952800	0.491700
C1241	C124	0.683490	0.962740	0.463400
C1251	C125	0.725610	0.982910	0.551300
C1261	C126	0.720680	0.003850	0.735900
H921	H92	0.748400	0.016600	0.799600
C1271	C127	0.675220	0.006430	0.829800
H931	H93	0.672800	0.020900	0.955200
C1281	C128	0.651840	0.912400	0.203200
H941	H94	0.662000	0.898500	0.078100
H951	H95	0.643100	0.886300	0.293500
H961	H96	0.623800	0.933500	0.182300
O461	O46	0.582660	0.010760	0.004800
O471	O47	0.546890	0.974960	0.745500
O481	O48	0.690960	0.940240	0.285000
Cu11	Cu1	0.520970	0.020970	0.151590
Cu21	Cu2	0.979030	0.479030	0.151590
Cu31	Cu3	0.479030	0.520970	0.151590
Cu41	Cu4	0.020970	0.979030	0.151590
Cu51	Cu5	0.979030	0.020970	0.848410
Cu61	Cu6	0.520970	0.479030	0.848410
Cu71	Cu7	0.020970	0.520970	0.848410
Cu81	Cu8	0.479030	0.979030	0.848410
