data_RIWSUM_clean_PM
_symmetry_space_group_name_H-M	'P1'
_cell_length_a	14.002400
_cell_length_b	16.703900
_cell_length_c	26.822400
_cell_angle_alpha	91.165000
_cell_angle_beta	90.000000
_cell_angle_gamma	90.000000
_symmetry_Int_Tables_number 1

loop_
_symmetry_equiv_pos_as_xyz
'x,y,z'

loop_
_atom_site_label
_atom_site_type_symbol
_atom_site_fract_x
_atom_site_fract_y
_atom_site_fract_z
Cd11	Cd1	0.447630	0.559840	0.254910
Cd21	Cd2	0.690480	0.250280	0.498700
Cd31	Cd3	0.449210	0.942480	0.752940
Cd41	Cd4	0.198260	0.251180	0.997580
H11	H1	0.900400	0.279100	0.328700
H21	H2	0.137500	0.559000	0.319300
H31	H3	0.985400	0.522400	0.344800
H41	H4	0.022600	0.301900	0.283500
H51	H5	0.181300	0.335500	0.264500
H61	H6	0.717100	0.340300	0.332900
H71	H7	0.738700	0.225800	0.281700
H81	H8	0.668700	0.202900	0.326300
H91	H9	0.778400	0.176200	0.327700
H101	H10	0.995600	0.211100	0.827100
H111	H11	0.718100	0.150500	0.765700
H121	H12	0.874600	0.186600	0.785400
H131	H13	0.930700	0.959500	0.825700
H141	H14	0.775500	0.921700	0.803300
H151	H15	0.183000	0.159300	0.829900
H161	H16	0.143300	0.276600	0.785100
H171	H17	0.223600	0.294500	0.826300
H181	H18	0.115300	0.320700	0.836500
H191	H19	0.984100	0.283100	0.167100
H201	H20	0.766700	0.576500	0.193300
H211	H21	0.917500	0.535600	0.166600
H221	H22	0.856600	0.308200	0.205200
H231	H23	0.703900	0.348100	0.229400
H241	H24	0.169600	0.338800	0.166300
H251	H25	0.131900	0.218400	0.208300
H261	H26	0.215100	0.204700	0.168100
H271	H27	0.108600	0.176000	0.155600
H281	H28	0.448600	0.748900	0.423000
H291	H29	0.750500	0.985300	0.443100
H301	H30	0.731500	0.850600	0.420700
H311	H31	0.450000	0.866000	0.452800
H321	H32	0.467300	0.001200	0.472800
H331	H33	0.552600	0.608600	0.418800
H341	H34	0.410500	0.614600	0.468700
H351	H35	0.409200	0.541500	0.429200
H361	H36	0.348900	0.620700	0.418700
H371	H37	0.446800	0.749400	0.579400
H381	H38	0.750600	0.517300	0.547900
H391	H39	0.731100	0.649300	0.575300
H401	H40	0.445100	0.626600	0.562800
H411	H41	0.464100	0.492500	0.538400
H421	H42	0.551700	0.886800	0.589300
H431	H43	0.408000	0.883000	0.540000
H441	H44	0.409000	0.956000	0.579600
H451	H45	0.347300	0.877600	0.590300
H461	H46	0.439400	0.758600	0.085700
H471	H47	0.425800	0.014800	0.045700
H481	H48	0.444400	0.882700	0.072400
H491	H49	0.156400	0.860600	0.079400
H501	H50	0.138800	0.989300	0.049500
H511	H51	0.330300	0.624300	0.097500
H521	H52	0.467300	0.625500	0.041900
H531	H53	0.464000	0.550400	0.078000
H541	H54	0.534000	0.623900	0.090300
H551	H55	0.437400	0.745200	0.911300
H561	H56	0.418800	0.495000	0.969400
H571	H57	0.439700	0.630700	0.950500
H581	H58	0.156800	0.648400	0.920700
H591	H59	0.136900	0.513600	0.937900
H601	H60	0.331900	0.885500	0.912300
H611	H61	0.462200	0.889000	0.969400
H621	H62	0.471000	0.957900	0.929000
H631	H63	0.534900	0.878700	0.923700
C11	C1	0.273600	0.476200	0.275410
C21	C2	0.174000	0.451600	0.289360
C31	C3	0.115200	0.506100	0.312800
C41	C4	0.024000	0.484800	0.327000
C51	C5	0.988200	0.409300	0.315600
C61	C6	0.046400	0.353800	0.291660
C71	C7	0.140300	0.374300	0.279530
C81	C8	0.886800	0.393000	0.330960
C91	C9	0.759800	0.297000	0.345200
C101	C10	0.734000	0.218300	0.317740
C111	C11	0.740600	0.286100	0.400810
C121	C12	0.629100	0.008900	0.772600
C131	C13	0.730600	0.032400	0.783290
C141	C14	0.761100	0.111400	0.777760
C151	C15	0.854100	0.133000	0.789820
C161	C16	0.917300	0.077000	0.808250
C171	C17	0.887600	0.998200	0.813360
C181	C18	0.794900	0.975900	0.800400
C191	C19	0.016400	0.097100	0.825590
C201	C20	0.136900	0.199500	0.843980
C211	C21	0.156500	0.279900	0.820930
C221	C22	0.154800	0.209500	0.900010
C231	C23	0.622700	0.494600	0.230740
C241	C24	0.720300	0.466600	0.214490
C251	C25	0.784500	0.521800	0.195400
C261	C26	0.874000	0.497500	0.179500
C271	C27	0.900600	0.417800	0.182180
C281	C28	0.837700	0.362500	0.202010
C291	C29	0.747600	0.386500	0.217120
C301	C30	0.000500	0.397300	0.164600
C311	C31	0.125800	0.298000	0.150790
C321	C32	0.147300	0.217100	0.172630
C331	C33	0.146500	0.291700	0.095090
C341	C34	0.625500	0.094000	0.473470
C351	C35	0.611400	0.006800	0.460410
C361	C36	0.689200	0.961200	0.444920
C371	C37	0.678100	0.881000	0.432050
C381	C38	0.588800	0.844700	0.435710
C391	C39	0.511200	0.890300	0.450760
C401	C40	0.521400	0.970500	0.462850
C411	C41	0.584700	0.757700	0.421380
C421	C42	0.493500	0.635500	0.406580
C431	C43	0.407900	0.599900	0.433170
C441	C44	0.483700	0.617600	0.350510
C451	C45	0.624000	0.405300	0.525560
C461	C46	0.609200	0.491900	0.540610
C471	C47	0.688200	0.539000	0.551540
C481	C48	0.676500	0.617500	0.567660
C491	C49	0.585700	0.650500	0.572770
C501	C50	0.507300	0.604100	0.560680
C511	C51	0.518600	0.524500	0.545470
C521	C52	0.580800	0.735100	0.592630
C531	C53	0.492500	0.860300	0.601780
C541	C54	0.406400	0.897600	0.575540
C551	C55	0.483600	0.879400	0.657740
C561	C56	0.265600	0.098500	0.027130
C571	C57	0.280500	0.014700	0.044560
C581	C58	0.371000	0.983000	0.051990
C591	C59	0.382200	0.904600	0.068710
C601	C60	0.302500	0.859100	0.079800
C611	C61	0.211500	0.891600	0.072290
C621	C62	0.201000	0.968200	0.054690
C631	C63	0.306200	0.776200	0.099760
C641	C64	0.392400	0.649600	0.107310
C651	C65	0.471600	0.608700	0.076620
C661	C66	0.410000	0.632200	0.162260
C671	C67	0.257900	0.406300	0.971130
C681	C68	0.274800	0.492000	0.957000
C691	C69	0.365500	0.526400	0.959920
C701	C70	0.377900	0.607300	0.948960
C711	C71	0.299900	0.653200	0.935790
C721	C72	0.209900	0.617500	0.931090
C731	C73	0.198100	0.537600	0.941460
C741	C74	0.304500	0.741500	0.926750
C751	C75	0.393800	0.859600	0.902780
C761	C76	0.472600	0.899900	0.934040
C771	C77	0.410400	0.874600	0.847240
N11	N1	0.858500	0.317720	0.333820
N21	N2	0.039900	0.174380	0.831230
N31	N3	0.026800	0.320700	0.162020
N41	N4	0.501200	0.720960	0.418090
N51	N5	0.498600	0.775080	0.589330
N61	N6	0.387300	0.734200	0.095720
N71	N7	0.385900	0.775210	0.913600
O11	O1	0.288220	0.549730	0.269200
O21	O2	0.338080	0.424470	0.270980
O31	O3	0.832700	0.450740	0.340970
O41	O4	0.653620	0.280780	0.414460
O51	O5	0.807030	0.279190	0.431530
O61	O6	0.565160	0.062060	0.770200
O71	O7	0.610850	0.935670	0.766820
O81	O8	0.073830	0.043160	0.835590
O91	O9	0.241310	0.217000	0.914070
O101	O10	0.086510	0.216190	0.929990
O111	O11	0.555430	0.444580	0.234200
O121	O12	0.611650	0.567340	0.240000
O131	O13	0.055740	0.451700	0.152570
O141	O14	0.233810	0.290040	0.082110
O151	O15	0.080590	0.281750	0.064180
O161	O16	0.708900	0.116390	0.484620
O171	O17	0.555700	0.140900	0.473550
O181	O18	0.658500	0.720600	0.411700
O191	O19	0.470630	0.670450	0.319690
O201	O20	0.484800	0.543850	0.337920
O211	O21	0.706500	0.384270	0.512340
O221	O22	0.555200	0.357300	0.526820
O231	O23	0.653530	0.767340	0.611040
O241	O24	0.464100	0.826860	0.688190
O251	O25	0.491640	0.952780	0.670340
O261	O26	0.183270	0.118740	0.014030
O271	O27	0.335450	0.146440	0.026320
O281	O28	0.233200	0.746140	0.118940
O291	O29	0.405700	0.558470	0.173500
O301	O30	0.429600	0.685290	0.193540
O311	O31	0.326620	0.358130	0.972350
O321	O32	0.174040	0.386100	0.982100
O331	O33	0.229900	0.782660	0.932680
O341	O34	0.417400	0.947470	0.835240
O351	O35	0.418820	0.819290	0.815950
Cd51	Cd5	0.947630	0.440160	0.745090
Cd61	Cd6	0.190480	0.749720	0.501300
Cd71	Cd7	0.949210	0.057520	0.247060
Cd81	Cd8	0.698260	0.748820	0.002420
H641	H64	0.400400	0.720900	0.671300
H651	H65	0.637500	0.441000	0.680700
H661	H66	0.485400	0.477600	0.655200
H671	H67	0.522600	0.698100	0.716500
H681	H68	0.681300	0.664500	0.735500
H691	H69	0.217100	0.659700	0.667100
H701	H70	0.238700	0.774200	0.718300
H711	H71	0.168700	0.797100	0.673700
H721	H72	0.278400	0.823800	0.672300
H731	H73	0.495600	0.788900	0.172900
H741	H74	0.218100	0.849500	0.234300
H751	H75	0.374600	0.813400	0.214600
H761	H76	0.430700	0.040500	0.174300
H771	H77	0.275500	0.078300	0.196700
H781	H78	0.683000	0.840700	0.170100
H791	H79	0.643300	0.723400	0.214900
H801	H80	0.723600	0.705500	0.173700
H811	H81	0.615300	0.679300	0.163500
H821	H82	0.484100	0.716900	0.832900
H831	H83	0.266700	0.423500	0.806700
H841	H84	0.417500	0.464400	0.833400
H851	H85	0.356600	0.691800	0.794800
H861	H86	0.203900	0.651900	0.770600
H871	H87	0.669600	0.661200	0.833700
H881	H88	0.631900	0.781600	0.791700
H891	H89	0.715100	0.795300	0.831900
H901	H90	0.608600	0.824000	0.844400
H911	H91	0.948600	0.251100	0.577000
H921	H92	0.250500	0.014700	0.556900
H931	H93	0.231500	0.149400	0.579300
H941	H94	0.950000	0.134000	0.547200
H951	H95	0.967300	0.998800	0.527200
H961	H96	0.052600	0.391400	0.581200
H971	H97	0.910500	0.385400	0.531300
H981	H98	0.909200	0.458500	0.570800
H991	H99	0.848900	0.379300	0.581300
H1001	H100	0.946800	0.250600	0.420600
H1011	H101	0.250600	0.482700	0.452100
H1021	H102	0.231100	0.350700	0.424700
H1031	H103	0.945100	0.373400	0.437200
H1041	H104	0.964100	0.507500	0.461600
H1051	H105	0.051700	0.113200	0.410700
H1061	H106	0.908000	0.117000	0.460000
H1071	H107	0.909000	0.044000	0.420400
H1081	H108	0.847300	0.122400	0.409700
H1091	H109	0.939400	0.241400	0.914300
H1101	H110	0.925800	0.985200	0.954300
H1111	H111	0.944400	0.117300	0.927600
H1121	H112	0.656400	0.139400	0.920600
H1131	H113	0.638800	0.010700	0.950500
H1141	H114	0.830300	0.375700	0.902500
H1151	H115	0.967300	0.374500	0.958100
H1161	H116	0.964000	0.449600	0.922000
H1171	H117	0.034000	0.376100	0.909700
H1181	H118	0.937400	0.254800	0.088700
H1191	H119	0.918800	0.505000	0.030600
H1201	H120	0.939700	0.369300	0.049500
H1211	H121	0.656800	0.351600	0.079300
H1221	H122	0.636900	0.486400	0.062100
H1231	H123	0.831900	0.114500	0.087700
H1241	H124	0.962200	0.111000	0.030600
H1251	H125	0.971000	0.042100	0.071000
H1261	H126	0.034900	0.121300	0.076300
C781	C78	0.773600	0.523800	0.724590
C791	C79	0.674000	0.548400	0.710640
C801	C80	0.615200	0.493900	0.687200
C811	C81	0.524000	0.515200	0.673000
C821	C82	0.488200	0.590700	0.684400
C831	C83	0.546400	0.646200	0.708340
C841	C84	0.640300	0.625700	0.720470
C851	C85	0.386800	0.607000	0.669040
C861	C86	0.259800	0.703000	0.654800
C871	C87	0.234000	0.781700	0.682260
C881	C88	0.240600	0.713900	0.599190
C891	C89	0.129100	0.991100	0.227400
C901	C90	0.230600	0.967600	0.216710
C911	C91	0.261100	0.888600	0.222240
C921	C92	0.354100	0.867000	0.210180
C931	C93	0.417300	0.923000	0.191750
C941	C94	0.387600	0.001800	0.186640
C951	C95	0.294900	0.024100	0.199600
C961	C96	0.516400	0.902900	0.174410
C971	C97	0.636900	0.800500	0.156020
C981	C98	0.656500	0.720100	0.179070
C991	C99	0.654800	0.790500	0.099990
C1001	C100	0.122700	0.505400	0.769260
C1011	C101	0.220300	0.533400	0.785510
C1021	C102	0.284500	0.478200	0.804600
C1031	C103	0.374000	0.502500	0.820500
C1041	C104	0.400600	0.582200	0.817820
C1051	C105	0.337700	0.637500	0.797990
C1061	C106	0.247600	0.613500	0.782880
C1071	C107	0.500500	0.602700	0.835400
C1081	C108	0.625800	0.702000	0.849210
C1091	C109	0.647300	0.782900	0.827370
C1101	C110	0.646500	0.708300	0.904910
C1111	C111	0.125500	0.906000	0.526530
C1121	C112	0.111400	0.993200	0.539590
C1131	C113	0.189200	0.038800	0.555080
C1141	C114	0.178100	0.119000	0.567950
C1151	C115	0.088800	0.155300	0.564290
C1161	C116	0.011200	0.109700	0.549240
C1171	C117	0.021400	0.029500	0.537150
C1181	C118	0.084700	0.242300	0.578620
C1191	C119	0.993500	0.364500	0.593420
C1201	C120	0.907900	0.400100	0.566830
C1211	C121	0.983700	0.382400	0.649490
C1221	C122	0.124000	0.594700	0.474440
C1231	C123	0.109200	0.508100	0.459390
C1241	C124	0.188200	0.461000	0.448460
C1251	C125	0.176500	0.382500	0.432340
C1261	C126	0.085700	0.349500	0.427230
C1271	C127	0.007300	0.395900	0.439320
C1281	C128	0.018600	0.475500	0.454530
C1291	C129	0.080800	0.264900	0.407370
C1301	C130	0.992500	0.139700	0.398220
C1311	C131	0.906400	0.102400	0.424460
C1321	C132	0.983600	0.120600	0.342260
C1331	C133	0.765600	0.901500	0.972870
C1341	C134	0.780500	0.985300	0.955440
C1351	C135	0.871000	0.017000	0.948010
C1361	C136	0.882200	0.095400	0.931290
C1371	C137	0.802500	0.140900	0.920200
C1381	C138	0.711500	0.108400	0.927710
C1391	C139	0.701000	0.031800	0.945310
C1401	C140	0.806200	0.223800	0.900240
C1411	C141	0.892400	0.350400	0.892690
C1421	C142	0.971600	0.391300	0.923380
C1431	C143	0.910000	0.367800	0.837740
C1441	C144	0.757900	0.593700	0.028870
C1451	C145	0.774800	0.508000	0.043000
C1461	C146	0.865500	0.473600	0.040080
C1471	C147	0.877900	0.392700	0.051040
C1481	C148	0.799900	0.346800	0.064210
C1491	C149	0.709900	0.382500	0.068910
C1501	C150	0.698100	0.462400	0.058540
C1511	C151	0.804500	0.258500	0.073250
C1521	C152	0.893800	0.140400	0.097220
C1531	C153	0.972600	0.100100	0.065960
C1541	C154	0.910400	0.125400	0.152760
N81	N8	0.358500	0.682280	0.666180
N91	N9	0.539900	0.825620	0.168770
N101	N10	0.526800	0.679300	0.837980
N111	N11	0.001200	0.279040	0.581910
N121	N12	0.998600	0.224920	0.410670
N131	N13	0.887300	0.265800	0.904280
N141	N14	0.885900	0.224790	0.086400
O361	O36	0.788220	0.450270	0.730800
O371	O37	0.838080	0.575530	0.729020
O381	O38	0.332700	0.549260	0.659030
O391	O39	0.153620	0.719220	0.585540
O401	O40	0.307030	0.720810	0.568470
O411	O41	0.065160	0.937940	0.229800
O421	O42	0.110850	0.064330	0.233180
O431	O43	0.573830	0.956840	0.164410
O441	O44	0.741310	0.783000	0.085930
O451	O45	0.586510	0.783810	0.070010
O461	O46	0.055430	0.555420	0.765800
O471	O47	0.111650	0.432660	0.760000
O481	O48	0.555740	0.548300	0.847430
O491	O49	0.733810	0.709960	0.917890
O501	O50	0.580590	0.718250	0.935820
O511	O51	0.208900	0.883610	0.515380
O521	O52	0.055700	0.859100	0.526450
O531	O53	0.158500	0.279400	0.588300
O541	O54	0.970630	0.329550	0.680310
O551	O55	0.984800	0.456150	0.662080
O561	O56	0.206500	0.615730	0.487660
O571	O57	0.055200	0.642700	0.473180
O581	O58	0.153530	0.232660	0.388960
O591	O59	0.964100	0.173140	0.311810
O601	O60	0.991640	0.047220	0.329660
O611	O61	0.683270	0.881260	0.985970
O621	O62	0.835450	0.853560	0.973680
O631	O63	0.733200	0.253860	0.881060
O641	O64	0.905700	0.441530	0.826500
O651	O65	0.929600	0.314710	0.806460
O661	O66	0.826620	0.641870	0.027650
O671	O67	0.674040	0.613900	0.017900
O681	O68	0.729900	0.217340	0.067320
O691	O69	0.917400	0.052530	0.164760
O701	O70	0.918820	0.180710	0.184050
