data_RIXBEG_clean_PM
_symmetry_space_group_name_H-M	'P1'
_cell_length_a	8.671500
_cell_length_b	13.340300
_cell_length_c	27.441200
_cell_angle_alpha	93.874200
_cell_angle_beta	90.000000
_cell_angle_gamma	108.966000
_symmetry_Int_Tables_number 1

loop_
_symmetry_equiv_pos_as_xyz
'x,y,z'

loop_
_atom_site_label
_atom_site_type_symbol
_atom_site_fract_x
_atom_site_fract_y
_atom_site_fract_z
Mn11	Mn1	0.877500	0.541920	0.202520
Mn21	Mn2	0.335580	0.458080	0.297480
Mn31	Mn3	0.122500	0.458080	0.797480
Mn41	Mn4	0.664420	0.541920	0.702520
H11	H1	0.447200	0.489800	0.114000
H21	H2	0.307300	0.598800	0.138000
H31	H3	0.144800	0.505600	0.126000
H41	H4	0.919500	0.333400	0.080100
H51	H5	0.758800	0.345400	0.014600
H61	H6	0.871200	0.380800	0.939000
H71	H7	0.308100	0.391400	0.992800
H81	H8	0.920300	0.320800	0.229300
H91	H9	0.805000	0.140600	0.218100
H101	H10	0.500100	0.182800	0.119300
H111	H11	0.616300	0.362800	0.136200
H121	H12	0.738000	0.979000	0.190700
H131	H13	0.618800	0.801200	0.174100
H141	H14	0.258200	0.840800	0.101900
H151	H15	0.367700	0.022800	0.117400
H161	H16	0.025300	0.716800	0.288600
H171	H17	0.103800	0.894800	0.310100
H181	H18	0.032200	0.943600	0.173700
H191	H19	0.944800	0.763600	0.157500
H201	H20	0.957400	0.510200	0.386000
H211	H21	0.708500	0.401200	0.362000
H221	H22	0.639200	0.494400	0.374000
H231	H23	0.586100	0.666600	0.419900
H241	H24	0.413400	0.654600	0.485400
H251	H25	0.490400	0.619200	0.561000
H261	H26	0.916700	0.608600	0.507200
H271	H27	0.599500	0.679200	0.270700
H281	H28	0.664400	0.859400	0.281900
H291	H29	0.317300	0.817200	0.380700
H301	H30	0.253500	0.637200	0.363800
H311	H31	0.759000	0.021000	0.309300
H321	H32	0.817600	0.198800	0.325900
H331	H33	0.417400	0.159200	0.398100
H341	H34	0.344900	0.977200	0.382600
H351	H35	0.308500	0.283200	0.211400
H361	H36	0.209000	0.105200	0.189900
H371	H37	0.088600	0.056400	0.326300
H381	H38	0.181200	0.236400	0.342500
H391	H39	0.552800	0.510200	0.886000
H401	H40	0.692700	0.401200	0.862000
H411	H41	0.855200	0.494400	0.874000
H421	H42	0.080500	0.666600	0.919900
H431	H43	0.241200	0.654600	0.985400
H441	H44	0.128800	0.619200	0.061000
H451	H45	0.691900	0.608600	0.007200
H461	H46	0.079700	0.679200	0.770700
H471	H47	0.195000	0.859400	0.781900
H481	H48	0.499900	0.817200	0.880700
H491	H49	0.383700	0.637200	0.863800
H501	H50	0.262000	0.021000	0.809300
H511	H51	0.381200	0.198800	0.825900
H521	H52	0.741800	0.159200	0.898100
H531	H53	0.632300	0.977200	0.882600
H541	H54	0.974700	0.283200	0.711400
H551	H55	0.896200	0.105200	0.689900
H561	H56	0.967800	0.056400	0.826300
H571	H57	0.055200	0.236400	0.842500
H581	H58	0.042600	0.489800	0.614000
H591	H59	0.291500	0.598800	0.638000
H601	H60	0.360800	0.505600	0.626000
H611	H61	0.413900	0.333400	0.580100
H621	H62	0.586600	0.345400	0.514600
H631	H63	0.509600	0.380800	0.439000
H641	H64	0.083300	0.391400	0.492800
H651	H65	0.400500	0.320800	0.729300
H661	H66	0.335600	0.140600	0.718100
H671	H67	0.682700	0.182800	0.619300
H681	H68	0.746500	0.362800	0.636200
H691	H69	0.241000	0.979000	0.690700
H701	H70	0.182400	0.801200	0.674100
H711	H71	0.582600	0.840800	0.601900
H721	H72	0.655100	0.022800	0.617400
H731	H73	0.691500	0.716800	0.788600
H741	H74	0.791000	0.894800	0.810100
H751	H75	0.911400	0.943600	0.673700
H761	H76	0.818800	0.763600	0.657500
C11	C1	0.228540	0.507280	0.196140
C21	C2	0.251540	0.523880	0.141650
C31	C3	0.127160	0.359120	0.042240
C41	C4	0.964290	0.346780	0.049440
C51	C5	0.868860	0.354520	0.010320
C61	C6	0.936290	0.375780	0.965000
C71	C7	0.101170	0.389740	0.957910
C81	C8	0.197880	0.381760	0.996900
C91	C9	0.176390	0.414380	0.908950
C101	C10	0.830500	0.293000	0.208100
C111	C11	0.763600	0.184000	0.200600
C121	C12	0.636500	0.138800	0.167700
C131	C13	0.583200	0.208600	0.142900
C141	C14	0.654460	0.317520	0.153400
C151	C15	0.566400	0.021800	0.157700
C161	C16	0.639900	0.953400	0.173000
C171	C17	0.567900	0.845800	0.161900
C181	C18	0.355800	0.869400	0.119700
C191	C19	0.420000	0.978400	0.129300
C201	C20	0.026800	0.762800	0.264400
C211	C21	0.077400	0.871000	0.277600
C221	C22	0.088520	0.942040	0.243780
C231	C23	0.034500	0.899800	0.198400
C241	C24	0.982400	0.790400	0.189100
C251	C25	0.721260	0.492720	0.303860
C261	C26	0.727660	0.476120	0.358350
C271	C27	0.768040	0.640880	0.457760
C281	C28	0.617510	0.653220	0.450560
C291	C29	0.514340	0.645480	0.489680
C301	C30	0.560510	0.624220	0.535000
C311	C31	0.711430	0.610260	0.542090
C321	C32	0.816120	0.618240	0.503100
C331	C33	0.762010	0.585620	0.591050
C341	C34	0.537500	0.707000	0.291900
C351	C35	0.579600	0.816000	0.299400
C361	C36	0.497700	0.861200	0.332300
C371	C37	0.374600	0.791400	0.357100
C381	C38	0.336940	0.682480	0.346600
C391	C39	0.544600	0.978200	0.342300
C401	C40	0.686500	0.046600	0.327000
C411	C41	0.722100	0.154200	0.338100
C421	C42	0.486400	0.130600	0.380300
C431	C43	0.441600	0.021600	0.370700
C441	C44	0.264000	0.237200	0.235600
C451	C45	0.206400	0.129000	0.222400
C461	C46	0.146480	0.057960	0.256220
C471	C47	0.134700	0.100200	0.301600
C481	C48	0.192000	0.209600	0.310900
C491	C49	0.771460	0.492720	0.803860
C501	C50	0.748460	0.476120	0.858350
C511	C51	0.872840	0.640880	0.957760
C521	C52	0.035710	0.653220	0.950560
C531	C53	0.131140	0.645480	0.989680
C541	C54	0.063710	0.624220	0.035000
C551	C55	0.898830	0.610260	0.042090
C561	C56	0.802120	0.618240	0.003100
C571	C57	0.823610	0.585620	0.091050
C581	C58	0.169500	0.707000	0.791900
C591	C59	0.236400	0.816000	0.799400
C601	C60	0.363500	0.861200	0.832300
C611	C61	0.416800	0.791400	0.857100
C621	C62	0.345540	0.682480	0.846600
C631	C63	0.433600	0.978200	0.842300
C641	C64	0.360100	0.046600	0.827000
C651	C65	0.432100	0.154200	0.838100
C661	C66	0.644200	0.130600	0.880300
C671	C67	0.580000	0.021600	0.870700
C681	C68	0.973200	0.237200	0.735600
C691	C69	0.922600	0.129000	0.722400
C701	C70	0.911480	0.057960	0.756220
C711	C71	0.965500	0.100200	0.801600
C721	C72	0.017600	0.209600	0.810900
C731	C73	0.278740	0.507280	0.696140
C741	C74	0.272340	0.523880	0.641650
C751	C75	0.231960	0.359120	0.542240
C761	C76	0.382490	0.346780	0.549440
C771	C77	0.485660	0.354520	0.510320
C781	C78	0.439490	0.375780	0.465000
C791	C79	0.288570	0.389740	0.457910
C801	C80	0.183880	0.381760	0.496900
C811	C81	0.237990	0.414380	0.408950
C821	C82	0.462500	0.293000	0.708100
C831	C83	0.420400	0.184000	0.700600
C841	C84	0.502300	0.138800	0.667700
C851	C85	0.625400	0.208600	0.642900
C861	C86	0.663060	0.317520	0.653400
C871	C87	0.455400	0.021800	0.657700
C881	C88	0.313500	0.953400	0.673000
C891	C89	0.277900	0.845800	0.661900
C901	C90	0.513600	0.869400	0.619700
C911	C91	0.558400	0.978400	0.629300
C921	C92	0.736000	0.762800	0.764400
C931	C93	0.793600	0.871000	0.777600
C941	C94	0.853520	0.942040	0.743780
C951	C95	0.865300	0.899800	0.698400
C961	C96	0.808000	0.790400	0.689100
S11	S1	0.251430	0.345820	0.091170
S21	S2	0.905610	0.654180	0.408830
S31	S3	0.748570	0.654180	0.908830
S41	S4	0.094390	0.345820	0.591170
N11	N1	0.343070	0.462740	0.115910
N21	N2	0.773180	0.360560	0.186390
N31	N3	0.435000	0.801400	0.136200
N41	N4	0.981910	0.722220	0.220840
N51	N5	0.880330	0.537260	0.384090
N61	N6	0.412620	0.639440	0.313610
N71	N7	0.633600	0.198600	0.363800
N81	N8	0.259690	0.277780	0.279160
N91	N9	0.656930	0.537260	0.884090
N101	N10	0.226820	0.639440	0.813610
N111	N11	0.565000	0.198600	0.863800
N121	N12	0.018090	0.277780	0.779160
N131	N13	0.119670	0.462740	0.615910
N141	N14	0.587380	0.360560	0.686390
N151	N15	0.366400	0.801400	0.636200
N161	N16	0.740310	0.722220	0.720840
O11	O1	0.112990	0.529580	0.215270
O21	O2	0.330810	0.478220	0.218960
O31	O3	0.141450	0.287500	0.126470
O41	O4	0.375160	0.306920	0.070620
O51	O5	0.320550	0.414700	0.904110
O61	O6	0.090850	0.432500	0.875950
O71	O7	0.583410	0.470420	0.284730
O81	O8	0.852590	0.521780	0.281040
O91	O9	0.853950	0.712500	0.373530
O101	O10	0.068240	0.693080	0.429380
O111	O11	0.905850	0.585300	0.595890
O121	O12	0.658350	0.567500	0.624050
O131	O13	0.887010	0.470420	0.784730
O141	O14	0.669190	0.521780	0.781040
O151	O15	0.858550	0.712500	0.873530
O161	O16	0.624840	0.693080	0.929380
O171	O17	0.679450	0.585300	0.095890
O181	O18	0.909150	0.567500	0.124050
O191	O19	0.416590	0.529580	0.715270
O201	O20	0.147410	0.478220	0.718960
O211	O21	0.146050	0.287500	0.626470
O221	O22	0.931760	0.306920	0.570620
O231	O23	0.094150	0.414700	0.404110
O241	O24	0.341650	0.432500	0.375950
