data_RIYBAE_clean_PM
_symmetry_space_group_name_H-M	'P1'
_cell_length_a	27.774000
_cell_length_b	13.893300
_cell_length_c	44.585000
_cell_angle_alpha	90.000000
_cell_angle_beta	90.000000
_cell_angle_gamma	90.000000
_symmetry_Int_Tables_number 1

loop_
_symmetry_equiv_pos_as_xyz
'x,y,z'

loop_
_atom_site_label
_atom_site_type_symbol
_atom_site_fract_x
_atom_site_fract_y
_atom_site_fract_z
Zn11	Zn1	0.258440	0.323260	0.180050
Zn21	Zn2	0.525010	0.620370	0.414740
Zn31	Zn3	0.048540	0.646960	0.413400
I11	I1	0.168460	0.323090	0.167700
I21	I2	0.300230	0.160570	0.185760
I31	I3	0.575580	0.707970	0.375880
I41	I4	0.505520	0.695800	0.465820
I51	I5	0.983110	0.563060	0.383140
I61	I6	0.057050	0.828520	0.420670
C11	C1	0.231800	0.437700	0.232990
H11	H1	0.201400	0.438600	0.223200
C21	C2	0.235600	0.475200	0.261430
H21	H2	0.207900	0.499800	0.271300
C31	C3	0.280200	0.476800	0.275610
C41	C4	0.319600	0.443300	0.260000
H31	H3	0.350900	0.446500	0.268500
C51	C5	0.312600	0.404700	0.231700
H41	H4	0.339600	0.380400	0.221100
C61	C6	0.459500	0.564900	0.364440
H51	H5	0.489100	0.559300	0.353900
C71	C7	0.417600	0.549200	0.349300
H61	H6	0.418600	0.531200	0.328800
C81	C8	0.373200	0.559400	0.363760
C91	C9	0.375200	0.581700	0.394000
H71	H7	0.346200	0.587300	0.405200
C101	C10	0.418800	0.596000	0.408240
H81	H8	0.418900	0.612000	0.429000
C111	C11	0.155300	0.615000	0.409080
H91	H9	0.155000	0.637500	0.429200
C121	C12	0.198700	0.596400	0.395920
H101	H10	0.227700	0.603000	0.407100
C131	C13	0.200200	0.567800	0.366290
C141	C14	0.156300	0.555100	0.351350
H111	H11	0.155500	0.534400	0.331000
C151	C15	0.114500	0.573000	0.366600
H121	H12	0.084800	0.563500	0.356400
C161	C16	0.284300	0.509600	0.307440
C171	C17	0.327600	0.547100	0.348450
C181	C18	0.245700	0.551300	0.350170
C191	C19	0.044100	0.490000	0.458700
H131	H13	0.029500	0.455700	0.442700
C201	C20	0.055800	0.441900	0.485100
H141	H14	0.049300	0.375100	0.487000
C211	C21	0.076600	0.490300	0.508060
C221	C22	0.083900	0.589200	0.505400
H151	H15	0.097000	0.625500	0.521500
C231	C23	0.071700	0.632100	0.479000
H161	H16	0.076600	0.699600	0.477200
C241	C24	0.188900	0.638900	0.624000
H171	H17	0.192700	0.706600	0.622200
C251	C25	0.166700	0.590900	0.600900
H181	H18	0.157200	0.623900	0.583200
C261	C26	0.158500	0.493300	0.604040
C271	C27	0.172900	0.449700	0.629500
H191	H19	0.167200	0.383000	0.632600
C281	C28	0.196400	0.504300	0.651190
H201	H20	0.206500	0.472700	0.669000
C291	C29	0.073600	0.064900	0.599800
H211	H21	0.076100	0.036400	0.619100
C301	C30	0.089200	0.158700	0.595800
H221	H22	0.102500	0.193900	0.612100
C311	C31	0.085100	0.200300	0.567900
C321	C32	0.065300	0.147600	0.544400
H231	H23	0.061800	0.175300	0.525000
C331	C33	0.051200	0.055200	0.549800
H241	H24	0.038000	0.018800	0.533800
C341	C34	0.092800	0.439900	0.535600
C351	C35	0.132400	0.439000	0.579560
C361	C36	0.098800	0.303300	0.563100
N11	N1	0.269300	0.400500	0.218800
N21	N2	0.460700	0.588000	0.393940
N31	N3	0.113300	0.603200	0.395070
N41	N4	0.327600	0.520900	0.319400
N51	N5	0.287500	0.564200	0.364460
N61	N6	0.242400	0.523500	0.321230
N71	N7	0.053300	0.585000	0.455510
N81	N8	0.205600	0.597100	0.648620
N91	N9	0.055000	0.013100	0.577100
N101	N10	0.118200	0.490800	0.556160
N111	N11	0.124400	0.346400	0.584410
N121	N12	0.081600	0.346700	0.538020
Zn41	Zn4	0.241560	0.676740	0.680050
Zn51	Zn5	0.974990	0.379630	0.914740
Zn61	Zn6	0.451460	0.353040	0.913400
I71	I7	0.331540	0.676910	0.667700
I81	I8	0.199770	0.839430	0.685760
I91	I9	0.924420	0.292030	0.875880
I101	I10	0.994480	0.304200	0.965820
I111	I11	0.516890	0.436940	0.883140
I121	I12	0.442950	0.171480	0.920670
C371	C37	0.268200	0.562300	0.732990
H251	H25	0.298600	0.561400	0.723200
C381	C38	0.264400	0.524800	0.761430
H261	H26	0.292100	0.500200	0.771300
C391	C39	0.219800	0.523200	0.775610
C401	C40	0.180400	0.556700	0.760000
H271	H27	0.149100	0.553500	0.768500
C411	C41	0.187400	0.595300	0.731700
H281	H28	0.160400	0.619600	0.721100
C421	C42	0.040500	0.435100	0.864440
H291	H29	0.010900	0.440700	0.853900
C431	C43	0.082400	0.450800	0.849300
H301	H30	0.081400	0.468800	0.828800
C441	C44	0.126800	0.440600	0.863760
C451	C45	0.124800	0.418300	0.894000
H311	H31	0.153800	0.412700	0.905200
C461	C46	0.081200	0.404000	0.908240
H321	H32	0.081100	0.388000	0.929000
C471	C47	0.344700	0.385000	0.909080
H331	H33	0.345000	0.362500	0.929200
C481	C48	0.301300	0.403600	0.895920
H341	H34	0.272300	0.397000	0.907100
C491	C49	0.299800	0.432200	0.866290
C501	C50	0.343700	0.444900	0.851350
H351	H35	0.344500	0.465600	0.831000
C511	C51	0.385500	0.427000	0.866600
H361	H36	0.415200	0.436500	0.856400
C521	C52	0.215700	0.490400	0.807440
C531	C53	0.172400	0.452900	0.848450
C541	C54	0.254300	0.448700	0.850170
C551	C55	0.455900	0.510000	0.958700
H371	H37	0.470500	0.544300	0.942700
C561	C56	0.444200	0.558100	0.985100
H381	H38	0.450700	0.624900	0.987000
C571	C57	0.423400	0.509700	0.008060
C581	C58	0.416100	0.410800	0.005400
H391	H39	0.403000	0.374500	0.021500
C591	C59	0.428300	0.367900	0.979000
H401	H40	0.423400	0.300400	0.977200
C601	C60	0.311100	0.361100	0.124000
H411	H41	0.307300	0.293400	0.122200
C611	C61	0.333300	0.409100	0.100900
H421	H42	0.342800	0.376100	0.083200
C621	C62	0.341500	0.506700	0.104040
C631	C63	0.327100	0.550300	0.129500
H431	H43	0.332800	0.617000	0.132600
C641	C64	0.303600	0.495700	0.151190
H441	H44	0.293500	0.527300	0.169000
C651	C65	0.426400	0.935100	0.099800
H451	H45	0.423900	0.963600	0.119100
C661	C66	0.410800	0.841300	0.095800
H461	H46	0.397500	0.806100	0.112100
C671	C67	0.414900	0.799700	0.067900
C681	C68	0.434700	0.852400	0.044400
H471	H47	0.438200	0.824700	0.025000
C691	C69	0.448800	0.944800	0.049800
H481	H48	0.462000	0.981200	0.033800
C701	C70	0.407200	0.560100	0.035600
C711	C71	0.367600	0.561000	0.079560
C721	C72	0.401200	0.696700	0.063100
N131	N13	0.230700	0.599500	0.718800
N141	N14	0.039300	0.412000	0.893940
N151	N15	0.386700	0.396800	0.895070
N161	N16	0.172400	0.479100	0.819400
N171	N17	0.212500	0.435800	0.864460
N181	N18	0.257600	0.476500	0.821230
N191	N19	0.446700	0.415000	0.955510
N201	N20	0.294400	0.402900	0.148620
N211	N21	0.445000	0.986900	0.077100
N221	N22	0.381800	0.509200	0.056160
N231	N23	0.375600	0.653600	0.084410
N241	N24	0.418400	0.653300	0.038020
Zn71	Zn7	0.741560	0.823260	0.319950
Zn81	Zn8	0.474990	0.120370	0.085260
Zn91	Zn9	0.951460	0.146960	0.086600
I131	I13	0.831540	0.823090	0.332300
I141	I14	0.699770	0.660570	0.314240
I151	I15	0.424420	0.207970	0.124120
I161	I16	0.494480	0.195800	0.034180
I171	I17	0.016890	0.063060	0.116860
I181	I18	0.942950	0.328520	0.079330
C731	C73	0.768200	0.937700	0.267010
H491	H49	0.798600	0.938600	0.276800
C741	C74	0.764400	0.975200	0.238570
H501	H50	0.792100	0.999800	0.228700
C751	C75	0.719800	0.976800	0.224390
C761	C76	0.680400	0.943300	0.240000
H511	H51	0.649100	0.946500	0.231500
C771	C77	0.687400	0.904700	0.268300
H521	H52	0.660400	0.880400	0.278900
C781	C78	0.540500	0.064900	0.135560
H531	H53	0.510900	0.059300	0.146100
C791	C79	0.582400	0.049200	0.150700
H541	H54	0.581400	0.031200	0.171200
C801	C80	0.626800	0.059400	0.136240
C811	C81	0.624800	0.081700	0.106000
H551	H55	0.653800	0.087300	0.094800
C821	C82	0.581200	0.096000	0.091760
H561	H56	0.581100	0.112000	0.071000
C831	C83	0.844700	0.115000	0.090920
H571	H57	0.845000	0.137500	0.070800
C841	C84	0.801300	0.096400	0.104080
H581	H58	0.772300	0.103000	0.092900
C851	C85	0.799800	0.067800	0.133710
C861	C86	0.843700	0.055100	0.148650
H591	H59	0.844500	0.034400	0.169000
C871	C87	0.885500	0.073000	0.133400
H601	H60	0.915200	0.063500	0.143600
C881	C88	0.715700	0.009600	0.192560
C891	C89	0.672400	0.047100	0.151550
C901	C90	0.754300	0.051300	0.149830
C911	C91	0.955900	0.990000	0.041300
H611	H61	0.970500	0.955700	0.057300
C921	C92	0.944200	0.941900	0.014900
H621	H62	0.950700	0.875100	0.013000
C931	C93	0.923400	0.990300	0.991940
C941	C94	0.916100	0.089200	0.994600
H631	H63	0.903000	0.125500	0.978500
C951	C95	0.928300	0.132100	0.021000
H641	H64	0.923400	0.199600	0.022800
C961	C96	0.811100	0.138900	0.876000
H651	H65	0.807300	0.206600	0.877800
C971	C97	0.833300	0.090900	0.899100
H661	H66	0.842800	0.123900	0.916800
C981	C98	0.841500	0.993300	0.895960
C991	C99	0.827100	0.949700	0.870500
H671	H67	0.832800	0.883000	0.867400
C1001	C100	0.803600	0.004300	0.848810
H681	H68	0.793500	0.972700	0.831000
C1011	C101	0.926400	0.564900	0.900200
H691	H69	0.923900	0.536400	0.880900
C1021	C102	0.910800	0.658700	0.904200
H701	H70	0.897500	0.693900	0.887900
C1031	C103	0.914900	0.700300	0.932100
C1041	C104	0.934700	0.647600	0.955600
H711	H71	0.938200	0.675300	0.975000
C1051	C105	0.948800	0.555200	0.950200
H721	H72	0.962000	0.518800	0.966200
C1061	C106	0.907200	0.939900	0.964400
C1071	C107	0.867600	0.939000	0.920440
C1081	C108	0.901200	0.803300	0.936900
N251	N25	0.730700	0.900500	0.281200
N261	N26	0.539300	0.088000	0.106060
N271	N27	0.886700	0.103200	0.104930
N281	N28	0.672400	0.020900	0.180600
N291	N29	0.712500	0.064200	0.135540
N301	N30	0.757600	0.023500	0.178770
N311	N31	0.946700	0.085000	0.044490
N321	N32	0.794400	0.097100	0.851380
N331	N33	0.945000	0.513100	0.922900
N341	N34	0.881800	0.990800	0.943840
N351	N35	0.875600	0.846400	0.915590
N361	N36	0.918400	0.846700	0.961980
Zn101	Zn10	0.758440	0.176740	0.819950
Zn111	Zn11	0.025010	0.879630	0.585260
Zn121	Zn12	0.548540	0.853040	0.586600
I191	I19	0.668460	0.176910	0.832300
I201	I20	0.800230	0.339430	0.814240
I211	I21	0.075580	0.792030	0.624120
I221	I22	0.005520	0.804200	0.534180
I231	I23	0.483110	0.936940	0.616860
I241	I24	0.557050	0.671480	0.579330
C1091	C109	0.731800	0.062300	0.767010
H731	H73	0.701400	0.061400	0.776800
C1101	C110	0.735600	0.024800	0.738570
H741	H74	0.707900	0.000200	0.728700
C1111	C111	0.780200	0.023200	0.724390
C1121	C112	0.819600	0.056700	0.740000
H751	H75	0.850900	0.053500	0.731500
C1131	C113	0.812600	0.095300	0.768300
H761	H76	0.839600	0.119600	0.778900
C1141	C114	0.959500	0.935100	0.635560
H771	H77	0.989100	0.940700	0.646100
C1151	C115	0.917600	0.950800	0.650700
H781	H78	0.918600	0.968800	0.671200
C1161	C116	0.873200	0.940600	0.636240
C1171	C117	0.875200	0.918300	0.606000
H791	H79	0.846200	0.912700	0.594800
C1181	C118	0.918800	0.904000	0.591760
H801	H80	0.918900	0.888000	0.571000
C1191	C119	0.655300	0.885000	0.590920
H811	H81	0.655000	0.862500	0.570800
C1201	C120	0.698700	0.903600	0.604080
H821	H82	0.727700	0.897000	0.592900
C1211	C121	0.700200	0.932200	0.633710
C1221	C122	0.656300	0.944900	0.648650
H831	H83	0.655500	0.965600	0.669000
C1231	C123	0.614500	0.927000	0.633400
H841	H84	0.584800	0.936500	0.643600
C1241	C124	0.784300	0.990400	0.692560
C1251	C125	0.827600	0.952900	0.651550
C1261	C126	0.745700	0.948700	0.649830
C1271	C127	0.544100	0.010000	0.541300
H851	H85	0.529500	0.044300	0.557300
C1281	C128	0.555800	0.058100	0.514900
H861	H86	0.549300	0.124900	0.513000
C1291	C129	0.576600	0.009700	0.491940
C1301	C130	0.583900	0.910800	0.494600
H871	H87	0.597000	0.874500	0.478500
C1311	C131	0.571700	0.867900	0.521000
H881	H88	0.576600	0.800400	0.522800
C1321	C132	0.688900	0.861100	0.376000
H891	H89	0.692700	0.793400	0.377800
C1331	C133	0.666700	0.909100	0.399100
H901	H90	0.657200	0.876100	0.416800
C1341	C134	0.658500	0.006700	0.395960
C1351	C135	0.672900	0.050300	0.370500
H911	H91	0.667200	0.117000	0.367400
C1361	C136	0.696400	0.995700	0.348810
H921	H92	0.706500	0.027300	0.331000
C1371	C137	0.573600	0.435100	0.400200
H931	H93	0.576100	0.463600	0.380900
C1381	C138	0.589200	0.341300	0.404200
H941	H94	0.602500	0.306100	0.387900
C1391	C139	0.585100	0.299700	0.432100
C1401	C140	0.565300	0.352400	0.455600
H951	H95	0.561800	0.324700	0.475000
C1411	C141	0.551200	0.444800	0.450200
H961	H96	0.538000	0.481200	0.466200
C1421	C142	0.592800	0.060100	0.464400
C1431	C143	0.632400	0.061000	0.420440
C1441	C144	0.598800	0.196700	0.436900
N371	N37	0.769300	0.099500	0.781200
N381	N38	0.960700	0.912000	0.606060
N391	N39	0.613300	0.896800	0.604930
N401	N40	0.827600	0.979100	0.680600
N411	N41	0.787500	0.935800	0.635540
N421	N42	0.742400	0.976500	0.678770
N431	N43	0.553300	0.915000	0.544490
N441	N44	0.705600	0.902900	0.351380
N451	N45	0.555000	0.486900	0.422900
N461	N46	0.618200	0.009200	0.443840
N471	N47	0.624400	0.153600	0.415590
N481	N48	0.581600	0.153300	0.461980
Zn131	Zn13	0.741560	0.676740	0.819950
Zn141	Zn14	0.474990	0.379630	0.585260
Zn151	Zn15	0.951460	0.353040	0.586600
I251	I25	0.831540	0.676910	0.832300
I261	I26	0.699770	0.839430	0.814240
I271	I27	0.424420	0.292030	0.624120
I281	I28	0.494480	0.304200	0.534180
I291	I29	0.016890	0.436940	0.616860
I301	I30	0.942950	0.171480	0.579330
C1451	C145	0.768200	0.562300	0.767010
H971	H97	0.798600	0.561400	0.776800
C1461	C146	0.764400	0.524800	0.738570
H981	H98	0.792100	0.500200	0.728700
C1471	C147	0.719800	0.523200	0.724390
C1481	C148	0.680400	0.556700	0.740000
H991	H99	0.649100	0.553500	0.731500
C1491	C149	0.687400	0.595300	0.768300
H1001	H100	0.660400	0.619600	0.778900
C1501	C150	0.540500	0.435100	0.635560
H1011	H101	0.510900	0.440700	0.646100
C1511	C151	0.582400	0.450800	0.650700
H1021	H102	0.581400	0.468800	0.671200
C1521	C152	0.626800	0.440600	0.636240
C1531	C153	0.624800	0.418300	0.606000
H1031	H103	0.653800	0.412700	0.594800
C1541	C154	0.581200	0.404000	0.591760
H1041	H104	0.581100	0.388000	0.571000
C1551	C155	0.844700	0.385000	0.590920
H1051	H105	0.845000	0.362500	0.570800
C1561	C156	0.801300	0.403600	0.604080
H1061	H106	0.772300	0.397000	0.592900
C1571	C157	0.799800	0.432200	0.633710
C1581	C158	0.843700	0.444900	0.648650
H1071	H107	0.844500	0.465600	0.669000
C1591	C159	0.885500	0.427000	0.633400
H1081	H108	0.915200	0.436500	0.643600
C1601	C160	0.715700	0.490400	0.692560
C1611	C161	0.672400	0.452900	0.651550
C1621	C162	0.754300	0.448700	0.649830
C1631	C163	0.955900	0.510000	0.541300
H1091	H109	0.970500	0.544300	0.557300
C1641	C164	0.944200	0.558100	0.514900
H1101	H110	0.950700	0.624900	0.513000
C1651	C165	0.923400	0.509700	0.491940
C1661	C166	0.916100	0.410800	0.494600
H1111	H111	0.903000	0.374500	0.478500
C1671	C167	0.928300	0.367900	0.521000
H1121	H112	0.923400	0.300400	0.522800
C1681	C168	0.811100	0.361100	0.376000
H1131	H113	0.807300	0.293400	0.377800
C1691	C169	0.833300	0.409100	0.399100
H1141	H114	0.842800	0.376100	0.416800
C1701	C170	0.841500	0.506700	0.395960
C1711	C171	0.827100	0.550300	0.370500
H1151	H115	0.832800	0.617000	0.367400
C1721	C172	0.803600	0.495700	0.348810
H1161	H116	0.793500	0.527300	0.331000
C1731	C173	0.926400	0.935100	0.400200
H1171	H117	0.923900	0.963600	0.380900
C1741	C174	0.910800	0.841300	0.404200
H1181	H118	0.897500	0.806100	0.387900
C1751	C175	0.914900	0.799700	0.432100
C1761	C176	0.934700	0.852400	0.455600
H1191	H119	0.938200	0.824700	0.475000
C1771	C177	0.948800	0.944800	0.450200
H1201	H120	0.962000	0.981200	0.466200
C1781	C178	0.907200	0.560100	0.464400
C1791	C179	0.867600	0.561000	0.420440
C1801	C180	0.901200	0.696700	0.436900
N491	N49	0.730700	0.599500	0.781200
N501	N50	0.539300	0.412000	0.606060
N511	N51	0.886700	0.396800	0.604930
N521	N52	0.672400	0.479100	0.680600
N531	N53	0.712500	0.435800	0.635540
N541	N54	0.757600	0.476500	0.678770
N551	N55	0.946700	0.415000	0.544490
N561	N56	0.794400	0.402900	0.351380
N571	N57	0.945000	0.986900	0.422900
N581	N58	0.881800	0.509200	0.443840
N591	N59	0.875600	0.653600	0.415590
N601	N60	0.918400	0.653300	0.461980
Zn161	Zn16	0.758440	0.323260	0.319950
Zn171	Zn17	0.025010	0.620370	0.085260
Zn181	Zn18	0.548540	0.646960	0.086600
I311	I31	0.668460	0.323090	0.332300
I321	I32	0.800230	0.160570	0.314240
I331	I33	0.075580	0.707970	0.124120
I341	I34	0.005520	0.695800	0.034180
I351	I35	0.483110	0.563060	0.116860
I361	I36	0.557050	0.828520	0.079330
C1811	C181	0.731800	0.437700	0.267010
H1211	H121	0.701400	0.438600	0.276800
C1821	C182	0.735600	0.475200	0.238570
H1221	H122	0.707900	0.499800	0.228700
C1831	C183	0.780200	0.476800	0.224390
C1841	C184	0.819600	0.443300	0.240000
H1231	H123	0.850900	0.446500	0.231500
C1851	C185	0.812600	0.404700	0.268300
H1241	H124	0.839600	0.380400	0.278900
C1861	C186	0.959500	0.564900	0.135560
H1251	H125	0.989100	0.559300	0.146100
C1871	C187	0.917600	0.549200	0.150700
H1261	H126	0.918600	0.531200	0.171200
C1881	C188	0.873200	0.559400	0.136240
C1891	C189	0.875200	0.581700	0.106000
H1271	H127	0.846200	0.587300	0.094800
C1901	C190	0.918800	0.596000	0.091760
H1281	H128	0.918900	0.612000	0.071000
C1911	C191	0.655300	0.615000	0.090920
H1291	H129	0.655000	0.637500	0.070800
C1921	C192	0.698700	0.596400	0.104080
H1301	H130	0.727700	0.603000	0.092900
C1931	C193	0.700200	0.567800	0.133710
C1941	C194	0.656300	0.555100	0.148650
H1311	H131	0.655500	0.534400	0.169000
C1951	C195	0.614500	0.573000	0.133400
H1321	H132	0.584800	0.563500	0.143600
C1961	C196	0.784300	0.509600	0.192560
C1971	C197	0.827600	0.547100	0.151550
C1981	C198	0.745700	0.551300	0.149830
C1991	C199	0.544100	0.490000	0.041300
H1331	H133	0.529500	0.455700	0.057300
C2001	C200	0.555800	0.441900	0.014900
H1341	H134	0.549300	0.375100	0.013000
C2011	C201	0.576600	0.490300	0.991940
C2021	C202	0.583900	0.589200	0.994600
H1351	H135	0.597000	0.625500	0.978500
C2031	C203	0.571700	0.632100	0.021000
H1361	H136	0.576600	0.699600	0.022800
C2041	C204	0.688900	0.638900	0.876000
H1371	H137	0.692700	0.706600	0.877800
C2051	C205	0.666700	0.590900	0.899100
H1381	H138	0.657200	0.623900	0.916800
C2061	C206	0.658500	0.493300	0.895960
C2071	C207	0.672900	0.449700	0.870500
H1391	H139	0.667200	0.383000	0.867400
C2081	C208	0.696400	0.504300	0.848810
H1401	H140	0.706500	0.472700	0.831000
C2091	C209	0.573600	0.064900	0.900200
H1411	H141	0.576100	0.036400	0.880900
C2101	C210	0.589200	0.158700	0.904200
H1421	H142	0.602500	0.193900	0.887900
C2111	C211	0.585100	0.200300	0.932100
C2121	C212	0.565300	0.147600	0.955600
H1431	H143	0.561800	0.175300	0.975000
C2131	C213	0.551200	0.055200	0.950200
H1441	H144	0.538000	0.018800	0.966200
C2141	C214	0.592800	0.439900	0.964400
C2151	C215	0.632400	0.439000	0.920440
C2161	C216	0.598800	0.303300	0.936900
N611	N61	0.769300	0.400500	0.281200
N621	N62	0.960700	0.588000	0.106060
N631	N63	0.613300	0.603200	0.104930
N641	N64	0.827600	0.520900	0.180600
N651	N65	0.787500	0.564200	0.135540
N661	N66	0.742400	0.523500	0.178770
N671	N67	0.553300	0.585000	0.044490
N681	N68	0.705600	0.597100	0.851380
N691	N69	0.555000	0.013100	0.922900
N701	N70	0.618200	0.490800	0.943840
N711	N71	0.624400	0.346400	0.915590
N721	N72	0.581600	0.346700	0.961980
Zn191	Zn19	0.258440	0.176740	0.680050
Zn201	Zn20	0.525010	0.879630	0.914740
Zn211	Zn21	0.048540	0.853040	0.913400
I371	I37	0.168460	0.176910	0.667700
I381	I38	0.300230	0.339430	0.685760
I391	I39	0.575580	0.792030	0.875880
I401	I40	0.505520	0.804200	0.965820
I411	I41	0.983110	0.936940	0.883140
I421	I42	0.057050	0.671480	0.920670
C2171	C217	0.231800	0.062300	0.732990
H1451	H145	0.201400	0.061400	0.723200
C2181	C218	0.235600	0.024800	0.761430
H1461	H146	0.207900	0.000200	0.771300
C2191	C219	0.280200	0.023200	0.775610
C2201	C220	0.319600	0.056700	0.760000
H1471	H147	0.350900	0.053500	0.768500
C2211	C221	0.312600	0.095300	0.731700
H1481	H148	0.339600	0.119600	0.721100
C2221	C222	0.459500	0.935100	0.864440
H1491	H149	0.489100	0.940700	0.853900
C2231	C223	0.417600	0.950800	0.849300
H1501	H150	0.418600	0.968800	0.828800
C2241	C224	0.373200	0.940600	0.863760
C2251	C225	0.375200	0.918300	0.894000
H1511	H151	0.346200	0.912700	0.905200
C2261	C226	0.418800	0.904000	0.908240
H1521	H152	0.418900	0.888000	0.929000
C2271	C227	0.155300	0.885000	0.909080
H1531	H153	0.155000	0.862500	0.929200
C2281	C228	0.198700	0.903600	0.895920
H1541	H154	0.227700	0.897000	0.907100
C2291	C229	0.200200	0.932200	0.866290
C2301	C230	0.156300	0.944900	0.851350
H1551	H155	0.155500	0.965600	0.831000
C2311	C231	0.114500	0.927000	0.866600
H1561	H156	0.084800	0.936500	0.856400
C2321	C232	0.284300	0.990400	0.807440
C2331	C233	0.327600	0.952900	0.848450
C2341	C234	0.245700	0.948700	0.850170
C2351	C235	0.044100	0.010000	0.958700
H1571	H157	0.029500	0.044300	0.942700
C2361	C236	0.055800	0.058100	0.985100
H1581	H158	0.049300	0.124900	0.987000
C2371	C237	0.076600	0.009700	0.008060
C2381	C238	0.083900	0.910800	0.005400
H1591	H159	0.097000	0.874500	0.021500
C2391	C239	0.071700	0.867900	0.979000
H1601	H160	0.076600	0.800400	0.977200
C2401	C240	0.188900	0.861100	0.124000
H1611	H161	0.192700	0.793400	0.122200
C2411	C241	0.166700	0.909100	0.100900
H1621	H162	0.157200	0.876100	0.083200
C2421	C242	0.158500	0.006700	0.104040
C2431	C243	0.172900	0.050300	0.129500
H1631	H163	0.167200	0.117000	0.132600
C2441	C244	0.196400	0.995700	0.151190
H1641	H164	0.206500	0.027300	0.169000
C2451	C245	0.073600	0.435100	0.099800
H1651	H165	0.076100	0.463600	0.119100
C2461	C246	0.089200	0.341300	0.095800
H1661	H166	0.102500	0.306100	0.112100
C2471	C247	0.085100	0.299700	0.067900
C2481	C248	0.065300	0.352400	0.044400
H1671	H167	0.061800	0.324700	0.025000
C2491	C249	0.051200	0.444800	0.049800
H1681	H168	0.038000	0.481200	0.033800
C2501	C250	0.092800	0.060100	0.035600
C2511	C251	0.132400	0.061000	0.079560
C2521	C252	0.098800	0.196700	0.063100
N731	N73	0.269300	0.099500	0.718800
N741	N74	0.460700	0.912000	0.893940
N751	N75	0.113300	0.896800	0.895070
N761	N76	0.327600	0.979100	0.819400
N771	N77	0.287500	0.935800	0.864460
N781	N78	0.242400	0.976500	0.821230
N791	N79	0.053300	0.915000	0.955510
N801	N80	0.205600	0.902900	0.148620
N811	N81	0.055000	0.486900	0.077100
N821	N82	0.118200	0.009200	0.056160
N831	N83	0.124400	0.153600	0.084410
N841	N84	0.081600	0.153300	0.038020
Zn221	Zn22	0.241560	0.823260	0.180050
Zn231	Zn23	0.974990	0.120370	0.414740
Zn241	Zn24	0.451460	0.146960	0.413400
I431	I43	0.331540	0.823090	0.167700
I441	I44	0.199770	0.660570	0.185760
I451	I45	0.924420	0.207970	0.375880
I461	I46	0.994480	0.195800	0.465820
I471	I47	0.516890	0.063060	0.383140
I481	I48	0.442950	0.328520	0.420670
C2531	C253	0.268200	0.937700	0.232990
H1691	H169	0.298600	0.938600	0.223200
C2541	C254	0.264400	0.975200	0.261430
H1701	H170	0.292100	0.999800	0.271300
C2551	C255	0.219800	0.976800	0.275610
C2561	C256	0.180400	0.943300	0.260000
H1711	H171	0.149100	0.946500	0.268500
C2571	C257	0.187400	0.904700	0.231700
H1721	H172	0.160400	0.880400	0.221100
C2581	C258	0.040500	0.064900	0.364440
H1731	H173	0.010900	0.059300	0.353900
C2591	C259	0.082400	0.049200	0.349300
H1741	H174	0.081400	0.031200	0.328800
C2601	C260	0.126800	0.059400	0.363760
C2611	C261	0.124800	0.081700	0.394000
H1751	H175	0.153800	0.087300	0.405200
C2621	C262	0.081200	0.096000	0.408240
H1761	H176	0.081100	0.112000	0.429000
C2631	C263	0.344700	0.115000	0.409080
H1771	H177	0.345000	0.137500	0.429200
C2641	C264	0.301300	0.096400	0.395920
H1781	H178	0.272300	0.103000	0.407100
C2651	C265	0.299800	0.067800	0.366290
C2661	C266	0.343700	0.055100	0.351350
H1791	H179	0.344500	0.034400	0.331000
C2671	C267	0.385500	0.073000	0.366600
H1801	H180	0.415200	0.063500	0.356400
C2681	C268	0.215700	0.009600	0.307440
C2691	C269	0.172400	0.047100	0.348450
C2701	C270	0.254300	0.051300	0.350170
C2711	C271	0.455900	0.990000	0.458700
H1811	H181	0.470500	0.955700	0.442700
C2721	C272	0.444200	0.941900	0.485100
H1821	H182	0.450700	0.875100	0.487000
C2731	C273	0.423400	0.990300	0.508060
C2741	C274	0.416100	0.089200	0.505400
H1831	H183	0.403000	0.125500	0.521500
C2751	C275	0.428300	0.132100	0.479000
H1841	H184	0.423400	0.199600	0.477200
C2761	C276	0.311100	0.138900	0.624000
H1851	H185	0.307300	0.206600	0.622200
C2771	C277	0.333300	0.090900	0.600900
H1861	H186	0.342800	0.123900	0.583200
C2781	C278	0.341500	0.993300	0.604040
C2791	C279	0.327100	0.949700	0.629500
H1871	H187	0.332800	0.883000	0.632600
C2801	C280	0.303600	0.004300	0.651190
H1881	H188	0.293500	0.972700	0.669000
C2811	C281	0.426400	0.564900	0.599800
H1891	H189	0.423900	0.536400	0.619100
C2821	C282	0.410800	0.658700	0.595800
H1901	H190	0.397500	0.693900	0.612100
C2831	C283	0.414900	0.700300	0.567900
C2841	C284	0.434700	0.647600	0.544400
H1911	H191	0.438200	0.675300	0.525000
C2851	C285	0.448800	0.555200	0.549800
H1921	H192	0.462000	0.518800	0.533800
C2861	C286	0.407200	0.939900	0.535600
C2871	C287	0.367600	0.939000	0.579560
C2881	C288	0.401200	0.803300	0.563100
N851	N85	0.230700	0.900500	0.218800
N861	N86	0.039300	0.088000	0.393940
N871	N87	0.386700	0.103200	0.395070
N881	N88	0.172400	0.020900	0.319400
N891	N89	0.212500	0.064200	0.364460
N901	N90	0.257600	0.023500	0.321230
N911	N91	0.446700	0.085000	0.455510
N921	N92	0.294400	0.097100	0.648620
N931	N93	0.445000	0.513100	0.577100
N941	N94	0.381800	0.990800	0.556160
N951	N95	0.375600	0.846400	0.584410
N961	N96	0.418400	0.846700	0.538020
