data_RIYXIG_clean_PM
_symmetry_space_group_name_H-M	'P1'
_cell_length_a	6.533000
_cell_length_b	10.453000
_cell_length_c	19.293000
_cell_angle_alpha	90.000000
_cell_angle_beta	90.000000
_cell_angle_gamma	90.000000
_symmetry_Int_Tables_number 1

loop_
_symmetry_equiv_pos_as_xyz
'x,y,z'

loop_
_atom_site_label
_atom_site_type_symbol
_atom_site_fract_x
_atom_site_fract_y
_atom_site_fract_z
N11	N1	0.311600	0.797200	0.806400
C11	C1	0.316100	0.909900	0.759000
C21	C2	0.316100	0.843900	0.879300
H11	H1	0.620200	0.086200	0.852500
H21	H2	0.314700	0.880500	0.711300
H31	H3	0.194400	0.961300	0.766500
H41	H4	0.193800	0.893700	0.888500
H51	H5	0.316700	0.771300	0.910600
N21	N2	0.311600	0.202800	0.193600
C31	C3	0.316100	0.090100	0.241000
C41	C4	0.316100	0.156100	0.120700
H61	H6	0.620200	0.913800	0.147500
H71	H7	0.314700	0.119500	0.288700
H81	H8	0.194400	0.038700	0.233500
H91	H9	0.193800	0.106300	0.111500
H101	H10	0.316700	0.228700	0.089400
N31	N3	0.188400	0.702800	0.306400
C51	C5	0.183900	0.590100	0.259000
C61	C6	0.183900	0.656100	0.379300
H111	H11	0.879800	0.413800	0.352500
H121	H12	0.185300	0.619500	0.211300
H131	H13	0.305600	0.538700	0.266500
H141	H14	0.306200	0.606300	0.388500
H151	H15	0.183300	0.728700	0.410600
N41	N4	0.188400	0.297200	0.693600
C71	C7	0.183900	0.409900	0.741000
C81	C8	0.183900	0.343900	0.620700
H161	H16	0.879800	0.586200	0.647500
H171	H17	0.185300	0.380500	0.788700
H181	H18	0.305600	0.461300	0.733500
H191	H19	0.306200	0.393700	0.611500
H201	H20	0.183300	0.271300	0.589400
N51	N5	0.688400	0.202800	0.193600
C91	C9	0.683900	0.090100	0.241000
C101	C10	0.683900	0.156100	0.120700
H211	H21	0.379800	0.913800	0.147500
H221	H22	0.685300	0.119500	0.288700
H231	H23	0.805600	0.038700	0.233500
H241	H24	0.806200	0.106300	0.111500
H251	H25	0.683300	0.228700	0.089400
N61	N6	0.688400	0.797200	0.806400
C111	C11	0.683900	0.909900	0.759000
C121	C12	0.683900	0.843900	0.879300
H261	H26	0.379800	0.086200	0.852500
H271	H27	0.685300	0.880500	0.711300
H281	H28	0.805600	0.961300	0.766500
H291	H29	0.806200	0.893700	0.888500
H301	H30	0.683300	0.771300	0.910600
N71	N7	0.811600	0.297200	0.693600
C131	C13	0.816100	0.409900	0.741000
C141	C14	0.816100	0.343900	0.620700
H311	H31	0.120200	0.586200	0.647500
H321	H32	0.814700	0.380500	0.788700
H331	H33	0.694400	0.461300	0.733500
H341	H34	0.693800	0.393700	0.611500
H351	H35	0.816700	0.271300	0.589400
N81	N8	0.811600	0.702800	0.306400
C151	C15	0.816100	0.590100	0.259000
C161	C16	0.816100	0.656100	0.379300
H361	H36	0.120200	0.413800	0.352500
H371	H37	0.814700	0.619500	0.211300
H381	H38	0.694400	0.538700	0.266500
H391	H39	0.693800	0.606300	0.388500
H401	H40	0.816700	0.728700	0.410600
Ag11	Ag1	0.500000	0.177630	0.703430
N91	N9	0.500000	0.989700	0.770700
N101	N10	0.500000	0.924100	0.892400
C171	C17	0.500000	0.033900	0.844100
C181	C18	0.500000	0.720800	0.794100
H411	H41	0.500000	0.689800	0.746700
H421	H42	0.500000	0.647100	0.824700
Ag21	Ag2	0.500000	0.822370	0.296570
N111	N11	0.500000	0.010300	0.229300
N121	N12	0.500000	0.075900	0.107600
C191	C19	0.500000	0.966100	0.155900
C201	C20	0.500000	0.279200	0.205900
H431	H43	0.500000	0.310200	0.253300
H441	H44	0.500000	0.352900	0.175300
Ag31	Ag3	0.000000	0.322370	0.203430
N131	N13	0.000000	0.510300	0.270700
N141	N14	0.000000	0.575900	0.392400
C211	C21	0.000000	0.466100	0.344100
C221	C22	0.000000	0.779200	0.294100
H451	H45	0.000000	0.810200	0.246700
H461	H46	0.000000	0.852900	0.324700
Ag41	Ag4	0.000000	0.677630	0.796570
N151	N15	0.000000	0.489700	0.729300
N161	N16	0.000000	0.424100	0.607600
C231	C23	0.000000	0.533900	0.655900
C241	C24	0.000000	0.220800	0.705900
H471	H47	0.000000	0.189800	0.753300
H481	H48	0.000000	0.147100	0.675300
Ag51	Ag5	0.500000	0.000000	0.000000
Ag61	Ag6	0.000000	0.500000	0.500000
