data_ROCZIU_clean_PM
_symmetry_space_group_name_H-M	'P1'
_cell_length_a	9.638000
_cell_length_b	15.443000
_cell_length_c	18.717000
_cell_angle_alpha	90.000000
_cell_angle_beta	90.000000
_cell_angle_gamma	90.000000
_symmetry_Int_Tables_number 1

loop_
_symmetry_equiv_pos_as_xyz
'x,y,z'

loop_
_atom_site_label
_atom_site_type_symbol
_atom_site_fract_x
_atom_site_fract_y
_atom_site_fract_z
Cd11	Cd1	0.116470	0.783100	0.939020
C11	C1	0.418100	0.855400	0.983400
H11	H1	0.357500	0.892700	0.006900
C21	C2	0.557000	0.869900	0.990900
H21	H2	0.588900	0.916200	0.018100
C31	C3	0.648900	0.815300	0.957700
C41	C4	0.593000	0.748500	0.918300
H31	H3	0.651400	0.709500	0.895300
C51	C5	0.452700	0.739000	0.912800
H41	H4	0.418300	0.693700	0.885200
C61	C6	0.801900	0.831100	0.963100
C71	C7	0.050700	0.827300	0.299400
H51	H5	0.993600	0.853400	0.333200
C81	C8	0.046400	0.857700	0.230600
H61	H6	0.990100	0.904400	0.218700
C91	C9	0.125700	0.818300	0.180000
C101	C10	0.208700	0.750300	0.200900
H71	H7	0.263100	0.721300	0.167600
C111	C11	0.210500	0.725600	0.271500
H81	H8	0.269300	0.680800	0.285200
C121	C12	0.118900	0.847200	0.103100
N11	N1	0.363500	0.791300	0.944800
N21	N2	0.132100	0.762700	0.320600
N31	N3	0.121200	0.928500	0.914900
N41	N4	0.171000	0.963200	0.866700
N51	N5	0.215000	0.997600	0.818100
O11	O1	0.106600	0.925900	0.091890
O21	O2	0.128800	0.788300	0.057980
O31	O3	0.838800	0.892900	0.000700
O41	O4	0.879500	0.780400	0.929670
Cd21	Cd2	0.883530	0.283100	0.560980
C131	C13	0.581900	0.355400	0.516600
H91	H9	0.642500	0.392700	0.493100
C141	C14	0.443000	0.369900	0.509100
H101	H10	0.411100	0.416200	0.481900
C151	C15	0.351100	0.315300	0.542300
C161	C16	0.407000	0.248500	0.581700
H111	H11	0.348600	0.209500	0.604700
C171	C17	0.547300	0.239000	0.587200
H121	H12	0.581700	0.193700	0.614800
C181	C18	0.198100	0.331100	0.536900
C191	C19	0.949300	0.327300	0.200600
H131	H13	0.006400	0.353400	0.166800
C201	C20	0.953600	0.357700	0.269400
H141	H14	0.009900	0.404400	0.281300
C211	C21	0.874300	0.318300	0.320000
C221	C22	0.791300	0.250300	0.299100
H151	H15	0.736900	0.221300	0.332400
C231	C23	0.789500	0.225600	0.228500
H161	H16	0.730700	0.180800	0.214800
C241	C24	0.881100	0.347200	0.396900
N61	N6	0.636500	0.291300	0.555200
N71	N7	0.867900	0.262700	0.179400
N81	N8	0.878800	0.428500	0.585100
N91	N9	0.829000	0.463200	0.633300
N101	N10	0.785000	0.497600	0.681900
O51	O5	0.893400	0.425900	0.408110
O61	O6	0.871200	0.288300	0.442020
O71	O7	0.161200	0.392900	0.499300
O81	O8	0.120500	0.280400	0.570330
Cd31	Cd3	0.883530	0.216900	0.060980
C251	C25	0.581900	0.144600	0.016600
H171	H17	0.642500	0.107300	0.993100
C261	C26	0.443000	0.130100	0.009100
H181	H18	0.411100	0.083800	0.981900
C271	C27	0.351100	0.184700	0.042300
C281	C28	0.407000	0.251500	0.081700
H191	H19	0.348600	0.290500	0.104700
C291	C29	0.547300	0.261000	0.087200
H201	H20	0.581700	0.306300	0.114800
C301	C30	0.198100	0.168900	0.036900
C311	C31	0.949300	0.172700	0.700600
H211	H21	0.006400	0.146600	0.666800
C321	C32	0.953600	0.142300	0.769400
H221	H22	0.009900	0.095600	0.781300
C331	C33	0.874300	0.181700	0.820000
C341	C34	0.791300	0.249700	0.799100
H231	H23	0.736900	0.278700	0.832400
C351	C35	0.789500	0.274400	0.728500
H241	H24	0.730700	0.319200	0.714800
C361	C36	0.881100	0.152800	0.896900
N111	N11	0.636500	0.208700	0.055200
N121	N12	0.867900	0.237300	0.679400
N131	N13	0.878800	0.071500	0.085100
N141	N14	0.829000	0.036800	0.133300
N151	N15	0.785000	0.002400	0.181900
O91	O9	0.893400	0.074100	0.908110
O101	O10	0.871200	0.211700	0.942020
O111	O11	0.161200	0.107100	0.999300
O121	O12	0.120500	0.219600	0.070330
Cd41	Cd4	0.116470	0.716900	0.439020
C371	C37	0.418100	0.644600	0.483400
H251	H25	0.357500	0.607300	0.506900
C381	C38	0.557000	0.630100	0.490900
H261	H26	0.588900	0.583800	0.518100
C391	C39	0.648900	0.684700	0.457700
C401	C40	0.593000	0.751500	0.418300
H271	H27	0.651400	0.790500	0.395300
C411	C41	0.452700	0.761000	0.412800
H281	H28	0.418300	0.806300	0.385200
C421	C42	0.801900	0.668900	0.463100
C431	C43	0.050700	0.672700	0.799400
H291	H29	0.993600	0.646600	0.833200
C441	C44	0.046400	0.642300	0.730600
H301	H30	0.990100	0.595600	0.718700
C451	C45	0.125700	0.681700	0.680000
C461	C46	0.208700	0.749700	0.700900
H311	H31	0.263100	0.778700	0.667600
C471	C47	0.210500	0.774400	0.771500
H321	H32	0.269300	0.819200	0.785200
C481	C48	0.118900	0.652800	0.603100
N161	N16	0.363500	0.708700	0.444800
N171	N17	0.132100	0.737300	0.820600
N181	N18	0.121200	0.571500	0.414900
N191	N19	0.171000	0.536800	0.366700
N201	N20	0.215000	0.502400	0.318100
O131	O13	0.106600	0.574100	0.591890
O141	O14	0.128800	0.711700	0.557980
O151	O15	0.838800	0.607100	0.500700
O161	O16	0.879500	0.719600	0.429670
Cd51	Cd5	0.000000	0.000000	0.000000
Cd61	Cd6	0.000000	0.500000	0.500000
