data_RODBAP_clean_PM
_symmetry_space_group_name_H-M	'P1'
_cell_length_a	11.054000
_cell_length_b	22.723000
_cell_length_c	14.666000
_cell_angle_alpha	90.000000
_cell_angle_beta	96.800000
_cell_angle_gamma	90.000000
_symmetry_Int_Tables_number 1

loop_
_symmetry_equiv_pos_as_xyz
'x,y,z'

loop_
_atom_site_label
_atom_site_type_symbol
_atom_site_fract_x
_atom_site_fract_y
_atom_site_fract_z
Cd11	Cd1	0.139250	0.924550	0.211060
C11	C1	0.105700	0.711430	0.757300
H11	H1	0.090800	0.712500	0.693600
C21	C2	0.096700	0.763000	0.805300
H21	H2	0.076700	0.798000	0.774300
C31	C3	0.117600	0.762100	0.900130
C41	C4	0.150000	0.709110	0.942100
H31	H3	0.166600	0.706900	0.005600
C51	C5	0.157400	0.659680	0.889000
H41	H4	0.179200	0.624300	0.918200
C61	C6	0.107200	0.815980	0.953160
C71	C7	0.390300	0.932550	0.120400
H51	H5	0.331900	0.940300	0.070900
C81	C8	0.510100	0.935960	0.107200
H61	H6	0.531700	0.946300	0.049900
C91	C9	0.600200	0.923980	0.179600
C101	C10	0.562000	0.907160	0.261700
H71	H7	0.618700	0.896900	0.311100
C111	C11	0.438500	0.905600	0.270400
H81	H8	0.414600	0.895000	0.326800
C121	C12	0.728400	0.931670	0.165360
N11	N1	0.134800	0.659960	0.797920
N21	N2	0.069600	0.867420	0.916890
N31	N3	0.073400	0.903210	0.987990
N41	N4	0.112900	0.874530	0.064170
N51	N5	0.134200	0.819010	0.043780
N61	N6	0.352100	0.918560	0.201820
N71	N7	0.761200	0.959160	0.092300
N81	N8	0.881200	0.958990	0.104830
N91	N9	0.920200	0.931920	0.182430
N101	N10	0.824600	0.914040	0.222940
N111	N11	0.142700	0.008620	0.125260
N121	N12	0.219000	0.045150	0.134700
N131	N13	0.293100	0.080100	0.143400
Cd21	Cd2	0.860750	0.424550	0.288940
C131	C13	0.894300	0.211430	0.742700
H91	H9	0.909200	0.212500	0.806400
C141	C14	0.903300	0.263000	0.694700
H101	H10	0.923300	0.298000	0.725700
C151	C15	0.882400	0.262100	0.599870
C161	C16	0.850000	0.209110	0.557900
H111	H11	0.833400	0.206900	0.494400
C171	C17	0.842600	0.159680	0.611000
H121	H12	0.820800	0.124300	0.581800
C181	C18	0.892800	0.315980	0.546840
C191	C19	0.609700	0.432550	0.379600
H131	H13	0.668100	0.440300	0.429100
C201	C20	0.489900	0.435960	0.392800
H141	H14	0.468300	0.446300	0.450100
C211	C21	0.399800	0.423980	0.320400
C221	C22	0.438000	0.407160	0.238300
H151	H15	0.381300	0.396900	0.188900
C231	C23	0.561500	0.405600	0.229600
H161	H16	0.585400	0.395000	0.173200
C241	C24	0.271600	0.431670	0.334640
N141	N14	0.865200	0.159960	0.702080
N151	N15	0.930400	0.367420	0.583110
N161	N16	0.926600	0.403210	0.512010
N171	N17	0.887100	0.374530	0.435830
N181	N18	0.865800	0.319010	0.456220
N191	N19	0.647900	0.418560	0.298180
N201	N20	0.238800	0.459160	0.407700
N211	N21	0.118800	0.458990	0.395170
N221	N22	0.079800	0.431920	0.317570
N231	N23	0.175400	0.414040	0.277060
N241	N24	0.857300	0.508620	0.374740
N251	N25	0.781000	0.545150	0.365300
N261	N26	0.706900	0.580100	0.356600
Cd31	Cd3	0.860750	0.075450	0.788940
C251	C25	0.894300	0.288570	0.242700
H171	H17	0.909200	0.287500	0.306400
C261	C26	0.903300	0.237000	0.194700
H181	H18	0.923300	0.202000	0.225700
C271	C27	0.882400	0.237900	0.099870
C281	C28	0.850000	0.290890	0.057900
H191	H19	0.833400	0.293100	0.994400
C291	C29	0.842600	0.340320	0.111000
H201	H20	0.820800	0.375700	0.081800
C301	C30	0.892800	0.184020	0.046840
C311	C31	0.609700	0.067450	0.879600
H211	H21	0.668100	0.059700	0.929100
C321	C32	0.489900	0.064040	0.892800
H221	H22	0.468300	0.053700	0.950100
C331	C33	0.399800	0.076020	0.820400
C341	C34	0.438000	0.092840	0.738300
H231	H23	0.381300	0.103100	0.688900
C351	C35	0.561500	0.094400	0.729600
H241	H24	0.585400	0.105000	0.673200
C361	C36	0.271600	0.068330	0.834640
N271	N27	0.865200	0.340040	0.202080
N281	N28	0.930400	0.132580	0.083110
N291	N29	0.926600	0.096790	0.012010
N301	N30	0.887100	0.125470	0.935830
N311	N31	0.865800	0.180990	0.956220
N321	N32	0.647900	0.081440	0.798180
N331	N33	0.238800	0.040840	0.907700
N341	N34	0.118800	0.041010	0.895170
N351	N35	0.079800	0.068080	0.817570
N361	N36	0.175400	0.085960	0.777060
N371	N37	0.857300	0.991380	0.874740
N381	N38	0.781000	0.954850	0.865300
N391	N39	0.706900	0.919900	0.856600
Cd41	Cd4	0.139250	0.575450	0.711060
C371	C37	0.105700	0.788570	0.257300
H251	H25	0.090800	0.787500	0.193600
C381	C38	0.096700	0.737000	0.305300
H261	H26	0.076700	0.702000	0.274300
C391	C39	0.117600	0.737900	0.400130
C401	C40	0.150000	0.790890	0.442100
H271	H27	0.166600	0.793100	0.505600
C411	C41	0.157400	0.840320	0.389000
H281	H28	0.179200	0.875700	0.418200
C421	C42	0.107200	0.684020	0.453160
C431	C43	0.390300	0.567450	0.620400
H291	H29	0.331900	0.559700	0.570900
C441	C44	0.510100	0.564040	0.607200
H301	H30	0.531700	0.553700	0.549900
C451	C45	0.600200	0.576020	0.679600
C461	C46	0.562000	0.592840	0.761700
H311	H31	0.618700	0.603100	0.811100
C471	C47	0.438500	0.594400	0.770400
H321	H32	0.414600	0.605000	0.826800
C481	C48	0.728400	0.568330	0.665360
N401	N40	0.134800	0.840040	0.297920
N411	N41	0.069600	0.632580	0.416890
N421	N42	0.073400	0.596790	0.487990
N431	N43	0.112900	0.625470	0.564170
N441	N44	0.134200	0.680990	0.543780
N451	N45	0.352100	0.581440	0.701820
N461	N46	0.761200	0.540840	0.592300
N471	N47	0.881200	0.541010	0.604830
N481	N48	0.920200	0.568080	0.682430
N491	N49	0.824600	0.585960	0.722940
N501	N50	0.142700	0.491380	0.625260
N511	N51	0.219000	0.454850	0.634700
N521	N52	0.293100	0.419900	0.643400
Cd51	Cd5	0.000000	0.000000	0.000000
Cd61	Cd6	0.000000	0.500000	0.500000
