data_ROGLOP_clean_PM
_symmetry_space_group_name_H-M	'P1'
_cell_length_a	7.493300
_cell_length_b	14.060500
_cell_length_c	14.060500
_cell_angle_alpha	97.713600
_cell_angle_beta	101.341000
_cell_angle_gamma	101.341000
_symmetry_Int_Tables_number 1

loop_
_symmetry_equiv_pos_as_xyz
'x,y,z'

loop_
_atom_site_label
_atom_site_type_symbol
_atom_site_fract_x
_atom_site_fract_y
_atom_site_fract_z
Ni11	Ni1	0.750000	0.411230	0.588770
Ni21	Ni2	0.250000	0.588770	0.411230
Ni31	Ni3	0.500000	0.000000	0.000000
Ni41	Ni4	0.000000	0.000000	0.000000
H11	H1	0.631000	0.135300	0.368300
H21	H2	0.582300	0.019400	0.228600
H31	H3	0.599300	0.339500	0.197100
H41	H4	0.545200	0.217100	0.062100
H51	H5	0.884000	0.236900	0.619100
H61	H6	0.897600	0.122900	0.728700
H71	H7	0.869000	0.631700	0.864700
H81	H8	0.917700	0.771400	0.980600
H91	H9	0.900700	0.802900	0.660500
H101	H10	0.954800	0.937900	0.782900
H111	H11	0.616000	0.380900	0.763100
H121	H12	0.602400	0.271300	0.877100
H131	H13	0.369000	0.864700	0.631700
H141	H14	0.417700	0.980600	0.771400
H151	H15	0.400700	0.660500	0.802900
H161	H16	0.454800	0.782900	0.937900
H171	H17	0.116000	0.763100	0.380900
H181	H18	0.102400	0.877100	0.271300
H191	H19	0.131000	0.368300	0.135300
H201	H20	0.082300	0.228600	0.019400
H211	H21	0.099300	0.197100	0.339500
H221	H22	0.045200	0.062100	0.217100
H231	H23	0.384000	0.619100	0.236900
H241	H24	0.397600	0.728700	0.122900
C11	C1	0.615200	0.153980	0.306740
C21	C2	0.621800	0.251920	0.298580
C31	C3	0.584700	0.084590	0.222050
C41	C4	0.658700	0.331080	0.388180
C51	C5	0.595700	0.274680	0.205620
C61	C6	0.563800	0.200390	0.124470
C71	C7	0.832100	0.240020	0.673980
C81	C8	0.836800	0.173940	0.737860
C91	C9	0.884800	0.693260	0.846020
C101	C10	0.878200	0.701420	0.748080
C111	C11	0.915300	0.777950	0.915410
C121	C12	0.841300	0.611820	0.668920
C131	C13	0.904300	0.794380	0.725320
C141	C14	0.936200	0.875530	0.799610
C151	C15	0.667900	0.326020	0.759980
C161	C16	0.663200	0.262140	0.826060
C171	C17	0.384800	0.846020	0.693260
C181	C18	0.378200	0.748080	0.701420
C191	C19	0.415300	0.915410	0.777950
C201	C20	0.341300	0.668920	0.611820
C211	C21	0.404300	0.725320	0.794380
C221	C22	0.436200	0.799610	0.875530
C231	C23	0.167900	0.759980	0.326020
C241	C24	0.163200	0.826060	0.262140
C251	C25	0.115200	0.306740	0.153980
C261	C26	0.121800	0.298580	0.251920
C271	C27	0.084700	0.222050	0.084590
C281	C28	0.158700	0.388180	0.331080
C291	C29	0.095700	0.205620	0.274680
C301	C30	0.063800	0.124470	0.200390
C311	C31	0.332100	0.673980	0.240020
C321	C32	0.336800	0.737860	0.173940
C331	C33	0.750000	0.113140	0.886860
C341	C34	0.750000	0.184260	0.815740
C351	C35	0.250000	0.886860	0.113140
C361	C36	0.250000	0.815740	0.184260
N11	N1	0.558700	0.106170	0.131450
N21	N2	0.941300	0.868550	0.893830
N31	N3	0.441300	0.893830	0.868550
N41	N4	0.058700	0.131450	0.106170
N51	N5	0.750000	0.315820	0.684180
N61	N6	0.250000	0.684180	0.315820
N71	N7	0.250000	0.046450	0.953550
N81	N8	0.250000	0.102340	0.897660
N91	N9	0.250000	0.156300	0.843700
N101	N10	0.750000	0.953550	0.046450
N111	N11	0.750000	0.897660	0.102340
N121	N12	0.750000	0.843700	0.156300
O11	O1	0.626400	0.109430	0.935730
O21	O2	0.670700	0.418790	0.376530
O31	O3	0.676100	0.303130	0.470750
O41	O4	0.873600	0.064270	0.890570
O51	O5	0.829300	0.623470	0.581210
O61	O6	0.823900	0.529250	0.696870
O71	O7	0.373600	0.890570	0.064270
O81	O8	0.329300	0.581210	0.623470
O91	O9	0.323900	0.696870	0.529250
O101	O10	0.126400	0.935730	0.109430
O111	O11	0.170700	0.376530	0.418790
O121	O12	0.176100	0.470750	0.303130
