data_ROLCEC18_clean_PM
_symmetry_space_group_name_H-M	'P1'
_cell_length_a	7.326300
_cell_length_b	7.326300
_cell_length_c	24.365300
_cell_angle_alpha	90.000000
_cell_angle_beta	90.000000
_cell_angle_gamma	120.000000
_symmetry_Int_Tables_number 1

loop_
_symmetry_equiv_pos_as_xyz
'x,y,z'

loop_
_atom_site_label
_atom_site_type_symbol
_atom_site_fract_x
_atom_site_fract_y
_atom_site_fract_z
O11	O1	0.338300	0.451100	0.132200
O21	O2	0.921000	0.298100	0.964700
O31	O3	0.141700	0.418900	0.034210
C11	C1	0.033000	0.432100	0.998600
H11	H1	0.034800	0.559700	0.996600
O41	O4	0.548900	0.887200	0.465530
O51	O5	0.701900	0.622900	0.298030
O61	O6	0.581100	0.722800	0.367540
C21	C2	0.567900	0.600900	0.331930
H21	H2	0.440300	0.475100	0.329930
O71	O7	0.112800	0.661700	0.798870
O81	O8	0.377100	0.079000	0.631370
O91	O9	0.277200	0.858300	0.700880
C31	C3	0.399100	0.967000	0.665270
H31	H3	0.524900	0.965200	0.663270
O101	O10	0.661700	0.548900	0.632200
O111	O11	0.079000	0.701900	0.464700
O121	O12	0.858300	0.581100	0.534210
C41	C4	0.967000	0.567900	0.498600
H41	H4	0.965200	0.440300	0.496600
O131	O13	0.451100	0.112800	0.965530
O141	O14	0.298100	0.377100	0.798030
O151	O15	0.418900	0.277200	0.867540
C51	C5	0.432100	0.399100	0.831930
H51	H5	0.559700	0.524900	0.829930
O161	O16	0.887200	0.338300	0.298870
O171	O17	0.622900	0.921000	0.131370
O181	O18	0.722800	0.141700	0.200880
C61	C6	0.600900	0.033000	0.165270
H61	H6	0.475100	0.034800	0.163270
O191	O19	0.451100	0.338300	0.201130
O201	O20	0.298100	0.921000	0.368630
O211	O21	0.418900	0.141700	0.299120
C71	C7	0.432100	0.033000	0.334730
H71	H7	0.559700	0.034800	0.336730
O221	O22	0.887200	0.548900	0.867800
O231	O23	0.622900	0.701900	0.035300
O241	O24	0.722800	0.581100	0.965790
C81	C8	0.600900	0.567900	0.001400
H81	H8	0.475100	0.440300	0.003400
O251	O25	0.661700	0.112800	0.534470
O261	O26	0.079000	0.377100	0.701970
O271	O27	0.858300	0.277200	0.632460
C91	C9	0.967000	0.399100	0.668070
H91	H9	0.965200	0.524900	0.670070
O281	O28	0.548900	0.661700	0.701130
O291	O29	0.701900	0.079000	0.868630
O301	O30	0.581100	0.858300	0.799120
C101	C10	0.567900	0.967000	0.834730
H101	H10	0.440300	0.965200	0.836730
O311	O31	0.112800	0.451100	0.367800
O321	O32	0.377100	0.298100	0.535300
O331	O33	0.277200	0.418900	0.465790
C111	C11	0.399100	0.432100	0.501400
H111	H11	0.524900	0.559700	0.503400
O341	O34	0.338300	0.887200	0.034470
O351	O35	0.921000	0.622900	0.201970
O361	O36	0.141700	0.722800	0.132460
C121	C12	0.033000	0.600900	0.168070
H121	H12	0.034800	0.475100	0.170070
Cu11	Cu1	0.364590	0.682290	0.083330
Cu21	Cu2	0.317710	0.682290	0.416670
Cu31	Cu3	0.317710	0.635410	0.750000
Cu41	Cu4	0.635410	0.317710	0.583330
Cu51	Cu5	0.682290	0.317710	0.916670
Cu61	Cu6	0.682290	0.364590	0.250000
C131	C13	0.473600	0.473600	0.166670
H131	H13	0.600500	0.600500	0.166670
C141	C14	0.526400	0.000000	0.500000
H141	H14	0.399500	0.000000	0.500000
C151	C15	0.000000	0.526400	0.833330
H151	H15	0.000000	0.399500	0.833330
C161	C16	0.526400	0.526400	0.666670
H161	H16	0.399500	0.399500	0.666670
C171	C17	0.473600	0.000000	0.000000
H171	H17	0.600500	0.000000	0.000000
C181	C18	0.000000	0.473600	0.333330
H181	H18	0.000000	0.600500	0.333330
