data_ROMQAN_clean_PM
_symmetry_space_group_name_H-M	'P1'
_cell_length_a	7.808000
_cell_length_b	17.456000
_cell_length_c	18.312500
_cell_angle_alpha	90.000000
_cell_angle_beta	97.721200
_cell_angle_gamma	90.000000
_symmetry_Int_Tables_number 1

loop_
_symmetry_equiv_pos_as_xyz
'x,y,z'

loop_
_atom_site_label
_atom_site_type_symbol
_atom_site_fract_x
_atom_site_fract_y
_atom_site_fract_z
Zn11	Zn1	0.845720	0.379960	0.386470
Zn21	Zn2	0.345720	0.120040	0.886470
Zn31	Zn3	0.989330	0.201990	0.780170
Zn41	Zn4	0.154280	0.620040	0.613530
Zn51	Zn5	0.010670	0.798010	0.219830
Zn61	Zn6	0.510670	0.701990	0.719830
Zn71	Zn7	0.489330	0.298010	0.280170
Zn81	Zn8	0.654280	0.879960	0.113530
H11	H1	0.593600	0.540000	0.972500
H21	H2	0.455200	0.964900	0.528600
H31	H3	0.266000	0.398600	0.724300
H41	H4	0.955200	0.535100	0.028600
H51	H5	0.173100	0.510000	0.929500
H61	H6	0.948300	0.194800	0.486500
H71	H7	0.903000	0.507400	0.870200
H81	H8	0.694200	0.607600	0.939800
H91	H9	0.766000	0.101400	0.224300
H101	H10	0.714000	0.595500	0.100300
H111	H11	0.276000	0.739400	0.035500
H121	H12	0.296200	0.722600	0.430600
H131	H13	0.724000	0.260600	0.964500
H141	H14	0.539400	0.024500	0.322700
H151	H15	0.211000	0.987100	0.282500
H161	H16	0.829300	0.793100	0.659500
H171	H17	0.224000	0.239400	0.464500
H181	H18	0.403000	0.992600	0.370200
H191	H19	0.194200	0.892400	0.439800
H201	H20	0.865300	0.343500	0.168000
H211	H21	0.156100	0.358600	0.940700
H221	H22	0.711000	0.512900	0.782500
H231	H23	0.406400	0.460000	0.027500
H241	H24	0.365300	0.156500	0.668000
H251	H25	0.551700	0.694800	0.013500
H261	H26	0.305800	0.392400	0.060200
H271	H27	0.960600	0.524500	0.177300
H281	H28	0.796200	0.777400	0.930600
H291	H29	0.670700	0.293100	0.840500
H301	H30	0.786000	0.095500	0.399700
H311	H31	0.289000	0.487100	0.217500
H321	H32	0.826900	0.490000	0.070500
H331	H33	0.329300	0.706900	0.159500
H341	H34	0.789000	0.012900	0.717500
H351	H35	0.597000	0.007400	0.629800
H361	H36	0.170700	0.206900	0.340500
H371	H37	0.673100	0.990000	0.429500
H381	H38	0.776000	0.760600	0.535500
H391	H39	0.938200	0.874200	0.534600
H401	H40	0.343900	0.858600	0.559300
H411	H41	0.448300	0.305200	0.986500
H421	H42	0.734000	0.601400	0.275700
H431	H43	0.460600	0.975500	0.677300
H441	H44	0.544800	0.035100	0.471400
H451	H45	0.634700	0.843500	0.332000
H461	H46	0.093600	0.960000	0.472500
H471	H47	0.703800	0.277400	0.569400
H481	H48	0.039400	0.475500	0.822700
H491	H49	0.134700	0.656500	0.832000
H501	H50	0.044800	0.464900	0.971400
H511	H51	0.326900	0.010000	0.570500
H521	H52	0.097000	0.492600	0.129800
H531	H53	0.906400	0.040000	0.527500
H541	H54	0.203800	0.222600	0.069400
H551	H55	0.561800	0.374200	0.965400
H561	H56	0.656100	0.141400	0.440700
H571	H57	0.438200	0.625800	0.034600
H581	H58	0.805800	0.107600	0.560200
H591	H59	0.286000	0.404500	0.899700
H601	H60	0.061800	0.125800	0.465400
H611	H61	0.214000	0.904500	0.600300
H621	H62	0.234000	0.898600	0.775700
H631	H63	0.843900	0.641400	0.059300
H641	H64	0.051700	0.805200	0.513500
C11	C1	0.449400	0.335700	0.786400
C21	C2	0.499100	0.353900	0.003400
C31	C3	0.146800	0.032100	0.282200
C41	C4	0.905100	0.755600	0.931600
C51	C5	0.018800	0.534800	0.134800
C61	C6	0.807300	0.267200	0.005300
C71	C7	0.472400	0.699600	0.561400
C81	C8	0.000900	0.853900	0.496600
C91	C9	0.999100	0.146100	0.503400
C101	C10	0.620500	0.337000	0.818000
C111	C11	0.055100	0.285200	0.129300
C121	C12	0.878700	0.100100	0.248500
C131	C13	0.162600	0.768300	0.701400
C141	C14	0.879500	0.837000	0.682000
C151	C15	0.769300	0.307900	0.066100
C161	C16	0.607300	0.816300	0.372600
C171	C17	0.898900	0.962700	0.212800
C181	C18	0.107300	0.683700	0.872600
C191	C19	0.639900	0.591200	0.981800
C201	C20	0.692700	0.767200	0.494700
C211	C21	0.027200	0.763900	0.993800
C221	C22	0.398900	0.537300	0.712800
C231	C23	0.500900	0.646100	0.996600
C241	C24	0.379500	0.663000	0.182000
C251	C25	0.405100	0.744400	0.431600
C261	C26	0.607100	0.037100	0.429100
C271	C27	0.646800	0.467900	0.782200
C281	C28	0.662600	0.731700	0.201400
C291	C29	0.477000	0.465200	0.746900
C301	C30	0.527600	0.300400	0.438600
C311	C31	0.230700	0.692100	0.933900
C321	C32	0.555100	0.214800	0.629300
C331	C33	0.027600	0.199600	0.938600
C341	C34	0.972800	0.236100	0.006200
C351	C35	0.337400	0.268300	0.798600
C361	C36	0.717500	0.403100	0.816500
C371	C37	0.730700	0.807900	0.433900
C381	C38	0.693500	0.201000	0.693100
C391	C39	0.050600	0.835700	0.713600
C401	C40	0.121300	0.899900	0.751500
C411	C41	0.193500	0.299000	0.193100
C421	C42	0.837400	0.231700	0.298600
C431	C43	0.972400	0.800400	0.061400
C441	C44	0.523000	0.534800	0.253100
C451	C45	0.481200	0.034800	0.365200
C461	C46	0.472800	0.263900	0.506200
C471	C47	0.780000	0.593800	0.059000
C481	C48	0.101100	0.037300	0.787200
C491	C49	0.120500	0.163000	0.318000
C501	C50	0.853200	0.967900	0.717800
C511	C51	0.360100	0.408800	0.018200
C521	C52	0.550600	0.664300	0.213600
C531	C53	0.518800	0.965200	0.634800
C541	C54	0.720000	0.093800	0.441000
C551	C55	0.892900	0.537100	0.070900
C561	C56	0.944900	0.714800	0.870700
C571	C57	0.621300	0.600100	0.251500
C581	C58	0.023000	0.965200	0.753100
C591	C59	0.139900	0.908800	0.481800
C601	C60	0.094900	0.244400	0.068400
C611	C61	0.977000	0.034800	0.246900
C621	C62	0.601100	0.462700	0.287200
C631	C63	0.782500	0.903100	0.683500
C641	C64	0.806500	0.701000	0.806900
C651	C65	0.107100	0.462900	0.929100
C661	C66	0.220000	0.406200	0.941000
C671	C67	0.892700	0.316300	0.127400
C681	C68	0.444900	0.785200	0.370700
C691	C69	0.594900	0.255600	0.568400
C701	C70	0.392700	0.183700	0.627400
C711	C71	0.307300	0.232800	0.505300
C721	C72	0.192700	0.732800	0.994700
C731	C73	0.392900	0.962900	0.570900
C741	C74	0.269300	0.192100	0.566100
C751	C75	0.353200	0.532100	0.217800
C761	C76	0.282500	0.596900	0.183500
C771	C77	0.217500	0.096900	0.316500
C781	C78	0.860100	0.091200	0.518200
C791	C79	0.981200	0.465200	0.865200
C801	C80	0.280000	0.906200	0.559000
C811	C81	0.527200	0.736100	0.493800
C821	C82	0.378700	0.399900	0.748500
C831	C83	0.306500	0.799000	0.306900
C841	C84	0.949400	0.164300	0.286400
O11	O1	0.438700	0.598800	0.743000
O21	O2	0.938700	0.901200	0.243000
O31	O3	0.327200	0.255900	0.199100
O41	O4	0.791700	0.969400	0.153900
O51	O5	0.818400	0.729400	0.231000
O61	O6	0.169400	0.166800	0.945700
O71	O7	0.323300	0.851500	0.263000
O81	O8	0.887000	0.843400	0.430300
O91	O9	0.681600	0.229400	0.269000
O101	O10	0.593400	0.784700	0.160000
O111	O11	0.883600	0.397800	0.851900
O121	O12	0.075100	0.794000	0.120700
O131	O13	0.113000	0.156600	0.569700
O141	O14	0.406600	0.215300	0.840000
O151	O15	0.387000	0.656600	0.930300
O161	O16	0.830600	0.833200	0.054300
O171	O17	0.061300	0.098800	0.757000
O181	O18	0.176700	0.351500	0.237000
O191	O19	0.116400	0.602200	0.148100
O201	O20	0.093400	0.715300	0.660000
O211	O21	0.424900	0.294000	0.379300
O221	O22	0.383600	0.102200	0.351900
O231	O23	0.291700	0.530600	0.653900
O241	O24	0.823300	0.648500	0.763000
O251	O25	0.172800	0.755900	0.300900
O261	O26	0.672800	0.744100	0.800900
O271	O27	0.924900	0.206000	0.879300
O281	O28	0.561300	0.401200	0.257000
O291	O29	0.827200	0.244100	0.699100
O301	O30	0.318400	0.770600	0.731000
O311	O31	0.575100	0.706000	0.620700
O321	O32	0.613000	0.343400	0.069700
O331	O33	0.676700	0.148500	0.737000
O341	O34	0.330600	0.666800	0.554300
O351	O35	0.708300	0.469400	0.346100
O361	O36	0.181600	0.270600	0.769000
O371	O37	0.669400	0.333200	0.445700
O381	O38	0.906600	0.284700	0.340000
O391	O39	0.616400	0.897800	0.648100
O401	O40	0.208300	0.030600	0.846100
