data_RONSIY_clean_PM
_symmetry_space_group_name_H-M	'P1'
_cell_length_a	10.844500
_cell_length_b	13.789400
_cell_length_c	17.483900
_cell_angle_alpha	90.000000
_cell_angle_beta	90.000000
_cell_angle_gamma	100.429000
_symmetry_Int_Tables_number 1

loop_
_symmetry_equiv_pos_as_xyz
'x,y,z'

loop_
_atom_site_label
_atom_site_type_symbol
_atom_site_fract_x
_atom_site_fract_y
_atom_site_fract_z
Cu11	Cu1	0.460230	0.747340	0.252040
Cu21	Cu2	0.539770	0.252660	0.747960
Cu31	Cu3	0.039770	0.252660	0.752040
Cu41	Cu4	0.960230	0.747340	0.247960
H11	H1	0.872600	0.267500	0.883500
H21	H2	0.651900	0.240300	0.899700
H31	H3	0.898400	0.070200	0.079500
H41	H4	0.790800	0.025600	0.858900
H51	H5	0.398400	0.070200	0.420500
H61	H6	0.289100	0.736100	0.447400
H71	H7	0.747300	0.498100	0.861000
H81	H8	0.516600	0.192700	0.491900
H91	H9	0.171700	0.786200	0.459100
H101	H10	0.789100	0.736100	0.052600
H111	H11	0.252700	0.501900	0.139000
H121	H12	0.118900	0.939400	0.302100
H131	H13	0.826900	0.100000	0.427900
H141	H14	0.663200	0.544600	0.579000
H151	H15	0.497500	0.686100	0.981700
H161	H16	0.645200	0.139500	0.003700
H171	H17	0.627400	0.732500	0.383500
H181	H18	0.151900	0.240300	0.600300
H191	H19	0.091800	0.448600	0.411000
H201	H20	0.634600	0.044800	0.096600
H211	H21	0.336800	0.455400	0.421000
H221	H22	0.145200	0.139500	0.496300
H231	H23	0.881100	0.060600	0.697900
H241	H24	0.502500	0.313900	0.018300
H251	H25	0.834900	0.632600	0.931700
H261	H26	0.851000	0.364600	0.986200
H271	H27	0.675600	0.442100	0.680600
H281	H28	0.673100	0.900000	0.927900
H291	H29	0.671700	0.786200	0.040900
H301	H30	0.002500	0.313900	0.481700
H311	H31	0.290800	0.025600	0.641100
H321	H32	0.908200	0.551400	0.589000
H331	H33	0.324400	0.557900	0.319400
H341	H34	0.836800	0.455400	0.079000
H351	H35	0.351000	0.364600	0.513800
H361	H36	0.365400	0.955200	0.903400
H371	H37	0.828300	0.213800	0.540900
H381	H38	0.348100	0.759700	0.100300
H391	H39	0.149000	0.635400	0.013800
H401	H40	0.334900	0.632600	0.568300
H411	H41	0.173100	0.900000	0.572100
H421	H42	0.381100	0.060600	0.802100
H431	H43	0.209200	0.974400	0.141100
H441	H44	0.210900	0.263900	0.947400
H451	H45	0.591800	0.448600	0.089000
H461	H46	0.665100	0.367400	0.431700
H471	H47	0.710900	0.263900	0.552600
H481	H48	0.372600	0.267500	0.616500
H491	H49	0.865400	0.955200	0.596600
H501	H50	0.328300	0.213800	0.959100
H511	H51	0.752700	0.501900	0.361000
H521	H52	0.649000	0.635400	0.486200
H531	H53	0.709200	0.974400	0.358900
H541	H54	0.601600	0.929800	0.579500
H551	H55	0.247300	0.498100	0.639000
H561	H56	0.983400	0.807300	0.991900
H571	H57	0.848100	0.759700	0.399700
H581	H58	0.997500	0.686100	0.518300
H591	H59	0.408200	0.551400	0.911000
H601	H60	0.854800	0.860500	0.503700
H611	H61	0.354800	0.860500	0.996300
H621	H62	0.134600	0.044800	0.403400
H631	H63	0.163200	0.544600	0.921000
H641	H64	0.127400	0.732500	0.116500
H651	H65	0.326900	0.100000	0.072100
H661	H66	0.016600	0.192700	0.008100
H671	H67	0.483400	0.807300	0.508100
H681	H68	0.101600	0.929800	0.920500
H691	H69	0.175600	0.442100	0.819400
H701	H70	0.824400	0.557900	0.180600
H711	H71	0.618900	0.939400	0.197900
H721	H72	0.165100	0.367400	0.068300
C11	C1	0.236500	0.759360	0.485640
C21	C2	0.748100	0.616100	0.928180
C31	C3	0.435300	0.076540	0.843230
C41	C4	0.574700	0.987240	0.095870
C51	C5	0.548900	0.648000	0.957900
C61	C6	0.995000	0.567000	0.584800
C71	C7	0.505000	0.433000	0.084800
C81	C8	0.406100	0.818310	0.099690
C91	C9	0.962500	0.925500	0.160450
C101	C10	0.541000	0.008290	0.382240
C111	C11	0.495000	0.567000	0.915200
C121	C12	0.567700	0.675800	0.391170
C131	C13	0.425300	0.012760	0.904130
C141	C14	0.567300	0.509260	0.879050
C151	C15	0.409900	0.878490	0.036710
C161	C16	0.184900	0.159810	0.032070
C171	C17	0.515000	0.924920	0.577770
C181	C18	0.509100	0.419100	0.836430
C191	C19	0.397900	0.511590	0.414730
C201	C20	0.496000	0.966310	0.033490
C211	C21	0.602100	0.488410	0.585270
C221	C22	0.763500	0.240640	0.514360
C231	C23	0.056300	0.149120	0.035200
C241	C24	0.736500	0.759360	0.014360
C251	C25	0.995000	0.532120	0.033520
C261	C26	0.005000	0.433000	0.415200
C271	C27	0.804200	0.464640	0.385570
C281	C28	0.074700	0.987240	0.404130
C291	C29	0.176000	0.673370	0.534310
C301	C30	0.830600	0.981460	0.885280
C311	C31	0.067300	0.509260	0.620950
C321	C32	0.102100	0.488410	0.914730
C331	C33	0.248100	0.616100	0.571820
C341	C34	0.048900	0.648000	0.542100
C351	C35	0.067700	0.675800	0.108830
C361	C36	0.759900	0.906160	0.927220
C371	C37	0.951100	0.352000	0.457900
C381	C38	0.918400	0.382470	0.953120
C391	C39	0.537500	0.074500	0.660450
C401	C40	0.451100	0.352000	0.042100
C411	C41	0.935300	0.076540	0.656770
C421	C42	0.418400	0.382470	0.546880
C431	C43	0.330600	0.981460	0.614720
C441	C44	0.169400	0.018540	0.114720
C451	C45	0.432700	0.490740	0.120950
C461	C46	0.485000	0.075080	0.422230
C471	C47	0.324000	0.326630	0.034310
C481	C48	0.932700	0.490740	0.379050
C491	C49	0.041000	0.008290	0.117760
C501	C50	0.443700	0.850880	0.535200
C511	C51	0.959000	0.991710	0.882240
C521	C52	0.081600	0.617530	0.046880
C531	C53	0.684900	0.159810	0.467930
C541	C54	0.251900	0.383900	0.071820
C551	C55	0.590100	0.121510	0.963290
C561	C56	0.990900	0.580900	0.336430
C571	C57	0.890600	0.573890	0.146360
C581	C58	0.064700	0.923460	0.343230
C591	C59	0.740100	0.093840	0.427220
C601	C60	0.009100	0.419100	0.663570
C611	C61	0.015000	0.924920	0.922230
C621	C62	0.490900	0.580900	0.163570
C631	C63	0.581600	0.617530	0.453120
C641	C64	0.462500	0.925500	0.339550
C651	C65	0.304200	0.464640	0.114430
C661	C66	0.593900	0.181690	0.900310
C671	C67	0.556300	0.149120	0.464800
C681	C68	0.109400	0.426110	0.853640
C691	C69	0.669400	0.018540	0.385280
C701	C70	0.315100	0.840190	0.532070
C711	C71	0.090100	0.121510	0.536710
C721	C72	0.985000	0.075080	0.077770
C731	C73	0.495000	0.532120	0.466480
C741	C74	0.925300	0.012760	0.595870
C751	C75	0.504000	0.033690	0.966510
C761	C76	0.824000	0.326630	0.465690
C771	C77	0.695800	0.535360	0.885570
C781	C78	0.004000	0.033690	0.533490
C791	C79	0.751900	0.383900	0.428180
C801	C80	0.195800	0.535360	0.614430
C811	C81	0.037500	0.074500	0.839550
C821	C82	0.932300	0.324200	0.891170
C831	C83	0.564700	0.923460	0.156770
C841	C84	0.005000	0.467880	0.966480
C851	C85	0.390600	0.573890	0.353640
C861	C86	0.943700	0.850880	0.964800
C871	C87	0.432300	0.324200	0.608830
C881	C88	0.259900	0.906160	0.572780
C891	C89	0.263500	0.240640	0.985640
C901	C90	0.815100	0.840190	0.967930
C911	C91	0.996000	0.966310	0.466510
C921	C92	0.906100	0.818310	0.400310
C931	C93	0.609400	0.426110	0.646360
C941	C94	0.240100	0.093840	0.072780
C951	C95	0.505000	0.467880	0.533520
C961	C96	0.093900	0.181690	0.599690
C971	C97	0.909900	0.878490	0.463290
C981	C98	0.897900	0.511590	0.085270
C991	C99	0.459000	0.991710	0.617760
C1001	C100	0.676000	0.673370	0.965690
N11	N1	0.474150	0.655590	0.341800
N21	N2	0.018740	0.160120	0.659730
N31	N3	0.481260	0.839880	0.159730
N41	N4	0.518740	0.160120	0.840270
N51	N5	0.981260	0.839880	0.340270
N61	N6	0.525850	0.344410	0.658200
N71	N7	0.974150	0.655590	0.158200
N81	N8	0.025850	0.344410	0.841800
O11	O1	0.351680	0.926950	0.327210
O21	O2	0.604100	0.598550	0.174760
O31	O3	0.851680	0.926950	0.172790
O41	O4	0.020300	0.857700	0.181830
O51	O5	0.479700	0.142300	0.681830
O61	O6	0.520300	0.857700	0.318170
O71	O7	0.648320	0.073050	0.672790
O81	O8	0.104100	0.598550	0.325240
O91	O9	0.085400	0.365220	0.686120
O101	O10	0.585400	0.365220	0.813880
O111	O11	0.414600	0.634780	0.186120
O121	O12	0.148320	0.073050	0.827210
O131	O13	0.395900	0.401450	0.825240
O141	O14	0.979700	0.142300	0.818170
O151	O15	0.895900	0.401450	0.674760
O161	O16	0.914600	0.634780	0.313880
