data_RONZID_clean_PM
_symmetry_space_group_name_H-M	'P1'
_cell_length_a	9.042000
_cell_length_b	9.042000
_cell_length_c	12.027000
_cell_angle_alpha	90.000000
_cell_angle_beta	90.000000
_cell_angle_gamma	90.000000
_symmetry_Int_Tables_number 1

loop_
_symmetry_equiv_pos_as_xyz
'x,y,z'

loop_
_atom_site_label
_atom_site_type_symbol
_atom_site_fract_x
_atom_site_fract_y
_atom_site_fract_z
Cd11	Cd1	0.690220	0.690220	0.000000
Cd21	Cd2	0.309780	0.309780	0.500000
Cd31	Cd3	0.809780	0.190220	0.750000
Cd41	Cd4	0.190220	0.809780	0.250000
C11	C1	0.733000	0.887600	0.893900
C21	C2	0.267000	0.112400	0.393900
C31	C3	0.612400	0.233000	0.643900
C41	C4	0.387600	0.767000	0.143900
C51	C5	0.767000	0.387600	0.856100
C61	C6	0.233000	0.612400	0.356100
C71	C7	0.887600	0.733000	0.106100
C81	C8	0.112400	0.267000	0.606100
N11	N1	0.489300	0.739400	0.094100
N21	N2	0.510700	0.260600	0.594100
N31	N3	0.760600	0.989300	0.844100
N41	N4	0.239400	0.010700	0.344100
N51	N5	0.010700	0.239400	0.655900
N61	N6	0.989300	0.760600	0.155900
N71	N7	0.739400	0.489300	0.905900
N81	N8	0.260600	0.510700	0.405900
