data_RONZUP_clean_h_PM
_symmetry_space_group_name_H-M	'P1'
_cell_length_a	11.088800
_cell_length_b	11.088800
_cell_length_c	11.088800
_cell_angle_alpha	107.557000
_cell_angle_beta	109.112000
_cell_angle_gamma	111.773000
_symmetry_Int_Tables_number 1

loop_
_symmetry_equiv_pos_as_xyz
'x,y,z'

loop_
_atom_site_label
_atom_site_type_symbol
_atom_site_fract_x
_atom_site_fract_y
_atom_site_fract_z
Cd11	Cd1	0.250000	0.127720	0.877720
Ag11	Ag1	0.280250	0.641570	0.885480
Ag21	Ag2	0.219750	0.105230	0.361320
C11	C1	0.281300	0.820200	0.859700
C21	C2	0.279200	0.468400	0.922000
C31	C3	0.912600	0.017400	0.654200
C41	C4	0.757200	0.932200	0.575400
C51	C5	0.683000	0.822000	0.607000
C61	C6	0.768800	0.802800	0.716000
C71	C7	0.920700	0.888900	0.783600
C81	C8	0.218700	0.078400	0.538900
C91	C9	0.220800	0.142800	0.189200
C101	C10	0.587400	0.241600	0.104800
C111	C11	0.742800	0.318200	0.175000
C121	C12	0.817000	0.424000	0.139000
C131	C13	0.731200	0.447200	0.034000
C141	C14	0.579300	0.362900	0.968200
N11	N1	0.268700	0.916900	0.852200
N21	N2	0.267200	0.363400	0.922600
N31	N3	0.992800	0.996200	0.755400
N41	N4	0.231300	0.083500	0.648200
N51	N5	0.232800	0.155400	0.096200
N61	N6	0.507200	0.262600	0.003400
Cd21	Cd2	0.750000	0.372280	0.622280
Ag31	Ag3	0.256090	0.394770	0.614520
Ag41	Ag4	0.243910	0.858430	0.138680
C151	C15	0.460500	0.421600	0.640300
C161	C16	0.046400	0.357200	0.578000
C171	C17	0.863200	0.258400	0.845800
C181	C18	0.856800	0.181800	0.924600
C191	C19	0.715000	0.076000	0.893000
C201	C20	0.586800	0.052800	0.784000
C211	C21	0.605300	0.137100	0.716400
C221	C22	0.039500	0.679800	0.961100
C231	C23	0.453600	0.031600	0.310800
C241	C24	0.636800	0.482600	0.395200
C251	C25	0.643200	0.567800	0.325000
C261	C26	0.785000	0.678000	0.361000
C271	C27	0.913200	0.697200	0.466000
C281	C28	0.894700	0.611100	0.531800
N71	N7	0.564700	0.416500	0.647800
N81	N8	0.940800	0.344600	0.577400
N91	N9	0.740800	0.237400	0.744600
N101	N10	0.935300	0.583100	0.851800
N111	N11	0.559200	0.136600	0.403800
N121	N12	0.759200	0.503800	0.496600
H11	H1	0.975320	0.108990	0.632880
H21	H2	0.692640	0.952100	0.487600
H31	H3	0.555660	0.750690	0.544290
H41	H4	0.711290	0.717050	0.745900
H51	H5	0.993950	0.872370	0.868880
H61	H6	0.524680	0.157560	0.133660
H71	H7	0.807360	0.294960	0.259460
H81	H8	0.944340	0.488630	0.195030
H91	H9	0.788710	0.534610	0.005750
H101	H10	0.506050	0.374920	0.878420
H111	H11	0.976110	0.342440	0.867120
H121	H12	0.964510	0.205040	0.012400
H131	H13	0.706400	0.011370	0.955710
H141	H14	0.471150	0.965390	0.754100
H151	H15	0.503500	0.125080	0.631120
H161	H16	0.523890	0.391010	0.366340
H171	H17	0.535490	0.547900	0.240540
H181	H18	0.793600	0.749310	0.304970
H191	H19	0.028850	0.782950	0.494250
H201	H20	0.996500	0.627630	0.621580
