data_ROQDIM03_clean_PM
_symmetry_space_group_name_H-M	'P1'
_cell_length_a	12.898700
_cell_length_b	12.898700
_cell_length_c	12.898700
_cell_angle_alpha	90.000000
_cell_angle_beta	90.000000
_cell_angle_gamma	90.000000
_symmetry_Int_Tables_number 1

loop_
_symmetry_equiv_pos_as_xyz
'x,y,z'

loop_
_atom_site_label
_atom_site_type_symbol
_atom_site_fract_x
_atom_site_fract_y
_atom_site_fract_z
N11	N1	0.643010	0.939890	0.956190
N21	N2	0.725480	0.980960	0.965430
N31	N3	0.807040	0.017360	0.971960
N41	N4	0.856990	0.060110	0.456190
N51	N5	0.774520	0.019040	0.465430
N61	N6	0.692960	0.982640	0.471960
N71	N7	0.356990	0.439890	0.543810
N81	N8	0.274520	0.480960	0.534570
N91	N9	0.192960	0.517360	0.528040
N101	N10	0.143010	0.560110	0.043810
N111	N11	0.225480	0.519040	0.034570
N121	N12	0.307040	0.482640	0.028040
N131	N13	0.956190	0.643010	0.939890
N141	N14	0.965430	0.725480	0.980960
N151	N15	0.971960	0.807040	0.017360
N161	N16	0.456190	0.856990	0.060110
N171	N17	0.465430	0.774520	0.019040
N181	N18	0.471960	0.692960	0.982640
N191	N19	0.543810	0.356990	0.439890
N201	N20	0.534570	0.274520	0.480960
N211	N21	0.528040	0.192960	0.517360
N221	N22	0.043810	0.143010	0.560110
N231	N23	0.034570	0.225480	0.519040
N241	N24	0.028040	0.307040	0.482640
N251	N25	0.939890	0.956190	0.643010
N261	N26	0.980960	0.965430	0.725480
N271	N27	0.017360	0.971960	0.807040
N281	N28	0.060110	0.456190	0.856990
N291	N29	0.019040	0.465430	0.774520
N301	N30	0.982640	0.471960	0.692960
N311	N31	0.439890	0.543810	0.356990
N321	N32	0.480960	0.534570	0.274520
N331	N33	0.517360	0.528040	0.192960
N341	N34	0.560110	0.043810	0.143010
N351	N35	0.519040	0.034570	0.225480
N361	N36	0.482640	0.028040	0.307040
N371	N37	0.356990	0.060110	0.043810
N381	N38	0.274520	0.019040	0.034570
N391	N39	0.192960	0.982640	0.028040
N401	N40	0.143010	0.939890	0.543810
N411	N41	0.225480	0.980960	0.534570
N421	N42	0.307040	0.017360	0.528040
N431	N43	0.643010	0.560110	0.456190
N441	N44	0.725480	0.519040	0.465430
N451	N45	0.807040	0.482640	0.471960
N461	N46	0.856990	0.439890	0.956190
N471	N47	0.774520	0.480960	0.965430
N481	N48	0.692960	0.517360	0.971960
N491	N49	0.043810	0.356990	0.060110
N501	N50	0.034570	0.274520	0.019040
N511	N51	0.028040	0.192960	0.982640
N521	N52	0.543810	0.143010	0.939890
N531	N53	0.534570	0.225480	0.980960
N541	N54	0.528040	0.307040	0.017360
N551	N55	0.456190	0.643010	0.560110
N561	N56	0.465430	0.725480	0.519040
N571	N57	0.471960	0.807040	0.482640
N581	N58	0.956190	0.856990	0.439890
N591	N59	0.965430	0.774520	0.480960
N601	N60	0.971960	0.692960	0.517360
N611	N61	0.060110	0.043810	0.356990
N621	N62	0.019040	0.034570	0.274520
N631	N63	0.982640	0.028040	0.192960
N641	N64	0.939890	0.543810	0.143010
N651	N65	0.980960	0.534570	0.225480
N661	N66	0.017360	0.528040	0.307040
N671	N67	0.560110	0.456190	0.643010
N681	N68	0.519040	0.465430	0.725480
N691	N69	0.482640	0.471960	0.807040
N701	N70	0.439890	0.956190	0.856990
N711	N71	0.480960	0.965430	0.774520
N721	N72	0.517360	0.971960	0.692960
Fe11	Fe1	0.500000	0.000000	0.000000
Fe21	Fe2	0.000000	0.000000	0.500000
Fe31	Fe3	0.500000	0.500000	0.500000
Fe41	Fe4	0.000000	0.500000	0.000000
Na11	Na1	0.000000	0.000000	0.000000
Na21	Na2	0.500000	0.000000	0.500000
Na31	Na3	0.000000	0.500000	0.500000
Na41	Na4	0.500000	0.500000	0.000000
