data_ROQFUA06_clean_PM
_symmetry_space_group_name_H-M	'P1'
_cell_length_a	13.253000
_cell_length_b	13.253000
_cell_length_c	13.253000
_cell_angle_alpha	90.000000
_cell_angle_beta	90.000000
_cell_angle_gamma	90.000000
_symmetry_Int_Tables_number 1

loop_
_symmetry_equiv_pos_as_xyz
'x,y,z'

loop_
_atom_site_label
_atom_site_type_symbol
_atom_site_fract_x
_atom_site_fract_y
_atom_site_fract_z
N11	N1	0.636790	0.937120	0.956020
N21	N2	0.715900	0.981300	0.963100
N31	N3	0.792400	0.020600	0.967900
N41	N4	0.863210	0.062880	0.456020
N51	N5	0.784100	0.018700	0.463100
N61	N6	0.707600	0.979400	0.467900
N71	N7	0.363210	0.437120	0.543980
N81	N8	0.284100	0.481300	0.536900
N91	N9	0.207600	0.520600	0.532100
N101	N10	0.136790	0.562880	0.043980
N111	N11	0.215900	0.518700	0.036900
N121	N12	0.292400	0.479400	0.032100
N131	N13	0.956020	0.636790	0.937120
N141	N14	0.963100	0.715900	0.981300
N151	N15	0.967900	0.792400	0.020600
N161	N16	0.456020	0.863210	0.062880
N171	N17	0.463100	0.784100	0.018700
N181	N18	0.467900	0.707600	0.979400
N191	N19	0.543980	0.363210	0.437120
N201	N20	0.536900	0.284100	0.481300
N211	N21	0.532100	0.207600	0.520600
N221	N22	0.043980	0.136790	0.562880
N231	N23	0.036900	0.215900	0.518700
N241	N24	0.032100	0.292400	0.479400
N251	N25	0.937120	0.956020	0.636790
N261	N26	0.981300	0.963100	0.715900
N271	N27	0.020600	0.967900	0.792400
N281	N28	0.062880	0.456020	0.863210
N291	N29	0.018700	0.463100	0.784100
N301	N30	0.979400	0.467900	0.707600
N311	N31	0.437120	0.543980	0.363210
N321	N32	0.481300	0.536900	0.284100
N331	N33	0.520600	0.532100	0.207600
N341	N34	0.562880	0.043980	0.136790
N351	N35	0.518700	0.036900	0.215900
N361	N36	0.479400	0.032100	0.292400
N371	N37	0.363210	0.062880	0.043980
N381	N38	0.284100	0.018700	0.036900
N391	N39	0.207600	0.979400	0.032100
N401	N40	0.136790	0.937120	0.543980
N411	N41	0.215900	0.981300	0.536900
N421	N42	0.292400	0.020600	0.532100
N431	N43	0.636790	0.562880	0.456020
N441	N44	0.715900	0.518700	0.463100
N451	N45	0.792400	0.479400	0.467900
N461	N46	0.863210	0.437120	0.956020
N471	N47	0.784100	0.481300	0.963100
N481	N48	0.707600	0.520600	0.967900
N491	N49	0.043980	0.363210	0.062880
N501	N50	0.036900	0.284100	0.018700
N511	N51	0.032100	0.207600	0.979400
N521	N52	0.543980	0.136790	0.937120
N531	N53	0.536900	0.215900	0.981300
N541	N54	0.532100	0.292400	0.020600
N551	N55	0.456020	0.636790	0.562880
N561	N56	0.463100	0.715900	0.518700
N571	N57	0.467900	0.792400	0.479400
N581	N58	0.956020	0.863210	0.437120
N591	N59	0.963100	0.784100	0.481300
N601	N60	0.967900	0.707600	0.520600
N611	N61	0.062880	0.043980	0.363210
N621	N62	0.018700	0.036900	0.284100
N631	N63	0.979400	0.032100	0.207600
N641	N64	0.937120	0.543980	0.136790
N651	N65	0.981300	0.536900	0.215900
N661	N66	0.020600	0.532100	0.292400
N671	N67	0.562880	0.456020	0.636790
N681	N68	0.518700	0.463100	0.715900
N691	N69	0.479400	0.467900	0.792400
N701	N70	0.437120	0.956020	0.863210
N711	N71	0.481300	0.963100	0.784100
N721	N72	0.520600	0.967900	0.707600
Fe11	Fe1	0.500000	0.000000	0.000000
Fe21	Fe2	0.000000	0.000000	0.500000
Fe31	Fe3	0.500000	0.500000	0.500000
Fe41	Fe4	0.000000	0.500000	0.000000
K11	K1	0.000000	0.000000	0.000000
K21	K2	0.500000	0.000000	0.500000
K31	K3	0.000000	0.500000	0.500000
K41	K4	0.500000	0.500000	0.000000
