data_ROQNES01_clean_PM
_symmetry_space_group_name_H-M	'P1'
_cell_length_a	13.067600
_cell_length_b	13.067600
_cell_length_c	13.067600
_cell_angle_alpha	90.000000
_cell_angle_beta	90.000000
_cell_angle_gamma	90.000000
_symmetry_Int_Tables_number 1

loop_
_symmetry_equiv_pos_as_xyz
'x,y,z'

loop_
_atom_site_label
_atom_site_type_symbol
_atom_site_fract_x
_atom_site_fract_y
_atom_site_fract_z
N11	N1	0.435040	0.455230	0.134990
N21	N2	0.480050	0.460260	0.214180
N31	N3	0.520700	0.463200	0.292540
N41	N4	0.064960	0.544770	0.634990
N51	N5	0.019950	0.539740	0.714180
N61	N6	0.979300	0.536800	0.792540
N71	N7	0.564960	0.955230	0.365010
N81	N8	0.519950	0.960260	0.285820
N91	N9	0.479300	0.963200	0.207460
N101	N10	0.935040	0.044770	0.865010
N111	N11	0.980050	0.039740	0.785820
N121	N12	0.020700	0.036800	0.707460
N131	N13	0.134990	0.435040	0.455230
N141	N14	0.214180	0.480050	0.460260
N151	N15	0.292540	0.520700	0.463200
N161	N16	0.634990	0.064960	0.544770
N171	N17	0.714180	0.019950	0.539740
N181	N18	0.792540	0.979300	0.536800
N191	N19	0.365010	0.564960	0.955230
N201	N20	0.285820	0.519950	0.960260
N211	N21	0.207460	0.479300	0.963200
N221	N22	0.865010	0.935040	0.044770
N231	N23	0.785820	0.980050	0.039740
N241	N24	0.707460	0.020700	0.036800
N251	N25	0.455230	0.134990	0.435040
N261	N26	0.460260	0.214180	0.480050
N271	N27	0.463200	0.292540	0.520700
N281	N28	0.544770	0.634990	0.064960
N291	N29	0.539740	0.714180	0.019950
N301	N30	0.536800	0.792540	0.979300
N311	N31	0.955230	0.365010	0.564960
N321	N32	0.960260	0.285820	0.519950
N331	N33	0.963200	0.207460	0.479300
N341	N34	0.044770	0.865010	0.935040
N351	N35	0.039740	0.785820	0.980050
N361	N36	0.036800	0.707460	0.020700
N371	N37	0.564960	0.544770	0.865010
N381	N38	0.519950	0.539740	0.785820
N391	N39	0.479300	0.536800	0.707460
N401	N40	0.935040	0.455230	0.365010
N411	N41	0.980050	0.460260	0.285820
N421	N42	0.020700	0.463200	0.207460
N431	N43	0.435040	0.044770	0.634990
N441	N44	0.480050	0.039740	0.714180
N451	N45	0.520700	0.036800	0.792540
N461	N46	0.064960	0.955230	0.134990
N471	N47	0.019950	0.960260	0.214180
N481	N48	0.979300	0.963200	0.292540
N491	N49	0.865010	0.564960	0.544770
N501	N50	0.785820	0.519950	0.539740
N511	N51	0.707460	0.479300	0.536800
N521	N52	0.365010	0.935040	0.455230
N531	N53	0.285820	0.980050	0.460260
N541	N54	0.207460	0.020700	0.463200
N551	N55	0.634990	0.435040	0.044770
N561	N56	0.714180	0.480050	0.039740
N571	N57	0.792540	0.520700	0.036800
N581	N58	0.134990	0.064960	0.955230
N591	N59	0.214180	0.019950	0.960260
N601	N60	0.292540	0.979300	0.963200
N611	N61	0.544770	0.865010	0.564960
N621	N62	0.539740	0.785820	0.519950
N631	N63	0.536800	0.707460	0.479300
N641	N64	0.455230	0.365010	0.935040
N651	N65	0.460260	0.285820	0.980050
N661	N66	0.463200	0.207460	0.020700
N671	N67	0.044770	0.634990	0.435040
N681	N68	0.039740	0.714180	0.480050
N691	N69	0.036800	0.792540	0.520700
N701	N70	0.955230	0.134990	0.064960
N711	N71	0.960260	0.214180	0.019950
N721	N72	0.963200	0.292540	0.979300
Cr11	Cr1	0.500000	0.500000	0.000000
Cr21	Cr2	0.000000	0.500000	0.500000
Cr31	Cr3	0.500000	0.000000	0.500000
Cr41	Cr4	0.000000	0.000000	0.000000
K11	K1	0.500000	0.500000	0.500000
K21	K2	0.000000	0.500000	0.000000
K31	K3	0.500000	0.000000	0.000000
K41	K4	0.000000	0.000000	0.500000
