data_ROQVIE_clean_PM
_symmetry_space_group_name_H-M	'P1'
_cell_length_a	7.225900
_cell_length_b	15.142000
_cell_length_c	18.698300
_cell_angle_alpha	90.000000
_cell_angle_beta	90.000000
_cell_angle_gamma	93.144000
_symmetry_Int_Tables_number 1

loop_
_symmetry_equiv_pos_as_xyz
'x,y,z'

loop_
_atom_site_label
_atom_site_type_symbol
_atom_site_fract_x
_atom_site_fract_y
_atom_site_fract_z
Zn11	Zn1	0.362470	0.980770	0.920330
Zn21	Zn2	0.362470	0.480770	0.579670
Zn31	Zn3	0.637530	0.519230	0.420330
Zn41	Zn4	0.637530	0.019230	0.079670
H11	H1	0.303100	0.595000	0.334700
H21	H2	0.940300	0.969500	0.174400
H31	H3	0.303100	0.095000	0.165300
H41	H4	0.987400	0.135400	0.743900
H51	H5	0.987400	0.635400	0.756100
H61	H6	0.059700	0.030500	0.825600
H71	H7	0.696900	0.405000	0.665300
H81	H8	0.033800	0.590900	0.518700
H91	H9	0.966200	0.409100	0.481300
H101	H10	0.012600	0.364600	0.243900
H111	H11	0.059700	0.530500	0.674400
H121	H12	0.568900	0.624600	0.665800
H131	H13	0.431100	0.875400	0.165800
H141	H14	0.568900	0.124600	0.834200
H151	H15	0.966200	0.909100	0.018700
H161	H16	0.489300	0.270600	0.251000
H171	H17	0.940300	0.469500	0.325600
H181	H18	0.696900	0.905000	0.834700
H191	H19	0.012600	0.864600	0.256100
H201	H20	0.489300	0.770600	0.249000
H211	H21	0.431100	0.375400	0.334200
H221	H22	0.510700	0.229400	0.751000
H231	H23	0.510700	0.729400	0.749000
H241	H24	0.033800	0.090900	0.981300
C11	C1	0.584600	0.310000	0.266000
C21	C2	0.240000	0.195300	0.738300
C31	C3	0.877900	0.417100	0.516540
C41	C4	0.803700	0.236000	0.186220
C51	C5	0.152100	0.571900	0.689000
C61	C6	0.803700	0.736000	0.313780
C71	C7	0.043900	0.845900	0.878080
C81	C8	0.847900	0.928100	0.189000
C91	C9	0.270200	0.085000	0.117800
C101	C10	0.877900	0.917100	0.983460
C111	C11	0.891900	0.889700	0.913250
C121	C12	0.196300	0.764000	0.813780
C131	C13	0.415400	0.690000	0.734000
C141	C14	0.760000	0.804700	0.261700
C151	C15	0.449600	0.126500	0.815800
C161	C16	0.196300	0.264000	0.686220
C171	C17	0.108100	0.110300	0.086750
C181	C18	0.729800	0.415000	0.617800
C191	C19	0.152100	0.071900	0.811000
C201	C20	0.122100	0.082900	0.016540
C211	C21	0.892400	0.365400	0.261500
C221	C22	0.729800	0.915000	0.882200
C231	C23	0.415400	0.190000	0.766000
C241	C24	0.240000	0.695300	0.761700
C251	C25	0.956100	0.154100	0.121920
C261	C26	0.956100	0.654100	0.378080
C271	C27	0.892400	0.865400	0.238500
C281	C28	0.847900	0.428100	0.311000
C291	C29	0.891900	0.389700	0.586750
C301	C30	0.760000	0.304700	0.238300
C311	C31	0.550400	0.873500	0.184200
C321	C32	0.108100	0.610300	0.413250
C331	C33	0.584600	0.810000	0.234000
C341	C34	0.043900	0.345900	0.621920
C351	C35	0.270200	0.585000	0.382200
C361	C36	0.449600	0.626500	0.684200
C371	C37	0.107600	0.134600	0.761500
C381	C38	0.122100	0.582900	0.483460
C391	C39	0.550400	0.373500	0.315800
C401	C40	0.107600	0.634600	0.738500
N11	N1	0.627500	0.955800	0.929610
N21	N2	0.677400	0.181800	0.156610
N31	N3	0.776800	0.627890	0.385360
N41	N4	0.776800	0.127890	0.114640
N51	N5	0.981400	0.721800	0.333190
N61	N6	0.322600	0.818200	0.843390
N71	N7	0.719700	0.956560	0.993280
N81	N8	0.280300	0.543440	0.493280
N91	N9	0.223200	0.872110	0.885360
N101	N10	0.679600	0.932500	0.160930
N111	N11	0.322600	0.318200	0.656610
N121	N12	0.320400	0.567500	0.660930
N131	N13	0.372500	0.544200	0.429610
N141	N14	0.223200	0.372110	0.614640
N151	N15	0.372500	0.044200	0.070390
N161	N16	0.018600	0.778200	0.833190
N171	N17	0.677400	0.681800	0.343390
N181	N18	0.320400	0.067500	0.839070
N191	N19	0.627500	0.455800	0.570390
N201	N20	0.679600	0.432500	0.339070
N211	N21	0.280300	0.043440	0.006720
N221	N22	0.719700	0.456560	0.506720
N231	N23	0.981400	0.221800	0.166810
N241	N24	0.018600	0.278200	0.666810
