data_RORVAX_clean_PM
_symmetry_space_group_name_H-M	'P1'
_cell_length_a	8.654700
_cell_length_b	17.372000
_cell_length_c	17.372000
_cell_angle_alpha	120.000000
_cell_angle_beta	90.000000
_cell_angle_gamma	90.000000
_symmetry_Int_Tables_number 1

loop_
_symmetry_equiv_pos_as_xyz
'x,y,z'

loop_
_atom_site_label
_atom_site_type_symbol
_atom_site_fract_x
_atom_site_fract_y
_atom_site_fract_z
Co11	Co1	0.000000	0.530310	0.000000
Co21	Co2	0.333330	0.469690	0.469690
Co31	Co3	0.666670	0.000000	0.530310
H11	H1	0.548730	0.880400	0.691900
H21	H2	0.527570	0.041500	0.241100
H31	H3	0.827600	0.153500	0.578400
H41	H4	0.139100	0.241100	0.041500
H51	H5	0.860900	0.199600	0.958500
H61	H6	0.160930	0.424900	0.846500
H71	H7	0.882070	0.811500	0.119600
H81	H8	0.194230	0.758900	0.800400
H91	H9	0.663070	0.234300	0.535300
H101	H10	0.329730	0.464700	0.699000
H111	H11	0.336930	0.699000	0.464700
H121	H12	0.117930	0.691900	0.880400
H131	H13	0.472430	0.800400	0.758900
H141	H14	0.215400	0.308100	0.188500
H151	H15	0.784600	0.119600	0.811500
H161	H16	0.505730	0.846500	0.424900
H171	H17	0.996400	0.301000	0.765700
H181	H18	0.494270	0.421600	0.575100
H191	H19	0.839070	0.578400	0.153500
H201	H20	0.003600	0.535300	0.234300
H211	H21	0.172400	0.575100	0.421600
H221	H22	0.805770	0.958500	0.199600
H231	H23	0.451270	0.188500	0.308100
H241	H24	0.670270	0.765700	0.301000
C11	C1	0.490930	0.827210	0.659250
C21	C2	0.175730	0.659250	0.827210
C31	C3	0.837770	0.679360	0.153020
C41	C4	0.452030	0.796720	0.570930
C51	C5	0.824270	0.832040	0.172790
C61	C6	0.358930	0.701420	0.654400
C71	C7	0.214630	0.570930	0.796720
C81	C8	0.828900	0.153020	0.679360
C91	C9	0.842400	0.172790	0.832040
C101	C10	0.301930	0.524740	0.719450
C111	C11	0.031400	0.475260	0.194710
C121	C12	0.968600	0.280550	0.805290
C131	C13	0.495570	0.320640	0.473660
C141	C14	0.348730	0.565110	0.672150
C151	C15	0.881300	0.203280	0.774210
C161	C16	0.171100	0.473660	0.320640
C171	C17	0.974400	0.298580	0.952980
C181	C18	0.015400	0.327850	0.892960
C191	C19	0.641070	0.047020	0.345600
C201	C20	0.157600	0.340750	0.167960
C211	C21	0.547970	0.225790	0.429070
C221	C22	0.777870	0.919400	0.220700
C231	C23	0.682070	0.107040	0.434890
C241	C24	0.307730	0.654400	0.701420
C251	C25	0.364730	0.719450	0.524740
C261	C26	0.692270	0.952980	0.298580
C271	C27	0.635270	0.194710	0.475260
C281	C28	0.504430	0.846980	0.526340
C291	C29	0.555470	0.080600	0.301300
C301	C30	0.118700	0.429070	0.225790
C311	C31	0.444530	0.779300	0.698700
C321	C32	0.785370	0.774210	0.203280
C331	C33	0.111200	0.301300	0.080600
C341	C34	0.025600	0.345600	0.047020
C351	C35	0.698070	0.805290	0.280550
C361	C36	0.651270	0.892960	0.327850
C371	C37	0.222130	0.698700	0.779300
C381	C38	0.984600	0.434890	0.107040
C391	C39	0.509070	0.167960	0.340750
C401	C40	0.888800	0.220700	0.919400
C411	C41	0.162230	0.526340	0.846980
C421	C42	0.317930	0.672150	0.565110
O11	O1	0.240900	0.428190	0.346190
O21	O2	0.471430	0.813290	0.443210
O31	O3	0.897400	0.480300	0.077360
O41	O4	0.092430	0.571810	0.918000
O51	O5	0.425770	0.346190	0.428190
O61	O6	0.759100	0.082000	0.653810
O71	O7	0.804770	0.629920	0.186710
O81	O8	0.861900	0.186710	0.629920
O91	O9	0.102600	0.402940	0.922640
O101	O10	0.435930	0.519700	0.597060
O111	O11	0.528570	0.370080	0.556790
O121	O12	0.564070	0.922640	0.402940
O131	O13	0.769270	0.077360	0.480300
O141	O14	0.907570	0.653810	0.082000
O151	O15	0.574230	0.918000	0.571810
O161	O16	0.195230	0.443210	0.813290
O171	O17	0.138100	0.556790	0.370080
O181	O18	0.230730	0.597060	0.519700
