data_ROSCEH_clean_PM
_symmetry_space_group_name_H-M	'P1'
_cell_length_a	14.299000
_cell_length_b	19.031000
_cell_length_c	19.319400
_cell_angle_alpha	119.507000
_cell_angle_beta	90.000000
_cell_angle_gamma	90.000000
_symmetry_Int_Tables_number 1

loop_
_symmetry_equiv_pos_as_xyz
'x,y,z'

loop_
_atom_site_label
_atom_site_type_symbol
_atom_site_fract_x
_atom_site_fract_y
_atom_site_fract_z
Co11	Co1	0.666610	0.672110	0.766200
Co21	Co2	0.666610	0.827890	0.233800
Co31	Co3	0.833390	0.094090	0.766200
Co41	Co4	0.833390	0.405910	0.233800
Co51	Co5	0.333390	0.327890	0.233800
Co61	Co6	0.333390	0.172110	0.766200
Co71	Co7	0.166610	0.905910	0.233800
Co81	Co8	0.166610	0.594090	0.766200
H11	H1	0.701400	0.818800	0.743800
H21	H2	0.626400	0.931500	0.757800
H31	H3	0.464900	0.935000	0.758800
H41	H4	0.464400	0.715200	0.737000
H51	H5	0.314200	0.779600	0.746800
H61	H6	0.628700	0.631900	0.593400
H71	H7	0.616800	0.525100	0.467200
H81	H8	0.614800	0.395000	0.447400
H91	H9	0.643600	0.488600	0.682600
H101	H10	0.635200	0.346800	0.606400
H111	H11	0.833300	0.735900	0.887400
H121	H12	0.873100	0.845300	0.007600
H131	H13	0.766800	0.949600	0.071800
H141	H14	0.586400	0.825200	0.896000
H151	H15	0.603300	0.007900	0.073200
H161	H16	0.701400	0.681200	0.256200
H171	H17	0.626400	0.568500	0.242200
H181	H18	0.464900	0.565000	0.241200
H191	H19	0.464400	0.784800	0.263000
H201	H20	0.314200	0.720400	0.253200
H211	H21	0.628700	0.868100	0.406600
H221	H22	0.616800	0.974900	0.532800
H231	H23	0.614800	0.105000	0.552600
H241	H24	0.643600	0.011400	0.317400
H251	H25	0.635200	0.153200	0.393600
H261	H26	0.833300	0.764100	0.112600
H271	H27	0.873100	0.654700	0.992400
H281	H28	0.766800	0.550400	0.928200
H291	H29	0.586400	0.674800	0.104000
H301	H30	0.603300	0.492100	0.926800
H311	H31	0.798600	0.925000	0.743800
H321	H32	0.873600	0.826300	0.757800
H331	H33	0.035100	0.823800	0.758800
H341	H34	0.035600	0.021800	0.737000
H351	H35	0.185800	0.967200	0.746800
H361	H36	0.871300	0.961500	0.593400
H371	H37	0.883200	0.942100	0.467200
H381	H38	0.885200	0.052400	0.447400
H391	H39	0.856400	0.194000	0.682600
H401	H40	0.864800	0.259600	0.606400
H411	H41	0.666700	0.151500	0.887400
H421	H42	0.626900	0.162300	0.007600
H431	H43	0.733200	0.122200	0.071800
H441	H44	0.913600	0.070800	0.896000
H451	H45	0.896700	0.065300	0.073200
H461	H46	0.798600	0.575000	0.256200
H471	H47	0.873600	0.673700	0.242200
H481	H48	0.035100	0.676200	0.241200
H491	H49	0.035600	0.478200	0.263000
H501	H50	0.185800	0.532800	0.253200
H511	H51	0.871300	0.538500	0.406600
H521	H52	0.883200	0.557900	0.532800
H531	H53	0.885200	0.447600	0.552600
H541	H54	0.856400	0.306000	0.317400
H551	H55	0.864800	0.240400	0.393600
H561	H56	0.666700	0.348500	0.112600
H571	H57	0.626900	0.337700	0.992400
H581	H58	0.733200	0.377800	0.928200
H591	H59	0.913600	0.429200	0.104000
H601	H60	0.896700	0.434700	0.926800
H611	H61	0.298600	0.181200	0.256200
H621	H62	0.373600	0.068500	0.242200
H631	H63	0.535100	0.065000	0.241200
H641	H64	0.535600	0.284800	0.263000
H651	H65	0.685800	0.220400	0.253200
H661	H66	0.371300	0.368100	0.406600
H671	H67	0.383200	0.474900	0.532800
H681	H68	0.385200	0.605000	0.552600
H691	H69	0.356400	0.511400	0.317400
H701	H70	0.364800	0.653200	0.393600
H711	H71	0.166700	0.264100	0.112600
H721	H72	0.126900	0.154700	0.992400
H731	H73	0.233200	0.050400	0.928200
H741	H74	0.413600	0.174800	0.104000
H751	H75	0.396700	0.992100	0.926800
H761	H76	0.298600	0.318800	0.743800
H771	H77	0.373600	0.431500	0.757800
H781	H78	0.535100	0.435000	0.758800
H791	H79	0.535600	0.215200	0.737000
H801	H80	0.685800	0.279600	0.746800
H811	H81	0.371300	0.131900	0.593400
H821	H82	0.383200	0.025100	0.467200
H831	H83	0.385200	0.895000	0.447400
H841	H84	0.356400	0.988600	0.682600
H851	H85	0.364800	0.846800	0.606400
H861	H86	0.166700	0.235900	0.887400
H871	H87	0.126900	0.345300	0.007600
H881	H88	0.233200	0.449600	0.071800
H891	H89	0.413600	0.325200	0.896000
H901	H90	0.396700	0.507900	0.073200
H911	H91	0.201400	0.075000	0.256200
H921	H92	0.126400	0.173700	0.242200
H931	H93	0.964900	0.176200	0.241200
H941	H94	0.964400	0.978200	0.263000
H951	H95	0.814200	0.032800	0.253200
H961	H96	0.128700	0.038500	0.406600
H971	H97	0.116800	0.057900	0.532800
H981	H98	0.114800	0.947600	0.552600
H991	H99	0.143600	0.806000	0.317400
H1001	H100	0.135200	0.740400	0.393600
H1011	H101	0.333300	0.848500	0.112600
H1021	H102	0.373100	0.837700	0.992400
H1031	H103	0.266800	0.877800	0.928200
H1041	H104	0.086400	0.929200	0.104000
H1051	H105	0.103300	0.934700	0.926800
H1061	H106	0.201400	0.425000	0.743800
H1071	H107	0.126400	0.326300	0.757800
H1081	H108	0.964900	0.323800	0.758800
H1091	H109	0.964400	0.521800	0.737000
H1101	H110	0.814200	0.467200	0.746800
H1111	H111	0.128700	0.461500	0.593400
H1121	H112	0.116800	0.442100	0.467200
H1131	H113	0.114800	0.552400	0.447400
H1141	H114	0.143600	0.694000	0.682600
H1151	H115	0.135200	0.759600	0.606400
H1161	H116	0.333300	0.651500	0.887400
H1171	H117	0.373100	0.662300	0.007600
H1181	H118	0.266800	0.622200	0.071800
H1191	H119	0.086400	0.570800	0.896000
H1201	H120	0.103300	0.565300	0.073200
C11	C1	0.636400	0.820230	0.745860
C21	C2	0.591900	0.888060	0.753320
C31	C3	0.496400	0.890070	0.753980
C41	C4	0.447100	0.824310	0.747280
C51	C5	0.497400	0.759330	0.741300
C61	C6	0.345300	0.823310	0.748480
C71	C7	0.629300	0.579860	0.586320
C81	C8	0.621500	0.515970	0.510140
C91	C9	0.620800	0.439060	0.498320
C101	C10	0.629200	0.428030	0.563940
C111	C11	0.637700	0.495980	0.638640
C121	C12	0.629000	0.349210	0.559620
C131	C13	0.789900	0.777150	0.913500
C141	C14	0.814700	0.842960	0.985320
C151	C15	0.751700	0.904850	0.023300
C161	C16	0.665800	0.900130	0.988860
C171	C17	0.645500	0.830370	0.918140
C181	C18	0.596800	0.965680	0.021360
C191	C19	0.636400	0.679770	0.254140
C201	C20	0.591900	0.611940	0.246680
C211	C21	0.496400	0.609930	0.246020
C221	C22	0.447100	0.675690	0.252720
C231	C23	0.497400	0.740670	0.258700
C241	C24	0.345300	0.676690	0.251520
C251	C25	0.629300	0.920140	0.413680
C261	C26	0.621500	0.984030	0.489860
C271	C27	0.620800	0.060940	0.501680
C281	C28	0.629200	0.071970	0.436060
C291	C29	0.637700	0.004020	0.361360
C301	C30	0.629000	0.150790	0.440380
C311	C31	0.789900	0.722850	0.086500
C321	C32	0.814700	0.657040	0.014680
C331	C33	0.751700	0.595150	0.976700
C341	C34	0.665800	0.599870	0.011140
C351	C35	0.645500	0.669630	0.081860
C361	C36	0.596800	0.534320	0.978640
C371	C37	0.863600	0.925630	0.745860
C381	C38	0.908100	0.865260	0.753320
C391	C39	0.003600	0.863910	0.753980
C401	C40	0.052900	0.922970	0.747280
C411	C41	0.002600	0.981970	0.741300
C421	C42	0.154700	0.925170	0.748480
C431	C43	0.870700	0.006460	0.586320
C441	C44	0.878500	0.994170	0.510140
C451	C45	0.879200	0.059260	0.498320
C461	C46	0.870800	0.135910	0.563940
C471	C47	0.862300	0.142660	0.638640
C481	C48	0.871000	0.210410	0.559620
C491	C49	0.710100	0.136350	0.913500
C501	C50	0.685300	0.142360	0.985320
C511	C51	0.748300	0.118450	0.023300
C521	C52	0.834200	0.088730	0.988860
C531	C53	0.854500	0.087770	0.918140
C541	C54	0.903200	0.055680	0.021360
C551	C55	0.863600	0.574370	0.254140
C561	C56	0.908100	0.634740	0.246680
C571	C57	0.003600	0.636090	0.246020
C581	C58	0.052900	0.577030	0.252720
C591	C59	0.002600	0.518030	0.258700
C601	C60	0.154700	0.574830	0.251520
C611	C61	0.870700	0.493540	0.413680
C621	C62	0.878500	0.505830	0.489860
C631	C63	0.879200	0.440740	0.501680
C641	C64	0.870800	0.364090	0.436060
C651	C65	0.862300	0.357340	0.361360
C661	C66	0.871000	0.289590	0.440380
C671	C67	0.710100	0.363650	0.086500
C681	C68	0.685300	0.357640	0.014680
C691	C69	0.748300	0.381550	0.976700
C701	C70	0.834200	0.411270	0.011140
C711	C71	0.854500	0.412230	0.081860
C721	C72	0.903200	0.444320	0.978640
C731	C73	0.363600	0.179770	0.254140
C741	C74	0.408100	0.111940	0.246680
C751	C75	0.503600	0.109930	0.246020
C761	C76	0.552900	0.175690	0.252720
C771	C77	0.502600	0.240670	0.258700
C781	C78	0.654700	0.176690	0.251520
C791	C79	0.370700	0.420140	0.413680
C801	C80	0.378500	0.484030	0.489860
C811	C81	0.379200	0.560940	0.501680
C821	C82	0.370800	0.571970	0.436060
C831	C83	0.362300	0.504020	0.361360
C841	C84	0.371000	0.650790	0.440380
C851	C85	0.210100	0.222850	0.086500
C861	C86	0.185300	0.157040	0.014680
C871	C87	0.248300	0.095150	0.976700
C881	C88	0.334200	0.099870	0.011140
C891	C89	0.354500	0.169630	0.081860
C901	C90	0.403200	0.034320	0.978640
C911	C91	0.363600	0.320230	0.745860
C921	C92	0.408100	0.388060	0.753320
C931	C93	0.503600	0.390070	0.753980
C941	C94	0.552900	0.324310	0.747280
C951	C95	0.502600	0.259330	0.741300
C961	C96	0.654700	0.323310	0.748480
C971	C97	0.370700	0.079860	0.586320
C981	C98	0.378500	0.015970	0.510140
C991	C99	0.379200	0.939060	0.498320
C1001	C100	0.370800	0.928030	0.563940
C1011	C101	0.362300	0.995980	0.638640
C1021	C102	0.371000	0.849210	0.559620
C1031	C103	0.210100	0.277150	0.913500
C1041	C104	0.185300	0.342960	0.985320
C1051	C105	0.248300	0.404850	0.023300
C1061	C106	0.334200	0.400130	0.988860
C1071	C107	0.354500	0.330370	0.918140
C1081	C108	0.403200	0.465680	0.021360
C1091	C109	0.136400	0.074370	0.254140
C1101	C110	0.091900	0.134740	0.246680
C1111	C111	0.996400	0.136090	0.246020
C1121	C112	0.947100	0.077030	0.252720
C1131	C113	0.997400	0.018030	0.258700
C1141	C114	0.845300	0.074830	0.251520
C1151	C115	0.129300	0.993540	0.413680
C1161	C116	0.121500	0.005830	0.489860
C1171	C117	0.120800	0.940740	0.501680
C1181	C118	0.129200	0.864090	0.436060
C1191	C119	0.137700	0.857340	0.361360
C1201	C120	0.129000	0.789590	0.440380
C1211	C121	0.289900	0.863650	0.086500
C1221	C122	0.314700	0.857640	0.014680
C1231	C123	0.251700	0.881550	0.976700
C1241	C124	0.165800	0.911270	0.011140
C1251	C125	0.145500	0.912230	0.081860
C1261	C126	0.096800	0.944320	0.978640
C1271	C127	0.136400	0.425630	0.745860
C1281	C128	0.091900	0.365260	0.753320
C1291	C129	0.996400	0.363910	0.753980
C1301	C130	0.947100	0.422970	0.747280
C1311	C131	0.997400	0.481970	0.741300
C1321	C132	0.845300	0.425170	0.748480
C1331	C133	0.129300	0.506460	0.586320
C1341	C134	0.121500	0.494170	0.510140
C1351	C135	0.120800	0.559260	0.498320
C1361	C136	0.129200	0.635910	0.563940
C1371	C137	0.137700	0.642660	0.638640
C1381	C138	0.129000	0.710410	0.559620
C1391	C139	0.289900	0.636350	0.913500
C1401	C140	0.314700	0.642360	0.985320
C1411	C141	0.251700	0.618450	0.023300
C1421	C142	0.165800	0.588730	0.988860
C1431	C143	0.145500	0.587770	0.918140
C1441	C144	0.096800	0.555680	0.021360
N11	N1	0.591590	0.756740	0.741440
N21	N2	0.298700	0.881560	0.751800
N31	N3	0.637700	0.571470	0.650760
N41	N4	0.620700	0.284380	0.494740
N51	N5	0.706600	0.770340	0.880320
N61	N6	0.528300	0.965560	0.979420
N71	N7	0.591590	0.743260	0.258560
N81	N8	0.298700	0.618440	0.248200
N91	N9	0.637700	0.928530	0.349240
N101	N10	0.620700	0.215620	0.505260
N111	N11	0.706600	0.729660	0.119680
N121	N12	0.528300	0.534440	0.020580
N131	N13	0.908410	0.984700	0.741440
N141	N14	0.201300	0.870240	0.751800
N151	N15	0.862300	0.079290	0.650760
N161	N16	0.879300	0.210360	0.494740
N171	N17	0.793400	0.109980	0.880320
N181	N18	0.971700	0.013860	0.979420
N191	N19	0.908410	0.515300	0.258560
N201	N20	0.201300	0.629760	0.248200
N211	N21	0.862300	0.420710	0.349240
N221	N22	0.879300	0.289640	0.505260
N231	N23	0.793400	0.390020	0.119680
N241	N24	0.971700	0.486140	0.020580
N251	N25	0.408410	0.243260	0.258560
N261	N26	0.701300	0.118440	0.248200
N271	N27	0.362300	0.428530	0.349240
N281	N28	0.379300	0.715620	0.505260
N291	N29	0.293400	0.229660	0.119680
N301	N30	0.471700	0.034440	0.020580
N311	N31	0.408410	0.256740	0.741440
N321	N32	0.701300	0.381560	0.751800
N331	N33	0.362300	0.071470	0.650760
N341	N34	0.379300	0.784380	0.494740
N351	N35	0.293400	0.270340	0.880320
N361	N36	0.471700	0.465560	0.979420
N371	N37	0.091590	0.015300	0.258560
N381	N38	0.798700	0.129760	0.248200
N391	N39	0.137700	0.920710	0.349240
N401	N40	0.120700	0.789640	0.505260
N411	N41	0.206600	0.890020	0.119680
N421	N42	0.028300	0.986140	0.020580
N431	N43	0.091590	0.484700	0.741440
N441	N44	0.798700	0.370240	0.751800
N451	N45	0.137700	0.579290	0.650760
N461	N46	0.120700	0.710360	0.494740
N471	N47	0.206600	0.609980	0.880320
N481	N48	0.028300	0.513860	0.979420
