data_ROYROO_clean_PM
_symmetry_space_group_name_H-M	'P1'
_cell_length_a	19.089200
_cell_length_b	14.387200
_cell_length_c	30.546200
_cell_angle_alpha	90.000000
_cell_angle_beta	90.000000
_cell_angle_gamma	90.000000
_symmetry_Int_Tables_number 1

loop_
_symmetry_equiv_pos_as_xyz
'x,y,z'

loop_
_atom_site_label
_atom_site_type_symbol
_atom_site_fract_x
_atom_site_fract_y
_atom_site_fract_z
Yb11	Yb1	0.141350	0.462690	0.370200
O11	O1	0.237220	0.469300	0.414510
O21	O2	0.166780	0.616100	0.384260
O31	O3	0.029430	0.499500	0.397460
O41	O4	0.190320	0.509100	0.302250
O51	O5	0.082310	0.553100	0.314510
O61	O6	0.121450	0.342000	0.418960
Yb21	Yb2	0.189110	0.524190	0.494440
C11	C1	0.195100	0.670300	0.410490
C21	C2	0.135700	0.556300	0.291430
C31	C3	0.136600	0.318300	0.457220
O71	O7	0.161600	0.466800	0.561490
O81	O8	0.302080	0.477900	0.473380
O91	O9	0.210570	0.648500	0.450310
O101	O10	0.089360	0.521100	0.457810
O111	O11	0.167180	0.370000	0.485220
C41	C4	0.211900	0.766000	0.395200
C51	C5	0.138600	0.617900	0.252140
C61	C6	0.116800	0.222000	0.471320
C71	C7	0.233300	0.838000	0.424730
C81	C8	0.203800	0.786300	0.351600
C91	C9	0.082000	0.673100	0.243280
C101	C10	0.199100	0.620900	0.223740
C111	C11	0.095900	0.152300	0.441950
C121	C12	0.119600	0.200200	0.515560
O121	O12	0.240600	0.820800	0.468960
C131	C13	0.248100	0.927100	0.410730
H11	H1	0.188900	0.740100	0.332500
C141	C14	0.217600	0.876400	0.335300
C151	C15	0.082400	0.734800	0.206730
H21	H2	0.042800	0.670400	0.261300
O131	O13	0.252500	0.562300	0.231930
C161	C16	0.203500	0.684000	0.190170
C171	C17	0.079900	0.064700	0.455210
O141	O14	0.090970	0.170700	0.398250
H31	H3	0.132300	0.245800	0.535600
C181	C18	0.103700	0.111100	0.530480
H41	H4	0.258000	0.769300	0.472500
C191	C19	0.238400	0.947600	0.364930
C201	C20	0.268100	0.999900	0.444110
C211	C21	0.208100	0.894300	0.290450
C221	C22	0.022700	0.784600	0.195600
C231	C23	0.143500	0.738900	0.179740
H51	H5	0.245300	0.534900	0.255000
C241	C24	0.271200	0.693000	0.163580
C251	C25	0.085400	0.040000	0.500260
C261	C26	0.061000	0.990600	0.420190
H61	H6	0.097500	0.226300	0.394000
C271	C27	0.107400	0.088700	0.575850
C281	C28	0.247300	0.038700	0.346600
C291	C29	0.336700	0.990600	0.467670
H71	H7	0.268000	0.059700	0.429400
H81	H8	0.231300	0.001800	0.466000
H91	H9	0.194700	0.847000	0.271500
C301	C30	0.218800	0.982200	0.275300
C311	C31	0.021500	0.840700	0.159300
H101	H10	0.982900	0.779900	0.213100
C321	C32	0.139500	0.797600	0.142400
C331	C33	0.309900	0.783100	0.168910
H111	H11	0.259900	0.685100	0.132800
H121	H12	0.302300	0.642700	0.171800
C341	C34	0.075800	0.948000	0.516500
C351	C35	0.988900	0.001800	0.398400
H131	H13	0.096500	0.992100	0.397500
H141	H14	0.062900	0.929800	0.433800
C361	C36	0.096900	0.002200	0.590600
H151	H15	0.117400	0.135600	0.595800
H161	H16	0.261000	0.087300	0.364800
C371	C37	0.236400	0.054900	0.304600
C381	C38	0.398800	0.989700	0.443950
C391	C39	0.342300	0.994500	0.514310
H171	H17	0.214500	0.994600	0.245500
C401	C40	0.080500	0.847000	0.133900
H181	H18	0.981300	0.873900	0.152100
H191	H19	0.177700	0.802100	0.123600
C411	C41	0.318700	0.842700	0.132470
C421	C42	0.340200	0.811500	0.208330
C431	C43	0.082000	0.931000	0.560400
H201	H20	0.065400	0.899800	0.497300
C441	C44	0.928800	0.009100	0.423830
C451	C45	0.981400	0.995700	0.352230
H211	H21	0.099400	0.989300	0.620400
H221	H22	0.240300	0.115300	0.294100
O151	O15	0.393170	0.992300	0.399200
C461	C46	0.465900	0.989200	0.464410
C471	C47	0.409800	0.996500	0.534890
C481	C48	0.282500	0.998700	0.543000
H231	H23	0.080000	0.886700	0.109900
C491	C49	0.352300	0.930100	0.135830
O161	O16	0.291600	0.814200	0.093100
C501	C50	0.339600	0.752000	0.246690
C511	C51	0.374500	0.899200	0.212890
H241	H24	0.076300	0.870600	0.570600
O171	O17	0.936620	0.007600	0.467780
C521	C52	0.861400	0.017700	0.404470
C531	C53	0.913500	0.001700	0.333550
C541	C54	0.039400	0.984700	0.322800
H251	H25	0.431900	0.984400	0.388200
C551	C55	0.531600	0.988300	0.437960
C561	C56	0.468700	0.993100	0.509350
C571	C57	0.413800	0.005400	0.581360
H261	H26	0.237700	0.995600	0.531100
C581	C58	0.289600	0.007000	0.586100
C591	C59	0.379000	0.955300	0.175830
C601	C60	0.361500	0.995800	0.098180
H271	H27	0.292400	0.857700	0.075700
H281	H28	0.319000	0.693500	0.245200
C611	C61	0.368800	0.781400	0.284500
C621	C62	0.403400	0.925700	0.254000
H291	H29	0.898100	0.011100	0.479500
C631	C63	0.854900	0.012100	0.359990
C641	C64	0.797300	0.025900	0.431860
C651	C65	0.905800	0.994000	0.286200
C661	C66	0.027800	0.975700	0.278300
H301	H30	0.084900	0.983600	0.333700
H311	H31	0.512300	0.993500	0.522900
H321	H32	0.457400	0.007400	0.594800
C671	C67	0.354600	0.011100	0.606500
H331	H33	0.249400	0.010100	0.603300
H341	H34	0.401200	0.012600	0.178300
O181	O18	0.389500	0.070300	0.103540
H351	H35	0.367800	0.741700	0.308500
C681	C68	0.400500	0.868200	0.289400
H361	H36	0.424800	0.983400	0.256700
H371	H37	0.810700	0.015400	0.347300
C691	C69	0.961000	0.980700	0.260200
H381	H38	0.861400	0.998500	0.273900
H391	H39	0.065800	0.965900	0.259800
H401	H40	0.357800	0.017700	0.636700
H411	H41	0.419100	0.886400	0.316200
H421	H42	0.954900	0.974800	0.230100
Yb31	Yb3	0.858650	0.537310	0.870200
O191	O19	0.762780	0.530700	0.914510
O201	O20	0.833220	0.383900	0.884260
O211	O21	0.970570	0.500500	0.897460
O221	O22	0.809680	0.490900	0.802250
O231	O23	0.917690	0.446900	0.814510
O241	O24	0.878550	0.658000	0.918960
Yb41	Yb4	0.810890	0.475810	0.994440
C701	C70	0.804900	0.329700	0.910490
C711	C71	0.864300	0.443700	0.791430
C721	C72	0.863400	0.681700	0.957220
O251	O25	0.838400	0.533200	0.061490
O261	O26	0.697920	0.522100	0.973380
O271	O27	0.789430	0.351500	0.950310
O281	O28	0.910640	0.478900	0.957810
O291	O29	0.832820	0.630000	0.985220
C731	C73	0.788100	0.234000	0.895200
C741	C74	0.861400	0.382100	0.752140
C751	C75	0.883200	0.778000	0.971320
C761	C76	0.766700	0.162000	0.924730
C771	C77	0.796200	0.213700	0.851600
C781	C78	0.918000	0.326900	0.743280
C791	C79	0.800900	0.379100	0.723740
C801	C80	0.904100	0.847700	0.941950
C811	C81	0.880400	0.799800	0.015560
O301	O30	0.759400	0.179200	0.968960
C821	C82	0.751900	0.072900	0.910730
H431	H43	0.811100	0.259900	0.832500
C831	C83	0.782400	0.123600	0.835300
C841	C84	0.917600	0.265200	0.706730
H441	H44	0.957200	0.329600	0.761300
O311	O31	0.747500	0.437700	0.731930
C851	C85	0.796500	0.316000	0.690170
C861	C86	0.920100	0.935300	0.955210
O321	O32	0.909030	0.829300	0.898250
H451	H45	0.867700	0.754200	0.035600
C871	C87	0.896300	0.888900	0.030480
H461	H46	0.742000	0.230700	0.972500
C881	C88	0.761600	0.052400	0.864930
C891	C89	0.731900	0.000100	0.944110
C901	C90	0.791900	0.105700	0.790450
C911	C91	0.977300	0.215400	0.695600
C921	C92	0.856500	0.261100	0.679740
H471	H47	0.754700	0.465100	0.755000
C931	C93	0.728800	0.307000	0.663580
C941	C94	0.914600	0.960000	0.000260
C951	C95	0.939000	0.009400	0.920190
H481	H48	0.902500	0.773700	0.894000
C961	C96	0.892600	0.911300	0.075850
C971	C97	0.752700	0.961300	0.846600
C981	C98	0.663300	0.009400	0.967670
H491	H49	0.732000	0.940300	0.929400
H501	H50	0.768700	0.998200	0.966000
H511	H51	0.805300	0.153000	0.771500
C991	C99	0.781200	0.017800	0.775300
C1001	C100	0.978500	0.159300	0.659300
H521	H52	0.017100	0.220100	0.713100
C1011	C101	0.860500	0.202400	0.642400
C1021	C102	0.690100	0.216900	0.668910
H531	H53	0.740100	0.314900	0.632800
H541	H54	0.697700	0.357300	0.671800
C1031	C103	0.924200	0.052000	0.016500
C1041	C104	0.011100	0.998200	0.898400
H551	H55	0.903500	0.007900	0.897500
H561	H56	0.937100	0.070200	0.933800
C1051	C105	0.903100	0.997800	0.090600
H571	H57	0.882600	0.864400	0.095800
H581	H58	0.739000	0.912700	0.864800
C1061	C106	0.763600	0.945100	0.804600
C1071	C107	0.601200	0.010300	0.943950
C1081	C108	0.657700	0.005500	0.014310
H591	H59	0.785500	0.005400	0.745500
C1091	C109	0.919500	0.153000	0.633900
H601	H60	0.018700	0.126100	0.652100
H611	H61	0.822300	0.197900	0.623600
C1101	C110	0.681300	0.157300	0.632470
C1111	C111	0.659800	0.188500	0.708330
C1121	C112	0.918000	0.069000	0.060400
H621	H62	0.934600	0.100200	0.997300
C1131	C113	0.071200	0.990900	0.923830
C1141	C114	0.018600	0.004300	0.852230
H631	H63	0.900600	0.010700	0.120400
H641	H64	0.759700	0.884700	0.794100
O331	O33	0.606830	0.007700	0.899200
C1151	C115	0.534100	0.010800	0.964410
C1161	C116	0.590200	0.003500	0.034890
C1171	C117	0.717500	0.001300	0.043000
H651	H65	0.920000	0.113300	0.609900
C1181	C118	0.647700	0.069900	0.635830
O341	O34	0.708400	0.185800	0.593100
C1191	C119	0.660400	0.248000	0.746690
C1201	C120	0.625500	0.100800	0.712890
H661	H66	0.923700	0.129400	0.070600
O351	O35	0.063380	0.992400	0.967780
C1211	C121	0.138600	0.982300	0.904470
C1221	C122	0.086500	0.998300	0.833550
C1231	C123	0.960600	0.015300	0.822800
H671	H67	0.568100	0.015600	0.888200
C1241	C124	0.468400	0.011700	0.937960
C1251	C125	0.531300	0.006900	0.009350
C1261	C126	0.586200	0.994600	0.081360
H681	H68	0.762300	0.004400	0.031100
C1271	C127	0.710400	0.993000	0.086100
C1281	C128	0.621000	0.044700	0.675830
C1291	C129	0.638500	0.004200	0.598180
H691	H69	0.707600	0.142300	0.575700
H701	H70	0.681000	0.306500	0.745200
C1301	C130	0.631200	0.218600	0.784500
C1311	C131	0.596600	0.074300	0.754000
H711	H71	0.101900	0.988900	0.979500
C1321	C132	0.145100	0.987900	0.859990
C1331	C133	0.202700	0.974100	0.931860
C1341	C134	0.094200	0.006000	0.786200
C1351	C135	0.972200	0.024300	0.778300
H721	H72	0.915100	0.016400	0.833700
H731	H73	0.487700	0.006500	0.022900
H741	H74	0.542600	0.992600	0.094800
C1361	C136	0.645400	0.988900	0.106500
H751	H75	0.750600	0.989900	0.103300
H761	H76	0.598800	0.987400	0.678300
O361	O36	0.610500	0.929700	0.603540
H771	H77	0.632200	0.258300	0.808500
C1371	C137	0.599500	0.131800	0.789400
H781	H78	0.575200	0.016600	0.756700
H791	H79	0.189300	0.984600	0.847300
C1381	C138	0.039000	0.019300	0.760200
H801	H80	0.138600	0.001500	0.773900
H811	H81	0.934200	0.034100	0.759800
H821	H82	0.642200	0.982300	0.136700
H831	H83	0.580900	0.113600	0.816200
H841	H84	0.045100	0.025200	0.730100
Yb51	Yb5	0.641350	0.037310	0.370200
O371	O37	0.737220	0.030700	0.414510
O381	O38	0.666780	0.883900	0.384260
O391	O39	0.529430	0.000500	0.397460
O401	O40	0.690320	0.990900	0.302250
O411	O41	0.582310	0.946900	0.314510
O421	O42	0.621450	0.158000	0.418960
Yb61	Yb6	0.689110	0.975810	0.494440
C1391	C139	0.695100	0.829700	0.410490
C1401	C140	0.635700	0.943700	0.291430
C1411	C141	0.636600	0.181700	0.457220
O431	O43	0.661600	0.033200	0.561490
O441	O44	0.802080	0.022100	0.473380
O451	O45	0.710570	0.851500	0.450310
O461	O46	0.589360	0.978900	0.457810
O471	O47	0.667180	0.130000	0.485220
C1421	C142	0.711900	0.734000	0.395200
C1431	C143	0.638600	0.882100	0.252140
C1441	C144	0.616800	0.278000	0.471320
C1451	C145	0.733300	0.662000	0.424730
C1461	C146	0.703800	0.713700	0.351600
C1471	C147	0.582000	0.826900	0.243280
C1481	C148	0.699100	0.879100	0.223740
C1491	C149	0.595900	0.347700	0.441950
C1501	C150	0.619600	0.299800	0.515560
O481	O48	0.740600	0.679200	0.468960
C1511	C151	0.748100	0.572900	0.410730
H851	H85	0.688900	0.759900	0.332500
C1521	C152	0.717600	0.623600	0.335300
C1531	C153	0.582400	0.765200	0.206730
H861	H86	0.542800	0.829600	0.261300
O491	O49	0.752500	0.937700	0.231930
C1541	C154	0.703500	0.816000	0.190170
C1551	C155	0.579900	0.435300	0.455210
O501	O50	0.590970	0.329300	0.398250
H871	H87	0.632300	0.254200	0.535600
C1561	C156	0.603700	0.388900	0.530480
H881	H88	0.758000	0.730700	0.472500
C1571	C157	0.738400	0.552400	0.364930
C1581	C158	0.768100	0.500100	0.444110
C1591	C159	0.708100	0.605700	0.290450
C1601	C160	0.522700	0.715400	0.195600
C1611	C161	0.643500	0.761100	0.179740
H891	H89	0.745300	0.965100	0.255000
C1621	C162	0.771200	0.807000	0.163580
C1631	C163	0.585400	0.460000	0.500260
C1641	C164	0.561000	0.509400	0.420190
H901	H90	0.597500	0.273700	0.394000
C1651	C165	0.607400	0.411300	0.575850
C1661	C166	0.747300	0.461300	0.346600
C1671	C167	0.836700	0.509400	0.467670
H911	H91	0.768000	0.440300	0.429400
H921	H92	0.731300	0.498200	0.466000
H931	H93	0.694700	0.653000	0.271500
C1681	C168	0.718800	0.517800	0.275300
C1691	C169	0.521500	0.659300	0.159300
H941	H94	0.482900	0.720100	0.213100
C1701	C170	0.639500	0.702400	0.142400
C1711	C171	0.809900	0.716900	0.168910
H951	H95	0.759900	0.814900	0.132800
H961	H96	0.802300	0.857300	0.171800
C1721	C172	0.575800	0.552000	0.516500
C1731	C173	0.488900	0.498200	0.398400
H971	H97	0.596500	0.507900	0.397500
H981	H98	0.562900	0.570200	0.433800
C1741	C174	0.596900	0.497800	0.590600
H991	H99	0.617400	0.364400	0.595800
H1001	H100	0.761000	0.412700	0.364800
C1751	C175	0.736400	0.445100	0.304600
C1761	C176	0.898800	0.510300	0.443950
C1771	C177	0.842300	0.505500	0.514310
H1011	H101	0.714500	0.505400	0.245500
C1781	C178	0.580500	0.653000	0.133900
H1021	H102	0.481300	0.626100	0.152100
H1031	H103	0.677700	0.697900	0.123600
C1791	C179	0.818700	0.657300	0.132470
C1801	C180	0.840200	0.688500	0.208330
C1811	C181	0.582000	0.569000	0.560400
H1041	H104	0.565400	0.600200	0.497300
C1821	C182	0.428800	0.490900	0.423830
C1831	C183	0.481400	0.504300	0.352230
H1051	H105	0.599400	0.510700	0.620400
H1061	H106	0.740300	0.384700	0.294100
O511	O51	0.893170	0.507700	0.399200
C1841	C184	0.965900	0.510800	0.464410
C1851	C185	0.909800	0.503500	0.534890
C1861	C186	0.782500	0.501300	0.543000
H1071	H107	0.580000	0.613300	0.109900
C1871	C187	0.852300	0.569900	0.135830
O521	O52	0.791600	0.685800	0.093100
C1881	C188	0.839600	0.748000	0.246690
C1891	C189	0.874500	0.600800	0.212890
H1081	H108	0.576300	0.629400	0.570600
O531	O53	0.436620	0.492400	0.467780
C1901	C190	0.361400	0.482300	0.404470
C1911	C191	0.413500	0.498300	0.333550
C1921	C192	0.539400	0.515300	0.322800
H1091	H109	0.931900	0.515600	0.388200
C1931	C193	0.031600	0.511700	0.437960
C1941	C194	0.968700	0.506900	0.509350
C1951	C195	0.913800	0.494600	0.581360
H1101	H110	0.737700	0.504400	0.531100
C1961	C196	0.789600	0.493000	0.586100
C1971	C197	0.879000	0.544700	0.175830
C1981	C198	0.861500	0.504200	0.098180
H1111	H111	0.792400	0.642300	0.075700
H1121	H112	0.819000	0.806500	0.245200
C1991	C199	0.868800	0.718600	0.284500
C2001	C200	0.903400	0.574300	0.254000
H1131	H113	0.398100	0.488900	0.479500
C2011	C201	0.354900	0.487900	0.359990
C2021	C202	0.297300	0.474100	0.431860
C2031	C203	0.405800	0.506000	0.286200
C2041	C204	0.527800	0.524300	0.278300
H1141	H114	0.584900	0.516400	0.333700
H1151	H115	0.012300	0.506500	0.522900
H1161	H116	0.957400	0.492600	0.594800
C2051	C205	0.854600	0.488900	0.606500
H1171	H117	0.749400	0.489900	0.603300
H1181	H118	0.901200	0.487400	0.178300
O541	O54	0.889500	0.429700	0.103540
H1191	H119	0.867800	0.758300	0.308500
C2061	C206	0.900500	0.631800	0.289400
H1201	H120	0.924800	0.516600	0.256700
H1211	H121	0.310700	0.484600	0.347300
C2071	C207	0.461000	0.519300	0.260200
H1221	H122	0.361400	0.501500	0.273900
H1231	H123	0.565800	0.534100	0.259800
H1241	H124	0.857800	0.482300	0.636700
H1251	H125	0.919100	0.613600	0.316200
H1261	H126	0.454900	0.525200	0.230100
Yb71	Yb7	0.358650	0.962690	0.870200
O551	O55	0.262780	0.969300	0.914510
O561	O56	0.333220	0.116100	0.884260
O571	O57	0.470570	0.999500	0.897460
O581	O58	0.309680	0.009100	0.802250
O591	O59	0.417690	0.053100	0.814510
O601	O60	0.378550	0.842000	0.918960
Yb81	Yb8	0.310890	0.024190	0.994440
C2081	C208	0.304900	0.170300	0.910490
C2091	C209	0.364300	0.056300	0.791430
C2101	C210	0.363400	0.818300	0.957220
O611	O61	0.338400	0.966800	0.061490
O621	O62	0.197920	0.977900	0.973380
O631	O63	0.289430	0.148500	0.950310
O641	O64	0.410640	0.021100	0.957810
O651	O65	0.332820	0.870000	0.985220
C2111	C211	0.288100	0.266000	0.895200
C2121	C212	0.361400	0.117900	0.752140
C2131	C213	0.383200	0.722000	0.971320
C2141	C214	0.266700	0.338000	0.924730
C2151	C215	0.296200	0.286300	0.851600
C2161	C216	0.418000	0.173100	0.743280
C2171	C217	0.300900	0.120900	0.723740
C2181	C218	0.404100	0.652300	0.941950
C2191	C219	0.380400	0.700200	0.015560
O661	O66	0.259400	0.320800	0.968960
C2201	C220	0.251900	0.427100	0.910730
H1271	H127	0.311100	0.240100	0.832500
C2211	C221	0.282400	0.376400	0.835300
C2221	C222	0.417600	0.234800	0.706730
H1281	H128	0.457200	0.170400	0.761300
O671	O67	0.247500	0.062300	0.731930
C2231	C223	0.296500	0.184000	0.690170
C2241	C224	0.420100	0.564700	0.955210
O681	O68	0.409030	0.670700	0.898250
H1291	H129	0.367700	0.745800	0.035600
C2251	C225	0.396300	0.611100	0.030480
H1301	H130	0.242000	0.269300	0.972500
C2261	C226	0.261600	0.447600	0.864930
C2271	C227	0.231900	0.499900	0.944110
C2281	C228	0.291900	0.394300	0.790450
C2291	C229	0.477300	0.284600	0.695600
C2301	C230	0.356500	0.238900	0.679740
H1311	H131	0.254700	0.034900	0.755000
C2311	C231	0.228800	0.193000	0.663580
C2321	C232	0.414600	0.540000	0.000260
C2331	C233	0.439000	0.490600	0.920190
H1321	H132	0.402500	0.726300	0.894000
C2341	C234	0.392600	0.588700	0.075850
C2351	C235	0.252700	0.538700	0.846600
C2361	C236	0.163300	0.490600	0.967670
H1331	H133	0.232000	0.559700	0.929400
H1341	H134	0.268700	0.501800	0.966000
H1351	H135	0.305300	0.347000	0.771500
C2371	C237	0.281200	0.482200	0.775300
C2381	C238	0.478500	0.340700	0.659300
H1361	H136	0.517100	0.279900	0.713100
C2391	C239	0.360500	0.297600	0.642400
C2401	C240	0.190100	0.283100	0.668910
H1371	H137	0.240100	0.185100	0.632800
H1381	H138	0.197700	0.142700	0.671800
C2411	C241	0.424200	0.448000	0.016500
C2421	C242	0.511100	0.501800	0.898400
H1391	H139	0.403500	0.492100	0.897500
H1401	H140	0.437100	0.429800	0.933800
C2431	C243	0.403100	0.502200	0.090600
H1411	H141	0.382600	0.635600	0.095800
H1421	H142	0.239000	0.587300	0.864800
C2441	C244	0.263600	0.554900	0.804600
C2451	C245	0.101200	0.489700	0.943950
C2461	C246	0.157700	0.494500	0.014310
H1431	H143	0.285500	0.494600	0.745500
C2471	C247	0.419500	0.347000	0.633900
H1441	H144	0.518700	0.373900	0.652100
H1451	H145	0.322300	0.302100	0.623600
C2481	C248	0.181300	0.342700	0.632470
C2491	C249	0.159800	0.311500	0.708330
C2501	C250	0.418000	0.431000	0.060400
H1461	H146	0.434600	0.399800	0.997300
C2511	C251	0.571200	0.509100	0.923830
C2521	C252	0.518600	0.495700	0.852230
H1471	H147	0.400600	0.489300	0.120400
H1481	H148	0.259700	0.615300	0.794100
O691	O69	0.106830	0.492300	0.899200
C2531	C253	0.034100	0.489200	0.964410
C2541	C254	0.090200	0.496500	0.034890
C2551	C255	0.217500	0.498700	0.043000
H1491	H149	0.420000	0.386700	0.609900
C2561	C256	0.147700	0.430100	0.635830
O701	O70	0.208400	0.314200	0.593100
C2571	C257	0.160400	0.252000	0.746690
C2581	C258	0.125500	0.399200	0.712890
H1501	H150	0.423700	0.370600	0.070600
O711	O71	0.563380	0.507600	0.967780
C2591	C259	0.638600	0.517700	0.904470
C2601	C260	0.586500	0.501700	0.833550
C2611	C261	0.460600	0.484700	0.822800
H1511	H151	0.068100	0.484400	0.888200
C2621	C262	0.968400	0.488300	0.937960
C2631	C263	0.031300	0.493100	0.009350
C2641	C264	0.086200	0.505400	0.081360
H1521	H152	0.262300	0.495600	0.031100
C2651	C265	0.210400	0.507000	0.086100
C2661	C266	0.121000	0.455300	0.675830
C2671	C267	0.138500	0.495800	0.598180
H1531	H153	0.207600	0.357700	0.575700
H1541	H154	0.181000	0.193500	0.745200
C2681	C268	0.131200	0.281400	0.784500
C2691	C269	0.096600	0.425700	0.754000
H1551	H155	0.601900	0.511100	0.979500
C2701	C270	0.645100	0.512100	0.859990
C2711	C271	0.702700	0.525900	0.931860
C2721	C272	0.594200	0.494000	0.786200
C2731	C273	0.472200	0.475700	0.778300
H1561	H156	0.415100	0.483600	0.833700
H1571	H157	0.987700	0.493500	0.022900
H1581	H158	0.042600	0.507400	0.094800
C2741	C274	0.145400	0.511100	0.106500
H1591	H159	0.250600	0.510100	0.103300
H1601	H160	0.098800	0.512600	0.678300
O721	O72	0.110500	0.570300	0.603540
H1611	H161	0.132200	0.241700	0.808500
C2751	C275	0.099500	0.368200	0.789400
H1621	H162	0.075200	0.483400	0.756700
H1631	H163	0.689300	0.515400	0.847300
C2761	C276	0.539000	0.480700	0.760200
H1641	H164	0.638600	0.498500	0.773900
H1651	H165	0.434200	0.465900	0.759800
H1661	H166	0.142200	0.517700	0.136700
H1671	H167	0.080900	0.386400	0.816200
H1681	H168	0.545100	0.474800	0.730100
