data_RUBDUP_clean_PM
_symmetry_space_group_name_H-M	'P1'
_cell_length_a	33.261000
_cell_length_b	33.261000
_cell_length_c	33.261000
_cell_angle_alpha	90.000000
_cell_angle_beta	90.000000
_cell_angle_gamma	90.000000
_symmetry_Int_Tables_number 1

loop_
_symmetry_equiv_pos_as_xyz
'x,y,z'

loop_
_atom_site_label
_atom_site_type_symbol
_atom_site_fract_x
_atom_site_fract_y
_atom_site_fract_z
O11	O1	0.373640	0.626490	0.060790
O21	O2	0.394400	0.574400	0.026300
C11	C1	0.318400	0.651400	0.007010
H11	H1	0.322100	0.667900	0.029300
C21	C2	0.341270	0.616700	0.002800
C31	C3	0.335800	0.592010	0.969500
H21	H2	0.351100	0.568800	0.966700
C41	C4	0.307500	0.602100	0.940400
C51	C5	0.284700	0.636800	0.944600
H31	H3	0.265800	0.643600	0.925200
C61	C6	0.290200	0.661500	0.977900
C71	C7	0.373700	0.602200	0.031700
C81	C8	0.263400	0.692600	0.983700
C91	C9	0.240100	0.719700	0.985800
C101	C10	0.175600	0.753100	0.968900
H41	H4	0.172600	0.737800	0.945700
C111	C11	0.149100	0.784400	0.976900
C121	C12	0.153600	0.807200	0.011700
H51	H5	0.135900	0.828200	0.017000
C131	C13	0.184600	0.798700	0.038400
H61	H6	0.187600	0.814000	0.061600
C141	C14	0.211100	0.767400	0.030400
H71	H7	0.231800	0.761700	0.048300
C151	C15	0.206600	0.744600	0.995700
C161	C16	0.299600	0.553300	0.877800
C171	C17	0.303100	0.576100	0.904800
O31	O3	0.126360	0.373510	0.560790
O41	O4	0.105600	0.425600	0.526300
C181	C18	0.181600	0.348600	0.507010
H81	H8	0.177900	0.332100	0.529300
C191	C19	0.158730	0.383300	0.502800
C201	C20	0.164200	0.407990	0.469500
H91	H9	0.148900	0.431200	0.466700
C211	C21	0.192500	0.397900	0.440400
C221	C22	0.215300	0.363200	0.444600
H101	H10	0.234200	0.356400	0.425200
C231	C23	0.209800	0.338500	0.477900
C241	C24	0.126300	0.397800	0.531700
C251	C25	0.236600	0.307400	0.483700
C261	C26	0.259900	0.280300	0.485800
C271	C27	0.324400	0.246900	0.468900
H111	H11	0.327400	0.262200	0.445700
C281	C28	0.350900	0.215600	0.476900
C291	C29	0.346400	0.192800	0.511700
H121	H12	0.364100	0.171800	0.517000
C301	C30	0.315400	0.201300	0.538400
H131	H13	0.312400	0.186000	0.561600
C311	C31	0.288900	0.232600	0.530400
H141	H14	0.268200	0.238300	0.548300
C321	C32	0.293400	0.255400	0.495700
C331	C33	0.200400	0.446700	0.377800
C341	C34	0.196900	0.423900	0.404800
O51	O5	0.626360	0.126490	0.439210
O61	O6	0.605600	0.074400	0.473700
C351	C35	0.681600	0.151400	0.492990
H151	H15	0.677900	0.167900	0.470700
C361	C36	0.658730	0.116700	0.497200
C371	C37	0.664200	0.092010	0.530500
H161	H16	0.648900	0.068800	0.533300
C381	C38	0.692500	0.102100	0.559600
C391	C39	0.715300	0.136800	0.555400
H171	H17	0.734200	0.143600	0.574800
C401	C40	0.709800	0.161500	0.522100
C411	C41	0.626300	0.102200	0.468300
C421	C42	0.736600	0.192600	0.516300
C431	C43	0.759900	0.219700	0.514200
C441	C44	0.824400	0.253100	0.531100
H181	H18	0.827400	0.237800	0.554300
C451	C45	0.850900	0.284400	0.523100
C461	C46	0.846400	0.307200	0.488300
H191	H19	0.864100	0.328200	0.483000
C471	C47	0.815400	0.298700	0.461600
H201	H20	0.812400	0.314000	0.438400
C481	C48	0.788900	0.267400	0.469600
H211	H21	0.768200	0.261700	0.451700
C491	C49	0.793400	0.244600	0.504300
C501	C50	0.700400	0.053300	0.622200
C511	C51	0.696900	0.076100	0.595200
O71	O7	0.873640	0.873510	0.939210
O81	O8	0.894400	0.925600	0.973700
C521	C52	0.818400	0.848600	0.992990
H221	H22	0.822100	0.832100	0.970700
C531	C53	0.841270	0.883300	0.997200
C541	C54	0.835800	0.907990	0.030500
H231	H23	0.851100	0.931200	0.033300
C551	C55	0.807500	0.897900	0.059600
C561	C56	0.784700	0.863200	0.055400
H241	H24	0.765800	0.856400	0.074800
C571	C57	0.790200	0.838500	0.022100
C581	C58	0.873700	0.897800	0.968300
C591	C59	0.763400	0.807400	0.016300
C601	C60	0.740100	0.780300	0.014200
C611	C61	0.675600	0.746900	0.031100
H251	H25	0.672600	0.762200	0.054300
C621	C62	0.649100	0.715600	0.023100
C631	C63	0.653600	0.692800	0.988300
H261	H26	0.635900	0.671800	0.983000
C641	C64	0.684600	0.701300	0.961600
H271	H27	0.687600	0.686000	0.938400
C651	C65	0.711100	0.732600	0.969600
H281	H28	0.731800	0.738300	0.951700
C661	C66	0.706600	0.755400	0.004300
C671	C67	0.799600	0.946700	0.122200
C681	C68	0.803100	0.923900	0.095200
O91	O9	0.060790	0.373640	0.626490
O101	O10	0.026300	0.394400	0.574400
C691	C69	0.007010	0.318400	0.651400
H291	H29	0.029300	0.322100	0.667900
C701	C70	0.002800	0.341270	0.616700
C711	C71	0.969500	0.335800	0.592010
H301	H30	0.966700	0.351100	0.568800
C721	C72	0.940400	0.307500	0.602100
C731	C73	0.944600	0.284700	0.636800
H311	H31	0.925200	0.265800	0.643600
C741	C74	0.977900	0.290200	0.661500
C751	C75	0.031700	0.373700	0.602200
C761	C76	0.983700	0.263400	0.692600
C771	C77	0.985800	0.240100	0.719700
C781	C78	0.968900	0.175600	0.753100
H321	H32	0.945700	0.172600	0.737800
C791	C79	0.976900	0.149100	0.784400
C801	C80	0.011700	0.153600	0.807200
H331	H33	0.017000	0.135900	0.828200
C811	C81	0.038400	0.184600	0.798700
H341	H34	0.061600	0.187600	0.814000
C821	C82	0.030400	0.211100	0.767400
H351	H35	0.048300	0.231800	0.761700
C831	C83	0.995700	0.206600	0.744600
C841	C84	0.877800	0.299600	0.553300
C851	C85	0.904800	0.303100	0.576100
O111	O11	0.560790	0.126360	0.373510
O121	O12	0.526300	0.105600	0.425600
C861	C86	0.507010	0.181600	0.348600
H361	H36	0.529300	0.177900	0.332100
C871	C87	0.502800	0.158730	0.383300
C881	C88	0.469500	0.164200	0.407990
H371	H37	0.466700	0.148900	0.431200
C891	C89	0.440400	0.192500	0.397900
C901	C90	0.444600	0.215300	0.363200
H381	H38	0.425200	0.234200	0.356400
C911	C91	0.477900	0.209800	0.338500
C921	C92	0.531700	0.126300	0.397800
C931	C93	0.483700	0.236600	0.307400
C941	C94	0.485800	0.259900	0.280300
C951	C95	0.468900	0.324400	0.246900
H391	H39	0.445700	0.327400	0.262200
C961	C96	0.476900	0.350900	0.215600
C971	C97	0.511700	0.346400	0.192800
H401	H40	0.517000	0.364100	0.171800
C981	C98	0.538400	0.315400	0.201300
H411	H41	0.561600	0.312400	0.186000
C991	C99	0.530400	0.288900	0.232600
H421	H42	0.548300	0.268200	0.238300
C1001	C100	0.495700	0.293400	0.255400
C1011	C101	0.377800	0.200400	0.446700
C1021	C102	0.404800	0.196900	0.423900
O131	O13	0.439210	0.626360	0.126490
O141	O14	0.473700	0.605600	0.074400
C1031	C103	0.492990	0.681600	0.151400
H431	H43	0.470700	0.677900	0.167900
C1041	C104	0.497200	0.658730	0.116700
C1051	C105	0.530500	0.664200	0.092010
H441	H44	0.533300	0.648900	0.068800
C1061	C106	0.559600	0.692500	0.102100
C1071	C107	0.555400	0.715300	0.136800
H451	H45	0.574800	0.734200	0.143600
C1081	C108	0.522100	0.709800	0.161500
C1091	C109	0.468300	0.626300	0.102200
C1101	C110	0.516300	0.736600	0.192600
C1111	C111	0.514200	0.759900	0.219700
C1121	C112	0.531100	0.824400	0.253100
H461	H46	0.554300	0.827400	0.237800
C1131	C113	0.523100	0.850900	0.284400
C1141	C114	0.488300	0.846400	0.307200
H471	H47	0.483000	0.864100	0.328200
C1151	C115	0.461600	0.815400	0.298700
H481	H48	0.438400	0.812400	0.314000
C1161	C116	0.469600	0.788900	0.267400
H491	H49	0.451700	0.768200	0.261700
C1171	C117	0.504300	0.793400	0.244600
C1181	C118	0.622200	0.700400	0.053300
C1191	C119	0.595200	0.696900	0.076100
O151	O15	0.939210	0.873640	0.873510
O161	O16	0.973700	0.894400	0.925600
C1201	C120	0.992990	0.818400	0.848600
H501	H50	0.970700	0.822100	0.832100
C1211	C121	0.997200	0.841270	0.883300
C1221	C122	0.030500	0.835800	0.907990
H511	H51	0.033300	0.851100	0.931200
C1231	C123	0.059600	0.807500	0.897900
C1241	C124	0.055400	0.784700	0.863200
H521	H52	0.074800	0.765800	0.856400
C1251	C125	0.022100	0.790200	0.838500
C1261	C126	0.968300	0.873700	0.897800
C1271	C127	0.016300	0.763400	0.807400
C1281	C128	0.014200	0.740100	0.780300
C1291	C129	0.031100	0.675600	0.746900
H531	H53	0.054300	0.672600	0.762200
C1301	C130	0.023100	0.649100	0.715600
C1311	C131	0.988300	0.653600	0.692800
H541	H54	0.983000	0.635900	0.671800
C1321	C132	0.961600	0.684600	0.701300
H551	H55	0.938400	0.687600	0.686000
C1331	C133	0.969600	0.711100	0.732600
H561	H56	0.951700	0.731800	0.738300
C1341	C134	0.004300	0.706600	0.755400
C1351	C135	0.122200	0.799600	0.946700
C1361	C136	0.095200	0.803100	0.923900
O171	O17	0.626490	0.060790	0.373640
O181	O18	0.574400	0.026300	0.394400
C1371	C137	0.651400	0.007010	0.318400
H571	H57	0.667900	0.029300	0.322100
C1381	C138	0.616700	0.002800	0.341270
C1391	C139	0.592010	0.969500	0.335800
H581	H58	0.568800	0.966700	0.351100
C1401	C140	0.602100	0.940400	0.307500
C1411	C141	0.636800	0.944600	0.284700
H591	H59	0.643600	0.925200	0.265800
C1421	C142	0.661500	0.977900	0.290200
C1431	C143	0.602200	0.031700	0.373700
C1441	C144	0.692600	0.983700	0.263400
C1451	C145	0.719700	0.985800	0.240100
C1461	C146	0.753100	0.968900	0.175600
H601	H60	0.737800	0.945700	0.172600
C1471	C147	0.784400	0.976900	0.149100
C1481	C148	0.807200	0.011700	0.153600
H611	H61	0.828200	0.017000	0.135900
C1491	C149	0.798700	0.038400	0.184600
H621	H62	0.814000	0.061600	0.187600
C1501	C150	0.767400	0.030400	0.211100
H631	H63	0.761700	0.048300	0.231800
C1511	C151	0.744600	0.995700	0.206600
C1521	C152	0.553300	0.877800	0.299600
C1531	C153	0.576100	0.904800	0.303100
O191	O19	0.373510	0.560790	0.126360
O201	O20	0.425600	0.526300	0.105600
C1541	C154	0.348600	0.507010	0.181600
H641	H64	0.332100	0.529300	0.177900
C1551	C155	0.383300	0.502800	0.158730
C1561	C156	0.407990	0.469500	0.164200
H651	H65	0.431200	0.466700	0.148900
C1571	C157	0.397900	0.440400	0.192500
C1581	C158	0.363200	0.444600	0.215300
H661	H66	0.356400	0.425200	0.234200
C1591	C159	0.338500	0.477900	0.209800
C1601	C160	0.397800	0.531700	0.126300
C1611	C161	0.307400	0.483700	0.236600
C1621	C162	0.280300	0.485800	0.259900
C1631	C163	0.246900	0.468900	0.324400
H671	H67	0.262200	0.445700	0.327400
C1641	C164	0.215600	0.476900	0.350900
C1651	C165	0.192800	0.511700	0.346400
H681	H68	0.171800	0.517000	0.364100
C1661	C166	0.201300	0.538400	0.315400
H691	H69	0.186000	0.561600	0.312400
C1671	C167	0.232600	0.530400	0.288900
H701	H70	0.238300	0.548300	0.268200
C1681	C168	0.255400	0.495700	0.293400
C1691	C169	0.446700	0.377800	0.200400
C1701	C170	0.423900	0.404800	0.196900
O211	O21	0.126490	0.439210	0.626360
O221	O22	0.074400	0.473700	0.605600
C1711	C171	0.151400	0.492990	0.681600
H711	H71	0.167900	0.470700	0.677900
C1721	C172	0.116700	0.497200	0.658730
C1731	C173	0.092010	0.530500	0.664200
H721	H72	0.068800	0.533300	0.648900
C1741	C174	0.102100	0.559600	0.692500
C1751	C175	0.136800	0.555400	0.715300
H731	H73	0.143600	0.574800	0.734200
C1761	C176	0.161500	0.522100	0.709800
C1771	C177	0.102200	0.468300	0.626300
C1781	C178	0.192600	0.516300	0.736600
C1791	C179	0.219700	0.514200	0.759900
C1801	C180	0.253100	0.531100	0.824400
H741	H74	0.237800	0.554300	0.827400
C1811	C181	0.284400	0.523100	0.850900
C1821	C182	0.307200	0.488300	0.846400
H751	H75	0.328200	0.483000	0.864100
C1831	C183	0.298700	0.461600	0.815400
H761	H76	0.314000	0.438400	0.812400
C1841	C184	0.267400	0.469600	0.788900
H771	H77	0.261700	0.451700	0.768200
C1851	C185	0.244600	0.504300	0.793400
C1861	C186	0.053300	0.622200	0.700400
C1871	C187	0.076100	0.595200	0.696900
O231	O23	0.873510	0.939210	0.873640
O241	O24	0.925600	0.973700	0.894400
C1881	C188	0.848600	0.992990	0.818400
H781	H78	0.832100	0.970700	0.822100
C1891	C189	0.883300	0.997200	0.841270
C1901	C190	0.907990	0.030500	0.835800
H791	H79	0.931200	0.033300	0.851100
C1911	C191	0.897900	0.059600	0.807500
C1921	C192	0.863200	0.055400	0.784700
H801	H80	0.856400	0.074800	0.765800
C1931	C193	0.838500	0.022100	0.790200
C1941	C194	0.897800	0.968300	0.873700
C1951	C195	0.807400	0.016300	0.763400
C1961	C196	0.780300	0.014200	0.740100
C1971	C197	0.746900	0.031100	0.675600
H811	H81	0.762200	0.054300	0.672600
C1981	C198	0.715600	0.023100	0.649100
C1991	C199	0.692800	0.988300	0.653600
H821	H82	0.671800	0.983000	0.635900
C2001	C200	0.701300	0.961600	0.684600
H831	H83	0.686000	0.938400	0.687600
C2011	C201	0.732600	0.969600	0.711100
H841	H84	0.738300	0.951700	0.731800
C2021	C202	0.755400	0.004300	0.706600
C2031	C203	0.946700	0.122200	0.799600
C2041	C204	0.923900	0.095200	0.803100
O251	O25	0.376490	0.623640	0.189210
O261	O26	0.324400	0.644400	0.223700
C2051	C205	0.401400	0.568400	0.242990
H851	H85	0.417900	0.572100	0.220700
C2061	C206	0.366700	0.591270	0.247200
C2071	C207	0.342010	0.585800	0.280500
H861	H86	0.318800	0.601100	0.283300
C2081	C208	0.352100	0.557500	0.309600
C2091	C209	0.386800	0.534700	0.305400
H871	H87	0.393600	0.515800	0.324800
C2101	C210	0.411500	0.540200	0.272100
C2111	C211	0.352200	0.623700	0.218300
C2121	C212	0.442600	0.513400	0.266300
C2131	C213	0.469700	0.490100	0.264200
C2141	C214	0.503100	0.425600	0.281100
H881	H88	0.487800	0.422600	0.304300
C2151	C215	0.534400	0.399100	0.273100
C2161	C216	0.557200	0.403600	0.238300
H891	H89	0.578200	0.385900	0.233000
C2171	C217	0.548700	0.434600	0.211600
H901	H90	0.564000	0.437600	0.188400
C2181	C218	0.517400	0.461100	0.219600
H911	H91	0.511700	0.481800	0.201700
C2191	C219	0.494600	0.456600	0.254300
C2201	C220	0.303300	0.549600	0.372200
C2211	C221	0.326100	0.553100	0.345200
O271	O27	0.123510	0.376360	0.689210
O281	O28	0.175600	0.355600	0.723700
C2221	C222	0.098600	0.431600	0.742990
H921	H92	0.082100	0.427900	0.720700
C2231	C223	0.133300	0.408730	0.747200
C2241	C224	0.157990	0.414200	0.780500
H931	H93	0.181200	0.398900	0.783300
C2251	C225	0.147900	0.442500	0.809600
C2261	C226	0.113200	0.465300	0.805400
H941	H94	0.106400	0.484200	0.824800
C2271	C227	0.088500	0.459800	0.772100
C2281	C228	0.147800	0.376300	0.718300
C2291	C229	0.057400	0.486600	0.766300
C2301	C230	0.030300	0.509900	0.764200
C2311	C231	0.996900	0.574400	0.781100
H951	H95	0.012200	0.577400	0.804300
C2321	C232	0.965600	0.600900	0.773100
C2331	C233	0.942800	0.596400	0.738300
H961	H96	0.921800	0.614100	0.733000
C2341	C234	0.951300	0.565400	0.711600
H971	H97	0.936000	0.562400	0.688400
C2351	C235	0.982600	0.538900	0.719600
H981	H98	0.988300	0.518200	0.701700
C2361	C236	0.005400	0.543400	0.754300
C2371	C237	0.196700	0.450400	0.872200
C2381	C238	0.173900	0.446900	0.845200
O291	O29	0.876490	0.876360	0.810790
O301	O30	0.824400	0.855600	0.776300
C2391	C239	0.901400	0.931600	0.757010
H991	H99	0.917900	0.927900	0.779300
C2401	C240	0.866700	0.908730	0.752800
C2411	C241	0.842010	0.914200	0.719500
H1001	H100	0.818800	0.898900	0.716700
C2421	C242	0.852100	0.942500	0.690400
C2431	C243	0.886800	0.965300	0.694600
H1011	H101	0.893600	0.984200	0.675200
C2441	C244	0.911500	0.959800	0.727900
C2451	C245	0.852200	0.876300	0.781700
C2461	C246	0.942600	0.986600	0.733700
C2471	C247	0.969700	0.009900	0.735800
C2481	C248	0.003100	0.074400	0.718900
H1021	H102	0.987800	0.077400	0.695700
C2491	C249	0.034400	0.100900	0.726900
C2501	C250	0.057200	0.096400	0.761700
H1031	H103	0.078200	0.114100	0.767000
C2511	C251	0.048700	0.065400	0.788400
H1041	H104	0.064000	0.062400	0.811600
C2521	C252	0.017400	0.038900	0.780400
H1051	H105	0.011700	0.018200	0.798300
C2531	C253	0.994600	0.043400	0.745700
C2541	C254	0.803300	0.950400	0.627800
C2551	C255	0.826100	0.946900	0.654800
O311	O31	0.623510	0.123640	0.310790
O321	O32	0.675600	0.144400	0.276300
C2561	C256	0.598600	0.068400	0.257010
H1061	H106	0.582100	0.072100	0.279300
C2571	C257	0.633300	0.091270	0.252800
C2581	C258	0.657990	0.085800	0.219500
H1071	H107	0.681200	0.101100	0.216700
C2591	C259	0.647900	0.057500	0.190400
C2601	C260	0.613200	0.034700	0.194600
H1081	H108	0.606400	0.015800	0.175200
C2611	C261	0.588500	0.040200	0.227900
C2621	C262	0.647800	0.123700	0.281700
C2631	C263	0.557400	0.013400	0.233700
C2641	C264	0.530300	0.990100	0.235800
C2651	C265	0.496900	0.925600	0.218900
H1091	H109	0.512200	0.922600	0.195700
C2661	C266	0.465600	0.899100	0.226900
C2671	C267	0.442800	0.903600	0.261700
H1101	H110	0.421800	0.885900	0.267000
C2681	C268	0.451300	0.934600	0.288400
H1111	H111	0.436000	0.937600	0.311600
C2691	C269	0.482600	0.961100	0.280400
H1121	H112	0.488300	0.981800	0.298300
C2701	C270	0.505400	0.956600	0.245700
C2711	C271	0.696700	0.049600	0.127800
C2721	C272	0.673900	0.053100	0.154800
O331	O33	0.123640	0.310790	0.623510
O341	O34	0.144400	0.276300	0.675600
C2731	C273	0.068400	0.257010	0.598600
H1131	H113	0.072100	0.279300	0.582100
C2741	C274	0.091270	0.252800	0.633300
C2751	C275	0.085800	0.219500	0.657990
H1141	H114	0.101100	0.216700	0.681200
C2761	C276	0.057500	0.190400	0.647900
C2771	C277	0.034700	0.194600	0.613200
H1151	H115	0.015800	0.175200	0.606400
C2781	C278	0.040200	0.227900	0.588500
C2791	C279	0.123700	0.281700	0.647800
C2801	C280	0.013400	0.233700	0.557400
C2811	C281	0.990100	0.235800	0.530300
C2821	C282	0.925600	0.218900	0.496900
H1161	H116	0.922600	0.195700	0.512200
C2831	C283	0.899100	0.226900	0.465600
C2841	C284	0.903600	0.261700	0.442800
H1171	H117	0.885900	0.267000	0.421800
C2851	C285	0.934600	0.288400	0.451300
H1181	H118	0.937600	0.311600	0.436000
C2861	C286	0.961100	0.280400	0.482600
H1191	H119	0.981800	0.298300	0.488300
C2871	C287	0.956600	0.245700	0.505400
C2881	C288	0.049600	0.127800	0.696700
C2891	C289	0.053100	0.154800	0.673900
O351	O35	0.876360	0.810790	0.876490
O361	O36	0.855600	0.776300	0.824400
C2901	C290	0.931600	0.757010	0.901400
H1201	H120	0.927900	0.779300	0.917900
C2911	C291	0.908730	0.752800	0.866700
C2921	C292	0.914200	0.719500	0.842010
H1211	H121	0.898900	0.716700	0.818800
C2931	C293	0.942500	0.690400	0.852100
C2941	C294	0.965300	0.694600	0.886800
H1221	H122	0.984200	0.675200	0.893600
C2951	C295	0.959800	0.727900	0.911500
C2961	C296	0.876300	0.781700	0.852200
C2971	C297	0.986600	0.733700	0.942600
C2981	C298	0.009900	0.735800	0.969700
C2991	C299	0.074400	0.718900	0.003100
H1231	H123	0.077400	0.695700	0.987800
C3001	C300	0.100900	0.726900	0.034400
C3011	C301	0.096400	0.761700	0.057200
H1241	H124	0.114100	0.767000	0.078200
C3021	C302	0.065400	0.788400	0.048700
H1251	H125	0.062400	0.811600	0.064000
C3031	C303	0.038900	0.780400	0.017400
H1261	H126	0.018200	0.798300	0.011700
C3041	C304	0.043400	0.745700	0.994600
C3051	C305	0.950400	0.627800	0.803300
C3061	C306	0.946900	0.654800	0.826100
O371	O37	0.376360	0.689210	0.123510
O381	O38	0.355600	0.723700	0.175600
C3071	C307	0.431600	0.742990	0.098600
H1271	H127	0.427900	0.720700	0.082100
C3081	C308	0.408730	0.747200	0.133300
C3091	C309	0.414200	0.780500	0.157990
H1281	H128	0.398900	0.783300	0.181200
C3101	C310	0.442500	0.809600	0.147900
C3111	C311	0.465300	0.805400	0.113200
H1291	H129	0.484200	0.824800	0.106400
C3121	C312	0.459800	0.772100	0.088500
C3131	C313	0.376300	0.718300	0.147800
C3141	C314	0.486600	0.766300	0.057400
C3151	C315	0.509900	0.764200	0.030300
C3161	C316	0.574400	0.781100	0.996900
H1301	H130	0.577400	0.804300	0.012200
C3171	C317	0.600900	0.773100	0.965600
C3181	C318	0.596400	0.738300	0.942800
H1311	H131	0.614100	0.733000	0.921800
C3191	C319	0.565400	0.711600	0.951300
H1321	H132	0.562400	0.688400	0.936000
C3201	C320	0.538900	0.719600	0.982600
H1331	H133	0.518200	0.701700	0.988300
C3211	C321	0.543400	0.754300	0.005400
C3221	C322	0.450400	0.872200	0.196700
C3231	C323	0.446900	0.845200	0.173900
O391	O39	0.623640	0.189210	0.376490
O401	O40	0.644400	0.223700	0.324400
C3241	C324	0.568400	0.242990	0.401400
H1341	H134	0.572100	0.220700	0.417900
C3251	C325	0.591270	0.247200	0.366700
C3261	C326	0.585800	0.280500	0.342010
H1351	H135	0.601100	0.283300	0.318800
C3271	C327	0.557500	0.309600	0.352100
C3281	C328	0.534700	0.305400	0.386800
H1361	H136	0.515800	0.324800	0.393600
C3291	C329	0.540200	0.272100	0.411500
C3301	C330	0.623700	0.218300	0.352200
C3311	C331	0.513400	0.266300	0.442600
C3321	C332	0.490100	0.264200	0.469700
C3331	C333	0.425600	0.281100	0.503100
H1371	H137	0.422600	0.304300	0.487800
C3341	C334	0.399100	0.273100	0.534400
C3351	C335	0.403600	0.238300	0.557200
H1381	H138	0.385900	0.233000	0.578200
C3361	C336	0.434600	0.211600	0.548700
H1391	H139	0.437600	0.188400	0.564000
C3371	C337	0.461100	0.219600	0.517400
H1401	H140	0.481800	0.201700	0.511700
C3381	C338	0.456600	0.254300	0.494600
C3391	C339	0.549600	0.372200	0.303300
C3401	C340	0.553100	0.345200	0.326100
O411	O41	0.810790	0.876490	0.876360
O421	O42	0.776300	0.824400	0.855600
C3411	C341	0.757010	0.901400	0.931600
H1411	H141	0.779300	0.917900	0.927900
C3421	C342	0.752800	0.866700	0.908730
C3431	C343	0.719500	0.842010	0.914200
H1421	H142	0.716700	0.818800	0.898900
C3441	C344	0.690400	0.852100	0.942500
C3451	C345	0.694600	0.886800	0.965300
H1431	H143	0.675200	0.893600	0.984200
C3461	C346	0.727900	0.911500	0.959800
C3471	C347	0.781700	0.852200	0.876300
C3481	C348	0.733700	0.942600	0.986600
C3491	C349	0.735800	0.969700	0.009900
C3501	C350	0.718900	0.003100	0.074400
H1441	H144	0.695700	0.987800	0.077400
C3511	C351	0.726900	0.034400	0.100900
C3521	C352	0.761700	0.057200	0.096400
H1451	H145	0.767000	0.078200	0.114100
C3531	C353	0.788400	0.048700	0.065400
H1461	H146	0.811600	0.064000	0.062400
C3541	C354	0.780400	0.017400	0.038900
H1471	H147	0.798300	0.011700	0.018200
C3551	C355	0.745700	0.994600	0.043400
C3561	C356	0.627800	0.803300	0.950400
C3571	C357	0.654800	0.826100	0.946900
O431	O43	0.310790	0.623510	0.123640
O441	O44	0.276300	0.675600	0.144400
C3581	C358	0.257010	0.598600	0.068400
H1481	H148	0.279300	0.582100	0.072100
C3591	C359	0.252800	0.633300	0.091270
C3601	C360	0.219500	0.657990	0.085800
H1491	H149	0.216700	0.681200	0.101100
C3611	C361	0.190400	0.647900	0.057500
C3621	C362	0.194600	0.613200	0.034700
H1501	H150	0.175200	0.606400	0.015800
C3631	C363	0.227900	0.588500	0.040200
C3641	C364	0.281700	0.647800	0.123700
C3651	C365	0.233700	0.557400	0.013400
C3661	C366	0.235800	0.530300	0.990100
C3671	C367	0.218900	0.496900	0.925600
H1511	H151	0.195700	0.512200	0.922600
C3681	C368	0.226900	0.465600	0.899100
C3691	C369	0.261700	0.442800	0.903600
H1521	H152	0.267000	0.421800	0.885900
C3701	C370	0.288400	0.451300	0.934600
H1531	H153	0.311600	0.436000	0.937600
C3711	C371	0.280400	0.482600	0.961100
H1541	H154	0.298300	0.488300	0.981800
C3721	C372	0.245700	0.505400	0.956600
C3731	C373	0.127800	0.696700	0.049600
C3741	C374	0.154800	0.673900	0.053100
O451	O45	0.189210	0.376490	0.623640
O461	O46	0.223700	0.324400	0.644400
C3751	C375	0.242990	0.401400	0.568400
H1551	H155	0.220700	0.417900	0.572100
C3761	C376	0.247200	0.366700	0.591270
C3771	C377	0.280500	0.342010	0.585800
H1561	H156	0.283300	0.318800	0.601100
C3781	C378	0.309600	0.352100	0.557500
C3791	C379	0.305400	0.386800	0.534700
H1571	H157	0.324800	0.393600	0.515800
C3801	C380	0.272100	0.411500	0.540200
C3811	C381	0.218300	0.352200	0.623700
C3821	C382	0.266300	0.442600	0.513400
C3831	C383	0.264200	0.469700	0.490100
C3841	C384	0.281100	0.503100	0.425600
H1581	H158	0.304300	0.487800	0.422600
C3851	C385	0.273100	0.534400	0.399100
C3861	C386	0.238300	0.557200	0.403600
H1591	H159	0.233000	0.578200	0.385900
C3871	C387	0.211600	0.548700	0.434600
H1601	H160	0.188400	0.564000	0.437600
C3881	C388	0.219600	0.517400	0.461100
H1611	H161	0.201700	0.511700	0.481800
C3891	C389	0.254300	0.494600	0.456600
C3901	C390	0.372200	0.303300	0.549600
C3911	C391	0.345200	0.326100	0.553100
O471	O47	0.689210	0.123510	0.376360
O481	O48	0.723700	0.175600	0.355600
C3921	C392	0.742990	0.098600	0.431600
H1621	H162	0.720700	0.082100	0.427900
C3931	C393	0.747200	0.133300	0.408730
C3941	C394	0.780500	0.157990	0.414200
H1631	H163	0.783300	0.181200	0.398900
C3951	C395	0.809600	0.147900	0.442500
C3961	C396	0.805400	0.113200	0.465300
H1641	H164	0.824800	0.106400	0.484200
C3971	C397	0.772100	0.088500	0.459800
C3981	C398	0.718300	0.147800	0.376300
C3991	C399	0.766300	0.057400	0.486600
C4001	C400	0.764200	0.030300	0.509900
C4011	C401	0.781100	0.996900	0.574400
H1651	H165	0.804300	0.012200	0.577400
C4021	C402	0.773100	0.965600	0.600900
C4031	C403	0.738300	0.942800	0.596400
H1661	H166	0.733000	0.921800	0.614100
C4041	C404	0.711600	0.951300	0.565400
H1671	H167	0.688400	0.936000	0.562400
C4051	C405	0.719600	0.982600	0.538900
H1681	H168	0.701700	0.988300	0.518200
C4061	C406	0.754300	0.005400	0.543400
C4071	C407	0.872200	0.196700	0.450400
C4081	C408	0.845200	0.173900	0.446900
Zn11	Zn1	0.375000	0.625000	0.125000
Zn21	Zn2	0.125000	0.375000	0.625000
Zn31	Zn3	0.625000	0.125000	0.375000
Zn41	Zn4	0.875000	0.875000	0.875000
Zn51	Zn5	0.436920	0.563080	0.063080
Zn61	Zn6	0.063080	0.436920	0.563080
Zn71	Zn7	0.563080	0.063080	0.436920
Zn81	Zn8	0.936920	0.936920	0.936920
Zn91	Zn9	0.313080	0.686920	0.186920
Zn101	Zn10	0.186920	0.313080	0.686920
Zn111	Zn11	0.813080	0.813080	0.813080
Zn121	Zn12	0.686920	0.186920	0.313080
