data_RUFRIV_clean_PM
_symmetry_space_group_name_H-M	'P1'
_cell_length_a	13.654600
_cell_length_b	14.212600
_cell_length_c	14.637700
_cell_angle_alpha	76.057000
_cell_angle_beta	86.390000
_cell_angle_gamma	67.910000
_symmetry_Int_Tables_number 1

loop_
_symmetry_equiv_pos_as_xyz
'x,y,z'

loop_
_atom_site_label
_atom_site_type_symbol
_atom_site_fract_x
_atom_site_fract_y
_atom_site_fract_z
Zn11	Zn1	0.665310	0.142370	0.229250
Zn21	Zn2	0.015810	0.370620	0.141250
Zn31	Zn3	0.850430	0.243470	0.224100
Zn41	Zn4	0.261430	0.233100	0.108120
Zn51	Zn5	0.511640	0.052990	0.127420
O11	O1	0.817300	0.818500	0.776100
O21	O2	0.361800	0.077300	0.100200
O31	O3	0.644100	0.715500	0.992500
O41	O4	0.151200	0.385300	0.091600
O51	O5	0.742400	0.814600	0.644900
O61	O6	0.897600	0.511400	0.081700
H11	H1	0.867000	0.548000	0.029200
O71	O7	0.939700	0.311800	0.246400
O81	O8	0.995400	0.288100	0.059600
O91	O9	0.474300	0.820900	0.958900
O101	O10	0.093600	0.884600	0.820200
O111	O11	0.593100	0.292500	0.198000
O121	O12	0.161800	0.208600	0.018300
O131	O13	0.623700	0.940800	0.071200
H21	H2	0.637000	0.929000	0.016000
O141	O14	0.552600	0.090100	0.241400
O151	O15	0.811000	0.195900	0.355400
O161	O16	0.726000	0.348700	0.152700
O171	O17	0.229400	0.921100	0.856000
O181	O18	0.736200	0.080600	0.352900
N11	N1	0.507800	0.918800	0.232400
C11	C1	0.131900	0.938500	0.850400
C21	C2	0.067000	0.226800	0.016300
N21	N2	0.026500	0.459000	0.238000
C31	C3	0.582600	0.550400	0.083000
H31	H3	0.654500	0.536900	0.076100
C41	C4	0.796700	0.981100	0.540700
H41	H4	0.752500	0.960600	0.511000
C51	C5	0.629900	0.361500	0.162500
C61	C6	0.171000	0.461900	0.128600
H51	H5	0.132500	0.531200	0.090400
H61	H6	0.245800	0.449700	0.125900
C71	C7	0.094700	0.087800	0.929300
H71	H7	0.167100	0.067700	0.938900
C81	C8	0.337300	0.989400	0.147700
H81	H8	0.355200	0.939700	0.108300
H91	H9	0.261800	0.012000	0.157700
C91	C9	0.902700	0.957700	0.673700
H101	H10	0.929300	0.922200	0.734500
C101	C10	0.833100	0.930300	0.632100
C111	C11	0.136300	0.455900	0.230400
H111	H11	0.183400	0.391700	0.270600
H121	H12	0.140500	0.514100	0.251300
C121	C12	0.661500	0.841600	0.139600
H131	H13	0.713000	0.841100	0.182600
H141	H14	0.695400	0.785500	0.107800
C131	C13	0.920600	0.360800	0.325000
H151	H15	0.920200	0.310400	0.382900
H161	H16	0.852100	0.417700	0.316300
C141	C14	0.535800	0.027700	0.327500
H171	H17	0.462700	0.058000	0.344600
H181	H18	0.580300	0.027400	0.376700
C151	C15	0.056100	0.032300	0.883100
C161	C16	0.881200	0.150400	0.897700
H191	H19	0.809000	0.174500	0.884100
C171	C17	0.560000	0.917500	0.320800
H201	H20	0.534100	0.880900	0.375500
H211	H21	0.635900	0.881200	0.319200
C181	C18	0.917800	0.201000	0.944500
H221	H22	0.870400	0.256700	0.966800
C191	C19	0.826600	0.063400	0.492800
C201	C20	0.508900	0.650800	0.048300
C211	C21	0.794600	0.847400	0.688700
C221	C22	0.025500	0.171700	0.960200
C231	C23	0.550000	0.472500	0.126600
C241	C24	0.894900	0.090800	0.536700
H231	H23	0.914800	0.145700	0.505400
C251	C25	0.402800	0.671500	0.060300
H241	H24	0.352900	0.738000	0.036800
C261	C26	0.933300	0.037900	0.625300
H251	H25	0.980700	0.055900	0.653700
C271	C27	0.948700	0.062600	0.869100
H261	H26	0.922100	0.024800	0.840900
C281	C28	0.396500	0.935500	0.242600
H271	H27	0.366600	0.978300	0.287500
H281	H28	0.388800	0.868900	0.266600
C291	C29	0.444000	0.492700	0.139800
H291	H29	0.421800	0.439100	0.170200
C301	C30	0.567400	0.825400	0.194500
H301	H30	0.521400	0.815100	0.153200
H311	H31	0.592600	0.763700	0.245800
C311	C31	0.855500	0.573100	0.150800
H321	H32	0.809200	0.545800	0.192300
H331	H33	0.815100	0.645100	0.119700
C321	C32	0.945700	0.567300	0.205500
H341	H34	0.919000	0.595400	0.260200
H351	H35	0.980000	0.611100	0.167000
C331	C33	0.787400	0.118800	0.392400
C341	C34	0.546000	0.734900	0.996500
C351	C35	0.005900	0.401800	0.331400
H361	H36	0.984900	0.448200	0.374100
H371	H37	0.070400	0.343900	0.357000
C361	C36	0.371900	0.590900	0.108300
H381	H38	0.300600	0.604300	0.119200
Zn61	Zn6	0.334690	0.857630	0.770750
Zn71	Zn7	0.984190	0.629380	0.858750
Zn81	Zn8	0.149570	0.756530	0.775900
Zn91	Zn9	0.738570	0.766900	0.891880
Zn101	Zn10	0.488360	0.947010	0.872580
O191	O19	0.182700	0.181500	0.223900
O201	O20	0.638200	0.922700	0.899800
O211	O21	0.355900	0.284500	0.007500
O221	O22	0.848800	0.614700	0.908400
O231	O23	0.257600	0.185400	0.355100
O241	O24	0.102400	0.488600	0.918300
H391	H39	0.133000	0.452000	0.970800
O251	O25	0.060300	0.688200	0.753600
O261	O26	0.004600	0.711900	0.940400
O271	O27	0.525700	0.179100	0.041100
O281	O28	0.906400	0.115400	0.179800
O291	O29	0.406900	0.707500	0.802000
O301	O30	0.838200	0.791400	0.981700
O311	O31	0.376300	0.059200	0.928800
H401	H40	0.363000	0.071000	0.984000
O321	O32	0.447400	0.909900	0.758600
O331	O33	0.189000	0.804100	0.644600
O341	O34	0.274000	0.651300	0.847300
O351	O35	0.770600	0.078900	0.144000
O361	O36	0.263800	0.919400	0.647100
N31	N3	0.492200	0.081200	0.767600
C371	C37	0.868100	0.061500	0.149600
C381	C38	0.933000	0.773200	0.983700
N41	N4	0.973500	0.541000	0.762000
C391	C39	0.417400	0.449600	0.917000
H411	H41	0.345500	0.463100	0.923900
C401	C40	0.203300	0.018900	0.459300
H421	H42	0.247500	0.039400	0.489000
C411	C41	0.370100	0.638500	0.837500
C421	C42	0.829000	0.538100	0.871400
H431	H43	0.867500	0.468800	0.909600
H441	H44	0.754200	0.550300	0.874100
C431	C43	0.905300	0.912200	0.070700
H451	H45	0.832900	0.932300	0.061100
C441	C44	0.662700	0.010600	0.852300
H461	H46	0.644800	0.060300	0.891700
H471	H47	0.738200	0.988000	0.842300
C451	C45	0.097300	0.042300	0.326300
H481	H48	0.070700	0.077800	0.265500
C461	C46	0.166900	0.069700	0.367900
C471	C47	0.863700	0.544100	0.769600
H491	H49	0.816600	0.608300	0.729400
H501	H50	0.859500	0.485900	0.748700
C481	C48	0.338500	0.158400	0.860400
H511	H51	0.287000	0.158900	0.817400
H521	H52	0.304600	0.214500	0.892200
C491	C49	0.079400	0.639200	0.675000
H531	H53	0.079800	0.689600	0.617100
H541	H54	0.147900	0.582300	0.683700
C501	C50	0.464200	0.972300	0.672500
H551	H55	0.537300	0.942000	0.655400
H561	H56	0.419700	0.972600	0.623300
C511	C51	0.943900	0.967700	0.116900
C521	C52	0.118800	0.849600	0.102300
H571	H57	0.191000	0.825500	0.115900
C531	C53	0.440000	0.082500	0.679200
H581	H58	0.465900	0.119100	0.624500
H591	H59	0.364100	0.118800	0.680800
C541	C54	0.082200	0.799000	0.055500
H601	H60	0.129600	0.743300	0.033200
C551	C55	0.173400	0.936600	0.507200
C561	C56	0.491100	0.349200	0.951700
C571	C57	0.205400	0.152600	0.311300
C581	C58	0.974500	0.828300	0.039800
C591	C59	0.450000	0.527500	0.873400
C601	C60	0.105100	0.909200	0.463300
H611	H61	0.085200	0.854300	0.494600
C611	C61	0.597200	0.328500	0.939700
H621	H62	0.647100	0.262000	0.963200
C621	C62	0.066700	0.962100	0.374700
H631	H63	0.019300	0.944100	0.346300
C631	C63	0.051300	0.937400	0.130900
H641	H64	0.077900	0.975200	0.159100
C641	C64	0.603500	0.064500	0.757400
H651	H65	0.633400	0.021700	0.712500
H661	H66	0.611200	0.131100	0.733400
C651	C65	0.556000	0.507300	0.860200
H671	H67	0.578200	0.560900	0.829800
C661	C66	0.432600	0.174600	0.805500
H681	H68	0.478600	0.184900	0.846800
H691	H69	0.407400	0.236300	0.754200
C671	C67	0.144500	0.426900	0.849200
H701	H70	0.190800	0.454200	0.807700
H711	H71	0.184900	0.354900	0.880300
C681	C68	0.054300	0.432700	0.794500
H721	H72	0.081000	0.404600	0.739800
H731	H73	0.020000	0.388900	0.833000
C691	C69	0.212600	0.881200	0.607600
C701	C70	0.454000	0.265100	0.003500
C711	C71	0.994100	0.598200	0.668600
H741	H74	0.015100	0.551800	0.625900
H751	H75	0.929600	0.656100	0.643000
C721	C72	0.628100	0.409100	0.891700
H761	H76	0.699400	0.395700	0.880800
