data_RUGGUX_clean_PM
_symmetry_space_group_name_H-M	'P1'
_cell_length_a	11.380000
_cell_length_b	7.182000
_cell_length_c	6.628000
_cell_angle_alpha	90.000000
_cell_angle_beta	109.754000
_cell_angle_gamma	90.000000
_symmetry_Int_Tables_number 1

loop_
_symmetry_equiv_pos_as_xyz
'x,y,z'

loop_
_atom_site_label
_atom_site_type_symbol
_atom_site_fract_x
_atom_site_fract_y
_atom_site_fract_z
O11	O1	0.508200	0.302600	0.337600
O21	O2	0.673000	0.249500	0.116200
O31	O3	0.847200	0.112600	0.118500
C11	C1	0.735800	0.153200	0.035000
H11	H1	0.695100	0.107100	0.898100
O41	O4	0.008200	0.802600	0.337600
O51	O5	0.173000	0.749500	0.116200
O61	O6	0.347200	0.612600	0.118500
C21	C2	0.235800	0.653200	0.035000
H21	H2	0.195100	0.607100	0.898100
O71	O7	0.491800	0.302600	0.662400
O81	O8	0.327000	0.249500	0.883800
O91	O9	0.152800	0.112600	0.881500
C31	C3	0.264200	0.153200	0.965000
H31	H3	0.304900	0.107100	0.101900
O101	O10	0.991800	0.802600	0.662400
O111	O11	0.827000	0.749500	0.883800
O121	O12	0.652800	0.612600	0.881500
C41	C4	0.764200	0.653200	0.965000
H41	H4	0.804900	0.607100	0.101900
Gd11	Gd1	0.500000	0.449550	0.000000
Gd21	Gd2	0.000000	0.949550	0.000000
C51	C5	0.500000	0.381000	0.500000
H51	H5	0.500000	0.510700	0.500000
C61	C6	0.000000	0.881000	0.500000
H61	H6	0.000000	0.010700	0.500000
