data_RUGKOV_clean_PM
_symmetry_space_group_name_H-M	'P1'
_cell_length_a	20.104900
_cell_length_b	12.757500
_cell_length_c	14.427000
_cell_angle_alpha	90.000000
_cell_angle_beta	90.000000
_cell_angle_gamma	90.000000
_symmetry_Int_Tables_number 1

loop_
_symmetry_equiv_pos_as_xyz
'x,y,z'

loop_
_atom_site_label
_atom_site_type_symbol
_atom_site_fract_x
_atom_site_fract_y
_atom_site_fract_z
Zn11	Zn1	0.232620	0.706430	0.339370
Zn21	Zn2	0.267970	0.532130	0.174370
N11	N1	0.171000	0.568600	0.156900
N21	N2	0.275100	0.488600	0.307500
N31	N3	0.183700	0.169000	0.826200
N41	N4	0.069900	0.565500	0.083400
O11	O1	0.047400	0.369200	0.961900
C11	C1	0.070200	0.640400	0.154500
N51	N5	0.255400	0.559400	0.373900
N61	N6	0.198900	0.237700	0.757900
O21	O2	0.266000	0.345500	0.593200
O31	O3	0.305000	0.233500	0.492900
C21	C2	0.139700	0.213700	0.882600
H11	H1	0.121300	0.182300	0.934800
C31	C3	0.257000	0.508600	0.455900
H21	H2	0.246100	0.538300	0.512800
C41	C4	0.277200	0.406900	0.443300
C51	C5	0.129800	0.639500	0.197900
C61	C6	0.164900	0.323400	0.774100
H31	H3	0.167400	0.383200	0.737400
C71	C7	0.081200	0.396600	0.891700
N71	N7	0.144300	0.700700	0.272300
C81	C8	0.132900	0.524800	0.090200
H41	H4	0.148200	0.471400	0.051900
N81	N8	0.962100	0.725800	0.138800
H51	H5	0.935000	0.774100	0.156100
H61	H6	0.952200	0.686200	0.092500
C91	C9	0.125300	0.315100	0.851300
C101	C10	0.094400	0.763000	0.296200
H71	H7	0.101500	0.804800	0.348100
O41	O4	0.079600	0.481600	0.862600
C111	C11	0.286600	0.399700	0.350800
H81	H8	0.299700	0.338500	0.320900
C121	C12	0.021000	0.712000	0.184700
N91	N9	0.035000	0.773300	0.255000
C131	C13	0.283600	0.325100	0.510700
Zn31	Zn3	0.767380	0.293570	0.339370
Zn41	Zn4	0.732030	0.467870	0.174370
N101	N10	0.829000	0.431400	0.156900
N111	N11	0.724900	0.511400	0.307500
N121	N12	0.816300	0.831000	0.826200
N131	N13	0.930100	0.434500	0.083400
O51	O5	0.952600	0.630800	0.961900
C141	C14	0.929800	0.359600	0.154500
N141	N14	0.744600	0.440600	0.373900
N151	N15	0.801100	0.762300	0.757900
O61	O6	0.734000	0.654500	0.593200
O71	O7	0.695000	0.766500	0.492900
C151	C15	0.860300	0.786300	0.882600
H91	H9	0.878700	0.817700	0.934800
C161	C16	0.743000	0.491400	0.455900
H101	H10	0.753900	0.461700	0.512800
C171	C17	0.722800	0.593100	0.443300
C181	C18	0.870200	0.360500	0.197900
C191	C19	0.835100	0.676600	0.774100
H111	H11	0.832600	0.616800	0.737400
C201	C20	0.918800	0.603400	0.891700
N161	N16	0.855700	0.299300	0.272300
C211	C21	0.867100	0.475200	0.090200
H121	H12	0.851800	0.528600	0.051900
N171	N17	0.037900	0.274200	0.138800
H131	H13	0.065000	0.225900	0.156100
H141	H14	0.047800	0.313800	0.092500
C221	C22	0.874700	0.684900	0.851300
C231	C23	0.905600	0.237000	0.296200
H151	H15	0.898500	0.195200	0.348100
O81	O8	0.920400	0.518400	0.862600
C241	C24	0.713400	0.600300	0.350800
H161	H16	0.700300	0.661500	0.320900
C251	C25	0.979000	0.288000	0.184700
N181	N18	0.965000	0.226700	0.255000
C261	C26	0.716400	0.674900	0.510700
Zn51	Zn5	0.267380	0.206430	0.660630
Zn61	Zn6	0.232030	0.032130	0.825630
N191	N19	0.329000	0.068600	0.843100
N201	N20	0.224900	0.988600	0.692500
N211	N21	0.316300	0.669000	0.173800
N221	N22	0.430100	0.065500	0.916600
O91	O9	0.452600	0.869200	0.038100
C271	C27	0.429800	0.140400	0.845500
N231	N23	0.244600	0.059400	0.626100
N241	N24	0.301100	0.737700	0.242100
O101	O10	0.234000	0.845500	0.406800
O111	O11	0.195000	0.733500	0.507100
C281	C28	0.360300	0.713700	0.117400
H171	H17	0.378700	0.682300	0.065200
C291	C29	0.243000	0.008600	0.544100
H181	H18	0.253900	0.038300	0.487200
C301	C30	0.222800	0.906900	0.556700
C311	C31	0.370200	0.139500	0.802100
C321	C32	0.335100	0.823400	0.225900
H191	H19	0.332600	0.883200	0.262600
C331	C33	0.418800	0.896600	0.108300
N251	N25	0.355700	0.200700	0.727700
C341	C34	0.367100	0.024800	0.909800
H201	H20	0.351800	0.971400	0.948100
N261	N26	0.537900	0.225800	0.861200
H211	H21	0.565000	0.274100	0.843900
H221	H22	0.547800	0.186200	0.907500
C351	C35	0.374700	0.815100	0.148700
C361	C36	0.405600	0.263000	0.703800
H231	H23	0.398500	0.304800	0.651900
O121	O12	0.420400	0.981600	0.137400
C371	C37	0.213400	0.899700	0.649200
H241	H24	0.200300	0.838500	0.679100
C381	C38	0.479000	0.212000	0.815300
N271	N27	0.465000	0.273300	0.745000
C391	C39	0.216400	0.825100	0.489300
Zn71	Zn7	0.732620	0.793570	0.660630
Zn81	Zn8	0.767970	0.967870	0.825630
N281	N28	0.671000	0.931400	0.843100
N291	N29	0.775100	0.011400	0.692500
N301	N30	0.683700	0.331000	0.173800
N311	N31	0.569900	0.934500	0.916600
O131	O13	0.547400	0.130800	0.038100
C401	C40	0.570200	0.859600	0.845500
N321	N32	0.755400	0.940600	0.626100
N331	N33	0.698900	0.262300	0.242100
O141	O14	0.766000	0.154500	0.406800
O151	O15	0.805000	0.266500	0.507100
C411	C41	0.639700	0.286300	0.117400
H251	H25	0.621300	0.317700	0.065200
C421	C42	0.757000	0.991400	0.544100
H261	H26	0.746100	0.961700	0.487200
C431	C43	0.777200	0.093100	0.556700
C441	C44	0.629800	0.860500	0.802100
C451	C45	0.664900	0.176600	0.225900
H271	H27	0.667400	0.116800	0.262600
C461	C46	0.581200	0.103400	0.108300
N341	N34	0.644300	0.799300	0.727700
C471	C47	0.632900	0.975200	0.909800
H281	H28	0.648200	0.028600	0.948100
N351	N35	0.462100	0.774200	0.861200
H291	H29	0.435000	0.725900	0.843900
H301	H30	0.452200	0.813800	0.907500
C481	C48	0.625300	0.184900	0.148700
C491	C49	0.594400	0.737000	0.703800
H311	H31	0.601500	0.695200	0.651900
O161	O16	0.579600	0.018400	0.137400
C501	C50	0.786600	0.100300	0.649200
H321	H32	0.799700	0.161500	0.679100
C511	C51	0.521000	0.788000	0.815300
N361	N36	0.535000	0.726700	0.745000
C521	C52	0.783600	0.174900	0.489300
Zn91	Zn9	0.000000	0.500000	0.998060
Zn101	Zn10	0.500000	0.000000	0.001940
