data_RUGPEQ_clean_PM
_symmetry_space_group_name_H-M	'P1'
_cell_length_a	11.786500
_cell_length_b	16.716000
_cell_length_c	52.892000
_cell_angle_alpha	90.000000
_cell_angle_beta	90.000000
_cell_angle_gamma	90.000000
_symmetry_Int_Tables_number 1

loop_
_symmetry_equiv_pos_as_xyz
'x,y,z'

loop_
_atom_site_label
_atom_site_type_symbol
_atom_site_fract_x
_atom_site_fract_y
_atom_site_fract_z
C11	C1	0.812300	0.436700	0.857220
C21	C2	0.772000	0.503900	0.873450
C31	C3	0.696700	0.559400	0.863760
H11	H1	0.669200	0.553300	0.847400
C41	C4	0.662200	0.623300	0.878010
H21	H2	0.609200	0.659200	0.871600
C51	C5	0.706900	0.634200	0.902080
C61	C6	0.781700	0.579600	0.911620
H31	H3	0.811000	0.587000	0.927800
C71	C7	0.814800	0.513500	0.897650
H41	H4	0.864800	0.476200	0.904400
C81	C8	0.670700	0.704300	0.917500
C91	C9	0.059700	0.207500	0.829650
C101	C10	0.139800	0.138500	0.833200
C111	C11	0.145400	0.098900	0.855790
H51	H5	0.099500	0.114700	0.869200
C121	C12	0.219100	0.035400	0.858750
H61	H6	0.221100	0.008600	0.874200
C131	C13	0.289600	0.010600	0.839570
C141	C14	0.280800	0.048800	0.816390
H71	H7	0.325900	0.032100	0.803000
C151	C15	0.206100	0.111100	0.813030
H81	H8	0.199600	0.135100	0.797200
C161	C16	0.372800	0.941400	0.843150
C171	C17	0.869400	0.313500	0.763710
H91	H9	0.922700	0.273300	0.766300
C181	C18	0.815700	0.315700	0.740120
H101	H10	0.836100	0.279600	0.727500
C191	C19	0.733600	0.370800	0.735700
C201	C20	0.715900	0.424300	0.754670
H111	H11	0.664000	0.465800	0.752600
C211	C21	0.775800	0.416500	0.776970
H121	H12	0.760400	0.453800	0.789600
C221	C22	0.667700	0.373900	0.711850
C231	C23	0.699800	0.328600	0.691030
H131	H13	0.763400	0.295900	0.692300
C241	C24	0.641000	0.330300	0.668470
H141	H14	0.665600	0.299500	0.654900
C251	C25	0.545600	0.377600	0.666080
C261	C26	0.513600	0.423700	0.686900
H151	H15	0.450600	0.457000	0.685700
C271	C27	0.573600	0.420700	0.709170
H161	H16	0.549300	0.451400	0.722800
C281	C28	0.500000	0.360200	0.619610
C291	C29	0.406500	0.342300	0.604470
H171	H17	0.334000	0.345400	0.611300
C301	C30	0.419200	0.320600	0.580000
H181	H18	0.355200	0.310200	0.570300
C311	C31	0.527100	0.313500	0.568970
C321	C32	0.618800	0.332000	0.584680
H191	H19	0.691600	0.329200	0.578000
C331	C33	0.606600	0.354000	0.609280
H201	H20	0.670300	0.364700	0.619100
C341	C34	0.464800	0.253000	0.502240
H211	H21	0.400700	0.247500	0.492100
C351	C35	0.449000	0.281600	0.526380
H221	H22	0.377400	0.297900	0.531700
C361	C36	0.540500	0.286100	0.542630
C371	C37	0.639400	0.270000	0.531930
H231	H23	0.706300	0.278600	0.540800
C381	C38	0.643600	0.240300	0.507360
H241	H24	0.714500	0.224200	0.501600
C391	C39	0.138500	0.206600	0.923660
C401	C40	0.215100	0.135300	0.927350
C411	C41	0.196600	0.085300	0.947480
H251	H25	0.136700	0.095400	0.958500
C421	C42	0.266100	0.019800	0.951580
H261	H26	0.254600	0.987100	0.965600
C431	C43	0.352700	0.003200	0.934730
C441	C44	0.370500	0.054200	0.915090
H271	H27	0.429700	0.044300	0.903900
C451	C45	0.302700	0.119600	0.911510
H281	H28	0.317000	0.153800	0.898000
C461	C46	0.426100	0.932700	0.939310
Cd11	Cd1	0.915350	0.335790	0.822210
Cd21	Cd2	0.024900	0.324150	0.885130
Cd31	Cd3	0.567160	0.806780	0.950580
N11	N1	0.851700	0.362200	0.782210
N21	N2	0.563100	0.232600	0.492200
N31	N3	0.476600	0.383600	0.644480
O11	O1	0.780500	0.433700	0.834760
O21	O2	0.875400	0.382600	0.866080
O31	O3	0.622100	0.761410	0.906930
O41	O4	0.690600	0.704620	0.940700
O51	O5	0.017400	0.241220	0.848820
O61	O6	0.035200	0.230200	0.807830
O71	O7	0.366200	0.908060	0.864370
O81	O8	0.440400	0.926760	0.826100
O91	O9	0.484800	0.903760	0.921580
O101	O10	0.430200	0.903300	0.960910
O111	O11	0.077900	0.224000	0.942150
O121	O12	0.142400	0.240510	0.903060
C471	C47	0.687700	0.063300	0.357220
C481	C48	0.728000	0.996100	0.373450
C491	C49	0.803300	0.940600	0.363760
H291	H29	0.830800	0.946700	0.347400
C501	C50	0.837800	0.876700	0.378010
H301	H30	0.890800	0.840800	0.371600
C511	C51	0.793100	0.865800	0.402080
C521	C52	0.718300	0.920400	0.411620
H311	H31	0.689000	0.913000	0.427800
C531	C53	0.685200	0.986500	0.397650
H321	H32	0.635200	0.023800	0.404400
C541	C54	0.829300	0.795700	0.417500
C551	C55	0.440300	0.292500	0.329650
C561	C56	0.360200	0.361500	0.333200
C571	C57	0.354600	0.401100	0.355790
H331	H33	0.400500	0.385300	0.369200
C581	C58	0.280900	0.464600	0.358750
H341	H34	0.278900	0.491400	0.374200
C591	C59	0.210400	0.489400	0.339570
C601	C60	0.219200	0.451200	0.316390
H351	H35	0.174100	0.467900	0.303000
C611	C61	0.293900	0.388900	0.313030
H361	H36	0.300400	0.364900	0.297200
C621	C62	0.127200	0.558600	0.343150
C631	C63	0.630600	0.186500	0.263710
H371	H37	0.577300	0.226700	0.266300
C641	C64	0.684300	0.184300	0.240120
H381	H38	0.663900	0.220400	0.227500
C651	C65	0.766400	0.129200	0.235700
C661	C66	0.784100	0.075700	0.254670
H391	H39	0.836000	0.034200	0.252600
C671	C67	0.724200	0.083500	0.276970
H401	H40	0.739600	0.046200	0.289600
C681	C68	0.832300	0.126100	0.211850
C691	C69	0.800200	0.171400	0.191030
H411	H41	0.736600	0.204100	0.192300
C701	C70	0.859000	0.169700	0.168470
H421	H42	0.834400	0.200500	0.154900
C711	C71	0.954400	0.122400	0.166080
C721	C72	0.986400	0.076300	0.186900
H431	H43	0.049400	0.043000	0.185700
C731	C73	0.926400	0.079300	0.209170
H441	H44	0.950700	0.048600	0.222800
C741	C74	0.000000	0.139800	0.119610
C751	C75	0.093500	0.157700	0.104470
H451	H45	0.166000	0.154600	0.111300
C761	C76	0.080800	0.179400	0.080000
H461	H46	0.144800	0.189800	0.070300
C771	C77	0.972900	0.186500	0.068970
C781	C78	0.881200	0.168000	0.084680
H471	H47	0.808400	0.170800	0.078000
C791	C79	0.893400	0.146000	0.109280
H481	H48	0.829700	0.135300	0.119100
C801	C80	0.035200	0.247000	0.002240
H491	H49	0.099300	0.252500	0.992100
C811	C81	0.051000	0.218400	0.026380
H501	H50	0.122600	0.202100	0.031700
C821	C82	0.959500	0.213900	0.042630
C831	C83	0.860600	0.230000	0.031930
H511	H51	0.793700	0.221400	0.040800
C841	C84	0.856400	0.259700	0.007360
H521	H52	0.785500	0.275800	0.001600
C851	C85	0.361500	0.293400	0.423660
C861	C86	0.284900	0.364700	0.427350
C871	C87	0.303400	0.414700	0.447480
H531	H53	0.363300	0.404600	0.458500
C881	C88	0.233900	0.480200	0.451580
H541	H54	0.245400	0.512900	0.465600
C891	C89	0.147300	0.496800	0.434730
C901	C90	0.129500	0.445800	0.415090
H551	H55	0.070300	0.455700	0.403900
C911	C91	0.197300	0.380400	0.411510
H561	H56	0.183000	0.346200	0.398000
C921	C92	0.073900	0.567300	0.439310
Cd41	Cd4	0.584650	0.164210	0.322210
Cd51	Cd5	0.475100	0.175850	0.385130
Cd61	Cd6	0.932840	0.693220	0.450580
N41	N4	0.648300	0.137800	0.282210
N51	N5	0.936900	0.267400	0.992200
N61	N6	0.023400	0.116400	0.144480
O131	O13	0.719500	0.066300	0.334760
O141	O14	0.624600	0.117400	0.366080
O151	O15	0.877900	0.738590	0.406930
O161	O16	0.809400	0.795380	0.440700
O171	O17	0.482600	0.258780	0.348820
O181	O18	0.464800	0.269800	0.307830
O191	O19	0.133800	0.591940	0.364370
O201	O20	0.059600	0.573240	0.326100
O211	O21	0.015200	0.596240	0.421580
O221	O22	0.069800	0.596700	0.460910
O231	O23	0.422100	0.276000	0.442150
O241	O24	0.357600	0.259490	0.403060
C931	C93	0.812300	0.563300	0.357220
C941	C94	0.772000	0.496100	0.373450
C951	C95	0.696700	0.440600	0.363760
H571	H57	0.669200	0.446700	0.347400
C961	C96	0.662200	0.376700	0.378010
H581	H58	0.609200	0.340800	0.371600
C971	C97	0.706900	0.365800	0.402080
C981	C98	0.781700	0.420400	0.411620
H591	H59	0.811000	0.413000	0.427800
C991	C99	0.814800	0.486500	0.397650
H601	H60	0.864800	0.523800	0.404400
C1001	C100	0.670700	0.295700	0.417500
C1011	C101	0.059700	0.792500	0.329650
C1021	C102	0.139800	0.861500	0.333200
C1031	C103	0.145400	0.901100	0.355790
H611	H61	0.099500	0.885300	0.369200
C1041	C104	0.219100	0.964600	0.358750
H621	H62	0.221100	0.991400	0.374200
C1051	C105	0.289600	0.989400	0.339570
C1061	C106	0.280800	0.951200	0.316390
H631	H63	0.325900	0.967900	0.303000
C1071	C107	0.206100	0.888900	0.313030
H641	H64	0.199600	0.864900	0.297200
C1081	C108	0.372800	0.058600	0.343150
C1091	C109	0.869400	0.686500	0.263710
H651	H65	0.922700	0.726700	0.266300
C1101	C110	0.815700	0.684300	0.240120
H661	H66	0.836100	0.720400	0.227500
C1111	C111	0.733600	0.629200	0.235700
C1121	C112	0.715900	0.575700	0.254670
H671	H67	0.664000	0.534200	0.252600
C1131	C113	0.775800	0.583500	0.276970
H681	H68	0.760400	0.546200	0.289600
C1141	C114	0.667700	0.626100	0.211850
C1151	C115	0.699800	0.671400	0.191030
H691	H69	0.763400	0.704100	0.192300
C1161	C116	0.641000	0.669700	0.168470
H701	H70	0.665600	0.700500	0.154900
C1171	C117	0.545600	0.622400	0.166080
C1181	C118	0.513600	0.576300	0.186900
H711	H71	0.450600	0.543000	0.185700
C1191	C119	0.573600	0.579300	0.209170
H721	H72	0.549300	0.548600	0.222800
C1201	C120	0.500000	0.639800	0.119610
C1211	C121	0.406500	0.657700	0.104470
H731	H73	0.334000	0.654600	0.111300
C1221	C122	0.419200	0.679400	0.080000
H741	H74	0.355200	0.689800	0.070300
C1231	C123	0.527100	0.686500	0.068970
C1241	C124	0.618800	0.668000	0.084680
H751	H75	0.691600	0.670800	0.078000
C1251	C125	0.606600	0.646000	0.109280
H761	H76	0.670300	0.635300	0.119100
C1261	C126	0.464800	0.747000	0.002240
H771	H77	0.400700	0.752500	0.992100
C1271	C127	0.449000	0.718400	0.026380
H781	H78	0.377400	0.702100	0.031700
C1281	C128	0.540500	0.713900	0.042630
C1291	C129	0.639400	0.730000	0.031930
H791	H79	0.706300	0.721400	0.040800
C1301	C130	0.643600	0.759700	0.007360
H801	H80	0.714500	0.775800	0.001600
C1311	C131	0.138500	0.793400	0.423660
C1321	C132	0.215100	0.864700	0.427350
C1331	C133	0.196600	0.914700	0.447480
H811	H81	0.136700	0.904600	0.458500
C1341	C134	0.266100	0.980200	0.451580
H821	H82	0.254600	0.012900	0.465600
C1351	C135	0.352700	0.996800	0.434730
C1361	C136	0.370500	0.945800	0.415090
H831	H83	0.429700	0.955700	0.403900
C1371	C137	0.302700	0.880400	0.411510
H841	H84	0.317000	0.846200	0.398000
C1381	C138	0.426100	0.067300	0.439310
Cd71	Cd7	0.915350	0.664210	0.322210
Cd81	Cd8	0.024900	0.675850	0.385130
Cd91	Cd9	0.567160	0.193220	0.450580
N71	N7	0.851700	0.637800	0.282210
N81	N8	0.563100	0.767400	0.992200
N91	N9	0.476600	0.616400	0.144480
O251	O25	0.780500	0.566300	0.334760
O261	O26	0.875400	0.617400	0.366080
O271	O27	0.622100	0.238590	0.406930
O281	O28	0.690600	0.295380	0.440700
O291	O29	0.017400	0.758780	0.348820
O301	O30	0.035200	0.769800	0.307830
O311	O31	0.366200	0.091940	0.364370
O321	O32	0.440400	0.073240	0.326100
O331	O33	0.484800	0.096240	0.421580
O341	O34	0.430200	0.096700	0.460910
O351	O35	0.077900	0.776000	0.442150
O361	O36	0.142400	0.759490	0.403060
C1391	C139	0.687700	0.936700	0.857220
C1401	C140	0.728000	0.003900	0.873450
C1411	C141	0.803300	0.059400	0.863760
H851	H85	0.830800	0.053300	0.847400
C1421	C142	0.837800	0.123300	0.878010
H861	H86	0.890800	0.159200	0.871600
C1431	C143	0.793100	0.134200	0.902080
C1441	C144	0.718300	0.079600	0.911620
H871	H87	0.689000	0.087000	0.927800
C1451	C145	0.685200	0.013500	0.897650
H881	H88	0.635200	0.976200	0.904400
C1461	C146	0.829300	0.204300	0.917500
C1471	C147	0.440300	0.707500	0.829650
C1481	C148	0.360200	0.638500	0.833200
C1491	C149	0.354600	0.598900	0.855790
H891	H89	0.400500	0.614700	0.869200
C1501	C150	0.280900	0.535400	0.858750
H901	H90	0.278900	0.508600	0.874200
C1511	C151	0.210400	0.510600	0.839570
C1521	C152	0.219200	0.548800	0.816390
H911	H91	0.174100	0.532100	0.803000
C1531	C153	0.293900	0.611100	0.813030
H921	H92	0.300400	0.635100	0.797200
C1541	C154	0.127200	0.441400	0.843150
C1551	C155	0.630600	0.813500	0.763710
H931	H93	0.577300	0.773300	0.766300
C1561	C156	0.684300	0.815700	0.740120
H941	H94	0.663900	0.779600	0.727500
C1571	C157	0.766400	0.870800	0.735700
C1581	C158	0.784100	0.924300	0.754670
H951	H95	0.836000	0.965800	0.752600
C1591	C159	0.724200	0.916500	0.776970
H961	H96	0.739600	0.953800	0.789600
C1601	C160	0.832300	0.873900	0.711850
C1611	C161	0.800200	0.828600	0.691030
H971	H97	0.736600	0.795900	0.692300
C1621	C162	0.859000	0.830300	0.668470
H981	H98	0.834400	0.799500	0.654900
C1631	C163	0.954400	0.877600	0.666080
C1641	C164	0.986400	0.923700	0.686900
H991	H99	0.049400	0.957000	0.685700
C1651	C165	0.926400	0.920700	0.709170
H1001	H100	0.950700	0.951400	0.722800
C1661	C166	0.000000	0.860200	0.619610
C1671	C167	0.093500	0.842300	0.604470
H1011	H101	0.166000	0.845400	0.611300
C1681	C168	0.080800	0.820600	0.580000
H1021	H102	0.144800	0.810200	0.570300
C1691	C169	0.972900	0.813500	0.568970
C1701	C170	0.881200	0.832000	0.584680
H1031	H103	0.808400	0.829200	0.578000
C1711	C171	0.893400	0.854000	0.609280
H1041	H104	0.829700	0.864700	0.619100
C1721	C172	0.035200	0.753000	0.502240
H1051	H105	0.099300	0.747500	0.492100
C1731	C173	0.051000	0.781600	0.526380
H1061	H106	0.122600	0.797900	0.531700
C1741	C174	0.959500	0.786100	0.542630
C1751	C175	0.860600	0.770000	0.531930
H1071	H107	0.793700	0.778600	0.540800
C1761	C176	0.856400	0.740300	0.507360
H1081	H108	0.785500	0.724200	0.501600
C1771	C177	0.361500	0.706600	0.923660
C1781	C178	0.284900	0.635300	0.927350
C1791	C179	0.303400	0.585300	0.947480
H1091	H109	0.363300	0.595400	0.958500
C1801	C180	0.233900	0.519800	0.951580
H1101	H110	0.245400	0.487100	0.965600
C1811	C181	0.147300	0.503200	0.934730
C1821	C182	0.129500	0.554200	0.915090
H1111	H111	0.070300	0.544300	0.903900
C1831	C183	0.197300	0.619600	0.911510
H1121	H112	0.183000	0.653800	0.898000
C1841	C184	0.073900	0.432700	0.939310
Cd101	Cd10	0.584650	0.835790	0.822210
Cd111	Cd11	0.475100	0.824150	0.885130
Cd121	Cd12	0.932840	0.306780	0.950580
N101	N10	0.648300	0.862200	0.782210
N111	N11	0.936900	0.732600	0.492200
N121	N12	0.023400	0.883600	0.644480
O371	O37	0.719500	0.933700	0.834760
O381	O38	0.624600	0.882600	0.866080
O391	O39	0.877900	0.261410	0.906930
O401	O40	0.809400	0.204620	0.940700
O411	O41	0.482600	0.741220	0.848820
O421	O42	0.464800	0.730200	0.807830
O431	O43	0.133800	0.408060	0.864370
O441	O44	0.059600	0.426760	0.826100
O451	O45	0.015200	0.403760	0.921580
O461	O46	0.069800	0.403300	0.960910
O471	O47	0.422100	0.724000	0.942150
O481	O48	0.357600	0.740510	0.903060
C1851	C185	0.187700	0.436700	0.642780
C1861	C186	0.228000	0.503900	0.626550
C1871	C187	0.303300	0.559400	0.636240
H1131	H113	0.330800	0.553300	0.652600
C1881	C188	0.337800	0.623300	0.621990
H1141	H114	0.390800	0.659200	0.628400
C1891	C189	0.293100	0.634200	0.597920
C1901	C190	0.218300	0.579600	0.588380
H1151	H115	0.189000	0.587000	0.572200
C1911	C191	0.185200	0.513500	0.602350
H1161	H116	0.135200	0.476200	0.595600
C1921	C192	0.329300	0.704300	0.582500
C1931	C193	0.940300	0.207500	0.670350
C1941	C194	0.860200	0.138500	0.666800
C1951	C195	0.854600	0.098900	0.644210
H1171	H117	0.900500	0.114700	0.630800
C1961	C196	0.780900	0.035400	0.641250
H1181	H118	0.778900	0.008600	0.625800
C1971	C197	0.710400	0.010600	0.660430
C1981	C198	0.719200	0.048800	0.683610
H1191	H119	0.674100	0.032100	0.697000
C1991	C199	0.793900	0.111100	0.686970
H1201	H120	0.800400	0.135100	0.702800
C2001	C200	0.627200	0.941400	0.656850
C2011	C201	0.130600	0.313500	0.736290
H1211	H121	0.077300	0.273300	0.733700
C2021	C202	0.184300	0.315700	0.759880
H1221	H122	0.163900	0.279600	0.772500
C2031	C203	0.266400	0.370800	0.764300
C2041	C204	0.284100	0.424300	0.745330
H1231	H123	0.336000	0.465800	0.747400
C2051	C205	0.224200	0.416500	0.723030
H1241	H124	0.239600	0.453800	0.710400
C2061	C206	0.332300	0.373900	0.788150
C2071	C207	0.300200	0.328600	0.808970
H1251	H125	0.236600	0.295900	0.807700
C2081	C208	0.359000	0.330300	0.831530
H1261	H126	0.334400	0.299500	0.845100
C2091	C209	0.454400	0.377600	0.833920
C2101	C210	0.486400	0.423700	0.813100
H1271	H127	0.549400	0.457000	0.814300
C2111	C211	0.426400	0.420700	0.790830
H1281	H128	0.450700	0.451400	0.777200
C2121	C212	0.500000	0.360200	0.880390
C2131	C213	0.593500	0.342300	0.895530
H1291	H129	0.666000	0.345400	0.888700
C2141	C214	0.580800	0.320600	0.920000
H1301	H130	0.644800	0.310200	0.929700
C2151	C215	0.472900	0.313500	0.931030
C2161	C216	0.381200	0.332000	0.915320
H1311	H131	0.308400	0.329200	0.922000
C2171	C217	0.393400	0.354000	0.890720
H1321	H132	0.329700	0.364700	0.880900
C2181	C218	0.535200	0.253000	0.997760
H1331	H133	0.599300	0.247500	0.007900
C2191	C219	0.551000	0.281600	0.973620
H1341	H134	0.622600	0.297900	0.968300
C2201	C220	0.459500	0.286100	0.957370
C2211	C221	0.360600	0.270000	0.968070
H1351	H135	0.293700	0.278600	0.959200
C2221	C222	0.356400	0.240300	0.992640
H1361	H136	0.285500	0.224200	0.998400
C2231	C223	0.861500	0.206600	0.576340
C2241	C224	0.784900	0.135300	0.572650
C2251	C225	0.803400	0.085300	0.552520
H1371	H137	0.863300	0.095400	0.541500
C2261	C226	0.733900	0.019800	0.548420
H1381	H138	0.745400	0.987100	0.534400
C2271	C227	0.647300	0.003200	0.565270
C2281	C228	0.629500	0.054200	0.584910
H1391	H139	0.570300	0.044300	0.596100
C2291	C229	0.697300	0.119600	0.588490
H1401	H140	0.683000	0.153800	0.602000
C2301	C230	0.573900	0.932700	0.560690
Cd131	Cd13	0.084650	0.335790	0.677790
Cd141	Cd14	0.975100	0.324150	0.614870
Cd151	Cd15	0.432840	0.806780	0.549420
N131	N13	0.148300	0.362200	0.717790
N141	N14	0.436900	0.232600	0.007800
N151	N15	0.523400	0.383600	0.855520
O491	O49	0.219500	0.433700	0.665240
O501	O50	0.124600	0.382600	0.633920
O511	O51	0.377900	0.761410	0.593070
O521	O52	0.309400	0.704620	0.559300
O531	O53	0.982600	0.241220	0.651180
O541	O54	0.964800	0.230200	0.692170
O551	O55	0.633800	0.908060	0.635630
O561	O56	0.559600	0.926760	0.673900
O571	O57	0.515200	0.903760	0.578420
O581	O58	0.569800	0.903300	0.539090
O591	O59	0.922100	0.224000	0.557850
O601	O60	0.857600	0.240510	0.596940
C2311	C231	0.312300	0.063300	0.142780
C2321	C232	0.272000	0.996100	0.126550
C2331	C233	0.196700	0.940600	0.136240
H1411	H141	0.169200	0.946700	0.152600
C2341	C234	0.162200	0.876700	0.121990
H1421	H142	0.109200	0.840800	0.128400
C2351	C235	0.206900	0.865800	0.097920
C2361	C236	0.281700	0.920400	0.088380
H1431	H143	0.311000	0.913000	0.072200
C2371	C237	0.314800	0.986500	0.102350
H1441	H144	0.364800	0.023800	0.095600
C2381	C238	0.170700	0.795700	0.082500
C2391	C239	0.559700	0.292500	0.170350
C2401	C240	0.639800	0.361500	0.166800
C2411	C241	0.645400	0.401100	0.144210
H1451	H145	0.599500	0.385300	0.130800
C2421	C242	0.719100	0.464600	0.141250
H1461	H146	0.721100	0.491400	0.125800
C2431	C243	0.789600	0.489400	0.160430
C2441	C244	0.780800	0.451200	0.183610
H1471	H147	0.825900	0.467900	0.197000
C2451	C245	0.706100	0.388900	0.186970
H1481	H148	0.699600	0.364900	0.202800
C2461	C246	0.872800	0.558600	0.156850
C2471	C247	0.369400	0.186500	0.236290
H1491	H149	0.422700	0.226700	0.233700
C2481	C248	0.315700	0.184300	0.259880
H1501	H150	0.336100	0.220400	0.272500
C2491	C249	0.233600	0.129200	0.264300
C2501	C250	0.215900	0.075700	0.245330
H1511	H151	0.164000	0.034200	0.247400
C2511	C251	0.275800	0.083500	0.223030
H1521	H152	0.260400	0.046200	0.210400
C2521	C252	0.167700	0.126100	0.288150
C2531	C253	0.199800	0.171400	0.308970
H1531	H153	0.263400	0.204100	0.307700
C2541	C254	0.141000	0.169700	0.331530
H1541	H154	0.165600	0.200500	0.345100
C2551	C255	0.045600	0.122400	0.333920
C2561	C256	0.013600	0.076300	0.313100
H1551	H155	0.950600	0.043000	0.314300
C2571	C257	0.073600	0.079300	0.290830
H1561	H156	0.049300	0.048600	0.277200
C2581	C258	0.000000	0.139800	0.380390
C2591	C259	0.906500	0.157700	0.395530
H1571	H157	0.834000	0.154600	0.388700
C2601	C260	0.919200	0.179400	0.420000
H1581	H158	0.855200	0.189800	0.429700
C2611	C261	0.027100	0.186500	0.431030
C2621	C262	0.118800	0.168000	0.415320
H1591	H159	0.191600	0.170800	0.422000
C2631	C263	0.106600	0.146000	0.390720
H1601	H160	0.170300	0.135300	0.380900
C2641	C264	0.964800	0.247000	0.497760
H1611	H161	0.900700	0.252500	0.507900
C2651	C265	0.949000	0.218400	0.473620
H1621	H162	0.877400	0.202100	0.468300
C2661	C266	0.040500	0.213900	0.457370
C2671	C267	0.139400	0.230000	0.468070
H1631	H163	0.206300	0.221400	0.459200
C2681	C268	0.143600	0.259700	0.492640
H1641	H164	0.214500	0.275800	0.498400
C2691	C269	0.638500	0.293400	0.076340
C2701	C270	0.715100	0.364700	0.072650
C2711	C271	0.696600	0.414700	0.052520
H1651	H165	0.636700	0.404600	0.041500
C2721	C272	0.766100	0.480200	0.048420
H1661	H166	0.754600	0.512900	0.034400
C2731	C273	0.852700	0.496800	0.065270
C2741	C274	0.870500	0.445800	0.084910
H1671	H167	0.929700	0.455700	0.096100
C2751	C275	0.802700	0.380400	0.088490
H1681	H168	0.817000	0.346200	0.102000
C2761	C276	0.926100	0.567300	0.060690
Cd161	Cd16	0.415350	0.164210	0.177790
Cd171	Cd17	0.524900	0.175850	0.114870
Cd181	Cd18	0.067160	0.693220	0.049420
N161	N16	0.351700	0.137800	0.217790
N171	N17	0.063100	0.267400	0.507800
N181	N18	0.976600	0.116400	0.355520
O611	O61	0.280500	0.066300	0.165240
O621	O62	0.375400	0.117400	0.133920
O631	O63	0.122100	0.738590	0.093070
O641	O64	0.190600	0.795380	0.059300
O651	O65	0.517400	0.258780	0.151180
O661	O66	0.535200	0.269800	0.192170
O671	O67	0.866200	0.591940	0.135630
O681	O68	0.940400	0.573240	0.173900
O691	O69	0.984800	0.596240	0.078420
O701	O70	0.930200	0.596700	0.039090
O711	O71	0.577900	0.276000	0.057850
O721	O72	0.642400	0.259490	0.096940
C2771	C277	0.187700	0.563300	0.142780
C2781	C278	0.228000	0.496100	0.126550
C2791	C279	0.303300	0.440600	0.136240
H1691	H169	0.330800	0.446700	0.152600
C2801	C280	0.337800	0.376700	0.121990
H1701	H170	0.390800	0.340800	0.128400
C2811	C281	0.293100	0.365800	0.097920
C2821	C282	0.218300	0.420400	0.088380
H1711	H171	0.189000	0.413000	0.072200
C2831	C283	0.185200	0.486500	0.102350
H1721	H172	0.135200	0.523800	0.095600
C2841	C284	0.329300	0.295700	0.082500
C2851	C285	0.940300	0.792500	0.170350
C2861	C286	0.860200	0.861500	0.166800
C2871	C287	0.854600	0.901100	0.144210
H1731	H173	0.900500	0.885300	0.130800
C2881	C288	0.780900	0.964600	0.141250
H1741	H174	0.778900	0.991400	0.125800
C2891	C289	0.710400	0.989400	0.160430
C2901	C290	0.719200	0.951200	0.183610
H1751	H175	0.674100	0.967900	0.197000
C2911	C291	0.793900	0.888900	0.186970
H1761	H176	0.800400	0.864900	0.202800
C2921	C292	0.627200	0.058600	0.156850
C2931	C293	0.130600	0.686500	0.236290
H1771	H177	0.077300	0.726700	0.233700
C2941	C294	0.184300	0.684300	0.259880
H1781	H178	0.163900	0.720400	0.272500
C2951	C295	0.266400	0.629200	0.264300
C2961	C296	0.284100	0.575700	0.245330
H1791	H179	0.336000	0.534200	0.247400
C2971	C297	0.224200	0.583500	0.223030
H1801	H180	0.239600	0.546200	0.210400
C2981	C298	0.332300	0.626100	0.288150
C2991	C299	0.300200	0.671400	0.308970
H1811	H181	0.236600	0.704100	0.307700
C3001	C300	0.359000	0.669700	0.331530
H1821	H182	0.334400	0.700500	0.345100
C3011	C301	0.454400	0.622400	0.333920
C3021	C302	0.486400	0.576300	0.313100
H1831	H183	0.549400	0.543000	0.314300
C3031	C303	0.426400	0.579300	0.290830
H1841	H184	0.450700	0.548600	0.277200
C3041	C304	0.500000	0.639800	0.380390
C3051	C305	0.593500	0.657700	0.395530
H1851	H185	0.666000	0.654600	0.388700
C3061	C306	0.580800	0.679400	0.420000
H1861	H186	0.644800	0.689800	0.429700
C3071	C307	0.472900	0.686500	0.431030
C3081	C308	0.381200	0.668000	0.415320
H1871	H187	0.308400	0.670800	0.422000
C3091	C309	0.393400	0.646000	0.390720
H1881	H188	0.329700	0.635300	0.380900
C3101	C310	0.535200	0.747000	0.497760
H1891	H189	0.599300	0.752500	0.507900
C3111	C311	0.551000	0.718400	0.473620
H1901	H190	0.622600	0.702100	0.468300
C3121	C312	0.459500	0.713900	0.457370
C3131	C313	0.360600	0.730000	0.468070
H1911	H191	0.293700	0.721400	0.459200
C3141	C314	0.356400	0.759700	0.492640
H1921	H192	0.285500	0.775800	0.498400
C3151	C315	0.861500	0.793400	0.076340
C3161	C316	0.784900	0.864700	0.072650
C3171	C317	0.803400	0.914700	0.052520
H1931	H193	0.863300	0.904600	0.041500
C3181	C318	0.733900	0.980200	0.048420
H1941	H194	0.745400	0.012900	0.034400
C3191	C319	0.647300	0.996800	0.065270
C3201	C320	0.629500	0.945800	0.084910
H1951	H195	0.570300	0.955700	0.096100
C3211	C321	0.697300	0.880400	0.088490
H1961	H196	0.683000	0.846200	0.102000
C3221	C322	0.573900	0.067300	0.060690
Cd191	Cd19	0.084650	0.664210	0.177790
Cd201	Cd20	0.975100	0.675850	0.114870
Cd211	Cd21	0.432840	0.193220	0.049420
N191	N19	0.148300	0.637800	0.217790
N201	N20	0.436900	0.767400	0.507800
N211	N21	0.523400	0.616400	0.355520
O731	O73	0.219500	0.566300	0.165240
O741	O74	0.124600	0.617400	0.133920
O751	O75	0.377900	0.238590	0.093070
O761	O76	0.309400	0.295380	0.059300
O771	O77	0.982600	0.758780	0.151180
O781	O78	0.964800	0.769800	0.192170
O791	O79	0.633800	0.091940	0.135630
O801	O80	0.559600	0.073240	0.173900
O811	O81	0.515200	0.096240	0.078420
O821	O82	0.569800	0.096700	0.039090
O831	O83	0.922100	0.776000	0.057850
O841	O84	0.857600	0.759490	0.096940
C3231	C323	0.312300	0.936700	0.642780
C3241	C324	0.272000	0.003900	0.626550
C3251	C325	0.196700	0.059400	0.636240
H1971	H197	0.169200	0.053300	0.652600
C3261	C326	0.162200	0.123300	0.621990
H1981	H198	0.109200	0.159200	0.628400
C3271	C327	0.206900	0.134200	0.597920
C3281	C328	0.281700	0.079600	0.588380
H1991	H199	0.311000	0.087000	0.572200
C3291	C329	0.314800	0.013500	0.602350
H2001	H200	0.364800	0.976200	0.595600
C3301	C330	0.170700	0.204300	0.582500
C3311	C331	0.559700	0.707500	0.670350
C3321	C332	0.639800	0.638500	0.666800
C3331	C333	0.645400	0.598900	0.644210
H2011	H201	0.599500	0.614700	0.630800
C3341	C334	0.719100	0.535400	0.641250
H2021	H202	0.721100	0.508600	0.625800
C3351	C335	0.789600	0.510600	0.660430
C3361	C336	0.780800	0.548800	0.683610
H2031	H203	0.825900	0.532100	0.697000
C3371	C337	0.706100	0.611100	0.686970
H2041	H204	0.699600	0.635100	0.702800
C3381	C338	0.872800	0.441400	0.656850
C3391	C339	0.369400	0.813500	0.736290
H2051	H205	0.422700	0.773300	0.733700
C3401	C340	0.315700	0.815700	0.759880
H2061	H206	0.336100	0.779600	0.772500
C3411	C341	0.233600	0.870800	0.764300
C3421	C342	0.215900	0.924300	0.745330
H2071	H207	0.164000	0.965800	0.747400
C3431	C343	0.275800	0.916500	0.723030
H2081	H208	0.260400	0.953800	0.710400
C3441	C344	0.167700	0.873900	0.788150
C3451	C345	0.199800	0.828600	0.808970
H2091	H209	0.263400	0.795900	0.807700
C3461	C346	0.141000	0.830300	0.831530
H2101	H210	0.165600	0.799500	0.845100
C3471	C347	0.045600	0.877600	0.833920
C3481	C348	0.013600	0.923700	0.813100
H2111	H211	0.950600	0.957000	0.814300
C3491	C349	0.073600	0.920700	0.790830
H2121	H212	0.049300	0.951400	0.777200
C3501	C350	0.000000	0.860200	0.880390
C3511	C351	0.906500	0.842300	0.895530
H2131	H213	0.834000	0.845400	0.888700
C3521	C352	0.919200	0.820600	0.920000
H2141	H214	0.855200	0.810200	0.929700
C3531	C353	0.027100	0.813500	0.931030
C3541	C354	0.118800	0.832000	0.915320
H2151	H215	0.191600	0.829200	0.922000
C3551	C355	0.106600	0.854000	0.890720
H2161	H216	0.170300	0.864700	0.880900
C3561	C356	0.964800	0.753000	0.997760
H2171	H217	0.900700	0.747500	0.007900
C3571	C357	0.949000	0.781600	0.973620
H2181	H218	0.877400	0.797900	0.968300
C3581	C358	0.040500	0.786100	0.957370
C3591	C359	0.139400	0.770000	0.968070
H2191	H219	0.206300	0.778600	0.959200
C3601	C360	0.143600	0.740300	0.992640
H2201	H220	0.214500	0.724200	0.998400
C3611	C361	0.638500	0.706600	0.576340
C3621	C362	0.715100	0.635300	0.572650
C3631	C363	0.696600	0.585300	0.552520
H2211	H221	0.636700	0.595400	0.541500
C3641	C364	0.766100	0.519800	0.548420
H2221	H222	0.754600	0.487100	0.534400
C3651	C365	0.852700	0.503200	0.565270
C3661	C366	0.870500	0.554200	0.584910
H2231	H223	0.929700	0.544300	0.596100
C3671	C367	0.802700	0.619600	0.588490
H2241	H224	0.817000	0.653800	0.602000
C3681	C368	0.926100	0.432700	0.560690
Cd221	Cd22	0.415350	0.835790	0.677790
Cd231	Cd23	0.524900	0.824150	0.614870
Cd241	Cd24	0.067160	0.306780	0.549420
N221	N22	0.351700	0.862200	0.717790
N231	N23	0.063100	0.732600	0.007800
N241	N24	0.976600	0.883600	0.855520
O851	O85	0.280500	0.933700	0.665240
O861	O86	0.375400	0.882600	0.633920
O871	O87	0.122100	0.261410	0.593070
O881	O88	0.190600	0.204620	0.559300
O891	O89	0.517400	0.741220	0.651180
O901	O90	0.535200	0.730200	0.692170
O911	O91	0.866200	0.408060	0.635630
O921	O92	0.940400	0.426760	0.673900
O931	O93	0.984800	0.403760	0.578420
O941	O94	0.930200	0.403300	0.539090
O951	O95	0.577900	0.724000	0.557850
O961	O96	0.642400	0.740510	0.596940
