data_RUGXOI01_clean_PM
_symmetry_space_group_name_H-M	'P1'
_cell_length_a	16.808000
_cell_length_b	12.964000
_cell_length_c	14.513000
_cell_angle_alpha	90.000000
_cell_angle_beta	108.460000
_cell_angle_gamma	90.000000
_symmetry_Int_Tables_number 1

loop_
_symmetry_equiv_pos_as_xyz
'x,y,z'

loop_
_atom_site_label
_atom_site_type_symbol
_atom_site_fract_x
_atom_site_fract_y
_atom_site_fract_z
Zn11	Zn1	0.318020	0.487020	0.819440
O11	O1	0.231540	0.586400	0.755400
O21	O2	0.356980	0.384700	0.746400
O31	O3	0.272560	0.414940	0.913790
O41	O4	0.423690	0.558800	0.883700
C11	C1	0.156300	0.598800	0.750100
Zn21	Zn2	0.154640	0.446890	0.900550
C21	C2	0.322460	0.366000	0.994500
O51	O5	0.115630	0.542700	0.788600
C31	C3	0.112700	0.690900	0.692800
O61	O6	0.088460	0.322300	0.859400
O71	O7	0.122310	0.511400	0.003800
C41	C4	0.407800	0.389700	0.032900
C51	C5	0.288900	0.290700	0.041800
C61	C6	0.155600	0.754600	0.648000
C71	C7	0.030600	0.713600	0.687700
C81	C8	0.458400	0.342100	0.117400
H11	H1	0.431600	0.439100	0.001100
C91	C9	0.339900	0.241900	0.125200
H21	H2	0.231200	0.273100	0.016700
C101	C10	0.115700	0.842700	0.598700
H31	H3	0.211400	0.738600	0.650700
C111	C11	0.990000	0.802500	0.640600
H41	H4	0.001300	0.667800	0.716700
C121	C12	0.548400	0.375600	0.163700
C131	C13	0.424400	0.268300	0.163600
C141	C14	0.304800	0.161900	0.177300
C151	C15	0.160000	0.906700	0.542900
C161	C16	0.034300	0.867200	0.596300
O81	O8	0.589900	0.341800	0.243400
H51	H5	0.458600	0.236100	0.221300
O91	O9	0.228300	0.144800	0.150100
O101	O10	0.226600	0.878800	0.534000
H61	H6	0.008500	0.928400	0.564500
Zn31	Zn3	0.681980	0.987020	0.680560
O111	O11	0.768460	0.086400	0.744600
O121	O12	0.643020	0.884700	0.753600
O131	O13	0.727440	0.914940	0.586210
O141	O14	0.576310	0.058800	0.616300
C171	C17	0.843700	0.098800	0.749900
Zn41	Zn4	0.845360	0.946890	0.599450
C181	C18	0.677540	0.866000	0.505500
O151	O15	0.884370	0.042700	0.711400
C191	C19	0.887300	0.190900	0.807200
O161	O16	0.911540	0.822300	0.640600
O171	O17	0.877690	0.011400	0.496200
C201	C20	0.592200	0.889700	0.467100
C211	C21	0.711100	0.790700	0.458200
C221	C22	0.844400	0.254600	0.852000
C231	C23	0.969400	0.213600	0.812300
C241	C24	0.541600	0.842100	0.382600
H71	H7	0.568400	0.939100	0.498900
C251	C25	0.660100	0.741900	0.374800
H81	H8	0.768800	0.773100	0.483300
C261	C26	0.884300	0.342700	0.901300
H91	H9	0.788600	0.238600	0.849300
C271	C27	0.010000	0.302500	0.859400
H101	H10	0.998700	0.167800	0.783300
C281	C28	0.451600	0.875600	0.336300
C291	C29	0.575600	0.768300	0.336400
C301	C30	0.695200	0.661900	0.322700
C311	C31	0.840000	0.406700	0.957100
C321	C32	0.965700	0.367200	0.903700
O181	O18	0.410100	0.841800	0.256600
H111	H11	0.541400	0.736100	0.278700
O191	O19	0.771700	0.644800	0.349900
O201	O20	0.773400	0.378800	0.966000
H121	H12	0.991500	0.428400	0.935500
Zn51	Zn5	0.681980	0.512980	0.180560
O211	O21	0.768460	0.413600	0.244600
O221	O22	0.643020	0.615300	0.253600
O231	O23	0.727440	0.585060	0.086210
O241	O24	0.576310	0.441200	0.116300
C331	C33	0.843700	0.401200	0.249900
Zn61	Zn6	0.845360	0.553110	0.099450
C341	C34	0.677540	0.634000	0.005500
O251	O25	0.884370	0.457300	0.211400
C351	C35	0.887300	0.309100	0.307200
O261	O26	0.911540	0.677700	0.140600
O271	O27	0.877690	0.488600	0.996200
C361	C36	0.592200	0.610300	0.967100
C371	C37	0.711100	0.709300	0.958200
C381	C38	0.844400	0.245400	0.352000
C391	C39	0.969400	0.286400	0.312300
C401	C40	0.541600	0.657900	0.882600
H131	H13	0.568400	0.560900	0.998900
C411	C41	0.660100	0.758100	0.874800
H141	H14	0.768800	0.726900	0.983300
C421	C42	0.884300	0.157300	0.401300
H151	H15	0.788600	0.261400	0.349300
C431	C43	0.010000	0.197500	0.359400
H161	H16	0.998700	0.332200	0.283300
C441	C44	0.451600	0.624400	0.836300
C451	C45	0.575600	0.731700	0.836400
C461	C46	0.695200	0.838100	0.822700
C471	C47	0.840000	0.093300	0.457100
C481	C48	0.965700	0.132800	0.403700
O281	O28	0.410100	0.658200	0.756600
H171	H17	0.541400	0.763900	0.778700
O291	O29	0.771700	0.855200	0.849900
O301	O30	0.773400	0.121200	0.466000
H181	H18	0.991500	0.071600	0.435500
Zn71	Zn7	0.318020	0.012980	0.319440
O311	O31	0.231540	0.913600	0.255400
O321	O32	0.356980	0.115300	0.246400
O331	O33	0.272560	0.085060	0.413790
O341	O34	0.423690	0.941200	0.383700
C491	C49	0.156300	0.901200	0.250100
Zn81	Zn8	0.154640	0.053110	0.400550
C501	C50	0.322460	0.134000	0.494500
O351	O35	0.115630	0.957300	0.288600
C511	C51	0.112700	0.809100	0.192800
O361	O36	0.088460	0.177700	0.359400
O371	O37	0.122310	0.988600	0.503800
C521	C52	0.407800	0.110300	0.532900
C531	C53	0.288900	0.209300	0.541800
C541	C54	0.155600	0.745400	0.148000
C551	C55	0.030600	0.786400	0.187700
C561	C56	0.458400	0.157900	0.617400
H191	H19	0.431600	0.060900	0.501100
C571	C57	0.339900	0.258100	0.625200
H201	H20	0.231200	0.226900	0.516700
C581	C58	0.115700	0.657300	0.098700
H211	H21	0.211400	0.761400	0.150700
C591	C59	0.990000	0.697500	0.140600
H221	H22	0.001300	0.832200	0.216700
C601	C60	0.548400	0.124400	0.663700
C611	C61	0.424400	0.231700	0.663600
C621	C62	0.304800	0.338100	0.677300
C631	C63	0.160000	0.593300	0.042900
C641	C64	0.034300	0.632800	0.096300
O381	O38	0.589900	0.158200	0.743400
H231	H23	0.458600	0.263900	0.721300
O391	O39	0.228300	0.355200	0.650100
O401	O40	0.226600	0.621200	0.034000
H241	H24	0.008500	0.571600	0.064500
