data_RUHFOR_clean_PM
_symmetry_space_group_name_H-M	'P1'
_cell_length_a	17.580000
_cell_length_b	17.580000
_cell_length_c	17.580000
_cell_angle_alpha	90.000000
_cell_angle_beta	90.000000
_cell_angle_gamma	90.000000
_symmetry_Int_Tables_number 1

loop_
_symmetry_equiv_pos_as_xyz
'x,y,z'

loop_
_atom_site_label
_atom_site_type_symbol
_atom_site_fract_x
_atom_site_fract_y
_atom_site_fract_z
Cu11	Cu1	0.501270	0.405560	0.848040
C11	C1	0.492300	0.263700	0.909000
C21	C2	0.413600	0.289800	0.885300
C31	C3	0.487100	0.242300	0.000400
O11	O1	0.546100	0.322200	0.902100
O21	O2	0.509000	0.198700	0.873100
O31	O3	0.453100	0.176500	0.012100
O41	O4	0.360800	0.240200	0.889000
O51	O5	0.401900	0.356000	0.867600
O61	O6	0.519100	0.281100	0.046300
Cu21	Cu2	0.998730	0.594440	0.348040
C41	C4	0.007700	0.736300	0.409000
C51	C5	0.086400	0.710200	0.385300
C61	C6	0.012900	0.757700	0.500400
O71	O7	0.953900	0.677800	0.402100
O81	O8	0.991000	0.801300	0.373100
O91	O9	0.046900	0.823500	0.512100
O101	O10	0.139200	0.759800	0.389000
O111	O11	0.098100	0.644000	0.367600
O121	O12	0.980900	0.718900	0.546300
Cu31	Cu3	0.498730	0.905560	0.651960
C71	C7	0.507700	0.763700	0.591000
C81	C8	0.586400	0.789800	0.614700
C91	C9	0.512900	0.742300	0.499600
O131	O13	0.453900	0.822200	0.597900
O141	O14	0.491000	0.698700	0.626900
O151	O15	0.546900	0.676500	0.487900
O161	O16	0.639200	0.740200	0.611000
O171	O17	0.598100	0.856000	0.632400
O181	O18	0.480900	0.781100	0.453700
Cu41	Cu4	0.001270	0.094440	0.151960
C101	C10	0.992300	0.236300	0.091000
C111	C11	0.913600	0.210200	0.114700
C121	C12	0.987100	0.257700	0.999600
O191	O19	0.046100	0.177800	0.097900
O201	O20	0.009000	0.301300	0.126900
O211	O21	0.953100	0.323500	0.987900
O221	O22	0.860800	0.259800	0.111000
O231	O23	0.901900	0.144000	0.132400
O241	O24	0.019100	0.218900	0.953700
Cu51	Cu5	0.848040	0.501270	0.405560
C131	C13	0.909000	0.492300	0.263700
C141	C14	0.885300	0.413600	0.289800
C151	C15	0.000400	0.487100	0.242300
O251	O25	0.902100	0.546100	0.322200
O261	O26	0.873100	0.509000	0.198700
O271	O27	0.012100	0.453100	0.176500
O281	O28	0.889000	0.360800	0.240200
O291	O29	0.867600	0.401900	0.356000
O301	O30	0.046300	0.519100	0.281100
Cu61	Cu6	0.348040	0.998730	0.594440
C161	C16	0.409000	0.007700	0.736300
C171	C17	0.385300	0.086400	0.710200
C181	C18	0.500400	0.012900	0.757700
O311	O31	0.402100	0.953900	0.677800
O321	O32	0.373100	0.991000	0.801300
O331	O33	0.512100	0.046900	0.823500
O341	O34	0.389000	0.139200	0.759800
O351	O35	0.367600	0.098100	0.644000
O361	O36	0.546300	0.980900	0.718900
Cu71	Cu7	0.651960	0.498730	0.905560
C191	C19	0.591000	0.507700	0.763700
C201	C20	0.614700	0.586400	0.789800
C211	C21	0.499600	0.512900	0.742300
O371	O37	0.597900	0.453900	0.822200
O381	O38	0.626900	0.491000	0.698700
O391	O39	0.487900	0.546900	0.676500
O401	O40	0.611000	0.639200	0.740200
O411	O41	0.632400	0.598100	0.856000
O421	O42	0.453700	0.480900	0.781100
Cu81	Cu8	0.151960	0.001270	0.094440
C221	C22	0.091000	0.992300	0.236300
C231	C23	0.114700	0.913600	0.210200
C241	C24	0.999600	0.987100	0.257700
O431	O43	0.097900	0.046100	0.177800
O441	O44	0.126900	0.009000	0.301300
O451	O45	0.987900	0.953100	0.323500
O461	O46	0.111000	0.860800	0.259800
O471	O47	0.132400	0.901900	0.144000
O481	O48	0.953700	0.019100	0.218900
Cu91	Cu9	0.405560	0.848040	0.501270
C251	C25	0.263700	0.909000	0.492300
C261	C26	0.289800	0.885300	0.413600
C271	C27	0.242300	0.000400	0.487100
O491	O49	0.322200	0.902100	0.546100
O501	O50	0.198700	0.873100	0.509000
O511	O51	0.176500	0.012100	0.453100
O521	O52	0.240200	0.889000	0.360800
O531	O53	0.356000	0.867600	0.401900
O541	O54	0.281100	0.046300	0.519100
Cu101	Cu10	0.594440	0.348040	0.998730
C281	C28	0.736300	0.409000	0.007700
C291	C29	0.710200	0.385300	0.086400
C301	C30	0.757700	0.500400	0.012900
O551	O55	0.677800	0.402100	0.953900
O561	O56	0.801300	0.373100	0.991000
O571	O57	0.823500	0.512100	0.046900
O581	O58	0.759800	0.389000	0.139200
O591	O59	0.644000	0.367600	0.098100
O601	O60	0.718900	0.546300	0.980900
Cu111	Cu11	0.905560	0.651960	0.498730
C311	C31	0.763700	0.591000	0.507700
C321	C32	0.789800	0.614700	0.586400
C331	C33	0.742300	0.499600	0.512900
O611	O61	0.822200	0.597900	0.453900
O621	O62	0.698700	0.626900	0.491000
O631	O63	0.676500	0.487900	0.546900
O641	O64	0.740200	0.611000	0.639200
O651	O65	0.856000	0.632400	0.598100
O661	O66	0.781100	0.453700	0.480900
Cu121	Cu12	0.094440	0.151960	0.001270
C341	C34	0.236300	0.091000	0.992300
C351	C35	0.210200	0.114700	0.913600
C361	C36	0.257700	0.999600	0.987100
O671	O67	0.177800	0.097900	0.046100
O681	O68	0.301300	0.126900	0.009000
O691	O69	0.323500	0.987900	0.953100
O701	O70	0.259800	0.111000	0.860800
O711	O71	0.144000	0.132400	0.901900
O721	O72	0.218900	0.953700	0.019100
Pr11	Pr1	0.398640	0.101360	0.898640
Pr21	Pr2	0.101360	0.898640	0.398640
Pr31	Pr3	0.601360	0.601360	0.601360
Pr41	Pr4	0.898640	0.398640	0.101360
