data_RUHFEH_clean_PM
_symmetry_space_group_name_H-M	'P1'
_cell_length_a	17.523500
_cell_length_b	17.523500
_cell_length_c	17.523500
_cell_angle_alpha	90.000000
_cell_angle_beta	90.000000
_cell_angle_gamma	90.000000
_symmetry_Int_Tables_number 1

loop_
_symmetry_equiv_pos_as_xyz
'x,y,z'

loop_
_atom_site_label
_atom_site_type_symbol
_atom_site_fract_x
_atom_site_fract_y
_atom_site_fract_z
Cu11	Cu1	0.914630	0.353880	0.995240
C11	C1	0.020600	0.245400	0.000300
O11	O1	0.989200	0.285100	0.950500
O21	O2	0.056000	0.184600	0.988400
C21	C2	0.013500	0.270100	0.083900
O31	O3	0.961300	0.328200	0.091600
O41	O4	0.996700	0.205700	0.128500
C31	C3	0.093500	0.294900	0.111400
O51	O5	0.102300	0.365200	0.129500
O61	O6	0.144500	0.245800	0.113900
Cu21	Cu2	0.585370	0.646120	0.495240
C41	C4	0.479400	0.754600	0.500300
O71	O7	0.510800	0.714900	0.450500
O81	O8	0.444000	0.815400	0.488400
C51	C5	0.486500	0.729900	0.583900
O91	O9	0.538700	0.671800	0.591600
O101	O10	0.503300	0.794300	0.628500
C61	C6	0.406500	0.705100	0.611400
O111	O11	0.397700	0.634800	0.629500
O121	O12	0.355500	0.754200	0.613900
Cu31	Cu3	0.085370	0.853880	0.504760
C71	C7	0.979400	0.745400	0.499700
O131	O13	0.010800	0.785100	0.549500
O141	O14	0.944000	0.684600	0.511600
C81	C8	0.986500	0.770100	0.416100
O151	O15	0.038700	0.828200	0.408400
O161	O16	0.003300	0.705700	0.371500
C91	C9	0.906500	0.794900	0.388600
O171	O17	0.897700	0.865200	0.370500
O181	O18	0.855500	0.745800	0.386100
Cu41	Cu4	0.414630	0.146120	0.004760
C101	C10	0.520600	0.254600	0.999700
O191	O19	0.489200	0.214900	0.049500
O201	O20	0.556000	0.315400	0.011600
C111	C11	0.513500	0.229900	0.916100
O211	O21	0.461300	0.171800	0.908400
O221	O22	0.496700	0.294300	0.871500
C121	C12	0.593500	0.205100	0.888600
O231	O23	0.602300	0.134800	0.870500
O241	O24	0.644500	0.254200	0.886100
Cu51	Cu5	0.995240	0.914630	0.353880
C131	C13	0.000300	0.020600	0.245400
O251	O25	0.950500	0.989200	0.285100
O261	O26	0.988400	0.056000	0.184600
C141	C14	0.083900	0.013500	0.270100
O271	O27	0.091600	0.961300	0.328200
O281	O28	0.128500	0.996700	0.205700
C151	C15	0.111400	0.093500	0.294900
O291	O29	0.129500	0.102300	0.365200
O301	O30	0.113900	0.144500	0.245800
Cu61	Cu6	0.495240	0.585370	0.646120
C161	C16	0.500300	0.479400	0.754600
O311	O31	0.450500	0.510800	0.714900
O321	O32	0.488400	0.444000	0.815400
C171	C17	0.583900	0.486500	0.729900
O331	O33	0.591600	0.538700	0.671800
O341	O34	0.628500	0.503300	0.794300
C181	C18	0.611400	0.406500	0.705100
O351	O35	0.629500	0.397700	0.634800
O361	O36	0.613900	0.355500	0.754200
Cu71	Cu7	0.504760	0.085370	0.853880
C191	C19	0.499700	0.979400	0.745400
O371	O37	0.549500	0.010800	0.785100
O381	O38	0.511600	0.944000	0.684600
C201	C20	0.416100	0.986500	0.770100
O391	O39	0.408400	0.038700	0.828200
O401	O40	0.371500	0.003300	0.705700
C211	C21	0.388600	0.906500	0.794900
O411	O41	0.370500	0.897700	0.865200
O421	O42	0.386100	0.855500	0.745800
Cu81	Cu8	0.004760	0.414630	0.146120
C221	C22	0.999700	0.520600	0.254600
O431	O43	0.049500	0.489200	0.214900
O441	O44	0.011600	0.556000	0.315400
C231	C23	0.916100	0.513500	0.229900
O451	O45	0.908400	0.461300	0.171800
O461	O46	0.871500	0.496700	0.294300
C241	C24	0.888600	0.593500	0.205100
O471	O47	0.870500	0.602300	0.134800
O481	O48	0.886100	0.644500	0.254200
Cu91	Cu9	0.353880	0.995240	0.914630
C251	C25	0.245400	0.000300	0.020600
O491	O49	0.285100	0.950500	0.989200
O501	O50	0.184600	0.988400	0.056000
C261	C26	0.270100	0.083900	0.013500
O511	O51	0.328200	0.091600	0.961300
O521	O52	0.205700	0.128500	0.996700
C271	C27	0.294900	0.111400	0.093500
O531	O53	0.365200	0.129500	0.102300
O541	O54	0.245800	0.113900	0.144500
Cu101	Cu10	0.646120	0.495240	0.585370
C281	C28	0.754600	0.500300	0.479400
O551	O55	0.714900	0.450500	0.510800
O561	O56	0.815400	0.488400	0.444000
C291	C29	0.729900	0.583900	0.486500
O571	O57	0.671800	0.591600	0.538700
O581	O58	0.794300	0.628500	0.503300
C301	C30	0.705100	0.611400	0.406500
O591	O59	0.634800	0.629500	0.397700
O601	O60	0.754200	0.613900	0.355500
Cu111	Cu11	0.853880	0.504760	0.085370
C311	C31	0.745400	0.499700	0.979400
O611	O61	0.785100	0.549500	0.010800
O621	O62	0.684600	0.511600	0.944000
C321	C32	0.770100	0.416100	0.986500
O631	O63	0.828200	0.408400	0.038700
O641	O64	0.705700	0.371500	0.003300
C331	C33	0.794900	0.388600	0.906500
O651	O65	0.865200	0.370500	0.897700
O661	O66	0.745800	0.386100	0.855500
Cu121	Cu12	0.146120	0.004760	0.414630
C341	C34	0.254600	0.999700	0.520600
O671	O67	0.214900	0.049500	0.489200
O681	O68	0.315400	0.011600	0.556000
C351	C35	0.229900	0.916100	0.513500
O691	O69	0.171800	0.908400	0.461300
O701	O70	0.294300	0.871500	0.496700
C361	C36	0.205100	0.888600	0.593500
O711	O71	0.134800	0.870500	0.602300
O721	O72	0.254200	0.886100	0.644500
La11	La1	0.105470	0.105470	0.105470
La21	La2	0.394530	0.894530	0.605470
La31	La3	0.894530	0.605470	0.394530
La41	La4	0.605470	0.394530	0.894530
