data_RULBOQ_clean_PM
_symmetry_space_group_name_H-M	'P1'
_cell_length_a	20.916000
_cell_length_b	12.296000
_cell_length_c	11.204000
_cell_angle_alpha	90.000000
_cell_angle_beta	90.000000
_cell_angle_gamma	90.000000
_symmetry_Int_Tables_number 1

loop_
_symmetry_equiv_pos_as_xyz
'x,y,z'

loop_
_atom_site_label
_atom_site_type_symbol
_atom_site_fract_x
_atom_site_fract_y
_atom_site_fract_z
Ag11	Ag1	0.223540	0.632500	0.755930
C11	C1	0.355400	0.754200	0.667200
H11	H1	0.367500	0.686200	0.629500
H21	H2	0.366400	0.749500	0.751100
C21	C2	0.269000	0.777100	0.526200
H31	H3	0.280800	0.709600	0.487100
H41	H4	0.223300	0.787100	0.516900
C31	C3	0.373700	0.851600	0.483000
H51	H5	0.396800	0.910900	0.445600
H61	H6	0.385900	0.784600	0.443500
C41	C4	0.213900	0.528300	0.028700
H71	H7	0.190900	0.468400	0.992300
H81	H8	0.259300	0.515000	0.018800
C51	C5	0.266500	0.874600	0.712500
H91	H9	0.275900	0.871000	0.797200
H101	H10	0.220900	0.886000	0.703200
C61	C6	0.372300	0.947600	0.670500
H111	H11	0.383600	0.944200	0.754300
H121	H12	0.395300	0.008000	0.635000
N11	N1	0.391530	0.845400	0.611300
N21	N2	0.284900	0.770000	0.654900
N31	N3	0.196600	0.630500	0.968000
N41	N4	0.198400	0.466800	0.658700
Ag21	Ag2	0.723530	0.132500	0.755930
C71	C7	0.855400	0.254200	0.667200
H131	H13	0.867500	0.186200	0.629500
H141	H14	0.866400	0.249500	0.751100
C81	C8	0.769000	0.277100	0.526200
H151	H15	0.780800	0.209600	0.487100
H161	H16	0.723300	0.287100	0.516900
C91	C9	0.873700	0.351600	0.483000
H171	H17	0.896800	0.410900	0.445600
H181	H18	0.885900	0.284600	0.443500
C101	C10	0.713900	0.028300	0.028700
H191	H19	0.690900	0.968400	0.992300
H201	H20	0.759300	0.015000	0.018800
C111	C11	0.766500	0.374600	0.712500
H211	H21	0.775900	0.371000	0.797200
H221	H22	0.720900	0.386000	0.703200
C121	C12	0.872300	0.447600	0.670500
H231	H23	0.883600	0.444200	0.754300
H241	H24	0.895300	0.508000	0.635000
N51	N5	0.891530	0.345400	0.611300
N61	N6	0.784900	0.270000	0.654900
N71	N7	0.696600	0.130500	0.968000
N81	N8	0.698400	0.966800	0.658700
Ag31	Ag3	0.776460	0.367500	0.255930
C131	C13	0.644600	0.245800	0.167200
H251	H25	0.632500	0.313800	0.129500
H261	H26	0.633600	0.250500	0.251100
C141	C14	0.731000	0.222900	0.026200
H271	H27	0.719200	0.290400	0.987100
H281	H28	0.776700	0.212900	0.016900
C151	C15	0.626300	0.148400	0.983000
H291	H29	0.603200	0.089100	0.945600
H301	H30	0.614100	0.215400	0.943500
C161	C16	0.786100	0.471700	0.528700
H311	H31	0.809100	0.531600	0.492300
H321	H32	0.740700	0.485000	0.518800
C171	C17	0.733500	0.125400	0.212500
H331	H33	0.724100	0.129000	0.297200
H341	H34	0.779100	0.114000	0.203200
C181	C18	0.627700	0.052400	0.170500
H351	H35	0.616400	0.055800	0.254300
H361	H36	0.604700	0.992000	0.135000
N91	N9	0.608470	0.154600	0.111300
N101	N10	0.715100	0.230000	0.154900
N111	N11	0.803400	0.369500	0.468000
N121	N12	0.801600	0.533200	0.158700
Ag41	Ag4	0.276460	0.867500	0.255930
C191	C19	0.144600	0.745800	0.167200
H371	H37	0.132500	0.813800	0.129500
H381	H38	0.133600	0.750500	0.251100
C201	C20	0.231000	0.722900	0.026200
H391	H39	0.219200	0.790400	0.987100
H401	H40	0.276700	0.712900	0.016900
C211	C21	0.126300	0.648400	0.983000
H411	H41	0.103200	0.589100	0.945600
H421	H42	0.114100	0.715400	0.943500
C221	C22	0.286100	0.971700	0.528700
H431	H43	0.309100	0.031600	0.492300
H441	H44	0.240700	0.985000	0.518800
C231	C23	0.233500	0.625400	0.212500
H451	H45	0.224100	0.629000	0.297200
H461	H46	0.279100	0.614000	0.203200
C241	C24	0.127700	0.552400	0.170500
H471	H47	0.116400	0.555800	0.254300
H481	H48	0.104700	0.492000	0.135000
N131	N13	0.108470	0.654600	0.111300
N141	N14	0.215100	0.730000	0.154900
N151	N15	0.303400	0.869500	0.468000
N161	N16	0.301600	0.033200	0.158700
Ag51	Ag5	0.223540	0.367500	0.255930
C251	C25	0.355400	0.245800	0.167200
H491	H49	0.367500	0.313800	0.129500
H501	H50	0.366400	0.250500	0.251100
C261	C26	0.269000	0.222900	0.026200
H511	H51	0.280800	0.290400	0.987100
H521	H52	0.223300	0.212900	0.016900
C271	C27	0.373700	0.148400	0.983000
H531	H53	0.396800	0.089100	0.945600
H541	H54	0.385900	0.215400	0.943500
C281	C28	0.213900	0.471700	0.528700
H551	H55	0.190900	0.531600	0.492300
H561	H56	0.259300	0.485000	0.518800
C291	C29	0.266500	0.125400	0.212500
H571	H57	0.275900	0.129000	0.297200
H581	H58	0.220900	0.114000	0.203200
C301	C30	0.372300	0.052400	0.170500
H591	H59	0.383600	0.055800	0.254300
H601	H60	0.395300	0.992000	0.135000
N171	N17	0.391530	0.154600	0.111300
N181	N18	0.284900	0.230000	0.154900
N191	N19	0.196600	0.369500	0.468000
N201	N20	0.198400	0.533200	0.158700
Ag61	Ag6	0.723530	0.867500	0.255930
C311	C31	0.855400	0.745800	0.167200
H611	H61	0.867500	0.813800	0.129500
H621	H62	0.866400	0.750500	0.251100
C321	C32	0.769000	0.722900	0.026200
H631	H63	0.780800	0.790400	0.987100
H641	H64	0.723300	0.712900	0.016900
C331	C33	0.873700	0.648400	0.983000
H651	H65	0.896800	0.589100	0.945600
H661	H66	0.885900	0.715400	0.943500
C341	C34	0.713900	0.971700	0.528700
H671	H67	0.690900	0.031600	0.492300
H681	H68	0.759300	0.985000	0.518800
C351	C35	0.766500	0.625400	0.212500
H691	H69	0.775900	0.629000	0.297200
H701	H70	0.720900	0.614000	0.203200
C361	C36	0.872300	0.552400	0.170500
H711	H71	0.883600	0.555800	0.254300
H721	H72	0.895300	0.492000	0.135000
N211	N21	0.891530	0.654600	0.111300
N221	N22	0.784900	0.730000	0.154900
N231	N23	0.696600	0.869500	0.468000
N241	N24	0.698400	0.033200	0.158700
Ag71	Ag7	0.776460	0.632500	0.755930
C371	C37	0.644600	0.754200	0.667200
H731	H73	0.632500	0.686200	0.629500
H741	H74	0.633600	0.749500	0.751100
C381	C38	0.731000	0.777100	0.526200
H751	H75	0.719200	0.709600	0.487100
H761	H76	0.776700	0.787100	0.516900
C391	C39	0.626300	0.851600	0.483000
H771	H77	0.603200	0.910900	0.445600
H781	H78	0.614100	0.784600	0.443500
C401	C40	0.786100	0.528300	0.028700
H791	H79	0.809100	0.468400	0.992300
H801	H80	0.740700	0.515000	0.018800
C411	C41	0.733500	0.874600	0.712500
H811	H81	0.724100	0.871000	0.797200
H821	H82	0.779100	0.886000	0.703200
C421	C42	0.627700	0.947600	0.670500
H831	H83	0.616400	0.944200	0.754300
H841	H84	0.604700	0.008000	0.635000
N251	N25	0.608470	0.845400	0.611300
N261	N26	0.715100	0.770000	0.654900
N271	N27	0.803400	0.630500	0.968000
N281	N28	0.801600	0.466800	0.658700
Ag81	Ag8	0.276460	0.132500	0.755930
C431	C43	0.144600	0.254200	0.667200
H851	H85	0.132500	0.186200	0.629500
H861	H86	0.133600	0.249500	0.751100
C441	C44	0.231000	0.277100	0.526200
H871	H87	0.219200	0.209600	0.487100
H881	H88	0.276700	0.287100	0.516900
C451	C45	0.126300	0.351600	0.483000
H891	H89	0.103200	0.410900	0.445600
H901	H90	0.114100	0.284600	0.443500
C461	C46	0.286100	0.028300	0.028700
H911	H91	0.309100	0.968400	0.992300
H921	H92	0.240700	0.015000	0.018800
C471	C47	0.233500	0.374600	0.712500
H931	H93	0.224100	0.371000	0.797200
H941	H94	0.279100	0.386000	0.703200
C481	C48	0.127700	0.447600	0.670500
H951	H95	0.116400	0.444200	0.754300
H961	H96	0.104700	0.508000	0.635000
N291	N29	0.108470	0.345400	0.611300
N301	N30	0.215100	0.270000	0.654900
N311	N31	0.303400	0.130500	0.968000
N321	N32	0.301600	0.966800	0.658700
Ag91	Ag9	0.500000	0.830560	0.630460
Ag101	Ag10	0.000000	0.330560	0.630460
Ag111	Ag11	0.500000	0.169440	0.130460
Ag121	Ag12	0.000000	0.669440	0.130460
