data_RULQIY_clean_PM
_symmetry_space_group_name_H-M	'P1'
_cell_length_a	14.344000
_cell_length_b	14.344000
_cell_length_c	15.470000
_cell_angle_alpha	90.000000
_cell_angle_beta	90.000000
_cell_angle_gamma	120.000000
_symmetry_Int_Tables_number 1

loop_
_symmetry_equiv_pos_as_xyz
'x,y,z'

loop_
_atom_site_label
_atom_site_type_symbol
_atom_site_fract_x
_atom_site_fract_y
_atom_site_fract_z
Yb11	Yb1	0.333330	0.666660	0.750000
Yb21	Yb2	0.666670	0.333340	0.750000
Yb31	Yb3	0.666670	0.333340	0.250000
Yb41	Yb4	0.333330	0.666660	0.250000
Cu11	Cu1	0.500000	0.500000	0.500000
Cu21	Cu2	0.000000	0.500000	0.500000
Cu31	Cu3	0.500000	0.000000	0.500000
Cu41	Cu4	0.000000	0.500000	0.000000
Cu51	Cu5	0.500000	0.500000	0.000000
Cu61	Cu6	0.500000	0.000000	0.000000
C11	C1	0.261000	0.409000	0.691000
C21	C2	0.352000	0.487000	0.637000
C31	C3	0.148000	0.739000	0.691000
C41	C4	0.135000	0.648000	0.637000
C51	C5	0.591000	0.852000	0.691000
C61	C6	0.513000	0.865000	0.637000
C71	C7	0.739000	0.591000	0.691000
C81	C8	0.648000	0.513000	0.637000
C91	C9	0.852000	0.261000	0.691000
C101	C10	0.865000	0.352000	0.637000
C111	C11	0.409000	0.148000	0.691000
C121	C12	0.487000	0.135000	0.637000
C131	C13	0.852000	0.591000	0.809000
C141	C14	0.865000	0.513000	0.863000
C151	C15	0.409000	0.261000	0.809000
C161	C16	0.487000	0.352000	0.863000
C171	C17	0.739000	0.148000	0.809000
C181	C18	0.648000	0.135000	0.863000
C191	C19	0.148000	0.409000	0.809000
C201	C20	0.135000	0.487000	0.863000
C211	C21	0.591000	0.739000	0.809000
C221	C22	0.513000	0.648000	0.863000
C231	C23	0.261000	0.852000	0.809000
C241	C24	0.352000	0.865000	0.863000
C251	C25	0.739000	0.591000	0.309000
C261	C26	0.648000	0.513000	0.363000
C271	C27	0.852000	0.261000	0.309000
C281	C28	0.865000	0.352000	0.363000
C291	C29	0.409000	0.148000	0.309000
C301	C30	0.487000	0.135000	0.363000
C311	C31	0.261000	0.409000	0.309000
C321	C32	0.352000	0.487000	0.363000
C331	C33	0.148000	0.739000	0.309000
C341	C34	0.135000	0.648000	0.363000
C351	C35	0.591000	0.852000	0.309000
C361	C36	0.513000	0.865000	0.363000
C371	C37	0.148000	0.409000	0.191000
C381	C38	0.135000	0.487000	0.137000
C391	C39	0.591000	0.739000	0.191000
C401	C40	0.513000	0.648000	0.137000
C411	C41	0.261000	0.852000	0.191000
C421	C42	0.352000	0.865000	0.137000
C431	C43	0.852000	0.591000	0.191000
C441	C44	0.865000	0.513000	0.137000
C451	C45	0.409000	0.261000	0.191000
C461	C46	0.487000	0.352000	0.137000
C471	C47	0.739000	0.148000	0.191000
C481	C48	0.648000	0.135000	0.137000
O11	O1	0.386000	0.582300	0.645700
O21	O2	0.389000	0.443400	0.589000
O31	O3	0.196300	0.614000	0.645700
O41	O4	0.054400	0.611000	0.589000
O51	O5	0.417700	0.803700	0.645700
O61	O6	0.556600	0.945600	0.589000
O71	O7	0.614000	0.417700	0.645700
O81	O8	0.611000	0.556600	0.589000
O91	O9	0.803700	0.386000	0.645700
O101	O10	0.945600	0.389000	0.589000
O111	O11	0.582300	0.196300	0.645700
O121	O12	0.443400	0.054400	0.589000
O131	O13	0.803700	0.417700	0.854300
O141	O14	0.945600	0.556600	0.911000
O151	O15	0.582300	0.386000	0.854300
O161	O16	0.443400	0.389000	0.911000
O171	O17	0.614000	0.196300	0.854300
O181	O18	0.611000	0.054400	0.911000
O191	O19	0.196300	0.582300	0.854300
O201	O20	0.054400	0.443400	0.911000
O211	O21	0.417700	0.614000	0.854300
O221	O22	0.556600	0.611000	0.911000
O231	O23	0.386000	0.803700	0.854300
O241	O24	0.389000	0.945600	0.911000
O251	O25	0.614000	0.417700	0.354300
O261	O26	0.611000	0.556600	0.411000
O271	O27	0.803700	0.386000	0.354300
O281	O28	0.945600	0.389000	0.411000
O291	O29	0.582300	0.196300	0.354300
O301	O30	0.443400	0.054400	0.411000
O311	O31	0.386000	0.582300	0.354300
O321	O32	0.389000	0.443400	0.411000
O331	O33	0.196300	0.614000	0.354300
O341	O34	0.054400	0.611000	0.411000
O351	O35	0.417700	0.803700	0.354300
O361	O36	0.556600	0.945600	0.411000
O371	O37	0.196300	0.582300	0.145700
O381	O38	0.054400	0.443400	0.089000
O391	O39	0.417700	0.614000	0.145700
O401	O40	0.556600	0.611000	0.089000
O411	O41	0.386000	0.803700	0.145700
O421	O42	0.389000	0.945600	0.089000
O431	O43	0.803700	0.417700	0.145700
O441	O44	0.945600	0.556600	0.089000
O451	O45	0.582300	0.386000	0.145700
O461	O46	0.443400	0.389000	0.089000
O471	O47	0.614000	0.196300	0.145700
O481	O48	0.611000	0.054400	0.089000
O491	O49	0.236200	0.472400	0.750000
O501	O50	0.236200	0.763800	0.750000
O511	O51	0.527600	0.763800	0.750000
O521	O52	0.763800	0.527600	0.750000
O531	O53	0.763800	0.236200	0.750000
O541	O54	0.472400	0.236200	0.750000
O551	O55	0.763800	0.527600	0.250000
O561	O56	0.763800	0.236200	0.250000
O571	O57	0.472400	0.236200	0.250000
O581	O58	0.236200	0.472400	0.250000
O591	O59	0.236200	0.763800	0.250000
O601	O60	0.527600	0.763800	0.250000
