data_RUNXUV_clean_PM
_symmetry_space_group_name_H-M	'P1'
_cell_length_a	5.954000
_cell_length_b	13.521000
_cell_length_c	13.942000
_cell_angle_alpha	95.020000
_cell_angle_beta	94.330000
_cell_angle_gamma	99.720000
_symmetry_Int_Tables_number 1

loop_
_symmetry_equiv_pos_as_xyz
'x,y,z'

loop_
_atom_site_label
_atom_site_type_symbol
_atom_site_fract_x
_atom_site_fract_y
_atom_site_fract_z
Zn11	Zn1	0.273900	0.055150	0.501560
O11	O1	0.243800	0.949300	0.393900
C11	C1	0.294100	0.862500	0.397700
O21	O2	0.460800	0.844300	0.452000
C21	C2	0.149800	0.775400	0.336400
C31	C3	0.939400	0.784700	0.292500
H11	H1	0.888300	0.847600	0.299200
C41	C4	0.802500	0.702200	0.238700
H21	H2	0.656400	0.708700	0.210300
C51	C5	0.875800	0.610600	0.226000
C61	C6	0.090100	0.602400	0.267300
H31	H3	0.144700	0.540600	0.257300
C71	C7	0.226000	0.684100	0.323300
H41	H4	0.371200	0.677400	0.352600
C81	C8	0.722600	0.518000	0.172000
H51	H5	0.658400	0.473000	0.219300
H61	H6	0.593500	0.539200	0.135000
N11	N1	0.844900	0.462900	0.106500
C91	C9	0.721500	0.357700	0.082800
H71	H7	0.771700	0.328800	0.022000
H81	H8	0.555300	0.357800	0.072200
C101	C10	0.764500	0.292700	0.162000
C111	C11	0.984100	0.303400	0.211000
H91	H9	0.105300	0.351700	0.193400
C121	C12	0.025100	0.245800	0.282900
H101	H10	0.173100	0.256200	0.316700
C131	C13	0.852100	0.170500	0.308300
C141	C14	0.635700	0.159700	0.261000
H111	H11	0.516100	0.109900	0.277500
C151	C15	0.592100	0.220400	0.190100
H121	H12	0.441300	0.212900	0.159500
C161	C16	0.900900	0.106800	0.384900
O31	O3	0.077100	0.137500	0.443600
O41	O4	0.768100	0.021800	0.386800
C171	C17	0.895900	0.515200	0.021800
H131	H13	0.925100	0.588900	0.040300
H141	H14	0.762200	0.498900	0.972900
Zn21	Zn2	0.726100	0.944850	0.498440
O51	O5	0.756200	0.050700	0.606100
C181	C18	0.705900	0.137500	0.602300
O61	O6	0.539200	0.155700	0.548000
C191	C19	0.850200	0.224600	0.663600
C201	C20	0.060600	0.215300	0.707500
H151	H15	0.111700	0.152400	0.700800
C211	C21	0.197500	0.297800	0.761300
H161	H16	0.343600	0.291300	0.789700
C221	C22	0.124200	0.389400	0.774000
C231	C23	0.909900	0.397600	0.732700
H171	H17	0.855300	0.459400	0.742700
C241	C24	0.774000	0.315900	0.676700
H181	H18	0.628800	0.322600	0.647400
C251	C25	0.277400	0.482000	0.828000
H191	H19	0.341600	0.527000	0.780700
H201	H20	0.406500	0.460800	0.865000
N21	N2	0.155100	0.537100	0.893500
C261	C26	0.278500	0.642300	0.917200
H211	H21	0.228300	0.671200	0.978000
H221	H22	0.444700	0.642200	0.927800
C271	C27	0.235500	0.707300	0.838000
C281	C28	0.015900	0.696600	0.789000
H231	H23	0.894700	0.648300	0.806600
C291	C29	0.974900	0.754200	0.717100
H241	H24	0.826900	0.743800	0.683300
C301	C30	0.147900	0.829500	0.691700
C311	C31	0.364300	0.840300	0.739000
H251	H25	0.483900	0.890100	0.722500
C321	C32	0.407900	0.779600	0.809900
H261	H26	0.558700	0.787100	0.840500
C331	C33	0.099100	0.893200	0.615100
O71	O7	0.922900	0.862500	0.556400
O81	O8	0.231900	0.978200	0.613200
C341	C34	0.104100	0.484800	0.978200
H271	H27	0.074900	0.411100	0.959700
H281	H28	0.237800	0.501100	0.027100
