data_RUPNEW_clean_PM
_symmetry_space_group_name_H-M	'P1'
_cell_length_a	18.351700
_cell_length_b	18.351700
_cell_length_c	17.772000
_cell_angle_alpha	90.000000
_cell_angle_beta	90.000000
_cell_angle_gamma	90.000000
_symmetry_Int_Tables_number 1

loop_
_symmetry_equiv_pos_as_xyz
'x,y,z'

loop_
_atom_site_label
_atom_site_type_symbol
_atom_site_fract_x
_atom_site_fract_y
_atom_site_fract_z
O11	O1	0.142480	0.228440	0.079690
C11	C1	0.286360	0.189740	0.215800
N11	N1	0.340550	0.138920	0.182660
O21	O2	0.642480	0.728440	0.579690
C21	C2	0.786360	0.689740	0.715800
N21	N2	0.840550	0.638920	0.682660
O31	O3	0.857520	0.771560	0.079690
C31	C3	0.713640	0.810260	0.215800
N31	N3	0.659450	0.861080	0.182660
O41	O4	0.357520	0.271560	0.579690
C41	C4	0.213640	0.310260	0.715800
N41	N4	0.159450	0.361080	0.682660
O51	O5	0.771560	0.142480	0.079690
C51	C5	0.810260	0.286360	0.215800
N51	N5	0.861080	0.340550	0.182660
O61	O6	0.271560	0.642480	0.579690
C61	C6	0.310260	0.786360	0.715800
N61	N6	0.361080	0.840550	0.682660
O71	O7	0.228440	0.857520	0.079690
C71	C7	0.189740	0.713640	0.215800
N71	N7	0.138920	0.659450	0.182660
O81	O8	0.728440	0.357520	0.579690
C81	C8	0.689740	0.213640	0.715800
N81	N8	0.638920	0.159450	0.682660
O91	O9	0.857520	0.228440	0.920310
C91	C9	0.713640	0.189740	0.784200
N91	N9	0.659450	0.138920	0.817340
O101	O10	0.357520	0.728440	0.420310
C101	C10	0.213640	0.689740	0.284200
N101	N10	0.159450	0.638920	0.317340
O111	O11	0.142480	0.771560	0.920310
C111	C11	0.286360	0.810260	0.784200
N111	N11	0.340550	0.861080	0.817340
O121	O12	0.642480	0.271560	0.420310
C121	C12	0.786360	0.310260	0.284200
N121	N12	0.840550	0.361080	0.317340
O131	O13	0.228440	0.142480	0.920310
C131	C13	0.189740	0.286360	0.784200
N131	N13	0.138920	0.340550	0.817340
O141	O14	0.728440	0.642480	0.420310
C141	C14	0.689740	0.786360	0.284200
N141	N14	0.638920	0.840550	0.317340
O151	O15	0.771560	0.857520	0.920310
C151	C15	0.810260	0.713640	0.784200
N151	N15	0.861080	0.659450	0.817340
O161	O16	0.271560	0.357520	0.420310
C161	C16	0.310260	0.213640	0.284200
N161	N16	0.361080	0.159450	0.317340
O171	O17	0.857520	0.771560	0.920310
C171	C17	0.713640	0.810260	0.784200
N171	N17	0.659450	0.861080	0.817340
O181	O18	0.357520	0.271560	0.420310
C181	C18	0.213640	0.310260	0.284200
N181	N18	0.159450	0.361080	0.317340
O191	O19	0.142480	0.228440	0.920310
C191	C19	0.286360	0.189740	0.784200
N191	N19	0.340550	0.138920	0.817340
O201	O20	0.642480	0.728440	0.420310
C201	C20	0.786360	0.689740	0.284200
N201	N20	0.840550	0.638920	0.317340
O211	O21	0.228440	0.857520	0.920310
C211	C21	0.189740	0.713640	0.784200
N211	N21	0.138920	0.659450	0.817340
O221	O22	0.728440	0.357520	0.420310
C221	C22	0.689740	0.213640	0.284200
N221	N22	0.638920	0.159450	0.317340
O231	O23	0.771560	0.142480	0.920310
C231	C23	0.810260	0.286360	0.784200
N231	N23	0.861080	0.340550	0.817340
O241	O24	0.271560	0.642480	0.420310
C241	C24	0.310260	0.786360	0.284200
N241	N24	0.361080	0.840550	0.317340
O251	O25	0.142480	0.771560	0.079690
C251	C25	0.286360	0.810260	0.215800
N251	N25	0.340550	0.861080	0.182660
O261	O26	0.642480	0.271560	0.579690
C261	C26	0.786360	0.310260	0.715800
N261	N26	0.840550	0.361080	0.682660
O271	O27	0.857520	0.228440	0.079690
C271	C27	0.713640	0.189740	0.215800
N271	N27	0.659450	0.138920	0.182660
O281	O28	0.357520	0.728440	0.579690
C281	C28	0.213640	0.689740	0.715800
N281	N28	0.159450	0.638920	0.682660
O291	O29	0.771560	0.857520	0.079690
C291	C29	0.810260	0.713640	0.215800
N291	N29	0.861080	0.659450	0.182660
O301	O30	0.271560	0.357520	0.579690
C301	C30	0.310260	0.213640	0.715800
N301	N30	0.361080	0.159450	0.682660
O311	O31	0.228440	0.142480	0.079690
C311	C31	0.189740	0.286360	0.215800
N311	N31	0.138920	0.340550	0.182660
O321	O32	0.728440	0.642480	0.579690
C321	C32	0.689740	0.786360	0.715800
N321	N32	0.638920	0.840550	0.682660
Al11	Al1	0.078660	0.206600	0.000000
O331	O33	0.060520	0.310300	0.000000
C331	C33	0.067690	0.463440	0.000000
N331	N33	0.143580	0.431840	0.000000
Al21	Al2	0.578660	0.706600	0.500000
O341	O34	0.560520	0.810300	0.500000
C341	C34	0.567690	0.963440	0.500000
N341	N34	0.643580	0.931840	0.500000
Al31	Al3	0.921340	0.793400	0.000000
O351	O35	0.939480	0.689700	0.000000
C351	C35	0.932310	0.536560	0.000000
N351	N35	0.856420	0.568160	0.000000
Al41	Al4	0.421340	0.293400	0.500000
O361	O36	0.439480	0.189700	0.500000
C361	C36	0.432310	0.036560	0.500000
N361	N36	0.356420	0.068160	0.500000
Al51	Al5	0.793400	0.078660	0.000000
O371	O37	0.689700	0.060520	0.000000
C371	C37	0.536560	0.067690	0.000000
N371	N37	0.568160	0.143580	0.000000
Al61	Al6	0.293400	0.578660	0.500000
O381	O38	0.189700	0.560520	0.500000
C381	C38	0.036560	0.567690	0.500000
N381	N38	0.068160	0.643580	0.500000
Al71	Al7	0.206600	0.921340	0.000000
O391	O39	0.310300	0.939480	0.000000
C391	C39	0.463440	0.932310	0.000000
N391	N39	0.431840	0.856420	0.000000
Al81	Al8	0.706600	0.421340	0.500000
O401	O40	0.810300	0.439480	0.500000
C401	C40	0.963440	0.432310	0.500000
N401	N40	0.931840	0.356420	0.500000
Al91	Al9	0.921340	0.206600	0.000000
O411	O41	0.939480	0.310300	0.000000
C411	C41	0.932310	0.463440	0.000000
N411	N41	0.856420	0.431840	0.000000
Al101	Al10	0.421340	0.706600	0.500000
O421	O42	0.439480	0.810300	0.500000
C421	C42	0.432310	0.963440	0.500000
N421	N42	0.356420	0.931840	0.500000
Al111	Al11	0.078660	0.793400	0.000000
O431	O43	0.060520	0.689700	0.000000
C431	C43	0.067690	0.536560	0.000000
N431	N43	0.143580	0.568160	0.000000
Al121	Al12	0.578660	0.293400	0.500000
O441	O44	0.560520	0.189700	0.500000
C441	C44	0.567690	0.036560	0.500000
N441	N44	0.643580	0.068160	0.500000
Al131	Al13	0.206600	0.078660	0.000000
O451	O45	0.310300	0.060520	0.000000
C451	C45	0.463440	0.067690	0.000000
N451	N45	0.431840	0.143580	0.000000
Al141	Al14	0.706600	0.578660	0.500000
O461	O46	0.810300	0.560520	0.500000
C461	C46	0.963440	0.567690	0.500000
N461	N46	0.931840	0.643580	0.500000
Al151	Al15	0.793400	0.921340	0.000000
O471	O47	0.689700	0.939480	0.000000
C471	C47	0.536560	0.932310	0.000000
N471	N47	0.568160	0.856420	0.000000
Al161	Al16	0.293400	0.421340	0.500000
O481	O48	0.189700	0.439480	0.500000
C481	C48	0.036560	0.432310	0.500000
N481	N48	0.068160	0.356420	0.500000
O491	O49	0.110240	0.110240	0.000000
O501	O50	0.610240	0.610240	0.500000
O511	O51	0.889760	0.889760	0.000000
O521	O52	0.389760	0.389760	0.500000
O531	O53	0.889760	0.110240	0.000000
O541	O54	0.389760	0.610240	0.500000
O551	O55	0.110240	0.889760	0.000000
O561	O56	0.610240	0.389760	0.500000
O571	O57	0.000000	0.192910	0.066160
C491	C49	0.000000	0.184700	0.147960
O581	O58	0.500000	0.692910	0.566160
C501	C50	0.500000	0.684700	0.647960
O591	O59	0.000000	0.807090	0.066160
C511	C51	0.000000	0.815300	0.147960
O601	O60	0.500000	0.307090	0.566160
C521	C52	0.500000	0.315300	0.647960
O611	O61	0.807090	0.000000	0.066160
C531	C53	0.815300	0.000000	0.147960
O621	O62	0.307090	0.500000	0.566160
C541	C54	0.315300	0.500000	0.647960
O631	O63	0.192910	0.000000	0.066160
C551	C55	0.184700	0.000000	0.147960
O641	O64	0.692910	0.500000	0.566160
C561	C56	0.684700	0.500000	0.647960
O651	O65	0.000000	0.192910	0.933840
C571	C57	0.000000	0.184700	0.852040
O661	O66	0.500000	0.692910	0.433840
C581	C58	0.500000	0.684700	0.352040
O671	O67	0.000000	0.807090	0.933840
C591	C59	0.000000	0.815300	0.852040
O681	O68	0.500000	0.307090	0.433840
C601	C60	0.500000	0.315300	0.352040
O691	O69	0.192910	0.000000	0.933840
C611	C61	0.184700	0.000000	0.852040
O701	O70	0.692910	0.500000	0.433840
C621	C62	0.684700	0.500000	0.352040
O711	O71	0.807090	0.000000	0.933840
C631	C63	0.815300	0.000000	0.852040
O721	O72	0.307090	0.500000	0.433840
C641	C64	0.315300	0.500000	0.352040
C651	C65	0.000000	0.341960	0.000000
C661	C66	0.000000	0.425270	0.000000
C671	C67	0.500000	0.841960	0.500000
C681	C68	0.500000	0.925270	0.500000
C691	C69	0.000000	0.658040	0.000000
C701	C70	0.000000	0.574730	0.000000
C711	C71	0.500000	0.158040	0.500000
C721	C72	0.500000	0.074730	0.500000
C731	C73	0.658040	0.000000	0.000000
C741	C74	0.574730	0.000000	0.000000
C751	C75	0.158040	0.500000	0.500000
C761	C76	0.074730	0.500000	0.500000
C771	C77	0.341960	0.000000	0.000000
C781	C78	0.425270	0.000000	0.000000
C791	C79	0.841960	0.500000	0.500000
C801	C80	0.925270	0.500000	0.500000
C811	C81	0.196870	0.196870	0.107740
C821	C82	0.224310	0.224310	0.182670
C831	C83	0.696870	0.696870	0.607740
C841	C84	0.724310	0.724310	0.682670
C851	C85	0.803130	0.803130	0.107740
C861	C86	0.775690	0.775690	0.182670
C871	C87	0.303130	0.303130	0.607740
C881	C88	0.275690	0.275690	0.682670
C891	C89	0.803130	0.196870	0.107740
C901	C90	0.775690	0.224310	0.182670
C911	C91	0.303130	0.696870	0.607740
C921	C92	0.275690	0.724310	0.682670
C931	C93	0.196870	0.803130	0.107740
C941	C94	0.224310	0.775690	0.182670
C951	C95	0.696870	0.303130	0.607740
C961	C96	0.724310	0.275690	0.682670
C971	C97	0.803130	0.196870	0.892260
C981	C98	0.775690	0.224310	0.817330
C991	C99	0.303130	0.696870	0.392260
C1001	C100	0.275690	0.724310	0.317330
C1011	C101	0.196870	0.803130	0.892260
C1021	C102	0.224310	0.775690	0.817330
C1031	C103	0.696870	0.303130	0.392260
C1041	C104	0.724310	0.275690	0.317330
C1051	C105	0.196870	0.196870	0.892260
C1061	C106	0.224310	0.224310	0.817330
C1071	C107	0.696870	0.696870	0.392260
C1081	C108	0.724310	0.724310	0.317330
C1091	C109	0.803130	0.803130	0.892260
C1101	C110	0.775690	0.775690	0.817330
C1111	C111	0.303130	0.303130	0.392260
C1121	C112	0.275690	0.275690	0.317330
