data_RUPVAB_clean_PM
_symmetry_space_group_name_H-M	'P1'
_cell_length_a	23.503000
_cell_length_b	23.503000
_cell_length_c	23.503000
_cell_angle_alpha	90.000000
_cell_angle_beta	90.000000
_cell_angle_gamma	90.000000
_symmetry_Int_Tables_number 1

loop_
_symmetry_equiv_pos_as_xyz
'x,y,z'

loop_
_atom_site_label
_atom_site_type_symbol
_atom_site_fract_x
_atom_site_fract_y
_atom_site_fract_z
Zn11	Zn1	0.762630	0.706590	0.820520
O11	O1	0.563700	0.944100	0.952500
O21	O2	0.557300	0.935000	0.047700
O31	O3	0.742600	0.758500	0.884000
O41	O4	0.697900	0.831000	0.843900
O51	O5	0.668000	0.786900	0.143300
O61	O6	0.729400	0.733500	0.098100
C11	C1	0.622400	0.875900	0.997600
C21	C2	0.639000	0.845900	0.046400
H11	H1	0.622500	0.855400	0.081100
C31	C3	0.678000	0.803700	0.044700
C41	C4	0.704800	0.791000	0.992100
H21	H2	0.733900	0.764100	0.990400
C51	C5	0.687700	0.818400	0.944600
C61	C6	0.646900	0.860100	0.946200
H31	H3	0.635600	0.877900	0.912700
C71	C7	0.577400	0.923300	0.000700
C81	C8	0.710700	0.801300	0.885100
C91	C9	0.693800	0.773800	0.097600
Zn21	Zn2	0.262630	0.206590	0.320520
O71	O7	0.063700	0.444100	0.452500
O81	O8	0.057300	0.435000	0.547700
O91	O9	0.242600	0.258500	0.384000
O101	O10	0.197900	0.331000	0.343900
O111	O11	0.168000	0.286900	0.643300
O121	O12	0.229400	0.233500	0.598100
C101	C10	0.122400	0.375900	0.497600
C111	C11	0.139000	0.345900	0.546400
H41	H4	0.122500	0.355400	0.581100
C121	C12	0.178000	0.303700	0.544700
C131	C13	0.204800	0.291000	0.492100
H51	H5	0.233900	0.264100	0.490400
C141	C14	0.187700	0.318400	0.444600
C151	C15	0.146900	0.360100	0.446200
H61	H6	0.135600	0.377900	0.412700
C161	C16	0.077400	0.423300	0.500700
C171	C17	0.210700	0.301300	0.385100
C181	C18	0.193800	0.273800	0.597600
Zn31	Zn3	0.237370	0.293410	0.820520
O131	O13	0.436300	0.055900	0.952500
O141	O14	0.442700	0.065000	0.047700
O151	O15	0.257400	0.241500	0.884000
O161	O16	0.302100	0.169000	0.843900
O171	O17	0.332000	0.213100	0.143300
O181	O18	0.270600	0.266500	0.098100
C191	C19	0.377600	0.124100	0.997600
C201	C20	0.361000	0.154100	0.046400
H71	H7	0.377500	0.144600	0.081100
C211	C21	0.322000	0.196300	0.044700
C221	C22	0.295200	0.209000	0.992100
H81	H8	0.266100	0.235900	0.990400
C231	C23	0.312300	0.181600	0.944600
C241	C24	0.353100	0.139900	0.946200
H91	H9	0.364400	0.122100	0.912700
C251	C25	0.422600	0.076700	0.000700
C261	C26	0.289300	0.198700	0.885100
C271	C27	0.306200	0.226200	0.097600
Zn41	Zn4	0.737370	0.793410	0.320520
O191	O19	0.936300	0.555900	0.452500
O201	O20	0.942700	0.565000	0.547700
O211	O21	0.757400	0.741500	0.384000
O221	O22	0.802100	0.669000	0.343900
O231	O23	0.832000	0.713100	0.643300
O241	O24	0.770600	0.766500	0.598100
C281	C28	0.877600	0.624100	0.497600
C291	C29	0.861000	0.654100	0.546400
H101	H10	0.877500	0.644600	0.581100
C301	C30	0.822000	0.696300	0.544700
C311	C31	0.795200	0.709000	0.492100
H111	H11	0.766100	0.735900	0.490400
C321	C32	0.812300	0.681600	0.444600
C331	C33	0.853100	0.639900	0.446200
H121	H12	0.864400	0.622100	0.412700
C341	C34	0.922600	0.576700	0.500700
C351	C35	0.789300	0.698700	0.385100
C361	C36	0.806200	0.726200	0.597600
Zn51	Zn5	0.237370	0.706590	0.179480
O251	O25	0.436300	0.944100	0.047500
O261	O26	0.442700	0.935000	0.952300
O271	O27	0.257400	0.758500	0.116000
O281	O28	0.302100	0.831000	0.156100
O291	O29	0.332000	0.786900	0.856700
O301	O30	0.270600	0.733500	0.901900
C371	C37	0.377600	0.875900	0.002400
C381	C38	0.361000	0.845900	0.953600
H131	H13	0.377500	0.855400	0.918900
C391	C39	0.322000	0.803700	0.955300
C401	C40	0.295200	0.791000	0.007900
H141	H14	0.266100	0.764100	0.009600
C411	C41	0.312300	0.818400	0.055400
C421	C42	0.353100	0.860100	0.053800
H151	H15	0.364400	0.877900	0.087300
C431	C43	0.422600	0.923300	0.999300
C441	C44	0.289300	0.801300	0.114900
C451	C45	0.306200	0.773800	0.902400
Zn61	Zn6	0.737370	0.206590	0.679480
O311	O31	0.936300	0.444100	0.547500
O321	O32	0.942700	0.435000	0.452300
O331	O33	0.757400	0.258500	0.616000
O341	O34	0.802100	0.331000	0.656100
O351	O35	0.832000	0.286900	0.356700
O361	O36	0.770600	0.233500	0.401900
C461	C46	0.877600	0.375900	0.502400
C471	C47	0.861000	0.345900	0.453600
H161	H16	0.877500	0.355400	0.418900
C481	C48	0.822000	0.303700	0.455300
C491	C49	0.795200	0.291000	0.507900
H171	H17	0.766100	0.264100	0.509600
C501	C50	0.812300	0.318400	0.555400
C511	C51	0.853100	0.360100	0.553800
H181	H18	0.864400	0.377900	0.587300
C521	C52	0.922600	0.423300	0.499300
C531	C53	0.789300	0.301300	0.614900
C541	C54	0.806200	0.273800	0.402400
Zn71	Zn7	0.762630	0.293410	0.179480
O371	O37	0.563700	0.055900	0.047500
O381	O38	0.557300	0.065000	0.952300
O391	O39	0.742600	0.241500	0.116000
O401	O40	0.697900	0.169000	0.156100
O411	O41	0.668000	0.213100	0.856700
O421	O42	0.729400	0.266500	0.901900
C551	C55	0.622400	0.124100	0.002400
C561	C56	0.639000	0.154100	0.953600
H191	H19	0.622500	0.144600	0.918900
C571	C57	0.678000	0.196300	0.955300
C581	C58	0.704800	0.209000	0.007900
H201	H20	0.733900	0.235900	0.009600
C591	C59	0.687700	0.181600	0.055400
C601	C60	0.646900	0.139900	0.053800
H211	H21	0.635600	0.122100	0.087300
C611	C61	0.577400	0.076700	0.999300
C621	C62	0.710700	0.198700	0.114900
C631	C63	0.693800	0.226200	0.902400
Zn81	Zn8	0.262630	0.793410	0.679480
O431	O43	0.063700	0.555900	0.547500
O441	O44	0.057300	0.565000	0.452300
O451	O45	0.242600	0.741500	0.616000
O461	O46	0.197900	0.669000	0.656100
O471	O47	0.168000	0.713100	0.356700
O481	O48	0.229400	0.766500	0.401900
C641	C64	0.122400	0.624100	0.502400
C651	C65	0.139000	0.654100	0.453600
H221	H22	0.122500	0.644600	0.418900
C661	C66	0.178000	0.696300	0.455300
C671	C67	0.204800	0.709000	0.507900
H231	H23	0.233900	0.735900	0.509600
C681	C68	0.187700	0.681600	0.555400
C691	C69	0.146900	0.639900	0.553800
H241	H24	0.135600	0.622100	0.587300
C701	C70	0.077400	0.576700	0.499300
C711	C71	0.210700	0.698700	0.614900
C721	C72	0.193800	0.726200	0.402400
Zn91	Zn9	0.820520	0.762630	0.706590
O491	O49	0.952500	0.563700	0.944100
O501	O50	0.047700	0.557300	0.935000
O511	O51	0.884000	0.742600	0.758500
O521	O52	0.843900	0.697900	0.831000
O531	O53	0.143300	0.668000	0.786900
O541	O54	0.098100	0.729400	0.733500
C731	C73	0.997600	0.622400	0.875900
C741	C74	0.046400	0.639000	0.845900
H251	H25	0.081100	0.622500	0.855400
C751	C75	0.044700	0.678000	0.803700
C761	C76	0.992100	0.704800	0.791000
H261	H26	0.990400	0.733900	0.764100
C771	C77	0.944600	0.687700	0.818400
C781	C78	0.946200	0.646900	0.860100
H271	H27	0.912700	0.635600	0.877900
C791	C79	0.000700	0.577400	0.923300
C801	C80	0.885100	0.710700	0.801300
C811	C81	0.097600	0.693800	0.773800
Zn101	Zn10	0.320520	0.262630	0.206590
O551	O55	0.452500	0.063700	0.444100
O561	O56	0.547700	0.057300	0.435000
O571	O57	0.384000	0.242600	0.258500
O581	O58	0.343900	0.197900	0.331000
O591	O59	0.643300	0.168000	0.286900
O601	O60	0.598100	0.229400	0.233500
C821	C82	0.497600	0.122400	0.375900
C831	C83	0.546400	0.139000	0.345900
H281	H28	0.581100	0.122500	0.355400
C841	C84	0.544700	0.178000	0.303700
C851	C85	0.492100	0.204800	0.291000
H291	H29	0.490400	0.233900	0.264100
C861	C86	0.444600	0.187700	0.318400
C871	C87	0.446200	0.146900	0.360100
H301	H30	0.412700	0.135600	0.377900
C881	C88	0.500700	0.077400	0.423300
C891	C89	0.385100	0.210700	0.301300
C901	C90	0.597600	0.193800	0.273800
Zn111	Zn11	0.820520	0.237370	0.293410
O611	O61	0.952500	0.436300	0.055900
O621	O62	0.047700	0.442700	0.065000
O631	O63	0.884000	0.257400	0.241500
O641	O64	0.843900	0.302100	0.169000
O651	O65	0.143300	0.332000	0.213100
O661	O66	0.098100	0.270600	0.266500
C911	C91	0.997600	0.377600	0.124100
C921	C92	0.046400	0.361000	0.154100
H311	H31	0.081100	0.377500	0.144600
C931	C93	0.044700	0.322000	0.196300
C941	C94	0.992100	0.295200	0.209000
H321	H32	0.990400	0.266100	0.235900
C951	C95	0.944600	0.312300	0.181600
C961	C96	0.946200	0.353100	0.139900
H331	H33	0.912700	0.364400	0.122100
C971	C97	0.000700	0.422600	0.076700
C981	C98	0.885100	0.289300	0.198700
C991	C99	0.097600	0.306200	0.226200
Zn121	Zn12	0.320520	0.737370	0.793410
O671	O67	0.452500	0.936300	0.555900
O681	O68	0.547700	0.942700	0.565000
O691	O69	0.384000	0.757400	0.741500
O701	O70	0.343900	0.802100	0.669000
O711	O71	0.643300	0.832000	0.713100
O721	O72	0.598100	0.770600	0.766500
C1001	C100	0.497600	0.877600	0.624100
C1011	C101	0.546400	0.861000	0.654100
H341	H34	0.581100	0.877500	0.644600
C1021	C102	0.544700	0.822000	0.696300
C1031	C103	0.492100	0.795200	0.709000
H351	H35	0.490400	0.766100	0.735900
C1041	C104	0.444600	0.812300	0.681600
C1051	C105	0.446200	0.853100	0.639900
H361	H36	0.412700	0.864400	0.622100
C1061	C106	0.500700	0.922600	0.576700
C1071	C107	0.385100	0.789300	0.698700
C1081	C108	0.597600	0.806200	0.726200
Zn131	Zn13	0.179480	0.237370	0.706590
O731	O73	0.047500	0.436300	0.944100
O741	O74	0.952300	0.442700	0.935000
O751	O75	0.116000	0.257400	0.758500
O761	O76	0.156100	0.302100	0.831000
O771	O77	0.856700	0.332000	0.786900
O781	O78	0.901900	0.270600	0.733500
C1091	C109	0.002400	0.377600	0.875900
C1101	C110	0.953600	0.361000	0.845900
H371	H37	0.918900	0.377500	0.855400
C1111	C111	0.955300	0.322000	0.803700
C1121	C112	0.007900	0.295200	0.791000
H381	H38	0.009600	0.266100	0.764100
C1131	C113	0.055400	0.312300	0.818400
C1141	C114	0.053800	0.353100	0.860100
H391	H39	0.087300	0.364400	0.877900
C1151	C115	0.999300	0.422600	0.923300
C1161	C116	0.114900	0.289300	0.801300
C1171	C117	0.902400	0.306200	0.773800
Zn141	Zn14	0.679480	0.737370	0.206590
O791	O79	0.547500	0.936300	0.444100
O801	O80	0.452300	0.942700	0.435000
O811	O81	0.616000	0.757400	0.258500
O821	O82	0.656100	0.802100	0.331000
O831	O83	0.356700	0.832000	0.286900
O841	O84	0.401900	0.770600	0.233500
C1181	C118	0.502400	0.877600	0.375900
C1191	C119	0.453600	0.861000	0.345900
H401	H40	0.418900	0.877500	0.355400
C1201	C120	0.455300	0.822000	0.303700
C1211	C121	0.507900	0.795200	0.291000
H411	H41	0.509600	0.766100	0.264100
C1221	C122	0.555400	0.812300	0.318400
C1231	C123	0.553800	0.853100	0.360100
H421	H42	0.587300	0.864400	0.377900
C1241	C124	0.499300	0.922600	0.423300
C1251	C125	0.614900	0.789300	0.301300
C1261	C126	0.402400	0.806200	0.273800
Zn151	Zn15	0.179480	0.762630	0.293410
O851	O85	0.047500	0.563700	0.055900
O861	O86	0.952300	0.557300	0.065000
O871	O87	0.116000	0.742600	0.241500
O881	O88	0.156100	0.697900	0.169000
O891	O89	0.856700	0.668000	0.213100
O901	O90	0.901900	0.729400	0.266500
C1271	C127	0.002400	0.622400	0.124100
C1281	C128	0.953600	0.639000	0.154100
H431	H43	0.918900	0.622500	0.144600
C1291	C129	0.955300	0.678000	0.196300
C1301	C130	0.007900	0.704800	0.209000
H441	H44	0.009600	0.733900	0.235900
C1311	C131	0.055400	0.687700	0.181600
C1321	C132	0.053800	0.646900	0.139900
H451	H45	0.087300	0.635600	0.122100
C1331	C133	0.999300	0.577400	0.076700
C1341	C134	0.114900	0.710700	0.198700
C1351	C135	0.902400	0.693800	0.226200
Zn161	Zn16	0.679480	0.262630	0.793410
O911	O91	0.547500	0.063700	0.555900
O921	O92	0.452300	0.057300	0.565000
O931	O93	0.616000	0.242600	0.741500
O941	O94	0.656100	0.197900	0.669000
O951	O95	0.356700	0.168000	0.713100
O961	O96	0.401900	0.229400	0.766500
C1361	C136	0.502400	0.122400	0.624100
C1371	C137	0.453600	0.139000	0.654100
H461	H46	0.418900	0.122500	0.644600
C1381	C138	0.455300	0.178000	0.696300
C1391	C139	0.507900	0.204800	0.709000
H471	H47	0.509600	0.233900	0.735900
C1401	C140	0.555400	0.187700	0.681600
C1411	C141	0.553800	0.146900	0.639900
H481	H48	0.587300	0.135600	0.622100
C1421	C142	0.499300	0.077400	0.576700
C1431	C143	0.614900	0.210700	0.698700
C1441	C144	0.402400	0.193800	0.726200
Zn171	Zn17	0.706590	0.820520	0.762630
O971	O97	0.944100	0.952500	0.563700
O981	O98	0.935000	0.047700	0.557300
O991	O99	0.758500	0.884000	0.742600
O1001	O100	0.831000	0.843900	0.697900
O1011	O101	0.786900	0.143300	0.668000
O1021	O102	0.733500	0.098100	0.729400
C1451	C145	0.875900	0.997600	0.622400
C1461	C146	0.845900	0.046400	0.639000
H491	H49	0.855400	0.081100	0.622500
C1471	C147	0.803700	0.044700	0.678000
C1481	C148	0.791000	0.992100	0.704800
H501	H50	0.764100	0.990400	0.733900
C1491	C149	0.818400	0.944600	0.687700
C1501	C150	0.860100	0.946200	0.646900
H511	H51	0.877900	0.912700	0.635600
C1511	C151	0.923300	0.000700	0.577400
C1521	C152	0.801300	0.885100	0.710700
C1531	C153	0.773800	0.097600	0.693800
Zn181	Zn18	0.206590	0.320520	0.262630
O1031	O103	0.444100	0.452500	0.063700
O1041	O104	0.435000	0.547700	0.057300
O1051	O105	0.258500	0.384000	0.242600
O1061	O106	0.331000	0.343900	0.197900
O1071	O107	0.286900	0.643300	0.168000
O1081	O108	0.233500	0.598100	0.229400
C1541	C154	0.375900	0.497600	0.122400
C1551	C155	0.345900	0.546400	0.139000
H521	H52	0.355400	0.581100	0.122500
C1561	C156	0.303700	0.544700	0.178000
C1571	C157	0.291000	0.492100	0.204800
H531	H53	0.264100	0.490400	0.233900
C1581	C158	0.318400	0.444600	0.187700
C1591	C159	0.360100	0.446200	0.146900
H541	H54	0.377900	0.412700	0.135600
C1601	C160	0.423300	0.500700	0.077400
C1611	C161	0.301300	0.385100	0.210700
C1621	C162	0.273800	0.597600	0.193800
Zn191	Zn19	0.293410	0.820520	0.237370
O1091	O109	0.055900	0.952500	0.436300
O1101	O110	0.065000	0.047700	0.442700
O1111	O111	0.241500	0.884000	0.257400
O1121	O112	0.169000	0.843900	0.302100
O1131	O113	0.213100	0.143300	0.332000
O1141	O114	0.266500	0.098100	0.270600
C1631	C163	0.124100	0.997600	0.377600
C1641	C164	0.154100	0.046400	0.361000
H551	H55	0.144600	0.081100	0.377500
C1651	C165	0.196300	0.044700	0.322000
C1661	C166	0.209000	0.992100	0.295200
H561	H56	0.235900	0.990400	0.266100
C1671	C167	0.181600	0.944600	0.312300
C1681	C168	0.139900	0.946200	0.353100
H571	H57	0.122100	0.912700	0.364400
C1691	C169	0.076700	0.000700	0.422600
C1701	C170	0.198700	0.885100	0.289300
C1711	C171	0.226200	0.097600	0.306200
Zn201	Zn20	0.793410	0.320520	0.737370
O1151	O115	0.555900	0.452500	0.936300
O1161	O116	0.565000	0.547700	0.942700
O1171	O117	0.741500	0.384000	0.757400
O1181	O118	0.669000	0.343900	0.802100
O1191	O119	0.713100	0.643300	0.832000
O1201	O120	0.766500	0.598100	0.770600
C1721	C172	0.624100	0.497600	0.877600
C1731	C173	0.654100	0.546400	0.861000
H581	H58	0.644600	0.581100	0.877500
C1741	C174	0.696300	0.544700	0.822000
C1751	C175	0.709000	0.492100	0.795200
H591	H59	0.735900	0.490400	0.766100
C1761	C176	0.681600	0.444600	0.812300
C1771	C177	0.639900	0.446200	0.853100
H601	H60	0.622100	0.412700	0.864400
C1781	C178	0.576700	0.500700	0.922600
C1791	C179	0.698700	0.385100	0.789300
C1801	C180	0.726200	0.597600	0.806200
Zn211	Zn21	0.706590	0.179480	0.237370
O1211	O121	0.944100	0.047500	0.436300
O1221	O122	0.935000	0.952300	0.442700
O1231	O123	0.758500	0.116000	0.257400
O1241	O124	0.831000	0.156100	0.302100
O1251	O125	0.786900	0.856700	0.332000
O1261	O126	0.733500	0.901900	0.270600
C1811	C181	0.875900	0.002400	0.377600
C1821	C182	0.845900	0.953600	0.361000
H611	H61	0.855400	0.918900	0.377500
C1831	C183	0.803700	0.955300	0.322000
C1841	C184	0.791000	0.007900	0.295200
H621	H62	0.764100	0.009600	0.266100
C1851	C185	0.818400	0.055400	0.312300
C1861	C186	0.860100	0.053800	0.353100
H631	H63	0.877900	0.087300	0.364400
C1871	C187	0.923300	0.999300	0.422600
C1881	C188	0.801300	0.114900	0.289300
C1891	C189	0.773800	0.902400	0.306200
Zn221	Zn22	0.206590	0.679480	0.737370
O1271	O127	0.444100	0.547500	0.936300
O1281	O128	0.435000	0.452300	0.942700
O1291	O129	0.258500	0.616000	0.757400
O1301	O130	0.331000	0.656100	0.802100
O1311	O131	0.286900	0.356700	0.832000
O1321	O132	0.233500	0.401900	0.770600
C1901	C190	0.375900	0.502400	0.877600
C1911	C191	0.345900	0.453600	0.861000
H641	H64	0.355400	0.418900	0.877500
C1921	C192	0.303700	0.455300	0.822000
C1931	C193	0.291000	0.507900	0.795200
H651	H65	0.264100	0.509600	0.766100
C1941	C194	0.318400	0.555400	0.812300
C1951	C195	0.360100	0.553800	0.853100
H661	H66	0.377900	0.587300	0.864400
C1961	C196	0.423300	0.499300	0.922600
C1971	C197	0.301300	0.614900	0.789300
C1981	C198	0.273800	0.402400	0.806200
Zn231	Zn23	0.293410	0.179480	0.762630
O1331	O133	0.055900	0.047500	0.563700
O1341	O134	0.065000	0.952300	0.557300
O1351	O135	0.241500	0.116000	0.742600
O1361	O136	0.169000	0.156100	0.697900
O1371	O137	0.213100	0.856700	0.668000
O1381	O138	0.266500	0.901900	0.729400
C1991	C199	0.124100	0.002400	0.622400
C2001	C200	0.154100	0.953600	0.639000
H671	H67	0.144600	0.918900	0.622500
C2011	C201	0.196300	0.955300	0.678000
C2021	C202	0.209000	0.007900	0.704800
H681	H68	0.235900	0.009600	0.733900
C2031	C203	0.181600	0.055400	0.687700
C2041	C204	0.139900	0.053800	0.646900
H691	H69	0.122100	0.087300	0.635600
C2051	C205	0.076700	0.999300	0.577400
C2061	C206	0.198700	0.114900	0.710700
C2071	C207	0.226200	0.902400	0.693800
Zn241	Zn24	0.793410	0.679480	0.262630
O1391	O139	0.555900	0.547500	0.063700
O1401	O140	0.565000	0.452300	0.057300
O1411	O141	0.741500	0.616000	0.242600
O1421	O142	0.669000	0.656100	0.197900
O1431	O143	0.713100	0.356700	0.168000
O1441	O144	0.766500	0.401900	0.229400
C2081	C208	0.624100	0.502400	0.122400
C2091	C209	0.654100	0.453600	0.139000
H701	H70	0.644600	0.418900	0.122500
C2101	C210	0.696300	0.455300	0.178000
C2111	C211	0.709000	0.507900	0.204800
H711	H71	0.735900	0.509600	0.233900
C2121	C212	0.681600	0.555400	0.187700
C2131	C213	0.639900	0.553800	0.146900
H721	H72	0.622100	0.587300	0.135600
C2141	C214	0.576700	0.499300	0.077400
C2151	C215	0.698700	0.614900	0.210700
C2161	C216	0.726200	0.402400	0.193800
Zn251	Zn25	0.500000	0.000000	0.936400
Zn261	Zn26	0.000000	0.500000	0.436400
Zn271	Zn27	0.500000	0.000000	0.063600
Zn281	Zn28	0.000000	0.500000	0.563600
Zn291	Zn29	0.936400	0.500000	0.000000
Zn301	Zn30	0.436400	0.000000	0.500000
Zn311	Zn31	0.063600	0.500000	0.000000
Zn321	Zn32	0.563600	0.000000	0.500000
Zn331	Zn33	0.000000	0.936400	0.500000
Zn341	Zn34	0.500000	0.436400	0.000000
Zn351	Zn35	0.000000	0.063600	0.500000
Zn361	Zn36	0.500000	0.563600	0.000000
O1451	O145	0.748000	0.748000	0.748000
O1461	O146	0.248000	0.248000	0.248000
O1471	O147	0.252000	0.252000	0.748000
O1481	O148	0.752000	0.752000	0.248000
O1491	O149	0.252000	0.748000	0.252000
O1501	O150	0.752000	0.248000	0.752000
O1511	O151	0.748000	0.252000	0.252000
O1521	O152	0.248000	0.752000	0.752000
