data_RUSHIY_clean_PM
_symmetry_space_group_name_H-M	'P1'
_cell_length_a	27.019000
_cell_length_b	38.427000
_cell_length_c	38.738000
_cell_angle_alpha	90.000000
_cell_angle_beta	90.000000
_cell_angle_gamma	90.000000
_symmetry_Int_Tables_number 1

loop_
_symmetry_equiv_pos_as_xyz
'x,y,z'

loop_
_atom_site_label
_atom_site_type_symbol
_atom_site_fract_x
_atom_site_fract_y
_atom_site_fract_z
W11	W1	0.824880	0.568100	0.355240
W21	W2	0.727230	0.515280	0.357170
W31	W3	0.657490	0.595450	0.325780
W41	W4	0.754960	0.648610	0.324680
W51	W5	0.687850	0.725900	0.361100
W61	W6	0.587930	0.676890	0.350110
W71	W7	0.576840	0.599410	0.403470
W81	W8	0.795230	0.687330	0.406000
W91	W9	0.862190	0.608940	0.438270
W101	W10	0.645780	0.519820	0.432080
W111	W11	0.762160	0.468830	0.439160
W121	W12	0.867110	0.514870	0.431600
W131	W13	0.866780	0.513740	0.529910
W141	W14	0.762100	0.469070	0.537260
W151	W15	0.646110	0.516800	0.528780
W161	W16	0.859880	0.610100	0.534990
W171	W17	0.789340	0.689080	0.562740
W181	W18	0.577950	0.595650	0.559380
W191	W19	0.533940	0.646410	0.483200
W201	W20	0.750470	0.737020	0.483310
W211	W21	0.643920	0.775220	0.439900
W221	W22	0.543360	0.726090	0.429780
W231	W23	0.537620	0.730380	0.526620
W241	W24	0.646440	0.770930	0.536090
W251	W25	0.685490	0.719400	0.614790
W261	W26	0.576010	0.679680	0.606330
W271	W27	0.644240	0.602380	0.641120
W281	W28	0.755330	0.639580	0.641260
W291	W29	0.824930	0.559830	0.610390
W301	W30	0.714190	0.522320	0.611690
Co11	Co1	0.458280	0.546280	0.576170
Co21	Co2	0.411300	0.762560	0.419290
Co31	Co3	0.722810	0.804310	0.306880
Co41	Co4	0.921760	0.676440	0.140970
K11	K1	0.758300	0.643930	0.484810
P11	P1	0.684900	0.644930	0.397200
P21	P2	0.759200	0.558780	0.431100
P31	P3	0.755900	0.558540	0.536400
P41	P4	0.680900	0.644420	0.569200
P51	P5	0.636200	0.698030	0.483000
O11	O1	0.707600	0.622000	0.300100
O21	O2	0.696800	0.556800	0.330700
O31	O3	0.791300	0.601800	0.332400
O41	O4	0.786300	0.529700	0.335000
O51	O5	0.854400	0.527800	0.388600
O61	O6	0.755100	0.484900	0.387700
O71	O7	0.670600	0.520600	0.386100
O81	O8	0.760600	0.558300	0.390500
O91	O9	0.850600	0.597200	0.389800
O101	O10	0.793300	0.662500	0.364000
O111	O11	0.703200	0.625600	0.364700
O121	O12	0.613200	0.587100	0.360700
O131	O13	0.621100	0.644200	0.325700
O141	O14	0.717900	0.688500	0.328100
O151	O15	0.710900	0.759200	0.335100
O161	O16	0.627700	0.715800	0.336500
O171	O17	0.565600	0.643300	0.382700
O181	O18	0.657600	0.678800	0.384900
O191	O19	0.744800	0.716400	0.385900
O201	O20	0.730000	0.655100	0.419400
O211	O21	0.649500	0.622700	0.419500
O221	O22	0.609100	0.560500	0.428000
O231	O23	0.826900	0.652500	0.432300
O241	O24	0.784700	0.590700	0.445100
O251	O25	0.705400	0.556400	0.443200
O261	O26	0.600400	0.489100	0.423100
O271	O27	0.697100	0.486300	0.441700
O281	O28	0.786600	0.524600	0.442000
O291	O29	0.878100	0.560900	0.444300
O301	O30	0.833300	0.470300	0.428900
O311	O31	0.771000	0.465200	0.485900
O321	O32	0.867900	0.506300	0.483900
O331	O33	0.857500	0.618400	0.484900
O341	O34	0.637000	0.522400	0.480400
O351	O35	0.555400	0.615000	0.447200
O361	O36	0.777900	0.707300	0.449400
O371	O37	0.659200	0.751700	0.393400
O381	O38	0.563200	0.710800	0.387500
O391	O39	0.484900	0.741700	0.415900
O401	O40	0.575600	0.771800	0.425000
O411	O41	0.709300	0.758000	0.449200
O421	O42	0.618400	0.719600	0.449800
O431	O43	0.527500	0.681300	0.449500
O441	O44	0.612900	0.662300	0.482500
O451	O45	0.694200	0.696000	0.483400
O461	O46	0.778100	0.706900	0.518000
O471	O47	0.558400	0.615300	0.516000
O481	O48	0.520100	0.575500	0.567500
O491	O49	0.647300	0.621600	0.546800
O501	O50	0.725000	0.656500	0.548400
O511	O51	0.841400	0.715000	0.572200
O521	O52	0.823600	0.652600	0.537900
O531	O53	0.606300	0.560100	0.533400
O541	O54	0.704100	0.556600	0.521200
O551	O55	0.781600	0.591500	0.523100
O561	O56	0.874000	0.562000	0.525700
O571	O57	0.785100	0.525800	0.524400
O581	O58	0.695700	0.484000	0.520800
O591	O59	0.831600	0.470900	0.541500
O601	O60	0.850300	0.527700	0.579600
O611	O61	0.747900	0.486900	0.578800
O621	O62	0.664500	0.520200	0.577400
O631	O63	0.753700	0.558200	0.577600
O641	O64	0.846600	0.596100	0.579900
O651	O65	0.788200	0.661600	0.604100
O661	O66	0.696800	0.624900	0.602000
O671	O67	0.610700	0.584000	0.603200
O681	O68	0.563700	0.640200	0.578900
O691	O69	0.651700	0.676700	0.580300
O701	O70	0.740000	0.717300	0.583100
O711	O71	0.709300	0.758100	0.516300
O721	O72	0.619400	0.718400	0.514300
O731	O73	0.525600	0.681500	0.516600
O741	O74	0.534500	0.741200	0.482900
O751	O75	0.634000	0.783200	0.485600
O761	O76	0.575100	0.770400	0.542500
O771	O77	0.557200	0.710200	0.573700
O781	O78	0.656400	0.749400	0.578000
O791	O79	0.617800	0.712500	0.630800
O801	O80	0.610800	0.642200	0.638300
O811	O81	0.713700	0.684300	0.641500
O821	O82	0.699500	0.621300	0.668000
O831	O83	0.688200	0.559900	0.634700
O841	O84	0.786600	0.597100	0.635100
O851	O85	0.777500	0.528200	0.632300
N11	N1	0.347300	0.569400	0.393000
H11	H1	0.357100	0.550500	0.387300
N21	N2	0.309900	0.582100	0.374200
N31	N3	0.341300	0.706600	0.447100
H21	H2	0.330500	0.721800	0.461500
N41	N4	0.382100	0.712900	0.426600
N51	N5	0.444100	0.811800	0.408900
N61	N6	0.487900	0.819400	0.427800
H31	H3	0.498500	0.808400	0.445600
C11	C1	0.511100	0.848500	0.412000
C21	C2	0.481700	0.858800	0.383400
C31	C3	0.440300	0.836100	0.381500
N71	N7	0.687500	0.741600	0.266100
H41	H4	0.707000	0.729700	0.279000
N81	N8	0.678300	0.776700	0.269700
N91	N9	0.935000	0.555800	0.978200
N101	N10	0.890600	0.570300	0.973200
H51	H5	0.869200	0.562700	0.958600
N111	N11	0.940000	0.649500	0.095900
N121	N12	0.972800	0.662900	0.073500
H61	H6	0.991000	0.680300	0.079200
N131	N13	0.934100	0.737400	0.191900
H71	H7	0.962400	0.741600	0.182500
N141	N14	0.904900	0.706800	0.184900
N151	N15	0.784600	0.778600	0.284400
N161	N16	0.811000	0.757400	0.307900
H81	H8	0.805400	0.755800	0.329700
N171	N17	0.749300	0.822700	0.380400
H91	H9	0.720900	0.814100	0.385700
N181	N18	0.766700	0.823700	0.347900
C41	C4	0.406600	0.587300	0.432500
H101	H10	0.413000	0.562800	0.433900
H111	H11	0.398900	0.596100	0.455100
H121	H12	0.435400	0.599000	0.423700
C51	C5	0.369200	0.592900	0.411800
C61	C6	0.341600	0.626500	0.404100
C71	C7	0.305700	0.613400	0.379600
C81	C8	0.268000	0.641700	0.364700
H131	H13	0.241000	0.644800	0.380500
H141	H14	0.255400	0.634000	0.342800
H151	H15	0.284900	0.663500	0.361700
C91	C9	0.274700	0.667300	0.463800
H161	H16	0.257700	0.687900	0.471300
H171	H17	0.283900	0.653600	0.483500
H181	H18	0.253200	0.653900	0.449100
C101	C10	0.321100	0.677600	0.443700
C111	C11	0.351000	0.659800	0.420400
C121	C12	0.387800	0.681400	0.410500
C131	C13	0.428800	0.673100	0.385100
H191	H19	0.436400	0.693500	0.371800
H201	H20	0.418200	0.654800	0.369900
H211	H21	0.457700	0.665700	0.397500
C141	C14	0.556400	0.861800	0.427500
H221	H22	0.548300	0.879700	0.443900
H231	H23	0.577300	0.871200	0.409800
H241	H24	0.573300	0.843200	0.439100
C151	C15	0.399000	0.840500	0.359000
H251	H25	0.407000	0.831500	0.336600
H261	H26	0.391200	0.864800	0.357200
H271	H27	0.371000	0.828200	0.368100
C161	C16	0.472800	0.938200	0.409200
H281	H28	0.441300	0.928900	0.416000
H291	H29	0.471000	0.963200	0.408500
H301	H30	0.497600	0.931300	0.425600
C171	C17	0.502500	0.887000	0.330400
C181	C18	0.488600	0.889200	0.365700
C191	C19	0.486100	0.925000	0.374800
N191	N19	0.498400	0.944800	0.345100
N201	N20	0.508500	0.921400	0.317700
H311	H31	0.516900	0.927000	0.297000
C201	C20	0.510000	0.855600	0.302700
H321	H32	0.534000	0.839300	0.311500
H331	H33	0.521900	0.865000	0.281300
H341	H34	0.479200	0.843900	0.299000
C211	C21	0.522000	0.760500	0.211900
H351	H35	0.518200	0.737900	0.222000
H361	H36	0.492200	0.767500	0.200800
H371	H37	0.530600	0.777000	0.229600
C221	C22	0.613100	0.754300	0.190200
C231	C23	0.633300	0.751700	0.156400
N211	N21	0.593900	0.755100	0.132400
N221	N22	0.549400	0.759900	0.151300
H381	H38	0.520300	0.762600	0.142700
C241	C24	0.561300	0.759400	0.187000
C251	C25	0.681300	0.749300	0.151000
H391	H39	0.697500	0.769400	0.160400
H401	H40	0.687600	0.748000	0.126700
H411	H41	0.693900	0.728800	0.162100
C261	C26	0.672700	0.691100	0.228700
H421	H42	0.707400	0.688300	0.224200
H431	H43	0.654300	0.686000	0.208100
H441	H44	0.662900	0.675400	0.246800
C271	C27	0.662200	0.728900	0.240100
C281	C28	0.639000	0.751600	0.223500
C291	C29	0.647100	0.785200	0.242200
C301	C30	0.627800	0.822100	0.238700
H451	H45	0.645200	0.837000	0.254400
H461	H46	0.593100	0.822500	0.243900
H471	H47	0.633000	0.830100	0.215500
C311	C31	0.010300	0.564000	0.012300
H481	H48	0.019200	0.541500	0.003300
H491	H49	0.014300	0.564000	0.036900
H501	H50	0.031300	0.581400	0.002300
C321	C32	0.958400	0.571500	0.003600
C331	C33	0.928700	0.599200	0.015200
C341	C34	0.883500	0.597400	0.993400
C351	C35	0.837800	0.618200	0.995200
H511	H51	0.843200	0.640300	0.984300
H521	H52	0.828900	0.621700	0.018900
H531	H53	0.811600	0.606100	0.983500
C361	C36	0.876200	0.605100	0.090000
H541	H54	0.886100	0.594200	0.111200
H551	H55	0.865500	0.587700	0.074000
H561	H56	0.849500	0.621000	0.094500
C371	C37	0.915900	0.623300	0.076200
C381	C38	0.937400	0.624900	0.039700
C391	C39	0.976300	0.649200	0.043600
C401	C40	0.007400	0.660600	0.014700
H571	H57	0.021400	0.683000	0.019900
H581	H58	0.987600	0.662200	0.994200
H591	H59	0.033500	0.644100	0.011100
C411	C41	0.825100	0.688300	0.208200
H601	H60	0.815500	0.682600	0.185000
H611	H61	0.799000	0.701100	0.219200
H621	H62	0.831200	0.667300	0.220900
C421	C42	0.869300	0.709000	0.207500
C431	C43	0.876700	0.738800	0.228900
C441	C44	0.913000	0.757800	0.214000
C451	C45	0.939400	0.791900	0.225100
H631	H63	0.970100	0.786300	0.236300
H641	H64	0.918600	0.804500	0.240800
H651	H65	0.945800	0.805900	0.205100
C461	C46	0.780100	0.792200	0.224200
H661	H66	0.747500	0.800400	0.230000
H671	H67	0.778000	0.776400	0.205100
H681	H68	0.800600	0.811600	0.217900
C471	C47	0.802200	0.773900	0.254800
C481	C48	0.841000	0.747900	0.254900
C491	C49	0.847900	0.739400	0.289700
C501	C50	0.876500	0.716000	0.304600
H691	H69	0.909100	0.717100	0.294800
H701	H70	0.862900	0.693200	0.301000
H711	H71	0.878300	0.720700	0.329000
C511	C51	0.846600	0.842000	0.322300
H721	H72	0.870400	0.823500	0.322900
H731	H73	0.863400	0.864000	0.322700
H741	H74	0.827200	0.840200	0.301600
C521	C52	0.813700	0.839300	0.352800
C531	C53	0.822300	0.847100	0.386200
C541	C54	0.780700	0.836500	0.404400
C551	C55	0.768900	0.841300	0.443800
H751	H75	0.735700	0.849800	0.446400
H761	H76	0.791700	0.857700	0.453600
H771	H77	0.772100	0.819300	0.455400
C561	C56	0.901100	0.816300	0.446800
H781	H78	0.918200	0.800100	0.432300
H791	H79	0.868800	0.807300	0.452300
H801	H80	0.919500	0.819700	0.467700
C571	C57	0.874500	0.899500	0.395600
N231	N23	0.914000	0.909000	0.417900
N241	N24	0.927100	0.879400	0.437700
H811	H81	0.950000	0.878400	0.453100
C581	C58	0.895700	0.851500	0.427700
C591	C59	0.863200	0.864000	0.401700
C601	C60	0.853000	0.925000	0.372300
H821	H82	0.854800	0.947700	0.382500
H831	H83	0.819000	0.919100	0.368000
H841	H84	0.871000	0.924900	0.350900
O861	O86	0.681400	0.610500	0.481400
K21	K2	0.649700	0.598800	0.482000
O871	O87	0.728000	0.629600	0.486400
W311	W31	0.675120	0.931900	0.855240
W321	W32	0.772770	0.984720	0.857170
W331	W33	0.842510	0.904550	0.825780
W341	W34	0.745040	0.851390	0.824680
W351	W35	0.812150	0.774100	0.861100
W361	W36	0.912070	0.823110	0.850110
W371	W37	0.923160	0.900590	0.903470
W381	W38	0.704770	0.812670	0.906000
W391	W39	0.637810	0.891060	0.938270
W401	W40	0.854220	0.980180	0.932080
W411	W41	0.737840	0.031170	0.939160
W421	W42	0.632890	0.985130	0.931600
W431	W43	0.633220	0.986260	0.029910
W441	W44	0.737900	0.030930	0.037260
W451	W45	0.853890	0.983200	0.028780
W461	W46	0.640120	0.889900	0.034990
W471	W47	0.710660	0.810920	0.062740
W481	W48	0.922050	0.904350	0.059380
W491	W49	0.966060	0.853590	0.983200
W501	W50	0.749530	0.762980	0.983310
W511	W51	0.856080	0.724780	0.939900
W521	W52	0.956640	0.773910	0.929780
W531	W53	0.962380	0.769620	0.026620
W541	W54	0.853560	0.729070	0.036090
W551	W55	0.814510	0.780600	0.114790
W561	W56	0.923990	0.820320	0.106330
W571	W57	0.855760	0.897620	0.141120
W581	W58	0.744670	0.860420	0.141260
W591	W59	0.675070	0.940170	0.110390
W601	W60	0.785810	0.977680	0.111690
Co51	Co5	0.041720	0.953720	0.076170
Co61	Co6	0.088700	0.737440	0.919290
Co71	Co7	0.777190	0.695690	0.806880
Co81	Co8	0.578240	0.823560	0.640970
K31	K3	0.741700	0.856070	0.984810
P61	P6	0.815100	0.855070	0.897200
P71	P7	0.740800	0.941220	0.931100
P81	P8	0.744100	0.941460	0.036400
P91	P9	0.819100	0.855580	0.069200
P101	P10	0.863800	0.801970	0.983000
O881	O88	0.792400	0.878000	0.800100
O891	O89	0.803200	0.943200	0.830700
O901	O90	0.708700	0.898200	0.832400
O911	O91	0.713700	0.970300	0.835000
O921	O92	0.645600	0.972200	0.888600
O931	O93	0.744900	0.015100	0.887700
O941	O94	0.829400	0.979400	0.886100
O951	O95	0.739400	0.941700	0.890500
O961	O96	0.649400	0.902800	0.889800
O971	O97	0.706700	0.837500	0.864000
O981	O98	0.796800	0.874400	0.864700
O991	O99	0.886800	0.912900	0.860700
O1001	O100	0.878900	0.855800	0.825700
O1011	O101	0.782100	0.811500	0.828100
O1021	O102	0.789100	0.740800	0.835100
O1031	O103	0.872300	0.784200	0.836500
O1041	O104	0.934400	0.856700	0.882700
O1051	O105	0.842400	0.821200	0.884900
O1061	O106	0.755200	0.783600	0.885900
O1071	O107	0.770000	0.844900	0.919400
O1081	O108	0.850500	0.877300	0.919500
O1091	O109	0.890900	0.939500	0.928000
O1101	O110	0.673100	0.847500	0.932300
O1111	O111	0.715300	0.909300	0.945100
O1121	O112	0.794600	0.943600	0.943200
O1131	O113	0.899600	0.010900	0.923100
O1141	O114	0.802900	0.013700	0.941700
O1151	O115	0.713400	0.975400	0.942000
O1161	O116	0.621900	0.939100	0.944300
O1171	O117	0.666700	0.029700	0.928900
O1181	O118	0.729000	0.034800	0.985900
O1191	O119	0.632100	0.993700	0.983900
O1201	O120	0.642500	0.881600	0.984900
O1211	O121	0.863000	0.977600	0.980400
O1221	O122	0.944600	0.885000	0.947200
O1231	O123	0.722100	0.792700	0.949400
O1241	O124	0.840800	0.748300	0.893400
O1251	O125	0.936800	0.789200	0.887500
O1261	O126	0.015100	0.758300	0.915900
O1271	O127	0.924400	0.728200	0.925000
O1281	O128	0.790700	0.742000	0.949200
O1291	O129	0.881600	0.780400	0.949800
O1301	O130	0.972500	0.818700	0.949500
O1311	O131	0.887100	0.837700	0.982500
O1321	O132	0.805800	0.804000	0.983400
O1331	O133	0.721900	0.793100	0.018000
O1341	O134	0.941600	0.884700	0.016000
O1351	O135	0.979900	0.924500	0.067500
O1361	O136	0.852700	0.878400	0.046800
O1371	O137	0.775000	0.843500	0.048400
O1381	O138	0.658600	0.785000	0.072200
O1391	O139	0.676400	0.847400	0.037900
O1401	O140	0.893700	0.939900	0.033400
O1411	O141	0.795900	0.943400	0.021200
O1421	O142	0.718400	0.908500	0.023100
O1431	O143	0.626000	0.938000	0.025700
O1441	O144	0.714900	0.974200	0.024400
O1451	O145	0.804300	0.016000	0.020800
O1461	O146	0.668400	0.029100	0.041500
O1471	O147	0.649700	0.972300	0.079600
O1481	O148	0.752100	0.013100	0.078800
O1491	O149	0.835500	0.979800	0.077400
O1501	O150	0.746300	0.941800	0.077600
O1511	O151	0.653400	0.903900	0.079900
O1521	O152	0.711800	0.838400	0.104100
O1531	O153	0.803200	0.875100	0.102000
O1541	O154	0.889300	0.916000	0.103200
O1551	O155	0.936300	0.859800	0.078900
O1561	O156	0.848300	0.823300	0.080300
O1571	O157	0.760000	0.782700	0.083100
O1581	O158	0.790700	0.741900	0.016300
O1591	O159	0.880600	0.781600	0.014300
O1601	O160	0.974400	0.818500	0.016600
O1611	O161	0.965500	0.758800	0.982900
O1621	O162	0.866000	0.716800	0.985600
O1631	O163	0.924900	0.729600	0.042500
O1641	O164	0.942800	0.789800	0.073700
O1651	O165	0.843600	0.750600	0.078000
O1661	O166	0.882200	0.787500	0.130800
O1671	O167	0.889200	0.857800	0.138300
O1681	O168	0.786300	0.815700	0.141500
O1691	O169	0.800500	0.878700	0.168000
O1701	O170	0.811800	0.940100	0.134700
O1711	O171	0.713400	0.902900	0.135100
O1721	O172	0.722500	0.971800	0.132300
N251	N25	0.152700	0.930600	0.893000
H851	H85	0.142900	0.949500	0.887300
N261	N26	0.190100	0.917900	0.874200
N271	N27	0.158700	0.793400	0.947100
H861	H86	0.169500	0.778200	0.961500
N281	N28	0.117900	0.787100	0.926600
N291	N29	0.055900	0.688200	0.908900
N301	N30	0.012100	0.680600	0.927800
H871	H87	0.001500	0.691600	0.945600
C611	C61	0.988900	0.651500	0.912000
C621	C62	0.018300	0.641200	0.883400
C631	C63	0.059700	0.663900	0.881500
N311	N31	0.812500	0.758400	0.766100
H881	H88	0.793000	0.770300	0.779000
N321	N32	0.821700	0.723300	0.769700
N331	N33	0.565000	0.944200	0.478200
N341	N34	0.609400	0.929700	0.473200
H891	H89	0.630800	0.937300	0.458600
N351	N35	0.560000	0.850500	0.595900
N361	N36	0.527200	0.837100	0.573500
H901	H90	0.509000	0.819700	0.579200
N371	N37	0.565900	0.762600	0.691900
H911	H91	0.537600	0.758400	0.682500
N381	N38	0.595100	0.793200	0.684900
N391	N39	0.715400	0.721400	0.784400
N401	N40	0.689000	0.742600	0.807900
H921	H92	0.694600	0.744200	0.829700
N411	N41	0.750700	0.677300	0.880400
H931	H93	0.779100	0.685900	0.885700
N421	N42	0.733300	0.676300	0.847900
C641	C64	0.093400	0.912700	0.932500
H941	H94	0.087000	0.937200	0.933900
H951	H95	0.101100	0.903900	0.955100
H961	H96	0.064600	0.901000	0.923700
C651	C65	0.130800	0.907100	0.911800
C661	C66	0.158400	0.873500	0.904100
C671	C67	0.194300	0.886600	0.879600
C681	C68	0.232000	0.858300	0.864700
H971	H97	0.259000	0.855200	0.880500
H981	H98	0.244600	0.866000	0.842800
H991	H99	0.215100	0.836500	0.861700
C691	C69	0.225300	0.832700	0.963800
H1001	H100	0.242300	0.812100	0.971300
H1011	H101	0.216100	0.846400	0.983500
H1021	H102	0.246800	0.846100	0.949100
C701	C70	0.178900	0.822400	0.943700
C711	C71	0.149000	0.840200	0.920400
C721	C72	0.112200	0.818600	0.910500
C731	C73	0.071200	0.826900	0.885100
H1031	H103	0.063600	0.806500	0.871800
H1041	H104	0.081800	0.845200	0.869900
H1051	H105	0.042300	0.834300	0.897500
C741	C74	0.943600	0.638200	0.927500
H1061	H106	0.951700	0.620300	0.943900
H1071	H107	0.922700	0.628800	0.909800
H1081	H108	0.926700	0.656800	0.939100
C751	C75	0.101000	0.659500	0.859000
H1091	H109	0.093000	0.668500	0.836600
H1101	H110	0.108800	0.635200	0.857200
H1111	H111	0.129000	0.671800	0.868100
C761	C76	0.027200	0.561800	0.909200
H1121	H112	0.058700	0.571100	0.916000
H1131	H113	0.029000	0.536800	0.908500
H1141	H114	0.002400	0.568700	0.925600
C771	C77	0.997500	0.613000	0.830400
C781	C78	0.011400	0.610800	0.865700
C791	C79	0.013900	0.575000	0.874800
N431	N43	0.001600	0.555200	0.845100
N441	N44	0.991500	0.578600	0.817700
H1151	H115	0.983100	0.573000	0.797000
C801	C80	0.990000	0.644400	0.802700
H1161	H116	0.966000	0.660700	0.811500
H1171	H117	0.978100	0.635000	0.781300
H1181	H118	0.020800	0.656100	0.799000
C811	C81	0.978000	0.739500	0.711900
H1191	H119	0.981800	0.762100	0.722000
H1201	H120	0.007800	0.732500	0.700800
H1211	H121	0.969400	0.723000	0.729600
C821	C82	0.886900	0.745700	0.690200
C831	C83	0.866700	0.748300	0.656400
N451	N45	0.906100	0.744900	0.632400
N461	N46	0.950600	0.740100	0.651300
H1221	H122	0.979700	0.737400	0.642700
C841	C84	0.938700	0.740600	0.687000
C851	C85	0.818700	0.750700	0.651000
H1231	H123	0.802500	0.730600	0.660400
H1241	H124	0.812400	0.752000	0.626700
H1251	H125	0.806100	0.771200	0.662100
C861	C86	0.827300	0.808900	0.728700
H1261	H126	0.792600	0.811700	0.724200
H1271	H127	0.845700	0.814000	0.708100
H1281	H128	0.837100	0.824600	0.746800
C871	C87	0.837800	0.771100	0.740100
C881	C88	0.861000	0.748400	0.723500
C891	C89	0.852900	0.714800	0.742200
C901	C90	0.872200	0.677900	0.738700
H1291	H129	0.854800	0.663000	0.754400
H1301	H130	0.906900	0.677500	0.743900
H1311	H131	0.867000	0.669900	0.715500
C911	C91	0.489700	0.936000	0.512300
H1321	H132	0.480800	0.958500	0.503300
H1331	H133	0.485700	0.936000	0.536900
H1341	H134	0.468700	0.918600	0.502300
C921	C92	0.541600	0.928500	0.503600
C931	C93	0.571300	0.900800	0.515200
C941	C94	0.616500	0.902600	0.493400
C951	C95	0.662200	0.881800	0.495200
H1351	H135	0.656800	0.859700	0.484300
H1361	H136	0.671100	0.878300	0.518900
H1371	H137	0.688400	0.893900	0.483500
C961	C96	0.623800	0.894900	0.590000
H1381	H138	0.613900	0.905800	0.611200
H1391	H139	0.634500	0.912300	0.574000
H1401	H140	0.650500	0.879000	0.594500
C971	C97	0.584100	0.876700	0.576200
C981	C98	0.562600	0.875100	0.539700
C991	C99	0.523700	0.850800	0.543600
C1001	C100	0.492600	0.839400	0.514700
H1411	H141	0.478600	0.817000	0.519900
H1421	H142	0.512400	0.837800	0.494200
H1431	H143	0.466500	0.855900	0.511100
C1011	C101	0.674900	0.811700	0.708200
H1441	H144	0.684500	0.817400	0.685000
H1451	H145	0.701000	0.798900	0.719200
H1461	H146	0.668800	0.832700	0.720900
C1021	C102	0.630700	0.791000	0.707500
C1031	C103	0.623300	0.761200	0.728900
C1041	C104	0.587000	0.742200	0.714000
C1051	C105	0.560600	0.708100	0.725100
H1471	H147	0.529900	0.713700	0.736300
H1481	H148	0.581400	0.695500	0.740800
H1491	H149	0.554200	0.694100	0.705100
C1061	C106	0.719900	0.707800	0.724200
H1501	H150	0.752500	0.699600	0.730000
H1511	H151	0.722000	0.723600	0.705100
H1521	H152	0.699400	0.688400	0.717900
C1071	C107	0.697800	0.726100	0.754800
C1081	C108	0.659000	0.752100	0.754900
C1091	C109	0.652100	0.760600	0.789700
C1101	C110	0.623500	0.784000	0.804600
H1531	H153	0.590900	0.782900	0.794800
H1541	H154	0.637100	0.806800	0.801000
H1551	H155	0.621700	0.779300	0.829000
C1111	C111	0.653400	0.658000	0.822300
H1561	H156	0.629600	0.676500	0.822900
H1571	H157	0.636600	0.636000	0.822700
H1581	H158	0.672800	0.659800	0.801600
C1121	C112	0.686300	0.660700	0.852800
C1131	C113	0.677700	0.652900	0.886200
C1141	C114	0.719300	0.663500	0.904400
C1151	C115	0.731100	0.658700	0.943800
H1591	H159	0.764300	0.650200	0.946400
H1601	H160	0.708300	0.642300	0.953600
H1611	H161	0.727900	0.680700	0.955400
C1161	C116	0.598900	0.683700	0.946800
H1621	H162	0.581800	0.699900	0.932300
H1631	H163	0.631200	0.692700	0.952300
H1641	H164	0.580500	0.680300	0.967700
C1171	C117	0.625500	0.600500	0.895600
N471	N47	0.586000	0.591000	0.917900
N481	N48	0.572900	0.620600	0.937700
H1651	H165	0.550000	0.621600	0.953100
C1181	C118	0.604300	0.648500	0.927700
C1191	C119	0.636800	0.636000	0.901700
C1201	C120	0.647000	0.575000	0.872300
H1661	H166	0.645200	0.552300	0.882500
H1671	H167	0.681000	0.580900	0.868000
H1681	H168	0.629000	0.575100	0.850900
O1731	O173	0.818600	0.889500	0.981400
K41	K4	0.850300	0.901200	0.982000
O1741	O174	0.772000	0.870400	0.986400
W611	W61	0.175120	0.568100	0.144760
W621	W62	0.272770	0.515280	0.142830
W631	W63	0.342510	0.595450	0.174220
W641	W64	0.245040	0.648610	0.175320
W651	W65	0.312150	0.725900	0.138900
W661	W66	0.412070	0.676890	0.149890
W671	W67	0.423160	0.599410	0.096530
W681	W68	0.204770	0.687330	0.094000
W691	W69	0.137810	0.608940	0.061730
W701	W70	0.354220	0.519820	0.067920
W711	W71	0.237840	0.468830	0.060840
W721	W72	0.132890	0.514870	0.068400
W731	W73	0.133220	0.513740	0.970090
W741	W74	0.237900	0.469070	0.962740
W751	W75	0.353890	0.516800	0.971220
W761	W76	0.140120	0.610100	0.965010
W771	W77	0.210660	0.689080	0.937260
W781	W78	0.422050	0.595650	0.940620
W791	W79	0.466060	0.646410	0.016800
W801	W80	0.249530	0.737020	0.016690
W811	W81	0.356080	0.775220	0.060100
W821	W82	0.456640	0.726090	0.070220
W831	W83	0.462380	0.730380	0.973380
W841	W84	0.353560	0.770930	0.963910
W851	W85	0.314510	0.719400	0.885210
W861	W86	0.423990	0.679680	0.893670
W871	W87	0.355760	0.602380	0.858880
W881	W88	0.244670	0.639580	0.858740
W891	W89	0.175070	0.559830	0.889610
W901	W90	0.285810	0.522320	0.888310
Co91	Co9	0.541720	0.546280	0.923830
Co101	Co10	0.588700	0.762560	0.080710
Co111	Co11	0.277190	0.804310	0.193120
Co121	Co12	0.078240	0.676440	0.359030
K51	K5	0.241700	0.643930	0.015190
P111	P11	0.315100	0.644930	0.102800
P121	P12	0.240800	0.558780	0.068900
P131	P13	0.244100	0.558540	0.963600
P141	P14	0.319100	0.644420	0.930800
P151	P15	0.363800	0.698030	0.017000
O1751	O175	0.292400	0.622000	0.199900
O1761	O176	0.303200	0.556800	0.169300
O1771	O177	0.208700	0.601800	0.167600
O1781	O178	0.213700	0.529700	0.165000
O1791	O179	0.145600	0.527800	0.111400
O1801	O180	0.244900	0.484900	0.112300
O1811	O181	0.329400	0.520600	0.113900
O1821	O182	0.239400	0.558300	0.109500
O1831	O183	0.149400	0.597200	0.110200
O1841	O184	0.206700	0.662500	0.136000
O1851	O185	0.296800	0.625600	0.135300
O1861	O186	0.386800	0.587100	0.139300
O1871	O187	0.378900	0.644200	0.174300
O1881	O188	0.282100	0.688500	0.171900
O1891	O189	0.289100	0.759200	0.164900
O1901	O190	0.372300	0.715800	0.163500
O1911	O191	0.434400	0.643300	0.117300
O1921	O192	0.342400	0.678800	0.115100
O1931	O193	0.255200	0.716400	0.114100
O1941	O194	0.270000	0.655100	0.080600
O1951	O195	0.350500	0.622700	0.080500
O1961	O196	0.390900	0.560500	0.072000
O1971	O197	0.173100	0.652500	0.067700
O1981	O198	0.215300	0.590700	0.054900
O1991	O199	0.294600	0.556400	0.056800
O2001	O200	0.399600	0.489100	0.076900
O2011	O201	0.302900	0.486300	0.058300
O2021	O202	0.213400	0.524600	0.058000
O2031	O203	0.121900	0.560900	0.055700
O2041	O204	0.166700	0.470300	0.071100
O2051	O205	0.229000	0.465200	0.014100
O2061	O206	0.132100	0.506300	0.016100
O2071	O207	0.142500	0.618400	0.015100
O2081	O208	0.363000	0.522400	0.019600
O2091	O209	0.444600	0.615000	0.052800
O2101	O210	0.222100	0.707300	0.050600
O2111	O211	0.340800	0.751700	0.106600
O2121	O212	0.436800	0.710800	0.112500
O2131	O213	0.515100	0.741700	0.084100
O2141	O214	0.424400	0.771800	0.075000
O2151	O215	0.290700	0.758000	0.050800
O2161	O216	0.381600	0.719600	0.050200
O2171	O217	0.472500	0.681300	0.050500
O2181	O218	0.387100	0.662300	0.017500
O2191	O219	0.305800	0.696000	0.016600
O2201	O220	0.221900	0.706900	0.982000
O2211	O221	0.441600	0.615300	0.984000
O2221	O222	0.479900	0.575500	0.932500
O2231	O223	0.352700	0.621600	0.953200
O2241	O224	0.275000	0.656500	0.951600
O2251	O225	0.158600	0.715000	0.927800
O2261	O226	0.176400	0.652600	0.962100
O2271	O227	0.393700	0.560100	0.966600
O2281	O228	0.295900	0.556600	0.978800
O2291	O229	0.218400	0.591500	0.976900
O2301	O230	0.126000	0.562000	0.974300
O2311	O231	0.214900	0.525800	0.975600
O2321	O232	0.304300	0.484000	0.979200
O2331	O233	0.168400	0.470900	0.958500
O2341	O234	0.149700	0.527700	0.920400
O2351	O235	0.252100	0.486900	0.921200
O2361	O236	0.335500	0.520200	0.922600
O2371	O237	0.246300	0.558200	0.922400
O2381	O238	0.153400	0.596100	0.920100
O2391	O239	0.211800	0.661600	0.895900
O2401	O240	0.303200	0.624900	0.898000
O2411	O241	0.389300	0.584000	0.896800
O2421	O242	0.436300	0.640200	0.921100
O2431	O243	0.348300	0.676700	0.919700
O2441	O244	0.260000	0.717300	0.916900
O2451	O245	0.290700	0.758100	0.983700
O2461	O246	0.380600	0.718400	0.985700
O2471	O247	0.474400	0.681500	0.983400
O2481	O248	0.465500	0.741200	0.017100
O2491	O249	0.366000	0.783200	0.014400
O2501	O250	0.424900	0.770400	0.957500
O2511	O251	0.442800	0.710200	0.926300
O2521	O252	0.343600	0.749400	0.922000
O2531	O253	0.382200	0.712500	0.869200
O2541	O254	0.389200	0.642200	0.861700
O2551	O255	0.286300	0.684300	0.858500
O2561	O256	0.300500	0.621300	0.832000
O2571	O257	0.311800	0.559900	0.865300
O2581	O258	0.213400	0.597100	0.864900
O2591	O259	0.222500	0.528200	0.867700
N491	N49	0.652700	0.569400	0.107000
H1691	H169	0.642900	0.550500	0.112700
N501	N50	0.690100	0.582100	0.125800
N511	N51	0.658700	0.706600	0.052900
H1701	H170	0.669500	0.721800	0.038500
N521	N52	0.617900	0.712900	0.073400
N531	N53	0.555900	0.811800	0.091100
N541	N54	0.512100	0.819400	0.072200
H1711	H171	0.501500	0.808400	0.054400
C1211	C121	0.488900	0.848500	0.088000
C1221	C122	0.518300	0.858800	0.116600
C1231	C123	0.559700	0.836100	0.118500
N551	N55	0.312500	0.741600	0.233900
H1721	H172	0.293000	0.729700	0.221000
N561	N56	0.321700	0.776700	0.230300
N571	N57	0.065000	0.555800	0.521800
N581	N58	0.109400	0.570300	0.526800
H1731	H173	0.130800	0.562700	0.541400
N591	N59	0.060000	0.649500	0.404100
N601	N60	0.027200	0.662900	0.426500
H1741	H174	0.009000	0.680300	0.420800
N611	N61	0.065900	0.737400	0.308100
H1751	H175	0.037600	0.741600	0.317500
N621	N62	0.095100	0.706800	0.315100
N631	N63	0.215400	0.778600	0.215600
N641	N64	0.189000	0.757400	0.192100
H1761	H176	0.194600	0.755800	0.170300
N651	N65	0.250700	0.822700	0.119600
H1771	H177	0.279100	0.814100	0.114300
N661	N66	0.233300	0.823700	0.152100
C1241	C124	0.593400	0.587300	0.067500
H1781	H178	0.587000	0.562800	0.066100
H1791	H179	0.601100	0.596100	0.044900
H1801	H180	0.564600	0.599000	0.076300
C1251	C125	0.630800	0.592900	0.088200
C1261	C126	0.658400	0.626500	0.095900
C1271	C127	0.694300	0.613400	0.120400
C1281	C128	0.732000	0.641700	0.135300
H1811	H181	0.759000	0.644800	0.119500
H1821	H182	0.744600	0.634000	0.157200
H1831	H183	0.715100	0.663500	0.138300
C1291	C129	0.725300	0.667300	0.036200
H1841	H184	0.742300	0.687900	0.028700
H1851	H185	0.716100	0.653600	0.016500
H1861	H186	0.746800	0.653900	0.050900
C1301	C130	0.678900	0.677600	0.056300
C1311	C131	0.649000	0.659800	0.079600
C1321	C132	0.612200	0.681400	0.089500
C1331	C133	0.571200	0.673100	0.114900
H1871	H187	0.563600	0.693500	0.128200
H1881	H188	0.581800	0.654800	0.130100
H1891	H189	0.542300	0.665700	0.102500
C1341	C134	0.443600	0.861800	0.072500
H1901	H190	0.451700	0.879700	0.056100
H1911	H191	0.422700	0.871200	0.090200
H1921	H192	0.426700	0.843200	0.060900
C1351	C135	0.601000	0.840500	0.141000
H1931	H193	0.593000	0.831500	0.163400
H1941	H194	0.608800	0.864800	0.142800
H1951	H195	0.629000	0.828200	0.131900
C1361	C136	0.527200	0.938200	0.090800
H1961	H196	0.558700	0.928900	0.084000
H1971	H197	0.529000	0.963200	0.091500
H1981	H198	0.502400	0.931300	0.074400
C1371	C137	0.497500	0.887000	0.169600
C1381	C138	0.511400	0.889200	0.134300
C1391	C139	0.513900	0.925000	0.125200
N671	N67	0.501600	0.944800	0.154900
N681	N68	0.491500	0.921400	0.182300
H1991	H199	0.483100	0.927000	0.203000
C1401	C140	0.490000	0.855600	0.197300
H2001	H200	0.466000	0.839300	0.188500
H2011	H201	0.478100	0.865000	0.218700
H2021	H202	0.520800	0.843900	0.201000
C1411	C141	0.478000	0.760500	0.288100
H2031	H203	0.481800	0.737900	0.278000
H2041	H204	0.507800	0.767500	0.299200
H2051	H205	0.469400	0.777000	0.270400
C1421	C142	0.386900	0.754300	0.309800
C1431	C143	0.366700	0.751700	0.343600
N691	N69	0.406100	0.755100	0.367600
N701	N70	0.450600	0.759900	0.348700
H2061	H206	0.479700	0.762600	0.357300
C1441	C144	0.438700	0.759400	0.313000
C1451	C145	0.318700	0.749300	0.349000
H2071	H207	0.302500	0.769400	0.339600
H2081	H208	0.312400	0.748000	0.373300
H2091	H209	0.306100	0.728800	0.337900
C1461	C146	0.327300	0.691100	0.271300
H2101	H210	0.292600	0.688300	0.275800
H2111	H211	0.345700	0.686000	0.291900
H2121	H212	0.337100	0.675400	0.253200
C1471	C147	0.337800	0.728900	0.259900
C1481	C148	0.361000	0.751600	0.276500
C1491	C149	0.352900	0.785200	0.257800
C1501	C150	0.372200	0.822100	0.261300
H2131	H213	0.354800	0.837000	0.245600
H2141	H214	0.406900	0.822500	0.256100
H2151	H215	0.367000	0.830100	0.284500
C1511	C151	0.989700	0.564000	0.487700
H2161	H216	0.980800	0.541500	0.496700
H2171	H217	0.985700	0.564000	0.463100
H2181	H218	0.968700	0.581400	0.497700
C1521	C152	0.041600	0.571500	0.496400
C1531	C153	0.071300	0.599200	0.484800
C1541	C154	0.116500	0.597400	0.506600
C1551	C155	0.162200	0.618200	0.504800
H2191	H219	0.156800	0.640300	0.515700
H2201	H220	0.171100	0.621700	0.481100
H2211	H221	0.188400	0.606100	0.516500
C1561	C156	0.123800	0.605100	0.410000
H2221	H222	0.113900	0.594200	0.388800
H2231	H223	0.134500	0.587700	0.426000
H2241	H224	0.150500	0.621000	0.405500
C1571	C157	0.084100	0.623300	0.423800
C1581	C158	0.062600	0.624900	0.460300
C1591	C159	0.023700	0.649200	0.456400
C1601	C160	0.992600	0.660600	0.485300
H2251	H225	0.978600	0.683000	0.480100
H2261	H226	0.012400	0.662200	0.505800
H2271	H227	0.966500	0.644100	0.488900
C1611	C161	0.174900	0.688300	0.291800
H2281	H228	0.184500	0.682600	0.315000
H2291	H229	0.201000	0.701100	0.280800
H2301	H230	0.168800	0.667300	0.279100
C1621	C162	0.130700	0.709000	0.292500
C1631	C163	0.123300	0.738800	0.271100
C1641	C164	0.087000	0.757800	0.286000
C1651	C165	0.060600	0.791900	0.274900
H2311	H231	0.029900	0.786300	0.263700
H2321	H232	0.081400	0.804500	0.259200
H2331	H233	0.054200	0.805900	0.294900
C1661	C166	0.219900	0.792200	0.275800
H2341	H234	0.252500	0.800400	0.270000
H2351	H235	0.222000	0.776400	0.294900
H2361	H236	0.199400	0.811600	0.282100
C1671	C167	0.197800	0.773900	0.245200
C1681	C168	0.159000	0.747900	0.245100
C1691	C169	0.152100	0.739400	0.210300
C1701	C170	0.123500	0.716000	0.195400
H2371	H237	0.090900	0.717100	0.205200
H2381	H238	0.137100	0.693200	0.199000
H2391	H239	0.121700	0.720700	0.171000
C1711	C171	0.153400	0.842000	0.177700
H2401	H240	0.129600	0.823500	0.177100
H2411	H241	0.136600	0.864000	0.177300
H2421	H242	0.172800	0.840200	0.198400
C1721	C172	0.186300	0.839300	0.147200
C1731	C173	0.177700	0.847100	0.113800
C1741	C174	0.219300	0.836500	0.095600
C1751	C175	0.231100	0.841300	0.056200
H2431	H243	0.264300	0.849800	0.053600
H2441	H244	0.208300	0.857700	0.046400
H2451	H245	0.227900	0.819300	0.044600
C1761	C176	0.098900	0.816300	0.053200
H2461	H246	0.081800	0.800100	0.067700
H2471	H247	0.131200	0.807300	0.047700
H2481	H248	0.080500	0.819700	0.032300
C1771	C177	0.125500	0.899500	0.104400
N711	N71	0.086000	0.909000	0.082100
N721	N72	0.072900	0.879400	0.062300
H2491	H249	0.050000	0.878400	0.046900
C1781	C178	0.104300	0.851500	0.072300
C1791	C179	0.136800	0.864000	0.098300
C1801	C180	0.147000	0.925000	0.127700
H2501	H250	0.145200	0.947700	0.117500
H2511	H251	0.181000	0.919100	0.132000
H2521	H252	0.129000	0.924900	0.149100
O2601	O260	0.318600	0.610500	0.018600
K61	K6	0.350300	0.598800	0.018000
O2611	O261	0.272000	0.629600	0.013600
W911	W91	0.324880	0.931900	0.644760
W921	W92	0.227230	0.984720	0.642830
W931	W93	0.157490	0.904550	0.674220
W941	W94	0.254960	0.851390	0.675320
W951	W95	0.187850	0.774100	0.638900
W961	W96	0.087930	0.823110	0.649890
W971	W97	0.076840	0.900590	0.596530
W981	W98	0.295230	0.812670	0.594000
W991	W99	0.362190	0.891060	0.561730
W1001	W100	0.145780	0.980180	0.567920
W1011	W101	0.262160	0.031170	0.560840
W1021	W102	0.367110	0.985130	0.568400
W1031	W103	0.366780	0.986260	0.470090
W1041	W104	0.262100	0.030930	0.462740
W1051	W105	0.146110	0.983200	0.471220
W1061	W106	0.359880	0.889900	0.465010
W1071	W107	0.289340	0.810920	0.437260
W1081	W108	0.077950	0.904350	0.440620
W1091	W109	0.033940	0.853590	0.516800
W1101	W110	0.250470	0.762980	0.516690
W1111	W111	0.143920	0.724780	0.560100
W1121	W112	0.043360	0.773910	0.570220
W1131	W113	0.037620	0.769620	0.473380
W1141	W114	0.146440	0.729070	0.463910
W1151	W115	0.185490	0.780600	0.385210
W1161	W116	0.076010	0.820320	0.393670
W1171	W117	0.144240	0.897620	0.358880
W1181	W118	0.255330	0.860420	0.358740
W1191	W119	0.324930	0.940170	0.389610
W1201	W120	0.214190	0.977680	0.388310
Co131	Co13	0.958280	0.953720	0.423830
Co141	Co14	0.911300	0.737440	0.580710
Co151	Co15	0.222810	0.695690	0.693120
Co161	Co16	0.421760	0.823560	0.859030
K71	K7	0.258300	0.856070	0.515190
P161	P16	0.184900	0.855070	0.602800
P171	P17	0.259200	0.941220	0.568900
P181	P18	0.255900	0.941460	0.463600
P191	P19	0.180900	0.855580	0.430800
P201	P20	0.136200	0.801970	0.517000
O2621	O262	0.207600	0.878000	0.699900
O2631	O263	0.196800	0.943200	0.669300
O2641	O264	0.291300	0.898200	0.667600
O2651	O265	0.286300	0.970300	0.665000
O2661	O266	0.354400	0.972200	0.611400
O2671	O267	0.255100	0.015100	0.612300
O2681	O268	0.170600	0.979400	0.613900
O2691	O269	0.260600	0.941700	0.609500
O2701	O270	0.350600	0.902800	0.610200
O2711	O271	0.293300	0.837500	0.636000
O2721	O272	0.203200	0.874400	0.635300
O2731	O273	0.113200	0.912900	0.639300
O2741	O274	0.121100	0.855800	0.674300
O2751	O275	0.217900	0.811500	0.671900
O2761	O276	0.210900	0.740800	0.664900
O2771	O277	0.127700	0.784200	0.663500
O2781	O278	0.065600	0.856700	0.617300
O2791	O279	0.157600	0.821200	0.615100
O2801	O280	0.244800	0.783600	0.614100
O2811	O281	0.230000	0.844900	0.580600
O2821	O282	0.149500	0.877300	0.580500
O2831	O283	0.109100	0.939500	0.572000
O2841	O284	0.326900	0.847500	0.567700
O2851	O285	0.284700	0.909300	0.554900
O2861	O286	0.205400	0.943600	0.556800
O2871	O287	0.100400	0.010900	0.576900
O2881	O288	0.197100	0.013700	0.558300
O2891	O289	0.286600	0.975400	0.558000
O2901	O290	0.378100	0.939100	0.555700
O2911	O291	0.333300	0.029700	0.571100
O2921	O292	0.271000	0.034800	0.514100
O2931	O293	0.367900	0.993700	0.516100
O2941	O294	0.357500	0.881600	0.515100
O2951	O295	0.137000	0.977600	0.519600
O2961	O296	0.055400	0.885000	0.552800
O2971	O297	0.277900	0.792700	0.550600
O2981	O298	0.159200	0.748300	0.606600
O2991	O299	0.063200	0.789200	0.612500
O3001	O300	0.984900	0.758300	0.584100
O3011	O301	0.075600	0.728200	0.575000
O3021	O302	0.209300	0.742000	0.550800
O3031	O303	0.118400	0.780400	0.550200
O3041	O304	0.027500	0.818700	0.550500
O3051	O305	0.112900	0.837700	0.517500
O3061	O306	0.194200	0.804000	0.516600
O3071	O307	0.278100	0.793100	0.482000
O3081	O308	0.058400	0.884700	0.484000
O3091	O309	0.020100	0.924500	0.432500
O3101	O310	0.147300	0.878400	0.453200
O3111	O311	0.225000	0.843500	0.451600
O3121	O312	0.341400	0.785000	0.427800
O3131	O313	0.323600	0.847400	0.462100
O3141	O314	0.106300	0.939900	0.466600
O3151	O315	0.204100	0.943400	0.478800
O3161	O316	0.281600	0.908500	0.476900
O3171	O317	0.374000	0.938000	0.474300
O3181	O318	0.285100	0.974200	0.475600
O3191	O319	0.195700	0.016000	0.479200
O3201	O320	0.331600	0.029100	0.458500
O3211	O321	0.350300	0.972300	0.420400
O3221	O322	0.247900	0.013100	0.421200
O3231	O323	0.164500	0.979800	0.422600
O3241	O324	0.253700	0.941800	0.422400
O3251	O325	0.346600	0.903900	0.420100
O3261	O326	0.288200	0.838400	0.395900
O3271	O327	0.196800	0.875100	0.398000
O3281	O328	0.110700	0.916000	0.396800
O3291	O329	0.063700	0.859800	0.421100
O3301	O330	0.151700	0.823300	0.419700
O3311	O331	0.240000	0.782700	0.416900
O3321	O332	0.209300	0.741900	0.483700
O3331	O333	0.119400	0.781600	0.485700
O3341	O334	0.025600	0.818500	0.483400
O3351	O335	0.034500	0.758800	0.517100
O3361	O336	0.134000	0.716800	0.514400
O3371	O337	0.075100	0.729600	0.457500
O3381	O338	0.057200	0.789800	0.426300
O3391	O339	0.156400	0.750600	0.422000
O3401	O340	0.117800	0.787500	0.369200
O3411	O341	0.110800	0.857800	0.361700
O3421	O342	0.213700	0.815700	0.358500
O3431	O343	0.199500	0.878700	0.332000
O3441	O344	0.188200	0.940100	0.365300
O3451	O345	0.286600	0.902900	0.364900
O3461	O346	0.277500	0.971800	0.367700
N731	N73	0.847300	0.930600	0.607000
H2531	H253	0.857100	0.949500	0.612700
N741	N74	0.809900	0.917900	0.625800
N751	N75	0.841300	0.793400	0.552900
H2541	H254	0.830500	0.778200	0.538500
N761	N76	0.882100	0.787100	0.573400
N771	N77	0.944100	0.688200	0.591100
N781	N78	0.987900	0.680600	0.572200
H2551	H255	0.998500	0.691600	0.554400
C1811	C181	0.011100	0.651500	0.588000
C1821	C182	0.981700	0.641200	0.616600
C1831	C183	0.940300	0.663900	0.618500
N791	N79	0.187500	0.758400	0.733900
H2561	H256	0.207000	0.770300	0.721000
N801	N80	0.178300	0.723300	0.730300
N811	N81	0.435000	0.944200	0.021800
N821	N82	0.390600	0.929700	0.026800
H2571	H257	0.369200	0.937300	0.041400
N831	N83	0.440000	0.850500	0.904100
N841	N84	0.472800	0.837100	0.926500
H2581	H258	0.491000	0.819700	0.920800
N851	N85	0.434100	0.762600	0.808100
H2591	H259	0.462400	0.758400	0.817500
N861	N86	0.404900	0.793200	0.815100
N871	N87	0.284600	0.721400	0.715600
N881	N88	0.311000	0.742600	0.692100
H2601	H260	0.305400	0.744200	0.670300
N891	N89	0.249300	0.677300	0.619600
H2611	H261	0.220900	0.685900	0.614300
N901	N90	0.266700	0.676300	0.652100
C1841	C184	0.906600	0.912700	0.567500
H2621	H262	0.913000	0.937200	0.566100
H2631	H263	0.898900	0.903900	0.544900
H2641	H264	0.935400	0.901000	0.576300
C1851	C185	0.869200	0.907100	0.588200
C1861	C186	0.841600	0.873500	0.595900
C1871	C187	0.805700	0.886600	0.620400
C1881	C188	0.768000	0.858300	0.635300
H2651	H265	0.741000	0.855200	0.619500
H2661	H266	0.755400	0.866000	0.657200
H2671	H267	0.784900	0.836500	0.638300
C1891	C189	0.774700	0.832700	0.536200
H2681	H268	0.757700	0.812100	0.528700
H2691	H269	0.783900	0.846400	0.516500
H2701	H270	0.753200	0.846100	0.550900
C1901	C190	0.821100	0.822400	0.556300
C1911	C191	0.851000	0.840200	0.579600
C1921	C192	0.887800	0.818600	0.589500
C1931	C193	0.928800	0.826900	0.614900
H2711	H271	0.936400	0.806500	0.628200
H2721	H272	0.918200	0.845200	0.630100
H2731	H273	0.957700	0.834300	0.602500
C1941	C194	0.056400	0.638200	0.572500
H2741	H274	0.048300	0.620300	0.556100
H2751	H275	0.077300	0.628800	0.590200
H2761	H276	0.073300	0.656800	0.560900
C1951	C195	0.899000	0.659500	0.641000
H2771	H277	0.907000	0.668500	0.663400
H2781	H278	0.891200	0.635200	0.642800
H2791	H279	0.871000	0.671800	0.631900
C1961	C196	0.972800	0.561800	0.590800
H2801	H280	0.941300	0.571100	0.584000
H2811	H281	0.971000	0.536800	0.591500
H2821	H282	0.997600	0.568700	0.574400
C1971	C197	0.002500	0.613000	0.669600
C1981	C198	0.988600	0.610800	0.634300
C1991	C199	0.986100	0.575000	0.625200
N911	N91	0.998400	0.555200	0.654900
N921	N92	0.008500	0.578600	0.682300
H2831	H283	0.016900	0.573000	0.703000
C2001	C200	0.010000	0.644400	0.697300
H2841	H284	0.034000	0.660700	0.688500
H2851	H285	0.021900	0.635000	0.718700
H2861	H286	0.979200	0.656100	0.701000
C2011	C201	0.022000	0.739500	0.788100
H2871	H287	0.018200	0.762100	0.778000
H2881	H288	0.992200	0.732500	0.799200
H2891	H289	0.030600	0.723000	0.770400
C2021	C202	0.113100	0.745700	0.809800
C2031	C203	0.133300	0.748300	0.843600
N931	N93	0.093900	0.744900	0.867600
N941	N94	0.049400	0.740100	0.848700
H2901	H290	0.020300	0.737400	0.857300
C2041	C204	0.061300	0.740600	0.813000
C2051	C205	0.181300	0.750700	0.849000
H2911	H291	0.197500	0.730600	0.839600
H2921	H292	0.187600	0.752000	0.873300
H2931	H293	0.193900	0.771200	0.837900
C2061	C206	0.172700	0.808900	0.771300
H2941	H294	0.207400	0.811700	0.775800
H2951	H295	0.154300	0.814000	0.791900
H2961	H296	0.162900	0.824600	0.753200
C2071	C207	0.162200	0.771100	0.759900
C2081	C208	0.139000	0.748400	0.776500
C2091	C209	0.147100	0.714800	0.757800
C2101	C210	0.127800	0.677900	0.761300
H2971	H297	0.145200	0.663000	0.745600
H2981	H298	0.093100	0.677500	0.756100
H2991	H299	0.133000	0.669900	0.784500
C2111	C211	0.510300	0.936000	0.987700
H3001	H300	0.519200	0.958500	0.996700
H3011	H301	0.514300	0.936000	0.963100
H3021	H302	0.531300	0.918600	0.997700
C2121	C212	0.458400	0.928500	0.996400
C2131	C213	0.428700	0.900800	0.984800
C2141	C214	0.383500	0.902600	0.006600
C2151	C215	0.337800	0.881800	0.004800
H3031	H303	0.343200	0.859700	0.015700
H3041	H304	0.328900	0.878300	0.981100
H3051	H305	0.311600	0.893900	0.016500
C2161	C216	0.376200	0.894900	0.910000
H3061	H306	0.386100	0.905800	0.888800
H3071	H307	0.365500	0.912300	0.926000
H3081	H308	0.349500	0.879000	0.905500
C2171	C217	0.415900	0.876700	0.923800
C2181	C218	0.437400	0.875100	0.960300
C2191	C219	0.476300	0.850800	0.956400
C2201	C220	0.507400	0.839400	0.985300
H3091	H309	0.521400	0.817000	0.980100
H3101	H310	0.487600	0.837800	0.005800
H3111	H311	0.533500	0.855900	0.988900
C2211	C221	0.325100	0.811700	0.791800
H3121	H312	0.315500	0.817400	0.815000
H3131	H313	0.299000	0.798900	0.780800
H3141	H314	0.331200	0.832700	0.779100
C2221	C222	0.369300	0.791000	0.792500
C2231	C223	0.376700	0.761200	0.771100
C2241	C224	0.413000	0.742200	0.786000
C2251	C225	0.439400	0.708100	0.774900
H3151	H315	0.470100	0.713700	0.763700
H3161	H316	0.418600	0.695500	0.759200
H3171	H317	0.445800	0.694100	0.794900
C2261	C226	0.280100	0.707800	0.775800
H3181	H318	0.247500	0.699600	0.770000
H3191	H319	0.278000	0.723600	0.794900
H3201	H320	0.300600	0.688400	0.782100
C2271	C227	0.302200	0.726100	0.745200
C2281	C228	0.341000	0.752100	0.745100
C2291	C229	0.347900	0.760600	0.710300
C2301	C230	0.376500	0.784000	0.695400
H3211	H321	0.409100	0.782900	0.705200
H3221	H322	0.362900	0.806800	0.699000
H3231	H323	0.378300	0.779300	0.671000
C2311	C231	0.346600	0.658000	0.677700
H3241	H324	0.370400	0.676500	0.677100
H3251	H325	0.363400	0.636000	0.677300
H3261	H326	0.327200	0.659800	0.698400
C2321	C232	0.313700	0.660700	0.647200
C2331	C233	0.322300	0.652900	0.613800
C2341	C234	0.280700	0.663500	0.595600
C2351	C235	0.268900	0.658700	0.556200
H3271	H327	0.235700	0.650200	0.553600
H3281	H328	0.291700	0.642300	0.546400
H3291	H329	0.272100	0.680700	0.544600
C2361	C236	0.401100	0.683700	0.553200
H3301	H330	0.418200	0.699900	0.567700
H3311	H331	0.368800	0.692700	0.547700
H3321	H332	0.419500	0.680300	0.532300
C2371	C237	0.374500	0.600500	0.604400
N951	N95	0.414000	0.591000	0.582100
N961	N96	0.427100	0.620600	0.562300
H3331	H333	0.450000	0.621600	0.546900
C2381	C238	0.395700	0.648500	0.572300
C2391	C239	0.363200	0.636000	0.598300
C2401	C240	0.353000	0.575000	0.627700
H3341	H334	0.354800	0.552300	0.617500
H3351	H335	0.319000	0.580900	0.632000
H3361	H336	0.371000	0.575100	0.649100
O3471	O347	0.181400	0.889500	0.518600
K81	K8	0.149700	0.901200	0.518000
O3481	O348	0.228000	0.870400	0.513600
W1211	W121	0.175120	0.431900	0.644760
W1221	W122	0.272770	0.484720	0.642830
W1231	W123	0.342510	0.404550	0.674220
W1241	W124	0.245040	0.351390	0.675320
W1251	W125	0.312150	0.274100	0.638900
W1261	W126	0.412070	0.323110	0.649890
W1271	W127	0.423160	0.400590	0.596530
W1281	W128	0.204770	0.312670	0.594000
W1291	W129	0.137810	0.391060	0.561730
W1301	W130	0.354220	0.480180	0.567920
W1311	W131	0.237840	0.531170	0.560840
W1321	W132	0.132890	0.485130	0.568400
W1331	W133	0.133220	0.486260	0.470090
W1341	W134	0.237900	0.530930	0.462740
W1351	W135	0.353890	0.483200	0.471220
W1361	W136	0.140120	0.389900	0.465010
W1371	W137	0.210660	0.310920	0.437260
W1381	W138	0.422050	0.404350	0.440620
W1391	W139	0.466060	0.353590	0.516800
W1401	W140	0.249530	0.262980	0.516690
W1411	W141	0.356080	0.224780	0.560100
W1421	W142	0.456640	0.273910	0.570220
W1431	W143	0.462380	0.269620	0.473380
W1441	W144	0.353560	0.229070	0.463910
W1451	W145	0.314510	0.280600	0.385210
W1461	W146	0.423990	0.320320	0.393670
W1471	W147	0.355760	0.397620	0.358880
W1481	W148	0.244670	0.360420	0.358740
W1491	W149	0.175070	0.440170	0.389610
W1501	W150	0.285810	0.477680	0.388310
Co171	Co17	0.541720	0.453720	0.423830
Co181	Co18	0.588700	0.237440	0.580710
Co191	Co19	0.277190	0.195690	0.693120
Co201	Co20	0.078240	0.323560	0.859030
K91	K9	0.241700	0.356070	0.515190
P211	P21	0.315100	0.355070	0.602800
P221	P22	0.240800	0.441220	0.568900
P231	P23	0.244100	0.441460	0.463600
P241	P24	0.319100	0.355580	0.430800
P251	P25	0.363800	0.301970	0.517000
O3491	O349	0.292400	0.378000	0.699900
O3501	O350	0.303200	0.443200	0.669300
O3511	O351	0.208700	0.398200	0.667600
O3521	O352	0.213700	0.470300	0.665000
O3531	O353	0.145600	0.472200	0.611400
O3541	O354	0.244900	0.515100	0.612300
O3551	O355	0.329400	0.479400	0.613900
O3561	O356	0.239400	0.441700	0.609500
O3571	O357	0.149400	0.402800	0.610200
O3581	O358	0.206700	0.337500	0.636000
O3591	O359	0.296800	0.374400	0.635300
O3601	O360	0.386800	0.412900	0.639300
O3611	O361	0.378900	0.355800	0.674300
O3621	O362	0.282100	0.311500	0.671900
O3631	O363	0.289100	0.240800	0.664900
O3641	O364	0.372300	0.284200	0.663500
O3651	O365	0.434400	0.356700	0.617300
O3661	O366	0.342400	0.321200	0.615100
O3671	O367	0.255200	0.283600	0.614100
O3681	O368	0.270000	0.344900	0.580600
O3691	O369	0.350500	0.377300	0.580500
O3701	O370	0.390900	0.439500	0.572000
O3711	O371	0.173100	0.347500	0.567700
O3721	O372	0.215300	0.409300	0.554900
O3731	O373	0.294600	0.443600	0.556800
O3741	O374	0.399600	0.510900	0.576900
O3751	O375	0.302900	0.513700	0.558300
O3761	O376	0.213400	0.475400	0.558000
O3771	O377	0.121900	0.439100	0.555700
O3781	O378	0.166700	0.529700	0.571100
O3791	O379	0.229000	0.534800	0.514100
O3801	O380	0.132100	0.493700	0.516100
O3811	O381	0.142500	0.381600	0.515100
O3821	O382	0.363000	0.477600	0.519600
O3831	O383	0.444600	0.385000	0.552800
O3841	O384	0.222100	0.292700	0.550600
O3851	O385	0.340800	0.248300	0.606600
O3861	O386	0.436800	0.289200	0.612500
O3871	O387	0.515100	0.258300	0.584100
O3881	O388	0.424400	0.228200	0.575000
O3891	O389	0.290700	0.242000	0.550800
O3901	O390	0.381600	0.280400	0.550200
O3911	O391	0.472500	0.318700	0.550500
O3921	O392	0.387100	0.337700	0.517500
O3931	O393	0.305800	0.304000	0.516600
O3941	O394	0.221900	0.293100	0.482000
O3951	O395	0.441600	0.384700	0.484000
O3961	O396	0.479900	0.424500	0.432500
O3971	O397	0.352700	0.378400	0.453200
O3981	O398	0.275000	0.343500	0.451600
O3991	O399	0.158600	0.285000	0.427800
O4001	O400	0.176400	0.347400	0.462100
O4011	O401	0.393700	0.439900	0.466600
O4021	O402	0.295900	0.443400	0.478800
O4031	O403	0.218400	0.408500	0.476900
O4041	O404	0.126000	0.438000	0.474300
O4051	O405	0.214900	0.474200	0.475600
O4061	O406	0.304300	0.516000	0.479200
O4071	O407	0.168400	0.529100	0.458500
O4081	O408	0.149700	0.472300	0.420400
O4091	O409	0.252100	0.513100	0.421200
O4101	O410	0.335500	0.479800	0.422600
O4111	O411	0.246300	0.441800	0.422400
O4121	O412	0.153400	0.403900	0.420100
O4131	O413	0.211800	0.338400	0.395900
O4141	O414	0.303200	0.375100	0.398000
O4151	O415	0.389300	0.416000	0.396800
O4161	O416	0.436300	0.359800	0.421100
O4171	O417	0.348300	0.323300	0.419700
O4181	O418	0.260000	0.282700	0.416900
O4191	O419	0.290700	0.241900	0.483700
O4201	O420	0.380600	0.281600	0.485700
O4211	O421	0.474400	0.318500	0.483400
O4221	O422	0.465500	0.258800	0.517100
O4231	O423	0.366000	0.216800	0.514400
O4241	O424	0.424900	0.229600	0.457500
O4251	O425	0.442800	0.289800	0.426300
O4261	O426	0.343600	0.250600	0.422000
O4271	O427	0.382200	0.287500	0.369200
O4281	O428	0.389200	0.357800	0.361700
O4291	O429	0.286300	0.315700	0.358500
O4301	O430	0.300500	0.378700	0.332000
O4311	O431	0.311800	0.440100	0.365300
O4321	O432	0.213400	0.402900	0.364900
O4331	O433	0.222500	0.471800	0.367700
N971	N97	0.652700	0.430600	0.607000
H3371	H337	0.642900	0.449500	0.612700
N981	N98	0.690100	0.417900	0.625800
N991	N99	0.658700	0.293400	0.552900
H3381	H338	0.669500	0.278200	0.538500
N1001	N100	0.617900	0.287100	0.573400
N1011	N101	0.555900	0.188200	0.591100
N1021	N102	0.512100	0.180600	0.572200
H3391	H339	0.501500	0.191600	0.554400
C2411	C241	0.488900	0.151500	0.588000
C2421	C242	0.518300	0.141200	0.616600
C2431	C243	0.559700	0.163900	0.618500
N1031	N103	0.312500	0.258400	0.733900
H3401	H340	0.293000	0.270300	0.721000
N1041	N104	0.321700	0.223300	0.730300
N1051	N105	0.065000	0.444200	0.021800
N1061	N106	0.109400	0.429700	0.026800
H3411	H341	0.130800	0.437300	0.041400
N1071	N107	0.060000	0.350500	0.904100
N1081	N108	0.027200	0.337100	0.926500
H3421	H342	0.009000	0.319700	0.920800
N1091	N109	0.065900	0.262600	0.808100
H3431	H343	0.037600	0.258400	0.817500
N1101	N110	0.095100	0.293200	0.815100
N1111	N111	0.215400	0.221400	0.715600
N1121	N112	0.189000	0.242600	0.692100
H3441	H344	0.194600	0.244200	0.670300
N1131	N113	0.250700	0.177300	0.619600
H3451	H345	0.279100	0.185900	0.614300
N1141	N114	0.233300	0.176300	0.652100
C2441	C244	0.593400	0.412700	0.567500
H3461	H346	0.587000	0.437200	0.566100
H3471	H347	0.601100	0.403900	0.544900
H3481	H348	0.564600	0.401000	0.576300
C2451	C245	0.630800	0.407100	0.588200
C2461	C246	0.658400	0.373500	0.595900
C2471	C247	0.694300	0.386600	0.620400
C2481	C248	0.732000	0.358300	0.635300
H3491	H349	0.759000	0.355200	0.619500
H3501	H350	0.744600	0.366000	0.657200
H3511	H351	0.715100	0.336500	0.638300
C2491	C249	0.725300	0.332700	0.536200
H3521	H352	0.742300	0.312100	0.528700
H3531	H353	0.716100	0.346400	0.516500
H3541	H354	0.746800	0.346100	0.550900
C2501	C250	0.678900	0.322400	0.556300
C2511	C251	0.649000	0.340200	0.579600
C2521	C252	0.612200	0.318600	0.589500
C2531	C253	0.571200	0.326900	0.614900
H3551	H355	0.563600	0.306500	0.628200
H3561	H356	0.581800	0.345200	0.630100
H3571	H357	0.542300	0.334300	0.602500
C2541	C254	0.443600	0.138200	0.572500
H3581	H358	0.451700	0.120300	0.556100
H3591	H359	0.422700	0.128800	0.590200
H3601	H360	0.426700	0.156800	0.560900
C2551	C255	0.601000	0.159500	0.641000
H3611	H361	0.593000	0.168500	0.663400
H3621	H362	0.608800	0.135200	0.642800
H3631	H363	0.629000	0.171800	0.631900
C2561	C256	0.527200	0.061800	0.590800
H3641	H364	0.558700	0.071100	0.584000
H3651	H365	0.529000	0.036800	0.591500
H3661	H366	0.502400	0.068700	0.574400
C2571	C257	0.497500	0.113000	0.669600
C2581	C258	0.511400	0.110800	0.634300
C2591	C259	0.513900	0.075000	0.625200
N1151	N115	0.501600	0.055200	0.654900
N1161	N116	0.491500	0.078600	0.682300
H3671	H367	0.483100	0.073000	0.703000
C2601	C260	0.490000	0.144400	0.697300
H3681	H368	0.466000	0.160700	0.688500
H3691	H369	0.478100	0.135000	0.718700
H3701	H370	0.520800	0.156100	0.701000
C2611	C261	0.478000	0.239500	0.788100
H3711	H371	0.481800	0.262100	0.778000
H3721	H372	0.507800	0.232500	0.799200
H3731	H373	0.469400	0.223000	0.770400
C2621	C262	0.386900	0.245700	0.809800
C2631	C263	0.366700	0.248300	0.843600
N1171	N117	0.406100	0.244900	0.867600
N1181	N118	0.450600	0.240100	0.848700
H3741	H374	0.479700	0.237400	0.857300
C2641	C264	0.438700	0.240600	0.813000
C2651	C265	0.318700	0.250700	0.849000
H3751	H375	0.302500	0.230600	0.839600
H3761	H376	0.312400	0.252000	0.873300
H3771	H377	0.306100	0.271200	0.837900
C2661	C266	0.327300	0.308900	0.771300
H3781	H378	0.292600	0.311700	0.775800
H3791	H379	0.345700	0.314000	0.791900
H3801	H380	0.337100	0.324600	0.753200
C2671	C267	0.337800	0.271100	0.759900
C2681	C268	0.361000	0.248400	0.776500
C2691	C269	0.352900	0.214800	0.757800
C2701	C270	0.372200	0.177900	0.761300
H3811	H381	0.354800	0.163000	0.745600
H3821	H382	0.406900	0.177500	0.756100
H3831	H383	0.367000	0.169900	0.784500
C2711	C271	0.989700	0.436000	0.987700
H3841	H384	0.980800	0.458500	0.996700
H3851	H385	0.985700	0.436000	0.963100
H3861	H386	0.968700	0.418600	0.997700
C2721	C272	0.041600	0.428500	0.996400
C2731	C273	0.071300	0.400800	0.984800
C2741	C274	0.116500	0.402600	0.006600
C2751	C275	0.162200	0.381800	0.004800
H3871	H387	0.156800	0.359700	0.015700
H3881	H388	0.171100	0.378300	0.981100
H3891	H389	0.188400	0.393900	0.016500
C2761	C276	0.123800	0.394900	0.910000
H3901	H390	0.113900	0.405800	0.888800
H3911	H391	0.134500	0.412300	0.926000
H3921	H392	0.150500	0.379000	0.905500
C2771	C277	0.084100	0.376700	0.923800
C2781	C278	0.062600	0.375100	0.960300
C2791	C279	0.023700	0.350800	0.956400
C2801	C280	0.992600	0.339400	0.985300
H3931	H393	0.978600	0.317000	0.980100
H3941	H394	0.012400	0.337800	0.005800
H3951	H395	0.966500	0.355900	0.988900
C2811	C281	0.174900	0.311700	0.791800
H3961	H396	0.184500	0.317400	0.815000
H3971	H397	0.201000	0.298900	0.780800
H3981	H398	0.168800	0.332700	0.779100
C2821	C282	0.130700	0.291000	0.792500
C2831	C283	0.123300	0.261200	0.771100
C2841	C284	0.087000	0.242200	0.786000
C2851	C285	0.060600	0.208100	0.774900
H3991	H399	0.029900	0.213700	0.763700
H4001	H400	0.081400	0.195500	0.759200
H4011	H401	0.054200	0.194100	0.794900
C2861	C286	0.219900	0.207800	0.775800
H4021	H402	0.252500	0.199600	0.770000
H4031	H403	0.222000	0.223600	0.794900
H4041	H404	0.199400	0.188400	0.782100
C2871	C287	0.197800	0.226100	0.745200
C2881	C288	0.159000	0.252100	0.745100
C2891	C289	0.152100	0.260600	0.710300
C2901	C290	0.123500	0.284000	0.695400
H4051	H405	0.090900	0.282900	0.705200
H4061	H406	0.137100	0.306800	0.699000
H4071	H407	0.121700	0.279300	0.671000
C2911	C291	0.153400	0.158000	0.677700
H4081	H408	0.129600	0.176500	0.677100
H4091	H409	0.136600	0.136000	0.677300
H4101	H410	0.172800	0.159800	0.698400
C2921	C292	0.186300	0.160700	0.647200
C2931	C293	0.177700	0.152900	0.613800
C2941	C294	0.219300	0.163500	0.595600
C2951	C295	0.231100	0.158700	0.556200
H4111	H411	0.264300	0.150200	0.553600
H4121	H412	0.208300	0.142300	0.546400
H4131	H413	0.227900	0.180700	0.544600
C2961	C296	0.098900	0.183700	0.553200
H4141	H414	0.081800	0.199900	0.567700
H4151	H415	0.131200	0.192700	0.547700
H4161	H416	0.080500	0.180300	0.532300
C2971	C297	0.125500	0.100500	0.604400
N1191	N119	0.086000	0.091000	0.582100
N1201	N120	0.072900	0.120600	0.562300
H4171	H417	0.050000	0.121600	0.546900
C2981	C298	0.104300	0.148500	0.572300
C2991	C299	0.136800	0.136000	0.598300
C3001	C300	0.147000	0.075000	0.627700
H4181	H418	0.145200	0.052300	0.617500
H4191	H419	0.181000	0.080900	0.632000
H4201	H420	0.129000	0.075100	0.649100
O4341	O434	0.318600	0.389500	0.518600
K101	K10	0.350300	0.401200	0.518000
O4351	O435	0.272000	0.370400	0.513600
W1511	W151	0.324880	0.068100	0.144760
W1521	W152	0.227230	0.015280	0.142830
W1531	W153	0.157490	0.095450	0.174220
W1541	W154	0.254960	0.148610	0.175320
W1551	W155	0.187850	0.225900	0.138900
W1561	W156	0.087930	0.176890	0.149890
W1571	W157	0.076840	0.099410	0.096530
W1581	W158	0.295230	0.187330	0.094000
W1591	W159	0.362190	0.108940	0.061730
W1601	W160	0.145780	0.019820	0.067920
W1611	W161	0.262160	0.968830	0.060840
W1621	W162	0.367110	0.014870	0.068400
W1631	W163	0.366780	0.013740	0.970090
W1641	W164	0.262100	0.969070	0.962740
W1651	W165	0.146110	0.016800	0.971220
W1661	W166	0.359880	0.110100	0.965010
W1671	W167	0.289340	0.189080	0.937260
W1681	W168	0.077950	0.095650	0.940620
W1691	W169	0.033940	0.146410	0.016800
W1701	W170	0.250470	0.237020	0.016690
W1711	W171	0.143920	0.275220	0.060100
W1721	W172	0.043360	0.226090	0.070220
W1731	W173	0.037620	0.230380	0.973380
W1741	W174	0.146440	0.270930	0.963910
W1751	W175	0.185490	0.219400	0.885210
W1761	W176	0.076010	0.179680	0.893670
W1771	W177	0.144240	0.102380	0.858880
W1781	W178	0.255330	0.139580	0.858740
W1791	W179	0.324930	0.059830	0.889610
W1801	W180	0.214190	0.022320	0.888310
Co211	Co21	0.958280	0.046280	0.923830
Co221	Co22	0.911300	0.262560	0.080710
Co231	Co23	0.222810	0.304310	0.193120
Co241	Co24	0.421760	0.176440	0.359030
K111	K11	0.258300	0.143930	0.015190
P261	P26	0.184900	0.144930	0.102800
P271	P27	0.259200	0.058780	0.068900
P281	P28	0.255900	0.058540	0.963600
P291	P29	0.180900	0.144420	0.930800
P301	P30	0.136200	0.198030	0.017000
O4361	O436	0.207600	0.122000	0.199900
O4371	O437	0.196800	0.056800	0.169300
O4381	O438	0.291300	0.101800	0.167600
O4391	O439	0.286300	0.029700	0.165000
O4401	O440	0.354400	0.027800	0.111400
O4411	O441	0.255100	0.984900	0.112300
O4421	O442	0.170600	0.020600	0.113900
O4431	O443	0.260600	0.058300	0.109500
O4441	O444	0.350600	0.097200	0.110200
O4451	O445	0.293300	0.162500	0.136000
O4461	O446	0.203200	0.125600	0.135300
O4471	O447	0.113200	0.087100	0.139300
O4481	O448	0.121100	0.144200	0.174300
O4491	O449	0.217900	0.188500	0.171900
O4501	O450	0.210900	0.259200	0.164900
O4511	O451	0.127700	0.215800	0.163500
O4521	O452	0.065600	0.143300	0.117300
O4531	O453	0.157600	0.178800	0.115100
O4541	O454	0.244800	0.216400	0.114100
O4551	O455	0.230000	0.155100	0.080600
O4561	O456	0.149500	0.122700	0.080500
O4571	O457	0.109100	0.060500	0.072000
O4581	O458	0.326900	0.152500	0.067700
O4591	O459	0.284700	0.090700	0.054900
O4601	O460	0.205400	0.056400	0.056800
O4611	O461	0.100400	0.989100	0.076900
O4621	O462	0.197100	0.986300	0.058300
O4631	O463	0.286600	0.024600	0.058000
O4641	O464	0.378100	0.060900	0.055700
O4651	O465	0.333300	0.970300	0.071100
O4661	O466	0.271000	0.965200	0.014100
O4671	O467	0.367900	0.006300	0.016100
O4681	O468	0.357500	0.118400	0.015100
O4691	O469	0.137000	0.022400	0.019600
O4701	O470	0.055400	0.115000	0.052800
O4711	O471	0.277900	0.207300	0.050600
O4721	O472	0.159200	0.251700	0.106600
O4731	O473	0.063200	0.210800	0.112500
O4741	O474	0.984900	0.241700	0.084100
O4751	O475	0.075600	0.271800	0.075000
O4761	O476	0.209300	0.258000	0.050800
O4771	O477	0.118400	0.219600	0.050200
O4781	O478	0.027500	0.181300	0.050500
O4791	O479	0.112900	0.162300	0.017500
O4801	O480	0.194200	0.196000	0.016600
O4811	O481	0.278100	0.206900	0.982000
O4821	O482	0.058400	0.115300	0.984000
O4831	O483	0.020100	0.075500	0.932500
O4841	O484	0.147300	0.121600	0.953200
O4851	O485	0.225000	0.156500	0.951600
O4861	O486	0.341400	0.215000	0.927800
O4871	O487	0.323600	0.152600	0.962100
O4881	O488	0.106300	0.060100	0.966600
O4891	O489	0.204100	0.056600	0.978800
O4901	O490	0.281600	0.091500	0.976900
O4911	O491	0.374000	0.062000	0.974300
O4921	O492	0.285100	0.025800	0.975600
O4931	O493	0.195700	0.984000	0.979200
O4941	O494	0.331600	0.970900	0.958500
O4951	O495	0.350300	0.027700	0.920400
O4961	O496	0.247900	0.986900	0.921200
O4971	O497	0.164500	0.020200	0.922600
O4981	O498	0.253700	0.058200	0.922400
O4991	O499	0.346600	0.096100	0.920100
O5001	O500	0.288200	0.161600	0.895900
O5011	O501	0.196800	0.124900	0.898000
O5021	O502	0.110700	0.084000	0.896800
O5031	O503	0.063700	0.140200	0.921100
O5041	O504	0.151700	0.176700	0.919700
O5051	O505	0.240000	0.217300	0.916900
O5061	O506	0.209300	0.258100	0.983700
O5071	O507	0.119400	0.218400	0.985700
O5081	O508	0.025600	0.181500	0.983400
O5091	O509	0.034500	0.241200	0.017100
O5101	O510	0.134000	0.283200	0.014400
O5111	O511	0.075100	0.270400	0.957500
O5121	O512	0.057200	0.210200	0.926300
O5131	O513	0.156400	0.249400	0.922000
O5141	O514	0.117800	0.212500	0.869200
O5151	O515	0.110800	0.142200	0.861700
O5161	O516	0.213700	0.184300	0.858500
O5171	O517	0.199500	0.121300	0.832000
O5181	O518	0.188200	0.059900	0.865300
O5191	O519	0.286600	0.097100	0.864900
O5201	O520	0.277500	0.028200	0.867700
N1211	N121	0.847300	0.069400	0.107000
H4211	H421	0.857100	0.050500	0.112700
N1221	N122	0.809900	0.082100	0.125800
N1231	N123	0.841300	0.206600	0.052900
H4221	H422	0.830500	0.221800	0.038500
N1241	N124	0.882100	0.212900	0.073400
N1251	N125	0.944100	0.311800	0.091100
N1261	N126	0.987900	0.319400	0.072200
H4231	H423	0.998500	0.308400	0.054400
C3011	C301	0.011100	0.348500	0.088000
C3021	C302	0.981700	0.358800	0.116600
C3031	C303	0.940300	0.336100	0.118500
N1271	N127	0.187500	0.241600	0.233900
H4241	H424	0.207000	0.229700	0.221000
N1281	N128	0.178300	0.276700	0.230300
N1291	N129	0.435000	0.055800	0.521800
N1301	N130	0.390600	0.070300	0.526800
H4251	H425	0.369200	0.062700	0.541400
N1311	N131	0.440000	0.149500	0.404100
N1321	N132	0.472800	0.162900	0.426500
H4261	H426	0.491000	0.180300	0.420800
N1331	N133	0.434100	0.237400	0.308100
H4271	H427	0.462400	0.241600	0.317500
N1341	N134	0.404900	0.206800	0.315100
N1351	N135	0.284600	0.278600	0.215600
N1361	N136	0.311000	0.257400	0.192100
H4281	H428	0.305400	0.255800	0.170300
N1371	N137	0.249300	0.322700	0.119600
H4291	H429	0.220900	0.314100	0.114300
N1381	N138	0.266700	0.323700	0.152100
C3041	C304	0.906600	0.087300	0.067500
H4301	H430	0.913000	0.062800	0.066100
H4311	H431	0.898900	0.096100	0.044900
H4321	H432	0.935400	0.099000	0.076300
C3051	C305	0.869200	0.092900	0.088200
C3061	C306	0.841600	0.126500	0.095900
C3071	C307	0.805700	0.113400	0.120400
C3081	C308	0.768000	0.141700	0.135300
H4331	H433	0.741000	0.144800	0.119500
H4341	H434	0.755400	0.134000	0.157200
H4351	H435	0.784900	0.163500	0.138300
C3091	C309	0.774700	0.167300	0.036200
H4361	H436	0.757700	0.187900	0.028700
H4371	H437	0.783900	0.153600	0.016500
H4381	H438	0.753200	0.153900	0.050900
C3101	C310	0.821100	0.177600	0.056300
C3111	C311	0.851000	0.159800	0.079600
C3121	C312	0.887800	0.181400	0.089500
C3131	C313	0.928800	0.173100	0.114900
H4391	H439	0.936400	0.193500	0.128200
H4401	H440	0.918200	0.154800	0.130100
H4411	H441	0.957700	0.165700	0.102500
C3141	C314	0.056400	0.361800	0.072500
H4421	H442	0.048300	0.379700	0.056100
H4431	H443	0.077300	0.371200	0.090200
H4441	H444	0.073300	0.343200	0.060900
C3151	C315	0.899000	0.340500	0.141000
H4451	H445	0.907000	0.331500	0.163400
H4461	H446	0.891200	0.364800	0.142800
H4471	H447	0.871000	0.328200	0.131900
C3161	C316	0.972800	0.438200	0.090800
H4481	H448	0.941300	0.428900	0.084000
H4491	H449	0.971000	0.463200	0.091500
H4501	H450	0.997600	0.431300	0.074400
C3171	C317	0.002500	0.387000	0.169600
C3181	C318	0.988600	0.389200	0.134300
C3191	C319	0.986100	0.425000	0.125200
N1391	N139	0.998400	0.444800	0.154900
N1401	N140	0.008500	0.421400	0.182300
H4511	H451	0.016900	0.427000	0.203000
C3201	C320	0.010000	0.355600	0.197300
H4521	H452	0.034000	0.339300	0.188500
H4531	H453	0.021900	0.365000	0.218700
H4541	H454	0.979200	0.343900	0.201000
C3211	C321	0.022000	0.260500	0.288100
H4551	H455	0.018200	0.237900	0.278000
H4561	H456	0.992200	0.267500	0.299200
H4571	H457	0.030600	0.277000	0.270400
C3221	C322	0.113100	0.254300	0.309800
C3231	C323	0.133300	0.251700	0.343600
N1411	N141	0.093900	0.255100	0.367600
N1421	N142	0.049400	0.259900	0.348700
H4581	H458	0.020300	0.262600	0.357300
C3241	C324	0.061300	0.259400	0.313000
C3251	C325	0.181300	0.249300	0.349000
H4591	H459	0.197500	0.269400	0.339600
H4601	H460	0.187600	0.248000	0.373300
H4611	H461	0.193900	0.228800	0.337900
C3261	C326	0.172700	0.191100	0.271300
H4621	H462	0.207400	0.188300	0.275800
H4631	H463	0.154300	0.186000	0.291900
H4641	H464	0.162900	0.175400	0.253200
C3271	C327	0.162200	0.228900	0.259900
C3281	C328	0.139000	0.251600	0.276500
C3291	C329	0.147100	0.285200	0.257800
C3301	C330	0.127800	0.322100	0.261300
H4651	H465	0.145200	0.337000	0.245600
H4661	H466	0.093100	0.322500	0.256100
H4671	H467	0.133000	0.330100	0.284500
C3311	C331	0.510300	0.064000	0.487700
H4681	H468	0.519200	0.041500	0.496700
H4691	H469	0.514300	0.064000	0.463100
H4701	H470	0.531300	0.081400	0.497700
C3321	C332	0.458400	0.071500	0.496400
C3331	C333	0.428700	0.099200	0.484800
C3341	C334	0.383500	0.097400	0.506600
C3351	C335	0.337800	0.118200	0.504800
H4711	H471	0.343200	0.140300	0.515700
H4721	H472	0.328900	0.121700	0.481100
H4731	H473	0.311600	0.106100	0.516500
C3361	C336	0.376200	0.105100	0.410000
H4741	H474	0.386100	0.094200	0.388800
H4751	H475	0.365500	0.087700	0.426000
H4761	H476	0.349500	0.121000	0.405500
C3371	C337	0.415900	0.123300	0.423800
C3381	C338	0.437400	0.124900	0.460300
C3391	C339	0.476300	0.149200	0.456400
C3401	C340	0.507400	0.160600	0.485300
H4771	H477	0.521400	0.183000	0.480100
H4781	H478	0.487600	0.162200	0.505800
H4791	H479	0.533500	0.144100	0.488900
C3411	C341	0.325100	0.188300	0.291800
H4801	H480	0.315500	0.182600	0.315000
H4811	H481	0.299000	0.201100	0.280800
H4821	H482	0.331200	0.167300	0.279100
C3421	C342	0.369300	0.209000	0.292500
C3431	C343	0.376700	0.238800	0.271100
C3441	C344	0.413000	0.257800	0.286000
C3451	C345	0.439400	0.291900	0.274900
H4831	H483	0.470100	0.286300	0.263700
H4841	H484	0.418600	0.304500	0.259200
H4851	H485	0.445800	0.305900	0.294900
C3461	C346	0.280100	0.292200	0.275800
H4861	H486	0.247500	0.300400	0.270000
H4871	H487	0.278000	0.276400	0.294900
H4881	H488	0.300600	0.311600	0.282100
C3471	C347	0.302200	0.273900	0.245200
C3481	C348	0.341000	0.247900	0.245100
C3491	C349	0.347900	0.239400	0.210300
C3501	C350	0.376500	0.216000	0.195400
H4891	H489	0.409100	0.217100	0.205200
H4901	H490	0.362900	0.193200	0.199000
H4911	H491	0.378300	0.220700	0.171000
C3511	C351	0.346600	0.342000	0.177700
H4921	H492	0.370400	0.323500	0.177100
H4931	H493	0.363400	0.364000	0.177300
H4941	H494	0.327200	0.340200	0.198400
C3521	C352	0.313700	0.339300	0.147200
C3531	C353	0.322300	0.347100	0.113800
C3541	C354	0.280700	0.336500	0.095600
C3551	C355	0.268900	0.341300	0.056200
H4951	H495	0.235700	0.349800	0.053600
H4961	H496	0.291700	0.357700	0.046400
H4971	H497	0.272100	0.319300	0.044600
C3561	C356	0.401100	0.316300	0.053200
H4981	H498	0.418200	0.300100	0.067700
H4991	H499	0.368800	0.307300	0.047700
H5001	H500	0.419500	0.319700	0.032300
C3571	C357	0.374500	0.399500	0.104400
N1431	N143	0.414000	0.409000	0.082100
N1441	N144	0.427100	0.379400	0.062300
H5011	H501	0.450000	0.378400	0.046900
C3581	C358	0.395700	0.351500	0.072300
C3591	C359	0.363200	0.364000	0.098300
C3601	C360	0.353000	0.425000	0.127700
H5021	H502	0.354800	0.447700	0.117500
H5031	H503	0.319000	0.419100	0.132000
H5041	H504	0.371000	0.424900	0.149100
O5211	O521	0.181400	0.110500	0.018600
K121	K12	0.149700	0.098800	0.018000
O5221	O522	0.228000	0.129600	0.013600
W1811	W181	0.824880	0.431900	0.855240
W1821	W182	0.727230	0.484720	0.857170
W1831	W183	0.657490	0.404550	0.825780
W1841	W184	0.754960	0.351390	0.824680
W1851	W185	0.687850	0.274100	0.861100
W1861	W186	0.587930	0.323110	0.850110
W1871	W187	0.576840	0.400590	0.903470
W1881	W188	0.795230	0.312670	0.906000
W1891	W189	0.862190	0.391060	0.938270
W1901	W190	0.645780	0.480180	0.932080
W1911	W191	0.762160	0.531170	0.939160
W1921	W192	0.867110	0.485130	0.931600
W1931	W193	0.866780	0.486260	0.029910
W1941	W194	0.762100	0.530930	0.037260
W1951	W195	0.646110	0.483200	0.028780
W1961	W196	0.859880	0.389900	0.034990
W1971	W197	0.789340	0.310920	0.062740
W1981	W198	0.577950	0.404350	0.059380
W1991	W199	0.533940	0.353590	0.983200
W2001	W200	0.750470	0.262980	0.983310
W2011	W201	0.643920	0.224780	0.939900
W2021	W202	0.543360	0.273910	0.929780
W2031	W203	0.537620	0.269620	0.026620
W2041	W204	0.646440	0.229070	0.036090
W2051	W205	0.685490	0.280600	0.114790
W2061	W206	0.576010	0.320320	0.106330
W2071	W207	0.644240	0.397620	0.141120
W2081	W208	0.755330	0.360420	0.141260
W2091	W209	0.824930	0.440170	0.110390
W2101	W210	0.714190	0.477680	0.111690
Co251	Co25	0.458280	0.453720	0.076170
Co261	Co26	0.411300	0.237440	0.919290
Co271	Co27	0.722810	0.195690	0.806880
Co281	Co28	0.921760	0.323560	0.640970
K131	K13	0.758300	0.356070	0.984810
P311	P31	0.684900	0.355070	0.897200
P321	P32	0.759200	0.441220	0.931100
P331	P33	0.755900	0.441460	0.036400
P341	P34	0.680900	0.355580	0.069200
P351	P35	0.636200	0.301970	0.983000
O5231	O523	0.707600	0.378000	0.800100
O5241	O524	0.696800	0.443200	0.830700
O5251	O525	0.791300	0.398200	0.832400
O5261	O526	0.786300	0.470300	0.835000
O5271	O527	0.854400	0.472200	0.888600
O5281	O528	0.755100	0.515100	0.887700
O5291	O529	0.670600	0.479400	0.886100
O5301	O530	0.760600	0.441700	0.890500
O5311	O531	0.850600	0.402800	0.889800
O5321	O532	0.793300	0.337500	0.864000
O5331	O533	0.703200	0.374400	0.864700
O5341	O534	0.613200	0.412900	0.860700
O5351	O535	0.621100	0.355800	0.825700
O5361	O536	0.717900	0.311500	0.828100
O5371	O537	0.710900	0.240800	0.835100
O5381	O538	0.627700	0.284200	0.836500
O5391	O539	0.565600	0.356700	0.882700
O5401	O540	0.657600	0.321200	0.884900
O5411	O541	0.744800	0.283600	0.885900
O5421	O542	0.730000	0.344900	0.919400
O5431	O543	0.649500	0.377300	0.919500
O5441	O544	0.609100	0.439500	0.928000
O5451	O545	0.826900	0.347500	0.932300
O5461	O546	0.784700	0.409300	0.945100
O5471	O547	0.705400	0.443600	0.943200
O5481	O548	0.600400	0.510900	0.923100
O5491	O549	0.697100	0.513700	0.941700
O5501	O550	0.786600	0.475400	0.942000
O5511	O551	0.878100	0.439100	0.944300
O5521	O552	0.833300	0.529700	0.928900
O5531	O553	0.771000	0.534800	0.985900
O5541	O554	0.867900	0.493700	0.983900
O5551	O555	0.857500	0.381600	0.984900
O5561	O556	0.637000	0.477600	0.980400
O5571	O557	0.555400	0.385000	0.947200
O5581	O558	0.777900	0.292700	0.949400
O5591	O559	0.659200	0.248300	0.893400
O5601	O560	0.563200	0.289200	0.887500
O5611	O561	0.484900	0.258300	0.915900
O5621	O562	0.575600	0.228200	0.925000
O5631	O563	0.709300	0.242000	0.949200
O5641	O564	0.618400	0.280400	0.949800
O5651	O565	0.527500	0.318700	0.949500
O5661	O566	0.612900	0.337700	0.982500
O5671	O567	0.694200	0.304000	0.983400
O5681	O568	0.778100	0.293100	0.018000
O5691	O569	0.558400	0.384700	0.016000
O5701	O570	0.520100	0.424500	0.067500
O5711	O571	0.647300	0.378400	0.046800
O5721	O572	0.725000	0.343500	0.048400
O5731	O573	0.841400	0.285000	0.072200
O5741	O574	0.823600	0.347400	0.037900
O5751	O575	0.606300	0.439900	0.033400
O5761	O576	0.704100	0.443400	0.021200
O5771	O577	0.781600	0.408500	0.023100
O5781	O578	0.874000	0.438000	0.025700
O5791	O579	0.785100	0.474200	0.024400
O5801	O580	0.695700	0.516000	0.020800
O5811	O581	0.831600	0.529100	0.041500
O5821	O582	0.850300	0.472300	0.079600
O5831	O583	0.747900	0.513100	0.078800
O5841	O584	0.664500	0.479800	0.077400
O5851	O585	0.753700	0.441800	0.077600
O5861	O586	0.846600	0.403900	0.079900
O5871	O587	0.788200	0.338400	0.104100
O5881	O588	0.696800	0.375100	0.102000
O5891	O589	0.610700	0.416000	0.103200
O5901	O590	0.563700	0.359800	0.078900
O5911	O591	0.651700	0.323300	0.080300
O5921	O592	0.740000	0.282700	0.083100
O5931	O593	0.709300	0.241900	0.016300
O5941	O594	0.619400	0.281600	0.014300
O5951	O595	0.525600	0.318500	0.016600
O5961	O596	0.534500	0.258800	0.982900
O5971	O597	0.634000	0.216800	0.985600
O5981	O598	0.575100	0.229600	0.042500
O5991	O599	0.557200	0.289800	0.073700
O6001	O600	0.656400	0.250600	0.078000
O6011	O601	0.617800	0.287500	0.130800
O6021	O602	0.610800	0.357800	0.138300
O6031	O603	0.713700	0.315700	0.141500
O6041	O604	0.699500	0.378700	0.168000
O6051	O605	0.688200	0.440100	0.134700
O6061	O606	0.786600	0.402900	0.135100
O6071	O607	0.777500	0.471800	0.132300
N1451	N145	0.347300	0.430600	0.893000
H5051	H505	0.357100	0.449500	0.887300
N1461	N146	0.309900	0.417900	0.874200
N1471	N147	0.341300	0.293400	0.947100
H5061	H506	0.330500	0.278200	0.961500
N1481	N148	0.382100	0.287100	0.926600
N1491	N149	0.444100	0.188200	0.908900
N1501	N150	0.487900	0.180600	0.927800
H5071	H507	0.498500	0.191600	0.945600
C3611	C361	0.511100	0.151500	0.912000
C3621	C362	0.481700	0.141200	0.883400
C3631	C363	0.440300	0.163900	0.881500
N1511	N151	0.687500	0.258400	0.766100
H5081	H508	0.707000	0.270300	0.779000
N1521	N152	0.678300	0.223300	0.769700
N1531	N153	0.935000	0.444200	0.478200
N1541	N154	0.890600	0.429700	0.473200
H5091	H509	0.869200	0.437300	0.458600
N1551	N155	0.940000	0.350500	0.595900
N1561	N156	0.972800	0.337100	0.573500
H5101	H510	0.991000	0.319700	0.579200
N1571	N157	0.934100	0.262600	0.691900
H5111	H511	0.962400	0.258400	0.682500
N1581	N158	0.904900	0.293200	0.684900
N1591	N159	0.784600	0.221400	0.784400
N1601	N160	0.811000	0.242600	0.807900
H5121	H512	0.805400	0.244200	0.829700
N1611	N161	0.749300	0.177300	0.880400
H5131	H513	0.720900	0.185900	0.885700
N1621	N162	0.766700	0.176300	0.847900
C3641	C364	0.406600	0.412700	0.932500
H5141	H514	0.413000	0.437200	0.933900
H5151	H515	0.398900	0.403900	0.955100
H5161	H516	0.435400	0.401000	0.923700
C3651	C365	0.369200	0.407100	0.911800
C3661	C366	0.341600	0.373500	0.904100
C3671	C367	0.305700	0.386600	0.879600
C3681	C368	0.268000	0.358300	0.864700
H5171	H517	0.241000	0.355200	0.880500
H5181	H518	0.255400	0.366000	0.842800
H5191	H519	0.284900	0.336500	0.861700
C3691	C369	0.274700	0.332700	0.963800
H5201	H520	0.257700	0.312100	0.971300
H5211	H521	0.283900	0.346400	0.983500
H5221	H522	0.253200	0.346100	0.949100
C3701	C370	0.321100	0.322400	0.943700
C3711	C371	0.351000	0.340200	0.920400
C3721	C372	0.387800	0.318600	0.910500
C3731	C373	0.428800	0.326900	0.885100
H5231	H523	0.436400	0.306500	0.871800
H5241	H524	0.418200	0.345200	0.869900
H5251	H525	0.457700	0.334300	0.897500
C3741	C374	0.556400	0.138200	0.927500
H5261	H526	0.548300	0.120300	0.943900
H5271	H527	0.577300	0.128800	0.909800
H5281	H528	0.573300	0.156800	0.939100
C3751	C375	0.399000	0.159500	0.859000
H5291	H529	0.407000	0.168500	0.836600
H5301	H530	0.391200	0.135200	0.857200
H5311	H531	0.371000	0.171800	0.868100
C3761	C376	0.472800	0.061800	0.909200
H5321	H532	0.441300	0.071100	0.916000
H5331	H533	0.471000	0.036800	0.908500
H5341	H534	0.497600	0.068700	0.925600
C3771	C377	0.502500	0.113000	0.830400
C3781	C378	0.488600	0.110800	0.865700
C3791	C379	0.486100	0.075000	0.874800
N1631	N163	0.498400	0.055200	0.845100
N1641	N164	0.508500	0.078600	0.817700
H5351	H535	0.516900	0.073000	0.797000
C3801	C380	0.510000	0.144400	0.802700
H5361	H536	0.534000	0.160700	0.811500
H5371	H537	0.521900	0.135000	0.781300
H5381	H538	0.479200	0.156100	0.799000
C3811	C381	0.522000	0.239500	0.711900
H5391	H539	0.518200	0.262100	0.722000
H5401	H540	0.492200	0.232500	0.700800
H5411	H541	0.530600	0.223000	0.729600
C3821	C382	0.613100	0.245700	0.690200
C3831	C383	0.633300	0.248300	0.656400
N1651	N165	0.593900	0.244900	0.632400
N1661	N166	0.549400	0.240100	0.651300
H5421	H542	0.520300	0.237400	0.642700
C3841	C384	0.561300	0.240600	0.687000
C3851	C385	0.681300	0.250700	0.651000
H5431	H543	0.697500	0.230600	0.660400
H5441	H544	0.687600	0.252000	0.626700
H5451	H545	0.693900	0.271200	0.662100
C3861	C386	0.672700	0.308900	0.728700
H5461	H546	0.707400	0.311700	0.724200
H5471	H547	0.654300	0.314000	0.708100
H5481	H548	0.662900	0.324600	0.746800
C3871	C387	0.662200	0.271100	0.740100
C3881	C388	0.639000	0.248400	0.723500
C3891	C389	0.647100	0.214800	0.742200
C3901	C390	0.627800	0.177900	0.738700
H5491	H549	0.645200	0.163000	0.754400
H5501	H550	0.593100	0.177500	0.743900
H5511	H551	0.633000	0.169900	0.715500
C3911	C391	0.010300	0.436000	0.512300
H5521	H552	0.019200	0.458500	0.503300
H5531	H553	0.014300	0.436000	0.536900
H5541	H554	0.031300	0.418600	0.502300
C3921	C392	0.958400	0.428500	0.503600
C3931	C393	0.928700	0.400800	0.515200
C3941	C394	0.883500	0.402600	0.493400
C3951	C395	0.837800	0.381800	0.495200
H5551	H555	0.843200	0.359700	0.484300
H5561	H556	0.828900	0.378300	0.518900
H5571	H557	0.811600	0.393900	0.483500
C3961	C396	0.876200	0.394900	0.590000
H5581	H558	0.886100	0.405800	0.611200
H5591	H559	0.865500	0.412300	0.574000
H5601	H560	0.849500	0.379000	0.594500
C3971	C397	0.915900	0.376700	0.576200
C3981	C398	0.937400	0.375100	0.539700
C3991	C399	0.976300	0.350800	0.543600
C4001	C400	0.007400	0.339400	0.514700
H5611	H561	0.021400	0.317000	0.519900
H5621	H562	0.987600	0.337800	0.494200
H5631	H563	0.033500	0.355900	0.511100
C4011	C401	0.825100	0.311700	0.708200
H5641	H564	0.815500	0.317400	0.685000
H5651	H565	0.799000	0.298900	0.719200
H5661	H566	0.831200	0.332700	0.720900
C4021	C402	0.869300	0.291000	0.707500
C4031	C403	0.876700	0.261200	0.728900
C4041	C404	0.913000	0.242200	0.714000
C4051	C405	0.939400	0.208100	0.725100
H5671	H567	0.970100	0.213700	0.736300
H5681	H568	0.918600	0.195500	0.740800
H5691	H569	0.945800	0.194100	0.705100
C4061	C406	0.780100	0.207800	0.724200
H5701	H570	0.747500	0.199600	0.730000
H5711	H571	0.778000	0.223600	0.705100
H5721	H572	0.800600	0.188400	0.717900
C4071	C407	0.802200	0.226100	0.754800
C4081	C408	0.841000	0.252100	0.754900
C4091	C409	0.847900	0.260600	0.789700
C4101	C410	0.876500	0.284000	0.804600
H5731	H573	0.909100	0.282900	0.794800
H5741	H574	0.862900	0.306800	0.801000
H5751	H575	0.878300	0.279300	0.829000
C4111	C411	0.846600	0.158000	0.822300
H5761	H576	0.870400	0.176500	0.822900
H5771	H577	0.863400	0.136000	0.822700
H5781	H578	0.827200	0.159800	0.801600
C4121	C412	0.813700	0.160700	0.852800
C4131	C413	0.822300	0.152900	0.886200
C4141	C414	0.780700	0.163500	0.904400
C4151	C415	0.768900	0.158700	0.943800
H5791	H579	0.735700	0.150200	0.946400
H5801	H580	0.791700	0.142300	0.953600
H5811	H581	0.772100	0.180700	0.955400
C4161	C416	0.901100	0.183700	0.946800
H5821	H582	0.918200	0.199900	0.932300
H5831	H583	0.868800	0.192700	0.952300
H5841	H584	0.919500	0.180300	0.967700
C4171	C417	0.874500	0.100500	0.895600
N1671	N167	0.914000	0.091000	0.917900
N1681	N168	0.927100	0.120600	0.937700
H5851	H585	0.950000	0.121600	0.953100
C4181	C418	0.895700	0.148500	0.927700
C4191	C419	0.863200	0.136000	0.901700
C4201	C420	0.853000	0.075000	0.872300
H5861	H586	0.854800	0.052300	0.882500
H5871	H587	0.819000	0.080900	0.868000
H5881	H588	0.871000	0.075100	0.850900
O6081	O608	0.681400	0.389500	0.981400
K141	K14	0.649700	0.401200	0.982000
O6091	O609	0.728000	0.370400	0.986400
W2111	W211	0.675120	0.068100	0.355240
W2121	W212	0.772770	0.015280	0.357170
W2131	W213	0.842510	0.095450	0.325780
W2141	W214	0.745040	0.148610	0.324680
W2151	W215	0.812150	0.225900	0.361100
W2161	W216	0.912070	0.176890	0.350110
W2171	W217	0.923160	0.099410	0.403470
W2181	W218	0.704770	0.187330	0.406000
W2191	W219	0.637810	0.108940	0.438270
W2201	W220	0.854220	0.019820	0.432080
W2211	W221	0.737840	0.968830	0.439160
W2221	W222	0.632890	0.014870	0.431600
W2231	W223	0.633220	0.013740	0.529910
W2241	W224	0.737900	0.969070	0.537260
W2251	W225	0.853890	0.016800	0.528780
W2261	W226	0.640120	0.110100	0.534990
W2271	W227	0.710660	0.189080	0.562740
W2281	W228	0.922050	0.095650	0.559380
W2291	W229	0.966060	0.146410	0.483200
W2301	W230	0.749530	0.237020	0.483310
W2311	W231	0.856080	0.275220	0.439900
W2321	W232	0.956640	0.226090	0.429780
W2331	W233	0.962380	0.230380	0.526620
W2341	W234	0.853560	0.270930	0.536090
W2351	W235	0.814510	0.219400	0.614790
W2361	W236	0.923990	0.179680	0.606330
W2371	W237	0.855760	0.102380	0.641120
W2381	W238	0.744670	0.139580	0.641260
W2391	W239	0.675070	0.059830	0.610390
W2401	W240	0.785810	0.022320	0.611690
Co291	Co29	0.041720	0.046280	0.576170
Co301	Co30	0.088700	0.262560	0.419290
Co311	Co31	0.777190	0.304310	0.306880
Co321	Co32	0.578240	0.176440	0.140970
K151	K15	0.741700	0.143930	0.484810
P361	P36	0.815100	0.144930	0.397200
P371	P37	0.740800	0.058780	0.431100
P381	P38	0.744100	0.058540	0.536400
P391	P39	0.819100	0.144420	0.569200
P401	P40	0.863800	0.198030	0.483000
O6101	O610	0.792400	0.122000	0.300100
O6111	O611	0.803200	0.056800	0.330700
O6121	O612	0.708700	0.101800	0.332400
O6131	O613	0.713700	0.029700	0.335000
O6141	O614	0.645600	0.027800	0.388600
O6151	O615	0.744900	0.984900	0.387700
O6161	O616	0.829400	0.020600	0.386100
O6171	O617	0.739400	0.058300	0.390500
O6181	O618	0.649400	0.097200	0.389800
O6191	O619	0.706700	0.162500	0.364000
O6201	O620	0.796800	0.125600	0.364700
O6211	O621	0.886800	0.087100	0.360700
O6221	O622	0.878900	0.144200	0.325700
O6231	O623	0.782100	0.188500	0.328100
O6241	O624	0.789100	0.259200	0.335100
O6251	O625	0.872300	0.215800	0.336500
O6261	O626	0.934400	0.143300	0.382700
O6271	O627	0.842400	0.178800	0.384900
O6281	O628	0.755200	0.216400	0.385900
O6291	O629	0.770000	0.155100	0.419400
O6301	O630	0.850500	0.122700	0.419500
O6311	O631	0.890900	0.060500	0.428000
O6321	O632	0.673100	0.152500	0.432300
O6331	O633	0.715300	0.090700	0.445100
O6341	O634	0.794600	0.056400	0.443200
O6351	O635	0.899600	0.989100	0.423100
O6361	O636	0.802900	0.986300	0.441700
O6371	O637	0.713400	0.024600	0.442000
O6381	O638	0.621900	0.060900	0.444300
O6391	O639	0.666700	0.970300	0.428900
O6401	O640	0.729000	0.965200	0.485900
O6411	O641	0.632100	0.006300	0.483900
O6421	O642	0.642500	0.118400	0.484900
O6431	O643	0.863000	0.022400	0.480400
O6441	O644	0.944600	0.115000	0.447200
O6451	O645	0.722100	0.207300	0.449400
O6461	O646	0.840800	0.251700	0.393400
O6471	O647	0.936800	0.210800	0.387500
O6481	O648	0.015100	0.241700	0.415900
O6491	O649	0.924400	0.271800	0.425000
O6501	O650	0.790700	0.258000	0.449200
O6511	O651	0.881600	0.219600	0.449800
O6521	O652	0.972500	0.181300	0.449500
O6531	O653	0.887100	0.162300	0.482500
O6541	O654	0.805800	0.196000	0.483400
O6551	O655	0.721900	0.206900	0.518000
O6561	O656	0.941600	0.115300	0.516000
O6571	O657	0.979900	0.075500	0.567500
O6581	O658	0.852700	0.121600	0.546800
O6591	O659	0.775000	0.156500	0.548400
O6601	O660	0.658600	0.215000	0.572200
O6611	O661	0.676400	0.152600	0.537900
O6621	O662	0.893700	0.060100	0.533400
O6631	O663	0.795900	0.056600	0.521200
O6641	O664	0.718400	0.091500	0.523100
O6651	O665	0.626000	0.062000	0.525700
O6661	O666	0.714900	0.025800	0.524400
O6671	O667	0.804300	0.984000	0.520800
O6681	O668	0.668400	0.970900	0.541500
O6691	O669	0.649700	0.027700	0.579600
O6701	O670	0.752100	0.986900	0.578800
O6711	O671	0.835500	0.020200	0.577400
O6721	O672	0.746300	0.058200	0.577600
O6731	O673	0.653400	0.096100	0.579900
O6741	O674	0.711800	0.161600	0.604100
O6751	O675	0.803200	0.124900	0.602000
O6761	O676	0.889300	0.084000	0.603200
O6771	O677	0.936300	0.140200	0.578900
O6781	O678	0.848300	0.176700	0.580300
O6791	O679	0.760000	0.217300	0.583100
O6801	O680	0.790700	0.258100	0.516300
O6811	O681	0.880600	0.218400	0.514300
O6821	O682	0.974400	0.181500	0.516600
O6831	O683	0.965500	0.241200	0.482900
O6841	O684	0.866000	0.283200	0.485600
O6851	O685	0.924900	0.270400	0.542500
O6861	O686	0.942800	0.210200	0.573700
O6871	O687	0.843600	0.249400	0.578000
O6881	O688	0.882200	0.212500	0.630800
O6891	O689	0.889200	0.142200	0.638300
O6901	O690	0.786300	0.184300	0.641500
O6911	O691	0.800500	0.121300	0.668000
O6921	O692	0.811800	0.059900	0.634700
O6931	O693	0.713400	0.097100	0.635100
O6941	O694	0.722500	0.028200	0.632300
N1691	N169	0.152700	0.069400	0.393000
H5891	H589	0.142900	0.050500	0.387300
N1701	N170	0.190100	0.082100	0.374200
N1711	N171	0.158700	0.206600	0.447100
H5901	H590	0.169500	0.221800	0.461500
N1721	N172	0.117900	0.212900	0.426600
N1731	N173	0.055900	0.311800	0.408900
N1741	N174	0.012100	0.319400	0.427800
H5911	H591	0.001500	0.308400	0.445600
C4211	C421	0.988900	0.348500	0.412000
C4221	C422	0.018300	0.358800	0.383400
C4231	C423	0.059700	0.336100	0.381500
N1751	N175	0.812500	0.241600	0.266100
H5921	H592	0.793000	0.229700	0.279000
N1761	N176	0.821700	0.276700	0.269700
N1771	N177	0.565000	0.055800	0.978200
N1781	N178	0.609400	0.070300	0.973200
H5931	H593	0.630800	0.062700	0.958600
N1791	N179	0.560000	0.149500	0.095900
N1801	N180	0.527200	0.162900	0.073500
H5941	H594	0.509000	0.180300	0.079200
N1811	N181	0.565900	0.237400	0.191900
H5951	H595	0.537600	0.241600	0.182500
N1821	N182	0.595100	0.206800	0.184900
N1831	N183	0.715400	0.278600	0.284400
N1841	N184	0.689000	0.257400	0.307900
H5961	H596	0.694600	0.255800	0.329700
N1851	N185	0.750700	0.322700	0.380400
H5971	H597	0.779100	0.314100	0.385700
N1861	N186	0.733300	0.323700	0.347900
C4241	C424	0.093400	0.087300	0.432500
H5981	H598	0.087000	0.062800	0.433900
H5991	H599	0.101100	0.096100	0.455100
H6001	H600	0.064600	0.099000	0.423700
C4251	C425	0.130800	0.092900	0.411800
C4261	C426	0.158400	0.126500	0.404100
C4271	C427	0.194300	0.113400	0.379600
C4281	C428	0.232000	0.141700	0.364700
H6011	H601	0.259000	0.144800	0.380500
H6021	H602	0.244600	0.134000	0.342800
H6031	H603	0.215100	0.163500	0.361700
C4291	C429	0.225300	0.167300	0.463800
H6041	H604	0.242300	0.187900	0.471300
H6051	H605	0.216100	0.153600	0.483500
H6061	H606	0.246800	0.153900	0.449100
C4301	C430	0.178900	0.177600	0.443700
C4311	C431	0.149000	0.159800	0.420400
C4321	C432	0.112200	0.181400	0.410500
C4331	C433	0.071200	0.173100	0.385100
H6071	H607	0.063600	0.193500	0.371800
H6081	H608	0.081800	0.154800	0.369900
H6091	H609	0.042300	0.165700	0.397500
C4341	C434	0.943600	0.361800	0.427500
H6101	H610	0.951700	0.379700	0.443900
H6111	H611	0.922700	0.371200	0.409800
H6121	H612	0.926700	0.343200	0.439100
C4351	C435	0.101000	0.340500	0.359000
H6131	H613	0.093000	0.331500	0.336600
H6141	H614	0.108800	0.364800	0.357200
H6151	H615	0.129000	0.328200	0.368100
C4361	C436	0.027200	0.438200	0.409200
H6161	H616	0.058700	0.428900	0.416000
H6171	H617	0.029000	0.463200	0.408500
H6181	H618	0.002400	0.431300	0.425600
C4371	C437	0.997500	0.387000	0.330400
C4381	C438	0.011400	0.389200	0.365700
C4391	C439	0.013900	0.425000	0.374800
N1871	N187	0.001600	0.444800	0.345100
N1881	N188	0.991500	0.421400	0.317700
H6191	H619	0.983100	0.427000	0.297000
C4401	C440	0.990000	0.355600	0.302700
H6201	H620	0.966000	0.339300	0.311500
H6211	H621	0.978100	0.365000	0.281300
H6221	H622	0.020800	0.343900	0.299000
C4411	C441	0.978000	0.260500	0.211900
H6231	H623	0.981800	0.237900	0.222000
H6241	H624	0.007800	0.267500	0.200800
H6251	H625	0.969400	0.277000	0.229600
C4421	C442	0.886900	0.254300	0.190200
C4431	C443	0.866700	0.251700	0.156400
N1891	N189	0.906100	0.255100	0.132400
N1901	N190	0.950600	0.259900	0.151300
H6261	H626	0.979700	0.262600	0.142700
C4441	C444	0.938700	0.259400	0.187000
C4451	C445	0.818700	0.249300	0.151000
H6271	H627	0.802500	0.269400	0.160400
H6281	H628	0.812400	0.248000	0.126700
H6291	H629	0.806100	0.228800	0.162100
C4461	C446	0.827300	0.191100	0.228700
H6301	H630	0.792600	0.188300	0.224200
H6311	H631	0.845700	0.186000	0.208100
H6321	H632	0.837100	0.175400	0.246800
C4471	C447	0.837800	0.228900	0.240100
C4481	C448	0.861000	0.251600	0.223500
C4491	C449	0.852900	0.285200	0.242200
C4501	C450	0.872200	0.322100	0.238700
H6331	H633	0.854800	0.337000	0.254400
H6341	H634	0.906900	0.322500	0.243900
H6351	H635	0.867000	0.330100	0.215500
C4511	C451	0.489700	0.064000	0.012300
H6361	H636	0.480800	0.041500	0.003300
H6371	H637	0.485700	0.064000	0.036900
H6381	H638	0.468700	0.081400	0.002300
C4521	C452	0.541600	0.071500	0.003600
C4531	C453	0.571300	0.099200	0.015200
C4541	C454	0.616500	0.097400	0.993400
C4551	C455	0.662200	0.118200	0.995200
H6391	H639	0.656800	0.140300	0.984300
H6401	H640	0.671100	0.121700	0.018900
H6411	H641	0.688400	0.106100	0.983500
C4561	C456	0.623800	0.105100	0.090000
H6421	H642	0.613900	0.094200	0.111200
H6431	H643	0.634500	0.087700	0.074000
H6441	H644	0.650500	0.121000	0.094500
C4571	C457	0.584100	0.123300	0.076200
C4581	C458	0.562600	0.124900	0.039700
C4591	C459	0.523700	0.149200	0.043600
C4601	C460	0.492600	0.160600	0.014700
H6451	H645	0.478600	0.183000	0.019900
H6461	H646	0.512400	0.162200	0.994200
H6471	H647	0.466500	0.144100	0.011100
C4611	C461	0.674900	0.188300	0.208200
H6481	H648	0.684500	0.182600	0.185000
H6491	H649	0.701000	0.201100	0.219200
H6501	H650	0.668800	0.167300	0.220900
C4621	C462	0.630700	0.209000	0.207500
C4631	C463	0.623300	0.238800	0.228900
C4641	C464	0.587000	0.257800	0.214000
C4651	C465	0.560600	0.291900	0.225100
H6511	H651	0.529900	0.286300	0.236300
H6521	H652	0.581400	0.304500	0.240800
H6531	H653	0.554200	0.305900	0.205100
C4661	C466	0.719900	0.292200	0.224200
H6541	H654	0.752500	0.300400	0.230000
H6551	H655	0.722000	0.276400	0.205100
H6561	H656	0.699400	0.311600	0.217900
C4671	C467	0.697800	0.273900	0.254800
C4681	C468	0.659000	0.247900	0.254900
C4691	C469	0.652100	0.239400	0.289700
C4701	C470	0.623500	0.216000	0.304600
H6571	H657	0.590900	0.217100	0.294800
H6581	H658	0.637100	0.193200	0.301000
H6591	H659	0.621700	0.220700	0.329000
C4711	C471	0.653400	0.342000	0.322300
H6601	H660	0.629600	0.323500	0.322900
H6611	H661	0.636600	0.364000	0.322700
H6621	H662	0.672800	0.340200	0.301600
C4721	C472	0.686300	0.339300	0.352800
C4731	C473	0.677700	0.347100	0.386200
C4741	C474	0.719300	0.336500	0.404400
C4751	C475	0.731100	0.341300	0.443800
H6631	H663	0.764300	0.349800	0.446400
H6641	H664	0.708300	0.357700	0.453600
H6651	H665	0.727900	0.319300	0.455400
C4761	C476	0.598900	0.316300	0.446800
H6661	H666	0.581800	0.300100	0.432300
H6671	H667	0.631200	0.307300	0.452300
H6681	H668	0.580500	0.319700	0.467700
C4771	C477	0.625500	0.399500	0.395600
N1911	N191	0.586000	0.409000	0.417900
N1921	N192	0.572900	0.379400	0.437700
H6691	H669	0.550000	0.378400	0.453100
C4781	C478	0.604300	0.351500	0.427700
C4791	C479	0.636800	0.364000	0.401700
C4801	C480	0.647000	0.425000	0.372300
H6701	H670	0.645200	0.447700	0.382500
H6711	H671	0.681000	0.419100	0.368000
H6721	H672	0.629000	0.424900	0.350900
O6951	O695	0.818600	0.110500	0.481400
K161	K16	0.850300	0.098800	0.482000
O6961	O696	0.772000	0.129600	0.486400
