data_RUSWUZ_clean_PM
_symmetry_space_group_name_H-M	'P1'
_cell_length_a	10.471000
_cell_length_b	11.359000
_cell_length_c	13.093000
_cell_angle_alpha	107.541000
_cell_angle_beta	90.084000
_cell_angle_gamma	92.355000
_symmetry_Int_Tables_number 1

loop_
_symmetry_equiv_pos_as_xyz
'x,y,z'

loop_
_atom_site_label
_atom_site_type_symbol
_atom_site_fract_x
_atom_site_fract_y
_atom_site_fract_z
Nd11	Nd1	0.480680	0.453420	0.339460
C11	C1	0.498700	0.233500	0.170600
C21	C2	0.508900	0.746200	0.507200
C31	C3	0.266800	0.491300	0.561200
C41	C4	0.499800	0.115400	0.086100
C51	C5	0.506400	0.879900	0.506900
C61	C6	0.128800	0.496600	0.528400
C71	C7	0.451400	0.006000	0.101000
C81	C8	0.391200	0.939700	0.525700
C91	C9	0.076400	0.402900	0.440900
C101	C10	0.403300	0.000500	0.205100
H11	H1	0.411000	0.071200	0.263700
C111	C11	0.276900	0.883100	0.552500
H21	H2	0.279200	0.804000	0.559200
C121	C12	0.149500	0.302800	0.381300
H31	H3	0.234600	0.299000	0.400100
C131	C13	0.348600	0.896800	0.218700
H41	H4	0.313500	0.899300	0.284500
C141	C14	0.165500	0.941700	0.568500
H51	H5	0.091800	0.901400	0.583200
C151	C15	0.095400	0.212200	0.296500
H61	H6	0.143600	0.146700	0.258200
C161	C16	0.343900	0.783100	0.133600
H71	H7	0.309100	0.711100	0.144000
C171	C17	0.160400	0.062700	0.563100
H81	H8	0.083200	0.102000	0.573700
C181	C18	0.966500	0.218100	0.267100
H91	H9	0.931300	0.157300	0.208200
C191	C19	0.391900	0.782700	0.036200
H101	H10	0.388300	0.708500	0.981000
C201	C20	0.267400	0.123500	0.542700
H111	H11	0.263100	0.205100	0.542700
C211	C21	0.893100	0.310800	0.323100
H121	H12	0.807700	0.311400	0.303700
C221	C22	0.447500	0.890500	0.014500
C231	C23	0.386300	0.064000	0.521300
C241	C24	0.946100	0.407700	0.411900
O11	O1	0.390900	0.281000	0.195100
O21	O2	0.492900	0.667000	0.415900
O31	O3	0.357400	0.505300	0.502100
O41	O4	0.598500	0.283300	0.217200
O51	O5	0.527700	0.724200	0.592800
O61	O6	0.288700	0.483800	0.652400
Nd21	Nd2	0.519320	0.546580	0.660540
C251	C25	0.501300	0.766500	0.829400
C261	C26	0.491100	0.253800	0.492800
C271	C27	0.733200	0.508700	0.438800
C281	C28	0.500200	0.884600	0.913900
C291	C29	0.493600	0.120100	0.493100
C301	C30	0.871200	0.503400	0.471600
C311	C31	0.548600	0.994000	0.899000
C321	C32	0.608800	0.060300	0.474300
C331	C33	0.923600	0.597100	0.559100
C341	C34	0.596700	0.999500	0.794900
H131	H13	0.589000	0.928800	0.736300
C351	C35	0.723100	0.116900	0.447500
H141	H14	0.720800	0.196000	0.440800
C361	C36	0.850500	0.697200	0.618700
H151	H15	0.765400	0.701000	0.599900
C371	C37	0.651400	0.103200	0.781300
H161	H16	0.686500	0.100700	0.715500
C381	C38	0.834500	0.058300	0.431500
H171	H17	0.908200	0.098600	0.416800
C391	C39	0.904600	0.787800	0.703500
H181	H18	0.856400	0.853300	0.741800
C401	C40	0.656100	0.216900	0.866400
H191	H19	0.690900	0.288900	0.856000
C411	C41	0.839600	0.937300	0.436900
H201	H20	0.916800	0.898000	0.426300
C421	C42	0.033500	0.781900	0.732900
H211	H21	0.068700	0.842700	0.791800
C431	C43	0.608100	0.217300	0.963800
H221	H22	0.611700	0.291500	0.019000
C441	C44	0.732600	0.876500	0.457300
H231	H23	0.736900	0.794900	0.457300
C451	C45	0.106900	0.689200	0.676900
H241	H24	0.192300	0.688600	0.696300
C461	C46	0.552500	0.109500	0.985500
C471	C47	0.613700	0.936000	0.478700
C481	C48	0.053900	0.592300	0.588100
O71	O7	0.609100	0.719000	0.804900
O81	O8	0.507100	0.333000	0.584100
O91	O9	0.642600	0.494700	0.497900
O101	O10	0.401500	0.716700	0.782800
O111	O11	0.472300	0.275800	0.407200
O121	O12	0.711300	0.516200	0.347600
