data_RUSXAG_clean_PM
_symmetry_space_group_name_H-M	'P1'
_cell_length_a	10.354100
_cell_length_b	11.368000
_cell_length_c	12.916000
_cell_angle_alpha	72.859000
_cell_angle_beta	90.028000
_cell_angle_gamma	87.232000
_symmetry_Int_Tables_number 1

loop_
_symmetry_equiv_pos_as_xyz
'x,y,z'

loop_
_atom_site_label
_atom_site_type_symbol
_atom_site_fract_x
_atom_site_fract_y
_atom_site_fract_z
Gd11	Gd1	0.478330	0.046110	0.338380
C11	C1	0.494600	0.266200	0.167700
C21	C2	0.510500	0.753700	0.504600
C31	C3	0.265800	0.009700	0.564100
C41	C4	0.498300	0.384800	0.084300
C51	C5	0.505600	0.621200	0.505300
C61	C6	0.129500	0.004800	0.531300
C71	C7	0.448600	0.494100	0.103000
C81	C8	0.390100	0.561900	0.527600
C91	C9	0.076200	0.097100	0.441800
C101	C10	0.397700	0.496800	0.205500
H11	H1	0.398400	0.423900	0.262200
C111	C11	0.275200	0.621200	0.552800
H21	H2	0.277500	0.701400	0.556900
C121	C12	0.149300	0.198200	0.380900
H31	H3	0.234600	0.203200	0.401300
C131	C13	0.349500	0.600400	0.222200
H41	H4	0.318500	0.598900	0.290100
C141	C14	0.164400	0.563900	0.570700
H51	H5	0.090300	0.605100	0.585900
C151	C15	0.096700	0.286500	0.294400
H61	H6	0.145300	0.351700	0.256600
C161	C16	0.345000	0.713000	0.137100
H71	H7	0.309900	0.784300	0.149700
C171	C17	0.158500	0.441900	0.566900
H81	H8	0.080200	0.403500	0.578900
C181	C18	0.968300	0.279200	0.262200
H91	H9	0.933900	0.338400	0.201200
C191	C19	0.390900	0.718100	0.038000
H101	H10	0.386700	0.792600	0.983100
C201	C20	0.264900	0.379600	0.546000
H111	H11	0.259900	0.297900	0.546900
C211	C21	0.893800	0.187800	0.318000
H121	H12	0.808300	0.186700	0.296300
C221	C22	0.446200	0.609300	0.017100
C231	C23	0.384500	0.437900	0.522600
C241	C24	0.944900	0.092500	0.410500
O11	O1	0.386500	0.218300	0.190700
O21	O2	0.491200	0.832200	0.413600
O31	O3	0.358600	0.992700	0.506200
O41	O4	0.596600	0.214900	0.216300
O51	O5	0.532800	0.775300	0.592500
O61	O6	0.286700	0.020400	0.656100
Gd21	Gd2	0.521670	0.953890	0.661620
C251	C25	0.505400	0.733800	0.832300
C261	C26	0.489500	0.246300	0.495400
C271	C27	0.734200	0.990300	0.435900
C281	C28	0.501700	0.615200	0.915700
C291	C29	0.494400	0.378800	0.494700
C301	C30	0.870500	0.995200	0.468700
C311	C31	0.551400	0.505900	0.897000
C321	C32	0.609900	0.438100	0.472400
C331	C33	0.923800	0.902900	0.558200
C341	C34	0.602300	0.503200	0.794500
H131	H13	0.601600	0.576100	0.737800
C351	C35	0.724800	0.378800	0.447200
H141	H14	0.722500	0.298600	0.443100
C361	C36	0.850700	0.801800	0.619100
H151	H15	0.765400	0.796800	0.598700
C371	C37	0.650500	0.399600	0.777800
H161	H16	0.681500	0.401100	0.709900
C381	C38	0.835600	0.436100	0.429300
H171	H17	0.909700	0.394900	0.414100
C391	C39	0.903300	0.713500	0.705600
H181	H18	0.854700	0.648300	0.743400
C401	C40	0.655000	0.287000	0.862900
H191	H19	0.690100	0.215700	0.850300
C411	C41	0.841500	0.558100	0.433100
H201	H20	0.919800	0.596500	0.421100
C421	C42	0.031700	0.720800	0.737800
H211	H21	0.066100	0.661600	0.798800
C431	C43	0.609100	0.281900	0.962000
H221	H22	0.613300	0.207400	0.016900
C441	C44	0.735100	0.620400	0.454000
H231	H23	0.740100	0.702100	0.453100
C451	C45	0.106200	0.812200	0.682000
H241	H24	0.191700	0.813300	0.703700
C461	C46	0.553800	0.390700	0.982900
C471	C47	0.615500	0.562100	0.477400
C481	C48	0.055100	0.907500	0.589500
O71	O7	0.613500	0.781700	0.809300
O81	O8	0.508800	0.167800	0.586400
O91	O9	0.641400	0.007300	0.493800
O101	O10	0.403400	0.785100	0.783700
O111	O11	0.467200	0.224700	0.407500
O121	O12	0.713300	0.979600	0.343900
