data_RUTBUE_clean_PM
_symmetry_space_group_name_H-M	'P1'
_cell_length_a	11.709000
_cell_length_b	11.796000
_cell_length_c	12.190000
_cell_angle_alpha	76.130000
_cell_angle_beta	88.960000
_cell_angle_gamma	73.800000
_symmetry_Int_Tables_number 1

loop_
_symmetry_equiv_pos_as_xyz
'x,y,z'

loop_
_atom_site_label
_atom_site_type_symbol
_atom_site_fract_x
_atom_site_fract_y
_atom_site_fract_z
Na11	Na1	0.597300	0.091900	0.769800
Na21	Na2	0.583500	0.079600	0.070300
Na31	Na3	0.402700	0.908100	0.230200
Na41	Na4	0.416500	0.920400	0.929700
Sn11	Sn1	0.105380	0.415850	0.910530
Sn21	Sn2	0.913010	0.446070	0.618110
Sn31	Sn3	0.894620	0.584150	0.089470
Sn41	Sn4	0.086990	0.553930	0.381890
Te11	Te1	0.930880	0.643060	0.862850
Te21	Te2	0.023250	0.270970	0.804770
Te31	Te3	0.968570	0.370540	0.424140
Te41	Te4	0.069120	0.356940	0.137150
Te51	Te5	0.976750	0.729030	0.195230
Te61	Te6	0.031430	0.629460	0.575860
H11	H1	0.315900	0.463600	0.896000
H21	H2	0.251400	0.517500	0.776400
H31	H3	0.416900	0.341300	0.781500
H41	H4	0.298800	0.327700	0.738000
H51	H5	0.687900	0.564900	0.572900
H61	H6	0.734700	0.615300	0.664400
H71	H7	0.598900	0.500300	0.737000
H81	H8	0.719600	0.453500	0.806500
H91	H9	0.577300	0.748700	0.764200
H101	H10	0.545400	0.874400	0.674700
H111	H11	0.678800	0.805000	0.713000
H121	H12	0.838100	0.110700	0.894900
H131	H13	0.884500	0.007100	0.004900
H141	H14	0.889600	0.975400	0.886800
H151	H15	0.684100	0.536400	0.104000
H161	H16	0.748600	0.482500	0.223600
H171	H17	0.583100	0.658700	0.218500
H181	H18	0.701200	0.672300	0.262000
H191	H19	0.312100	0.435100	0.427100
H201	H20	0.265300	0.384700	0.335600
H211	H21	0.401100	0.499700	0.263000
H221	H22	0.280400	0.546500	0.193500
H231	H23	0.422700	0.251300	0.235800
H241	H24	0.454600	0.125600	0.325300
H251	H25	0.321200	0.195000	0.287000
H261	H26	0.161900	0.889300	0.105100
H271	H27	0.115500	0.992900	0.995100
H281	H28	0.110400	0.024600	0.113200
C11	C1	0.269600	0.448100	0.840100
C21	C2	0.339500	0.333800	0.803000
C31	C3	0.353800	0.218900	0.895900
C41	C4	0.735200	0.542300	0.642400
C51	C5	0.682300	0.461300	0.734600
C61	C6	0.697600	0.336400	0.716500
C71	C7	0.598700	0.823100	0.737200
C81	C8	0.844700	0.027400	0.931700
C91	C9	0.730400	0.551900	0.159900
C101	C10	0.660500	0.666200	0.197000
C111	C11	0.646200	0.781100	0.104100
C121	C12	0.264800	0.457700	0.357600
C131	C13	0.317700	0.538700	0.265400
C141	C14	0.302400	0.663600	0.283500
C151	C15	0.401300	0.176900	0.262800
C161	C16	0.155300	0.972600	0.068300
O11	O1	0.438500	0.124200	0.893900
O21	O2	0.277000	0.219900	0.971600
O31	O3	0.775900	0.299700	0.648200
O41	O4	0.637200	0.272700	0.770700
O51	O5	0.590600	0.883300	0.824700
O61	O6	0.731500	0.011200	0.944000
O71	O7	0.561500	0.875800	0.106100
O81	O8	0.723000	0.780100	0.028400
O91	O9	0.224100	0.700300	0.351800
O101	O10	0.362800	0.727300	0.229300
O111	O11	0.409400	0.116700	0.175300
O121	O12	0.268500	0.988800	0.056000
