data_RUWWOW01_clean_PM
_symmetry_space_group_name_H-M	'P1'
_cell_length_a	9.360000
_cell_length_b	9.936000
_cell_length_c	11.384000
_cell_angle_alpha	93.182000
_cell_angle_beta	97.617000
_cell_angle_gamma	110.271000
_symmetry_Int_Tables_number 1

loop_
_symmetry_equiv_pos_as_xyz
'x,y,z'

loop_
_atom_site_label
_atom_site_type_symbol
_atom_site_fract_x
_atom_site_fract_y
_atom_site_fract_z
La11	La1	0.715610	0.951990	0.016910
La21	La2	0.284390	0.048010	0.983090
H11	H1	0.686700	0.505900	0.965600
H21	H2	0.809600	0.216200	0.779300
H31	H3	0.085800	0.635500	0.835200
H41	H4	0.829500	0.400900	0.571100
H51	H5	0.741000	0.277400	0.381500
H61	H6	0.070200	0.107100	0.425700
H71	H7	0.160400	0.228400	0.615100
H81	H8	0.313300	0.494100	0.034400
H91	H9	0.190400	0.783800	0.220700
H101	H10	0.914200	0.364500	0.164800
H111	H11	0.170500	0.599100	0.428900
H121	H12	0.259000	0.722600	0.618500
H131	H13	0.929800	0.892900	0.574300
H141	H14	0.839600	0.771600	0.384900
C11	C1	0.928200	0.741900	0.970400
C21	C2	0.892000	0.592800	0.911000
C31	C3	0.756400	0.484700	0.923700
C41	C4	0.723800	0.344100	0.873800
C51	C5	0.578300	0.226500	0.892300
C61	C6	0.827200	0.310500	0.809500
C71	C7	0.958000	0.425500	0.793000
C81	C8	0.994500	0.563000	0.844400
C91	C9	0.004300	0.324000	0.611400
C101	C10	0.877100	0.340900	0.541900
C111	C11	0.824200	0.266400	0.429100
C121	C12	0.893300	0.176200	0.386500
C131	C13	0.829200	0.089200	0.267800
C141	C14	0.020700	0.164800	0.455700
C151	C15	0.075600	0.238000	0.568700
C161	C16	0.071800	0.258100	0.029600
C171	C17	0.108000	0.407200	0.089000
C181	C18	0.243600	0.515300	0.076300
C191	C19	0.276200	0.655900	0.126200
C201	C20	0.421700	0.773500	0.107700
C211	C21	0.172800	0.689500	0.190500
C221	C22	0.042000	0.574500	0.207000
C231	C23	0.005500	0.437000	0.155600
C241	C24	0.995700	0.676000	0.388600
C251	C25	0.122900	0.659100	0.458100
C261	C26	0.175800	0.733600	0.570900
C271	C27	0.106700	0.823800	0.613500
C281	C28	0.170800	0.910800	0.732200
C291	C29	0.979300	0.835200	0.544300
C301	C30	0.924400	0.762000	0.431300
O11	O1	0.058000	0.836100	0.970200
O21	O2	0.822200	0.764100	0.018700
O31	O3	0.455500	0.254400	0.881600
O41	O4	0.583200	0.105400	0.921800
O51	O5	0.062300	0.397800	0.724800
O61	O6	0.713600	0.106100	0.204300
O71	O7	0.886200	0.001600	0.228900
O81	O8	0.942000	0.163900	0.029800
O91	O9	0.177800	0.235900	0.981300
O101	O10	0.544500	0.745600	0.118400
O111	O11	0.416800	0.894600	0.078200
O121	O12	0.937700	0.602200	0.275200
O131	O13	0.286400	0.893900	0.795700
O141	O14	0.113800	0.998400	0.771100
