data_RUWWOW_clean_PM
_symmetry_space_group_name_H-M	'P1'
_cell_length_a	9.376000
_cell_length_b	9.940000
_cell_length_c	11.377000
_cell_angle_alpha	92.979000
_cell_angle_beta	97.836000
_cell_angle_gamma	110.330000
_symmetry_Int_Tables_number 1

loop_
_symmetry_equiv_pos_as_xyz
'x,y,z'

loop_
_atom_site_label
_atom_site_type_symbol
_atom_site_fract_x
_atom_site_fract_y
_atom_site_fract_z
La11	La1	0.715560	0.952290	0.016780
La21	La2	0.284440	0.047710	0.983220
H11	H1	0.317300	0.497900	0.040100
H21	H2	0.192200	0.782700	0.221900
H31	H3	0.913800	0.364900	0.163200
H41	H4	0.170000	0.596600	0.429000
H51	H5	0.261200	0.722000	0.618900
H61	H6	0.930300	0.893900	0.573700
H71	H7	0.839800	0.769700	0.384200
H81	H8	0.682700	0.502100	0.959900
H91	H9	0.807800	0.217300	0.778100
H101	H10	0.086200	0.635100	0.836800
H111	H11	0.830000	0.403400	0.571000
H121	H12	0.738800	0.278000	0.381100
H131	H13	0.069700	0.106100	0.426300
H141	H14	0.160200	0.230300	0.615800
C11	C1	0.074300	0.259500	0.029900
C21	C2	0.107000	0.406800	0.088700
C31	C3	0.245800	0.518900	0.079700
C41	C4	0.278500	0.657000	0.127000
C51	C5	0.423000	0.772200	0.106300
C61	C6	0.174100	0.688600	0.191100
C71	C7	0.043500	0.576100	0.207100
C81	C8	0.005600	0.436900	0.154600
C91	C9	0.000600	0.676900	0.388800
C101	C10	0.124000	0.657900	0.457800
C111	C11	0.177700	0.732300	0.571000
C121	C12	0.105500	0.823000	0.613000
C131	C13	0.171200	0.908700	0.732600
C141	C14	0.979400	0.835800	0.544200
C151	C15	0.925400	0.762000	0.431100
C161	C16	0.925700	0.740500	0.970100
C171	C17	0.893000	0.593200	0.911300
C181	C18	0.754200	0.481100	0.920300
C191	C19	0.721500	0.343000	0.873000
C201	C20	0.577000	0.227800	0.893700
C211	C21	0.825900	0.311400	0.808900
C221	C22	0.956500	0.423900	0.792900
C231	C23	0.994400	0.563100	0.845400
C241	C24	0.999400	0.323100	0.611200
C251	C25	0.876000	0.342100	0.542200
C261	C26	0.822300	0.267700	0.429000
C271	C27	0.894500	0.177000	0.387000
C281	C28	0.828800	0.091300	0.267400
C291	C29	0.020600	0.164200	0.455800
C301	C30	0.074600	0.238000	0.568900
O11	O1	0.940700	0.164200	0.031100
O21	O2	0.177600	0.235200	0.982500
O31	O3	0.544900	0.747500	0.118200
O41	O4	0.417900	0.893600	0.078600
O51	O5	0.939200	0.603400	0.274100
O61	O6	0.285400	0.895800	0.796300
O71	O7	0.114000	0.998800	0.770700
O81	O8	0.059300	0.835800	0.968900
O91	O9	0.822400	0.764800	0.017500
O101	O10	0.455100	0.252500	0.881800
O111	O11	0.582100	0.106400	0.921400
O121	O12	0.060800	0.396600	0.725900
O131	O13	0.714600	0.104200	0.203700
O141	O14	0.886000	0.001200	0.229300
