data_RUYNIK_clean_PM
_symmetry_space_group_name_H-M	'P1'
_cell_length_a	12.177000
_cell_length_b	13.175000
_cell_length_c	15.814000
_cell_angle_alpha	66.028000
_cell_angle_beta	87.249000
_cell_angle_gamma	89.986000
_symmetry_Int_Tables_number 1

loop_
_symmetry_equiv_pos_as_xyz
'x,y,z'

loop_
_atom_site_label
_atom_site_type_symbol
_atom_site_fract_x
_atom_site_fract_y
_atom_site_fract_z
C11	C1	0.256500	0.301400	0.447200
C21	C2	0.287200	0.412300	0.370700
H11	H1	0.230000	0.465600	0.368300
C31	C3	0.297400	0.402400	0.280000
H21	H2	0.316600	0.473700	0.231600
H31	H3	0.228500	0.376700	0.268000
H41	H4	0.353500	0.350500	0.282100
C41	C4	0.093000	0.152100	0.705100
C51	C5	0.061700	0.139100	0.801200
C61	C6	0.121800	0.077700	0.870800
H51	H5	0.183500	0.042100	0.860200
C71	C7	0.090300	0.066900	0.963100
C81	C8	0.013100	0.126800	0.982500
C91	C9	0.950300	0.194100	0.905600
C101	C10	0.974500	0.196100	0.818400
H61	H6	0.930600	0.237200	0.770100
C111	C11	0.995300	0.130100	0.074600
C121	C12	0.064200	0.195300	0.106000
C131	C13	0.053600	0.191300	0.193800
H71	H7	0.100500	0.234100	0.211500
C141	C14	0.973900	0.124500	0.256200
C151	C15	0.903000	0.057800	0.231800
H81	H8	0.850200	0.010500	0.273800
C161	C16	0.916400	0.066800	0.141000
C171	C17	0.968800	0.120900	0.352900
C181	C18	0.826600	0.966000	0.650400
C191	C19	0.800500	0.869300	0.746300
C201	C20	0.862500	0.864300	0.821900
H91	H9	0.919000	0.915700	0.813300
C211	C21	0.837600	0.784500	0.905200
C221	C22	0.759300	0.698900	0.923300
C231	C23	0.702600	0.704200	0.849000
C241	C24	0.720300	0.795900	0.759800
H101	H10	0.675300	0.803500	0.711800
C251	C25	0.740500	0.600600	0.015700
C261	C26	0.652600	0.605200	0.074100
C271	C27	0.630100	0.516300	0.162700
H111	H11	0.570300	0.518200	0.200900
C281	C28	0.699900	0.427700	0.189700
C291	C29	0.784300	0.421800	0.134300
H121	H12	0.829400	0.360400	0.153700
C301	C30	0.803700	0.506800	0.049200
C311	C31	0.673400	0.332100	0.286000
C321	C32	0.149700	0.912000	0.621700
C331	C33	0.075000	0.819200	0.621300
C341	C34	0.012800	0.832800	0.549600
H131	H13	0.008400	0.902200	0.500900
C351	C35	0.954600	0.741700	0.549000
C361	C36	0.958300	0.635400	0.618900
C371	C37	0.022000	0.627200	0.691400
C381	C38	0.075100	0.713400	0.693600
H141	H14	0.114300	0.703300	0.745400
C391	C39	0.916400	0.539100	0.604400
C401	C40	0.982400	0.497900	0.551000
C411	C41	0.940600	0.410300	0.525200
H151	H15	0.985900	0.380700	0.492300
C421	C42	0.831800	0.372100	0.550600
C431	C43	0.768400	0.406600	0.609200
H161	H16	0.700300	0.372800	0.633500
C441	C44	0.805000	0.487800	0.630400
C451	C45	0.793000	0.280800	0.521300
C461	C46	0.496500	0.033000	0.488900
C471	C47	0.556200	0.963100	0.441000
H171	H17	0.506700	0.955400	0.396800
C481	C48	0.575700	0.848200	0.514100
H181	H18	0.611900	0.804400	0.485700
H191	H19	0.506500	0.813400	0.542900
H201	H20	0.621100	0.854000	0.560000
N11	N1	0.035200	0.517500	0.764100
N21	N2	0.158700	0.988900	0.038600
N31	N3	0.862600	0.258800	0.920600
N41	N4	0.152300	0.268700	0.042800
N51	N5	0.841600	0.993300	0.117700
N61	N6	0.894500	0.792500	0.983900
N71	N7	0.575200	0.695700	0.053500
N81	N8	0.899300	0.503900	0.992500
N91	N9	0.611200	0.625500	0.854900
N101	N10	0.736600	0.523800	0.691800
N111	N11	0.091400	0.536200	0.518200
N121	N12	0.891000	0.758200	0.468700
O11	O1	0.338600	0.241600	0.489500
O21	O2	0.158300	0.279800	0.465700
O31	O3	0.390700	0.449700	0.392100
H211	H21	0.405300	0.524800	0.375700
O41	O4	0.188100	0.120400	0.695100
O51	O5	0.023600	0.187000	0.646400
O61	O6	0.252000	0.971900	0.017500
O71	O7	0.113000	0.940600	0.111900
O81	O8	0.786400	0.280100	0.864700
O91	O9	0.861300	0.290600	0.981900
O101	O10	0.171200	0.265900	0.971600
O111	O11	0.192200	0.337900	0.064900
O121	O12	0.798400	0.035500	0.042700
O131	O13	0.822400	0.900400	0.176400
O141	O14	0.895000	0.054500	0.410600
O151	O15	0.038300	0.177300	0.370800
O161	O16	0.919900	0.003300	0.633800
O171	O17	0.744300	0.987100	0.597400
O181	O18	0.931400	0.876500	0.975300
O191	O19	0.924000	0.704300	0.043600
O201	O20	0.618600	0.530800	0.913400
O211	O21	0.540500	0.658300	0.802100
O221	O22	0.618300	0.791700	0.013600
O231	O23	0.481200	0.682200	0.065400
O241	O24	0.904100	0.551300	0.908800
O251	O25	0.973100	0.449200	0.032500
O261	O26	0.746000	0.262100	0.313700
O271	O27	0.584400	0.339200	0.329800
O281	O28	0.219400	0.891100	0.680900
O291	O29	0.147100	0.006200	0.552800
O301	O30	0.118700	0.504300	0.813200
O311	O31	0.965800	0.444500	0.779000
O321	O32	0.941400	0.819600	0.391500
O331	O33	0.803800	0.712300	0.480100
O341	O34	0.760200	0.605600	0.702800
O351	O35	0.649700	0.476600	0.718400
O361	O36	0.153700	0.519100	0.581700
O371	O37	0.116300	0.578800	0.441900
O381	O38	0.691900	0.258200	0.533200
O391	O39	0.861300	0.241400	0.484100
O401	O40	0.547800	0.115800	0.489500
O411	O41	0.399200	0.000800	0.520100
O421	O42	0.653500	0.010500	0.393500
H221	H22	0.682500	0.999400	0.342500
Cd11	Cd1	0.520000	0.315110	0.469360
Cd21	Cd2	0.302490	0.070610	0.605590
Cd31	Cd3	0.022080	0.143720	0.523160
Cd41	Cd4	0.736800	0.121330	0.455280
