data_RUYQIN02_clean_PM
_symmetry_space_group_name_H-M	'P1'
_cell_length_a	24.244700
_cell_length_b	24.244700
_cell_length_c	13.170500
_cell_angle_alpha	90.000000
_cell_angle_beta	90.000000
_cell_angle_gamma	120.000000
_symmetry_Int_Tables_number 1

loop_
_symmetry_equiv_pos_as_xyz
'x,y,z'

loop_
_atom_site_label
_atom_site_type_symbol
_atom_site_fract_x
_atom_site_fract_y
_atom_site_fract_z
O11	O1	0.764800	0.035700	0.109400
O21	O2	0.715800	0.069800	0.000400
O31	O3	0.992900	0.567300	0.083500
C11	C1	0.942200	0.253800	0.012000
C21	C2	0.884400	0.246800	0.977000
H11	H1	0.883800	0.281100	0.946600
C31	C3	0.827800	0.188600	0.987600
H21	H2	0.790200	0.185000	0.962500
C41	C4	0.825500	0.138500	0.031900
C51	C5	0.940300	0.200800	0.062600
H31	H3	0.977600	0.204500	0.088700
C61	C6	0.881500	0.141800	0.073900
H41	H4	0.879900	0.107200	0.107100
C71	C7	0.766000	0.077100	0.046900
C81	C8	0.972400	0.384000	0.076900
H51	H5	0.952500	0.354700	0.129100
C91	C9	0.973700	0.440300	0.077800
H61	H6	0.956200	0.450100	0.133000
O41	O4	0.431470	0.369030	0.442730
O51	O5	0.382470	0.403130	0.333730
O61	O6	0.659570	0.900630	0.416830
C101	C10	0.608870	0.587130	0.345330
C111	C11	0.551070	0.580130	0.310330
H71	H7	0.550470	0.614430	0.279930
C121	C12	0.494470	0.521930	0.320930
H81	H8	0.456870	0.518330	0.295830
C131	C13	0.492170	0.471830	0.365230
C141	C14	0.606970	0.534130	0.395930
H91	H9	0.644270	0.537830	0.422030
C151	C15	0.548170	0.475130	0.407230
H101	H10	0.546570	0.440530	0.440430
C161	C16	0.432670	0.410430	0.380230
C171	C17	0.639070	0.717330	0.410230
H111	H11	0.619170	0.688030	0.462430
C181	C18	0.640370	0.773630	0.411130
H121	H12	0.622870	0.783430	0.466330
O71	O7	0.098130	0.702370	0.776070
O81	O8	0.049130	0.736470	0.667070
O91	O9	0.326230	0.233970	0.750170
C191	C19	0.275530	0.920470	0.678670
C201	C20	0.217730	0.913470	0.643670
H131	H13	0.217130	0.947770	0.613270
C211	C21	0.161130	0.855270	0.654270
H141	H14	0.123530	0.851670	0.629170
C221	C22	0.158830	0.805170	0.698570
C231	C23	0.273630	0.867470	0.729270
H151	H15	0.310930	0.871170	0.755370
C241	C24	0.214830	0.808470	0.740570
H161	H16	0.213230	0.773870	0.773770
C251	C25	0.099330	0.743770	0.713570
C261	C26	0.305730	0.050670	0.743570
H171	H17	0.285830	0.021370	0.795770
C271	C27	0.307030	0.106970	0.744470
H181	H18	0.289530	0.116770	0.799670
O101	O10	0.964300	0.729100	0.109400
O111	O11	0.930200	0.646000	0.000400
O121	O12	0.432700	0.425600	0.083500
C281	C28	0.746200	0.688400	0.012000
C291	C29	0.753200	0.637600	0.977000
H191	H19	0.718900	0.602700	0.946600
C301	C30	0.811400	0.639200	0.987600
H201	H20	0.815000	0.605200	0.962500
C311	C31	0.861500	0.687000	0.031900
C321	C32	0.799200	0.739500	0.062600
H211	H21	0.795500	0.773100	0.088700
C331	C33	0.858200	0.739700	0.073900
H221	H22	0.892800	0.772700	0.107100
C341	C34	0.922900	0.688900	0.046900
C351	C35	0.616000	0.588400	0.076900
H231	H23	0.645300	0.597800	0.129100
C361	C36	0.559700	0.533400	0.077800
H241	H24	0.549900	0.506100	0.133000
O131	O13	0.630970	0.062430	0.442730
O141	O14	0.596870	0.979330	0.333730
O151	O15	0.099370	0.758930	0.416830
C371	C37	0.412870	0.021730	0.345330
C381	C38	0.419870	0.970930	0.310330
H251	H25	0.385570	0.936030	0.279930
C391	C39	0.478070	0.972530	0.320930
H261	H26	0.481670	0.938530	0.295830
C401	C40	0.528170	0.020330	0.365230
C411	C41	0.465870	0.072830	0.395930
H271	H27	0.462170	0.106430	0.422030
C421	C42	0.524870	0.073030	0.407230
H281	H28	0.559470	0.106030	0.440430
C431	C43	0.589570	0.022230	0.380230
C441	C44	0.282670	0.921730	0.410230
H291	H29	0.311970	0.931130	0.462430
C451	C45	0.226370	0.866730	0.411130
H301	H30	0.216570	0.839430	0.466330
O161	O16	0.297630	0.395770	0.776070
O171	O17	0.263530	0.312670	0.667070
O181	O18	0.766030	0.092270	0.750170
C461	C46	0.079530	0.355070	0.678670
C471	C47	0.086530	0.304270	0.643670
H311	H31	0.052230	0.269370	0.613270
C481	C48	0.144730	0.305870	0.654270
H321	H32	0.148330	0.271870	0.629170
C491	C49	0.194830	0.353670	0.698570
C501	C50	0.132530	0.406170	0.729270
H331	H33	0.128830	0.439770	0.755370
C511	C51	0.191530	0.406370	0.740570
H341	H34	0.226130	0.439370	0.773770
C521	C52	0.256230	0.355570	0.713570
C531	C53	0.949330	0.255070	0.743570
H351	H35	0.978630	0.264470	0.795770
C541	C54	0.893030	0.200070	0.744470
H361	H36	0.883230	0.172770	0.799670
O191	O19	0.270900	0.235200	0.109400
O201	O20	0.354000	0.284200	0.000400
O211	O21	0.574400	0.007100	0.083500
C551	C55	0.311600	0.057800	0.012000
C561	C56	0.362400	0.115600	0.977000
H371	H37	0.397300	0.116200	0.946600
C571	C57	0.360800	0.172200	0.987600
H381	H38	0.394800	0.209800	0.962500
C581	C58	0.313000	0.174500	0.031900
C591	C59	0.260500	0.059700	0.062600
H391	H39	0.226900	0.022400	0.088700
C601	C60	0.260300	0.118500	0.073900
H401	H40	0.227300	0.120100	0.107100
C611	C61	0.311100	0.234000	0.046900
C621	C62	0.411600	0.027600	0.076900
H411	H41	0.402200	0.047500	0.129100
C631	C63	0.466600	0.026300	0.077800
H421	H42	0.493900	0.043800	0.133000
O221	O22	0.937570	0.568530	0.442730
O231	O23	0.020670	0.617530	0.333730
O241	O24	0.241070	0.340430	0.416830
C641	C64	0.978270	0.391130	0.345330
C651	C65	0.029070	0.448930	0.310330
H431	H43	0.063970	0.449530	0.279930
C661	C66	0.027470	0.505530	0.320930
H441	H44	0.061470	0.543130	0.295830
C671	C67	0.979670	0.507830	0.365230
C681	C68	0.927170	0.393030	0.395930
H451	H45	0.893570	0.355730	0.422030
C691	C69	0.926970	0.451830	0.407230
H461	H46	0.893970	0.453430	0.440430
C701	C70	0.977770	0.567330	0.380230
C711	C71	0.078270	0.360930	0.410230
H471	H47	0.068870	0.380830	0.462430
C721	C72	0.133270	0.359630	0.411130
H481	H48	0.160570	0.377130	0.466330
O251	O25	0.604230	0.901870	0.776070
O261	O26	0.687330	0.950870	0.667070
O271	O27	0.907730	0.673770	0.750170
C731	C73	0.644930	0.724470	0.678670
C741	C74	0.695730	0.782270	0.643670
H491	H49	0.730630	0.782870	0.613270
C751	C75	0.694130	0.838870	0.654270
H501	H50	0.728130	0.876470	0.629170
C761	C76	0.646330	0.841170	0.698570
C771	C77	0.593830	0.726370	0.729270
H511	H51	0.560230	0.689070	0.755370
C781	C78	0.593630	0.785170	0.740570
H521	H52	0.560630	0.786770	0.773770
C791	C79	0.644430	0.900670	0.713570
C801	C80	0.744930	0.694270	0.743570
H531	H53	0.735530	0.714170	0.795770
C811	C81	0.799930	0.692970	0.744470
H541	H54	0.827230	0.710470	0.799670
O281	O28	0.035700	0.764800	0.890600
O291	O29	0.069800	0.715800	0.999600
O301	O30	0.567300	0.992900	0.916500
C821	C82	0.253800	0.942200	0.988000
C831	C83	0.246800	0.884400	0.023000
H551	H55	0.281100	0.883800	0.053400
C841	C84	0.188600	0.827800	0.012400
H561	H56	0.185000	0.790200	0.037500
C851	C85	0.138500	0.825500	0.968100
C861	C86	0.200800	0.940300	0.937400
H571	H57	0.204500	0.977600	0.911300
C871	C87	0.141800	0.881500	0.926100
H581	H58	0.107200	0.879900	0.892900
C881	C88	0.077100	0.766000	0.953100
C891	C89	0.384000	0.972400	0.923100
H591	H59	0.354700	0.952500	0.870900
C901	C90	0.440300	0.973700	0.922200
H601	H60	0.450100	0.956200	0.867000
O311	O31	0.702370	0.098130	0.223930
O321	O32	0.736470	0.049130	0.332930
O331	O33	0.233970	0.326230	0.249830
C911	C91	0.920470	0.275530	0.321330
C921	C92	0.913470	0.217730	0.356330
H611	H61	0.947770	0.217130	0.386730
C931	C93	0.855270	0.161130	0.345730
H621	H62	0.851670	0.123530	0.370830
C941	C94	0.805170	0.158830	0.301430
C951	C95	0.867470	0.273630	0.270730
H631	H63	0.871170	0.310930	0.244630
C961	C96	0.808470	0.214830	0.259430
H641	H64	0.773870	0.213230	0.226230
C971	C97	0.743770	0.099330	0.286430
C981	C98	0.050670	0.305730	0.256430
H651	H65	0.021370	0.285830	0.204230
C991	C99	0.106970	0.307030	0.255530
H661	H66	0.116770	0.289530	0.200330
O341	O34	0.369030	0.431470	0.557270
O351	O35	0.403130	0.382470	0.666270
O361	O36	0.900630	0.659570	0.583170
C1001	C100	0.587130	0.608870	0.654670
C1011	C101	0.580130	0.551070	0.689670
H671	H67	0.614430	0.550470	0.720070
C1021	C102	0.521930	0.494470	0.679070
H681	H68	0.518330	0.456870	0.704170
C1031	C103	0.471830	0.492170	0.634770
C1041	C104	0.534130	0.606970	0.604070
H691	H69	0.537830	0.644270	0.577970
C1051	C105	0.475130	0.548170	0.592770
H701	H70	0.440530	0.546570	0.559570
C1061	C106	0.410430	0.432670	0.619770
C1071	C107	0.717330	0.639070	0.589770
H711	H71	0.688030	0.619170	0.537570
C1081	C108	0.773630	0.640370	0.588870
H721	H72	0.783430	0.622870	0.533670
O371	O37	0.729100	0.964300	0.890600
O381	O38	0.646000	0.930200	0.999600
O391	O39	0.425600	0.432700	0.916500
C1091	C109	0.688400	0.746200	0.988000
C1101	C110	0.637600	0.753200	0.023000
H731	H73	0.602700	0.718900	0.053400
C1111	C111	0.639200	0.811400	0.012400
H741	H74	0.605200	0.815000	0.037500
C1121	C112	0.687000	0.861500	0.968100
C1131	C113	0.739500	0.799200	0.937400
H751	H75	0.773100	0.795500	0.911300
C1141	C114	0.739700	0.858200	0.926100
H761	H76	0.772700	0.892800	0.892900
C1151	C115	0.688900	0.922900	0.953100
C1161	C116	0.588400	0.616000	0.923100
H771	H77	0.597800	0.645300	0.870900
C1171	C117	0.533400	0.559700	0.922200
H781	H78	0.506100	0.549900	0.867000
O401	O40	0.395770	0.297630	0.223930
O411	O41	0.312670	0.263530	0.332930
O421	O42	0.092270	0.766030	0.249830
C1181	C118	0.355070	0.079530	0.321330
C1191	C119	0.304270	0.086530	0.356330
H791	H79	0.269370	0.052230	0.386730
C1201	C120	0.305870	0.144730	0.345730
H801	H80	0.271870	0.148330	0.370830
C1211	C121	0.353670	0.194830	0.301430
C1221	C122	0.406170	0.132530	0.270730
H811	H81	0.439770	0.128830	0.244630
C1231	C123	0.406370	0.191530	0.259430
H821	H82	0.439370	0.226130	0.226230
C1241	C124	0.355570	0.256230	0.286430
C1251	C125	0.255070	0.949330	0.256430
H831	H83	0.264470	0.978630	0.204230
C1261	C126	0.200070	0.893030	0.255530
H841	H84	0.172770	0.883230	0.200330
O431	O43	0.062430	0.630970	0.557270
O441	O44	0.979330	0.596870	0.666270
O451	O45	0.758930	0.099370	0.583170
C1271	C127	0.021730	0.412870	0.654670
C1281	C128	0.970930	0.419870	0.689670
H851	H85	0.936030	0.385570	0.720070
C1291	C129	0.972530	0.478070	0.679070
H861	H86	0.938530	0.481670	0.704170
C1301	C130	0.020330	0.528170	0.634770
C1311	C131	0.072830	0.465870	0.604070
H871	H87	0.106430	0.462170	0.577970
C1321	C132	0.073030	0.524870	0.592770
H881	H88	0.106030	0.559470	0.559570
C1331	C133	0.022230	0.589570	0.619770
C1341	C134	0.921730	0.282670	0.589770
H891	H89	0.931130	0.311970	0.537570
C1351	C135	0.866730	0.226370	0.588870
H901	H90	0.839430	0.216570	0.533670
O461	O46	0.235200	0.270900	0.890600
O471	O47	0.284200	0.354000	0.999600
O481	O48	0.007100	0.574400	0.916500
C1361	C136	0.057800	0.311600	0.988000
C1371	C137	0.115600	0.362400	0.023000
H911	H91	0.116200	0.397300	0.053400
C1381	C138	0.172200	0.360800	0.012400
H921	H92	0.209800	0.394800	0.037500
C1391	C139	0.174500	0.313000	0.968100
C1401	C140	0.059700	0.260500	0.937400
H931	H93	0.022400	0.226900	0.911300
C1411	C141	0.118500	0.260300	0.926100
H941	H94	0.120100	0.227300	0.892900
C1421	C142	0.234000	0.311100	0.953100
C1431	C143	0.027600	0.411600	0.923100
H951	H95	0.047500	0.402200	0.870900
C1441	C144	0.026300	0.466600	0.922200
H961	H96	0.043800	0.493900	0.867000
O491	O49	0.901870	0.604230	0.223930
O501	O50	0.950870	0.687330	0.332930
O511	O51	0.673770	0.907730	0.249830
C1451	C145	0.724470	0.644930	0.321330
C1461	C146	0.782270	0.695730	0.356330
H971	H97	0.782870	0.730630	0.386730
C1471	C147	0.838870	0.694130	0.345730
H981	H98	0.876470	0.728130	0.370830
C1481	C148	0.841170	0.646330	0.301430
C1491	C149	0.726370	0.593830	0.270730
H991	H99	0.689070	0.560230	0.244630
C1501	C150	0.785170	0.593630	0.259430
H1001	H100	0.786770	0.560630	0.226230
C1511	C151	0.900670	0.644430	0.286430
C1521	C152	0.694270	0.744930	0.256430
H1011	H101	0.714170	0.735530	0.204230
C1531	C153	0.692970	0.799930	0.255530
H1021	H102	0.710470	0.827230	0.200330
O521	O52	0.568530	0.937570	0.557270
O531	O53	0.617530	0.020670	0.666270
O541	O54	0.340430	0.241070	0.583170
C1541	C154	0.391130	0.978270	0.654670
C1551	C155	0.448930	0.029070	0.689670
H1031	H103	0.449530	0.063970	0.720070
C1561	C156	0.505530	0.027470	0.679070
H1041	H104	0.543130	0.061470	0.704170
C1571	C157	0.507830	0.979670	0.634770
C1581	C158	0.393030	0.927170	0.604070
H1051	H105	0.355730	0.893570	0.577970
C1591	C159	0.451830	0.926970	0.592770
H1061	H106	0.453430	0.893970	0.559570
C1601	C160	0.567330	0.977770	0.619770
C1611	C161	0.360930	0.078270	0.589770
H1071	H107	0.380830	0.068870	0.537570
C1621	C162	0.359630	0.133270	0.588870
H1081	H108	0.377130	0.160570	0.533670
La11	La1	0.649030	0.982360	0.166670
La21	La2	0.315700	0.315700	0.500000
La31	La3	0.017640	0.666670	0.166670
La41	La4	0.684300	0.000000	0.500000
La51	La5	0.333330	0.350970	0.166670
La61	La6	0.000000	0.684300	0.500000
La71	La7	0.982360	0.649030	0.833330
La81	La8	0.666670	0.017640	0.833330
La91	La9	0.350970	0.333330	0.833330
N11	N1	0.000000	0.311600	0.000000
C1631	C163	0.000000	0.370500	0.000000
C1641	C164	0.000000	0.483900	0.000000
C1651	C165	0.000000	0.545700	0.000000
N21	N2	0.666670	0.644930	0.333330
C1661	C166	0.666670	0.703830	0.333330
C1671	C167	0.666670	0.817230	0.333330
C1681	C168	0.666670	0.879030	0.333330
N31	N3	0.333330	0.978270	0.666670
C1691	C169	0.333330	0.037170	0.666670
C1701	C170	0.333330	0.150570	0.666670
C1711	C171	0.333330	0.212370	0.666670
N41	N4	0.688400	0.688400	0.000000
C1721	C172	0.629500	0.629500	0.000000
C1731	C173	0.516100	0.516100	0.000000
C1741	C174	0.454300	0.454300	0.000000
N51	N5	0.355070	0.021730	0.333330
C1751	C175	0.296170	0.962830	0.333330
C1761	C176	0.182770	0.849430	0.333330
C1771	C177	0.120970	0.787630	0.333330
N61	N6	0.021730	0.355070	0.666670
C1781	C178	0.962830	0.296170	0.666670
C1791	C179	0.849430	0.182770	0.666670
C1801	C180	0.787630	0.120970	0.666670
N71	N7	0.311600	0.000000	0.000000
C1811	C181	0.370500	0.000000	0.000000
C1821	C182	0.483900	0.000000	0.000000
C1831	C183	0.545700	0.000000	0.000000
N81	N8	0.978270	0.333330	0.333330
C1841	C184	0.037170	0.333330	0.333330
C1851	C185	0.150570	0.333330	0.333330
C1861	C186	0.212370	0.333330	0.333330
N91	N9	0.644930	0.666670	0.666670
C1871	C187	0.703830	0.666670	0.666670
C1881	C188	0.817230	0.666670	0.666670
C1891	C189	0.879030	0.666670	0.666670
