data_RUYQIN03_clean_PM
_symmetry_space_group_name_H-M	'P1'
_cell_length_a	24.237200
_cell_length_b	24.237200
_cell_length_c	13.213500
_cell_angle_alpha	90.000000
_cell_angle_beta	90.000000
_cell_angle_gamma	120.000000
_symmetry_Int_Tables_number 1

loop_
_symmetry_equiv_pos_as_xyz
'x,y,z'

loop_
_atom_site_label
_atom_site_type_symbol
_atom_site_fract_x
_atom_site_fract_y
_atom_site_fract_z
O11	O1	0.765300	0.037600	0.108100
O21	O2	0.716600	0.069800	0.998800
O31	O3	0.994000	0.569000	0.083800
C11	C1	0.940700	0.252700	0.012900
C21	C2	0.884600	0.246800	0.974400
H11	H1	0.885200	0.281200	0.941900
C31	C3	0.827700	0.189600	0.984300
H21	H2	0.790200	0.185600	0.958500
C41	C4	0.826800	0.138300	0.032900
C51	C5	0.882900	0.144200	0.071400
H31	H3	0.882300	0.109900	0.103900
C61	C6	0.939800	0.201400	0.061500
H41	H4	0.977300	0.205400	0.087300
C71	C7	0.767000	0.077100	0.046100
C81	C8	0.972100	0.385600	0.077300
H51	H5	0.952900	0.356900	0.130100
C91	C9	0.972500	0.441700	0.077000
H61	H6	0.953600	0.451400	0.130200
O41	O4	0.431970	0.370930	0.441430
O51	O5	0.383270	0.403130	0.332130
O61	O6	0.660670	0.902330	0.417130
C101	C10	0.607370	0.586030	0.346230
C111	C11	0.551270	0.580130	0.307730
H71	H7	0.551870	0.614530	0.275230
C121	C12	0.494370	0.522930	0.317630
H81	H8	0.456870	0.518930	0.291830
C131	C13	0.493470	0.471630	0.366230
C141	C14	0.549570	0.477530	0.404730
H91	H9	0.548970	0.443230	0.437230
C151	C15	0.606470	0.534730	0.394830
H101	H10	0.643970	0.538730	0.420630
C161	C16	0.433670	0.410430	0.379430
C171	C17	0.638770	0.718930	0.410630
H111	H11	0.619570	0.690230	0.463430
C181	C18	0.639170	0.775030	0.410330
H121	H12	0.620270	0.784730	0.463530
O71	O7	0.098630	0.704270	0.774770
O81	O8	0.049930	0.736470	0.665470
O91	O9	0.327330	0.235670	0.750470
C191	C19	0.274030	0.919370	0.679570
C201	C20	0.217930	0.913470	0.641070
H131	H13	0.218530	0.947870	0.608570
C211	C21	0.161030	0.856270	0.650970
H141	H14	0.123530	0.852270	0.625170
C221	C22	0.160130	0.804970	0.699570
C231	C23	0.216230	0.810870	0.738070
H151	H15	0.215630	0.776570	0.770570
C241	C24	0.273130	0.868070	0.728170
H161	H16	0.310630	0.872070	0.753970
C251	C25	0.100330	0.743770	0.712770
C261	C26	0.305430	0.052270	0.743970
H171	H17	0.286230	0.023570	0.796770
C271	C27	0.305830	0.108370	0.743670
H181	H18	0.286930	0.118070	0.796870
O101	O10	0.962400	0.727700	0.108100
O111	O11	0.930200	0.646800	0.998800
O121	O12	0.431000	0.425000	0.083800
C281	C28	0.747300	0.688000	0.012900
C291	C29	0.753200	0.637800	0.974400
H191	H19	0.718800	0.604000	0.941900
C301	C30	0.810400	0.638100	0.984300
H201	H20	0.814400	0.604600	0.958500
C311	C31	0.861700	0.688500	0.032900
C321	C32	0.855800	0.738700	0.071400
H211	H21	0.890100	0.772400	0.103900
C331	C33	0.798600	0.738400	0.061500
H221	H22	0.794600	0.771900	0.087300
C341	C34	0.922900	0.689900	0.046100
C351	C35	0.614400	0.586500	0.077300
H231	H23	0.643100	0.596000	0.130100
C361	C36	0.558300	0.530800	0.077000
H241	H24	0.548600	0.502200	0.130200
O131	O13	0.629070	0.061030	0.441430
O141	O14	0.596870	0.980130	0.332130
O151	O15	0.097670	0.758330	0.417130
C371	C37	0.413970	0.021330	0.346230
C381	C38	0.419870	0.971130	0.307730
H251	H25	0.385470	0.937330	0.275230
C391	C39	0.477070	0.971430	0.317630
H261	H26	0.481070	0.937930	0.291830
C401	C40	0.528370	0.021830	0.366230
C411	C41	0.522470	0.072030	0.404730
H271	H27	0.556770	0.105730	0.437230
C421	C42	0.465270	0.071730	0.394830
H281	H28	0.461270	0.105230	0.420630
C431	C43	0.589570	0.023230	0.379430
C441	C44	0.281070	0.919830	0.410630
H291	H29	0.309770	0.929330	0.463430
C451	C45	0.224970	0.864130	0.410330
H301	H30	0.215270	0.835530	0.463530
O161	O16	0.295730	0.394370	0.774770
O171	O17	0.263530	0.313470	0.665470
O181	O18	0.764330	0.091670	0.750470
C461	C46	0.080630	0.354670	0.679570
C471	C47	0.086530	0.304470	0.641070
H311	H31	0.052130	0.270670	0.608570
C481	C48	0.143730	0.304770	0.650970
H321	H32	0.147730	0.271270	0.625170
C491	C49	0.195030	0.355170	0.699570
C501	C50	0.189130	0.405370	0.738070
H331	H33	0.223430	0.439070	0.770570
C511	C51	0.131930	0.405070	0.728170
H341	H34	0.127930	0.438570	0.753970
C521	C52	0.256230	0.356570	0.712770
C531	C53	0.947730	0.253170	0.743970
H351	H35	0.976430	0.262670	0.796770
C541	C54	0.891630	0.197470	0.743670
H361	H36	0.881930	0.168870	0.796870
O191	O19	0.272300	0.234700	0.108100
O201	O20	0.353200	0.283400	0.998800
O211	O21	0.575000	0.006000	0.083800
C551	C55	0.312000	0.059300	0.012900
C561	C56	0.362200	0.115400	0.974400
H371	H37	0.396000	0.114800	0.941900
C571	C57	0.361900	0.172300	0.984300
H381	H38	0.395400	0.209800	0.958500
C581	C58	0.311500	0.173200	0.032900
C591	C59	0.261300	0.117100	0.071400
H391	H39	0.227600	0.117700	0.103900
C601	C60	0.261600	0.060200	0.061500
H401	H40	0.228100	0.022700	0.087300
C611	C61	0.310100	0.233000	0.046100
C621	C62	0.413500	0.027900	0.077300
H411	H41	0.404000	0.047100	0.130100
C631	C63	0.469200	0.027500	0.077000
H421	H42	0.497800	0.046400	0.130200
O221	O22	0.938970	0.568030	0.441430
O231	O23	0.019870	0.616730	0.332130
O241	O24	0.241670	0.339330	0.417130
C641	C64	0.978670	0.392630	0.346230
C651	C65	0.028870	0.448730	0.307730
H431	H43	0.062670	0.448130	0.275230
C661	C66	0.028570	0.505630	0.317630
H441	H44	0.062070	0.543130	0.291830
C671	C67	0.978170	0.506530	0.366230
C681	C68	0.927970	0.450430	0.404730
H451	H45	0.894270	0.451030	0.437230
C691	C69	0.928270	0.393530	0.394830
H461	H46	0.894770	0.356030	0.420630
C701	C70	0.976770	0.566330	0.379430
C711	C71	0.080170	0.361230	0.410630
H471	H47	0.070670	0.380430	0.463430
C721	C72	0.135870	0.360830	0.410330
H481	H48	0.164470	0.379730	0.463530
O251	O25	0.605630	0.901370	0.774770
O261	O26	0.686530	0.950070	0.665470
O271	O27	0.908330	0.672670	0.750470
C731	C73	0.645330	0.725970	0.679570
C741	C74	0.695530	0.782070	0.641070
H491	H49	0.729330	0.781470	0.608570
C751	C75	0.695230	0.838970	0.650970
H501	H50	0.728730	0.876470	0.625170
C761	C76	0.644830	0.839870	0.699570
C771	C77	0.594630	0.783770	0.738070
H511	H51	0.560930	0.784370	0.770570
C781	C78	0.594930	0.726870	0.728170
H521	H52	0.561430	0.689370	0.753970
C791	C79	0.643430	0.899670	0.712770
C801	C80	0.746830	0.694570	0.743970
H531	H53	0.737330	0.713770	0.796770
C811	C81	0.802530	0.694170	0.743670
H541	H54	0.831130	0.713070	0.796870
O281	O28	0.037600	0.765300	0.891900
O291	O29	0.069800	0.716600	0.001200
O301	O30	0.569000	0.994000	0.916200
C821	C82	0.252700	0.940700	0.987100
C831	C83	0.246800	0.884600	0.025600
H551	H55	0.281200	0.885200	0.058100
C841	C84	0.189600	0.827700	0.015700
H561	H56	0.185600	0.790200	0.041500
C851	C85	0.138300	0.826800	0.967100
C861	C86	0.144200	0.882900	0.928600
H571	H57	0.109900	0.882300	0.896100
C871	C87	0.201400	0.939800	0.938500
H581	H58	0.205400	0.977300	0.912700
C881	C88	0.077100	0.767000	0.953900
C891	C89	0.385600	0.972100	0.922700
H591	H59	0.356900	0.952900	0.869900
C901	C90	0.441700	0.972500	0.923000
H601	H60	0.451400	0.953600	0.869800
O311	O31	0.704270	0.098630	0.225230
O321	O32	0.736470	0.049930	0.334530
O331	O33	0.235670	0.327330	0.249530
C911	C91	0.919370	0.274030	0.320430
C921	C92	0.913470	0.217930	0.358930
H611	H61	0.947870	0.218530	0.391430
C931	C93	0.856270	0.161030	0.349030
H621	H62	0.852270	0.123530	0.374830
C941	C94	0.804970	0.160130	0.300430
C951	C95	0.810870	0.216230	0.261930
H631	H63	0.776570	0.215630	0.229430
C961	C96	0.868070	0.273130	0.271830
H641	H64	0.872070	0.310630	0.246030
C971	C97	0.743770	0.100330	0.287230
C981	C98	0.052270	0.305430	0.256030
H651	H65	0.023570	0.286230	0.203230
C991	C99	0.108370	0.305830	0.256330
H661	H66	0.118070	0.286930	0.203130
O341	O34	0.370930	0.431970	0.558570
O351	O35	0.403130	0.383270	0.667870
O361	O36	0.902330	0.660670	0.582870
C1001	C100	0.586030	0.607370	0.653770
C1011	C101	0.580130	0.551270	0.692270
H671	H67	0.614530	0.551870	0.724770
C1021	C102	0.522930	0.494370	0.682370
H681	H68	0.518930	0.456870	0.708170
C1031	C103	0.471630	0.493470	0.633770
C1041	C104	0.477530	0.549570	0.595270
H691	H69	0.443230	0.548970	0.562770
C1051	C105	0.534730	0.606470	0.605170
H701	H70	0.538730	0.643970	0.579370
C1061	C106	0.410430	0.433670	0.620570
C1071	C107	0.718930	0.638770	0.589370
H711	H71	0.690230	0.619570	0.536570
C1081	C108	0.775030	0.639170	0.589670
H721	H72	0.784730	0.620270	0.536470
O371	O37	0.727700	0.962400	0.891900
O381	O38	0.646800	0.930200	0.001200
O391	O39	0.425000	0.431000	0.916200
C1091	C109	0.688000	0.747300	0.987100
C1101	C110	0.637800	0.753200	0.025600
H731	H73	0.604000	0.718800	0.058100
C1111	C111	0.638100	0.810400	0.015700
H741	H74	0.604600	0.814400	0.041500
C1121	C112	0.688500	0.861700	0.967100
C1131	C113	0.738700	0.855800	0.928600
H751	H75	0.772400	0.890100	0.896100
C1141	C114	0.738400	0.798600	0.938500
H761	H76	0.771900	0.794600	0.912700
C1151	C115	0.689900	0.922900	0.953900
C1161	C116	0.586500	0.614400	0.922700
H771	H77	0.596000	0.643100	0.869900
C1171	C117	0.530800	0.558300	0.923000
H781	H78	0.502200	0.548600	0.869800
O401	O40	0.394370	0.295730	0.225230
O411	O41	0.313470	0.263530	0.334530
O421	O42	0.091670	0.764330	0.249530
C1181	C118	0.354670	0.080630	0.320430
C1191	C119	0.304470	0.086530	0.358930
H791	H79	0.270670	0.052130	0.391430
C1201	C120	0.304770	0.143730	0.349030
H801	H80	0.271270	0.147730	0.374830
C1211	C121	0.355170	0.195030	0.300430
C1221	C122	0.405370	0.189130	0.261930
H811	H81	0.439070	0.223430	0.229430
C1231	C123	0.405070	0.131930	0.271830
H821	H82	0.438570	0.127930	0.246030
C1241	C124	0.356570	0.256230	0.287230
C1251	C125	0.253170	0.947730	0.256030
H831	H83	0.262670	0.976430	0.203230
C1261	C126	0.197470	0.891630	0.256330
H841	H84	0.168870	0.881930	0.203130
O431	O43	0.061030	0.629070	0.558570
O441	O44	0.980130	0.596870	0.667870
O451	O45	0.758330	0.097670	0.582870
C1271	C127	0.021330	0.413970	0.653770
C1281	C128	0.971130	0.419870	0.692270
H851	H85	0.937330	0.385470	0.724770
C1291	C129	0.971430	0.477070	0.682370
H861	H86	0.937930	0.481070	0.708170
C1301	C130	0.021830	0.528370	0.633770
C1311	C131	0.072030	0.522470	0.595270
H871	H87	0.105730	0.556770	0.562770
C1321	C132	0.071730	0.465270	0.605170
H881	H88	0.105230	0.461270	0.579370
C1331	C133	0.023230	0.589570	0.620570
C1341	C134	0.919830	0.281070	0.589370
H891	H89	0.929330	0.309770	0.536570
C1351	C135	0.864130	0.224970	0.589670
H901	H90	0.835530	0.215270	0.536470
O461	O46	0.234700	0.272300	0.891900
O471	O47	0.283400	0.353200	0.001200
O481	O48	0.006000	0.575000	0.916200
C1361	C136	0.059300	0.312000	0.987100
C1371	C137	0.115400	0.362200	0.025600
H911	H91	0.114800	0.396000	0.058100
C1381	C138	0.172300	0.361900	0.015700
H921	H92	0.209800	0.395400	0.041500
C1391	C139	0.173200	0.311500	0.967100
C1401	C140	0.117100	0.261300	0.928600
H931	H93	0.117700	0.227600	0.896100
C1411	C141	0.060200	0.261600	0.938500
H941	H94	0.022700	0.228100	0.912700
C1421	C142	0.233000	0.310100	0.953900
C1431	C143	0.027900	0.413500	0.922700
H951	H95	0.047100	0.404000	0.869900
C1441	C144	0.027500	0.469200	0.923000
H961	H96	0.046400	0.497800	0.869800
O491	O49	0.901370	0.605630	0.225230
O501	O50	0.950070	0.686530	0.334530
O511	O51	0.672670	0.908330	0.249530
C1451	C145	0.725970	0.645330	0.320430
C1461	C146	0.782070	0.695530	0.358930
H971	H97	0.781470	0.729330	0.391430
C1471	C147	0.838970	0.695230	0.349030
H981	H98	0.876470	0.728730	0.374830
C1481	C148	0.839870	0.644830	0.300430
C1491	C149	0.783770	0.594630	0.261930
H991	H99	0.784370	0.560930	0.229430
C1501	C150	0.726870	0.594930	0.271830
H1001	H100	0.689370	0.561430	0.246030
C1511	C151	0.899670	0.643430	0.287230
C1521	C152	0.694570	0.746830	0.256030
H1011	H101	0.713770	0.737330	0.203230
C1531	C153	0.694170	0.802530	0.256330
H1021	H102	0.713070	0.831130	0.203130
O521	O52	0.568030	0.938970	0.558570
O531	O53	0.616730	0.019870	0.667870
O541	O54	0.339330	0.241670	0.582870
C1541	C154	0.392630	0.978670	0.653770
C1551	C155	0.448730	0.028870	0.692270
H1031	H103	0.448130	0.062670	0.724770
C1561	C156	0.505630	0.028570	0.682370
H1041	H104	0.543130	0.062070	0.708170
C1571	C157	0.506530	0.978170	0.633770
C1581	C158	0.450430	0.927970	0.595270
H1051	H105	0.451030	0.894270	0.562770
C1591	C159	0.393530	0.928270	0.605170
H1061	H106	0.356030	0.894770	0.579370
C1601	C160	0.566330	0.976770	0.620570
C1611	C161	0.361230	0.080170	0.589370
H1071	H107	0.380430	0.070670	0.536570
C1621	C162	0.360830	0.135870	0.589670
H1081	H108	0.379730	0.164470	0.536470
La11	La1	0.650710	0.984040	0.166670
La21	La2	0.317380	0.317380	0.500000
La31	La3	0.015960	0.666670	0.166670
La41	La4	0.682620	0.000000	0.500000
La51	La5	0.333330	0.349290	0.166670
La61	La6	0.000000	0.682620	0.500000
La71	La7	0.984040	0.650710	0.833330
La81	La8	0.666670	0.015960	0.833330
La91	La9	0.349290	0.333330	0.833330
N11	N1	0.000000	0.310800	0.000000
C1631	C163	0.000000	0.371500	0.000000
C1641	C164	0.000000	0.484100	0.000000
C1651	C165	0.000000	0.548400	0.000000
N21	N2	0.666670	0.644130	0.333330
C1661	C166	0.666670	0.704830	0.333330
C1671	C167	0.666670	0.817430	0.333330
C1681	C168	0.666670	0.881730	0.333330
N31	N3	0.333330	0.977470	0.666670
C1691	C169	0.333330	0.038170	0.666670
C1701	C170	0.333330	0.150770	0.666670
C1711	C171	0.333330	0.215070	0.666670
N41	N4	0.689200	0.689200	0.000000
C1721	C172	0.628500	0.628500	0.000000
C1731	C173	0.515900	0.515900	0.000000
C1741	C174	0.451600	0.451600	0.000000
N51	N5	0.355870	0.022530	0.333330
C1751	C175	0.295170	0.961830	0.333330
C1761	C176	0.182570	0.849230	0.333330
C1771	C177	0.118270	0.784930	0.333330
N61	N6	0.022530	0.355870	0.666670
C1781	C178	0.961830	0.295170	0.666670
C1791	C179	0.849230	0.182570	0.666670
C1801	C180	0.784930	0.118270	0.666670
N71	N7	0.310800	0.000000	0.000000
C1811	C181	0.371500	0.000000	0.000000
C1821	C182	0.484100	0.000000	0.000000
C1831	C183	0.548400	0.000000	0.000000
N81	N8	0.977470	0.333330	0.333330
C1841	C184	0.038170	0.333330	0.333330
C1851	C185	0.150770	0.333330	0.333330
C1861	C186	0.215070	0.333330	0.333330
N91	N9	0.644130	0.666670	0.666670
C1871	C187	0.704830	0.666670	0.666670
C1881	C188	0.817430	0.666670	0.666670
C1891	C189	0.881730	0.666670	0.666670
