data_RUYTUC_clean_PM
_symmetry_space_group_name_H-M	'P1'
_cell_length_a	24.171900
_cell_length_b	24.171900
_cell_length_c	13.011000
_cell_angle_alpha	90.000000
_cell_angle_beta	90.000000
_cell_angle_gamma	120.000000
_symmetry_Int_Tables_number 1

loop_
_symmetry_equiv_pos_as_xyz
'x,y,z'

loop_
_atom_site_label
_atom_site_type_symbol
_atom_site_fract_x
_atom_site_fract_y
_atom_site_fract_z
O11	O1	0.569100	0.938100	0.057800
O21	O2	0.617800	0.019600	0.163600
O31	O3	0.321900	0.232000	0.249000
C11	C1	0.391600	0.976800	0.153800
C21	C2	0.447900	0.027600	0.191700
H11	H1	0.447300	0.061500	0.224300
C31	C3	0.505100	0.027700	0.180800
H21	H2	0.542800	0.061700	0.206200
C41	C4	0.506100	0.977000	0.132100
C51	C5	0.449800	0.926200	0.094200
H31	H3	0.450400	0.892300	0.061600
C61	C6	0.392530	0.926100	0.105100
H41	H4	0.354900	0.892100	0.079700
C71	C7	0.566900	0.974700	0.120000
C81	C8	0.366000	0.081300	0.090700
H51	H5	0.389000	0.074200	0.040300
C91	C9	0.364500	0.137500	0.089500
H61	H6	0.384600	0.166500	0.036500
O41	O4	0.235770	0.271430	0.391130
O51	O5	0.284470	0.352930	0.496930
O61	O6	0.988570	0.565330	0.582330
C101	C10	0.058270	0.310130	0.487130
C111	C11	0.114570	0.360930	0.525030
H71	H7	0.113970	0.394830	0.557630
C121	C12	0.171770	0.361030	0.514130
H81	H8	0.209470	0.395030	0.539530
C131	C13	0.172770	0.310330	0.465430
C141	C14	0.116470	0.259530	0.427530
H91	H9	0.117070	0.225630	0.394930
C151	C15	0.059200	0.259430	0.438430
H101	H10	0.021570	0.225430	0.413030
C161	C16	0.233570	0.308030	0.453330
C171	C17	0.032670	0.414630	0.424030
H111	H11	0.055670	0.407530	0.373630
C181	C18	0.031170	0.470830	0.422830
H121	H12	0.051270	0.499830	0.369830
O71	O7	0.902430	0.604770	0.724470
O81	O8	0.951130	0.686270	0.830270
O91	O9	0.655230	0.898670	0.915670
C191	C19	0.724930	0.643470	0.820470
C201	C20	0.781230	0.694270	0.858370
H131	H13	0.780630	0.728170	0.890970
C211	C21	0.838430	0.694370	0.847470
H141	H14	0.876130	0.728370	0.872870
C221	C22	0.839430	0.643670	0.798770
C231	C23	0.783130	0.592870	0.760870
H151	H15	0.783730	0.558970	0.728270
C241	C24	0.725860	0.592770	0.771770
H161	H16	0.688230	0.558770	0.746370
C251	C25	0.900230	0.641370	0.786670
C261	C26	0.699330	0.747970	0.757370
H171	H17	0.722330	0.740870	0.706970
C271	C27	0.697830	0.804170	0.756170
H181	H18	0.717930	0.833170	0.703170
O101	O10	0.061900	0.631000	0.057800
O111	O11	0.980400	0.598200	0.163600
O121	O12	0.768000	0.089900	0.249000
C281	C28	0.023200	0.414800	0.153800
C291	C29	0.972400	0.420300	0.191700
H191	H19	0.938500	0.385800	0.224300
C301	C30	0.972300	0.477400	0.180800
H201	H20	0.938300	0.481100	0.206200
C311	C31	0.023000	0.529100	0.132100
C321	C32	0.073800	0.523600	0.094200
H211	H21	0.107700	0.558100	0.061600
C331	C33	0.073900	0.466430	0.105100
H221	H22	0.107900	0.462800	0.079700
C341	C34	0.025300	0.592200	0.120000
C351	C35	0.918700	0.284700	0.090700
H231	H23	0.925800	0.314800	0.040300
C361	C36	0.862500	0.227000	0.089500
H241	H24	0.833500	0.218100	0.036500
O131	O13	0.728570	0.964330	0.391130
O141	O14	0.647070	0.931530	0.496930
O151	O15	0.434670	0.423230	0.582330
C371	C37	0.689870	0.748130	0.487130
C381	C38	0.639070	0.753630	0.525030
H251	H25	0.605170	0.719130	0.557630
C391	C39	0.638970	0.810730	0.514130
H261	H26	0.604970	0.814430	0.539530
C401	C40	0.689670	0.862430	0.465430
C411	C41	0.740470	0.856930	0.427530
H271	H27	0.774370	0.891430	0.394930
C421	C42	0.740570	0.799760	0.438430
H281	H28	0.774570	0.796130	0.413030
C431	C43	0.691970	0.925530	0.453330
C441	C44	0.585370	0.618030	0.424030
H291	H29	0.592470	0.648130	0.373630
C451	C45	0.529170	0.560330	0.422830
H301	H30	0.500170	0.551430	0.369830
O161	O16	0.395230	0.297670	0.724470
O171	O17	0.313730	0.264870	0.830270
O181	O18	0.101330	0.756570	0.915670
C461	C46	0.356530	0.081470	0.820470
C471	C47	0.305730	0.086970	0.858370
H311	H31	0.271830	0.052470	0.890970
C481	C48	0.305630	0.144070	0.847470
H321	H32	0.271630	0.147770	0.872870
C491	C49	0.356330	0.195770	0.798770
C501	C50	0.407130	0.190270	0.760870
H331	H33	0.441030	0.224770	0.728270
C511	C51	0.407230	0.133100	0.771770
H341	H34	0.441230	0.129470	0.746370
C521	C52	0.358630	0.258870	0.786670
C531	C53	0.252030	0.951370	0.757370
H351	H35	0.259130	0.981470	0.706970
C541	C54	0.195830	0.893670	0.756170
H361	H36	0.166830	0.884770	0.703170
O191	O19	0.369000	0.430900	0.057800
O201	O20	0.401800	0.382200	0.163600
O211	O21	0.910100	0.678100	0.249000
C551	C55	0.585200	0.608400	0.153800
C561	C56	0.579700	0.552100	0.191700
H371	H37	0.614200	0.552700	0.224300
C571	C57	0.522600	0.494900	0.180800
H381	H38	0.518900	0.457200	0.206200
C581	C58	0.470900	0.493900	0.132100
C591	C59	0.476400	0.550200	0.094200
H391	H39	0.441900	0.549600	0.061600
C601	C60	0.533570	0.607470	0.105100
H401	H40	0.537200	0.645100	0.079700
C611	C61	0.407800	0.433100	0.120000
C621	C62	0.715300	0.634000	0.090700
H411	H41	0.685200	0.611000	0.040300
C631	C63	0.773000	0.635500	0.089500
H421	H42	0.781900	0.615400	0.036500
O221	O22	0.035670	0.764230	0.391130
O231	O23	0.068470	0.715530	0.496930
O241	O24	0.576770	0.011430	0.582330
C641	C64	0.251870	0.941730	0.487130
C651	C65	0.246370	0.885430	0.525030
H431	H43	0.280870	0.886030	0.557630
C661	C66	0.189270	0.828230	0.514130
H441	H44	0.185570	0.790530	0.539530
C671	C67	0.137570	0.827230	0.465430
C681	C68	0.143070	0.883530	0.427530
H451	H45	0.108570	0.882930	0.394930
C691	C69	0.200240	0.940800	0.438430
H461	H46	0.203870	0.978430	0.413030
C701	C70	0.074470	0.766430	0.453330
C711	C71	0.381970	0.967330	0.424030
H471	H47	0.351870	0.944330	0.373630
C721	C72	0.439670	0.968830	0.422830
H481	H48	0.448570	0.948730	0.369830
O251	O25	0.702330	0.097570	0.724470
O261	O26	0.735130	0.048870	0.830270
O271	O27	0.243430	0.344770	0.915670
C731	C73	0.918530	0.275070	0.820470
C741	C74	0.913030	0.218770	0.858370
H491	H49	0.947530	0.219370	0.890970
C751	C75	0.855930	0.161570	0.847470
H501	H50	0.852230	0.123870	0.872870
C761	C76	0.804230	0.160570	0.798770
C771	C77	0.809730	0.216870	0.760870
H511	H51	0.775230	0.216270	0.728270
C781	C78	0.866900	0.274140	0.771770
H521	H52	0.870530	0.311770	0.746370
C791	C79	0.741130	0.099770	0.786670
C801	C80	0.048630	0.300670	0.757370
H531	H53	0.018530	0.277670	0.706970
C811	C81	0.106330	0.302170	0.756170
H541	H54	0.115230	0.282070	0.703170
O281	O28	0.938100	0.569100	0.942200
O291	O29	0.019600	0.617800	0.836400
O301	O30	0.232000	0.321900	0.751000
C821	C82	0.976800	0.391600	0.846200
C831	C83	0.027600	0.447900	0.808300
H551	H55	0.061500	0.447300	0.775700
C841	C84	0.027700	0.505100	0.819200
H561	H56	0.061700	0.542800	0.793800
C851	C85	0.977000	0.506100	0.867900
C861	C86	0.926200	0.449800	0.905800
H571	H57	0.892300	0.450400	0.938400
C871	C87	0.926100	0.392530	0.894900
H581	H58	0.892100	0.354900	0.920300
C881	C88	0.974700	0.566900	0.880000
C891	C89	0.081300	0.366000	0.909300
H591	H59	0.074200	0.389000	0.959700
C901	C90	0.137500	0.364500	0.910500
H601	H60	0.166500	0.384600	0.963500
O311	O31	0.604770	0.902430	0.275530
O321	O32	0.686270	0.951130	0.169730
O331	O33	0.898670	0.655230	0.084330
C911	C91	0.643470	0.724930	0.179530
C921	C92	0.694270	0.781230	0.141630
H611	H61	0.728170	0.780630	0.109030
C931	C93	0.694370	0.838430	0.152530
H621	H62	0.728370	0.876130	0.127130
C941	C94	0.643670	0.839430	0.201230
C951	C95	0.592870	0.783130	0.239130
H631	H63	0.558970	0.783730	0.271730
C961	C96	0.592770	0.725860	0.228230
H641	H64	0.558770	0.688230	0.253630
C971	C97	0.641370	0.900230	0.213330
C981	C98	0.747970	0.699330	0.242630
H651	H65	0.740870	0.722330	0.293030
C991	C99	0.804170	0.697830	0.243830
H661	H66	0.833170	0.717930	0.296830
O341	O34	0.271430	0.235770	0.608870
O351	O35	0.352930	0.284470	0.503070
O361	O36	0.565330	0.988570	0.417670
C1001	C100	0.310130	0.058270	0.512870
C1011	C101	0.360930	0.114570	0.474970
H671	H67	0.394830	0.113970	0.442370
C1021	C102	0.361030	0.171770	0.485870
H681	H68	0.395030	0.209470	0.460470
C1031	C103	0.310330	0.172770	0.534570
C1041	C104	0.259530	0.116470	0.572470
H691	H69	0.225630	0.117070	0.605070
C1051	C105	0.259430	0.059200	0.561570
H701	H70	0.225430	0.021570	0.586970
C1061	C106	0.308030	0.233570	0.546670
C1071	C107	0.414630	0.032670	0.575970
H711	H71	0.407530	0.055670	0.626370
C1081	C108	0.470830	0.031170	0.577170
H721	H72	0.499830	0.051270	0.630170
O371	O37	0.631000	0.061900	0.942200
O381	O38	0.598200	0.980400	0.836400
O391	O39	0.089900	0.768000	0.751000
C1091	C109	0.414800	0.023200	0.846200
C1101	C110	0.420300	0.972400	0.808300
H731	H73	0.385800	0.938500	0.775700
C1111	C111	0.477400	0.972300	0.819200
H741	H74	0.481100	0.938300	0.793800
C1121	C112	0.529100	0.023000	0.867900
C1131	C113	0.523600	0.073800	0.905800
H751	H75	0.558100	0.107700	0.938400
C1141	C114	0.466430	0.073900	0.894900
H761	H76	0.462800	0.107900	0.920300
C1151	C115	0.592200	0.025300	0.880000
C1161	C116	0.284700	0.918700	0.909300
H771	H77	0.314800	0.925800	0.959700
C1171	C117	0.227000	0.862500	0.910500
H781	H78	0.218100	0.833500	0.963500
O401	O40	0.297670	0.395230	0.275530
O411	O41	0.264870	0.313730	0.169730
O421	O42	0.756570	0.101330	0.084330
C1181	C118	0.081470	0.356530	0.179530
C1191	C119	0.086970	0.305730	0.141630
H791	H79	0.052470	0.271830	0.109030
C1201	C120	0.144070	0.305630	0.152530
H801	H80	0.147770	0.271630	0.127130
C1211	C121	0.195770	0.356330	0.201230
C1221	C122	0.190270	0.407130	0.239130
H811	H81	0.224770	0.441030	0.271730
C1231	C123	0.133100	0.407230	0.228230
H821	H82	0.129470	0.441230	0.253630
C1241	C124	0.258870	0.358630	0.213330
C1251	C125	0.951370	0.252030	0.242630
H831	H83	0.981470	0.259130	0.293030
C1261	C126	0.893670	0.195830	0.243830
H841	H84	0.884770	0.166830	0.296830
O431	O43	0.964330	0.728570	0.608870
O441	O44	0.931530	0.647070	0.503070
O451	O45	0.423230	0.434670	0.417670
C1271	C127	0.748130	0.689870	0.512870
C1281	C128	0.753630	0.639070	0.474970
H851	H85	0.719130	0.605170	0.442370
C1291	C129	0.810730	0.638970	0.485870
H861	H86	0.814430	0.604970	0.460470
C1301	C130	0.862430	0.689670	0.534570
C1311	C131	0.856930	0.740470	0.572470
H871	H87	0.891430	0.774370	0.605070
C1321	C132	0.799760	0.740570	0.561570
H881	H88	0.796130	0.774570	0.586970
C1331	C133	0.925530	0.691970	0.546670
C1341	C134	0.618030	0.585370	0.575970
H891	H89	0.648130	0.592470	0.626370
C1351	C135	0.560330	0.529170	0.577170
H901	H90	0.551430	0.500170	0.630170
O461	O46	0.430900	0.369000	0.942200
O471	O47	0.382200	0.401800	0.836400
O481	O48	0.678100	0.910100	0.751000
C1361	C136	0.608400	0.585200	0.846200
C1371	C137	0.552100	0.579700	0.808300
H911	H91	0.552700	0.614200	0.775700
C1381	C138	0.494900	0.522600	0.819200
H921	H92	0.457200	0.518900	0.793800
C1391	C139	0.493900	0.470900	0.867900
C1401	C140	0.550200	0.476400	0.905800
H931	H93	0.549600	0.441900	0.938400
C1411	C141	0.607470	0.533570	0.894900
H941	H94	0.645100	0.537200	0.920300
C1421	C142	0.433100	0.407800	0.880000
C1431	C143	0.634000	0.715300	0.909300
H951	H95	0.611000	0.685200	0.959700
C1441	C144	0.635500	0.773000	0.910500
H961	H96	0.615400	0.781900	0.963500
O491	O49	0.097570	0.702330	0.275530
O501	O50	0.048870	0.735130	0.169730
O511	O51	0.344770	0.243430	0.084330
C1451	C145	0.275070	0.918530	0.179530
C1461	C146	0.218770	0.913030	0.141630
H971	H97	0.219370	0.947530	0.109030
C1471	C147	0.161570	0.855930	0.152530
H981	H98	0.123870	0.852230	0.127130
C1481	C148	0.160570	0.804230	0.201230
C1491	C149	0.216870	0.809730	0.239130
H991	H99	0.216270	0.775230	0.271730
C1501	C150	0.274140	0.866900	0.228230
H1001	H100	0.311770	0.870530	0.253630
C1511	C151	0.099770	0.741130	0.213330
C1521	C152	0.300670	0.048630	0.242630
H1011	H101	0.277670	0.018530	0.293030
C1531	C153	0.302170	0.106330	0.243830
H1021	H102	0.282070	0.115230	0.296830
O521	O52	0.764230	0.035670	0.608870
O531	O53	0.715530	0.068470	0.503070
O541	O54	0.011430	0.576770	0.417670
C1541	C154	0.941730	0.251870	0.512870
C1551	C155	0.885430	0.246370	0.474970
H1031	H103	0.886030	0.280870	0.442370
C1561	C156	0.828230	0.189270	0.485870
H1041	H104	0.790530	0.185570	0.460470
C1571	C157	0.827230	0.137570	0.534570
C1581	C158	0.883530	0.143070	0.572470
H1051	H105	0.882930	0.108570	0.605070
C1591	C159	0.940800	0.200240	0.561570
H1061	H106	0.978430	0.203870	0.586970
C1601	C160	0.766430	0.074470	0.546670
C1611	C161	0.967330	0.381970	0.575970
H1071	H107	0.944330	0.351870	0.626370
C1621	C162	0.968830	0.439670	0.577170
H1081	H108	0.948730	0.448570	0.630170
La11	La1	0.666670	0.018050	0.333330
La21	La2	0.981950	0.648610	0.333330
La31	La3	0.351390	0.333330	0.333330
La41	La4	0.018050	0.666670	0.666670
La51	La5	0.684720	0.000000	0.000000
La61	La6	0.648610	0.981950	0.666670
La71	La7	0.315280	0.315280	0.000000
La81	La8	0.333330	0.351390	0.666670
La91	La9	0.000000	0.684720	0.000000
N11	N1	0.333330	0.975520	0.166670
C1631	C163	0.333330	0.034220	0.166670
C1641	C164	0.333330	0.151420	0.166670
C1651	C165	0.333330	0.213020	0.166670
N21	N2	0.000000	0.308850	0.500000
C1661	C166	0.000000	0.367550	0.500000
C1671	C167	0.000000	0.484750	0.500000
C1681	C168	0.000000	0.546350	0.500000
N31	N3	0.024480	0.357820	0.166670
C1691	C169	0.965780	0.299120	0.166670
C1701	C170	0.848580	0.181920	0.166670
C1711	C171	0.786980	0.120320	0.166670
N41	N4	0.691150	0.691150	0.500000
C1721	C172	0.632450	0.632450	0.500000
C1731	C173	0.515250	0.515250	0.500000
C1741	C174	0.453650	0.453650	0.500000
N51	N5	0.642180	0.666670	0.166670
C1751	C175	0.700880	0.666670	0.166670
C1761	C176	0.818080	0.666670	0.166670
C1771	C177	0.879680	0.666670	0.166670
N61	N6	0.308850	0.000000	0.500000
C1781	C178	0.367550	0.000000	0.500000
C1791	C179	0.484750	0.000000	0.500000
C1801	C180	0.546350	0.000000	0.500000
N71	N7	0.975520	0.333330	0.833330
C1811	C181	0.034220	0.333330	0.833330
C1821	C182	0.151420	0.333330	0.833330
C1831	C183	0.213020	0.333330	0.833330
N81	N8	0.357820	0.024480	0.833330
C1841	C184	0.299120	0.965780	0.833330
C1851	C185	0.181920	0.848580	0.833330
C1861	C186	0.120320	0.786980	0.833330
N91	N9	0.666670	0.642180	0.833330
C1871	C187	0.666670	0.700880	0.833330
C1881	C188	0.666670	0.818080	0.833330
C1891	C189	0.666670	0.879680	0.833330
