data_RUYTIQ_clean_PM
_symmetry_space_group_name_H-M	'P1'
_cell_length_a	24.313000
_cell_length_b	24.313000
_cell_length_c	13.184000
_cell_angle_alpha	90.000000
_cell_angle_beta	90.000000
_cell_angle_gamma	120.000000
_symmetry_Int_Tables_number 1

loop_
_symmetry_equiv_pos_as_xyz
'x,y,z'

loop_
_atom_site_label
_atom_site_type_symbol
_atom_site_fract_x
_atom_site_fract_y
_atom_site_fract_z
O11	O1	0.767400	0.038300	0.105300
O21	O2	0.719200	0.072400	0.997400
O31	O3	0.999200	0.571500	0.085000
C11	C1	0.942400	0.255700	0.013200
C21	C2	0.886800	0.250500	0.974300
H11	H1	0.887800	0.285200	0.942700
C31	C3	0.829800	0.193500	0.982600
H21	H2	0.792700	0.190100	0.956600
C41	C4	0.828400	0.141700	0.029800
C51	C5	0.884000	0.146900	0.068700
H31	H3	0.883000	0.112200	0.100300
C61	C6	0.940900	0.203900	0.060400
H41	H4	0.978100	0.207400	0.086300
C71	C7	0.770500	0.079100	0.045900
C81	C8	0.972900	0.385100	0.075500
H51	H5	0.953600	0.356700	0.128700
C91	C9	0.972800	0.442400	0.076800
H61	H6	0.953700	0.450700	0.131100
O41	O4	0.434070	0.371630	0.438630
O51	O5	0.385870	0.405730	0.330730
O61	O6	0.665870	0.904830	0.418330
C101	C10	0.609070	0.589030	0.346530
C111	C11	0.553470	0.583830	0.307630
H71	H7	0.554470	0.618530	0.276030
C121	C12	0.496470	0.526830	0.315930
H81	H8	0.459370	0.523430	0.289930
C131	C13	0.495070	0.475030	0.363130
C141	C14	0.550670	0.480230	0.402030
H91	H9	0.549670	0.445530	0.433630
C151	C15	0.607570	0.537230	0.393730
H101	H10	0.644770	0.540730	0.419630
C161	C16	0.437170	0.412430	0.379230
C171	C17	0.639570	0.718430	0.408830
H111	H11	0.620270	0.690030	0.462030
C181	C18	0.639470	0.775730	0.410130
H121	H12	0.620370	0.784030	0.464430
O71	O7	0.100730	0.704970	0.771970
O81	O8	0.052530	0.739070	0.664070
O91	O9	0.332530	0.238170	0.751670
C191	C19	0.275730	0.922370	0.679870
C201	C20	0.220130	0.917170	0.640970
H131	H13	0.221130	0.951870	0.609370
C211	C21	0.163130	0.860170	0.649270
H141	H14	0.126030	0.856770	0.623270
C221	C22	0.161730	0.808370	0.696470
C231	C23	0.217330	0.813570	0.735370
H151	H15	0.216330	0.778870	0.766970
C241	C24	0.274230	0.870570	0.727070
H161	H16	0.311430	0.874070	0.752970
C251	C25	0.103830	0.745770	0.712570
C261	C26	0.306230	0.051770	0.742170
H171	H17	0.286930	0.023370	0.795370
C271	C27	0.306130	0.109070	0.743470
H181	H18	0.287030	0.117370	0.797770
O101	O10	0.961700	0.729100	0.105300
O111	O11	0.927600	0.646800	0.997400
O121	O12	0.428500	0.427700	0.085000
C281	C28	0.744300	0.686700	0.013200
C291	C29	0.749500	0.636300	0.974300
H191	H19	0.714800	0.602600	0.942700
C301	C30	0.806500	0.636300	0.982600
H201	H20	0.809900	0.602600	0.956600
C311	C31	0.858300	0.686700	0.029800
C321	C32	0.853100	0.737100	0.068700
H211	H21	0.887800	0.770800	0.100300
C331	C33	0.796100	0.737000	0.060400
H221	H22	0.792600	0.770700	0.086300
C341	C34	0.920900	0.691400	0.045900
C351	C35	0.614900	0.587800	0.075500
H231	H23	0.643300	0.596900	0.128700
C361	C36	0.557600	0.530400	0.076800
H241	H24	0.549300	0.503000	0.131100
O131	O13	0.628370	0.062430	0.438630
O141	O14	0.594270	0.980130	0.330730
O151	O15	0.095170	0.761030	0.418330
C371	C37	0.410970	0.020030	0.346530
C381	C38	0.416170	0.969630	0.307630
H251	H25	0.381470	0.935930	0.276030
C391	C39	0.473170	0.969630	0.315930
H261	H26	0.476570	0.935930	0.289930
C401	C40	0.524970	0.020030	0.363130
C411	C41	0.519770	0.070430	0.402030
H271	H27	0.554470	0.104130	0.433630
C421	C42	0.462770	0.070330	0.393730
H281	H28	0.459270	0.104030	0.419630
C431	C43	0.587570	0.024730	0.379230
C441	C44	0.281570	0.921130	0.408830
H291	H29	0.309970	0.930230	0.462030
C451	C45	0.224270	0.863730	0.410130
H301	H30	0.215970	0.836330	0.464430
O161	O16	0.295030	0.395770	0.771970
O171	O17	0.260930	0.313470	0.664070
O181	O18	0.761830	0.094370	0.751670
C461	C46	0.077630	0.353370	0.679870
C471	C47	0.082830	0.302970	0.640970
H311	H31	0.048130	0.269270	0.609370
C481	C48	0.139830	0.302970	0.649270
H321	H32	0.143230	0.269270	0.623270
C491	C49	0.191630	0.353370	0.696470
C501	C50	0.186430	0.403770	0.735370
H331	H33	0.221130	0.437470	0.766970
C511	C51	0.129430	0.403670	0.727070
H341	H34	0.125930	0.437370	0.752970
C521	C52	0.254230	0.358070	0.712570
C531	C53	0.948230	0.254470	0.742170
H351	H35	0.976630	0.263570	0.795370
C541	C54	0.890930	0.197070	0.743470
H361	H36	0.882630	0.169670	0.797770
O191	O19	0.270900	0.232600	0.105300
O201	O20	0.353200	0.280800	0.997400
O211	O21	0.572300	0.000800	0.085000
C551	C55	0.313300	0.057600	0.013200
C561	C56	0.363700	0.113200	0.974300
H371	H37	0.397400	0.112200	0.942700
C571	C57	0.363700	0.170200	0.982600
H381	H38	0.397400	0.207300	0.956600
C581	C58	0.313300	0.171600	0.029800
C591	C59	0.262900	0.116000	0.068700
H391	H39	0.229200	0.117000	0.100300
C601	C60	0.263000	0.059100	0.060400
H401	H40	0.229300	0.021900	0.086300
C611	C61	0.308600	0.229500	0.045900
C621	C62	0.412200	0.027100	0.075500
H411	H41	0.403100	0.046400	0.128700
C631	C63	0.469600	0.027200	0.076800
H421	H42	0.497000	0.046300	0.131100
O221	O22	0.937570	0.565930	0.438630
O231	O23	0.019870	0.614130	0.330730
O241	O24	0.238970	0.334130	0.418330
C641	C64	0.979970	0.390930	0.346530
C651	C65	0.030370	0.446530	0.307630
H431	H43	0.064070	0.445530	0.276030
C661	C66	0.030370	0.503530	0.315930
H441	H44	0.064070	0.540630	0.289930
C671	C67	0.979970	0.504930	0.363130
C681	C68	0.929570	0.449330	0.402030
H451	H45	0.895870	0.450330	0.433630
C691	C69	0.929670	0.392430	0.393730
H461	H46	0.895970	0.355230	0.419630
C701	C70	0.975270	0.562830	0.379230
C711	C71	0.078870	0.360430	0.408830
H471	H47	0.069770	0.379730	0.462030
C721	C72	0.136270	0.360530	0.410130
H481	H48	0.163670	0.379630	0.464430
O251	O25	0.604230	0.899270	0.771970
O261	O26	0.686530	0.947470	0.664070
O271	O27	0.905630	0.667470	0.751670
C731	C73	0.646630	0.724270	0.679870
C741	C74	0.697030	0.779870	0.640970
H491	H49	0.730730	0.778870	0.609370
C751	C75	0.697030	0.836870	0.649270
H501	H50	0.730730	0.873970	0.623270
C761	C76	0.646630	0.838270	0.696470
C771	C77	0.596230	0.782670	0.735370
H511	H51	0.562530	0.783670	0.766970
C781	C78	0.596330	0.725770	0.727070
H521	H52	0.562630	0.688570	0.752970
C791	C79	0.641930	0.896170	0.712570
C801	C80	0.745530	0.693770	0.742170
H531	H53	0.736430	0.713070	0.795370
C811	C81	0.802930	0.693870	0.743470
H541	H54	0.830330	0.712970	0.797770
O281	O28	0.038300	0.767400	0.894700
O291	O29	0.072400	0.719200	0.002600
O301	O30	0.571500	0.999200	0.915000
C821	C82	0.255700	0.942400	0.986800
C831	C83	0.250500	0.886800	0.025700
H551	H55	0.285200	0.887800	0.057300
C841	C84	0.193500	0.829800	0.017400
H561	H56	0.190100	0.792700	0.043400
C851	C85	0.141700	0.828400	0.970200
C861	C86	0.146900	0.884000	0.931300
H571	H57	0.112200	0.883000	0.899700
C871	C87	0.203900	0.940900	0.939600
H581	H58	0.207400	0.978100	0.913700
C881	C88	0.079100	0.770500	0.954100
C891	C89	0.385100	0.972900	0.924500
H591	H59	0.356700	0.953600	0.871300
C901	C90	0.442400	0.972800	0.923200
H601	H60	0.450700	0.953700	0.868900
O311	O31	0.704970	0.100730	0.228030
O321	O32	0.739070	0.052530	0.335930
O331	O33	0.238170	0.332530	0.248330
C911	C91	0.922370	0.275730	0.320130
C921	C92	0.917170	0.220130	0.359030
H611	H61	0.951870	0.221130	0.390630
C931	C93	0.860170	0.163130	0.350730
H621	H62	0.856770	0.126030	0.376730
C941	C94	0.808370	0.161730	0.303530
C951	C95	0.813570	0.217330	0.264630
H631	H63	0.778870	0.216330	0.233030
C961	C96	0.870570	0.274230	0.272930
H641	H64	0.874070	0.311430	0.247030
C971	C97	0.745770	0.103830	0.287430
C981	C98	0.051770	0.306230	0.257830
H651	H65	0.023370	0.286930	0.204630
C991	C99	0.109070	0.306130	0.256530
H661	H66	0.117370	0.287030	0.202230
O341	O34	0.371630	0.434070	0.561370
O351	O35	0.405730	0.385870	0.669270
O361	O36	0.904830	0.665870	0.581670
C1001	C100	0.589030	0.609070	0.653470
C1011	C101	0.583830	0.553470	0.692370
H671	H67	0.618530	0.554470	0.723970
C1021	C102	0.526830	0.496470	0.684070
H681	H68	0.523430	0.459370	0.710070
C1031	C103	0.475030	0.495070	0.636870
C1041	C104	0.480230	0.550670	0.597970
H691	H69	0.445530	0.549670	0.566370
C1051	C105	0.537230	0.607570	0.606270
H701	H70	0.540730	0.644770	0.580370
C1061	C106	0.412430	0.437170	0.620770
C1071	C107	0.718430	0.639570	0.591170
H711	H71	0.690030	0.620270	0.537970
C1081	C108	0.775730	0.639470	0.589870
H721	H72	0.784030	0.620370	0.535570
O371	O37	0.729100	0.961700	0.894700
O381	O38	0.646800	0.927600	0.002600
O391	O39	0.427700	0.428500	0.915000
C1091	C109	0.686700	0.744300	0.986800
C1101	C110	0.636300	0.749500	0.025700
H731	H73	0.602600	0.714800	0.057300
C1111	C111	0.636300	0.806500	0.017400
H741	H74	0.602600	0.809900	0.043400
C1121	C112	0.686700	0.858300	0.970200
C1131	C113	0.737100	0.853100	0.931300
H751	H75	0.770800	0.887800	0.899700
C1141	C114	0.737000	0.796100	0.939600
H761	H76	0.770700	0.792600	0.913700
C1151	C115	0.691400	0.920900	0.954100
C1161	C116	0.587800	0.614900	0.924500
H771	H77	0.596900	0.643300	0.871300
C1171	C117	0.530400	0.557600	0.923200
H781	H78	0.503000	0.549300	0.868900
O401	O40	0.395770	0.295030	0.228030
O411	O41	0.313470	0.260930	0.335930
O421	O42	0.094370	0.761830	0.248330
C1181	C118	0.353370	0.077630	0.320130
C1191	C119	0.302970	0.082830	0.359030
H791	H79	0.269270	0.048130	0.390630
C1201	C120	0.302970	0.139830	0.350730
H801	H80	0.269270	0.143230	0.376730
C1211	C121	0.353370	0.191630	0.303530
C1221	C122	0.403770	0.186430	0.264630
H811	H81	0.437470	0.221130	0.233030
C1231	C123	0.403670	0.129430	0.272930
H821	H82	0.437370	0.125930	0.247030
C1241	C124	0.358070	0.254230	0.287430
C1251	C125	0.254470	0.948230	0.257830
H831	H83	0.263570	0.976630	0.204630
C1261	C126	0.197070	0.890930	0.256530
H841	H84	0.169670	0.882630	0.202230
O431	O43	0.062430	0.628370	0.561370
O441	O44	0.980130	0.594270	0.669270
O451	O45	0.761030	0.095170	0.581670
C1271	C127	0.020030	0.410970	0.653470
C1281	C128	0.969630	0.416170	0.692370
H851	H85	0.935930	0.381470	0.723970
C1291	C129	0.969630	0.473170	0.684070
H861	H86	0.935930	0.476570	0.710070
C1301	C130	0.020030	0.524970	0.636870
C1311	C131	0.070430	0.519770	0.597970
H871	H87	0.104130	0.554470	0.566370
C1321	C132	0.070330	0.462770	0.606270
H881	H88	0.104030	0.459270	0.580370
C1331	C133	0.024730	0.587570	0.620770
C1341	C134	0.921130	0.281570	0.591170
H891	H89	0.930230	0.309970	0.537970
C1351	C135	0.863730	0.224270	0.589870
H901	H90	0.836330	0.215970	0.535570
O461	O46	0.232600	0.270900	0.894700
O471	O47	0.280800	0.353200	0.002600
O481	O48	0.000800	0.572300	0.915000
C1361	C136	0.057600	0.313300	0.986800
C1371	C137	0.113200	0.363700	0.025700
H911	H91	0.112200	0.397400	0.057300
C1381	C138	0.170200	0.363700	0.017400
H921	H92	0.207300	0.397400	0.043400
C1391	C139	0.171600	0.313300	0.970200
C1401	C140	0.116000	0.262900	0.931300
H931	H93	0.117000	0.229200	0.899700
C1411	C141	0.059100	0.263000	0.939600
H941	H94	0.021900	0.229300	0.913700
C1421	C142	0.229500	0.308600	0.954100
C1431	C143	0.027100	0.412200	0.924500
H951	H95	0.046400	0.403100	0.871300
C1441	C144	0.027200	0.469600	0.923200
H961	H96	0.046300	0.497000	0.868900
O491	O49	0.899270	0.604230	0.228030
O501	O50	0.947470	0.686530	0.335930
O511	O51	0.667470	0.905630	0.248330
C1451	C145	0.724270	0.646630	0.320130
C1461	C146	0.779870	0.697030	0.359030
H971	H97	0.778870	0.730730	0.390630
C1471	C147	0.836870	0.697030	0.350730
H981	H98	0.873970	0.730730	0.376730
C1481	C148	0.838270	0.646630	0.303530
C1491	C149	0.782670	0.596230	0.264630
H991	H99	0.783670	0.562530	0.233030
C1501	C150	0.725770	0.596330	0.272930
H1001	H100	0.688570	0.562630	0.247030
C1511	C151	0.896170	0.641930	0.287430
C1521	C152	0.693770	0.745530	0.257830
H1011	H101	0.713070	0.736430	0.204630
C1531	C153	0.693870	0.802930	0.256530
H1021	H102	0.712970	0.830330	0.202230
O521	O52	0.565930	0.937570	0.561370
O531	O53	0.614130	0.019870	0.669270
O541	O54	0.334130	0.238970	0.581670
C1541	C154	0.390930	0.979970	0.653470
C1551	C155	0.446530	0.030370	0.692370
H1031	H103	0.445530	0.064070	0.723970
C1561	C156	0.503530	0.030370	0.684070
H1041	H104	0.540630	0.064070	0.710070
C1571	C157	0.504930	0.979970	0.636870
C1581	C158	0.449330	0.929570	0.597970
H1051	H105	0.450330	0.895870	0.566370
C1591	C159	0.392430	0.929670	0.606270
H1061	H106	0.355230	0.895970	0.580370
C1601	C160	0.562830	0.975270	0.620770
C1611	C161	0.360430	0.078870	0.591170
H1071	H107	0.379730	0.069770	0.537970
C1621	C162	0.360530	0.136270	0.589870
H1081	H108	0.379630	0.163670	0.535570
La11	La1	0.653660	0.986990	0.166670
La21	La2	0.320320	0.320320	0.500000
La31	La3	0.013010	0.666670	0.166670
La41	La4	0.679670	0.000000	0.500000
La51	La5	0.333330	0.346340	0.166670
La61	La6	0.000000	0.679680	0.500000
La71	La7	0.986990	0.653660	0.833330
La81	La8	0.666670	0.013010	0.833330
La91	La9	0.346340	0.333330	0.833330
N11	N1	0.000000	0.313600	0.000000
C1631	C163	0.000000	0.369300	0.000000
C1641	C164	0.000000	0.487800	0.000000
C1651	C165	0.000000	0.550600	0.000000
N21	N2	0.666670	0.646930	0.333330
C1661	C166	0.666670	0.702630	0.333330
C1671	C167	0.666670	0.821130	0.333330
C1681	C168	0.666670	0.883930	0.333330
N31	N3	0.333330	0.980270	0.666670
C1691	C169	0.333330	0.035970	0.666670
C1701	C170	0.333330	0.154470	0.666670
C1711	C171	0.333330	0.217270	0.666670
N41	N4	0.686400	0.686400	0.000000
C1721	C172	0.630700	0.630700	0.000000
C1731	C173	0.512200	0.512200	0.000000
C1741	C174	0.449400	0.449400	0.000000
N51	N5	0.353070	0.019730	0.333330
C1751	C175	0.297370	0.964030	0.333330
C1761	C176	0.178870	0.845530	0.333330
C1771	C177	0.116070	0.782730	0.333330
N61	N6	0.019730	0.353070	0.666670
C1781	C178	0.964030	0.297370	0.666670
C1791	C179	0.845530	0.178870	0.666670
C1801	C180	0.782730	0.116070	0.666670
N71	N7	0.313600	0.000000	0.000000
C1811	C181	0.369300	0.000000	0.000000
C1821	C182	0.487800	0.000000	0.000000
C1831	C183	0.550600	0.000000	0.000000
N81	N8	0.980270	0.333330	0.333330
C1841	C184	0.035970	0.333330	0.333330
C1851	C185	0.154470	0.333330	0.333330
C1861	C186	0.217270	0.333330	0.333330
N91	N9	0.646930	0.666670	0.666670
C1871	C187	0.702630	0.666670	0.666670
C1881	C188	0.821130	0.666670	0.666670
C1891	C189	0.883930	0.666670	0.666670
