data_RUYVAK_clean_PM
_symmetry_space_group_name_H-M	'P1'
_cell_length_a	24.188000
_cell_length_b	24.188000
_cell_length_c	13.148900
_cell_angle_alpha	90.000000
_cell_angle_beta	90.000000
_cell_angle_gamma	120.000000
_symmetry_Int_Tables_number 1

loop_
_symmetry_equiv_pos_as_xyz
'x,y,z'

loop_
_atom_site_label
_atom_site_type_symbol
_atom_site_fract_x
_atom_site_fract_y
_atom_site_fract_z
O11	O1	0.569000	0.938400	0.059200
O21	O2	0.617500	0.020300	0.167200
O31	O3	0.342100	0.243200	0.082700
C11	C1	0.391800	0.978300	0.154100
C21	C2	0.504200	0.028000	0.180400
H11	H1	0.541600	0.062100	0.205700
C31	C3	0.448000	0.029200	0.192600
H21	H2	0.447700	0.063000	0.225500
C41	C4	0.508000	0.980700	0.134500
C51	C5	0.451800	0.930100	0.094100
H31	H3	0.453300	0.897300	0.059500
C61	C6	0.392300	0.928300	0.105600
H41	H4	0.354800	0.894100	0.080800
C71	C7	0.566900	0.978200	0.119100
C81	C8	0.360100	0.080600	0.084000
H51	H5	0.379800	0.071700	0.030800
C91	C9	0.356800	0.135200	0.083300
H61	H6	0.370400	0.161300	0.026200
O41	O4	0.235670	0.271730	0.392530
O51	O5	0.284170	0.353630	0.500530
O61	O6	0.008770	0.576530	0.416030
C101	C10	0.058470	0.311630	0.487430
C111	C11	0.170870	0.361330	0.513730
H71	H7	0.208270	0.395430	0.539030
C121	C12	0.114670	0.362530	0.525930
H81	H8	0.114370	0.396330	0.558830
C131	C13	0.174670	0.314030	0.467830
C141	C14	0.118470	0.263430	0.427430
H91	H9	0.119970	0.230630	0.392830
C151	C15	0.058970	0.261630	0.438930
H101	H10	0.021470	0.227430	0.414130
C161	C16	0.233570	0.311530	0.452430
C171	C17	0.026770	0.413930	0.417330
H111	H11	0.046470	0.405030	0.364130
C181	C18	0.023470	0.468530	0.416630
H121	H12	0.037070	0.494630	0.359530
O71	O7	0.902330	0.605070	0.725870
O81	O8	0.950830	0.686970	0.833870
O91	O9	0.675430	0.909870	0.749370
C191	C19	0.725130	0.644970	0.820770
C201	C20	0.837530	0.694670	0.847070
H131	H13	0.874930	0.728770	0.872370
C211	C21	0.781330	0.695870	0.859270
H141	H14	0.781030	0.729670	0.892170
C221	C22	0.841330	0.647370	0.801170
C231	C23	0.785130	0.596770	0.760770
H151	H15	0.786630	0.563970	0.726170
C241	C24	0.725630	0.594970	0.772270
H161	H16	0.688130	0.560770	0.747470
C251	C25	0.900230	0.644870	0.785770
C261	C26	0.693430	0.747270	0.750670
H171	H17	0.713130	0.738370	0.697470
C271	C27	0.690130	0.801870	0.749970
H181	H18	0.703730	0.827970	0.692870
O101	O10	0.061600	0.630600	0.059200
O111	O11	0.979700	0.597200	0.167200
O121	O12	0.756800	0.098900	0.082700
C281	C28	0.021700	0.413500	0.154100
C291	C29	0.972000	0.476200	0.180400
H191	H19	0.937900	0.479500	0.205700
C301	C30	0.970800	0.418800	0.192600
H201	H20	0.937000	0.384700	0.225500
C311	C31	0.019300	0.527300	0.134500
C321	C32	0.069900	0.521700	0.094100
H211	H21	0.102700	0.556000	0.059500
C331	C33	0.071700	0.464000	0.105600
H221	H22	0.105900	0.460700	0.080800
C341	C34	0.021800	0.588700	0.119100
C351	C35	0.919400	0.279500	0.084000
H231	H23	0.928300	0.308100	0.030800
C361	C36	0.864800	0.221600	0.083300
H241	H24	0.838700	0.209100	0.026200
O131	O13	0.728270	0.963930	0.392530
O141	O14	0.646370	0.930530	0.500530
O151	O15	0.423470	0.432230	0.416030
C371	C37	0.688370	0.746830	0.487430
C381	C38	0.638670	0.809530	0.513730
H251	H25	0.604570	0.812830	0.539030
C391	C39	0.637470	0.752130	0.525930
H261	H26	0.603670	0.718030	0.558830
C401	C40	0.685970	0.860630	0.467830
C411	C41	0.736570	0.855030	0.427430
H271	H27	0.769370	0.889330	0.392830
C421	C42	0.738370	0.797330	0.438930
H281	H28	0.772570	0.794030	0.414130
C431	C43	0.688470	0.922030	0.452430
C441	C44	0.586070	0.612830	0.417330
H291	H29	0.594970	0.641430	0.364130
C451	C45	0.531470	0.554930	0.416630
H301	H30	0.505370	0.542430	0.359530
O161	O16	0.394930	0.297270	0.725870
O171	O17	0.313030	0.263870	0.833870
O181	O18	0.090130	0.765570	0.749370
C461	C46	0.355030	0.080170	0.820770
C471	C47	0.305330	0.142870	0.847070
H311	H31	0.271230	0.146170	0.872370
C481	C48	0.304130	0.085470	0.859270
H321	H32	0.270330	0.051370	0.892170
C491	C49	0.352630	0.193970	0.801170
C501	C50	0.403230	0.188370	0.760770
H331	H33	0.436030	0.222670	0.726170
C511	C51	0.405030	0.130670	0.772270
H341	H34	0.439230	0.127370	0.747470
C521	C52	0.355130	0.255370	0.785770
C531	C53	0.252730	0.946170	0.750670
H351	H35	0.261630	0.974770	0.697470
C541	C54	0.198130	0.888270	0.749970
H361	H36	0.172030	0.875770	0.692870
O191	O19	0.369400	0.431000	0.059200
O201	O20	0.402800	0.382500	0.167200
O211	O21	0.901100	0.657900	0.082700
C551	C55	0.586500	0.608200	0.154100
C561	C56	0.523800	0.495800	0.180400
H371	H37	0.520500	0.458400	0.205700
C571	C57	0.581200	0.552000	0.192600
H381	H38	0.615300	0.552300	0.225500
C581	C58	0.472700	0.492000	0.134500
C591	C59	0.478300	0.548200	0.094100
H391	H39	0.444000	0.546700	0.059500
C601	C60	0.536000	0.607700	0.105600
H401	H40	0.539300	0.645200	0.080800
C611	C61	0.411300	0.433100	0.119100
C621	C62	0.720500	0.639900	0.084000
H411	H41	0.691900	0.620200	0.030800
C631	C63	0.778400	0.643200	0.083300
H421	H42	0.790900	0.629600	0.026200
O221	O22	0.036070	0.764330	0.392530
O231	O23	0.069470	0.715830	0.500530
O241	O24	0.567770	0.991230	0.416030
C641	C64	0.253170	0.941530	0.487430
C651	C65	0.190470	0.829130	0.513730
H431	H43	0.187170	0.791730	0.539030
C661	C66	0.247870	0.885330	0.525930
H441	H44	0.281970	0.885630	0.558830
C671	C67	0.139370	0.825330	0.467830
C681	C68	0.144970	0.881530	0.427430
H451	H45	0.110670	0.880030	0.392830
C691	C69	0.202670	0.941030	0.438930
H461	H46	0.205970	0.978530	0.414130
C701	C70	0.077970	0.766430	0.452430
C711	C71	0.387170	0.973230	0.417330
H471	H47	0.358570	0.953530	0.364130
C721	C72	0.445070	0.976530	0.416630
H481	H48	0.457570	0.962930	0.359530
O251	O25	0.702730	0.097670	0.725870
O261	O26	0.736130	0.049170	0.833870
O271	O27	0.234430	0.324570	0.749370
C731	C73	0.919830	0.274870	0.820770
C741	C74	0.857130	0.162470	0.847070
H491	H49	0.853830	0.125070	0.872370
C751	C75	0.914530	0.218670	0.859270
H501	H50	0.948630	0.218970	0.892170
C761	C76	0.806030	0.158670	0.801170
C771	C77	0.811630	0.214870	0.760770
H511	H51	0.777330	0.213370	0.726170
C781	C78	0.869330	0.274370	0.772270
H521	H52	0.872630	0.311870	0.747470
C791	C79	0.744630	0.099770	0.785770
C801	C80	0.053830	0.306570	0.750670
H531	H53	0.025230	0.286870	0.697470
C811	C81	0.111730	0.309870	0.749970
H541	H54	0.124230	0.296270	0.692870
O281	O28	0.938400	0.569000	0.940800
O291	O29	0.020300	0.617500	0.832800
O301	O30	0.243200	0.342100	0.917300
C821	C82	0.978300	0.391800	0.845900
C831	C83	0.028000	0.504200	0.819600
H551	H55	0.062100	0.541600	0.794300
C841	C84	0.029200	0.448000	0.807400
H561	H56	0.063000	0.447700	0.774500
C851	C85	0.980700	0.508000	0.865500
C861	C86	0.930100	0.451800	0.905900
H571	H57	0.897300	0.453300	0.940500
C871	C87	0.928300	0.392300	0.894400
H581	H58	0.894100	0.354800	0.919200
C881	C88	0.978200	0.566900	0.880900
C891	C89	0.080600	0.360100	0.916000
H591	H59	0.071700	0.379800	0.969200
C901	C90	0.135200	0.356800	0.916700
H601	H60	0.161300	0.370400	0.973800
O311	O31	0.605070	0.902330	0.274130
O321	O32	0.686970	0.950830	0.166130
O331	O33	0.909870	0.675430	0.250630
C911	C91	0.644970	0.725130	0.179230
C921	C92	0.694670	0.837530	0.152930
H611	H61	0.728770	0.874930	0.127630
C931	C93	0.695870	0.781330	0.140730
H621	H62	0.729670	0.781030	0.107830
C941	C94	0.647370	0.841330	0.198830
C951	C95	0.596770	0.785130	0.239230
H631	H63	0.563970	0.786630	0.273830
C961	C96	0.594970	0.725630	0.227730
H641	H64	0.560770	0.688130	0.252530
C971	C97	0.644870	0.900230	0.214230
C981	C98	0.747270	0.693430	0.249330
H651	H65	0.738370	0.713130	0.302530
C991	C99	0.801870	0.690130	0.250030
H661	H66	0.827970	0.703730	0.307130
O341	O34	0.271730	0.235670	0.607470
O351	O35	0.353630	0.284170	0.499470
O361	O36	0.576530	0.008770	0.583970
C1001	C100	0.311630	0.058470	0.512570
C1011	C101	0.361330	0.170870	0.486270
H671	H67	0.395430	0.208270	0.460970
C1021	C102	0.362530	0.114670	0.474070
H681	H68	0.396330	0.114370	0.441170
C1031	C103	0.314030	0.174670	0.532170
C1041	C104	0.263430	0.118470	0.572570
H691	H69	0.230630	0.119970	0.607170
C1051	C105	0.261630	0.058970	0.561070
H701	H70	0.227430	0.021470	0.585870
C1061	C106	0.311530	0.233570	0.547570
C1071	C107	0.413930	0.026770	0.582670
H711	H71	0.405030	0.046470	0.635870
C1081	C108	0.468530	0.023470	0.583370
H721	H72	0.494630	0.037070	0.640470
O371	O37	0.630600	0.061600	0.940800
O381	O38	0.597200	0.979700	0.832800
O391	O39	0.098900	0.756800	0.917300
C1091	C109	0.413500	0.021700	0.845900
C1101	C110	0.476200	0.972000	0.819600
H731	H73	0.479500	0.937900	0.794300
C1111	C111	0.418800	0.970800	0.807400
H741	H74	0.384700	0.937000	0.774500
C1121	C112	0.527300	0.019300	0.865500
C1131	C113	0.521700	0.069900	0.905900
H751	H75	0.556000	0.102700	0.940500
C1141	C114	0.464000	0.071700	0.894400
H761	H76	0.460700	0.105900	0.919200
C1151	C115	0.588700	0.021800	0.880900
C1161	C116	0.279500	0.919400	0.916000
H771	H77	0.308100	0.928300	0.969200
C1171	C117	0.221600	0.864800	0.916700
H781	H78	0.209100	0.838700	0.973800
O401	O40	0.297270	0.394930	0.274130
O411	O41	0.263870	0.313030	0.166130
O421	O42	0.765570	0.090130	0.250630
C1181	C118	0.080170	0.355030	0.179230
C1191	C119	0.142870	0.305330	0.152930
H791	H79	0.146170	0.271230	0.127630
C1201	C120	0.085470	0.304130	0.140730
H801	H80	0.051370	0.270330	0.107830
C1211	C121	0.193970	0.352630	0.198830
C1221	C122	0.188370	0.403230	0.239230
H811	H81	0.222670	0.436030	0.273830
C1231	C123	0.130670	0.405030	0.227730
H821	H82	0.127370	0.439230	0.252530
C1241	C124	0.255370	0.355130	0.214230
C1251	C125	0.946170	0.252730	0.249330
H831	H83	0.974770	0.261630	0.302530
C1261	C126	0.888270	0.198130	0.250030
H841	H84	0.875770	0.172030	0.307130
O431	O43	0.963930	0.728270	0.607470
O441	O44	0.930530	0.646370	0.499470
O451	O45	0.432230	0.423470	0.583970
C1271	C127	0.746830	0.688370	0.512570
C1281	C128	0.809530	0.638670	0.486270
H851	H85	0.812830	0.604570	0.460970
C1291	C129	0.752130	0.637470	0.474070
H861	H86	0.718030	0.603670	0.441170
C1301	C130	0.860630	0.685970	0.532170
C1311	C131	0.855030	0.736570	0.572570
H871	H87	0.889330	0.769370	0.607170
C1321	C132	0.797330	0.738370	0.561070
H881	H88	0.794030	0.772570	0.585870
C1331	C133	0.922030	0.688470	0.547570
C1341	C134	0.612830	0.586070	0.582670
H891	H89	0.641430	0.594970	0.635870
C1351	C135	0.554930	0.531470	0.583370
H901	H90	0.542430	0.505370	0.640470
O461	O46	0.431000	0.369400	0.940800
O471	O47	0.382500	0.402800	0.832800
O481	O48	0.657900	0.901100	0.917300
C1361	C136	0.608200	0.586500	0.845900
C1371	C137	0.495800	0.523800	0.819600
H911	H91	0.458400	0.520500	0.794300
C1381	C138	0.552000	0.581200	0.807400
H921	H92	0.552300	0.615300	0.774500
C1391	C139	0.492000	0.472700	0.865500
C1401	C140	0.548200	0.478300	0.905900
H931	H93	0.546700	0.444000	0.940500
C1411	C141	0.607700	0.536000	0.894400
H941	H94	0.645200	0.539300	0.919200
C1421	C142	0.433100	0.411300	0.880900
C1431	C143	0.639900	0.720500	0.916000
H951	H95	0.620200	0.691900	0.969200
C1441	C144	0.643200	0.778400	0.916700
H961	H96	0.629600	0.790900	0.973800
O491	O49	0.097670	0.702730	0.274130
O501	O50	0.049170	0.736130	0.166130
O511	O51	0.324570	0.234430	0.250630
C1451	C145	0.274870	0.919830	0.179230
C1461	C146	0.162470	0.857130	0.152930
H971	H97	0.125070	0.853830	0.127630
C1471	C147	0.218670	0.914530	0.140730
H981	H98	0.218970	0.948630	0.107830
C1481	C148	0.158670	0.806030	0.198830
C1491	C149	0.214870	0.811630	0.239230
H991	H99	0.213370	0.777330	0.273830
C1501	C150	0.274370	0.869330	0.227730
H1001	H100	0.311870	0.872630	0.252530
C1511	C151	0.099770	0.744630	0.214230
C1521	C152	0.306570	0.053830	0.249330
H1011	H101	0.286870	0.025230	0.302530
C1531	C153	0.309870	0.111730	0.250030
H1021	H102	0.296270	0.124230	0.307130
O521	O52	0.764330	0.036070	0.607470
O531	O53	0.715830	0.069470	0.499470
O541	O54	0.991230	0.567770	0.583970
C1541	C154	0.941530	0.253170	0.512570
C1551	C155	0.829130	0.190470	0.486270
H1031	H103	0.791730	0.187170	0.460970
C1561	C156	0.885330	0.247870	0.474070
H1041	H104	0.885630	0.281970	0.441170
C1571	C157	0.825330	0.139370	0.532170
C1581	C158	0.881530	0.144970	0.572570
H1051	H105	0.880030	0.110670	0.607170
C1591	C159	0.941030	0.202670	0.561070
H1061	H106	0.978530	0.205970	0.585870
C1601	C160	0.766430	0.077970	0.547570
C1611	C161	0.973230	0.387170	0.582670
H1071	H107	0.953530	0.358570	0.635870
C1621	C162	0.976530	0.445070	0.583370
H1081	H108	0.962930	0.457570	0.640470
Ce11	Ce1	0.684140	0.000000	0.000000
Ce21	Ce2	0.350810	0.333330	0.333330
Ce31	Ce3	0.017470	0.666670	0.666670
Ce41	Ce4	0.000000	0.684140	0.000000
Ce51	Ce5	0.666670	0.017470	0.333330
Ce61	Ce6	0.333330	0.350810	0.666670
Ce71	Ce7	0.315860	0.315860	0.000000
Ce81	Ce8	0.982530	0.649190	0.333330
Ce91	Ce9	0.649190	0.982530	0.666670
N11	N1	0.333330	0.976920	0.166670
C1631	C163	0.333330	0.037420	0.166670
C1641	C164	0.333330	0.152520	0.166670
C1651	C165	0.333330	0.214820	0.166670
N21	N2	0.000000	0.310250	0.500000
C1661	C166	0.000000	0.370750	0.500000
C1671	C167	0.000000	0.485850	0.500000
C1681	C168	0.000000	0.548150	0.500000
N31	N3	0.023080	0.356420	0.166670
C1691	C169	0.962580	0.295920	0.166670
C1701	C170	0.847480	0.180820	0.166670
C1711	C171	0.785180	0.118520	0.166670
N41	N4	0.689750	0.689750	0.500000
C1721	C172	0.629250	0.629250	0.500000
C1731	C173	0.514150	0.514150	0.500000
C1741	C174	0.451850	0.451850	0.500000
N51	N5	0.643580	0.666670	0.166670
C1751	C175	0.704080	0.666670	0.166670
C1761	C176	0.819180	0.666670	0.166670
C1771	C177	0.881480	0.666670	0.166670
N61	N6	0.310250	0.000000	0.500000
C1781	C178	0.370750	0.000000	0.500000
C1791	C179	0.485850	0.000000	0.500000
C1801	C180	0.548150	0.000000	0.500000
N71	N7	0.976920	0.333330	0.833330
C1811	C181	0.037420	0.333330	0.833330
C1821	C182	0.152520	0.333330	0.833330
C1831	C183	0.214820	0.333330	0.833330
N81	N8	0.356420	0.023080	0.833330
C1841	C184	0.295920	0.962580	0.833330
C1851	C185	0.180820	0.847480	0.833330
C1861	C186	0.118520	0.785180	0.833330
N91	N9	0.666670	0.643580	0.833330
C1871	C187	0.666670	0.704080	0.833330
C1881	C188	0.666670	0.819180	0.833330
C1891	C189	0.666670	0.881480	0.833330
