data_SABKIS_clean_PM
_symmetry_space_group_name_H-M	'P1'
_cell_length_a	14.714700
_cell_length_b	19.584900
_cell_length_c	19.653200
_cell_angle_alpha	90.000000
_cell_angle_beta	90.000000
_cell_angle_gamma	90.000000
_symmetry_Int_Tables_number 1

loop_
_symmetry_equiv_pos_as_xyz
'x,y,z'

loop_
_atom_site_label
_atom_site_type_symbol
_atom_site_fract_x
_atom_site_fract_y
_atom_site_fract_z
Cd11	Cd1	0.121570	0.448110	0.264010
Ba11	Ba1	0.366140	0.387310	0.286260
C11	C1	0.115300	0.310800	0.251300
C21	C2	0.107900	0.235600	0.252600
C31	C3	0.175600	0.186300	0.259500
H11	H1	0.236900	0.196500	0.264900
C41	C4	0.142900	0.123300	0.257500
H21	H2	0.180400	0.085400	0.262500
C51	C5	0.053800	0.117100	0.248100
C61	C6	0.994200	0.054400	0.243100
C71	C7	0.219600	0.475200	0.148700
C81	C8	0.272500	0.499000	0.089500
C91	C9	0.362800	0.515400	0.086100
H31	H3	0.401800	0.514000	0.123300
C101	C10	0.390200	0.534700	0.020500
H41	H4	0.449700	0.546100	0.009400
C111	C11	0.320800	0.535100	0.975100
C121	C12	0.327800	0.548000	0.900100
O11	O1	0.042600	0.342800	0.242900
O21	O2	0.190000	0.336200	0.265700
O31	O3	0.911100	0.065300	0.231100
O41	O4	0.029200	0.996300	0.251800
O51	O5	0.260100	0.469700	0.204800
O61	O6	0.135700	0.465300	0.142700
O71	O7	0.405200	0.562300	0.877600
O81	O8	0.257600	0.541300	0.864400
S11	S1	0.006000	0.194270	0.240500
S21	S2	0.220100	0.510590	0.012040
Cd21	Cd2	0.378430	0.551890	0.764010
Ba21	Ba2	0.133860	0.612690	0.786260
C131	C13	0.384700	0.689200	0.751300
C141	C14	0.392100	0.764400	0.752600
C151	C15	0.324400	0.813700	0.759500
H51	H5	0.263100	0.803500	0.764900
C161	C16	0.357100	0.876700	0.757500
H61	H6	0.319600	0.914600	0.762500
C171	C17	0.446200	0.882900	0.748100
C181	C18	0.505800	0.945600	0.743100
C191	C19	0.280400	0.524800	0.648700
C201	C20	0.227500	0.501000	0.589500
C211	C21	0.137200	0.484600	0.586100
H71	H7	0.098200	0.486000	0.623300
C221	C22	0.109800	0.465300	0.520500
H81	H8	0.050300	0.453900	0.509400
C231	C23	0.179200	0.464900	0.475100
C241	C24	0.172200	0.452000	0.400100
O91	O9	0.457400	0.657200	0.742900
O101	O10	0.310000	0.663800	0.765700
O111	O11	0.588900	0.934700	0.731100
O121	O12	0.470800	0.003700	0.751800
O131	O13	0.239900	0.530300	0.704800
O141	O14	0.364300	0.534700	0.642700
O151	O15	0.094800	0.437700	0.377600
O161	O16	0.242400	0.458700	0.364400
S31	S3	0.494000	0.805730	0.740500
S41	S4	0.279900	0.489410	0.512040
Cd31	Cd3	0.878430	0.948110	0.235990
Ba31	Ba3	0.633860	0.887310	0.213740
C251	C25	0.884700	0.810800	0.248700
C261	C26	0.892100	0.735600	0.247400
C271	C27	0.824400	0.686300	0.240500
H91	H9	0.763100	0.696500	0.235100
C281	C28	0.857100	0.623300	0.242500
H101	H10	0.819600	0.585400	0.237500
C291	C29	0.946200	0.617100	0.251900
C301	C30	0.005800	0.554400	0.256900
C311	C31	0.780400	0.975200	0.351300
C321	C32	0.727500	0.999000	0.410500
C331	C33	0.637200	0.015400	0.413900
H111	H11	0.598200	0.014000	0.376700
C341	C34	0.609800	0.034700	0.479500
H121	H12	0.550300	0.046100	0.490600
C351	C35	0.679200	0.035100	0.524900
C361	C36	0.672200	0.048000	0.599900
O171	O17	0.957400	0.842800	0.257100
O181	O18	0.810000	0.836200	0.234300
O191	O19	0.088900	0.565300	0.268900
O201	O20	0.970800	0.496300	0.248200
O211	O21	0.739900	0.969700	0.295200
O221	O22	0.864300	0.965300	0.357300
O231	O23	0.594800	0.062300	0.622400
O241	O24	0.742400	0.041300	0.635600
S51	S5	0.994000	0.694270	0.259500
S61	S6	0.779900	0.010590	0.487960
Cd41	Cd4	0.621570	0.051890	0.735990
Ba41	Ba4	0.866140	0.112690	0.713740
C371	C37	0.615300	0.189200	0.748700
C381	C38	0.607900	0.264400	0.747400
C391	C39	0.675600	0.313700	0.740500
H131	H13	0.736900	0.303500	0.735100
C401	C40	0.642900	0.376700	0.742500
H141	H14	0.680400	0.414600	0.737500
C411	C41	0.553800	0.382900	0.751900
C421	C42	0.494200	0.445600	0.756900
C431	C43	0.719600	0.024800	0.851300
C441	C44	0.772500	0.001000	0.910500
C451	C45	0.862800	0.984600	0.913900
H151	H15	0.901800	0.986000	0.876700
C461	C46	0.890200	0.965300	0.979500
H161	H16	0.949700	0.953900	0.990600
C471	C47	0.820800	0.964900	0.024900
C481	C48	0.827800	0.952000	0.099900
O251	O25	0.542600	0.157200	0.757100
O261	O26	0.690000	0.163800	0.734300
O271	O27	0.411100	0.434700	0.768900
O281	O28	0.529200	0.503700	0.748200
O291	O29	0.760100	0.030300	0.795200
O301	O30	0.635700	0.034700	0.857300
O311	O31	0.905200	0.937700	0.122400
O321	O32	0.757600	0.958700	0.135600
S71	S7	0.506000	0.305730	0.759500
S81	S8	0.720100	0.989410	0.987960
Cd51	Cd5	0.878430	0.551890	0.735990
Ba51	Ba5	0.633860	0.612690	0.713740
C491	C49	0.884700	0.689200	0.748700
C501	C50	0.892100	0.764400	0.747400
C511	C51	0.824400	0.813700	0.740500
H171	H17	0.763100	0.803500	0.735100
C521	C52	0.857100	0.876700	0.742500
H181	H18	0.819600	0.914600	0.737500
C531	C53	0.946200	0.882900	0.751900
C541	C54	0.005800	0.945600	0.756900
C551	C55	0.780400	0.524800	0.851300
C561	C56	0.727500	0.501000	0.910500
C571	C57	0.637200	0.484600	0.913900
H191	H19	0.598200	0.486000	0.876700
C581	C58	0.609800	0.465300	0.979500
H201	H20	0.550300	0.453900	0.990600
C591	C59	0.679200	0.464900	0.024900
C601	C60	0.672200	0.452000	0.099900
O331	O33	0.957400	0.657200	0.757100
O341	O34	0.810000	0.663800	0.734300
O351	O35	0.088900	0.934700	0.768900
O361	O36	0.970800	0.003700	0.748200
O371	O37	0.739900	0.530300	0.795200
O381	O38	0.864300	0.534700	0.857300
O391	O39	0.594800	0.437700	0.122400
O401	O40	0.742400	0.458700	0.135600
S91	S9	0.994000	0.805730	0.759500
S101	S10	0.779900	0.489410	0.987960
Cd61	Cd6	0.621570	0.448110	0.235990
Ba61	Ba6	0.866140	0.387310	0.213740
C611	C61	0.615300	0.310800	0.248700
C621	C62	0.607900	0.235600	0.247400
C631	C63	0.675600	0.186300	0.240500
H211	H21	0.736900	0.196500	0.235100
C641	C64	0.642900	0.123300	0.242500
H221	H22	0.680400	0.085400	0.237500
C651	C65	0.553800	0.117100	0.251900
C661	C66	0.494200	0.054400	0.256900
C671	C67	0.719600	0.475200	0.351300
C681	C68	0.772500	0.499000	0.410500
C691	C69	0.862800	0.515400	0.413900
H231	H23	0.901800	0.514000	0.376700
C701	C70	0.890200	0.534700	0.479500
H241	H24	0.949700	0.546100	0.490600
C711	C71	0.820800	0.535100	0.524900
C721	C72	0.827800	0.548000	0.599900
O411	O41	0.542600	0.342800	0.257100
O421	O42	0.690000	0.336200	0.234300
O431	O43	0.411100	0.065300	0.268900
O441	O44	0.529200	0.996300	0.248200
O451	O45	0.760100	0.469700	0.295200
O461	O46	0.635700	0.465300	0.357300
O471	O47	0.905200	0.562300	0.622400
O481	O48	0.757600	0.541300	0.635600
S111	S11	0.506000	0.194270	0.259500
S121	S12	0.720100	0.510590	0.487960
Cd71	Cd7	0.121570	0.051890	0.764010
Ba71	Ba7	0.366140	0.112690	0.786260
C731	C73	0.115300	0.189200	0.751300
C741	C74	0.107900	0.264400	0.752600
C751	C75	0.175600	0.313700	0.759500
H251	H25	0.236900	0.303500	0.764900
C761	C76	0.142900	0.376700	0.757500
H261	H26	0.180400	0.414600	0.762500
C771	C77	0.053800	0.382900	0.748100
C781	C78	0.994200	0.445600	0.743100
C791	C79	0.219600	0.024800	0.648700
C801	C80	0.272500	0.001000	0.589500
C811	C81	0.362800	0.984600	0.586100
H271	H27	0.401800	0.986000	0.623300
C821	C82	0.390200	0.965300	0.520500
H281	H28	0.449700	0.953900	0.509400
C831	C83	0.320800	0.964900	0.475100
C841	C84	0.327800	0.952000	0.400100
O491	O49	0.042600	0.157200	0.742900
O501	O50	0.190000	0.163800	0.765700
O511	O51	0.911100	0.434700	0.731100
O521	O52	0.029200	0.503700	0.751800
O531	O53	0.260100	0.030300	0.704800
O541	O54	0.135700	0.034700	0.642700
O551	O55	0.405200	0.937700	0.377600
O561	O56	0.257600	0.958700	0.364400
S131	S13	0.006000	0.305730	0.740500
S141	S14	0.220100	0.989410	0.512040
Cd81	Cd8	0.378430	0.948110	0.264010
Ba81	Ba8	0.133860	0.887310	0.286260
C851	C85	0.384700	0.810800	0.251300
C861	C86	0.392100	0.735600	0.252600
C871	C87	0.324400	0.686300	0.259500
H291	H29	0.263100	0.696500	0.264900
C881	C88	0.357100	0.623300	0.257500
H301	H30	0.319600	0.585400	0.262500
C891	C89	0.446200	0.617100	0.248100
C901	C90	0.505800	0.554400	0.243100
C911	C91	0.280400	0.975200	0.148700
C921	C92	0.227500	0.999000	0.089500
C931	C93	0.137200	0.015400	0.086100
H311	H31	0.098200	0.014000	0.123300
C941	C94	0.109800	0.034700	0.020500
H321	H32	0.050300	0.046100	0.009400
C951	C95	0.179200	0.035100	0.975100
C961	C96	0.172200	0.048000	0.900100
O571	O57	0.457400	0.842800	0.242900
O581	O58	0.310000	0.836200	0.265700
O591	O59	0.588900	0.565300	0.231100
O601	O60	0.470800	0.496300	0.251800
O611	O61	0.239900	0.969700	0.204800
O621	O62	0.364300	0.965300	0.142700
O631	O63	0.094800	0.062300	0.877600
O641	O64	0.242400	0.041300	0.864400
S151	S15	0.494000	0.694270	0.240500
S161	S16	0.279900	0.010590	0.012040
