data_SABVOH01_clean_PM
_symmetry_space_group_name_H-M	'P1'
_cell_length_a	17.019000
_cell_length_b	6.584400
_cell_length_c	12.262000
_cell_angle_alpha	90.000000
_cell_angle_beta	90.000000
_cell_angle_gamma	90.000000
_symmetry_Int_Tables_number 1

loop_
_symmetry_equiv_pos_as_xyz
'x,y,z'

loop_
_atom_site_label
_atom_site_type_symbol
_atom_site_fract_x
_atom_site_fract_y
_atom_site_fract_z
O11	O1	0.072300	0.920100	0.890830
O21	O2	0.413250	0.920200	0.586060
C11	C1	0.273910	0.931700	0.701300
H11	H1	0.296600	0.054000	0.680000
C21	C2	0.205270	0.931800	0.762000
H21	H2	0.182300	0.054100	0.782500
O31	O3	0.427700	0.079900	0.390830
O41	O4	0.086750	0.079800	0.086060
C31	C3	0.226090	0.068300	0.201300
H31	H3	0.203400	0.946000	0.180000
C41	C4	0.294730	0.068200	0.262000
H41	H4	0.317700	0.945900	0.282500
O51	O5	0.927700	0.420100	0.109170
O61	O6	0.586750	0.420200	0.413940
C51	C5	0.726090	0.431700	0.298700
H51	H5	0.703400	0.554000	0.320000
C61	C6	0.794730	0.431800	0.238000
H61	H6	0.817700	0.554100	0.217500
O71	O7	0.572300	0.579900	0.609170
O81	O8	0.913250	0.579800	0.913940
C71	C7	0.773910	0.568300	0.798700
H71	H7	0.796600	0.446000	0.820000
C81	C8	0.705270	0.568200	0.738000
H81	H8	0.682300	0.445900	0.717500
O91	O9	0.927700	0.079900	0.109170
O101	O10	0.586750	0.079800	0.413940
C91	C9	0.726090	0.068300	0.298700
H91	H9	0.703400	0.946000	0.320000
C101	C10	0.794730	0.068200	0.238000
H101	H10	0.817700	0.945900	0.217500
O111	O11	0.572300	0.920100	0.609170
O121	O12	0.913250	0.920200	0.913940
C111	C11	0.773910	0.931700	0.798700
H111	H11	0.796600	0.054000	0.820000
C121	C12	0.705270	0.931800	0.738000
H121	H12	0.682300	0.054100	0.717500
O131	O13	0.072300	0.579900	0.890830
O141	O14	0.413250	0.579800	0.586060
C131	C13	0.273910	0.568300	0.701300
H131	H13	0.296600	0.446000	0.680000
C141	C14	0.205270	0.568200	0.762000
H141	H14	0.182300	0.445900	0.782500
O151	O15	0.427700	0.420100	0.390830
O161	O16	0.086750	0.420200	0.086060
C151	C15	0.226090	0.431700	0.201300
H151	H15	0.203400	0.554000	0.180000
C161	C16	0.294730	0.431800	0.262000
H161	H16	0.317700	0.554100	0.282500
Al11	Al1	0.000000	0.000000	0.000000
Al21	Al2	0.500000	0.000000	0.500000
Al31	Al3	0.000000	0.500000	0.000000
Al41	Al4	0.500000	0.500000	0.500000
O171	O17	0.005110	0.750000	0.064180
H171	H17	0.017000	0.750000	0.128400
C171	C17	0.384090	0.750000	0.609900
C181	C18	0.308650	0.750000	0.672300
C191	C19	0.099340	0.750000	0.862900
C201	C20	0.170870	0.750000	0.792300
O181	O18	0.494890	0.250000	0.564180
H181	H18	0.483000	0.250000	0.628400
C211	C21	0.115910	0.250000	0.109900
C221	C22	0.191350	0.250000	0.172300
C231	C23	0.400660	0.250000	0.362900
C241	C24	0.329130	0.250000	0.292300
O191	O19	0.994890	0.250000	0.935820
H191	H19	0.983000	0.250000	0.871600
C251	C25	0.615910	0.250000	0.390100
C261	C26	0.691350	0.250000	0.327700
C271	C27	0.900660	0.250000	0.137100
C281	C28	0.829130	0.250000	0.207700
O201	O20	0.505110	0.750000	0.435820
H201	H20	0.517000	0.750000	0.371600
C291	C29	0.884090	0.750000	0.890100
C301	C30	0.808650	0.750000	0.827700
C311	C31	0.599340	0.750000	0.637100
C321	C32	0.670870	0.750000	0.707700
