data_SABVUN_clean_h_min_PM
_symmetry_space_group_name_H-M	'P1'
_cell_length_a	13.217000
_cell_length_b	22.043200
_cell_length_c	22.043200
_cell_angle_alpha	71.079700
_cell_angle_beta	72.554700
_cell_angle_gamma	72.554500
_symmetry_Int_Tables_number 1

loop_
_symmetry_equiv_pos_as_xyz
'x,y,z'

loop_
_atom_site_label
_atom_site_type_symbol
_atom_site_fract_x
_atom_site_fract_y
_atom_site_fract_z
Al11	Al1	0.253220	0.251450	0.000270
Al21	Al2	0.003780	0.250940	0.000030
C31	C3	0.075350	0.034140	0.002760
C41	C4	0.179820	0.247030	0.217710
C51	C5	0.144680	0.251360	0.283330
C61	C6	0.111050	0.469260	0.496250
C71	C7	0.428950	0.469140	0.496320
C81	C8	0.326960	0.251480	0.283340
C91	C9	0.362010	0.246910	0.217770
C101	C10	0.393170	0.034220	0.002640
C111	C11	0.465940	0.067890	0.005780
C121	C12	0.430170	0.138770	0.007680
C131	C13	0.289010	0.245090	0.183620
C141	C14	0.324770	0.244900	0.112260
C151	C15	0.217840	0.253340	0.317430
C161	C16	0.181740	0.254950	0.388430
C171	C17	0.038720	0.435350	0.493110
C181	C18	0.075940	0.364040	0.491940
O191	O19	0.329800	0.168250	0.007640
O201	O20	0.425200	0.245290	0.082810
O211	O21	0.252700	0.255430	0.417650
O221	O22	0.004840	0.334340	0.492390
O231	O23	0.176420	0.334910	0.492890
O241	O24	0.081350	0.254540	0.417570
O251	O25	0.252930	0.245890	0.083030
O261	O26	0.002320	0.167950	0.006530
O271	O27	0.377850	0.280060	0.472790
O281	O28	0.126790	0.225070	0.029580
H291	H29	0.133890	0.057860	0.005440
H301	H30	0.120930	0.246050	0.193340
H311	H31	0.059700	0.253680	0.307000
H321	H32	0.195450	0.445140	0.494800
H331	H33	0.369930	0.445010	0.495080
H341	H34	0.385390	0.254090	0.307150
H351	H35	0.446270	0.245780	0.193360
H361	H36	0.308340	0.058200	0.005120
H371	H37	0.376600	0.315030	0.440610
H381	H38	0.124030	0.194440	0.065790
Al391	Al39	0.753220	0.251450	0.000270
Al401	Al40	0.503780	0.250940	0.000030
C411	C41	0.575350	0.034140	0.002760
C421	C42	0.679820	0.247030	0.217710
C431	C43	0.644680	0.251360	0.283330
C441	C44	0.611050	0.469260	0.496250
C451	C45	0.928950	0.469140	0.496320
C461	C46	0.826960	0.251480	0.283340
C471	C47	0.862010	0.246910	0.217770
C481	C48	0.893170	0.034220	0.002640
C491	C49	0.965940	0.067890	0.005780
C501	C50	0.930170	0.138770	0.007680
C511	C51	0.789010	0.245090	0.183620
C521	C52	0.824770	0.244900	0.112260
C531	C53	0.717840	0.253340	0.317430
C541	C54	0.681740	0.254950	0.388430
C551	C55	0.538720	0.435350	0.493110
C561	C56	0.575940	0.364040	0.491940
O571	O57	0.829800	0.168250	0.007640
O581	O58	0.925200	0.245290	0.082810
O591	O59	0.752700	0.255430	0.417650
O601	O60	0.504840	0.334340	0.492390
O611	O61	0.676420	0.334910	0.492890
O621	O62	0.581350	0.254540	0.417570
O631	O63	0.752930	0.245890	0.083030
O641	O64	0.502320	0.167950	0.006530
O651	O65	0.877850	0.280060	0.472790
O661	O66	0.626790	0.225070	0.029580
H671	H67	0.633890	0.057860	0.005440
H681	H68	0.620930	0.246050	0.193340
H691	H69	0.559700	0.253680	0.307000
H701	H70	0.695450	0.445140	0.494800
H711	H71	0.869930	0.445010	0.495080
H721	H72	0.885390	0.254090	0.307150
H731	H73	0.946270	0.245780	0.193360
H741	H74	0.808340	0.058200	0.005120
H751	H75	0.876600	0.315030	0.440610
H761	H76	0.624030	0.194440	0.065790
Al771	Al77	0.253220	0.751450	0.000270
Al781	Al78	0.003780	0.750940	0.000030
C791	C79	0.075350	0.534140	0.002760
C801	C80	0.179820	0.747030	0.217710
C811	C81	0.144680	0.751360	0.283330
C821	C82	0.111050	0.969260	0.496250
C831	C83	0.428950	0.969140	0.496320
C841	C84	0.326960	0.751480	0.283340
C851	C85	0.362010	0.746910	0.217770
C861	C86	0.393170	0.534220	0.002640
C871	C87	0.465940	0.567890	0.005780
C881	C88	0.430170	0.638770	0.007680
C891	C89	0.289010	0.745090	0.183620
C901	C90	0.324770	0.744900	0.112260
C911	C91	0.217840	0.753340	0.317430
C921	C92	0.181740	0.754950	0.388430
C931	C93	0.038720	0.935350	0.493110
C941	C94	0.075940	0.864040	0.491940
O951	O95	0.329800	0.668250	0.007640
O961	O96	0.425200	0.745290	0.082810
O971	O97	0.252700	0.755430	0.417650
O981	O98	0.004840	0.834340	0.492390
O991	O99	0.176420	0.834910	0.492890
O1001	O100	0.081350	0.754540	0.417570
O1011	O101	0.252930	0.745890	0.083030
O1021	O102	0.002320	0.667950	0.006530
O1031	O103	0.377850	0.780060	0.472790
O1041	O104	0.126790	0.725070	0.029580
H1051	H105	0.133890	0.557860	0.005440
H1061	H106	0.120930	0.746050	0.193340
H1071	H107	0.059700	0.753680	0.307000
H1081	H108	0.195450	0.945140	0.494800
H1091	H109	0.369930	0.945010	0.495080
H1101	H110	0.385390	0.754090	0.307150
H1111	H111	0.446270	0.745780	0.193360
H1121	H112	0.308340	0.558200	0.005120
H1131	H113	0.376600	0.815030	0.440610
H1141	H114	0.124030	0.694440	0.065790
Al1151	Al115	0.753220	0.751450	0.000270
Al1161	Al116	0.503780	0.750940	0.000030
C1171	C117	0.575350	0.534140	0.002760
C1181	C118	0.679820	0.747030	0.217710
C1191	C119	0.644680	0.751360	0.283330
C1201	C120	0.611050	0.969260	0.496250
C1211	C121	0.928950	0.969140	0.496320
C1221	C122	0.826960	0.751480	0.283340
C1231	C123	0.862010	0.746910	0.217770
C1241	C124	0.893170	0.534220	0.002640
C1251	C125	0.965940	0.567890	0.005780
C1261	C126	0.930170	0.638770	0.007680
C1271	C127	0.789010	0.745090	0.183620
C1281	C128	0.824770	0.744900	0.112260
C1291	C129	0.717840	0.753340	0.317430
C1301	C130	0.681740	0.754950	0.388430
C1311	C131	0.538720	0.935350	0.493110
C1321	C132	0.575940	0.864040	0.491940
O1331	O133	0.829800	0.668250	0.007640
O1341	O134	0.925200	0.745290	0.082810
O1351	O135	0.752700	0.755430	0.417650
O1361	O136	0.504840	0.834340	0.492390
O1371	O137	0.676420	0.834910	0.492890
O1381	O138	0.581350	0.754540	0.417570
O1391	O139	0.752930	0.745890	0.083030
O1401	O140	0.502320	0.667950	0.006530
O1411	O141	0.877850	0.780060	0.472790
O1421	O142	0.626790	0.725070	0.029580
H1431	H143	0.633890	0.557860	0.005440
H1441	H144	0.620930	0.746050	0.193340
H1451	H145	0.559700	0.753680	0.307000
H1461	H146	0.695450	0.945140	0.494800
H1471	H147	0.869930	0.945010	0.495080
H1481	H148	0.885390	0.754090	0.307150
H1491	H149	0.946270	0.745780	0.193360
H1501	H150	0.808340	0.558200	0.005120
H1511	H151	0.876600	0.815030	0.440610
H1521	H152	0.624030	0.694440	0.065790
Al1531	Al153	0.253220	0.251450	0.500270
Al1541	Al154	0.003780	0.250940	0.500030
C1551	C155	0.075350	0.034140	0.502760
C1561	C156	0.179820	0.247030	0.717710
C1571	C157	0.144680	0.251360	0.783330
C1581	C158	0.111050	0.469260	0.996250
C1591	C159	0.428950	0.469140	0.996320
C1601	C160	0.326960	0.251480	0.783340
C1611	C161	0.362010	0.246910	0.717770
C1621	C162	0.393170	0.034220	0.502640
C1631	C163	0.465940	0.067890	0.505780
C1641	C164	0.430170	0.138770	0.507680
C1651	C165	0.289010	0.245090	0.683620
C1661	C166	0.324770	0.244900	0.612260
C1671	C167	0.217840	0.253340	0.817430
C1681	C168	0.181740	0.254950	0.888430
C1691	C169	0.038720	0.435350	0.993110
C1701	C170	0.075940	0.364040	0.991940
O1711	O171	0.329800	0.168250	0.507640
O1721	O172	0.425200	0.245290	0.582810
O1731	O173	0.252700	0.255430	0.917650
O1741	O174	0.004840	0.334340	0.992390
O1751	O175	0.176420	0.334910	0.992890
O1761	O176	0.081350	0.254540	0.917570
O1771	O177	0.252930	0.245890	0.583030
O1781	O178	0.002320	0.167950	0.506530
O1791	O179	0.377850	0.280060	0.972790
O1801	O180	0.126790	0.225070	0.529580
H1811	H181	0.133890	0.057860	0.505440
H1821	H182	0.120930	0.246050	0.693340
H1831	H183	0.059700	0.253680	0.807000
H1841	H184	0.195450	0.445140	0.994800
H1851	H185	0.369930	0.445010	0.995080
H1861	H186	0.385390	0.254090	0.807150
H1871	H187	0.446270	0.245780	0.693360
H1881	H188	0.308340	0.058200	0.505120
H1891	H189	0.376600	0.315030	0.940610
H1901	H190	0.124030	0.194440	0.565790
Al1911	Al191	0.753220	0.251450	0.500270
Al1921	Al192	0.503780	0.250940	0.500030
C1931	C193	0.575350	0.034140	0.502760
C1941	C194	0.679820	0.247030	0.717710
C1951	C195	0.644680	0.251360	0.783330
C1961	C196	0.611050	0.469260	0.996250
C1971	C197	0.928950	0.469140	0.996320
C1981	C198	0.826960	0.251480	0.783340
C1991	C199	0.862010	0.246910	0.717770
C2001	C200	0.893170	0.034220	0.502640
C2011	C201	0.965940	0.067890	0.505780
C2021	C202	0.930170	0.138770	0.507680
C2031	C203	0.789010	0.245090	0.683620
C2041	C204	0.824770	0.244900	0.612260
C2051	C205	0.717840	0.253340	0.817430
C2061	C206	0.681740	0.254950	0.888430
C2071	C207	0.538720	0.435350	0.993110
C2081	C208	0.575940	0.364040	0.991940
O2091	O209	0.829800	0.168250	0.507640
O2101	O210	0.925200	0.245290	0.582810
O2111	O211	0.752700	0.255430	0.917650
O2121	O212	0.504840	0.334340	0.992390
O2131	O213	0.676420	0.334910	0.992890
O2141	O214	0.581350	0.254540	0.917570
O2151	O215	0.752930	0.245890	0.583030
O2161	O216	0.502320	0.167950	0.506530
O2171	O217	0.877850	0.280060	0.972790
O2181	O218	0.626790	0.225070	0.529580
H2191	H219	0.633890	0.057860	0.505440
H2201	H220	0.620930	0.246050	0.693340
H2211	H221	0.559700	0.253680	0.807000
H2221	H222	0.695450	0.445140	0.994800
H2231	H223	0.869930	0.445010	0.995080
H2241	H224	0.885390	0.254090	0.807150
H2251	H225	0.946270	0.245780	0.693360
H2261	H226	0.808340	0.058200	0.505120
H2271	H227	0.876600	0.315030	0.940610
H2281	H228	0.624030	0.194440	0.565790
Al2291	Al229	0.253220	0.751450	0.500270
Al2301	Al230	0.003780	0.750940	0.500030
C2311	C231	0.075350	0.534140	0.502760
C2321	C232	0.179820	0.747030	0.717710
C2331	C233	0.144680	0.751360	0.783330
C2341	C234	0.111050	0.969260	0.996250
C2351	C235	0.428950	0.969140	0.996320
C2361	C236	0.326960	0.751480	0.783340
C2371	C237	0.362010	0.746910	0.717770
C2381	C238	0.393170	0.534220	0.502640
C2391	C239	0.465940	0.567890	0.505780
C2401	C240	0.430170	0.638770	0.507680
C2411	C241	0.289010	0.745090	0.683620
C2421	C242	0.324770	0.744900	0.612260
C2431	C243	0.217840	0.753340	0.817430
C2441	C244	0.181740	0.754950	0.888430
C2451	C245	0.038720	0.935350	0.993110
C2461	C246	0.075940	0.864040	0.991940
O2471	O247	0.329800	0.668250	0.507640
O2481	O248	0.425200	0.745290	0.582810
O2491	O249	0.252700	0.755430	0.917650
O2501	O250	0.004840	0.834340	0.992390
O2511	O251	0.176420	0.834910	0.992890
O2521	O252	0.081350	0.754540	0.917570
O2531	O253	0.252930	0.745890	0.583030
O2541	O254	0.002320	0.667950	0.506530
O2551	O255	0.377850	0.780060	0.972790
O2561	O256	0.126790	0.725070	0.529580
H2571	H257	0.133890	0.557860	0.505440
H2581	H258	0.120930	0.746050	0.693340
H2591	H259	0.059700	0.753680	0.807000
H2601	H260	0.195450	0.945140	0.994800
H2611	H261	0.369930	0.945010	0.995080
H2621	H262	0.385390	0.754090	0.807150
H2631	H263	0.446270	0.745780	0.693360
H2641	H264	0.308340	0.558200	0.505120
H2651	H265	0.376600	0.815030	0.940610
H2661	H266	0.124030	0.694440	0.565790
Al2671	Al267	0.753220	0.751450	0.500270
Al2681	Al268	0.503780	0.750940	0.500030
C2691	C269	0.575350	0.534140	0.502760
C2701	C270	0.679820	0.747030	0.717710
C2711	C271	0.644680	0.751360	0.783330
C2721	C272	0.611050	0.969260	0.996250
C2731	C273	0.928950	0.969140	0.996320
C2741	C274	0.826960	0.751480	0.783340
C2751	C275	0.862010	0.746910	0.717770
C2761	C276	0.893170	0.534220	0.502640
C2771	C277	0.965940	0.567890	0.505780
C2781	C278	0.930170	0.638770	0.507680
C2791	C279	0.789010	0.745090	0.683620
C2801	C280	0.824770	0.744900	0.612260
C2811	C281	0.717840	0.753340	0.817430
C2821	C282	0.681740	0.754950	0.888430
C2831	C283	0.538720	0.935350	0.993110
C2841	C284	0.575940	0.864040	0.991940
O2851	O285	0.829800	0.668250	0.507640
O2861	O286	0.925200	0.745290	0.582810
O2871	O287	0.752700	0.755430	0.917650
O2881	O288	0.504840	0.834340	0.992390
O2891	O289	0.676420	0.834910	0.992890
O2901	O290	0.581350	0.754540	0.917570
O2911	O291	0.752930	0.745890	0.583030
O2921	O292	0.502320	0.667950	0.506530
O2931	O293	0.877850	0.780060	0.972790
O2941	O294	0.626790	0.725070	0.529580
H2951	H295	0.633890	0.557860	0.505440
H2961	H296	0.620930	0.746050	0.693340
H2971	H297	0.559700	0.753680	0.807000
H2981	H298	0.695450	0.945140	0.994800
H2991	H299	0.869930	0.945010	0.995080
H3001	H300	0.885390	0.754090	0.807150
H3011	H301	0.946270	0.745780	0.693360
H3021	H302	0.808340	0.558200	0.505120
H3031	H303	0.876600	0.815030	0.940610
H3041	H304	0.624030	0.694440	0.565790
