data_SABWAU01_clean_PM
_symmetry_space_group_name_H-M	'P1'
_cell_length_a	19.504200
_cell_length_b	15.201400
_cell_length_c	6.569300
_cell_angle_alpha	90.000000
_cell_angle_beta	104.180000
_cell_angle_gamma	90.000000
_symmetry_Int_Tables_number 1

loop_
_symmetry_equiv_pos_as_xyz
'x,y,z'

loop_
_atom_site_label
_atom_site_type_symbol
_atom_site_fract_x
_atom_site_fract_y
_atom_site_fract_z
Al11	Al1	0.500300	0.243700	0.510800
O11	O1	0.499900	0.302500	0.265100
O21	O2	0.995600	0.552100	0.238400
O31	O3	0.915900	0.069600	0.872200
O41	O4	0.935500	0.089000	0.549300
O51	O5	0.557300	0.158900	0.445100
O61	O6	0.582500	0.184800	0.141000
C11	C1	0.819800	0.106620	0.589500
C21	C2	0.772700	0.106640	0.715400
C31	C3	0.700700	0.124790	0.628100
C41	C4	0.675700	0.142390	0.417600
C51	C5	0.723000	0.142210	0.293600
C61	C6	0.794800	0.124240	0.381100
C71	C7	0.895400	0.087310	0.675000
C81	C8	0.600900	0.162420	0.330100
H11	H1	0.789500	0.093990	0.865100
H21	H2	0.667200	0.125100	0.718600
H31	H3	0.706200	0.154930	0.144400
H41	H4	0.828300	0.123900	0.291400
O71	O7	0.414100	0.306400	0.866500
O81	O8	0.442400	0.346600	0.567200
O91	O9	0.063200	0.416900	0.456800
O101	O10	0.086100	0.429700	0.140100
C91	C9	0.323700	0.357100	0.589600
C101	C10	0.275000	0.344400	0.706700
C111	C11	0.202800	0.363600	0.622000
C121	C12	0.179900	0.395170	0.421400
C131	C13	0.228700	0.408300	0.301900
C141	C14	0.301000	0.389000	0.387500
C151	C15	0.398500	0.336030	0.678500
C161	C16	0.104800	0.415290	0.335600
H51	H5	0.290800	0.321700	0.849100
H61	H6	0.168100	0.354500	0.706600
H71	H7	0.212700	0.431000	0.159200
H81	H8	0.336100	0.397900	0.303300
H91	H9	0.495000	0.360600	0.279000
H101	H10	0.993000	0.610200	0.245000
Al21	Al2	0.499700	0.743700	0.989200
O111	O11	0.500100	0.802500	0.234900
O121	O12	0.004400	0.052100	0.261600
O131	O13	0.084100	0.569600	0.627800
O141	O14	0.064500	0.589000	0.950700
O151	O15	0.442700	0.658900	0.054900
O161	O16	0.417500	0.684800	0.359000
C171	C17	0.180200	0.606620	0.910500
C181	C18	0.227300	0.606640	0.784600
C191	C19	0.299300	0.624790	0.871900
C201	C20	0.324300	0.642390	0.082400
C211	C21	0.277000	0.642210	0.206400
C221	C22	0.205200	0.624240	0.118900
C231	C23	0.104600	0.587310	0.825000
C241	C24	0.399100	0.662420	0.169900
H111	H11	0.210500	0.593990	0.634900
H121	H12	0.332800	0.625100	0.781400
H131	H13	0.293800	0.654930	0.355600
H141	H14	0.171700	0.623900	0.208600
O171	O17	0.585900	0.806400	0.633500
O181	O18	0.557600	0.846600	0.932800
O191	O19	0.936800	0.916900	0.043200
O201	O20	0.913900	0.929700	0.359900
C251	C25	0.676300	0.857100	0.910400
C261	C26	0.725000	0.844400	0.793300
C271	C27	0.797200	0.863600	0.878000
C281	C28	0.820100	0.895170	0.078600
C291	C29	0.771300	0.908300	0.198100
C301	C30	0.699000	0.889000	0.112500
C311	C31	0.601500	0.836030	0.821500
C321	C32	0.895200	0.915290	0.164400
H151	H15	0.709200	0.821700	0.650900
H161	H16	0.831900	0.854500	0.793400
H171	H17	0.787300	0.931000	0.340800
H181	H18	0.663900	0.897900	0.196700
H191	H19	0.505000	0.860600	0.221000
H201	H20	0.007000	0.110200	0.255000
Al31	Al3	0.499700	0.756300	0.489200
O211	O21	0.500100	0.697500	0.734900
O221	O22	0.004400	0.447900	0.761600
O231	O23	0.084100	0.930400	0.127800
O241	O24	0.064500	0.911000	0.450700
O251	O25	0.442700	0.841100	0.554900
O261	O26	0.417500	0.815200	0.859000
C331	C33	0.180200	0.893380	0.410500
C341	C34	0.227300	0.893360	0.284600
C351	C35	0.299300	0.875210	0.371900
C361	C36	0.324300	0.857610	0.582400
C371	C37	0.277000	0.857790	0.706400
C381	C38	0.205200	0.875760	0.618900
C391	C39	0.104600	0.912690	0.325000
C401	C40	0.399100	0.837580	0.669900
H211	H21	0.210500	0.906010	0.134900
H221	H22	0.332800	0.874900	0.281400
H231	H23	0.293800	0.845070	0.855600
H241	H24	0.171700	0.876100	0.708600
O271	O27	0.585900	0.693600	0.133500
O281	O28	0.557600	0.653400	0.432800
O291	O29	0.936800	0.583100	0.543200
O301	O30	0.913900	0.570300	0.859900
C411	C41	0.676300	0.642900	0.410400
C421	C42	0.725000	0.655600	0.293300
C431	C43	0.797200	0.636400	0.378000
C441	C44	0.820100	0.604830	0.578600
C451	C45	0.771300	0.591700	0.698100
C461	C46	0.699000	0.611000	0.612500
C471	C47	0.601500	0.663970	0.321500
C481	C48	0.895200	0.584710	0.664400
H251	H25	0.709200	0.678300	0.150900
H261	H26	0.831900	0.645500	0.293400
H271	H27	0.787300	0.569000	0.840800
H281	H28	0.663900	0.602100	0.696700
H291	H29	0.505000	0.639400	0.721000
H301	H30	0.007000	0.389800	0.755000
Al41	Al4	0.500300	0.256300	0.010800
O311	O31	0.499900	0.197500	0.765100
O321	O32	0.995600	0.947900	0.738400
O331	O33	0.915900	0.430400	0.372200
O341	O34	0.935500	0.411000	0.049300
O351	O35	0.557300	0.341100	0.945100
O361	O36	0.582500	0.315200	0.641000
C491	C49	0.819800	0.393380	0.089500
C501	C50	0.772700	0.393360	0.215400
C511	C51	0.700700	0.375210	0.128100
C521	C52	0.675700	0.357610	0.917600
C531	C53	0.723000	0.357790	0.793600
C541	C54	0.794800	0.375760	0.881100
C551	C55	0.895400	0.412690	0.175000
C561	C56	0.600900	0.337580	0.830100
H311	H31	0.789500	0.406010	0.365100
H321	H32	0.667200	0.374900	0.218600
H331	H33	0.706200	0.345070	0.644400
H341	H34	0.828300	0.376100	0.791400
O371	O37	0.414100	0.193600	0.366500
O381	O38	0.442400	0.153400	0.067200
O391	O39	0.063200	0.083100	0.956800
O401	O40	0.086100	0.070300	0.640100
C571	C57	0.323700	0.142900	0.089600
C581	C58	0.275000	0.155600	0.206700
C591	C59	0.202800	0.136400	0.122000
C601	C60	0.179900	0.104830	0.921400
C611	C61	0.228700	0.091700	0.801900
C621	C62	0.301000	0.111000	0.887500
C631	C63	0.398500	0.163970	0.178500
C641	C64	0.104800	0.084710	0.835600
H351	H35	0.290800	0.178300	0.349100
H361	H36	0.168100	0.145500	0.206600
H371	H37	0.212700	0.069000	0.659200
H381	H38	0.336100	0.102100	0.803300
H391	H39	0.495000	0.139400	0.779000
H401	H40	0.993000	0.889800	0.745000
Al51	Al5	0.000000	0.500000	0.000000
Al61	Al6	0.000000	0.000000	0.500000
Al71	Al7	0.000000	0.500000	0.500000
Al81	Al8	0.000000	0.000000	0.000000
