data_SABWAU_SL_PM
_symmetry_space_group_name_H-M	'P1'
_cell_length_a	6.576000
_cell_length_b	7.612000
_cell_length_c	10.472600
_cell_angle_alpha	111.311000
_cell_angle_beta	103.248000
_cell_angle_gamma	90.000000
_symmetry_Int_Tables_number 1

loop_
_symmetry_equiv_pos_as_xyz
'x,y,z'

loop_
_atom_site_label
_atom_site_type_symbol
_atom_site_fract_x
_atom_site_fract_y
_atom_site_fract_z
Al11	Al1	0.001000	0.001200	0.002400
Al21	Al2	0.501000	0.001200	0.002400
C31	C3	0.160000	0.072500	0.787000
C41	C4	0.835000	0.931400	0.212800
C51	C5	0.871000	0.076800	0.599600
C61	C6	0.130000	0.961600	0.407200
C71	C7	0.781000	0.025600	0.451200
C81	C8	0.212000	0.976400	0.550800
C91	C9	0.078000	0.029200	0.636400
C101	C10	0.910000	0.951600	0.359200
C111	C11	0.660000	0.714500	0.787000
C121	C12	0.335000	0.281400	0.212800
C131	C13	0.371000	0.522800	0.599600
C141	C14	0.630000	0.445600	0.407200
C151	C15	0.281000	0.425600	0.451200
C161	C16	0.712000	0.574400	0.550800
C171	C17	0.578000	0.607200	0.636400
C181	C18	0.410000	0.407600	0.359200
O191	O19	0.256000	0.890000	0.000000
O201	O20	0.051000	0.109200	0.872400
O211	O21	0.940000	0.882500	0.125000
O221	O22	0.340000	0.007600	0.817200
O231	O23	0.637000	0.934400	0.168800
O241	O24	0.756000	0.110000	0.000000
O251	O25	0.551000	0.763200	0.872400
O261	O26	0.440000	0.242500	0.125000
O271	O27	0.840000	0.809600	0.817200
O281	O28	0.137000	0.234400	0.168800
H291	H29	0.775990	0.151000	0.679120
H301	H30	0.241640	0.958420	0.337790
H311	H31	0.609390	0.045880	0.412000
H321	H32	0.380300	0.944490	0.586400
H331	H33	0.275990	0.528120	0.679120
H341	H34	0.741640	0.379380	0.337790
H351	H35	0.109390	0.366120	0.412000
H361	H36	0.880300	0.641920	0.586400
H371	H37	0.756000	0.251010	0.037250
H381	H38	0.256000	0.748990	0.962750
