data_SABWUQ_clean_PM
_symmetry_space_group_name_H-M	'P1'
_cell_length_a	10.425000
_cell_length_b	10.620000
_cell_length_c	11.323000
_cell_angle_alpha	83.410000
_cell_angle_beta	74.960000
_cell_angle_gamma	69.670000
_symmetry_Int_Tables_number 1

loop_
_symmetry_equiv_pos_as_xyz
'x,y,z'

loop_
_atom_site_label
_atom_site_type_symbol
_atom_site_fract_x
_atom_site_fract_y
_atom_site_fract_z
Dy11	Dy1	0.586990	0.597280	0.631750
O11	O1	0.396600	0.616800	0.405100
O21	O2	0.471600	0.741700	0.496400
O31	O3	0.282900	0.249100	0.439600
O41	O4	0.051400	0.318700	0.454500
O51	O5	0.871300	0.062700	0.262300
O61	O6	0.949400	0.848400	0.274700
O71	O7	0.002900	0.441100	0.669500
O81	O8	0.770800	0.496200	0.719800
O91	O9	0.529000	0.481400	0.164900
O101	O10	0.658300	0.391200	0.297800
O111	O11	0.176000	0.247700	0.158800
O121	O12	0.271100	0.234100	0.967900
N11	N1	0.960200	0.956000	0.283100
N21	N2	0.169200	0.261300	0.052000
C11	C1	0.281400	0.852800	0.406000
C21	C2	0.282100	0.978000	0.431400
H11	H1	0.354300	0.983400	0.462400
C31	C3	0.175500	0.095000	0.410800
C41	C4	0.067800	0.086700	0.363800
H21	H2	0.994100	0.163300	0.352000
C51	C5	0.073200	0.962000	0.335400
C61	C6	0.177500	0.843900	0.355300
H31	H3	0.177800	0.761300	0.335300
C71	C7	0.391900	0.727200	0.437300
C81	C8	0.171200	0.231800	0.437100
C91	C9	0.894300	0.418200	0.876600
C101	C10	0.771800	0.443900	0.969500
H41	H4	0.684600	0.484000	0.950600
C111	C11	0.779300	0.409900	0.090500
C121	C12	0.909900	0.349400	0.118900
H51	H5	0.916800	0.326100	0.199300
C131	C13	0.028200	0.325100	0.024600
C141	C14	0.024700	0.357100	0.904600
H61	H6	0.107300	0.338400	0.843400
C151	C15	0.887900	0.455400	0.746400
C161	C16	0.648000	0.430400	0.189900
Dy21	Dy2	0.413010	0.402720	0.368250
O131	O13	0.603400	0.383200	0.594900
O141	O14	0.528400	0.258300	0.503600
O151	O15	0.717100	0.750900	0.560400
O161	O16	0.948600	0.681300	0.545500
O171	O17	0.128700	0.937300	0.737700
O181	O18	0.050600	0.151600	0.725300
O191	O19	0.997100	0.558900	0.330500
O201	O20	0.229200	0.503800	0.280200
O211	O21	0.471000	0.518600	0.835100
O221	O22	0.341700	0.608800	0.702200
O231	O23	0.824000	0.752300	0.841200
O241	O24	0.728900	0.765900	0.032100
N31	N3	0.039800	0.044000	0.716900
N41	N4	0.830800	0.738700	0.948000
C171	C17	0.718600	0.147200	0.594000
C181	C18	0.717900	0.022000	0.568600
H71	H7	0.645700	0.016600	0.537600
C191	C19	0.824500	0.905000	0.589200
C201	C20	0.932200	0.913300	0.636200
H81	H8	0.005900	0.836700	0.648000
C211	C21	0.926800	0.038000	0.664600
C221	C22	0.822500	0.156100	0.644700
H91	H9	0.822200	0.238700	0.664700
C231	C23	0.608100	0.272800	0.562700
C241	C24	0.828800	0.768200	0.562900
C251	C25	0.105700	0.581800	0.123400
C261	C26	0.228200	0.556100	0.030500
H101	H10	0.315400	0.516000	0.049400
C271	C27	0.220700	0.590100	0.909500
C281	C28	0.090100	0.650600	0.881100
H111	H11	0.083200	0.673900	0.800700
C291	C29	0.971800	0.674900	0.975400
C301	C30	0.975300	0.642900	0.095400
H121	H12	0.892700	0.661600	0.156600
C311	C31	0.112100	0.544600	0.253600
C321	C32	0.352000	0.569600	0.810100
Cu11	Cu1	0.000000	0.500000	0.500000
