data_SABXOL_clean_PM
_symmetry_space_group_name_H-M	'P1'
_cell_length_a	10.399000
_cell_length_b	10.606000
_cell_length_c	11.300000
_cell_angle_alpha	83.500000
_cell_angle_beta	75.150000
_cell_angle_gamma	69.620000
_symmetry_Int_Tables_number 1

loop_
_symmetry_equiv_pos_as_xyz
'x,y,z'

loop_
_atom_site_label
_atom_site_type_symbol
_atom_site_fract_x
_atom_site_fract_y
_atom_site_fract_z
Er11	Er1	0.586410	0.596300	0.632770
O11	O1	0.395500	0.615500	0.405900
O21	O2	0.471700	0.739600	0.499100
O31	O3	0.286700	0.248300	0.436800
O41	O4	0.054000	0.318100	0.454500
O51	O5	0.870700	0.062700	0.262900
O61	O6	0.949600	0.848600	0.273500
O71	O7	0.001100	0.442700	0.670600
O81	O8	0.768900	0.497700	0.720000
O91	O9	0.527700	0.483200	0.164600
O101	O10	0.657100	0.394000	0.298700
O111	O11	0.175100	0.246200	0.160000
O121	O12	0.271500	0.233100	0.968200
N11	N1	0.957700	0.956900	0.285700
N21	N2	0.168800	0.261700	0.052800
C11	C1	0.281800	0.851000	0.407100
C21	C2	0.283800	0.976500	0.431600
H11	H1	0.356700	0.981500	0.462200
C31	C3	0.177000	0.094400	0.410700
C41	C4	0.069200	0.086100	0.364500
H21	H2	0.995600	0.163300	0.352800
C51	C5	0.072800	0.961800	0.336100
C61	C6	0.176500	0.843900	0.357000
H31	H3	0.175500	0.761300	0.337800
C71	C7	0.391300	0.725600	0.438700
C81	C8	0.174900	0.230600	0.435800
C91	C9	0.892700	0.419500	0.877300
C101	C10	0.769900	0.445800	0.969900
H41	H4	0.682500	0.486500	0.950800
C111	C11	0.777700	0.411500	0.091000
C121	C12	0.909300	0.350400	0.119500
H51	H5	0.916200	0.327500	0.200000
C131	C13	0.029000	0.324900	0.024700
C141	C14	0.024400	0.357500	0.905100
H61	H6	0.106800	0.339000	0.843600
C151	C15	0.886100	0.456300	0.746300
C161	C16	0.646200	0.433100	0.190600
Er21	Er2	0.413590	0.403700	0.367230
O131	O13	0.604500	0.384500	0.594100
O141	O14	0.528300	0.260400	0.500900
O151	O15	0.713300	0.751700	0.563200
O161	O16	0.946000	0.681900	0.545500
O171	O17	0.129300	0.937300	0.737100
O181	O18	0.050400	0.151400	0.726500
O191	O19	0.998900	0.557300	0.329400
O201	O20	0.231100	0.502300	0.280000
O211	O21	0.472300	0.516800	0.835400
O221	O22	0.342900	0.606000	0.701300
O231	O23	0.824900	0.753800	0.840000
O241	O24	0.728500	0.766900	0.031800
N31	N3	0.042300	0.043100	0.714300
N41	N4	0.831200	0.738300	0.947200
C171	C17	0.718200	0.149000	0.592900
C181	C18	0.716200	0.023500	0.568400
H71	H7	0.643300	0.018500	0.537800
C191	C19	0.823000	0.905600	0.589300
C201	C20	0.930800	0.913900	0.635500
H81	H8	0.004400	0.836700	0.647200
C211	C21	0.927200	0.038200	0.663900
C221	C22	0.823500	0.156100	0.643000
H91	H9	0.824500	0.238700	0.662200
C231	C23	0.608700	0.274400	0.561300
C241	C24	0.825100	0.769400	0.564200
C251	C25	0.107300	0.580500	0.122700
C261	C26	0.230100	0.554200	0.030100
H101	H10	0.317500	0.513500	0.049200
C271	C27	0.222300	0.588500	0.909000
C281	C28	0.090700	0.649600	0.880500
H111	H11	0.083800	0.672500	0.800000
C291	C29	0.971000	0.675100	0.975300
C301	C30	0.975600	0.642500	0.094900
H121	H12	0.893200	0.661000	0.156400
C311	C31	0.113900	0.543700	0.253700
C321	C32	0.353800	0.566900	0.809400
Cu11	Cu1	0.000000	0.500000	0.500000
