data_SABYIG_clean_PM
_symmetry_space_group_name_H-M	'P1'
_cell_length_a	10.528000
_cell_length_b	10.671000
_cell_length_c	11.378000
_cell_angle_alpha	83.140000
_cell_angle_beta	74.610000
_cell_angle_gamma	69.340000
_symmetry_Int_Tables_number 1

loop_
_symmetry_equiv_pos_as_xyz
'x,y,z'

loop_
_atom_site_label
_atom_site_type_symbol
_atom_site_fract_x
_atom_site_fract_y
_atom_site_fract_z
Sm11	Sm1	0.587950	0.596720	0.630940
O11	O1	0.395900	0.620800	0.407600
O21	O2	0.470300	0.747800	0.495400
O31	O3	0.275600	0.252200	0.442300
O41	O4	0.046700	0.320000	0.454800
O51	O5	0.874100	0.061000	0.263100
O61	O6	0.953700	0.847900	0.274400
O71	O7	0.005700	0.440900	0.668400
O81	O8	0.776300	0.488900	0.717800
O91	O9	0.532800	0.480900	0.161700
O101	O10	0.660500	0.388700	0.295100
O111	O11	0.172000	0.249100	0.159300
O121	O12	0.271500	0.239900	0.968100
N11	N1	0.960800	0.956800	0.286300
N21	N2	0.167900	0.264500	0.052300
C11	C1	0.280900	0.855700	0.406100
C21	C2	0.279300	0.981500	0.431500
H11	H1	0.350100	0.987800	0.462600
C31	C3	0.172600	0.097100	0.410600
C41	C4	0.066800	0.088100	0.364900
H21	H2	0.992700	0.164300	0.353900
C51	C5	0.073800	0.963200	0.336200
C61	C6	0.177100	0.845900	0.356800
H31	H3	0.177300	0.763200	0.338400
C71	C7	0.390900	0.731800	0.438100
C81	C8	0.167400	0.233400	0.437700
C91	C9	0.897300	0.416000	0.874900
C101	C10	0.775500	0.441300	0.967200
H41	H4	0.689200	0.481200	0.947800
C111	C11	0.780700	0.407900	0.088100
C121	C12	0.910200	0.348600	0.117300
H51	H5	0.915600	0.325700	0.197700
C131	C13	0.031100	0.324700	0.023300
C141	C14	0.026600	0.356400	0.903000
H61	H6	0.108700	0.338200	0.841700
C151	C15	0.892600	0.451800	0.744800
C161	C16	0.649200	0.429000	0.187000
Sm21	Sm2	0.412050	0.403280	0.369060
O131	O13	0.604100	0.379200	0.592400
O141	O14	0.529700	0.252200	0.504600
O151	O15	0.724400	0.747800	0.557700
O161	O16	0.953300	0.680000	0.545200
O171	O17	0.125900	0.939000	0.736900
O181	O18	0.046300	0.152100	0.725600
O191	O19	0.994300	0.559100	0.331600
O201	O20	0.223700	0.511100	0.282200
O211	O21	0.467200	0.519100	0.838300
O221	O22	0.339500	0.611300	0.704900
O231	O23	0.828000	0.750900	0.840700
O241	O24	0.728500	0.760100	0.031900
N31	N3	0.039200	0.043200	0.713700
N41	N4	0.832100	0.735500	0.947700
C171	C17	0.719100	0.144300	0.593900
C181	C18	0.720700	0.018500	0.568500
H71	H7	0.649900	0.012200	0.537400
C191	C19	0.827400	0.902900	0.589400
C201	C20	0.933200	0.911900	0.635100
H81	H8	0.007300	0.835700	0.646100
C211	C21	0.926200	0.036800	0.663800
C221	C22	0.822900	0.154100	0.643200
H91	H9	0.822700	0.236800	0.661600
C231	C23	0.609100	0.268200	0.561900
C241	C24	0.832600	0.766600	0.562300
C251	C25	0.102700	0.584000	0.125100
C261	C26	0.224500	0.558700	0.032800
H101	H10	0.310800	0.518800	0.052200
C271	C27	0.219300	0.592100	0.911900
C281	C28	0.089800	0.651400	0.882700
H111	H11	0.084400	0.674300	0.802300
C291	C29	0.968900	0.675300	0.976700
C301	C30	0.973400	0.643600	0.097000
H121	H12	0.891300	0.661800	0.158300
C311	C31	0.107400	0.548200	0.255200
C321	C32	0.350800	0.571000	0.813000
Cu11	Cu1	0.000000	0.500000	0.500000
