data_SACDUX_clean_PM
_symmetry_space_group_name_H-M	'P1'
_cell_length_a	13.812000
_cell_length_b	27.540000
_cell_length_c	45.022000
_cell_angle_alpha	90.000000
_cell_angle_beta	90.000000
_cell_angle_gamma	90.000000
_symmetry_Int_Tables_number 1

loop_
_symmetry_equiv_pos_as_xyz
'x,y,z'

loop_
_atom_site_label
_atom_site_type_symbol
_atom_site_fract_x
_atom_site_fract_y
_atom_site_fract_z
Zn11	Zn1	0.149890	0.545980	0.083310
Zn21	Zn2	0.377320	0.525920	0.914750
Zn31	Zn3	0.673360	0.257620	0.682050
Zn41	Zn4	0.850110	0.954020	0.583310
Zn51	Zn5	0.622680	0.974080	0.414750
Zn61	Zn6	0.326640	0.242380	0.182050
Zn71	Zn7	0.649890	0.454020	0.416690
Zn81	Zn8	0.877320	0.474080	0.585250
Zn91	Zn9	0.173360	0.742380	0.817950
Zn101	Zn10	0.350110	0.045980	0.916690
Zn111	Zn11	0.122680	0.025920	0.085250
Zn121	Zn12	0.826640	0.757620	0.317950
H11	H1	0.959600	0.528400	0.054000
H21	H2	0.875700	0.549200	0.010700
H31	H3	0.126900	0.603800	0.977700
H41	H4	0.202300	0.579400	0.021000
H51	H5	0.528100	0.582800	0.883100
H61	H6	0.687900	0.608800	0.889200
H71	H7	0.673400	0.563900	0.975200
H81	H8	0.517900	0.536500	0.965600
H91	H9	0.209000	0.688800	0.873800
H101	H10	0.126300	0.651500	0.912000
H111	H11	0.874900	0.685000	0.871000
H121	H12	0.965000	0.722200	0.834000
H131	H13	0.397400	0.419000	0.929500
H141	H14	0.413000	0.344200	0.905800
H151	H15	0.459400	0.416100	0.829300
H161	H16	0.438200	0.488300	0.854300
H171	H17	0.435600	0.080500	0.859400
H181	H18	0.466000	0.151000	0.833800
H191	H19	0.401600	0.226500	0.908600
H201	H20	0.373500	0.152600	0.932000
H211	H21	0.605400	0.338200	0.721700
H221	H22	0.546100	0.349100	0.769500
H231	H23	0.499600	0.203500	0.773700
H241	H24	0.557900	0.197800	0.725300
H251	H25	0.040400	0.971600	0.554000
H261	H26	0.124300	0.950800	0.510700
H271	H27	0.873100	0.896200	0.477700
H281	H28	0.797700	0.920600	0.521000
H291	H29	0.471900	0.917200	0.383100
H301	H30	0.312100	0.891200	0.389200
H311	H31	0.326600	0.936100	0.475200
H321	H32	0.482100	0.963500	0.465600
H331	H33	0.791000	0.811200	0.373800
H341	H34	0.873700	0.848500	0.412000
H351	H35	0.125100	0.815000	0.371000
H361	H36	0.035000	0.777800	0.334000
H371	H37	0.602600	0.081000	0.429500
H381	H38	0.587000	0.155800	0.405800
H391	H39	0.540600	0.083900	0.329300
H401	H40	0.561800	0.011700	0.354300
H411	H41	0.564400	0.419500	0.359400
H421	H42	0.534000	0.349000	0.333800
H431	H43	0.598400	0.273500	0.408600
H441	H44	0.626500	0.347400	0.432000
H451	H45	0.394600	0.161800	0.221700
H461	H46	0.453900	0.150900	0.269500
H471	H47	0.500400	0.296500	0.273700
H481	H48	0.442100	0.302200	0.225300
H491	H49	0.459600	0.471600	0.446000
H501	H50	0.375700	0.450800	0.489300
H511	H51	0.626900	0.396200	0.522300
H521	H52	0.702300	0.420600	0.479000
H531	H53	0.028100	0.417200	0.616900
H541	H54	0.187900	0.391200	0.610800
H551	H55	0.173400	0.436100	0.524800
H561	H56	0.017900	0.463500	0.534400
H571	H57	0.709000	0.311200	0.626200
H581	H58	0.626300	0.348500	0.588000
H591	H59	0.374900	0.315000	0.629000
H601	H60	0.465000	0.277800	0.666000
H611	H61	0.897400	0.581000	0.570500
H621	H62	0.913000	0.655800	0.594200
H631	H63	0.959400	0.583900	0.670700
H641	H64	0.938200	0.511700	0.645700
H651	H65	0.935600	0.919500	0.640600
H661	H66	0.966000	0.849000	0.666200
H671	H67	0.901600	0.773500	0.591400
H681	H68	0.873500	0.847400	0.568000
H691	H69	0.105400	0.661800	0.778300
H701	H70	0.046100	0.650900	0.730500
H711	H71	0.999600	0.796500	0.726300
H721	H72	0.057900	0.802200	0.774700
H731	H73	0.540400	0.028400	0.946000
H741	H74	0.624300	0.049200	0.989300
H751	H75	0.373100	0.103800	0.022300
H761	H76	0.297700	0.079400	0.979000
H771	H77	0.971900	0.082800	0.116900
H781	H78	0.812100	0.108800	0.110800
H791	H79	0.826600	0.063900	0.024800
H801	H80	0.982100	0.036500	0.034400
H811	H81	0.291000	0.188800	0.126200
H821	H82	0.373700	0.151500	0.088000
H831	H83	0.625100	0.185000	0.129000
H841	H84	0.535000	0.222200	0.166000
H851	H85	0.102600	0.919000	0.070500
H861	H86	0.087000	0.844200	0.094200
H871	H87	0.040600	0.916100	0.170700
H881	H88	0.061800	0.988300	0.145700
H891	H89	0.064400	0.580500	0.140600
H901	H90	0.034000	0.651000	0.166200
H911	H91	0.098400	0.726500	0.091400
H921	H92	0.126500	0.652600	0.068000
H931	H93	0.894600	0.838200	0.278300
H941	H94	0.953900	0.849100	0.230500
H951	H95	0.000400	0.703500	0.226300
H961	H96	0.942100	0.697800	0.274700
C11	C1	0.993300	0.544300	0.038400
C21	C2	0.942400	0.556900	0.012700
C31	C3	0.992000	0.581100	0.990230
C41	C4	0.090600	0.588900	0.993100
C51	C5	0.134500	0.574400	0.019200
C61	C6	0.559100	0.578100	0.901700
C71	C7	0.654000	0.594500	0.905400
C81	C8	0.698200	0.589800	0.932600
C91	C9	0.645700	0.567600	0.956000
C101	C10	0.553300	0.551600	0.950100
C111	C11	0.140300	0.687800	0.873300
C121	C12	0.091100	0.665700	0.896100
C131	C13	0.992200	0.663800	0.896100
C141	C14	0.943600	0.685400	0.872100
C151	C15	0.998100	0.707200	0.850100
C161	C16	0.938700	0.597700	0.963300
C171	C17	0.801100	0.604200	0.937100
C181	C18	0.936800	0.638700	0.919860
C191	C19	0.407700	0.418300	0.908600
C201	C20	0.419400	0.373500	0.894800
C211	C21	0.440100	0.372500	0.865300
C221	C22	0.445900	0.415900	0.850000
C231	C23	0.432100	0.458600	0.865000
C241	C24	0.427700	0.110700	0.869300
C251	C25	0.446400	0.152500	0.854000
C261	C26	0.436700	0.197000	0.868010
C271	C27	0.408600	0.196900	0.898000
C281	C28	0.391400	0.152700	0.911600
C291	C29	0.585300	0.310600	0.732700
C301	C30	0.549800	0.317400	0.761200
C311	C31	0.520100	0.277800	0.777540
C321	C32	0.522100	0.231600	0.763600
C331	C33	0.557800	0.228500	0.734900
C341	C34	0.453300	0.325100	0.849800
C351	C35	0.451900	0.243100	0.851360
C361	C36	0.488800	0.281300	0.809000
C371	C37	0.006700	0.955700	0.538400
C381	C38	0.057600	0.943100	0.512700
C391	C39	0.008000	0.918900	0.490230
C401	C40	0.909400	0.911100	0.493100
C411	C41	0.865500	0.925600	0.519200
C421	C42	0.440900	0.921900	0.401700
C431	C43	0.346000	0.905500	0.405400
C441	C44	0.301800	0.910200	0.432600
C451	C45	0.354300	0.932400	0.456000
C461	C46	0.446700	0.948400	0.450100
C471	C47	0.859700	0.812200	0.373300
C481	C48	0.908900	0.834300	0.396100
C491	C49	0.007800	0.836200	0.396100
C501	C50	0.056400	0.814600	0.372100
C511	C51	0.001900	0.792800	0.350100
C521	C52	0.061300	0.902300	0.463300
C531	C53	0.198900	0.895800	0.437100
C541	C54	0.063200	0.861300	0.419860
C551	C55	0.592300	0.081700	0.408600
C561	C56	0.580600	0.126500	0.394800
C571	C57	0.559900	0.127500	0.365300
C581	C58	0.554100	0.084100	0.350000
C591	C59	0.567900	0.041400	0.365000
C601	C60	0.572300	0.389300	0.369300
C611	C61	0.553600	0.347500	0.354000
C621	C62	0.563300	0.303000	0.368010
C631	C63	0.591400	0.303100	0.398000
C641	C64	0.608600	0.347300	0.411600
C651	C65	0.414700	0.189400	0.232700
C661	C66	0.450200	0.182600	0.261200
C671	C67	0.479900	0.222200	0.277540
C681	C68	0.477900	0.268400	0.263600
C691	C69	0.442200	0.271500	0.234900
C701	C70	0.546700	0.174900	0.349800
C711	C71	0.548100	0.256900	0.351360
C721	C72	0.511200	0.218700	0.309000
C731	C73	0.493300	0.455700	0.461600
C741	C74	0.442400	0.443100	0.487300
C751	C75	0.492000	0.418900	0.509770
C761	C76	0.590600	0.411100	0.506900
C771	C77	0.634500	0.425600	0.480800
C781	C78	0.059100	0.421900	0.598300
C791	C79	0.154000	0.405500	0.594600
C801	C80	0.198200	0.410200	0.567400
C811	C81	0.145700	0.432400	0.544000
C821	C82	0.053300	0.448400	0.549900
C831	C83	0.640300	0.312200	0.626700
C841	C84	0.591100	0.334300	0.603900
C851	C85	0.492200	0.336200	0.603900
C861	C86	0.443600	0.314600	0.627900
C871	C87	0.498100	0.292800	0.649900
C881	C88	0.438700	0.402300	0.536700
C891	C89	0.301100	0.395800	0.562900
C901	C90	0.436800	0.361300	0.580140
C911	C91	0.907700	0.581700	0.591400
C921	C92	0.919400	0.626500	0.605200
C931	C93	0.940100	0.627500	0.634700
C941	C94	0.945900	0.584100	0.650000
C951	C95	0.932100	0.541400	0.635000
C961	C96	0.927700	0.889300	0.630700
C971	C97	0.946400	0.847500	0.646000
C981	C98	0.936700	0.803000	0.631990
C991	C99	0.908600	0.803100	0.602000
C1001	C100	0.891400	0.847300	0.588400
C1011	C101	0.085300	0.689400	0.767300
C1021	C102	0.049800	0.682600	0.738800
C1031	C103	0.020100	0.722200	0.722460
C1041	C104	0.022100	0.768400	0.736400
C1051	C105	0.057800	0.771500	0.765100
C1061	C106	0.953300	0.674900	0.650200
C1071	C107	0.951900	0.756900	0.648640
C1081	C108	0.988800	0.718700	0.691000
C1091	C109	0.506700	0.044300	0.961600
C1101	C110	0.557600	0.056900	0.987300
C1111	C111	0.508000	0.081100	0.009770
C1121	C112	0.409400	0.088900	0.006900
C1131	C113	0.365500	0.074400	0.980800
C1141	C114	0.940900	0.078100	0.098300
C1151	C115	0.846000	0.094500	0.094600
C1161	C116	0.801800	0.089800	0.067400
C1171	C117	0.854300	0.067600	0.044000
C1181	C118	0.946700	0.051600	0.049900
C1191	C119	0.359700	0.187800	0.126700
C1201	C120	0.408900	0.165700	0.103900
C1211	C121	0.507800	0.163800	0.103900
C1221	C122	0.556400	0.185400	0.127900
C1231	C123	0.501900	0.207200	0.149900
C1241	C124	0.561300	0.097700	0.036700
C1251	C125	0.698900	0.104200	0.062900
C1261	C126	0.563200	0.138700	0.080140
C1271	C127	0.092300	0.918300	0.091400
C1281	C128	0.080600	0.873500	0.105200
C1291	C129	0.059900	0.872500	0.134700
C1301	C130	0.054100	0.915900	0.150000
C1311	C131	0.067900	0.958600	0.135000
C1321	C132	0.072300	0.610700	0.130700
C1331	C133	0.053600	0.652500	0.146000
C1341	C134	0.063300	0.697000	0.131990
C1351	C135	0.091400	0.696900	0.102000
C1361	C136	0.108600	0.652700	0.088400
C1371	C137	0.914700	0.810600	0.267300
C1381	C138	0.950200	0.817400	0.238800
C1391	C139	0.979900	0.777800	0.222460
C1401	C140	0.977900	0.731600	0.236400
C1411	C141	0.942200	0.728500	0.265100
C1421	C142	0.046700	0.825100	0.150200
C1431	C143	0.048100	0.743100	0.148640
C1441	C144	0.011200	0.781300	0.191000
I11	I1	0.064960	0.479320	0.112110
I21	I2	0.331090	0.559380	0.078150
I31	I3	0.300240	0.505230	0.965160
I41	I4	0.292700	0.576150	0.875990
I51	I5	0.685150	0.166960	0.671100
I61	I6	0.830400	0.305010	0.690320
I71	I7	0.935040	0.020680	0.612110
I81	I8	0.668910	0.940620	0.578150
I91	I9	0.699760	0.994770	0.465160
I101	I10	0.707300	0.923850	0.375990
I111	I11	0.314850	0.333040	0.171100
I121	I12	0.169600	0.194990	0.190320
I131	I13	0.564960	0.520680	0.387890
I141	I14	0.831090	0.440620	0.421850
I151	I15	0.800240	0.494770	0.534840
I161	I16	0.792700	0.423850	0.624010
I171	I17	0.185150	0.833040	0.828900
I181	I18	0.330400	0.694990	0.809680
I191	I19	0.435040	0.979320	0.887890
I201	I20	0.168910	0.059380	0.921850
I211	I21	0.199760	0.005230	0.034840
I221	I22	0.207300	0.076150	0.124010
I231	I23	0.814850	0.666960	0.328900
I241	I24	0.669600	0.805010	0.309680
N11	N1	0.088300	0.553800	0.041910
N21	N2	0.510500	0.556100	0.923290
N31	N3	0.093600	0.708200	0.850160
N41	N4	0.844900	0.586100	0.961470
N51	N5	0.842000	0.631300	0.916140
N61	N6	0.989900	0.622800	0.943150
N71	N7	0.410500	0.460400	0.893820
N81	N8	0.398700	0.110500	0.897590
N91	N9	0.592200	0.267200	0.720050
N101	N10	0.478300	0.325500	0.820830
N111	N11	0.440300	0.285000	0.866300
N121	N12	0.476200	0.239300	0.823040
N131	N13	0.911700	0.946200	0.541910
N141	N14	0.489500	0.943900	0.423290
N151	N15	0.906400	0.791800	0.350160
N161	N16	0.155100	0.913900	0.461470
N171	N17	0.158000	0.868700	0.416140
N181	N18	0.010100	0.877200	0.443150
N191	N19	0.589500	0.039600	0.393820
N201	N20	0.601300	0.389500	0.397590
N211	N21	0.407800	0.232800	0.220050
N221	N22	0.521700	0.174500	0.320830
N231	N23	0.559700	0.215000	0.366300
N241	N24	0.523800	0.260700	0.323040
N251	N25	0.588300	0.446200	0.458090
N261	N26	0.010500	0.443900	0.576710
N271	N27	0.593600	0.291800	0.649840
N281	N28	0.344900	0.413900	0.538530
N291	N29	0.342000	0.368700	0.583860
N301	N30	0.489900	0.377200	0.556850
N311	N31	0.910500	0.539600	0.606180
N321	N32	0.898700	0.889500	0.602410
N331	N33	0.092200	0.732800	0.779950
N341	N34	0.978300	0.674500	0.679170
N351	N35	0.940300	0.715000	0.633700
N361	N36	0.976200	0.760700	0.676960
N371	N37	0.411700	0.053800	0.958090
N381	N38	0.989500	0.056100	0.076710
N391	N39	0.406400	0.208200	0.149840
N401	N40	0.655100	0.086100	0.038530
N411	N41	0.658000	0.131300	0.083860
N421	N42	0.510100	0.122800	0.056850
N431	N43	0.089500	0.960400	0.106180
N441	N44	0.101300	0.610500	0.102410
N451	N45	0.907800	0.767200	0.279950
N461	N46	0.021700	0.825500	0.179170
N471	N47	0.059700	0.785000	0.133700
N481	N48	0.023800	0.739300	0.176960
Zn131	Zn13	0.850110	0.454020	0.916690
Zn141	Zn14	0.622680	0.474080	0.085250
Zn151	Zn15	0.326640	0.742380	0.317950
Zn161	Zn16	0.149890	0.045980	0.416690
Zn171	Zn17	0.377320	0.025920	0.585250
Zn181	Zn18	0.673360	0.757620	0.817950
Zn191	Zn19	0.350110	0.545980	0.583310
Zn201	Zn20	0.122680	0.525920	0.414750
Zn211	Zn21	0.826640	0.257620	0.182050
Zn221	Zn22	0.649890	0.954020	0.083310
Zn231	Zn23	0.877320	0.974080	0.914750
Zn241	Zn24	0.173360	0.242380	0.682050
H971	H97	0.040400	0.471600	0.946000
H981	H98	0.124300	0.450800	0.989300
H991	H99	0.873100	0.396200	0.022300
H1001	H100	0.797700	0.420600	0.979000
H1011	H101	0.471900	0.417200	0.116900
H1021	H102	0.312100	0.391200	0.110800
H1031	H103	0.326600	0.436100	0.024800
H1041	H104	0.482100	0.463500	0.034400
H1051	H105	0.791000	0.311200	0.126200
H1061	H106	0.873700	0.348500	0.088000
H1071	H107	0.125100	0.315000	0.129000
H1081	H108	0.035000	0.277800	0.166000
H1091	H109	0.602600	0.581000	0.070500
H1101	H110	0.587000	0.655800	0.094200
H1111	H111	0.540600	0.583900	0.170700
H1121	H112	0.561800	0.511700	0.145700
H1131	H113	0.564400	0.919500	0.140600
H1141	H114	0.534000	0.849000	0.166200
H1151	H115	0.598400	0.773500	0.091400
H1161	H116	0.626500	0.847400	0.068000
H1171	H117	0.394600	0.661800	0.278300
H1181	H118	0.453900	0.650900	0.230500
H1191	H119	0.500400	0.796500	0.226300
H1201	H120	0.442100	0.802200	0.274700
H1211	H121	0.959600	0.028400	0.446000
H1221	H122	0.875700	0.049200	0.489300
H1231	H123	0.126900	0.103800	0.522300
H1241	H124	0.202300	0.079400	0.479000
H1251	H125	0.528100	0.082800	0.616900
H1261	H126	0.687900	0.108800	0.610800
H1271	H127	0.673400	0.063900	0.524800
H1281	H128	0.517900	0.036500	0.534400
H1291	H129	0.209000	0.188800	0.626200
H1301	H130	0.126300	0.151500	0.588000
H1311	H131	0.874900	0.185000	0.629000
H1321	H132	0.965000	0.222200	0.666000
H1331	H133	0.397400	0.919000	0.570500
H1341	H134	0.413000	0.844200	0.594200
H1351	H135	0.459400	0.916100	0.670700
H1361	H136	0.438200	0.988300	0.645700
H1371	H137	0.435600	0.580500	0.640600
H1381	H138	0.466000	0.651000	0.666200
H1391	H139	0.401600	0.726500	0.591400
H1401	H140	0.373500	0.652600	0.568000
H1411	H141	0.605400	0.838200	0.778300
H1421	H142	0.546100	0.849100	0.730500
H1431	H143	0.499600	0.703500	0.726300
H1441	H144	0.557900	0.697800	0.774700
H1451	H145	0.540400	0.528400	0.554000
H1461	H146	0.624300	0.549200	0.510700
H1471	H147	0.373100	0.603800	0.477700
H1481	H148	0.297700	0.579400	0.521000
H1491	H149	0.971900	0.582800	0.383100
H1501	H150	0.812100	0.608800	0.389200
H1511	H151	0.826600	0.563900	0.475200
H1521	H152	0.982100	0.536500	0.465600
H1531	H153	0.291000	0.688800	0.373800
H1541	H154	0.373700	0.651500	0.412000
H1551	H155	0.625100	0.685000	0.371000
H1561	H156	0.535000	0.722200	0.334000
H1571	H157	0.102600	0.419000	0.429500
H1581	H158	0.087000	0.344200	0.405800
H1591	H159	0.040600	0.416100	0.329300
H1601	H160	0.061800	0.488300	0.354300
H1611	H161	0.064400	0.080500	0.359400
H1621	H162	0.034000	0.151000	0.333800
H1631	H163	0.098400	0.226500	0.408600
H1641	H164	0.126500	0.152600	0.432000
H1651	H165	0.894600	0.338200	0.221700
H1661	H166	0.953900	0.349100	0.269500
H1671	H167	0.000400	0.203500	0.273700
H1681	H168	0.942100	0.197800	0.225300
H1691	H169	0.459600	0.971600	0.054000
H1701	H170	0.375700	0.950800	0.010700
H1711	H171	0.626900	0.896200	0.977700
H1721	H172	0.702300	0.920600	0.021000
H1731	H173	0.028100	0.917200	0.883100
H1741	H174	0.187900	0.891200	0.889200
H1751	H175	0.173400	0.936100	0.975200
H1761	H176	0.017900	0.963500	0.965600
H1771	H177	0.709000	0.811200	0.873800
H1781	H178	0.626300	0.848500	0.912000
H1791	H179	0.374900	0.815000	0.871000
H1801	H180	0.465000	0.777800	0.834000
H1811	H181	0.897400	0.081000	0.929500
H1821	H182	0.913000	0.155800	0.905800
H1831	H183	0.959400	0.083900	0.829300
H1841	H184	0.938200	0.011700	0.854300
H1851	H185	0.935600	0.419500	0.859400
H1861	H186	0.966000	0.349000	0.833800
H1871	H187	0.901600	0.273500	0.908600
H1881	H188	0.873500	0.347400	0.932000
H1891	H189	0.105400	0.161800	0.721700
H1901	H190	0.046100	0.150900	0.769500
H1911	H191	0.999600	0.296500	0.773700
H1921	H192	0.057900	0.302200	0.725300
C1451	C145	0.006700	0.455700	0.961600
C1461	C146	0.057600	0.443100	0.987300
C1471	C147	0.008000	0.418900	0.009770
C1481	C148	0.909400	0.411100	0.006900
C1491	C149	0.865500	0.425600	0.980800
C1501	C150	0.440900	0.421900	0.098300
C1511	C151	0.346000	0.405500	0.094600
C1521	C152	0.301800	0.410200	0.067400
C1531	C153	0.354300	0.432400	0.044000
C1541	C154	0.446700	0.448400	0.049900
C1551	C155	0.859700	0.312200	0.126700
C1561	C156	0.908900	0.334300	0.103900
C1571	C157	0.007800	0.336200	0.103900
C1581	C158	0.056400	0.314600	0.127900
C1591	C159	0.001900	0.292800	0.149900
C1601	C160	0.061300	0.402300	0.036700
C1611	C161	0.198900	0.395800	0.062900
C1621	C162	0.063200	0.361300	0.080140
C1631	C163	0.592300	0.581700	0.091400
C1641	C164	0.580600	0.626500	0.105200
C1651	C165	0.559900	0.627500	0.134700
C1661	C166	0.554100	0.584100	0.150000
C1671	C167	0.567900	0.541400	0.135000
C1681	C168	0.572300	0.889300	0.130700
C1691	C169	0.553600	0.847500	0.146000
C1701	C170	0.563300	0.803000	0.131990
C1711	C171	0.591400	0.803100	0.102000
C1721	C172	0.608600	0.847300	0.088400
C1731	C173	0.414700	0.689400	0.267300
C1741	C174	0.450200	0.682600	0.238800
C1751	C175	0.479900	0.722200	0.222460
C1761	C176	0.477900	0.768400	0.236400
C1771	C177	0.442200	0.771500	0.265100
C1781	C178	0.546700	0.674900	0.150200
C1791	C179	0.548100	0.756900	0.148640
C1801	C180	0.511200	0.718700	0.191000
C1811	C181	0.993300	0.044300	0.461600
C1821	C182	0.942400	0.056900	0.487300
C1831	C183	0.992000	0.081100	0.509770
C1841	C184	0.090600	0.088900	0.506900
C1851	C185	0.134500	0.074400	0.480800
C1861	C186	0.559100	0.078100	0.598300
C1871	C187	0.654000	0.094500	0.594600
C1881	C188	0.698200	0.089800	0.567400
C1891	C189	0.645700	0.067600	0.544000
C1901	C190	0.553300	0.051600	0.549900
C1911	C191	0.140300	0.187800	0.626700
C1921	C192	0.091100	0.165700	0.603900
C1931	C193	0.992200	0.163800	0.603900
C1941	C194	0.943600	0.185400	0.627900
C1951	C195	0.998100	0.207200	0.649900
C1961	C196	0.938700	0.097700	0.536700
C1971	C197	0.801100	0.104200	0.562900
C1981	C198	0.936800	0.138700	0.580140
C1991	C199	0.407700	0.918300	0.591400
C2001	C200	0.419400	0.873500	0.605200
C2011	C201	0.440100	0.872500	0.634700
C2021	C202	0.445900	0.915900	0.650000
C2031	C203	0.432100	0.958600	0.635000
C2041	C204	0.427700	0.610700	0.630700
C2051	C205	0.446400	0.652500	0.646000
C2061	C206	0.436700	0.697000	0.631990
C2071	C207	0.408600	0.696900	0.602000
C2081	C208	0.391400	0.652700	0.588400
C2091	C209	0.585300	0.810600	0.767300
C2101	C210	0.549800	0.817400	0.738800
C2111	C211	0.520100	0.777800	0.722460
C2121	C212	0.522100	0.731600	0.736400
C2131	C213	0.557800	0.728500	0.765100
C2141	C214	0.453300	0.825100	0.650200
C2151	C215	0.451900	0.743100	0.648640
C2161	C216	0.488800	0.781300	0.691000
C2171	C217	0.506700	0.544300	0.538400
C2181	C218	0.557600	0.556900	0.512700
C2191	C219	0.508000	0.581100	0.490230
C2201	C220	0.409400	0.588900	0.493100
C2211	C221	0.365500	0.574400	0.519200
C2221	C222	0.940900	0.578100	0.401700
C2231	C223	0.846000	0.594500	0.405400
C2241	C224	0.801800	0.589800	0.432600
C2251	C225	0.854300	0.567600	0.456000
C2261	C226	0.946700	0.551600	0.450100
C2271	C227	0.359700	0.687800	0.373300
C2281	C228	0.408900	0.665700	0.396100
C2291	C229	0.507800	0.663800	0.396100
C2301	C230	0.556400	0.685400	0.372100
C2311	C231	0.501900	0.707200	0.350100
C2321	C232	0.561300	0.597700	0.463300
C2331	C233	0.698900	0.604200	0.437100
C2341	C234	0.563200	0.638700	0.419860
C2351	C235	0.092300	0.418300	0.408600
C2361	C236	0.080600	0.373500	0.394800
C2371	C237	0.059900	0.372500	0.365300
C2381	C238	0.054100	0.415900	0.350000
C2391	C239	0.067900	0.458600	0.365000
C2401	C240	0.072300	0.110700	0.369300
C2411	C241	0.053600	0.152500	0.354000
C2421	C242	0.063300	0.197000	0.368010
C2431	C243	0.091400	0.196900	0.398000
C2441	C244	0.108600	0.152700	0.411600
C2451	C245	0.914700	0.310600	0.232700
C2461	C246	0.950200	0.317400	0.261200
C2471	C247	0.979900	0.277800	0.277540
C2481	C248	0.977900	0.231600	0.263600
C2491	C249	0.942200	0.228500	0.234900
C2501	C250	0.046700	0.325100	0.349800
C2511	C251	0.048100	0.243100	0.351360
C2521	C252	0.011200	0.281300	0.309000
C2531	C253	0.493300	0.955700	0.038400
C2541	C254	0.442400	0.943100	0.012700
C2551	C255	0.492000	0.918900	0.990230
C2561	C256	0.590600	0.911100	0.993100
C2571	C257	0.634500	0.925600	0.019200
C2581	C258	0.059100	0.921900	0.901700
C2591	C259	0.154000	0.905500	0.905400
C2601	C260	0.198200	0.910200	0.932600
C2611	C261	0.145700	0.932400	0.956000
C2621	C262	0.053300	0.948400	0.950100
C2631	C263	0.640300	0.812200	0.873300
C2641	C264	0.591100	0.834300	0.896100
C2651	C265	0.492200	0.836200	0.896100
C2661	C266	0.443600	0.814600	0.872100
C2671	C267	0.498100	0.792800	0.850100
C2681	C268	0.438700	0.902300	0.963300
C2691	C269	0.301100	0.895800	0.937100
C2701	C270	0.436800	0.861300	0.919860
C2711	C271	0.907700	0.081700	0.908600
C2721	C272	0.919400	0.126500	0.894800
C2731	C273	0.940100	0.127500	0.865300
C2741	C274	0.945900	0.084100	0.850000
C2751	C275	0.932100	0.041400	0.865000
C2761	C276	0.927700	0.389300	0.869300
C2771	C277	0.946400	0.347500	0.854000
C2781	C278	0.936700	0.303000	0.868010
C2791	C279	0.908600	0.303100	0.898000
C2801	C280	0.891400	0.347300	0.911600
C2811	C281	0.085300	0.189400	0.732700
C2821	C282	0.049800	0.182600	0.761200
C2831	C283	0.020100	0.222200	0.777540
C2841	C284	0.022100	0.268400	0.763600
C2851	C285	0.057800	0.271500	0.734900
C2861	C286	0.953300	0.174900	0.849800
C2871	C287	0.951900	0.256900	0.851360
C2881	C288	0.988800	0.218700	0.809000
I251	I25	0.935040	0.520680	0.887890
I261	I26	0.668910	0.440620	0.921850
I271	I27	0.699760	0.494770	0.034840
I281	I28	0.707300	0.423850	0.124010
I291	I29	0.314850	0.833040	0.328900
I301	I30	0.169600	0.694990	0.309680
I311	I31	0.064960	0.979320	0.387890
I321	I32	0.331090	0.059380	0.421850
I331	I33	0.300240	0.005230	0.534840
I341	I34	0.292700	0.076150	0.624010
I351	I35	0.685150	0.666960	0.828900
I361	I36	0.830400	0.805010	0.809680
I371	I37	0.435040	0.479320	0.612110
I381	I38	0.168910	0.559380	0.578150
I391	I39	0.199760	0.505230	0.465160
I401	I40	0.207300	0.576150	0.375990
I411	I41	0.814850	0.166960	0.171100
I421	I42	0.669600	0.305010	0.190320
I431	I43	0.564960	0.020680	0.112110
I441	I44	0.831090	0.940620	0.078150
I451	I45	0.800240	0.994770	0.965160
I461	I46	0.792700	0.923850	0.875990
I471	I47	0.185150	0.333040	0.671100
I481	I48	0.330400	0.194990	0.690320
N491	N49	0.911700	0.446200	0.958090
N501	N50	0.489500	0.443900	0.076710
N511	N51	0.906400	0.291800	0.149840
N521	N52	0.155100	0.413900	0.038530
N531	N53	0.158000	0.368700	0.083860
N541	N54	0.010100	0.377200	0.056850
N551	N55	0.589500	0.539600	0.106180
N561	N56	0.601300	0.889500	0.102410
N571	N57	0.407800	0.732800	0.279950
N581	N58	0.521700	0.674500	0.179170
N591	N59	0.559700	0.715000	0.133700
N601	N60	0.523800	0.760700	0.176960
N611	N61	0.088300	0.053800	0.458090
N621	N62	0.510500	0.056100	0.576710
N631	N63	0.093600	0.208200	0.649840
N641	N64	0.844900	0.086100	0.538530
N651	N65	0.842000	0.131300	0.583860
N661	N66	0.989900	0.122800	0.556850
N671	N67	0.410500	0.960400	0.606180
N681	N68	0.398700	0.610500	0.602410
N691	N69	0.592200	0.767200	0.779950
N701	N70	0.478300	0.825500	0.679170
N711	N71	0.440300	0.785000	0.633700
N721	N72	0.476200	0.739300	0.676960
N731	N73	0.411700	0.553800	0.541910
N741	N74	0.989500	0.556100	0.423290
N751	N75	0.406400	0.708200	0.350160
N761	N76	0.655100	0.586100	0.461470
N771	N77	0.658000	0.631300	0.416140
N781	N78	0.510100	0.622800	0.443150
N791	N79	0.089500	0.460400	0.393820
N801	N80	0.101300	0.110500	0.397590
N811	N81	0.907800	0.267200	0.220050
N821	N82	0.021700	0.325500	0.320830
N831	N83	0.059700	0.285000	0.366300
N841	N84	0.023800	0.239300	0.323040
N851	N85	0.588300	0.946200	0.041910
N861	N86	0.010500	0.943900	0.923290
N871	N87	0.593600	0.791800	0.850160
N881	N88	0.344900	0.913900	0.961470
N891	N89	0.342000	0.868700	0.916140
N901	N90	0.489900	0.877200	0.943150
N911	N91	0.910500	0.039600	0.893820
N921	N92	0.898700	0.389500	0.897590
N931	N93	0.092200	0.232800	0.720050
N941	N94	0.978300	0.174500	0.820830
N951	N95	0.940300	0.215000	0.866300
N961	N96	0.976200	0.260700	0.823040
