data_SADLEQ_clean_PM
_symmetry_space_group_name_H-M	'P1'
_cell_length_a	10.427800
_cell_length_b	10.427800
_cell_length_c	14.260200
_cell_angle_alpha	90.000000
_cell_angle_beta	90.000000
_cell_angle_gamma	90.000000
_symmetry_Int_Tables_number 1

loop_
_symmetry_equiv_pos_as_xyz
'x,y,z'

loop_
_atom_site_label
_atom_site_type_symbol
_atom_site_fract_x
_atom_site_fract_y
_atom_site_fract_z
Nd11	Nd1	0.868860	0.134050	0.624730
Nd21	Nd2	0.131140	0.865950	0.124730
Nd31	Nd3	0.865950	0.868860	0.874730
Nd41	Nd4	0.134050	0.131140	0.374730
H11	H1	0.994000	0.877800	0.500200
H21	H2	0.082700	0.547400	0.378100
H31	H3	0.964700	0.551300	0.643500
H41	H4	0.006000	0.122200	0.000200
H51	H5	0.917300	0.452600	0.878100
H61	H6	0.035300	0.448700	0.143500
H71	H7	0.122200	0.994000	0.750200
H81	H8	0.452600	0.082700	0.628100
H91	H9	0.448700	0.964700	0.893500
H101	H10	0.877800	0.006000	0.250200
H111	H11	0.547400	0.917300	0.128100
H121	H12	0.551300	0.035300	0.393500
C11	C1	0.943900	0.800100	0.675500
C21	C2	0.978500	0.729200	0.588700
C31	C3	0.003400	0.789300	0.503700
C41	C4	0.040700	0.725500	0.425900
C51	C5	0.053100	0.592600	0.430000
C61	C6	0.021600	0.528500	0.510600
C71	C7	0.985200	0.595800	0.589000
C81	C8	0.072000	0.795800	0.337100
C91	C9	0.028400	0.379100	0.513100
C101	C10	0.056100	0.199900	0.175500
C111	C11	0.021500	0.270800	0.088700
C121	C12	0.996600	0.210700	0.003700
C131	C13	0.959300	0.274500	0.925900
C141	C14	0.946900	0.407400	0.930000
C151	C15	0.978400	0.471500	0.010600
C161	C16	0.014800	0.404200	0.089000
C171	C17	0.928000	0.204200	0.837100
C181	C18	0.971600	0.620900	0.013100
C191	C19	0.199900	0.943900	0.925500
C201	C20	0.270800	0.978500	0.838700
C211	C21	0.210700	0.003400	0.753700
C221	C22	0.274500	0.040700	0.675900
C231	C23	0.407400	0.053100	0.680000
C241	C24	0.471500	0.021600	0.760600
C251	C25	0.404200	0.985200	0.839000
C261	C26	0.204200	0.072000	0.587100
C271	C27	0.620900	0.028400	0.763100
C281	C28	0.800100	0.056100	0.425500
C291	C29	0.729200	0.021500	0.338700
C301	C30	0.789300	0.996600	0.253700
C311	C31	0.725500	0.959300	0.175900
C321	C32	0.592600	0.946900	0.180000
C331	C33	0.528500	0.978400	0.260600
C341	C34	0.595800	0.014800	0.339000
C351	C35	0.795800	0.928000	0.087100
C361	C36	0.379100	0.971600	0.263100
O11	O1	0.898600	0.909400	0.672600
O21	O2	0.959800	0.741500	0.752100
O31	O3	0.075700	0.917500	0.337100
O41	O4	0.095100	0.732000	0.264300
O51	O5	0.088600	0.326800	0.449400
O61	O6	0.972000	0.327000	0.579200
O71	O7	0.101400	0.090600	0.172600
O81	O8	0.040200	0.258500	0.252100
O91	O9	0.924300	0.082500	0.837100
O101	O10	0.904900	0.268000	0.764300
O111	O11	0.911400	0.673200	0.949400
O121	O12	0.028000	0.673000	0.079200
O131	O13	0.090600	0.898600	0.922600
O141	O14	0.258500	0.959800	0.002100
O151	O15	0.082500	0.075700	0.587100
O161	O16	0.268000	0.095100	0.514300
O171	O17	0.673200	0.088600	0.699400
O181	O18	0.673000	0.972000	0.829200
O191	O19	0.909400	0.101400	0.422600
O201	O20	0.741500	0.040200	0.502100
O211	O21	0.917500	0.924300	0.087100
O221	O22	0.732000	0.904900	0.014300
O231	O23	0.326800	0.911400	0.199400
O241	O24	0.327000	0.028000	0.329200
