data_SADMUH_SL_PM
_symmetry_space_group_name_H-M	'P1'
_cell_length_a	15.962300
_cell_length_b	6.935100
_cell_length_c	14.391900
_cell_angle_alpha	90.000000
_cell_angle_beta	90.000000
_cell_angle_gamma	90.000000
_symmetry_Int_Tables_number 1

loop_
_symmetry_equiv_pos_as_xyz
'x,y,z'

loop_
_atom_site_label
_atom_site_type_symbol
_atom_site_fract_x
_atom_site_fract_y
_atom_site_fract_z
H11	H1	0.694900	0.045300	0.695100
C21	C2	0.717700	0.922900	0.717900
O31	O3	0.587300	0.908600	0.588000
H41	H4	0.500000	0.750000	0.368620
H51	H5	0.194900	0.545300	0.195100
C61	C6	0.217700	0.422900	0.217900
O71	O7	0.087300	0.408600	0.088000
H81	H8	0.000000	0.250000	0.868620
H91	H9	0.305100	0.454700	0.695100
C101	C10	0.282300	0.577100	0.717900
O111	O11	0.412700	0.591400	0.588000
H131	H13	0.805100	0.954700	0.195100
C141	C14	0.782300	0.077100	0.217900
O151	O15	0.912700	0.091400	0.088000
H171	H17	0.305100	0.545300	0.304900
C181	C18	0.282300	0.422900	0.282100
O191	O19	0.412700	0.408600	0.412000
H201	H20	0.500000	0.250000	0.631380
H211	H21	0.805100	0.045300	0.804900
C221	C22	0.782300	0.922900	0.782100
O231	O23	0.912700	0.908600	0.912000
H241	H24	0.000000	0.750000	0.131380
H251	H25	0.694900	0.954700	0.304900
C261	C26	0.717700	0.077100	0.282100
O271	O27	0.587300	0.091400	0.412000
H291	H29	0.194900	0.454700	0.804900
C301	C30	0.217700	0.577100	0.782100
O311	O31	0.087300	0.591400	0.912000
H331	H33	0.305100	0.954700	0.304900
C341	C34	0.282300	0.077100	0.282100
O351	O35	0.412700	0.091400	0.412000
H371	H37	0.805100	0.454700	0.804900
C381	C38	0.782300	0.577100	0.782100
O391	O39	0.912700	0.591400	0.912000
H411	H41	0.694900	0.545300	0.304900
C421	C42	0.717700	0.422900	0.282100
O431	O43	0.587300	0.408600	0.412000
H451	H45	0.194900	0.045300	0.804900
C461	C46	0.217700	0.922900	0.782100
O471	O47	0.087300	0.908600	0.912000
H491	H49	0.694900	0.454700	0.695100
C501	C50	0.717700	0.577100	0.717900
O511	O51	0.587300	0.591400	0.588000
H531	H53	0.194900	0.954700	0.195100
C541	C54	0.217700	0.077100	0.217900
O551	O55	0.087300	0.091400	0.088000
H571	H57	0.305100	0.045300	0.695100
C581	C58	0.282300	0.922900	0.717900
O591	O59	0.412700	0.908600	0.588000
H611	H61	0.805100	0.545300	0.195100
C621	C62	0.782300	0.422900	0.217900
O631	O63	0.912700	0.408600	0.088000
Fe651	Fe65	0.500000	0.000000	0.500000
Fe661	Fe66	0.000000	0.500000	0.000000
Fe671	Fe67	0.500000	0.500000	0.500000
Fe681	Fe68	0.000000	0.000000	0.000000
C691	C69	0.685400	0.750000	0.685700
C701	C70	0.616900	0.750000	0.617500
C711	C71	0.185400	0.250000	0.185700
C721	C72	0.116900	0.250000	0.117500
C731	C73	0.314600	0.750000	0.685700
C741	C74	0.383100	0.750000	0.617500
C751	C75	0.814600	0.250000	0.185700
C761	C76	0.883100	0.250000	0.117500
C771	C77	0.314600	0.250000	0.314300
C781	C78	0.383100	0.250000	0.382500
C791	C79	0.814600	0.750000	0.814300
C801	C80	0.883100	0.750000	0.882500
C811	C81	0.685400	0.250000	0.314300
C821	C82	0.616900	0.250000	0.382500
C831	C83	0.185400	0.750000	0.814300
C841	C84	0.116900	0.750000	0.882500
O851	O85	0.000000	0.250000	0.938100
O861	O86	0.500000	0.750000	0.438100
O871	O87	0.000000	0.750000	0.061900
O881	O88	0.500000	0.250000	0.561900
