data_SADVEB_clean_PM
_symmetry_space_group_name_H-M	'P1'
_cell_length_a	12.922400
_cell_length_b	13.334300
_cell_length_c	13.505400
_cell_angle_alpha	68.597000
_cell_angle_beta	88.575000
_cell_angle_gamma	79.571000
_symmetry_Int_Tables_number 1

loop_
_symmetry_equiv_pos_as_xyz
'x,y,z'

loop_
_atom_site_label
_atom_site_type_symbol
_atom_site_fract_x
_atom_site_fract_y
_atom_site_fract_z
U11	U1	0.182670	0.798780	0.381450
U21	U2	0.190620	0.295860	0.393850
U31	U3	0.509570	0.774920	0.987580
O11	O1	0.411700	0.878100	0.903300
O21	O2	0.607000	0.668200	0.072200
O31	O3	0.428500	0.789100	0.145900
O41	O4	0.326600	0.826600	0.264600
O51	O5	0.408900	0.107700	0.947400
O61	O6	0.361600	0.097300	0.106100
O71	O7	0.073900	0.873600	0.488000
O81	O8	0.911300	0.838700	0.514900
O91	O9	0.751800	0.865100	0.647400
O101	O10	0.766100	0.030200	0.637600
O111	O11	0.039900	0.857900	0.958500
O121	O12	0.436000	0.268700	0.164000
O131	O13	0.336300	0.315600	0.280700
O141	O14	0.398600	0.655000	0.006400
O151	O15	0.447100	0.501700	0.146500
O161	O16	0.078300	0.372500	0.499200
O171	O17	0.919100	0.335400	0.532600
O181	O18	0.765400	0.352200	0.677100
O191	O19	0.771500	0.525100	0.642500
O201	O20	0.052600	0.390500	0.959100
C11	C1	0.344600	0.838800	0.169200
C21	C2	0.263800	0.907000	0.082700
C31	C3	0.270100	0.013000	0.017100
C41	C4	0.195000	0.068000	0.932200
H11	H1	0.196300	0.140500	0.889500
C51	C5	0.121400	0.017800	0.911600
H21	H2	0.073400	0.054300	0.854100
C61	C6	0.118400	0.911800	0.976800
C71	C7	0.187800	0.855700	0.062400
H31	H3	0.183800	0.784300	0.106100
C81	C8	0.029200	0.863900	0.853800
C91	C9	0.930200	0.889100	0.810400
H41	H4	0.872900	0.904500	0.848800
C101	C10	0.914500	0.891700	0.706100
C111	C11	0.003300	0.866100	0.652100
C121	C12	0.102900	0.846600	0.697700
H51	H5	0.161100	0.835700	0.658500
C131	C13	0.118700	0.842800	0.798600
H61	H6	0.186100	0.826900	0.829500
C141	C14	0.805800	0.931400	0.659900
C151	C15	0.993500	0.859700	0.543800
C161	C16	0.358800	0.328100	0.187100
C171	C17	0.284600	0.406700	0.096600
C181	C18	0.304100	0.511600	0.036300
C191	C19	0.234800	0.575900	0.947600
H71	H7	0.245200	0.646200	0.906800
C201	C20	0.152600	0.537600	0.919800
H81	H8	0.107800	0.581300	0.861200
C211	C21	0.137400	0.432900	0.980500
C221	C22	0.203500	0.367100	0.069100
H91	H9	0.192600	0.296800	0.109200
C231	C23	0.389200	0.557700	0.066800
C241	C24	0.042100	0.387700	0.857500
C251	C25	0.943300	0.404200	0.817200
H101	H10	0.886200	0.420000	0.855800
C261	C26	0.925800	0.397600	0.718600
C271	C27	0.013000	0.373300	0.661800
C281	C28	0.113600	0.358700	0.704000
H111	H11	0.171100	0.343900	0.665400
C291	C29	0.131400	0.365500	0.802900
H121	H12	0.199100	0.355800	0.830900
C301	C30	0.003200	0.360100	0.557200
C311	C31	0.815800	0.427000	0.674200
C321	C32	0.353500	0.074300	0.028000
U41	U4	0.494200	0.728100	0.008300
U51	U5	0.817330	0.201220	0.618550
U61	U6	0.809380	0.704140	0.606150
U71	U7	0.490430	0.225080	0.012420
O211	O21	0.588300	0.121900	0.096700
O221	O22	0.393000	0.331800	0.927800
O231	O23	0.571500	0.210900	0.854100
O241	O24	0.673400	0.173400	0.735400
O251	O25	0.591100	0.892300	0.052600
O261	O26	0.638400	0.902700	0.893900
O271	O27	0.926100	0.126400	0.512000
O281	O28	0.088700	0.161300	0.485100
O291	O29	0.248200	0.134900	0.352600
O301	O30	0.233900	0.969800	0.362400
O311	O31	0.960100	0.142100	0.041500
O321	O32	0.564000	0.731300	0.836000
O331	O33	0.663700	0.684400	0.719300
O341	O34	0.601400	0.345000	0.993600
O351	O35	0.552900	0.498300	0.853500
O361	O36	0.921700	0.627500	0.500800
O371	O37	0.080900	0.664600	0.467400
O381	O38	0.234600	0.647800	0.322900
O391	O39	0.228500	0.474900	0.357500
O401	O40	0.947400	0.609500	0.040900
C331	C33	0.655400	0.161200	0.830800
C341	C34	0.736200	0.093000	0.917300
C351	C35	0.729900	0.987000	0.982900
C361	C36	0.805000	0.932000	0.067800
H131	H13	0.803700	0.859500	0.110500
C371	C37	0.878600	0.982200	0.088400
H141	H14	0.926600	0.945700	0.145900
C381	C38	0.881600	0.088200	0.023200
C391	C39	0.812200	0.144300	0.937600
H151	H15	0.816200	0.215700	0.893900
C401	C40	0.970800	0.136100	0.146200
C411	C41	0.069800	0.110900	0.189600
H161	H16	0.127100	0.095500	0.151200
C421	C42	0.085500	0.108300	0.293900
C431	C43	0.996700	0.133900	0.347900
C441	C44	0.897100	0.153400	0.302300
H171	H17	0.838900	0.164300	0.341500
C451	C45	0.881300	0.157200	0.201400
H181	H18	0.813900	0.173100	0.170500
C461	C46	0.194200	0.068600	0.340100
C471	C47	0.006500	0.140300	0.456200
C481	C48	0.641200	0.671900	0.812900
C491	C49	0.715400	0.593300	0.903400
C501	C50	0.695900	0.488400	0.963700
C511	C51	0.765200	0.424100	0.052400
H191	H19	0.754800	0.353800	0.093200
C521	C52	0.847400	0.462400	0.080200
H201	H20	0.892200	0.418700	0.138800
C531	C53	0.862600	0.567100	0.019500
C541	C54	0.796500	0.632900	0.930900
H211	H21	0.807400	0.703200	0.890800
C551	C55	0.610800	0.442300	0.933200
C561	C56	0.957900	0.612300	0.142500
C571	C57	0.056700	0.595800	0.182800
H221	H22	0.113800	0.580000	0.144200
C581	C58	0.074200	0.602400	0.281400
C591	C59	0.987000	0.626700	0.338200
C601	C60	0.886400	0.641300	0.296000
H231	H23	0.828900	0.656100	0.334600
C611	C61	0.868600	0.634500	0.197100
H241	H24	0.800900	0.644200	0.169100
C621	C62	0.996800	0.639900	0.442800
C631	C63	0.184200	0.573000	0.325800
C641	C64	0.646500	0.925700	0.972000
U81	U8	0.505800	0.271900	0.991700
