data_SAHBEJ_clean_PM
_symmetry_space_group_name_H-M	'P1'
_cell_length_a	14.779000
_cell_length_b	23.754000
_cell_length_c	9.174700
_cell_angle_alpha	90.000000
_cell_angle_beta	90.000000
_cell_angle_gamma	90.000000
_symmetry_Int_Tables_number 1

loop_
_symmetry_equiv_pos_as_xyz
'x,y,z'

loop_
_atom_site_label
_atom_site_type_symbol
_atom_site_fract_x
_atom_site_fract_y
_atom_site_fract_z
Fe11	Fe1	0.323300	0.804260	0.127510
O11	O1	0.231250	0.869140	0.073000
O21	O2	0.017170	0.929080	0.577200
O31	O3	0.913130	0.874810	0.684300
O41	O4	0.132520	0.926980	0.181400
C11	C1	0.188110	0.887730	0.181200
C21	C2	0.956270	0.890830	0.578200
Cl11	Cl1	0.184220	0.003960	0.474230
Fe21	Fe2	0.323300	0.304260	0.627510
O51	O5	0.231250	0.369140	0.573000
O61	O6	0.017170	0.429080	0.077200
O71	O7	0.913130	0.374810	0.184300
O81	O8	0.132520	0.426980	0.681400
C31	C3	0.188110	0.387730	0.681200
C41	C4	0.956270	0.390830	0.078200
Cl21	Cl2	0.184220	0.503960	0.974230
Fe31	Fe3	0.823300	0.804260	0.627510
O91	O9	0.731250	0.869140	0.573000
O101	O10	0.517170	0.929080	0.077200
O111	O11	0.413130	0.874810	0.184300
O121	O12	0.632520	0.926980	0.681400
C51	C5	0.688110	0.887730	0.681200
C61	C6	0.456270	0.890830	0.078200
Cl31	Cl3	0.684220	0.003960	0.974230
Fe41	Fe4	0.823300	0.304260	0.127510
O131	O13	0.731250	0.369140	0.073000
O141	O14	0.517170	0.429080	0.577200
O151	O15	0.413130	0.374810	0.684300
O161	O16	0.632520	0.426980	0.181400
C71	C7	0.688110	0.387730	0.181200
C81	C8	0.456270	0.390830	0.578200
Cl41	Cl4	0.684220	0.503960	0.474230
Fe51	Fe5	0.676700	0.195740	0.127510
O171	O17	0.768750	0.130860	0.073000
O181	O18	0.982830	0.070920	0.577200
O191	O19	0.086870	0.125190	0.684300
O201	O20	0.867480	0.073020	0.181400
C91	C9	0.811890	0.112270	0.181200
C101	C10	0.043730	0.109170	0.578200
Cl51	Cl5	0.815780	0.996040	0.474230
Fe61	Fe6	0.676700	0.695740	0.627510
O211	O21	0.768750	0.630860	0.573000
O221	O22	0.982830	0.570920	0.077200
O231	O23	0.086870	0.625190	0.184300
O241	O24	0.867480	0.573020	0.681400
C111	C11	0.811890	0.612270	0.681200
C121	C12	0.043730	0.609170	0.078200
Cl61	Cl6	0.815780	0.496040	0.974230
Fe71	Fe7	0.176700	0.195740	0.627510
O251	O25	0.268750	0.130860	0.573000
O261	O26	0.482830	0.070920	0.077200
O271	O27	0.586870	0.125190	0.184300
O281	O28	0.367480	0.073020	0.681400
C131	C13	0.311890	0.112270	0.681200
C141	C14	0.543730	0.109170	0.078200
Cl71	Cl7	0.315780	0.996040	0.974230
Fe81	Fe8	0.176700	0.695740	0.127510
O291	O29	0.268750	0.630860	0.073000
O301	O30	0.482830	0.570920	0.577200
O311	O31	0.586870	0.625190	0.684300
O321	O32	0.367480	0.573020	0.181400
C151	C15	0.311890	0.612270	0.181200
C161	C16	0.543730	0.609170	0.578200
Cl81	Cl8	0.315780	0.496040	0.474230
Fe91	Fe9	0.573300	0.445740	0.377510
O331	O33	0.481250	0.380860	0.323000
O341	O34	0.267170	0.320920	0.827200
O351	O35	0.163130	0.375190	0.934300
O361	O36	0.382520	0.323020	0.431400
C171	C17	0.438110	0.362270	0.431200
C181	C18	0.206270	0.359170	0.828200
Cl91	Cl9	0.434220	0.246040	0.724230
Fe101	Fe10	0.573300	0.945740	0.877510
O371	O37	0.481250	0.880860	0.823000
O381	O38	0.267170	0.820920	0.327200
O391	O39	0.163130	0.875190	0.434300
O401	O40	0.382520	0.823020	0.931400
C191	C19	0.438110	0.862270	0.931200
C201	C20	0.206270	0.859170	0.328200
Cl101	Cl10	0.434220	0.746040	0.224230
Fe111	Fe11	0.073300	0.445740	0.877510
O411	O41	0.981250	0.380860	0.823000
O421	O42	0.767170	0.320920	0.327200
O431	O43	0.663130	0.375190	0.434300
O441	O44	0.882520	0.323020	0.931400
C211	C21	0.938110	0.362270	0.931200
C221	C22	0.706270	0.359170	0.328200
Cl111	Cl11	0.934220	0.246040	0.224230
Fe121	Fe12	0.073300	0.945740	0.377510
O451	O45	0.981250	0.880860	0.323000
O461	O46	0.767170	0.820920	0.827200
O471	O47	0.663130	0.875190	0.934300
O481	O48	0.882520	0.823020	0.431400
C231	C23	0.938110	0.862270	0.431200
C241	C24	0.706270	0.859170	0.828200
Cl121	Cl12	0.934220	0.746040	0.724230
Fe131	Fe13	0.926700	0.054260	0.377510
O491	O49	0.018750	0.119140	0.323000
O501	O50	0.232830	0.179080	0.827200
O511	O51	0.336870	0.124810	0.934300
O521	O52	0.117480	0.176980	0.431400
C251	C25	0.061890	0.137730	0.431200
C261	C26	0.293730	0.140830	0.828200
Cl131	Cl13	0.065780	0.253960	0.724230
Fe141	Fe14	0.926700	0.554260	0.877510
O531	O53	0.018750	0.619140	0.823000
O541	O54	0.232830	0.679080	0.327200
O551	O55	0.336870	0.624810	0.434300
O561	O56	0.117480	0.676980	0.931400
C271	C27	0.061890	0.637730	0.931200
C281	C28	0.293730	0.640830	0.328200
Cl141	Cl14	0.065780	0.753960	0.224230
Fe151	Fe15	0.426700	0.054260	0.877510
O571	O57	0.518750	0.119140	0.823000
O581	O58	0.732830	0.179080	0.327200
O591	O59	0.836870	0.124810	0.434300
O601	O60	0.617480	0.176980	0.931400
C291	C29	0.561890	0.137730	0.931200
C301	C30	0.793730	0.140830	0.328200
Cl151	Cl15	0.565780	0.253960	0.224230
Fe161	Fe16	0.426700	0.554260	0.377510
O611	O61	0.518750	0.619140	0.323000
O621	O62	0.732830	0.679080	0.827200
O631	O63	0.836870	0.624810	0.934300
O641	O64	0.617480	0.676980	0.431400
C311	C31	0.561890	0.637730	0.431200
C321	C32	0.793730	0.640830	0.828200
Cl161	Cl16	0.565780	0.753960	0.724230
O651	O65	0.000000	0.000000	0.305400
O661	O66	0.000000	0.500000	0.805400
O671	O67	0.500000	0.000000	0.805400
O681	O68	0.500000	0.500000	0.305400
O691	O69	0.250000	0.250000	0.555400
O701	O70	0.250000	0.750000	0.055400
O711	O71	0.750000	0.250000	0.055400
O721	O72	0.750000	0.750000	0.555400
