data_SAHBAF_clean_PM
_symmetry_space_group_name_H-M	'P1'
_cell_length_a	14.956000
_cell_length_b	23.671000
_cell_length_c	9.026000
_cell_angle_alpha	90.000000
_cell_angle_beta	90.000000
_cell_angle_gamma	90.000000
_symmetry_Int_Tables_number 1

loop_
_symmetry_equiv_pos_as_xyz
'x,y,z'

loop_
_atom_site_label
_atom_site_type_symbol
_atom_site_fract_x
_atom_site_fract_y
_atom_site_fract_z
Fe11	Fe1	0.924510	0.944300	0.999390
O11	O1	0.867100	0.926900	0.195000
O21	O2	0.587800	0.875900	0.195900
O31	O3	0.483400	0.930300	0.303900
O41	O4	0.767900	0.870200	0.303000
C11	C1	0.811600	0.887800	0.195800
C21	C2	0.544000	0.892100	0.302000
Cl11	Cl1	0.568650	0.745720	0.155200
Fe21	Fe2	0.924510	0.444300	0.499390
O51	O5	0.867100	0.426900	0.695000
O61	O6	0.587800	0.375900	0.695900
O71	O7	0.483400	0.430300	0.803900
O81	O8	0.767900	0.370200	0.803000
C31	C3	0.811600	0.387800	0.695800
C41	C4	0.544000	0.392100	0.802000
Cl21	Cl2	0.568650	0.245720	0.655200
Fe31	Fe3	0.424510	0.944300	0.499390
O91	O9	0.367100	0.926900	0.695000
O101	O10	0.087800	0.875900	0.695900
O111	O11	0.983400	0.930300	0.803900
O121	O12	0.267900	0.870200	0.803000
C51	C5	0.311600	0.887800	0.695800
C61	C6	0.044000	0.892100	0.802000
Cl31	Cl3	0.068650	0.745720	0.655200
Fe41	Fe4	0.424510	0.444300	0.999390
O131	O13	0.367100	0.426900	0.195000
O141	O14	0.087800	0.375900	0.195900
O151	O15	0.983400	0.430300	0.303900
O161	O16	0.267900	0.370200	0.303000
C71	C7	0.311600	0.387800	0.195800
C81	C8	0.044000	0.392100	0.302000
Cl41	Cl4	0.068650	0.245720	0.155200
Fe51	Fe5	0.075490	0.055700	0.999390
O171	O17	0.132900	0.073100	0.195000
O181	O18	0.412200	0.124100	0.195900
O191	O19	0.516600	0.069700	0.303900
O201	O20	0.232100	0.129800	0.303000
C91	C9	0.188400	0.112200	0.195800
C101	C10	0.456000	0.107900	0.302000
Cl51	Cl5	0.431350	0.254280	0.155200
Fe61	Fe6	0.075490	0.555700	0.499390
O211	O21	0.132900	0.573100	0.695000
O221	O22	0.412200	0.624100	0.695900
O231	O23	0.516600	0.569700	0.803900
O241	O24	0.232100	0.629800	0.803000
C111	C11	0.188400	0.612200	0.695800
C121	C12	0.456000	0.607900	0.802000
Cl61	Cl6	0.431350	0.754280	0.655200
Fe71	Fe7	0.575490	0.055700	0.499390
O251	O25	0.632900	0.073100	0.695000
O261	O26	0.912200	0.124100	0.695900
O271	O27	0.016600	0.069700	0.803900
O281	O28	0.732100	0.129800	0.803000
C131	C13	0.688400	0.112200	0.695800
C141	C14	0.956000	0.107900	0.802000
Cl71	Cl7	0.931350	0.254280	0.655200
Fe81	Fe8	0.575490	0.555700	0.999390
O291	O29	0.632900	0.573100	0.195000
O301	O30	0.912200	0.624100	0.195900
O311	O31	0.016600	0.569700	0.303900
O321	O32	0.732100	0.629800	0.303000
C151	C15	0.688400	0.612200	0.195800
C161	C16	0.956000	0.607900	0.302000
Cl81	Cl8	0.931350	0.754280	0.155200
Fe91	Fe9	0.174510	0.305700	0.249390
O331	O33	0.117100	0.323100	0.445000
O341	O34	0.837800	0.374100	0.445900
O351	O35	0.733400	0.319700	0.553900
O361	O36	0.017900	0.379800	0.553000
C171	C17	0.061600	0.362200	0.445800
C181	C18	0.794000	0.357900	0.552000
Cl91	Cl9	0.818650	0.504280	0.405200
Fe101	Fe10	0.174510	0.805700	0.749390
O371	O37	0.117100	0.823100	0.945000
O381	O38	0.837800	0.874100	0.945900
O391	O39	0.733400	0.819700	0.053900
O401	O40	0.017900	0.879800	0.053000
C191	C19	0.061600	0.862200	0.945800
C201	C20	0.794000	0.857900	0.052000
Cl101	Cl10	0.818650	0.004280	0.905200
Fe111	Fe11	0.674510	0.305700	0.749390
O411	O41	0.617100	0.323100	0.945000
O421	O42	0.337800	0.374100	0.945900
O431	O43	0.233400	0.319700	0.053900
O441	O44	0.517900	0.379800	0.053000
C211	C21	0.561600	0.362200	0.945800
C221	C22	0.294000	0.357900	0.052000
Cl111	Cl11	0.318650	0.504280	0.905200
Fe121	Fe12	0.674510	0.805700	0.249390
O451	O45	0.617100	0.823100	0.445000
O461	O46	0.337800	0.874100	0.445900
O471	O47	0.233400	0.819700	0.553900
O481	O48	0.517900	0.879800	0.553000
C231	C23	0.561600	0.862200	0.445800
C241	C24	0.294000	0.857900	0.552000
Cl121	Cl12	0.318650	0.004280	0.405200
Fe131	Fe13	0.325490	0.194300	0.249390
O491	O49	0.382900	0.176900	0.445000
O501	O50	0.662200	0.125900	0.445900
O511	O51	0.766600	0.180300	0.553900
O521	O52	0.482100	0.120200	0.553000
C251	C25	0.438400	0.137800	0.445800
C261	C26	0.706000	0.142100	0.552000
Cl131	Cl13	0.681350	0.995720	0.405200
Fe141	Fe14	0.325490	0.694300	0.749390
O531	O53	0.382900	0.676900	0.945000
O541	O54	0.662200	0.625900	0.945900
O551	O55	0.766600	0.680300	0.053900
O561	O56	0.482100	0.620200	0.053000
C271	C27	0.438400	0.637800	0.945800
C281	C28	0.706000	0.642100	0.052000
Cl141	Cl14	0.681350	0.495720	0.905200
Fe151	Fe15	0.825490	0.194300	0.749390
O571	O57	0.882900	0.176900	0.945000
O581	O58	0.162200	0.125900	0.945900
O591	O59	0.266600	0.180300	0.053900
O601	O60	0.982100	0.120200	0.053000
C291	C29	0.938400	0.137800	0.945800
C301	C30	0.206000	0.142100	0.052000
Cl151	Cl15	0.181350	0.995720	0.905200
Fe161	Fe16	0.825490	0.694300	0.249390
O611	O61	0.882900	0.676900	0.445000
O621	O62	0.162200	0.625900	0.445900
O631	O63	0.266600	0.680300	0.553900
O641	O64	0.982100	0.620200	0.553000
C311	C31	0.938400	0.637800	0.445800
C321	C32	0.206000	0.642100	0.552000
Cl161	Cl16	0.181350	0.495720	0.405200
O651	O65	0.750000	0.750000	0.327100
O661	O66	0.750000	0.250000	0.827100
O671	O67	0.250000	0.250000	0.327100
O681	O68	0.250000	0.750000	0.827100
O691	O69	0.000000	0.500000	0.577100
O701	O70	0.000000	0.000000	0.077100
O711	O71	0.500000	0.500000	0.077100
O721	O72	0.500000	0.000000	0.577100
