data_SAHYAD_charged_PM
_symmetry_space_group_name_H-M	'P1'
_cell_length_a	15.901400
_cell_length_b	15.901400
_cell_length_c	21.666000
_cell_angle_alpha	90.000000
_cell_angle_beta	90.000000
_cell_angle_gamma	90.000000
_symmetry_Int_Tables_number 1

loop_
_symmetry_equiv_pos_as_xyz
'x,y,z'

loop_
_atom_site_label
_atom_site_type_symbol
_atom_site_fract_x
_atom_site_fract_y
_atom_site_fract_z
Cd11	Cd1	0.941740	0.058260	0.750000
Cd21	Cd2	0.058260	0.941740	0.250000
Cd31	Cd3	0.441740	0.441740	0.500000
Cd41	Cd4	0.558260	0.558260	0.000000
H11	H1	0.008500	0.235900	0.677400
H21	H2	0.103600	0.345300	0.686700
H31	H3	0.156400	0.262200	0.858900
H41	H4	0.061000	0.155500	0.843600
H51	H5	0.166100	0.459000	0.713300
H61	H6	0.269400	0.560900	0.722400
H71	H7	0.380800	0.542900	0.791500
H81	H8	0.277900	0.322400	0.846600
H91	H9	0.495800	0.297600	0.043500
H101	H10	0.588100	0.197800	0.086900
H111	H11	0.701800	0.147100	0.031200
H121	H12	0.639400	0.300400	0.889200
H131	H13	0.783500	0.081900	0.965400
H141	H14	0.889900	0.036100	0.902000
H151	H15	0.858400	0.228700	0.791100
H161	H16	0.759100	0.285400	0.854900
H171	H17	0.475100	0.251400	0.859200
H181	H18	0.396300	0.240400	0.898600
H191	H19	0.991500	0.764100	0.177400
H201	H20	0.896400	0.654700	0.186700
H211	H21	0.843600	0.737800	0.358900
H221	H22	0.939000	0.844500	0.343600
H231	H23	0.833900	0.541000	0.213300
H241	H24	0.730600	0.439100	0.222400
H251	H25	0.619200	0.457100	0.291500
H261	H26	0.722100	0.677600	0.346600
H271	H27	0.504200	0.702400	0.543500
H281	H28	0.411900	0.802200	0.586900
H291	H29	0.298200	0.852900	0.531200
H301	H30	0.360600	0.699600	0.389200
H311	H31	0.216500	0.918100	0.465400
H321	H32	0.110100	0.963900	0.402000
H331	H33	0.141600	0.771300	0.291100
H341	H34	0.240900	0.714600	0.354900
H351	H35	0.524900	0.748600	0.359200
H361	H36	0.603700	0.759600	0.398600
H371	H37	0.264100	0.508500	0.427400
H381	H38	0.154700	0.603600	0.436700
H391	H39	0.237800	0.656400	0.608900
H401	H40	0.344500	0.561000	0.593600
H411	H41	0.041000	0.666100	0.463300
H421	H42	0.939100	0.769400	0.472400
H431	H43	0.957100	0.880800	0.541500
H441	H44	0.177600	0.777900	0.596600
H451	H45	0.202400	0.995800	0.793500
H461	H46	0.302200	0.088100	0.836900
H471	H47	0.352900	0.201800	0.781200
H481	H48	0.199600	0.139400	0.639200
H491	H49	0.418100	0.283500	0.715400
H501	H50	0.463900	0.389900	0.652000
H511	H51	0.271300	0.358400	0.541100
H521	H52	0.214600	0.259100	0.604900
H531	H53	0.248600	0.975100	0.609200
H541	H54	0.259600	0.896300	0.648600
H551	H55	0.735900	0.491500	0.927400
H561	H56	0.845300	0.396400	0.936700
H571	H57	0.762200	0.343600	0.108900
H581	H58	0.655500	0.439000	0.093600
H591	H59	0.959000	0.333900	0.963300
H601	H60	0.060900	0.230600	0.972400
H611	H61	0.042900	0.119200	0.041500
H621	H62	0.822400	0.222100	0.096600
H631	H63	0.797600	0.004200	0.293500
H641	H64	0.697800	0.911900	0.336900
H651	H65	0.647100	0.798200	0.281200
H661	H66	0.800400	0.860600	0.139200
H671	H67	0.581900	0.716500	0.215400
H681	H68	0.536100	0.610100	0.152000
H691	H69	0.728700	0.641600	0.041100
H701	H70	0.785400	0.740900	0.104900
H711	H71	0.751400	0.024900	0.109200
H721	H72	0.740400	0.103700	0.148600
H731	H73	0.491500	0.735900	0.072600
H741	H74	0.396400	0.845300	0.063300
H751	H75	0.343600	0.762200	0.891100
H761	H76	0.439000	0.655500	0.906400
H771	H77	0.333900	0.959000	0.036700
H781	H78	0.230600	0.060900	0.027600
H791	H79	0.119200	0.042900	0.958500
H801	H80	0.222100	0.822400	0.903400
H811	H81	0.004200	0.797600	0.706500
H821	H82	0.911900	0.697800	0.663100
H831	H83	0.798200	0.647100	0.718800
H841	H84	0.860600	0.800400	0.860800
H851	H85	0.716500	0.581900	0.784600
H861	H86	0.610100	0.536100	0.848000
H871	H87	0.641600	0.728700	0.958900
H881	H88	0.740900	0.785400	0.895100
H891	H89	0.024900	0.751400	0.890800
H901	H90	0.103700	0.740400	0.851400
H911	H91	0.508500	0.264100	0.572600
H921	H92	0.603600	0.154700	0.563300
H931	H93	0.656400	0.237800	0.391100
H941	H94	0.561000	0.344500	0.406400
H951	H95	0.666100	0.041000	0.536700
H961	H96	0.769400	0.939100	0.527600
H971	H97	0.880800	0.957100	0.458500
H981	H98	0.777900	0.177600	0.403400
H991	H99	0.995800	0.202400	0.206500
H1001	H100	0.088100	0.302200	0.163100
H1011	H101	0.201800	0.352900	0.218800
H1021	H102	0.139400	0.199600	0.360800
H1031	H103	0.283500	0.418100	0.284600
H1041	H104	0.389900	0.463900	0.348000
H1051	H105	0.358400	0.271300	0.458900
H1061	H106	0.259100	0.214600	0.395100
H1071	H107	0.975100	0.248600	0.390800
H1081	H108	0.896300	0.259600	0.351400
H1091	H109	0.235900	0.008500	0.322600
H1101	H110	0.345300	0.103600	0.313300
H1111	H111	0.262200	0.156400	0.141100
H1121	H112	0.155500	0.061000	0.156400
H1131	H113	0.459000	0.166100	0.286700
H1141	H114	0.560900	0.269400	0.277600
H1151	H115	0.542900	0.380800	0.208500
H1161	H116	0.322400	0.277900	0.153400
H1171	H117	0.297600	0.495800	0.956500
H1181	H118	0.197800	0.588100	0.913100
H1191	H119	0.147100	0.701800	0.968800
H1201	H120	0.300400	0.639400	0.110800
H1211	H121	0.081900	0.783500	0.034600
H1221	H122	0.036100	0.889900	0.098000
H1231	H123	0.228700	0.858400	0.208900
H1241	H124	0.285400	0.759100	0.145100
H1251	H125	0.251400	0.475100	0.140800
H1261	H126	0.240400	0.396300	0.101400
H1271	H127	0.764100	0.991500	0.822600
H1281	H128	0.654700	0.896400	0.813300
H1291	H129	0.737800	0.843600	0.641100
H1301	H130	0.844500	0.939000	0.656400
H1311	H131	0.541000	0.833900	0.786700
H1321	H132	0.439100	0.730600	0.777600
H1331	H133	0.457100	0.619200	0.708500
H1341	H134	0.677600	0.722100	0.653400
H1351	H135	0.702400	0.504200	0.456500
H1361	H136	0.802200	0.411900	0.413100
H1371	H137	0.852900	0.298200	0.468800
H1381	H138	0.699600	0.360600	0.610800
H1391	H139	0.918100	0.216500	0.534600
H1401	H140	0.963900	0.110100	0.598000
H1411	H141	0.771300	0.141600	0.708900
H1421	H142	0.714600	0.240900	0.645100
H1431	H143	0.748600	0.524900	0.640800
H1441	H144	0.759600	0.603700	0.601400
C11	C1	0.039400	0.241400	0.714800
C21	C2	0.096500	0.306800	0.719800
C31	C3	0.143400	0.315900	0.773800
C41	C4	0.127600	0.258100	0.820600
C51	C5	0.069700	0.194800	0.811200
C61	C6	0.210500	0.381600	0.779900
C71	C7	0.209900	0.451900	0.742700
C81	C8	0.271800	0.512000	0.747600
C91	C9	0.337600	0.501800	0.788700
C101	C10	0.339400	0.430500	0.825800
C111	C11	0.276200	0.371000	0.821200
C121	C12	0.409000	0.422100	0.869600
C131	C13	0.505300	0.371500	0.931400
C141	C14	0.560800	0.309100	0.961800
C151	C15	0.543300	0.278300	0.021100
C161	C16	0.598100	0.218300	0.046400
C171	C17	0.666000	0.188400	0.013500
C181	C18	0.682500	0.219400	0.953700
C191	C19	0.628800	0.279300	0.929500
C201	C20	0.754600	0.188800	0.916400
C211	C21	0.797600	0.113300	0.929600
C221	C22	0.859600	0.085200	0.890700
C231	C23	0.842200	0.198100	0.826800
C241	C24	0.782200	0.231800	0.864400
C251	C25	0.960600	0.758600	0.214800
C261	C26	0.903500	0.693200	0.219800
C271	C27	0.856600	0.684100	0.273800
C281	C28	0.872400	0.741900	0.320600
C291	C29	0.930300	0.805200	0.311200
C301	C30	0.789500	0.618400	0.279900
C311	C31	0.790100	0.548100	0.242700
C321	C32	0.728200	0.488000	0.247600
C331	C33	0.662400	0.498200	0.288700
C341	C34	0.660600	0.569500	0.325800
C351	C35	0.723800	0.629000	0.321200
C361	C36	0.591000	0.577900	0.369600
C371	C37	0.494700	0.628500	0.431400
C381	C38	0.439200	0.690900	0.461800
C391	C39	0.456700	0.721700	0.521100
C401	C40	0.401900	0.781700	0.546400
C411	C41	0.334000	0.811600	0.513500
C421	C42	0.317500	0.780600	0.453700
C431	C43	0.371200	0.720700	0.429500
C441	C44	0.245400	0.811200	0.416400
C451	C45	0.202400	0.886700	0.429600
C461	C46	0.140400	0.914800	0.390700
C471	C47	0.157800	0.801900	0.326800
C481	C48	0.217800	0.768200	0.364400
C491	C49	0.258600	0.539400	0.464800
C501	C50	0.193200	0.596500	0.469800
C511	C51	0.184100	0.643400	0.523800
C521	C52	0.241900	0.627600	0.570600
C531	C53	0.305200	0.569700	0.561200
C541	C54	0.118400	0.710500	0.529900
C551	C55	0.048100	0.709900	0.492700
C561	C56	0.988000	0.771800	0.497600
C571	C57	0.998200	0.837600	0.538700
C581	C58	0.069500	0.839400	0.575800
C591	C59	0.129000	0.776200	0.571200
C601	C60	0.077900	0.909000	0.619600
C611	C61	0.128500	0.005300	0.681400
C621	C62	0.190900	0.060800	0.711800
C631	C63	0.221700	0.043300	0.771100
C641	C64	0.281700	0.098100	0.796400
C651	C65	0.311600	0.166000	0.763500
C661	C66	0.280600	0.182500	0.703700
C671	C67	0.220700	0.128800	0.679500
C681	C68	0.311200	0.254600	0.666400
C691	C69	0.386700	0.297600	0.679600
C701	C70	0.414800	0.359600	0.640700
C711	C71	0.301900	0.342200	0.576800
C721	C72	0.268200	0.282200	0.614400
C731	C73	0.741400	0.460600	0.964800
C741	C74	0.806800	0.403500	0.969800
C751	C75	0.815900	0.356600	0.023800
C761	C76	0.758100	0.372400	0.070600
C771	C77	0.694800	0.430300	0.061200
C781	C78	0.881600	0.289500	0.029900
C791	C79	0.951900	0.290100	0.992700
C801	C80	0.012000	0.228200	0.997600
C811	C81	0.001800	0.162400	0.038700
C821	C82	0.930500	0.160600	0.075800
C831	C83	0.871000	0.223800	0.071200
C841	C84	0.922100	0.091000	0.119600
C851	C85	0.871500	0.994700	0.181400
C861	C86	0.809100	0.939200	0.211800
C871	C87	0.778300	0.956700	0.271100
C881	C88	0.718300	0.901900	0.296400
C891	C89	0.688400	0.834000	0.263500
C901	C90	0.719400	0.817500	0.203700
C911	C91	0.779300	0.871200	0.179500
C921	C92	0.688800	0.745400	0.166400
C931	C93	0.613300	0.702400	0.179600
C941	C94	0.585200	0.640400	0.140700
C951	C95	0.698100	0.657800	0.076800
C961	C96	0.731800	0.717800	0.114400
C971	C97	0.460600	0.741400	0.035200
C981	C98	0.403500	0.806800	0.030200
C991	C99	0.356600	0.815900	0.976200
C1001	C100	0.372400	0.758100	0.929400
C1011	C101	0.430300	0.694800	0.938800
C1021	C102	0.289500	0.881600	0.970100
C1031	C103	0.290100	0.951900	0.007300
C1041	C104	0.228200	0.012000	0.002400
C1051	C105	0.162400	0.001800	0.961300
C1061	C106	0.160600	0.930500	0.924200
C1071	C107	0.223800	0.871000	0.928800
C1081	C108	0.091000	0.922100	0.880400
C1091	C109	0.994700	0.871500	0.818600
C1101	C110	0.939200	0.809100	0.788200
C1111	C111	0.956700	0.778300	0.728900
C1121	C112	0.901900	0.718300	0.703600
C1131	C113	0.834000	0.688400	0.736500
C1141	C114	0.817500	0.719400	0.796300
C1151	C115	0.871200	0.779300	0.820500
C1161	C116	0.745400	0.688800	0.833600
C1171	C117	0.702400	0.613300	0.820400
C1181	C118	0.640400	0.585200	0.859300
C1191	C119	0.657800	0.698100	0.923200
C1201	C120	0.717800	0.731800	0.885600
C1211	C121	0.539400	0.258600	0.535200
C1221	C122	0.596500	0.193200	0.530200
C1231	C123	0.643400	0.184100	0.476200
C1241	C124	0.627600	0.241900	0.429400
C1251	C125	0.569700	0.305200	0.438800
C1261	C126	0.710500	0.118400	0.470100
C1271	C127	0.709900	0.048100	0.507300
C1281	C128	0.771800	0.988000	0.502400
C1291	C129	0.837600	0.998200	0.461300
C1301	C130	0.839400	0.069500	0.424200
C1311	C131	0.776200	0.129000	0.428800
C1321	C132	0.909000	0.077900	0.380400
C1331	C133	0.005300	0.128500	0.318600
C1341	C134	0.060800	0.190900	0.288200
C1351	C135	0.043300	0.221700	0.228900
C1361	C136	0.098100	0.281700	0.203600
C1371	C137	0.166000	0.311600	0.236500
C1381	C138	0.182500	0.280600	0.296300
C1391	C139	0.128800	0.220700	0.320500
C1401	C140	0.254600	0.311200	0.333600
C1411	C141	0.297600	0.386700	0.320400
C1421	C142	0.359600	0.414800	0.359300
C1431	C143	0.342200	0.301900	0.423200
C1441	C144	0.282200	0.268200	0.385600
C1451	C145	0.241400	0.039400	0.285200
C1461	C146	0.306800	0.096500	0.280200
C1471	C147	0.315900	0.143400	0.226200
C1481	C148	0.258100	0.127600	0.179400
C1491	C149	0.194800	0.069700	0.188800
C1501	C150	0.381600	0.210500	0.220100
C1511	C151	0.451900	0.209900	0.257300
C1521	C152	0.512000	0.271800	0.252400
C1531	C153	0.501800	0.337600	0.211300
C1541	C154	0.430500	0.339400	0.174200
C1551	C155	0.371000	0.276200	0.178800
C1561	C156	0.422100	0.409000	0.130400
C1571	C157	0.371500	0.505300	0.068600
C1581	C158	0.309100	0.560800	0.038200
C1591	C159	0.278300	0.543300	0.978900
C1601	C160	0.218300	0.598100	0.953600
C1611	C161	0.188400	0.666000	0.986500
C1621	C162	0.219400	0.682500	0.046300
C1631	C163	0.279300	0.628800	0.070500
C1641	C164	0.188800	0.754600	0.083600
C1651	C165	0.113300	0.797600	0.070400
C1661	C166	0.085200	0.859600	0.109300
C1671	C167	0.198100	0.842200	0.173200
C1681	C168	0.231800	0.782200	0.135600
C1691	C169	0.758600	0.960600	0.785200
C1701	C170	0.693200	0.903500	0.780200
C1711	C171	0.684100	0.856600	0.726200
C1721	C172	0.741900	0.872400	0.679400
C1731	C173	0.805200	0.930300	0.688800
C1741	C174	0.618400	0.789500	0.720100
C1751	C175	0.548100	0.790100	0.757300
C1761	C176	0.488000	0.728200	0.752400
C1771	C177	0.498200	0.662400	0.711300
C1781	C178	0.569500	0.660600	0.674200
C1791	C179	0.629000	0.723800	0.678800
C1801	C180	0.577900	0.591000	0.630400
C1811	C181	0.628500	0.494700	0.568600
C1821	C182	0.690900	0.439200	0.538200
C1831	C183	0.721700	0.456700	0.478900
C1841	C184	0.781700	0.401900	0.453600
C1851	C185	0.811600	0.334000	0.486500
C1861	C186	0.780600	0.317500	0.546300
C1871	C187	0.720700	0.371200	0.570500
C1881	C188	0.811200	0.245400	0.583600
C1891	C189	0.886700	0.202400	0.570400
C1901	C190	0.914800	0.140400	0.609300
C1911	C191	0.801900	0.157800	0.673200
C1921	C192	0.768200	0.217800	0.635600
N11	N1	0.025600	0.185200	0.759900
N21	N2	0.447000	0.486600	0.896600
N31	N3	0.506700	0.454500	0.935300
N41	N4	0.444200	0.349000	0.890800
N51	N5	0.424300	0.267500	0.870400
N61	N6	0.879800	0.123300	0.837600
N71	N7	0.974400	0.814800	0.259900
N81	N8	0.553000	0.513400	0.396600
N91	N9	0.493300	0.545500	0.435300
N101	N10	0.555800	0.651000	0.390800
N111	N11	0.575700	0.732500	0.370400
N121	N12	0.120200	0.876700	0.337600
N131	N13	0.314800	0.525600	0.509900
N141	N14	0.013400	0.947000	0.646600
N151	N15	0.045500	0.006700	0.685300
N161	N16	0.151000	0.944200	0.640800
N171	N17	0.232500	0.924300	0.620400
N181	N18	0.376700	0.379800	0.587600
N191	N19	0.685200	0.474400	0.009900
N201	N20	0.986600	0.053000	0.146600
N211	N21	0.954500	0.993300	0.185300
N221	N22	0.849000	0.055800	0.140800
N231	N23	0.767500	0.075700	0.120400
N241	N24	0.623300	0.620200	0.087600
N251	N25	0.474400	0.685200	0.990100
N261	N26	0.053000	0.986600	0.853400
N271	N27	0.993300	0.954500	0.814700
N281	N28	0.055800	0.849000	0.859200
N291	N29	0.075700	0.767500	0.879600
N301	N30	0.620200	0.623300	0.912400
N311	N31	0.525600	0.314800	0.490100
N321	N32	0.947000	0.013400	0.353400
N331	N33	0.006700	0.045500	0.314700
N341	N34	0.944200	0.151000	0.359200
N351	N35	0.924300	0.232500	0.379600
N361	N36	0.379800	0.376700	0.412400
N371	N37	0.185200	0.025600	0.240100
N381	N38	0.486600	0.447000	0.103400
N391	N39	0.454500	0.506700	0.064700
N401	N40	0.349000	0.444200	0.109200
N411	N41	0.267500	0.424300	0.129600
N421	N42	0.123300	0.879800	0.162400
N431	N43	0.814800	0.974400	0.740100
N441	N44	0.513400	0.553000	0.603400
N451	N45	0.545500	0.493300	0.564700
N461	N46	0.651000	0.555800	0.609200
N471	N47	0.732500	0.575700	0.629600
N481	N48	0.876700	0.120200	0.662400
Cl11	Cl1	0.876120	0.876120	0.000000
O11	O1	0.808900	0.882400	0.970100
O21	O2	0.925900	0.865600	0.955800
O31	O3	0.882400	0.808900	0.029900
O41	O4	0.865600	0.925900	0.044200
Cl21	Cl2	0.123880	0.123880	0.500000
O51	O5	0.191100	0.117600	0.470100
O61	O6	0.074100	0.134400	0.455800
O71	O7	0.117600	0.191100	0.529900
O81	O8	0.134400	0.074100	0.544200
Cl31	Cl3	0.623880	0.376120	0.750000
O91	O9	0.617600	0.308900	0.720100
O101	O10	0.634400	0.425900	0.705800
O111	O11	0.691100	0.382400	0.779900
O121	O12	0.574100	0.365600	0.794200
Cl41	Cl4	0.376120	0.623880	0.250000
O131	O13	0.382400	0.691100	0.220100
O141	O14	0.365600	0.574100	0.205800
O151	O15	0.308900	0.617600	0.279900
O161	O16	0.425900	0.634400	0.294200
