data_SAJLAT_clean_PM
_symmetry_space_group_name_H-M	'P1'
_cell_length_a	19.909100
_cell_length_b	19.909100
_cell_length_c	19.909100
_cell_angle_alpha	90.000000
_cell_angle_beta	90.000000
_cell_angle_gamma	90.000000
_symmetry_Int_Tables_number 1

loop_
_symmetry_equiv_pos_as_xyz
'x,y,z'

loop_
_atom_site_label
_atom_site_type_symbol
_atom_site_fract_x
_atom_site_fract_y
_atom_site_fract_z
Nd11	Nd1	0.492270	0.252930	0.652440
O11	O1	0.450900	0.354020	0.707270
O21	O2	0.540330	0.157210	0.711110
N11	N1	0.499610	0.258340	0.781300
O31	O3	0.585300	0.204690	0.581090
O41	O4	0.391900	0.298110	0.589140
C11	C1	0.445550	0.364570	0.769740
C21	C2	0.554310	0.152780	0.772530
C31	C3	0.526660	0.208100	0.816330
C41	C4	0.474100	0.310900	0.814990
C51	C5	0.529400	0.208000	0.885670
C61	C6	0.473500	0.313700	0.884000
H11	H1	0.549500	0.172700	0.908800
C71	C7	0.501600	0.261700	0.919600
H21	H2	0.454500	0.350100	0.906100
H31	H3	0.501800	0.262600	0.966300
Nd21	Nd2	0.007730	0.747070	0.152440
O51	O5	0.049100	0.645980	0.207270
O61	O6	0.959670	0.842790	0.211110
N21	N2	0.000390	0.741660	0.281300
O71	O7	0.914700	0.795310	0.081090
O81	O8	0.108100	0.701890	0.089140
C81	C8	0.054450	0.635430	0.269740
C91	C9	0.945690	0.847220	0.272530
C101	C10	0.973340	0.791900	0.316330
C111	C11	0.025900	0.689100	0.314990
C121	C12	0.970600	0.792000	0.385670
C131	C13	0.026500	0.686300	0.384000
H41	H4	0.950500	0.827300	0.408800
C141	C14	0.998400	0.738300	0.419600
H51	H5	0.045500	0.649900	0.406100
H61	H6	0.998200	0.737400	0.466300
Nd31	Nd3	0.507730	0.752930	0.847560
O91	O9	0.549100	0.854020	0.792730
O101	O10	0.459670	0.657210	0.788890
N31	N3	0.500390	0.758340	0.718700
O111	O11	0.414700	0.704690	0.918910
O121	O12	0.608100	0.798110	0.910860
C151	C15	0.554450	0.864570	0.730260
C161	C16	0.445690	0.652780	0.727470
C171	C17	0.473340	0.708100	0.683670
C181	C18	0.525900	0.810900	0.685010
C191	C19	0.470600	0.708000	0.614330
C201	C20	0.526500	0.813700	0.616000
H71	H7	0.450500	0.672700	0.591200
C211	C21	0.498400	0.761700	0.580400
H81	H8	0.545500	0.850100	0.593900
H91	H9	0.498200	0.762600	0.533700
Nd41	Nd4	0.992270	0.247070	0.347560
O131	O13	0.950900	0.145980	0.292730
O141	O14	0.040330	0.342790	0.288890
N41	N4	0.999610	0.241660	0.218700
O151	O15	0.085300	0.295310	0.418910
O161	O16	0.891900	0.201890	0.410860
C221	C22	0.945550	0.135430	0.230260
C231	C23	0.054310	0.347220	0.227470
C241	C24	0.026660	0.291900	0.183670
C251	C25	0.974100	0.189100	0.185010
C261	C26	0.029400	0.292000	0.114330
C271	C27	0.973500	0.186300	0.116000
H101	H10	0.049500	0.327300	0.091200
C281	C28	0.001600	0.238300	0.080400
H111	H11	0.954500	0.149900	0.093900
H121	H12	0.001800	0.237400	0.033700
Nd51	Nd5	0.652440	0.492270	0.252930
O171	O17	0.707270	0.450900	0.354020
O181	O18	0.711110	0.540330	0.157210
N51	N5	0.781300	0.499610	0.258340
O191	O19	0.581090	0.585300	0.204690
O201	O20	0.589140	0.391900	0.298110
C291	C29	0.769740	0.445550	0.364570
C301	C30	0.772530	0.554310	0.152780
C311	C31	0.816330	0.526660	0.208100
C321	C32	0.814990	0.474100	0.310900
C331	C33	0.885670	0.529400	0.208000
C341	C34	0.884000	0.473500	0.313700
H131	H13	0.908800	0.549500	0.172700
C351	C35	0.919600	0.501600	0.261700
H141	H14	0.906100	0.454500	0.350100
H151	H15	0.966300	0.501800	0.262600
Nd61	Nd6	0.152440	0.007730	0.747070
O211	O21	0.207270	0.049100	0.645980
O221	O22	0.211110	0.959670	0.842790
N61	N6	0.281300	0.000390	0.741660
O231	O23	0.081090	0.914700	0.795310
O241	O24	0.089140	0.108100	0.701890
C361	C36	0.269740	0.054450	0.635430
C371	C37	0.272530	0.945690	0.847220
C381	C38	0.316330	0.973340	0.791900
C391	C39	0.314990	0.025900	0.689100
C401	C40	0.385670	0.970600	0.792000
C411	C41	0.384000	0.026500	0.686300
H161	H16	0.408800	0.950500	0.827300
C421	C42	0.419600	0.998400	0.738300
H171	H17	0.406100	0.045500	0.649900
H181	H18	0.466300	0.998200	0.737400
Nd71	Nd7	0.847560	0.507730	0.752930
O251	O25	0.792730	0.549100	0.854020
O261	O26	0.788890	0.459670	0.657210
N71	N7	0.718700	0.500390	0.758340
O271	O27	0.918910	0.414700	0.704690
O281	O28	0.910860	0.608100	0.798110
C431	C43	0.730260	0.554450	0.864570
C441	C44	0.727470	0.445690	0.652780
C451	C45	0.683670	0.473340	0.708100
C461	C46	0.685010	0.525900	0.810900
C471	C47	0.614330	0.470600	0.708000
C481	C48	0.616000	0.526500	0.813700
H191	H19	0.591200	0.450500	0.672700
C491	C49	0.580400	0.498400	0.761700
H201	H20	0.593900	0.545500	0.850100
H211	H21	0.533700	0.498200	0.762600
Nd81	Nd8	0.347560	0.992270	0.247070
O291	O29	0.292730	0.950900	0.145980
O301	O30	0.288890	0.040330	0.342790
N81	N8	0.218700	0.999610	0.241660
O311	O31	0.418910	0.085300	0.295310
O321	O32	0.410860	0.891900	0.201890
C501	C50	0.230260	0.945550	0.135430
C511	C51	0.227470	0.054310	0.347220
C521	C52	0.183670	0.026660	0.291900
C531	C53	0.185010	0.974100	0.189100
C541	C54	0.114330	0.029400	0.292000
C551	C55	0.116000	0.973500	0.186300
H221	H22	0.091200	0.049500	0.327300
C561	C56	0.080400	0.001600	0.238300
H231	H23	0.093900	0.954500	0.149900
H241	H24	0.033700	0.001800	0.237400
Nd91	Nd9	0.252930	0.652440	0.492270
O331	O33	0.354020	0.707270	0.450900
O341	O34	0.157210	0.711110	0.540330
N91	N9	0.258340	0.781300	0.499610
O351	O35	0.204690	0.581090	0.585300
O361	O36	0.298110	0.589140	0.391900
C571	C57	0.364570	0.769740	0.445550
C581	C58	0.152780	0.772530	0.554310
C591	C59	0.208100	0.816330	0.526660
C601	C60	0.310900	0.814990	0.474100
C611	C61	0.208000	0.885670	0.529400
C621	C62	0.313700	0.884000	0.473500
H251	H25	0.172700	0.908800	0.549500
C631	C63	0.261700	0.919600	0.501600
H261	H26	0.350100	0.906100	0.454500
H271	H27	0.262600	0.966300	0.501800
Nd101	Nd10	0.747070	0.152440	0.007730
O371	O37	0.645980	0.207270	0.049100
O381	O38	0.842790	0.211110	0.959670
N101	N10	0.741660	0.281300	0.000390
O391	O39	0.795310	0.081090	0.914700
O401	O40	0.701890	0.089140	0.108100
C641	C64	0.635430	0.269740	0.054450
C651	C65	0.847220	0.272530	0.945690
C661	C66	0.791900	0.316330	0.973340
C671	C67	0.689100	0.314990	0.025900
C681	C68	0.792000	0.385670	0.970600
C691	C69	0.686300	0.384000	0.026500
H281	H28	0.827300	0.408800	0.950500
C701	C70	0.738300	0.419600	0.998400
H291	H29	0.649900	0.406100	0.045500
H301	H30	0.737400	0.466300	0.998200
Nd111	Nd11	0.752930	0.847560	0.507730
O411	O41	0.854020	0.792730	0.549100
O421	O42	0.657210	0.788890	0.459670
N111	N11	0.758340	0.718700	0.500390
O431	O43	0.704690	0.918910	0.414700
O441	O44	0.798110	0.910860	0.608100
C711	C71	0.864570	0.730260	0.554450
C721	C72	0.652780	0.727470	0.445690
C731	C73	0.708100	0.683670	0.473340
C741	C74	0.810900	0.685010	0.525900
C751	C75	0.708000	0.614330	0.470600
C761	C76	0.813700	0.616000	0.526500
H311	H31	0.672700	0.591200	0.450500
C771	C77	0.761700	0.580400	0.498400
H321	H32	0.850100	0.593900	0.545500
H331	H33	0.762600	0.533700	0.498200
Nd121	Nd12	0.247070	0.347560	0.992270
O451	O45	0.145980	0.292730	0.950900
O461	O46	0.342790	0.288890	0.040330
N121	N12	0.241660	0.218700	0.999610
O471	O47	0.295310	0.418910	0.085300
O481	O48	0.201890	0.410860	0.891900
C781	C78	0.135430	0.230260	0.945550
C791	C79	0.347220	0.227470	0.054310
C801	C80	0.291900	0.183670	0.026660
C811	C81	0.189100	0.185010	0.974100
C821	C82	0.292000	0.114330	0.029400
C831	C83	0.186300	0.116000	0.973500
H341	H34	0.327300	0.091200	0.049500
C841	C84	0.238300	0.080400	0.001600
H351	H35	0.149900	0.093900	0.954500
H361	H36	0.237400	0.033700	0.001800
Nd131	Nd13	0.507730	0.747070	0.347560
O491	O49	0.549100	0.645980	0.292730
O501	O50	0.459670	0.842790	0.288890
N131	N13	0.500390	0.741660	0.218700
O511	O51	0.414700	0.795310	0.418910
O521	O52	0.608100	0.701890	0.410860
C851	C85	0.554450	0.635430	0.230260
C861	C86	0.445690	0.847220	0.227470
C871	C87	0.473340	0.791900	0.183670
C881	C88	0.525900	0.689100	0.185010
C891	C89	0.470600	0.792000	0.114330
C901	C90	0.526500	0.686300	0.116000
H371	H37	0.450500	0.827300	0.091200
C911	C91	0.498400	0.738300	0.080400
H381	H38	0.545500	0.649900	0.093900
H391	H39	0.498200	0.737400	0.033700
Nd141	Nd14	0.992270	0.252930	0.847560
O531	O53	0.950900	0.354020	0.792730
O541	O54	0.040330	0.157210	0.788890
N141	N14	0.999610	0.258340	0.718700
O551	O55	0.085300	0.204690	0.918910
O561	O56	0.891900	0.298110	0.910860
C921	C92	0.945550	0.364570	0.730260
C931	C93	0.054310	0.152780	0.727470
C941	C94	0.026660	0.208100	0.683670
C951	C95	0.974100	0.310900	0.685010
C961	C96	0.029400	0.208000	0.614330
C971	C97	0.973500	0.313700	0.616000
H401	H40	0.049500	0.172700	0.591200
C981	C98	0.001600	0.261700	0.580400
H411	H41	0.954500	0.350100	0.593900
H421	H42	0.001800	0.262600	0.533700
Nd151	Nd15	0.492270	0.247070	0.152440
O571	O57	0.450900	0.145980	0.207270
O581	O58	0.540330	0.342790	0.211110
N151	N15	0.499610	0.241660	0.281300
O591	O59	0.585300	0.295310	0.081090
O601	O60	0.391900	0.201890	0.089140
C991	C99	0.445550	0.135430	0.269740
C1001	C100	0.554310	0.347220	0.272530
C1011	C101	0.526660	0.291900	0.316330
C1021	C102	0.474100	0.189100	0.314990
C1031	C103	0.529400	0.292000	0.385670
C1041	C104	0.473500	0.186300	0.384000
H431	H43	0.549500	0.327300	0.408800
C1051	C105	0.501600	0.238300	0.419600
H441	H44	0.454500	0.149900	0.406100
H451	H45	0.501800	0.237400	0.466300
Nd161	Nd16	0.007730	0.752930	0.652440
O611	O61	0.049100	0.854020	0.707270
O621	O62	0.959670	0.657210	0.711110
N161	N16	0.000390	0.758340	0.781300
O631	O63	0.914700	0.704690	0.581090
O641	O64	0.108100	0.798110	0.589140
C1061	C106	0.054450	0.864570	0.769740
C1071	C107	0.945690	0.652780	0.772530
C1081	C108	0.973340	0.708100	0.816330
C1091	C109	0.025900	0.810900	0.814990
C1101	C110	0.970600	0.708000	0.885670
C1111	C111	0.026500	0.813700	0.884000
H461	H46	0.950500	0.672700	0.908800
C1121	C112	0.998400	0.761700	0.919600
H471	H47	0.045500	0.850100	0.906100
H481	H48	0.998200	0.762600	0.966300
Nd171	Nd17	0.347560	0.507730	0.747070
O651	O65	0.292730	0.549100	0.645980
O661	O66	0.288890	0.459670	0.842790
N171	N17	0.218700	0.500390	0.741660
O671	O67	0.418910	0.414700	0.795310
O681	O68	0.410860	0.608100	0.701890
C1131	C113	0.230260	0.554450	0.635430
C1141	C114	0.227470	0.445690	0.847220
C1151	C115	0.183670	0.473340	0.791900
C1161	C116	0.185010	0.525900	0.689100
C1171	C117	0.114330	0.470600	0.792000
C1181	C118	0.116000	0.526500	0.686300
H491	H49	0.091200	0.450500	0.827300
C1191	C119	0.080400	0.498400	0.738300
H501	H50	0.093900	0.545500	0.649900
H511	H51	0.033700	0.498200	0.737400
Nd181	Nd18	0.847560	0.992270	0.252930
O691	O69	0.792730	0.950900	0.354020
O701	O70	0.788890	0.040330	0.157210
N181	N18	0.718700	0.999610	0.258340
O711	O71	0.918910	0.085300	0.204690
O721	O72	0.910860	0.891900	0.298110
C1201	C120	0.730260	0.945550	0.364570
C1211	C121	0.727470	0.054310	0.152780
C1221	C122	0.683670	0.026660	0.208100
C1231	C123	0.685010	0.974100	0.310900
C1241	C124	0.614330	0.029400	0.208000
C1251	C125	0.616000	0.973500	0.313700
H521	H52	0.591200	0.049500	0.172700
C1261	C126	0.580400	0.001600	0.261700
H531	H53	0.593900	0.954500	0.350100
H541	H54	0.533700	0.001800	0.262600
Nd191	Nd19	0.152440	0.492270	0.247070
O731	O73	0.207270	0.450900	0.145980
O741	O74	0.211110	0.540330	0.342790
N191	N19	0.281300	0.499610	0.241660
O751	O75	0.081090	0.585300	0.295310
O761	O76	0.089140	0.391900	0.201890
C1271	C127	0.269740	0.445550	0.135430
C1281	C128	0.272530	0.554310	0.347220
C1291	C129	0.316330	0.526660	0.291900
C1301	C130	0.314990	0.474100	0.189100
C1311	C131	0.385670	0.529400	0.292000
C1321	C132	0.384000	0.473500	0.186300
H551	H55	0.408800	0.549500	0.327300
C1331	C133	0.419600	0.501600	0.238300
H561	H56	0.406100	0.454500	0.149900
H571	H57	0.466300	0.501800	0.237400
Nd201	Nd20	0.652440	0.007730	0.752930
O771	O77	0.707270	0.049100	0.854020
O781	O78	0.711110	0.959670	0.657210
N201	N20	0.781300	0.000390	0.758340
O791	O79	0.581090	0.914700	0.704690
O801	O80	0.589140	0.108100	0.798110
C1341	C134	0.769740	0.054450	0.864570
C1351	C135	0.772530	0.945690	0.652780
C1361	C136	0.816330	0.973340	0.708100
C1371	C137	0.814990	0.025900	0.810900
C1381	C138	0.885670	0.970600	0.708000
C1391	C139	0.884000	0.026500	0.813700
H581	H58	0.908800	0.950500	0.672700
C1401	C140	0.919600	0.998400	0.761700
H591	H59	0.906100	0.045500	0.850100
H601	H60	0.966300	0.998200	0.762600
Nd211	Nd21	0.747070	0.347560	0.507730
O811	O81	0.645980	0.292730	0.549100
O821	O82	0.842790	0.288890	0.459670
N211	N21	0.741660	0.218700	0.500390
O831	O83	0.795310	0.418910	0.414700
O841	O84	0.701890	0.410860	0.608100
C1411	C141	0.635430	0.230260	0.554450
C1421	C142	0.847220	0.227470	0.445690
C1431	C143	0.791900	0.183670	0.473340
C1441	C144	0.689100	0.185010	0.525900
C1451	C145	0.792000	0.114330	0.470600
C1461	C146	0.686300	0.116000	0.526500
H611	H61	0.827300	0.091200	0.450500
C1471	C147	0.738300	0.080400	0.498400
H621	H62	0.649900	0.093900	0.545500
H631	H63	0.737400	0.033700	0.498200
Nd221	Nd22	0.252930	0.847560	0.992270
O851	O85	0.354020	0.792730	0.950900
O861	O86	0.157210	0.788890	0.040330
N221	N22	0.258340	0.718700	0.999610
O871	O87	0.204690	0.918910	0.085300
O881	O88	0.298110	0.910860	0.891900
C1481	C148	0.364570	0.730260	0.945550
C1491	C149	0.152780	0.727470	0.054310
C1501	C150	0.208100	0.683670	0.026660
C1511	C151	0.310900	0.685010	0.974100
C1521	C152	0.208000	0.614330	0.029400
C1531	C153	0.313700	0.616000	0.973500
H641	H64	0.172700	0.591200	0.049500
C1541	C154	0.261700	0.580400	0.001600
H651	H65	0.350100	0.593900	0.954500
H661	H66	0.262600	0.533700	0.001800
Nd231	Nd23	0.247070	0.152440	0.492270
O891	O89	0.145980	0.207270	0.450900
O901	O90	0.342790	0.211110	0.540330
N231	N23	0.241660	0.281300	0.499610
O911	O91	0.295310	0.081090	0.585300
O921	O92	0.201890	0.089140	0.391900
C1551	C155	0.135430	0.269740	0.445550
C1561	C156	0.347220	0.272530	0.554310
C1571	C157	0.291900	0.316330	0.526660
C1581	C158	0.189100	0.314990	0.474100
C1591	C159	0.292000	0.385670	0.529400
C1601	C160	0.186300	0.384000	0.473500
H671	H67	0.327300	0.408800	0.549500
C1611	C161	0.238300	0.419600	0.501600
H681	H68	0.149900	0.406100	0.454500
H691	H69	0.237400	0.466300	0.501800
Nd241	Nd24	0.752930	0.652440	0.007730
O931	O93	0.854020	0.707270	0.049100
O941	O94	0.657210	0.711110	0.959670
N241	N24	0.758340	0.781300	0.000390
O951	O95	0.704690	0.581090	0.914700
O961	O96	0.798110	0.589140	0.108100
C1621	C162	0.864570	0.769740	0.054450
C1631	C163	0.652780	0.772530	0.945690
C1641	C164	0.708100	0.816330	0.973340
C1651	C165	0.810900	0.814990	0.025900
C1661	C166	0.708000	0.885670	0.970600
C1671	C167	0.813700	0.884000	0.026500
H701	H70	0.672700	0.908800	0.950500
C1681	C168	0.761700	0.919600	0.998400
H711	H71	0.850100	0.906100	0.045500
H721	H72	0.762600	0.966300	0.998200
