data_SALRON_clean_PM
_symmetry_space_group_name_H-M	'P1'
_cell_length_a	8.197000
_cell_length_b	8.713600
_cell_length_c	12.135600
_cell_angle_alpha	74.692300
_cell_angle_beta	70.261600
_cell_angle_gamma	61.942400
_symmetry_Int_Tables_number 1

loop_
_symmetry_equiv_pos_as_xyz
'x,y,z'

loop_
_atom_site_label
_atom_site_type_symbol
_atom_site_fract_x
_atom_site_fract_y
_atom_site_fract_z
Mn11	Mn1	0.077560	0.750000	0.250000
Mn21	Mn2	0.922440	0.250000	0.750000
H11	H1	0.494000	0.831000	0.617000
H21	H2	0.370000	0.025000	0.605000
H31	H3	0.942000	0.669000	0.883000
H41	H4	0.000000	0.475000	0.895000
H51	H5	0.506000	0.169000	0.383000
H61	H6	0.630000	0.975000	0.395000
H71	H7	0.058000	0.331000	0.117000
H81	H8	0.000000	0.525000	0.105000
C11	C1	0.309560	0.918380	0.757900
C21	C2	0.363400	0.755400	0.833400
C31	C3	0.267890	0.751420	0.953400
C41	C4	0.513310	0.599980	0.791400
C51	C5	0.985840	0.581620	0.742100
C61	C6	0.952200	0.744600	0.666600
C71	C7	0.972710	0.748580	0.546600
C81	C8	0.904690	0.900020	0.708600
C91	C9	0.690440	0.081620	0.242100
C101	C10	0.636600	0.244600	0.166600
C111	C11	0.732110	0.248580	0.046600
C121	C12	0.486690	0.400020	0.208600
C131	C13	0.014160	0.418380	0.257900
C141	C14	0.047800	0.255400	0.333400
C151	C15	0.027290	0.251420	0.453400
C161	C16	0.095310	0.099980	0.291400
N11	N1	0.397100	0.924200	0.645000
N21	N2	0.191490	0.746820	0.051800
N31	N3	0.635710	0.473310	0.756070
N41	N4	0.966300	0.575800	0.855000
N51	N5	0.990110	0.753180	0.448200
N61	N6	0.865090	0.026690	0.743930
N71	N7	0.602900	0.075800	0.355000
N81	N8	0.808510	0.253180	0.948200
N91	N9	0.364290	0.526690	0.243930
N101	N10	0.033700	0.424200	0.145000
N111	N11	0.009890	0.246820	0.551800
N121	N12	0.134910	0.973310	0.256070
O11	O1	0.179690	0.057030	0.800190
O21	O2	0.036910	0.442970	0.699810
O31	O3	0.820310	0.942970	0.199810
O41	O4	0.963090	0.557030	0.300190
