data_SAMLAV_manual_PM
_symmetry_space_group_name_H-M	'P1'
_cell_length_a	7.446600
_cell_length_b	14.382100
_cell_length_c	20.914000
_cell_angle_alpha	90.000000
_cell_angle_beta	90.000000
_cell_angle_gamma	90.000000
_symmetry_Int_Tables_number 1

loop_
_symmetry_equiv_pos_as_xyz
'x,y,z'

loop_
_atom_site_label
_atom_site_type_symbol
_atom_site_fract_x
_atom_site_fract_y
_atom_site_fract_z
Cd11	Cd1	0.490010	0.110070	0.075580
Cd21	Cd2	0.486970	0.890340	0.924460
Cd31	Cd3	0.492690	0.609960	0.424820
Cd41	Cd4	0.498480	0.389370	0.575750
H11	H1	0.823250	0.237310	0.019310
H21	H2	0.822700	0.978780	0.115330
H31	H3	0.820350	0.761490	0.969000
H41	H4	0.820540	0.033160	0.891960
H51	H5	0.160040	0.737960	0.479690
H61	H6	0.157210	0.477360	0.386380
H71	H7	0.165180	0.260680	0.521250
H81	H8	0.165170	0.521480	0.614340
H91	H9	0.153940	0.761730	0.969020
H101	H10	0.152010	0.033990	0.893050
H111	H11	0.157100	0.237270	0.019790
H121	H12	0.154500	0.978190	0.115080
H131	H13	0.831220	0.261000	0.521240
H141	H14	0.833550	0.522460	0.613380
H151	H15	0.826100	0.738160	0.480090
H161	H16	0.825510	0.478230	0.385860
H171	H17	0.597490	0.200670	0.404410
H181	H18	0.393480	0.445790	0.312740
H191	H19	0.402200	0.368020	0.209310
H201	H20	0.380330	0.796460	0.596170
H211	H21	0.601150	0.555220	0.687610
H221	H22	0.590080	0.633420	0.791060
H231	H23	0.589590	0.700120	0.095270
H241	H24	0.392860	0.946000	0.187940
H251	H25	0.404700	0.868250	0.291330
H261	H26	0.605580	0.296530	0.904240
H271	H27	0.380820	0.055750	0.813460
H281	H28	0.392620	0.133550	0.709790
C11	C1	0.893840	0.178670	0.039710
C21	C2	0.893400	0.035640	0.092750
C31	C3	0.891080	0.822890	0.952940
C41	C4	0.890710	0.973240	0.910570
C51	C5	0.088850	0.679100	0.459850
C61	C6	0.087660	0.535120	0.408090
C71	C7	0.094490	0.319810	0.540920
C81	C8	0.094710	0.464100	0.592320
C91	C9	0.082920	0.823060	0.953010
C101	C10	0.082460	0.973560	0.910940
C111	C11	0.086000	0.178690	0.040050
C121	C12	0.084920	0.035530	0.092880
C131	C13	0.902310	0.320030	0.540880
C141	C14	0.903220	0.464500	0.591990
C151	C15	0.896670	0.679200	0.460110
C161	C16	0.896160	0.535390	0.408090
C171	C17	0.504210	0.237200	0.245150
C181	C18	0.560080	0.190800	0.302030
C191	C19	0.552970	0.237170	0.361970
C201	C20	0.496710	0.330380	0.367490
C211	C21	0.443350	0.375650	0.310910
C221	C22	0.447350	0.330270	0.251130
C231	C23	0.497620	0.189760	0.180370
C241	C24	0.495210	0.379170	0.431810
C251	C25	0.478750	0.762090	0.755270
C261	C26	0.418470	0.807240	0.698510
C271	C27	0.428200	0.760990	0.638570
C281	C28	0.490650	0.668880	0.633010
C291	C29	0.547400	0.624590	0.689530
C301	C30	0.541600	0.670070	0.749280
C311	C31	0.483440	0.809930	0.819920
C321	C32	0.494350	0.620130	0.568720
C331	C33	0.503420	0.737030	0.255040
C341	C34	0.556280	0.690420	0.197870
C351	C35	0.547340	0.736790	0.137930
C361	C36	0.492180	0.830220	0.132650
C371	C37	0.441810	0.875670	0.189520
C381	C38	0.447610	0.830310	0.249300
C391	C39	0.498620	0.689620	0.319910
C401	C40	0.488910	0.879140	0.068340
C411	C41	0.505940	0.261940	0.745280
C421	C42	0.567060	0.307100	0.801920
C431	C43	0.557020	0.261100	0.861930
C441	C44	0.493410	0.169230	0.867680
C451	C45	0.435700	0.124910	0.811310
C461	C46	0.441840	0.170170	0.751470
C471	C47	0.501690	0.309550	0.680540
C481	C48	0.489480	0.120780	0.932050
N11	N1	0.797320	0.107300	0.066420
N21	N2	0.794560	0.897770	0.931400
N31	N3	0.184680	0.607260	0.433420
N41	N4	0.190920	0.391680	0.567030
N51	N5	0.179120	0.898180	0.931700
N61	N6	0.181900	0.107330	0.067040
N71	N7	0.806350	0.392190	0.566820
N81	N8	0.800100	0.607500	0.433870
N91	N9	0.631410	0.098120	0.299940
N101	N10	0.338850	0.898080	0.700810
N111	N11	0.626350	0.597460	0.199590
N121	N12	0.647810	0.397670	0.799410
O11	O1	0.497320	0.102360	0.173370
O21	O2	0.490070	0.233050	0.127450
O31	O3	0.760320	0.077980	0.260280
O61	O6	0.367130	0.956750	0.654530
O91	O9	0.584550	0.538820	0.154610
O121	O12	0.620760	0.456530	0.845660
O131	O13	0.487440	0.897420	0.826540
O141	O14	0.485310	0.766960	0.873050
O151	O15	0.212230	0.915670	0.741960
O181	O18	0.592300	0.039320	0.345130
O191	O19	0.498300	0.397020	0.673700
O201	O20	0.499580	0.266340	0.627520
O211	O21	0.774190	0.414750	0.758070
O221	O22	0.498290	0.602220	0.326970
O231	O23	0.492560	0.732940	0.372850
O241	O24	0.756660	0.576850	0.238550
O251	O25	0.494060	0.468040	0.436200
O261	O26	0.498240	0.331880	0.484050
O271	O27	0.496280	0.531270	0.564320
O281	O28	0.492150	0.667460	0.516500
O291	O29	0.488960	0.968040	0.064070
O301	O30	0.488590	0.831980	0.015990
O311	O31	0.488110	0.031970	0.936740
O321	O32	0.491180	0.168250	0.984180
