data_SANGUM_clean_PM
_symmetry_space_group_name_H-M	'P1'
_cell_length_a	18.322300
_cell_length_b	11.400500
_cell_length_c	18.853600
_cell_angle_alpha	90.000000
_cell_angle_beta	108.681000
_cell_angle_gamma	90.000000
_symmetry_Int_Tables_number 1

loop_
_symmetry_equiv_pos_as_xyz
'x,y,z'

loop_
_atom_site_label
_atom_site_type_symbol
_atom_site_fract_x
_atom_site_fract_y
_atom_site_fract_z
Sm11	Sm1	0.500820	0.433200	0.896500
O11	O1	0.575300	0.332400	0.000100
O21	O2	0.405000	0.324600	0.922700
O31	O3	0.911100	0.074900	0.279400
O41	O4	0.914600	0.031500	0.165600
O51	O5	0.579000	0.409000	0.111400
O61	O6	0.422500	0.429600	0.024800
N11	N1	0.668000	0.300100	0.239000
N21	N2	0.301800	0.150100	0.889700
C11	C1	0.602900	0.339600	0.071000
C21	C2	0.669700	0.262000	0.109100
C31	C3	0.699600	0.250300	0.188500
C41	C4	0.767600	0.185500	0.219000
H11	H1	0.788000	0.176600	0.271800
C51	C5	0.706200	0.203500	0.065000
H21	H2	0.684400	0.206300	0.012000
C61	C6	0.387100	0.353800	0.980200
C71	C7	0.316300	0.297600	0.989400
C81	C8	0.277300	0.203000	0.944400
C91	C9	0.288400	0.341100	0.045200
H31	H3	0.315600	0.402600	0.076700
C101	C10	0.882500	0.076600	0.209400
C111	C11	0.805600	0.134400	0.174400
C121	C12	0.773800	0.141500	0.096900
H41	H4	0.798400	0.103600	0.065900
Sm21	Sm2	0.000820	0.933200	0.896500
O71	O7	0.075300	0.832400	0.000100
O81	O8	0.905000	0.824600	0.922700
O91	O9	0.411100	0.574900	0.279400
O101	O10	0.414600	0.531500	0.165600
O111	O11	0.079000	0.909000	0.111400
O121	O12	0.922500	0.929600	0.024800
N31	N3	0.168000	0.800100	0.239000
N41	N4	0.801800	0.650100	0.889700
C131	C13	0.102900	0.839600	0.071000
C141	C14	0.169700	0.762000	0.109100
C151	C15	0.199600	0.750300	0.188500
C161	C16	0.267600	0.685500	0.219000
H51	H5	0.288000	0.676600	0.271800
C171	C17	0.206200	0.703500	0.065000
H61	H6	0.184400	0.706300	0.012000
C181	C18	0.887100	0.853800	0.980200
C191	C19	0.816300	0.797600	0.989400
C201	C20	0.777300	0.703000	0.944400
C211	C21	0.788400	0.841100	0.045200
H71	H7	0.815600	0.902600	0.076700
C221	C22	0.382500	0.576600	0.209400
C231	C23	0.305600	0.634400	0.174400
C241	C24	0.273800	0.641500	0.096900
H81	H8	0.298400	0.603600	0.065900
Sm31	Sm3	0.499180	0.433200	0.603500
O131	O13	0.424700	0.332400	0.499900
O141	O14	0.595000	0.324600	0.577300
O151	O15	0.088900	0.074900	0.220600
O161	O16	0.085400	0.031500	0.334400
O171	O17	0.421000	0.409000	0.388600
O181	O18	0.577500	0.429600	0.475200
N51	N5	0.332000	0.300100	0.261000
N61	N6	0.698200	0.150100	0.610300
C251	C25	0.397100	0.339600	0.429000
C261	C26	0.330300	0.262000	0.390900
C271	C27	0.300400	0.250300	0.311500
C281	C28	0.232400	0.185500	0.281000
H91	H9	0.212000	0.176600	0.228200
C291	C29	0.293800	0.203500	0.435000
H101	H10	0.315600	0.206300	0.488000
C301	C30	0.612900	0.353800	0.519800
C311	C31	0.683700	0.297600	0.510600
C321	C32	0.722700	0.203000	0.555600
C331	C33	0.711600	0.341100	0.454800
H111	H11	0.684400	0.402600	0.423300
C341	C34	0.117500	0.076600	0.290600
C351	C35	0.194400	0.134400	0.325600
C361	C36	0.226200	0.141500	0.403100
H121	H12	0.201600	0.103600	0.434100
Sm41	Sm4	0.999180	0.933200	0.603500
O191	O19	0.924700	0.832400	0.499900
O201	O20	0.095000	0.824600	0.577300
O211	O21	0.588900	0.574900	0.220600
O221	O22	0.585400	0.531500	0.334400
O231	O23	0.921000	0.909000	0.388600
O241	O24	0.077500	0.929600	0.475200
N71	N7	0.832000	0.800100	0.261000
N81	N8	0.198200	0.650100	0.610300
C371	C37	0.897100	0.839600	0.429000
C381	C38	0.830300	0.762000	0.390900
C391	C39	0.800400	0.750300	0.311500
C401	C40	0.732400	0.685500	0.281000
H131	H13	0.712000	0.676600	0.228200
C411	C41	0.793800	0.703500	0.435000
H141	H14	0.815600	0.706300	0.488000
C421	C42	0.112900	0.853800	0.519800
C431	C43	0.183700	0.797600	0.510600
C441	C44	0.222700	0.703000	0.555600
C451	C45	0.211600	0.841100	0.454800
H151	H15	0.184400	0.902600	0.423300
C461	C46	0.617500	0.576600	0.290600
C471	C47	0.694400	0.634400	0.325600
C481	C48	0.726200	0.641500	0.403100
H161	H16	0.701600	0.603600	0.434100
Sm51	Sm5	0.499180	0.566800	0.103500
O251	O25	0.424700	0.667600	0.999900
O261	O26	0.595000	0.675400	0.077300
O271	O27	0.088900	0.925100	0.720600
O281	O28	0.085400	0.968500	0.834400
O291	O29	0.421000	0.591000	0.888600
O301	O30	0.577500	0.570400	0.975200
N91	N9	0.332000	0.699900	0.761000
N101	N10	0.698200	0.849900	0.110300
C491	C49	0.397100	0.660400	0.929000
C501	C50	0.330300	0.738000	0.890900
C511	C51	0.300400	0.749700	0.811500
C521	C52	0.232400	0.814500	0.781000
H171	H17	0.212000	0.823400	0.728200
C531	C53	0.293800	0.796500	0.935000
H181	H18	0.315600	0.793700	0.988000
C541	C54	0.612900	0.646200	0.019800
C551	C55	0.683700	0.702400	0.010600
C561	C56	0.722700	0.797000	0.055600
C571	C57	0.711600	0.658900	0.954800
H191	H19	0.684400	0.597400	0.923300
C581	C58	0.117500	0.923400	0.790600
C591	C59	0.194400	0.865600	0.825600
C601	C60	0.226200	0.858500	0.903100
H201	H20	0.201600	0.896400	0.934100
Sm61	Sm6	0.999180	0.066800	0.103500
O311	O31	0.924700	0.167600	0.999900
O321	O32	0.095000	0.175400	0.077300
O331	O33	0.588900	0.425100	0.720600
O341	O34	0.585400	0.468500	0.834400
O351	O35	0.921000	0.091000	0.888600
O361	O36	0.077500	0.070400	0.975200
N111	N11	0.832000	0.199900	0.761000
N121	N12	0.198200	0.349900	0.110300
C611	C61	0.897100	0.160400	0.929000
C621	C62	0.830300	0.238000	0.890900
C631	C63	0.800400	0.249700	0.811500
C641	C64	0.732400	0.314500	0.781000
H211	H21	0.712000	0.323400	0.728200
C651	C65	0.793800	0.296500	0.935000
H221	H22	0.815600	0.293700	0.988000
C661	C66	0.112900	0.146200	0.019800
C671	C67	0.183700	0.202400	0.010600
C681	C68	0.222700	0.297000	0.055600
C691	C69	0.211600	0.158900	0.954800
H231	H23	0.184400	0.097400	0.923300
C701	C70	0.617500	0.423400	0.790600
C711	C71	0.694400	0.365600	0.825600
C721	C72	0.726200	0.358500	0.903100
H241	H24	0.701600	0.396400	0.934100
Sm71	Sm7	0.500820	0.566800	0.396500
O371	O37	0.575300	0.667600	0.500100
O381	O38	0.405000	0.675400	0.422700
O391	O39	0.911100	0.925100	0.779400
O401	O40	0.914600	0.968500	0.665600
O411	O41	0.579000	0.591000	0.611400
O421	O42	0.422500	0.570400	0.524800
N131	N13	0.668000	0.699900	0.739000
N141	N14	0.301800	0.849900	0.389700
C731	C73	0.602900	0.660400	0.571000
C741	C74	0.669700	0.738000	0.609100
C751	C75	0.699600	0.749700	0.688500
C761	C76	0.767600	0.814500	0.719000
H251	H25	0.788000	0.823400	0.771800
C771	C77	0.706200	0.796500	0.565000
H261	H26	0.684400	0.793700	0.512000
C781	C78	0.387100	0.646200	0.480200
C791	C79	0.316300	0.702400	0.489400
C801	C80	0.277300	0.797000	0.444400
C811	C81	0.288400	0.658900	0.545200
H271	H27	0.315600	0.597400	0.576700
C821	C82	0.882500	0.923400	0.709400
C831	C83	0.805600	0.865600	0.674400
C841	C84	0.773800	0.858500	0.596900
H281	H28	0.798400	0.896400	0.565900
Sm81	Sm8	0.000820	0.066800	0.396500
O431	O43	0.075300	0.167600	0.500100
O441	O44	0.905000	0.175400	0.422700
O451	O45	0.411100	0.425100	0.779400
O461	O46	0.414600	0.468500	0.665600
O471	O47	0.079000	0.091000	0.611400
O481	O48	0.922500	0.070400	0.524800
N151	N15	0.168000	0.199900	0.739000
N161	N16	0.801800	0.349900	0.389700
C851	C85	0.102900	0.160400	0.571000
C861	C86	0.169700	0.238000	0.609100
C871	C87	0.199600	0.249700	0.688500
C881	C88	0.267600	0.314500	0.719000
H291	H29	0.288000	0.323400	0.771800
C891	C89	0.206200	0.296500	0.565000
H301	H30	0.184400	0.293700	0.512000
C901	C90	0.887100	0.146200	0.480200
C911	C91	0.816300	0.202400	0.489400
C921	C92	0.777300	0.297000	0.444400
C931	C93	0.788400	0.158900	0.545200
H311	H31	0.815600	0.097400	0.576700
C941	C94	0.382500	0.423400	0.709400
C951	C95	0.305600	0.365600	0.674400
C961	C96	0.273800	0.358500	0.596900
H321	H32	0.298400	0.396400	0.565900
