data_SANHUN_clean_PM
_symmetry_space_group_name_H-M	'P1'
_cell_length_a	18.233700
_cell_length_b	11.322800
_cell_length_c	18.706700
_cell_angle_alpha	90.000000
_cell_angle_beta	108.390000
_cell_angle_gamma	90.000000
_symmetry_Int_Tables_number 1

loop_
_symmetry_equiv_pos_as_xyz
'x,y,z'

loop_
_atom_site_label
_atom_site_type_symbol
_atom_site_fract_x
_atom_site_fract_y
_atom_site_fract_z
Ho11	Ho1	0.501290	0.934060	0.396930
O11	O1	0.588600	0.926700	0.221400
O21	O2	0.577600	0.069900	0.479800
O31	O3	0.586500	0.975300	0.336100
O41	O4	0.921900	0.593900	0.388400
O51	O5	0.926100	0.671200	0.499200
C11	C1	0.617300	0.926900	0.291000
C21	C2	0.794600	0.799600	0.435200
H11	H1	0.816400	0.797000	0.487400
C31	C3	0.898700	0.664100	0.429000
C41	C4	0.726200	0.860100	0.404100
H21	H2	0.701400	0.895200	0.435100
C51	C5	0.694600	0.868500	0.326100
C61	C6	0.831500	0.742700	0.390600
C71	C7	0.733100	0.818200	0.280400
H31	H3	0.713300	0.826500	0.228400
C81	C8	0.801800	0.754800	0.312300
N11	N1	0.834800	0.705300	0.261400
H41	H4	0.804700	0.714800	0.215800
O61	O6	0.594900	0.180900	0.580100
C91	C9	0.683400	0.203400	0.511600
C101	C10	0.723200	0.297100	0.556600
C111	C11	0.710500	0.158900	0.455300
H51	H5	0.683400	0.098000	0.424900
C121	C12	0.614200	0.149100	0.524300
N21	N2	0.700200	0.355600	0.610300
H61	H6	0.694400	0.306400	0.643700
H71	H7	0.735600	0.406100	0.632900
H81	H8	0.873000	0.635000	0.275000
Ho21	Ho2	0.001290	0.434060	0.396930
O71	O7	0.088600	0.426700	0.221400
O81	O8	0.077600	0.569900	0.479800
O91	O9	0.086500	0.475300	0.336100
O101	O10	0.421900	0.093900	0.388400
O111	O11	0.426100	0.171200	0.499200
C131	C13	0.117300	0.426900	0.291000
C141	C14	0.294600	0.299600	0.435200
H91	H9	0.316400	0.297000	0.487400
C151	C15	0.398700	0.164100	0.429000
C161	C16	0.226200	0.360100	0.404100
H101	H10	0.201400	0.395200	0.435100
C171	C17	0.194600	0.368500	0.326100
C181	C18	0.331500	0.242700	0.390600
C191	C19	0.233100	0.318200	0.280400
H111	H11	0.213300	0.326500	0.228400
C201	C20	0.301800	0.254800	0.312300
N31	N3	0.334800	0.205300	0.261400
H121	H12	0.304700	0.214800	0.215800
O121	O12	0.094900	0.680900	0.580100
C211	C21	0.183400	0.703400	0.511600
C221	C22	0.223200	0.797100	0.556600
C231	C23	0.210500	0.658900	0.455300
H131	H13	0.183400	0.598000	0.424900
C241	C24	0.114200	0.649100	0.524300
N41	N4	0.200200	0.855600	0.610300
H141	H14	0.194400	0.806400	0.643700
H151	H15	0.235600	0.906100	0.632900
H161	H16	0.373000	0.135000	0.275000
Ho31	Ho3	0.498710	0.934060	0.103070
O131	O13	0.411400	0.926700	0.278600
O141	O14	0.422400	0.069900	0.020200
O151	O15	0.413500	0.975300	0.163900
O161	O16	0.078100	0.593900	0.111600
O171	O17	0.073900	0.671200	0.000800
C251	C25	0.382700	0.926900	0.209000
C261	C26	0.205400	0.799600	0.064800
H171	H17	0.183600	0.797000	0.012600
C271	C27	0.101300	0.664100	0.071000
C281	C28	0.273800	0.860100	0.095900
H181	H18	0.298600	0.895200	0.064900
C291	C29	0.305400	0.868500	0.173900
C301	C30	0.168500	0.742700	0.109400
C311	C31	0.266900	0.818200	0.219600
H191	H19	0.286700	0.826500	0.271600
C321	C32	0.198200	0.754800	0.187700
N51	N5	0.165200	0.705300	0.238600
H201	H20	0.195300	0.714800	0.284200
O181	O18	0.405100	0.180900	0.919900
C331	C33	0.316600	0.203400	0.988400
C341	C34	0.276800	0.297100	0.943400
C351	C35	0.289500	0.158900	0.044700
H211	H21	0.316600	0.098000	0.075100
C361	C36	0.385800	0.149100	0.975700
N61	N6	0.299800	0.355600	0.889700
H221	H22	0.305600	0.306400	0.856300
H231	H23	0.264400	0.406100	0.867100
H241	H24	0.127000	0.635000	0.225000
Ho41	Ho4	0.998710	0.434060	0.103070
O191	O19	0.911400	0.426700	0.278600
O201	O20	0.922400	0.569900	0.020200
O211	O21	0.913500	0.475300	0.163900
O221	O22	0.578100	0.093900	0.111600
O231	O23	0.573900	0.171200	0.000800
C371	C37	0.882700	0.426900	0.209000
C381	C38	0.705400	0.299600	0.064800
H251	H25	0.683600	0.297000	0.012600
C391	C39	0.601300	0.164100	0.071000
C401	C40	0.773800	0.360100	0.095900
H261	H26	0.798600	0.395200	0.064900
C411	C41	0.805400	0.368500	0.173900
C421	C42	0.668500	0.242700	0.109400
C431	C43	0.766900	0.318200	0.219600
H271	H27	0.786700	0.326500	0.271600
C441	C44	0.698200	0.254800	0.187700
N71	N7	0.665200	0.205300	0.238600
H281	H28	0.695300	0.214800	0.284200
O241	O24	0.905100	0.680900	0.919900
C451	C45	0.816600	0.703400	0.988400
C461	C46	0.776800	0.797100	0.943400
C471	C47	0.789500	0.658900	0.044700
H291	H29	0.816600	0.598000	0.075100
C481	C48	0.885800	0.649100	0.975700
N81	N8	0.799800	0.855600	0.889700
H301	H30	0.805600	0.806400	0.856300
H311	H31	0.764400	0.906100	0.867100
H321	H32	0.627000	0.135000	0.225000
Ho51	Ho5	0.498710	0.065940	0.603070
O251	O25	0.411400	0.073300	0.778600
O261	O26	0.422400	0.930100	0.520200
O271	O27	0.413500	0.024700	0.663900
O281	O28	0.078100	0.406100	0.611600
O291	O29	0.073900	0.328800	0.500800
C491	C49	0.382700	0.073100	0.709000
C501	C50	0.205400	0.200400	0.564800
H331	H33	0.183600	0.203000	0.512600
C511	C51	0.101300	0.335900	0.571000
C521	C52	0.273800	0.139900	0.595900
H341	H34	0.298600	0.104800	0.564900
C531	C53	0.305400	0.131500	0.673900
C541	C54	0.168500	0.257300	0.609400
C551	C55	0.266900	0.181800	0.719600
H351	H35	0.286700	0.173500	0.771600
C561	C56	0.198200	0.245200	0.687700
N91	N9	0.165200	0.294700	0.738600
H361	H36	0.195300	0.285200	0.784200
O301	O30	0.405100	0.819100	0.419900
C571	C57	0.316600	0.796600	0.488400
C581	C58	0.276800	0.702900	0.443400
C591	C59	0.289500	0.841100	0.544700
H371	H37	0.316600	0.902000	0.575100
C601	C60	0.385800	0.850900	0.475700
N101	N10	0.299800	0.644400	0.389700
H381	H38	0.305600	0.693600	0.356300
H391	H39	0.264400	0.593900	0.367100
H401	H40	0.127000	0.365000	0.725000
Ho61	Ho6	0.998710	0.565940	0.603070
O311	O31	0.911400	0.573300	0.778600
O321	O32	0.922400	0.430100	0.520200
O331	O33	0.913500	0.524700	0.663900
O341	O34	0.578100	0.906100	0.611600
O351	O35	0.573900	0.828800	0.500800
C611	C61	0.882700	0.573100	0.709000
C621	C62	0.705400	0.700400	0.564800
H411	H41	0.683600	0.703000	0.512600
C631	C63	0.601300	0.835900	0.571000
C641	C64	0.773800	0.639900	0.595900
H421	H42	0.798600	0.604800	0.564900
C651	C65	0.805400	0.631500	0.673900
C661	C66	0.668500	0.757300	0.609400
C671	C67	0.766900	0.681800	0.719600
H431	H43	0.786700	0.673500	0.771600
C681	C68	0.698200	0.745200	0.687700
N111	N11	0.665200	0.794700	0.738600
H441	H44	0.695300	0.785200	0.784200
O361	O36	0.905100	0.319100	0.419900
C691	C69	0.816600	0.296600	0.488400
C701	C70	0.776800	0.202900	0.443400
C711	C71	0.789500	0.341100	0.544700
H451	H45	0.816600	0.402000	0.575100
C721	C72	0.885800	0.350900	0.475700
N121	N12	0.799800	0.144400	0.389700
H461	H46	0.805600	0.193600	0.356300
H471	H47	0.764400	0.093900	0.367100
H481	H48	0.627000	0.865000	0.725000
Ho71	Ho7	0.501290	0.065940	0.896930
O371	O37	0.588600	0.073300	0.721400
O381	O38	0.577600	0.930100	0.979800
O391	O39	0.586500	0.024700	0.836100
O401	O40	0.921900	0.406100	0.888400
O411	O41	0.926100	0.328800	0.999200
C731	C73	0.617300	0.073100	0.791000
C741	C74	0.794600	0.200400	0.935200
H491	H49	0.816400	0.203000	0.987400
C751	C75	0.898700	0.335900	0.929000
C761	C76	0.726200	0.139900	0.904100
H501	H50	0.701400	0.104800	0.935100
C771	C77	0.694600	0.131500	0.826100
C781	C78	0.831500	0.257300	0.890600
C791	C79	0.733100	0.181800	0.780400
H511	H51	0.713300	0.173500	0.728400
C801	C80	0.801800	0.245200	0.812300
N131	N13	0.834800	0.294700	0.761400
H521	H52	0.804700	0.285200	0.715800
O421	O42	0.594900	0.819100	0.080100
C811	C81	0.683400	0.796600	0.011600
C821	C82	0.723200	0.702900	0.056600
C831	C83	0.710500	0.841100	0.955300
H531	H53	0.683400	0.902000	0.924900
C841	C84	0.614200	0.850900	0.024300
N141	N14	0.700200	0.644400	0.110300
H541	H54	0.694400	0.693600	0.143700
H551	H55	0.735600	0.593900	0.132900
H561	H56	0.873000	0.365000	0.775000
Ho81	Ho8	0.001290	0.565940	0.896930
O431	O43	0.088600	0.573300	0.721400
O441	O44	0.077600	0.430100	0.979800
O451	O45	0.086500	0.524700	0.836100
O461	O46	0.421900	0.906100	0.888400
O471	O47	0.426100	0.828800	0.999200
C851	C85	0.117300	0.573100	0.791000
C861	C86	0.294600	0.700400	0.935200
H571	H57	0.316400	0.703000	0.987400
C871	C87	0.398700	0.835900	0.929000
C881	C88	0.226200	0.639900	0.904100
H581	H58	0.201400	0.604800	0.935100
C891	C89	0.194600	0.631500	0.826100
C901	C90	0.331500	0.757300	0.890600
C911	C91	0.233100	0.681800	0.780400
H591	H59	0.213300	0.673500	0.728400
C921	C92	0.301800	0.745200	0.812300
N151	N15	0.334800	0.794700	0.761400
H601	H60	0.304700	0.785200	0.715800
O481	O48	0.094900	0.319100	0.080100
C931	C93	0.183400	0.296600	0.011600
C941	C94	0.223200	0.202900	0.056600
C951	C95	0.210500	0.341100	0.955300
H611	H61	0.183400	0.402000	0.924900
C961	C96	0.114200	0.350900	0.024300
N161	N16	0.200200	0.144400	0.110300
H621	H62	0.194400	0.193600	0.143700
H631	H63	0.235600	0.093900	0.132900
H641	H64	0.373000	0.865000	0.775000
