data_SAPHUP_clean_PM
_symmetry_space_group_name_H-M	'P1'
_cell_length_a	26.439100
_cell_length_b	26.439100
_cell_length_c	26.439100
_cell_angle_alpha	90.000000
_cell_angle_beta	90.000000
_cell_angle_gamma	90.000000
_symmetry_Int_Tables_number 1

loop_
_symmetry_equiv_pos_as_xyz
'x,y,z'

loop_
_atom_site_label
_atom_site_type_symbol
_atom_site_fract_x
_atom_site_fract_y
_atom_site_fract_z
O11	O1	0.338900	0.972000	0.007500
O21	O2	0.421200	0.982600	0.011800
C11	C1	0.377100	0.000400	0.007000
C21	C2	0.370100	0.056700	0.003300
H11	H1	0.384400	0.073000	0.032900
H21	H2	0.387400	0.069500	0.973600
O31	O3	0.338900	0.472000	0.507500
O41	O4	0.421200	0.482600	0.511800
C31	C3	0.377100	0.500400	0.507000
C41	C4	0.370100	0.556700	0.503300
H31	H3	0.384400	0.573000	0.532900
H41	H4	0.387400	0.569500	0.473600
O51	O5	0.838900	0.972000	0.507500
O61	O6	0.921200	0.982600	0.511800
C51	C5	0.877100	0.000400	0.507000
C61	C6	0.870100	0.056700	0.503300
H51	H5	0.884400	0.073000	0.532900
H61	H6	0.887400	0.069500	0.473600
O71	O7	0.838900	0.472000	0.007500
O81	O8	0.921200	0.482600	0.011800
C71	C7	0.877100	0.500400	0.007000
C81	C8	0.870100	0.556700	0.003300
H71	H7	0.884400	0.573000	0.032900
H81	H8	0.887400	0.569500	0.973600
O91	O9	0.911100	0.778000	0.507500
O101	O10	0.828800	0.767400	0.511800
C91	C9	0.872900	0.749600	0.507000
C101	C10	0.879900	0.693300	0.503300
H91	H9	0.865600	0.677000	0.532900
H101	H10	0.862600	0.680500	0.473600
O111	O11	0.911100	0.278000	0.007500
O121	O12	0.828800	0.267400	0.011800
C111	C11	0.872900	0.249600	0.007000
C121	C12	0.879900	0.193300	0.003300
H111	H11	0.865600	0.177000	0.032900
H121	H12	0.862600	0.180500	0.973600
O131	O13	0.411100	0.778000	0.007500
O141	O14	0.328800	0.767400	0.011800
C131	C13	0.372900	0.749600	0.007000
C141	C14	0.379900	0.693300	0.003300
H131	H13	0.365600	0.677000	0.032900
H141	H14	0.362600	0.680500	0.973600
O151	O15	0.411100	0.278000	0.507500
O161	O16	0.328800	0.267400	0.511800
C151	C15	0.372900	0.249600	0.507000
C161	C16	0.379900	0.193300	0.503300
H151	H15	0.365600	0.177000	0.532900
H161	H16	0.362600	0.180500	0.473600
O171	O17	0.411100	0.472000	0.242500
O181	O18	0.328800	0.482600	0.238200
C171	C17	0.372900	0.500400	0.243000
C181	C18	0.379900	0.556700	0.246700
H171	H17	0.365600	0.573000	0.217100
H181	H18	0.362600	0.569500	0.276400
O191	O19	0.411100	0.972000	0.742500
O201	O20	0.328800	0.982600	0.738200
C191	C19	0.372900	0.000400	0.743000
C201	C20	0.379900	0.056700	0.746700
H191	H19	0.365600	0.073000	0.717100
H201	H20	0.362600	0.069500	0.776400
O211	O21	0.911100	0.472000	0.742500
O221	O22	0.828800	0.482600	0.738200
C211	C21	0.872900	0.500400	0.743000
C221	C22	0.879900	0.556700	0.746700
H211	H21	0.865600	0.573000	0.717100
H221	H22	0.862600	0.569500	0.776400
O231	O23	0.911100	0.972000	0.242500
O241	O24	0.828800	0.982600	0.238200
C231	C23	0.872900	0.000400	0.243000
C241	C24	0.879900	0.056700	0.246700
H231	H23	0.865600	0.073000	0.217100
H241	H24	0.862600	0.069500	0.276400
O251	O25	0.838900	0.278000	0.742500
O261	O26	0.921200	0.267400	0.738200
C251	C25	0.877100	0.249600	0.743000
C261	C26	0.870100	0.193300	0.746700
H251	H25	0.884400	0.177000	0.717100
H261	H26	0.887400	0.180500	0.776400
O271	O27	0.838900	0.778000	0.242500
O281	O28	0.921200	0.767400	0.238200
C271	C27	0.877100	0.749600	0.243000
C281	C28	0.870100	0.693300	0.246700
H271	H27	0.884400	0.677000	0.217100
H281	H28	0.887400	0.680500	0.276400
O291	O29	0.338900	0.278000	0.242500
O301	O30	0.421200	0.267400	0.238200
C291	C29	0.377100	0.249600	0.243000
C301	C30	0.370100	0.193300	0.246700
H291	H29	0.384400	0.177000	0.217100
H301	H30	0.387400	0.180500	0.276400
O311	O31	0.338900	0.778000	0.742500
O321	O32	0.421200	0.767400	0.738200
C311	C31	0.377100	0.749600	0.743000
C321	C32	0.370100	0.693300	0.746700
H311	H31	0.384400	0.677000	0.717100
H321	H32	0.387400	0.680500	0.776400
O331	O33	0.007500	0.338900	0.972000
O341	O34	0.011800	0.421200	0.982600
C331	C33	0.007000	0.377100	0.000400
C341	C34	0.003300	0.370100	0.056700
H331	H33	0.032900	0.384400	0.073000
H341	H34	0.973600	0.387400	0.069500
O351	O35	0.007500	0.838900	0.472000
O361	O36	0.011800	0.921200	0.482600
C351	C35	0.007000	0.877100	0.500400
C361	C36	0.003300	0.870100	0.556700
H351	H35	0.032900	0.884400	0.573000
H361	H36	0.973600	0.887400	0.569500
O371	O37	0.507500	0.338900	0.472000
O381	O38	0.511800	0.421200	0.482600
C371	C37	0.507000	0.377100	0.500400
C381	C38	0.503300	0.370100	0.556700
H371	H37	0.532900	0.384400	0.573000
H381	H38	0.473600	0.387400	0.569500
O391	O39	0.507500	0.838900	0.972000
O401	O40	0.511800	0.921200	0.982600
C391	C39	0.507000	0.877100	0.000400
C401	C40	0.503300	0.870100	0.056700
H391	H39	0.532900	0.884400	0.073000
H401	H40	0.473600	0.887400	0.069500
O411	O41	0.507500	0.911100	0.778000
O421	O42	0.511800	0.828800	0.767400
C411	C41	0.507000	0.872900	0.749600
C421	C42	0.503300	0.879900	0.693300
H411	H41	0.532900	0.865600	0.677000
H421	H42	0.473600	0.862600	0.680500
O431	O43	0.507500	0.411100	0.278000
O441	O44	0.511800	0.328800	0.267400
C431	C43	0.507000	0.372900	0.249600
C441	C44	0.503300	0.379900	0.193300
H431	H43	0.532900	0.365600	0.177000
H441	H44	0.473600	0.362600	0.180500
O451	O45	0.007500	0.911100	0.278000
O461	O46	0.011800	0.828800	0.267400
C451	C45	0.007000	0.872900	0.249600
C461	C46	0.003300	0.879900	0.193300
H451	H45	0.032900	0.865600	0.177000
H461	H46	0.973600	0.862600	0.180500
O471	O47	0.007500	0.411100	0.778000
O481	O48	0.011800	0.328800	0.767400
C471	C47	0.007000	0.372900	0.749600
C481	C48	0.003300	0.379900	0.693300
H471	H47	0.032900	0.365600	0.677000
H481	H48	0.973600	0.362600	0.680500
O491	O49	0.242500	0.411100	0.472000
O501	O50	0.238200	0.328800	0.482600
C491	C49	0.243000	0.372900	0.500400
C501	C50	0.246700	0.379900	0.556700
H491	H49	0.217100	0.365600	0.573000
H501	H50	0.276400	0.362600	0.569500
O511	O51	0.242500	0.911100	0.972000
O521	O52	0.238200	0.828800	0.982600
C511	C51	0.243000	0.872900	0.000400
C521	C52	0.246700	0.879900	0.056700
H511	H51	0.217100	0.865600	0.073000
H521	H52	0.276400	0.862600	0.069500
O531	O53	0.742500	0.411100	0.972000
O541	O54	0.738200	0.328800	0.982600
C531	C53	0.743000	0.372900	0.000400
C541	C54	0.746700	0.379900	0.056700
H531	H53	0.717100	0.365600	0.073000
H541	H54	0.776400	0.362600	0.069500
O551	O55	0.742500	0.911100	0.472000
O561	O56	0.738200	0.828800	0.482600
C551	C55	0.743000	0.872900	0.500400
C561	C56	0.746700	0.879900	0.556700
H551	H55	0.717100	0.865600	0.573000
H561	H56	0.776400	0.862600	0.569500
O571	O57	0.742500	0.838900	0.278000
O581	O58	0.738200	0.921200	0.267400
C571	C57	0.743000	0.877100	0.249600
C581	C58	0.746700	0.870100	0.193300
H571	H57	0.717100	0.884400	0.177000
H581	H58	0.776400	0.887400	0.180500
O591	O59	0.742500	0.338900	0.778000
O601	O60	0.738200	0.421200	0.767400
C591	C59	0.743000	0.377100	0.749600
C601	C60	0.746700	0.370100	0.693300
H591	H59	0.717100	0.384400	0.677000
H601	H60	0.776400	0.387400	0.680500
O611	O61	0.242500	0.838900	0.778000
O621	O62	0.238200	0.921200	0.767400
C611	C61	0.243000	0.877100	0.749600
C621	C62	0.246700	0.870100	0.693300
H611	H61	0.217100	0.884400	0.677000
H621	H62	0.276400	0.887400	0.680500
O631	O63	0.242500	0.338900	0.278000
O641	O64	0.238200	0.421200	0.267400
C631	C63	0.243000	0.377100	0.249600
C641	C64	0.246700	0.370100	0.193300
H631	H63	0.217100	0.384400	0.177000
H641	H64	0.276400	0.387400	0.180500
O651	O65	0.972000	0.007500	0.338900
O661	O66	0.982600	0.011800	0.421200
C651	C65	0.000400	0.007000	0.377100
C661	C66	0.056700	0.003300	0.370100
H651	H65	0.073000	0.032900	0.384400
H661	H66	0.069500	0.973600	0.387400
O671	O67	0.972000	0.507500	0.838900
O681	O68	0.982600	0.511800	0.921200
C671	C67	0.000400	0.507000	0.877100
C681	C68	0.056700	0.503300	0.870100
H671	H67	0.073000	0.532900	0.884400
H681	H68	0.069500	0.473600	0.887400
O691	O69	0.472000	0.007500	0.838900
O701	O70	0.482600	0.011800	0.921200
C691	C69	0.500400	0.007000	0.877100
C701	C70	0.556700	0.003300	0.870100
H691	H69	0.573000	0.032900	0.884400
H701	H70	0.569500	0.973600	0.887400
O711	O71	0.472000	0.507500	0.338900
O721	O72	0.482600	0.511800	0.421200
C711	C71	0.500400	0.507000	0.377100
C721	C72	0.556700	0.503300	0.370100
H711	H71	0.573000	0.532900	0.384400
H721	H72	0.569500	0.473600	0.387400
O731	O73	0.778000	0.507500	0.911100
O741	O74	0.767400	0.511800	0.828800
C731	C73	0.749600	0.507000	0.872900
C741	C74	0.693300	0.503300	0.879900
H731	H73	0.677000	0.532900	0.865600
H741	H74	0.680500	0.473600	0.862600
O751	O75	0.778000	0.007500	0.411100
O761	O76	0.767400	0.011800	0.328800
C751	C75	0.749600	0.007000	0.372900
C761	C76	0.693300	0.003300	0.379900
H751	H75	0.677000	0.032900	0.365600
H761	H76	0.680500	0.973600	0.362600
O771	O77	0.278000	0.507500	0.411100
O781	O78	0.267400	0.511800	0.328800
C771	C77	0.249600	0.507000	0.372900
C781	C78	0.193300	0.503300	0.379900
H771	H77	0.177000	0.532900	0.365600
H781	H78	0.180500	0.473600	0.362600
O791	O79	0.278000	0.007500	0.911100
O801	O80	0.267400	0.011800	0.828800
C791	C79	0.249600	0.007000	0.872900
C801	C80	0.193300	0.003300	0.879900
H791	H79	0.177000	0.032900	0.865600
H801	H80	0.180500	0.973600	0.862600
O811	O81	0.472000	0.242500	0.411100
O821	O82	0.482600	0.238200	0.328800
C811	C81	0.500400	0.243000	0.372900
C821	C82	0.556700	0.246700	0.379900
H811	H81	0.573000	0.217100	0.365600
H821	H82	0.569500	0.276400	0.362600
O831	O83	0.472000	0.742500	0.911100
O841	O84	0.482600	0.738200	0.828800
C831	C83	0.500400	0.743000	0.872900
C841	C84	0.556700	0.746700	0.879900
H831	H83	0.573000	0.717100	0.865600
H841	H84	0.569500	0.776400	0.862600
O851	O85	0.972000	0.242500	0.911100
O861	O86	0.982600	0.238200	0.828800
C851	C85	0.000400	0.243000	0.872900
C861	C86	0.056700	0.246700	0.879900
H851	H85	0.073000	0.217100	0.865600
H861	H86	0.069500	0.276400	0.862600
O871	O87	0.972000	0.742500	0.411100
O881	O88	0.982600	0.738200	0.328800
C871	C87	0.000400	0.743000	0.372900
C881	C88	0.056700	0.746700	0.379900
H871	H87	0.073000	0.717100	0.365600
H881	H88	0.069500	0.776400	0.362600
O891	O89	0.278000	0.742500	0.838900
O901	O90	0.267400	0.738200	0.921200
C891	C89	0.249600	0.743000	0.877100
C901	C90	0.193300	0.746700	0.870100
H891	H89	0.177000	0.717100	0.884400
H901	H90	0.180500	0.776400	0.887400
O911	O91	0.278000	0.242500	0.338900
O921	O92	0.267400	0.238200	0.421200
C911	C91	0.249600	0.243000	0.377100
C921	C92	0.193300	0.246700	0.370100
H911	H91	0.177000	0.217100	0.384400
H921	H92	0.180500	0.276400	0.387400
O931	O93	0.778000	0.742500	0.338900
O941	O94	0.767400	0.738200	0.421200
C931	C93	0.749600	0.743000	0.377100
C941	C94	0.693300	0.746700	0.370100
H931	H93	0.677000	0.717100	0.384400
H941	H94	0.680500	0.776400	0.387400
O951	O95	0.778000	0.242500	0.838900
O961	O96	0.767400	0.238200	0.921200
C951	C95	0.749600	0.243000	0.877100
C961	C96	0.693300	0.246700	0.870100
H951	H95	0.677000	0.217100	0.884400
H961	H96	0.680500	0.276400	0.887400
O971	O97	0.722000	0.588900	0.992500
O981	O98	0.732600	0.671200	0.988200
C971	C97	0.750400	0.627100	0.993000
C981	C98	0.806700	0.620100	0.996700
H971	H97	0.823000	0.634400	0.967100
H981	H98	0.819500	0.637400	0.026400
O991	O99	0.722000	0.088900	0.492500
O1001	O100	0.732600	0.171200	0.488200
C991	C99	0.750400	0.127100	0.493000
C1001	C100	0.806700	0.120100	0.496700
H991	H99	0.823000	0.134400	0.467100
H1001	H100	0.819500	0.137400	0.526400
O1011	O101	0.222000	0.588900	0.492500
O1021	O102	0.232600	0.671200	0.488200
C1011	C101	0.250400	0.627100	0.493000
C1021	C102	0.306700	0.620100	0.496700
H1011	H101	0.323000	0.634400	0.467100
H1021	H102	0.319500	0.637400	0.526400
O1031	O103	0.222000	0.088900	0.992500
O1041	O104	0.232600	0.171200	0.988200
C1031	C103	0.250400	0.127100	0.993000
C1041	C104	0.306700	0.120100	0.996700
H1031	H103	0.323000	0.134400	0.967100
H1041	H104	0.319500	0.137400	0.026400
O1051	O105	0.528000	0.161100	0.492500
O1061	O106	0.517400	0.078800	0.488200
C1051	C105	0.499600	0.122900	0.493000
C1061	C106	0.443300	0.129900	0.496700
H1051	H105	0.427000	0.115600	0.467100
H1061	H106	0.430500	0.112600	0.526400
O1071	O107	0.528000	0.661100	0.992500
O1081	O108	0.517400	0.578800	0.988200
C1071	C107	0.499600	0.622900	0.993000
C1081	C108	0.443300	0.629900	0.996700
H1071	H107	0.427000	0.615600	0.967100
H1081	H108	0.430500	0.612600	0.026400
O1091	O109	0.028000	0.161100	0.992500
O1101	O110	0.017400	0.078800	0.988200
C1091	C109	0.999600	0.122900	0.993000
C1101	C110	0.943300	0.129900	0.996700
H1091	H109	0.927000	0.115600	0.967100
H1101	H110	0.930500	0.112600	0.026400
O1111	O111	0.028000	0.661100	0.492500
O1121	O112	0.017400	0.578800	0.488200
C1111	C111	0.999600	0.622900	0.493000
C1121	C112	0.943300	0.629900	0.496700
H1111	H111	0.927000	0.615600	0.467100
H1121	H112	0.930500	0.612600	0.526400
O1131	O113	0.222000	0.661100	0.757500
O1141	O114	0.232600	0.578800	0.761800
C1131	C113	0.250400	0.622900	0.757000
C1141	C114	0.306700	0.629900	0.753300
H1131	H113	0.323000	0.615600	0.782900
H1141	H114	0.319500	0.612600	0.723600
O1151	O115	0.222000	0.161100	0.257500
O1161	O116	0.232600	0.078800	0.261800
C1151	C115	0.250400	0.122900	0.257000
C1161	C116	0.306700	0.129900	0.253300
H1151	H115	0.323000	0.115600	0.282900
H1161	H116	0.319500	0.112600	0.223600
O1171	O117	0.722000	0.661100	0.257500
O1181	O118	0.732600	0.578800	0.261800
C1171	C117	0.750400	0.622900	0.257000
C1181	C118	0.806700	0.629900	0.253300
H1171	H117	0.823000	0.615600	0.282900
H1181	H118	0.819500	0.612600	0.223600
O1191	O119	0.722000	0.161100	0.757500
O1201	O120	0.732600	0.078800	0.761800
C1191	C119	0.750400	0.122900	0.757000
C1201	C120	0.806700	0.129900	0.753300
H1191	H119	0.823000	0.115600	0.782900
H1201	H120	0.819500	0.112600	0.723600
O1211	O121	0.028000	0.088900	0.257500
O1221	O122	0.017400	0.171200	0.261800
C1211	C121	0.999600	0.127100	0.257000
C1221	C122	0.943300	0.120100	0.253300
H1211	H121	0.927000	0.134400	0.282900
H1221	H122	0.930500	0.137400	0.223600
O1231	O123	0.028000	0.588900	0.757500
O1241	O124	0.017400	0.671200	0.761800
C1231	C123	0.999600	0.627100	0.757000
C1241	C124	0.943300	0.620100	0.753300
H1231	H123	0.927000	0.634400	0.782900
H1241	H124	0.930500	0.637400	0.723600
O1251	O125	0.528000	0.088900	0.757500
O1261	O126	0.517400	0.171200	0.761800
C1251	C125	0.499600	0.127100	0.757000
C1261	C126	0.443300	0.120100	0.753300
H1251	H125	0.427000	0.134400	0.782900
H1261	H126	0.430500	0.137400	0.723600
O1271	O127	0.528000	0.588900	0.257500
O1281	O128	0.517400	0.671200	0.261800
C1271	C127	0.499600	0.627100	0.257000
C1281	C128	0.443300	0.620100	0.253300
H1271	H127	0.427000	0.634400	0.282900
H1281	H128	0.430500	0.637400	0.223600
O1291	O129	0.088900	0.257500	0.028000
O1301	O130	0.171200	0.261800	0.017400
C1291	C129	0.127100	0.257000	0.999600
C1301	C130	0.120100	0.253300	0.943300
H1291	H129	0.134400	0.282900	0.927000
H1301	H130	0.137400	0.223600	0.930500
O1311	O131	0.088900	0.757500	0.528000
O1321	O132	0.171200	0.761800	0.517400
C1311	C131	0.127100	0.757000	0.499600
C1321	C132	0.120100	0.753300	0.443300
H1311	H131	0.134400	0.782900	0.427000
H1321	H132	0.137400	0.723600	0.430500
O1331	O133	0.588900	0.257500	0.528000
O1341	O134	0.671200	0.261800	0.517400
C1331	C133	0.627100	0.257000	0.499600
C1341	C134	0.620100	0.253300	0.443300
H1331	H133	0.634400	0.282900	0.427000
H1341	H134	0.637400	0.223600	0.430500
O1351	O135	0.588900	0.757500	0.028000
O1361	O136	0.671200	0.761800	0.017400
C1351	C135	0.627100	0.757000	0.999600
C1361	C136	0.620100	0.753300	0.943300
H1351	H135	0.634400	0.782900	0.927000
H1361	H136	0.637400	0.723600	0.930500
O1371	O137	0.661100	0.757500	0.222000
O1381	O138	0.578800	0.761800	0.232600
C1371	C137	0.622900	0.757000	0.250400
C1381	C138	0.629900	0.753300	0.306700
H1371	H137	0.615600	0.782900	0.323000
H1381	H138	0.612600	0.723600	0.319500
O1391	O139	0.661100	0.257500	0.722000
O1401	O140	0.578800	0.261800	0.732600
C1391	C139	0.622900	0.257000	0.750400
C1401	C140	0.629900	0.253300	0.806700
H1391	H139	0.615600	0.282900	0.823000
H1401	H140	0.612600	0.223600	0.819500
O1411	O141	0.161100	0.757500	0.722000
O1421	O142	0.078800	0.761800	0.732600
C1411	C141	0.122900	0.757000	0.750400
C1421	C142	0.129900	0.753300	0.806700
H1411	H141	0.115600	0.782900	0.823000
H1421	H142	0.112600	0.723600	0.819500
O1431	O143	0.161100	0.257500	0.222000
O1441	O144	0.078800	0.261800	0.232600
C1431	C143	0.122900	0.257000	0.250400
C1441	C144	0.129900	0.253300	0.306700
H1431	H143	0.115600	0.282900	0.323000
H1441	H144	0.112600	0.223600	0.319500
O1451	O145	0.161100	0.492500	0.528000
O1461	O146	0.078800	0.488200	0.517400
C1451	C145	0.122900	0.493000	0.499600
C1461	C146	0.129900	0.496700	0.443300
H1451	H145	0.115600	0.467100	0.427000
H1461	H146	0.112600	0.526400	0.430500
O1471	O147	0.161100	0.992500	0.028000
O1481	O148	0.078800	0.988200	0.017400
C1471	C147	0.122900	0.993000	0.999600
C1481	C148	0.129900	0.996700	0.943300
H1471	H147	0.115600	0.967100	0.927000
H1481	H148	0.112600	0.026400	0.930500
O1491	O149	0.661100	0.492500	0.028000
O1501	O150	0.578800	0.488200	0.017400
C1491	C149	0.622900	0.493000	0.999600
C1501	C150	0.629900	0.496700	0.943300
H1491	H149	0.615600	0.467100	0.927000
H1501	H150	0.612600	0.526400	0.930500
O1511	O151	0.661100	0.992500	0.528000
O1521	O152	0.578800	0.988200	0.517400
C1511	C151	0.622900	0.993000	0.499600
C1521	C152	0.629900	0.996700	0.443300
H1511	H151	0.615600	0.967100	0.427000
H1521	H152	0.612600	0.026400	0.430500
O1531	O153	0.588900	0.992500	0.722000
O1541	O154	0.671200	0.988200	0.732600
C1531	C153	0.627100	0.993000	0.750400
C1541	C154	0.620100	0.996700	0.806700
H1531	H153	0.634400	0.967100	0.823000
H1541	H154	0.637400	0.026400	0.819500
O1551	O155	0.588900	0.492500	0.222000
O1561	O156	0.671200	0.488200	0.232600
C1551	C155	0.627100	0.493000	0.250400
C1561	C156	0.620100	0.496700	0.306700
H1551	H155	0.634400	0.467100	0.323000
H1561	H156	0.637400	0.526400	0.319500
O1571	O157	0.088900	0.992500	0.222000
O1581	O158	0.171200	0.988200	0.232600
C1571	C157	0.127100	0.993000	0.250400
C1581	C158	0.120100	0.996700	0.306700
H1571	H157	0.134400	0.967100	0.323000
H1581	H158	0.137400	0.026400	0.319500
O1591	O159	0.088900	0.492500	0.722000
O1601	O160	0.171200	0.488200	0.732600
C1591	C159	0.127100	0.493000	0.750400
C1601	C160	0.120100	0.496700	0.806700
H1591	H159	0.134400	0.467100	0.823000
H1601	H160	0.137400	0.526400	0.819500
O1611	O161	0.757500	0.222000	0.661100
O1621	O162	0.761800	0.232600	0.578800
C1611	C161	0.757000	0.250400	0.622900
C1621	C162	0.753300	0.306700	0.629900
H1611	H161	0.782900	0.323000	0.615600
H1621	H162	0.723600	0.319500	0.612600
O1631	O163	0.757500	0.722000	0.161100
O1641	O164	0.761800	0.732600	0.078800
C1631	C163	0.757000	0.750400	0.122900
C1641	C164	0.753300	0.806700	0.129900
H1631	H163	0.782900	0.823000	0.115600
H1641	H164	0.723600	0.819500	0.112600
O1651	O165	0.257500	0.222000	0.161100
O1661	O166	0.261800	0.232600	0.078800
C1651	C165	0.257000	0.250400	0.122900
C1661	C166	0.253300	0.306700	0.129900
H1651	H165	0.282900	0.323000	0.115600
H1661	H166	0.223600	0.319500	0.112600
O1671	O167	0.257500	0.722000	0.661100
O1681	O168	0.261800	0.732600	0.578800
C1671	C167	0.257000	0.750400	0.622900
C1681	C168	0.253300	0.806700	0.629900
H1671	H167	0.282900	0.823000	0.615600
H1681	H168	0.223600	0.819500	0.612600
O1691	O169	0.257500	0.028000	0.088900
O1701	O170	0.261800	0.017400	0.171200
C1691	C169	0.257000	0.999600	0.127100
C1701	C170	0.253300	0.943300	0.120100
H1691	H169	0.282900	0.927000	0.134400
H1701	H170	0.223600	0.930500	0.137400
O1711	O171	0.257500	0.528000	0.588900
O1721	O172	0.261800	0.517400	0.671200
C1711	C171	0.257000	0.499600	0.627100
C1721	C172	0.253300	0.443300	0.620100
H1711	H171	0.282900	0.427000	0.634400
H1721	H172	0.223600	0.430500	0.637400
O1731	O173	0.757500	0.028000	0.588900
O1741	O174	0.761800	0.017400	0.671200
C1731	C173	0.757000	0.999600	0.627100
C1741	C174	0.753300	0.943300	0.620100
H1731	H173	0.782900	0.927000	0.634400
H1741	H174	0.723600	0.930500	0.637400
O1751	O175	0.757500	0.528000	0.088900
O1761	O176	0.761800	0.517400	0.171200
C1751	C175	0.757000	0.499600	0.127100
C1761	C176	0.753300	0.443300	0.120100
H1751	H175	0.782900	0.427000	0.134400
H1761	H176	0.723600	0.430500	0.137400
O1771	O177	0.992500	0.722000	0.588900
O1781	O178	0.988200	0.732600	0.671200
C1771	C177	0.993000	0.750400	0.627100
C1781	C178	0.996700	0.806700	0.620100
H1771	H177	0.967100	0.823000	0.634400
H1781	H178	0.026400	0.819500	0.637400
O1791	O179	0.992500	0.222000	0.088900
O1801	O180	0.988200	0.232600	0.171200
C1791	C179	0.993000	0.250400	0.127100
C1801	C180	0.996700	0.306700	0.120100
H1791	H179	0.967100	0.323000	0.134400
H1801	H180	0.026400	0.319500	0.137400
O1811	O181	0.492500	0.722000	0.088900
O1821	O182	0.488200	0.732600	0.171200
C1811	C181	0.493000	0.750400	0.127100
C1821	C182	0.496700	0.806700	0.120100
H1811	H181	0.467100	0.823000	0.134400
H1821	H182	0.526400	0.819500	0.137400
O1831	O183	0.492500	0.222000	0.588900
O1841	O184	0.488200	0.232600	0.671200
C1831	C183	0.493000	0.250400	0.627100
C1841	C184	0.496700	0.306700	0.620100
H1831	H183	0.467100	0.323000	0.634400
H1841	H184	0.526400	0.319500	0.637400
O1851	O185	0.492500	0.528000	0.161100
O1861	O186	0.488200	0.517400	0.078800
C1851	C185	0.493000	0.499600	0.122900
C1861	C186	0.496700	0.443300	0.129900
H1851	H185	0.467100	0.427000	0.115600
H1861	H186	0.526400	0.430500	0.112600
O1871	O187	0.492500	0.028000	0.661100
O1881	O188	0.488200	0.017400	0.578800
C1871	C187	0.493000	0.999600	0.622900
C1881	C188	0.496700	0.943300	0.629900
H1871	H187	0.467100	0.927000	0.615600
H1881	H188	0.526400	0.930500	0.612600
O1891	O189	0.992500	0.528000	0.661100
O1901	O190	0.988200	0.517400	0.578800
C1891	C189	0.993000	0.499600	0.622900
C1901	C190	0.996700	0.443300	0.629900
H1891	H189	0.967100	0.427000	0.615600
H1901	H190	0.026400	0.430500	0.612600
O1911	O191	0.992500	0.028000	0.161100
O1921	O192	0.988200	0.017400	0.078800
C1911	C191	0.993000	0.999600	0.122900
C1921	C192	0.996700	0.943300	0.129900
H1911	H191	0.967100	0.927000	0.115600
H1921	H192	0.026400	0.930500	0.112600
O1931	O193	0.661100	0.028000	0.992500
O1941	O194	0.578800	0.017400	0.988200
C1931	C193	0.622900	0.999600	0.993000
C1941	C194	0.629900	0.943300	0.996700
H1931	H193	0.615600	0.927000	0.967100
H1941	H194	0.612600	0.930500	0.026400
O1951	O195	0.661100	0.528000	0.492500
O1961	O196	0.578800	0.517400	0.488200
C1951	C195	0.622900	0.499600	0.493000
C1961	C196	0.629900	0.443300	0.496700
H1951	H195	0.615600	0.427000	0.467100
H1961	H196	0.612600	0.430500	0.526400
O1971	O197	0.161100	0.028000	0.492500
O1981	O198	0.078800	0.017400	0.488200
C1971	C197	0.122900	0.999600	0.493000
C1981	C198	0.129900	0.943300	0.496700
H1971	H197	0.115600	0.927000	0.467100
H1981	H198	0.112600	0.930500	0.526400
O1991	O199	0.161100	0.528000	0.992500
O2001	O200	0.078800	0.517400	0.988200
C1991	C199	0.122900	0.499600	0.993000
C2001	C200	0.129900	0.443300	0.996700
H1991	H199	0.115600	0.427000	0.967100
H2001	H200	0.112600	0.430500	0.026400
O2011	O201	0.088900	0.222000	0.492500
O2021	O202	0.171200	0.232600	0.488200
C2011	C201	0.127100	0.250400	0.493000
C2021	C202	0.120100	0.306700	0.496700
H2011	H201	0.134400	0.323000	0.467100
H2021	H202	0.137400	0.319500	0.526400
O2031	O203	0.088900	0.722000	0.992500
O2041	O204	0.171200	0.732600	0.988200
C2031	C203	0.127100	0.750400	0.993000
C2041	C204	0.120100	0.806700	0.996700
H2031	H203	0.134400	0.823000	0.967100
H2041	H204	0.137400	0.819500	0.026400
O2051	O205	0.588900	0.222000	0.992500
O2061	O206	0.671200	0.232600	0.988200
C2051	C205	0.627100	0.250400	0.993000
C2061	C206	0.620100	0.306700	0.996700
H2051	H205	0.634400	0.323000	0.967100
H2061	H206	0.637400	0.319500	0.026400
O2071	O207	0.588900	0.722000	0.492500
O2081	O208	0.671200	0.732600	0.488200
C2071	C207	0.627100	0.750400	0.493000
C2081	C208	0.620100	0.806700	0.496700
H2071	H207	0.634400	0.823000	0.467100
H2081	H208	0.637400	0.819500	0.526400
O2091	O209	0.588900	0.528000	0.757500
O2101	O210	0.671200	0.517400	0.761800
C2091	C209	0.627100	0.499600	0.757000
C2101	C210	0.620100	0.443300	0.753300
H2091	H209	0.634400	0.427000	0.782900
H2101	H210	0.637400	0.430500	0.723600
O2111	O211	0.588900	0.028000	0.257500
O2121	O212	0.671200	0.017400	0.261800
C2111	C211	0.627100	0.999600	0.257000
C2121	C212	0.620100	0.943300	0.253300
H2111	H211	0.634400	0.927000	0.282900
H2121	H212	0.637400	0.930500	0.223600
O2131	O213	0.088900	0.528000	0.257500
O2141	O214	0.171200	0.517400	0.261800
C2131	C213	0.127100	0.499600	0.257000
C2141	C214	0.120100	0.443300	0.253300
H2131	H213	0.134400	0.427000	0.282900
H2141	H214	0.137400	0.430500	0.223600
O2151	O215	0.088900	0.028000	0.757500
O2161	O216	0.171200	0.017400	0.761800
C2151	C215	0.127100	0.999600	0.757000
C2161	C216	0.120100	0.943300	0.753300
H2151	H215	0.134400	0.927000	0.782900
H2161	H216	0.137400	0.930500	0.723600
O2171	O217	0.161100	0.722000	0.257500
O2181	O218	0.078800	0.732600	0.261800
C2171	C217	0.122900	0.750400	0.257000
C2181	C218	0.129900	0.806700	0.253300
H2171	H217	0.115600	0.823000	0.282900
H2181	H218	0.112600	0.819500	0.223600
O2191	O219	0.161100	0.222000	0.757500
O2201	O220	0.078800	0.232600	0.761800
C2191	C219	0.122900	0.250400	0.757000
C2201	C220	0.129900	0.306700	0.753300
H2191	H219	0.115600	0.323000	0.782900
H2201	H220	0.112600	0.319500	0.723600
O2211	O221	0.661100	0.722000	0.757500
O2221	O222	0.578800	0.732600	0.761800
C2211	C221	0.622900	0.750400	0.757000
C2221	C222	0.629900	0.806700	0.753300
H2211	H221	0.615600	0.823000	0.782900
H2221	H222	0.612600	0.819500	0.723600
O2231	O223	0.661100	0.222000	0.257500
O2241	O224	0.578800	0.232600	0.261800
C2231	C223	0.622900	0.250400	0.257000
C2241	C224	0.629900	0.306700	0.253300
H2231	H223	0.615600	0.323000	0.282900
H2241	H224	0.612600	0.319500	0.223600
O2251	O225	0.992500	0.661100	0.028000
O2261	O226	0.988200	0.578800	0.017400
C2251	C225	0.993000	0.622900	0.999600
C2261	C226	0.996700	0.629900	0.943300
H2251	H225	0.967100	0.615600	0.927000
H2261	H226	0.026400	0.612600	0.930500
O2271	O227	0.992500	0.161100	0.528000
O2281	O228	0.988200	0.078800	0.517400
C2271	C227	0.993000	0.122900	0.499600
C2281	C228	0.996700	0.129900	0.443300
H2271	H227	0.967100	0.115600	0.427000
H2281	H228	0.026400	0.112600	0.430500
O2291	O229	0.492500	0.661100	0.528000
O2301	O230	0.488200	0.578800	0.517400
C2291	C229	0.493000	0.622900	0.499600
C2301	C230	0.496700	0.629900	0.443300
H2291	H229	0.467100	0.615600	0.427000
H2301	H230	0.526400	0.612600	0.430500
O2311	O231	0.492500	0.161100	0.028000
O2321	O232	0.488200	0.078800	0.017400
C2311	C231	0.493000	0.122900	0.999600
C2321	C232	0.496700	0.129900	0.943300
H2311	H231	0.467100	0.115600	0.927000
H2321	H232	0.526400	0.112600	0.930500
O2331	O233	0.492500	0.088900	0.222000
O2341	O234	0.488200	0.171200	0.232600
C2331	C233	0.493000	0.127100	0.250400
C2341	C234	0.496700	0.120100	0.306700
H2331	H233	0.467100	0.134400	0.323000
H2341	H234	0.526400	0.137400	0.319500
O2351	O235	0.492500	0.588900	0.722000
O2361	O236	0.488200	0.671200	0.732600
C2351	C235	0.493000	0.627100	0.750400
C2361	C236	0.496700	0.620100	0.806700
H2351	H235	0.467100	0.634400	0.823000
H2361	H236	0.526400	0.637400	0.819500
O2371	O237	0.992500	0.088900	0.722000
O2381	O238	0.988200	0.171200	0.732600
C2371	C237	0.993000	0.127100	0.750400
C2381	C238	0.996700	0.120100	0.806700
H2371	H237	0.967100	0.134400	0.823000
H2381	H238	0.026400	0.137400	0.819500
O2391	O239	0.992500	0.588900	0.222000
O2401	O240	0.988200	0.671200	0.232600
C2391	C239	0.993000	0.627100	0.250400
C2401	C240	0.996700	0.620100	0.306700
H2391	H239	0.967100	0.634400	0.323000
H2401	H240	0.026400	0.637400	0.319500
O2411	O241	0.757500	0.588900	0.528000
O2421	O242	0.761800	0.671200	0.517400
C2411	C241	0.757000	0.627100	0.499600
C2421	C242	0.753300	0.620100	0.443300
H2411	H241	0.782900	0.634400	0.427000
H2421	H242	0.723600	0.637400	0.430500
O2431	O243	0.757500	0.088900	0.028000
O2441	O244	0.761800	0.171200	0.017400
C2431	C243	0.757000	0.127100	0.999600
C2441	C244	0.753300	0.120100	0.943300
H2431	H243	0.782900	0.134400	0.927000
H2441	H244	0.723600	0.137400	0.930500
O2451	O245	0.257500	0.588900	0.028000
O2461	O246	0.261800	0.671200	0.017400
C2451	C245	0.257000	0.627100	0.999600
C2461	C246	0.253300	0.620100	0.943300
H2451	H245	0.282900	0.634400	0.927000
H2461	H246	0.223600	0.637400	0.930500
O2471	O247	0.257500	0.088900	0.528000
O2481	O248	0.261800	0.171200	0.517400
C2471	C247	0.257000	0.127100	0.499600
C2481	C248	0.253300	0.120100	0.443300
H2471	H247	0.282900	0.134400	0.427000
H2481	H248	0.223600	0.137400	0.430500
O2491	O249	0.257500	0.161100	0.722000
O2501	O250	0.261800	0.078800	0.732600
C2491	C249	0.257000	0.122900	0.750400
C2501	C250	0.253300	0.129900	0.806700
H2491	H249	0.282900	0.115600	0.823000
H2501	H250	0.223600	0.112600	0.819500
O2511	O251	0.257500	0.661100	0.222000
O2521	O252	0.261800	0.578800	0.232600
C2511	C251	0.257000	0.622900	0.250400
C2521	C252	0.253300	0.629900	0.306700
H2511	H251	0.282900	0.615600	0.323000
H2521	H252	0.223600	0.612600	0.319500
O2531	O253	0.757500	0.161100	0.222000
O2541	O254	0.761800	0.078800	0.232600
C2531	C253	0.757000	0.122900	0.250400
C2541	C254	0.753300	0.129900	0.306700
H2531	H253	0.782900	0.115600	0.323000
H2541	H254	0.723600	0.112600	0.319500
O2551	O255	0.757500	0.661100	0.722000
O2561	O256	0.761800	0.578800	0.732600
C2551	C255	0.757000	0.622900	0.750400
C2561	C256	0.753300	0.629900	0.806700
H2551	H255	0.782900	0.615600	0.823000
H2561	H256	0.723600	0.612600	0.819500
O2571	O257	0.028000	0.992500	0.661100
O2581	O258	0.017400	0.988200	0.578800
C2571	C257	0.999600	0.993000	0.622900
C2581	C258	0.943300	0.996700	0.629900
H2571	H257	0.927000	0.967100	0.615600
H2581	H258	0.930500	0.026400	0.612600
O2591	O259	0.028000	0.492500	0.161100
O2601	O260	0.017400	0.488200	0.078800
C2591	C259	0.999600	0.493000	0.122900
C2601	C260	0.943300	0.496700	0.129900
H2591	H259	0.927000	0.467100	0.115600
H2601	H260	0.930500	0.526400	0.112600
O2611	O261	0.528000	0.992500	0.161100
O2621	O262	0.517400	0.988200	0.078800
C2611	C261	0.499600	0.993000	0.122900
C2621	C262	0.443300	0.996700	0.129900
H2611	H261	0.427000	0.967100	0.115600
H2621	H262	0.430500	0.026400	0.112600
O2631	O263	0.528000	0.492500	0.661100
O2641	O264	0.517400	0.488200	0.578800
C2631	C263	0.499600	0.493000	0.622900
C2641	C264	0.443300	0.496700	0.629900
H2631	H263	0.427000	0.467100	0.615600
H2641	H264	0.430500	0.526400	0.612600
O2651	O265	0.222000	0.492500	0.088900
O2661	O266	0.232600	0.488200	0.171200
C2651	C265	0.250400	0.493000	0.127100
C2661	C266	0.306700	0.496700	0.120100
H2651	H265	0.323000	0.467100	0.134400
H2661	H266	0.319500	0.526400	0.137400
O2671	O267	0.222000	0.992500	0.588900
O2681	O268	0.232600	0.988200	0.671200
C2671	C267	0.250400	0.993000	0.627100
C2681	C268	0.306700	0.996700	0.620100
H2671	H267	0.323000	0.967100	0.634400
H2681	H268	0.319500	0.026400	0.637400
O2691	O269	0.722000	0.492500	0.588900
O2701	O270	0.732600	0.488200	0.671200
C2691	C269	0.750400	0.493000	0.627100
C2701	C270	0.806700	0.496700	0.620100
H2691	H269	0.823000	0.467100	0.634400
H2701	H270	0.819500	0.526400	0.637400
O2711	O271	0.722000	0.992500	0.088900
O2721	O272	0.732600	0.988200	0.171200
C2711	C271	0.750400	0.993000	0.127100
C2721	C272	0.806700	0.996700	0.120100
H2711	H271	0.823000	0.967100	0.134400
H2721	H272	0.819500	0.026400	0.137400
O2731	O273	0.528000	0.757500	0.588900
O2741	O274	0.517400	0.761800	0.671200
C2731	C273	0.499600	0.757000	0.627100
C2741	C274	0.443300	0.753300	0.620100
H2731	H273	0.427000	0.782900	0.634400
H2741	H274	0.430500	0.723600	0.637400
O2751	O275	0.528000	0.257500	0.088900
O2761	O276	0.517400	0.261800	0.171200
C2751	C275	0.499600	0.257000	0.127100
C2761	C276	0.443300	0.253300	0.120100
H2751	H275	0.427000	0.282900	0.134400
H2761	H276	0.430500	0.223600	0.137400
O2771	O277	0.028000	0.757500	0.088900
O2781	O278	0.017400	0.761800	0.171200
C2771	C277	0.999600	0.757000	0.127100
C2781	C278	0.943300	0.753300	0.120100
H2771	H277	0.927000	0.782900	0.134400
H2781	H278	0.930500	0.723600	0.137400
O2791	O279	0.028000	0.257500	0.588900
O2801	O280	0.017400	0.261800	0.671200
C2791	C279	0.999600	0.257000	0.627100
C2801	C280	0.943300	0.253300	0.620100
H2791	H279	0.927000	0.282900	0.634400
H2801	H280	0.930500	0.223600	0.637400
O2811	O281	0.722000	0.257500	0.161100
O2821	O282	0.732600	0.261800	0.078800
C2811	C281	0.750400	0.257000	0.122900
C2821	C282	0.806700	0.253300	0.129900
H2811	H281	0.823000	0.282900	0.115600
H2821	H282	0.819500	0.223600	0.112600
O2831	O283	0.722000	0.757500	0.661100
O2841	O284	0.732600	0.761800	0.578800
C2831	C283	0.750400	0.757000	0.622900
C2841	C284	0.806700	0.753300	0.629900
H2831	H283	0.823000	0.782900	0.615600
H2841	H284	0.819500	0.723600	0.612600
O2851	O285	0.222000	0.257500	0.661100
O2861	O286	0.232600	0.261800	0.578800
C2851	C285	0.250400	0.257000	0.622900
C2861	C286	0.306700	0.253300	0.629900
H2851	H285	0.323000	0.282900	0.615600
H2861	H286	0.319500	0.223600	0.612600
O2871	O287	0.222000	0.757500	0.161100
O2881	O288	0.232600	0.761800	0.078800
C2871	C287	0.250400	0.757000	0.122900
C2881	C288	0.306700	0.753300	0.129900
H2871	H287	0.323000	0.782900	0.115600
H2881	H288	0.319500	0.723600	0.112600
O2891	O289	0.278000	0.411100	0.007500
O2901	O290	0.267400	0.328800	0.011800
C2891	C289	0.249600	0.372900	0.007000
C2901	C290	0.193300	0.379900	0.003300
H2891	H289	0.177000	0.365600	0.032900
H2901	H290	0.180500	0.362600	0.973600
O2911	O291	0.278000	0.911100	0.507500
O2921	O292	0.267400	0.828800	0.511800
C2911	C291	0.249600	0.872900	0.507000
C2921	C292	0.193300	0.879900	0.503300
H2911	H291	0.177000	0.865600	0.532900
H2921	H292	0.180500	0.862600	0.473600
O2931	O293	0.778000	0.411100	0.507500
O2941	O294	0.767400	0.328800	0.511800
C2931	C293	0.749600	0.372900	0.507000
C2941	C294	0.693300	0.379900	0.503300
H2931	H293	0.677000	0.365600	0.532900
H2941	H294	0.680500	0.362600	0.473600
O2951	O295	0.778000	0.911100	0.007500
O2961	O296	0.767400	0.828800	0.011800
C2951	C295	0.749600	0.872900	0.007000
C2961	C296	0.693300	0.879900	0.003300
H2951	H295	0.677000	0.865600	0.032900
H2961	H296	0.680500	0.862600	0.973600
O2971	O297	0.472000	0.838900	0.507500
O2981	O298	0.482600	0.921200	0.511800
C2971	C297	0.500400	0.877100	0.507000
C2981	C298	0.556700	0.870100	0.503300
H2971	H297	0.573000	0.884400	0.532900
H2981	H298	0.569500	0.887400	0.473600
O2991	O299	0.472000	0.338900	0.007500
O3001	O300	0.482600	0.421200	0.011800
C2991	C299	0.500400	0.377100	0.007000
C3001	C300	0.556700	0.370100	0.003300
H2991	H299	0.573000	0.384400	0.032900
H3001	H300	0.569500	0.387400	0.973600
O3011	O301	0.972000	0.838900	0.007500
O3021	O302	0.982600	0.921200	0.011800
C3011	C301	0.000400	0.877100	0.007000
C3021	C302	0.056700	0.870100	0.003300
H3011	H301	0.073000	0.884400	0.032900
H3021	H302	0.069500	0.887400	0.973600
O3031	O303	0.972000	0.338900	0.507500
O3041	O304	0.982600	0.421200	0.511800
C3031	C303	0.000400	0.377100	0.507000
C3041	C304	0.056700	0.370100	0.503300
H3031	H303	0.073000	0.384400	0.532900
H3041	H304	0.069500	0.387400	0.473600
O3051	O305	0.778000	0.338900	0.242500
O3061	O306	0.767400	0.421200	0.238200
C3051	C305	0.749600	0.377100	0.243000
C3061	C306	0.693300	0.370100	0.246700
H3051	H305	0.677000	0.384400	0.217100
H3061	H306	0.680500	0.387400	0.276400
O3071	O307	0.778000	0.838900	0.742500
O3081	O308	0.767400	0.921200	0.738200
C3071	C307	0.749600	0.877100	0.743000
C3081	C308	0.693300	0.870100	0.746700
H3071	H307	0.677000	0.884400	0.717100
H3081	H308	0.680500	0.887400	0.776400
O3091	O309	0.278000	0.338900	0.742500
O3101	O310	0.267400	0.421200	0.738200
C3091	C309	0.249600	0.377100	0.743000
C3101	C310	0.193300	0.370100	0.746700
H3091	H309	0.177000	0.384400	0.717100
H3101	H310	0.180500	0.387400	0.776400
O3111	O311	0.278000	0.838900	0.242500
O3121	O312	0.267400	0.921200	0.238200
C3111	C311	0.249600	0.877100	0.243000
C3121	C312	0.193300	0.870100	0.246700
H3111	H311	0.177000	0.884400	0.217100
H3121	H312	0.180500	0.887400	0.276400
O3131	O313	0.972000	0.911100	0.742500
O3141	O314	0.982600	0.828800	0.738200
C3131	C313	0.000400	0.872900	0.743000
C3141	C314	0.056700	0.879900	0.746700
H3131	H313	0.073000	0.865600	0.717100
H3141	H314	0.069500	0.862600	0.776400
O3151	O315	0.972000	0.411100	0.242500
O3161	O316	0.982600	0.328800	0.238200
C3151	C315	0.000400	0.372900	0.243000
C3161	C316	0.056700	0.379900	0.246700
H3151	H315	0.073000	0.365600	0.217100
H3161	H316	0.069500	0.362600	0.276400
O3171	O317	0.472000	0.911100	0.242500
O3181	O318	0.482600	0.828800	0.238200
C3171	C317	0.500400	0.872900	0.243000
C3181	C318	0.556700	0.879900	0.246700
H3171	H317	0.573000	0.865600	0.217100
H3181	H318	0.569500	0.862600	0.276400
O3191	O319	0.472000	0.411100	0.742500
O3201	O320	0.482600	0.328800	0.738200
C3191	C319	0.500400	0.372900	0.743000
C3201	C320	0.556700	0.379900	0.746700
H3191	H319	0.573000	0.365600	0.717100
H3201	H320	0.569500	0.362600	0.776400
O3211	O321	0.911100	0.742500	0.972000
O3221	O322	0.828800	0.738200	0.982600
C3211	C321	0.872900	0.743000	0.000400
C3221	C322	0.879900	0.746700	0.056700
H3211	H321	0.865600	0.717100	0.073000
H3221	H322	0.862600	0.776400	0.069500
O3231	O323	0.911100	0.242500	0.472000
O3241	O324	0.828800	0.238200	0.482600
C3231	C323	0.872900	0.243000	0.500400
C3241	C324	0.879900	0.246700	0.556700
H3231	H323	0.865600	0.217100	0.573000
H3241	H324	0.862600	0.276400	0.569500
O3251	O325	0.411100	0.742500	0.472000
O3261	O326	0.328800	0.738200	0.482600
C3251	C325	0.372900	0.743000	0.500400
C3261	C326	0.379900	0.746700	0.556700
H3251	H325	0.365600	0.717100	0.573000
H3261	H326	0.362600	0.776400	0.569500
O3271	O327	0.411100	0.242500	0.972000
O3281	O328	0.328800	0.238200	0.982600
C3271	C327	0.372900	0.243000	0.000400
C3281	C328	0.379900	0.246700	0.056700
H3271	H327	0.365600	0.217100	0.073000
H3281	H328	0.362600	0.276400	0.069500
O3291	O329	0.338900	0.242500	0.778000
O3301	O330	0.421200	0.238200	0.767400
C3291	C329	0.377100	0.243000	0.749600
C3301	C330	0.370100	0.246700	0.693300
H3291	H329	0.384400	0.217100	0.677000
H3301	H330	0.387400	0.276400	0.680500
O3311	O331	0.338900	0.742500	0.278000
O3321	O332	0.421200	0.738200	0.267400
C3311	C331	0.377100	0.743000	0.249600
C3321	C332	0.370100	0.746700	0.193300
H3311	H331	0.384400	0.717100	0.177000
H3321	H332	0.387400	0.776400	0.180500
O3331	O333	0.838900	0.242500	0.278000
O3341	O334	0.921200	0.238200	0.267400
C3331	C333	0.877100	0.243000	0.249600
C3341	C334	0.870100	0.246700	0.193300
H3331	H333	0.884400	0.217100	0.177000
H3341	H334	0.887400	0.276400	0.180500
O3351	O335	0.838900	0.742500	0.778000
O3361	O336	0.921200	0.738200	0.767400
C3351	C335	0.877100	0.743000	0.749600
C3361	C336	0.870100	0.746700	0.693300
H3351	H335	0.884400	0.717100	0.677000
H3361	H336	0.887400	0.776400	0.680500
O3371	O337	0.838900	0.507500	0.472000
O3381	O338	0.921200	0.511800	0.482600
C3371	C337	0.877100	0.507000	0.500400
C3381	C338	0.870100	0.503300	0.556700
H3371	H337	0.884400	0.532900	0.573000
H3381	H338	0.887400	0.473600	0.569500
O3391	O339	0.838900	0.007500	0.972000
O3401	O340	0.921200	0.011800	0.982600
C3391	C339	0.877100	0.007000	0.000400
C3401	C340	0.870100	0.003300	0.056700
H3391	H339	0.884400	0.032900	0.073000
H3401	H340	0.887400	0.973600	0.069500
O3411	O341	0.338900	0.507500	0.972000
O3421	O342	0.421200	0.511800	0.982600
C3411	C341	0.377100	0.507000	0.000400
C3421	C342	0.370100	0.503300	0.056700
H3411	H341	0.384400	0.532900	0.073000
H3421	H342	0.387400	0.473600	0.069500
O3431	O343	0.338900	0.007500	0.472000
O3441	O344	0.421200	0.011800	0.482600
C3431	C343	0.377100	0.007000	0.500400
C3441	C344	0.370100	0.003300	0.556700
H3431	H343	0.384400	0.032900	0.573000
H3441	H344	0.387400	0.973600	0.569500
O3451	O345	0.411100	0.007500	0.278000
O3461	O346	0.328800	0.011800	0.267400
C3451	C345	0.372900	0.007000	0.249600
C3461	C346	0.379900	0.003300	0.193300
H3451	H345	0.365600	0.032900	0.177000
H3461	H346	0.362600	0.973600	0.180500
O3471	O347	0.411100	0.507500	0.778000
O3481	O348	0.328800	0.511800	0.767400
C3471	C347	0.372900	0.507000	0.749600
C3481	C348	0.379900	0.503300	0.693300
H3471	H347	0.365600	0.532900	0.677000
H3481	H348	0.362600	0.473600	0.680500
O3491	O349	0.911100	0.007500	0.778000
O3501	O350	0.828800	0.011800	0.767400
C3491	C349	0.872900	0.007000	0.749600
C3501	C350	0.879900	0.003300	0.693300
H3491	H349	0.865600	0.032900	0.677000
H3501	H350	0.862600	0.973600	0.680500
O3511	O351	0.911100	0.507500	0.278000
O3521	O352	0.828800	0.511800	0.267400
C3511	C351	0.872900	0.507000	0.249600
C3521	C352	0.879900	0.503300	0.193300
H3511	H351	0.865600	0.532900	0.177000
H3521	H352	0.862600	0.473600	0.180500
O3531	O353	0.242500	0.778000	0.338900
O3541	O354	0.238200	0.767400	0.421200
C3531	C353	0.243000	0.749600	0.377100
C3541	C354	0.246700	0.693300	0.370100
H3531	H353	0.217100	0.677000	0.384400
H3541	H354	0.276400	0.680500	0.387400
O3551	O355	0.242500	0.278000	0.838900
O3561	O356	0.238200	0.267400	0.921200
C3551	C355	0.243000	0.249600	0.877100
C3561	C356	0.246700	0.193300	0.870100
H3551	H355	0.217100	0.177000	0.884400
H3561	H356	0.276400	0.180500	0.887400
O3571	O357	0.742500	0.778000	0.838900
O3581	O358	0.738200	0.767400	0.921200
C3571	C357	0.743000	0.749600	0.877100
C3581	C358	0.746700	0.693300	0.870100
H3571	H357	0.717100	0.677000	0.884400
H3581	H358	0.776400	0.680500	0.887400
O3591	O359	0.742500	0.278000	0.338900
O3601	O360	0.738200	0.267400	0.421200
C3591	C359	0.743000	0.249600	0.377100
C3601	C360	0.746700	0.193300	0.370100
H3591	H359	0.717100	0.177000	0.384400
H3601	H360	0.776400	0.180500	0.387400
O3611	O361	0.742500	0.972000	0.911100
O3621	O362	0.738200	0.982600	0.828800
C3611	C361	0.743000	0.000400	0.872900
C3621	C362	0.746700	0.056700	0.879900
H3611	H361	0.717100	0.073000	0.865600
H3621	H362	0.776400	0.069500	0.862600
O3631	O363	0.742500	0.472000	0.411100
O3641	O364	0.738200	0.482600	0.328800
C3631	C363	0.743000	0.500400	0.372900
C3641	C364	0.746700	0.556700	0.379900
H3631	H363	0.717100	0.573000	0.365600
H3641	H364	0.776400	0.569500	0.362600
O3651	O365	0.242500	0.972000	0.411100
O3661	O366	0.238200	0.982600	0.328800
C3651	C365	0.243000	0.000400	0.372900
C3661	C366	0.246700	0.056700	0.379900
H3651	H365	0.217100	0.073000	0.365600
H3661	H366	0.276400	0.069500	0.362600
O3671	O367	0.242500	0.472000	0.911100
O3681	O368	0.238200	0.482600	0.828800
C3671	C367	0.243000	0.500400	0.872900
C3681	C368	0.246700	0.556700	0.879900
H3671	H367	0.217100	0.573000	0.865600
H3681	H368	0.276400	0.569500	0.862600
O3691	O369	0.007500	0.278000	0.411100
O3701	O370	0.011800	0.267400	0.328800
C3691	C369	0.007000	0.249600	0.372900
C3701	C370	0.003300	0.193300	0.379900
H3691	H369	0.032900	0.177000	0.365600
H3701	H370	0.973600	0.180500	0.362600
O3711	O371	0.007500	0.778000	0.911100
O3721	O372	0.011800	0.767400	0.828800
C3711	C371	0.007000	0.749600	0.872900
C3721	C372	0.003300	0.693300	0.879900
H3711	H371	0.032900	0.677000	0.865600
H3721	H372	0.973600	0.680500	0.862600
O3731	O373	0.507500	0.278000	0.911100
O3741	O374	0.511800	0.267400	0.828800
C3731	C373	0.507000	0.249600	0.872900
C3741	C374	0.503300	0.193300	0.879900
H3731	H373	0.532900	0.177000	0.865600
H3741	H374	0.473600	0.180500	0.862600
O3751	O375	0.507500	0.778000	0.411100
O3761	O376	0.511800	0.767400	0.328800
C3751	C375	0.507000	0.749600	0.372900
C3761	C376	0.503300	0.693300	0.379900
H3751	H375	0.532900	0.677000	0.365600
H3761	H376	0.473600	0.680500	0.362600
O3771	O377	0.507500	0.472000	0.838900
O3781	O378	0.511800	0.482600	0.921200
C3771	C377	0.507000	0.500400	0.877100
C3781	C378	0.503300	0.556700	0.870100
H3771	H377	0.532900	0.573000	0.884400
H3781	H378	0.473600	0.569500	0.887400
O3791	O379	0.507500	0.972000	0.338900
O3801	O380	0.511800	0.982600	0.421200
C3791	C379	0.507000	0.000400	0.377100
C3801	C380	0.503300	0.056700	0.370100
H3791	H379	0.532900	0.073000	0.384400
H3801	H380	0.473600	0.069500	0.387400
O3811	O381	0.007500	0.472000	0.338900
O3821	O382	0.011800	0.482600	0.421200
C3811	C381	0.007000	0.500400	0.377100
C3821	C382	0.003300	0.556700	0.370100
H3811	H381	0.032900	0.573000	0.384400
H3821	H382	0.973600	0.569500	0.387400
O3831	O383	0.007500	0.972000	0.838900
O3841	O384	0.011800	0.982600	0.921200
C3831	C383	0.007000	0.000400	0.877100
C3841	C384	0.003300	0.056700	0.870100
H3831	H383	0.032900	0.073000	0.884400
H3841	H384	0.973600	0.069500	0.887400
Ce11	Ce1	0.250000	0.000000	0.000000
Ce21	Ce2	0.250000	0.500000	0.500000
Ce31	Ce3	0.750000	0.500000	0.000000
Ce41	Ce4	0.000000	0.750000	0.500000
Ce51	Ce5	0.500000	0.750000	0.000000
Ce61	Ce6	0.500000	0.500000	0.250000
Ce71	Ce7	0.750000	0.250000	0.750000
Ce81	Ce8	0.000000	0.250000	0.000000
Ce91	Ce9	0.500000	0.250000	0.500000
Ce101	Ce10	0.500000	0.000000	0.750000
Ce111	Ce11	0.750000	0.000000	0.500000
Ce121	Ce12	0.750000	0.750000	0.250000
Ce131	Ce13	0.000000	0.000000	0.250000
Ce141	Ce14	0.000000	0.500000	0.750000
Ce151	Ce15	0.250000	0.750000	0.750000
Ce161	Ce16	0.250000	0.250000	0.250000
Ce171	Ce17	0.750000	0.000000	0.000000
Ce181	Ce18	0.000000	0.250000	0.500000
Ce191	Ce19	0.500000	0.500000	0.750000
Ce201	Ce20	0.250000	0.750000	0.250000
Ce211	Ce21	0.750000	0.750000	0.750000
Ce221	Ce22	0.000000	0.750000	0.000000
Ce231	Ce23	0.500000	0.000000	0.250000
Ce241	Ce24	0.750000	0.500000	0.500000
Ce251	Ce25	0.250000	0.250000	0.750000
Ce261	Ce26	0.000000	0.000000	0.750000
Ce271	Ce27	0.000000	0.500000	0.250000
Ce281	Ce28	0.250000	0.500000	0.000000
Ce291	Ce29	0.250000	0.000000	0.500000
Ce301	Ce30	0.500000	0.750000	0.500000
Ce311	Ce31	0.500000	0.250000	0.000000
Ce321	Ce32	0.750000	0.250000	0.250000
Mn11	Mn1	0.500000	0.000000	0.000000
Mn21	Mn2	0.500000	0.500000	0.500000
Mn31	Mn3	0.750000	0.750000	0.500000
Mn41	Mn4	0.250000	0.750000	0.000000
Mn51	Mn5	0.250000	0.500000	0.250000
Mn61	Mn6	0.750000	0.000000	0.250000
Mn71	Mn7	0.000000	0.250000	0.750000
Mn81	Mn8	0.000000	0.500000	0.000000
Mn91	Mn9	0.500000	0.750000	0.750000
Mn101	Mn10	0.250000	0.250000	0.500000
Mn111	Mn11	0.000000	0.000000	0.500000
Mn121	Mn12	0.750000	0.500000	0.750000
Mn131	Mn13	0.500000	0.250000	0.250000
Mn141	Mn14	0.750000	0.750000	0.000000
Mn151	Mn15	0.500000	0.000000	0.500000
Mn161	Mn16	0.250000	0.500000	0.750000
Mn171	Mn17	0.250000	0.000000	0.250000
Mn181	Mn18	0.750000	0.000000	0.750000
Mn191	Mn19	0.000000	0.250000	0.250000
Mn201	Mn20	0.250000	0.250000	0.000000
Mn211	Mn21	0.500000	0.750000	0.250000
Mn221	Mn22	0.000000	0.750000	0.750000
Mn231	Mn23	0.000000	0.500000	0.500000
Mn241	Mn24	0.000000	0.000000	0.000000
Mn251	Mn25	0.750000	0.250000	0.500000
Mn261	Mn26	0.500000	0.500000	0.000000
Mn271	Mn27	0.000000	0.750000	0.250000
Mn281	Mn28	0.250000	0.000000	0.750000
Mn291	Mn29	0.750000	0.250000	0.000000
Mn301	Mn30	0.250000	0.750000	0.500000
Mn311	Mn31	0.750000	0.500000	0.250000
Mn321	Mn32	0.500000	0.250000	0.750000
O3851	O385	0.317800	0.067800	0.000000
O3861	O386	0.317800	0.567800	0.500000
O3871	O387	0.817800	0.567800	0.000000
O3881	O388	0.932200	0.682200	0.500000
O3891	O389	0.932200	0.182200	0.000000
O3901	O390	0.432200	0.682200	0.000000
O3911	O391	0.432200	0.567800	0.250000
O3921	O392	0.432200	0.067800	0.750000
O3931	O393	0.817800	0.182200	0.750000
O3941	O394	0.817800	0.682200	0.250000
O3951	O395	0.000000	0.317800	0.067800
O3961	O396	0.000000	0.817800	0.567800
O3971	O397	0.500000	0.317800	0.567800
O3981	O398	0.500000	0.932200	0.682200
O3991	O399	0.000000	0.932200	0.182200
O4001	O400	0.000000	0.432200	0.682200
O4011	O401	0.250000	0.432200	0.567800
O4021	O402	0.750000	0.432200	0.067800
O4031	O403	0.750000	0.817800	0.182200
O4041	O404	0.250000	0.817800	0.682200
O4051	O405	0.067800	0.000000	0.317800
O4061	O406	0.067800	0.500000	0.817800
O4071	O407	0.567800	0.000000	0.817800
O4081	O408	0.682200	0.500000	0.932200
O4091	O409	0.682200	0.000000	0.432200
O4101	O410	0.567800	0.250000	0.432200
O4111	O411	0.567800	0.750000	0.932200
O4121	O412	0.067800	0.750000	0.432200
O4131	O413	0.182200	0.750000	0.817800
O4141	O414	0.182200	0.250000	0.317800
O4151	O415	0.817800	0.067800	0.500000
O4161	O416	0.432200	0.182200	0.500000
O4171	O417	0.317800	0.682200	0.750000
O4181	O418	0.317800	0.182200	0.250000
O4191	O419	0.932200	0.067800	0.250000
O4201	O420	0.932200	0.567800	0.750000
O4211	O421	0.067800	0.250000	0.932200
O4221	O422	0.682200	0.750000	0.317800
O4231	O423	0.682200	0.250000	0.817800
O4241	O424	0.182200	0.500000	0.432200
O4251	O425	0.182200	0.000000	0.932200
O4261	O426	0.567800	0.500000	0.317800
O4271	O427	0.750000	0.317800	0.682200
O4281	O428	0.250000	0.317800	0.182200
O4291	O429	0.250000	0.932200	0.067800
O4301	O430	0.750000	0.932200	0.567800
O4311	O431	0.500000	0.817800	0.067800
O4321	O432	0.500000	0.432200	0.182200
O4331	O433	0.682200	0.932200	0.000000
O4341	O434	0.682200	0.432200	0.500000
O4351	O435	0.182200	0.432200	0.000000
O4361	O436	0.067800	0.317800	0.500000
O4371	O437	0.067800	0.817800	0.000000
O4381	O438	0.567800	0.432200	0.750000
O4391	O439	0.567800	0.932200	0.250000
O4401	O440	0.182200	0.817800	0.250000
O4411	O441	0.182200	0.317800	0.750000
O4421	O442	0.682200	0.817800	0.750000
O4431	O443	0.000000	0.682200	0.932200
O4441	O444	0.000000	0.182200	0.432200
O4451	O445	0.500000	0.682200	0.432200
O4461	O446	0.500000	0.067800	0.317800
O4471	O447	0.000000	0.067800	0.817800
O4481	O448	0.750000	0.567800	0.432200
O4491	O449	0.250000	0.567800	0.932200
O4501	O450	0.250000	0.182200	0.817800
O4511	O451	0.750000	0.182200	0.317800
O4521	O452	0.750000	0.682200	0.817800
O4531	O453	0.932200	0.000000	0.682200
O4541	O454	0.932200	0.500000	0.182200
O4551	O455	0.432200	0.000000	0.182200
O4561	O456	0.317800	0.500000	0.067800
O4571	O457	0.317800	0.000000	0.567800
O4581	O458	0.817800	0.000000	0.067800
O4591	O459	0.432200	0.750000	0.567800
O4601	O460	0.432200	0.250000	0.067800
O4611	O461	0.817800	0.250000	0.182200
O4621	O462	0.817800	0.750000	0.682200
O4631	O463	0.182200	0.932200	0.500000
O4641	O464	0.567800	0.817800	0.500000
O4651	O465	0.567800	0.317800	0.000000
O4661	O466	0.682200	0.317800	0.250000
O4671	O467	0.067800	0.932200	0.750000
O4681	O468	0.067800	0.432200	0.250000
O4691	O469	0.932200	0.750000	0.067800
O4701	O470	0.932200	0.250000	0.567800
O4711	O471	0.317800	0.250000	0.682200
O4721	O472	0.317800	0.750000	0.182200
O4731	O473	0.817800	0.500000	0.567800
O4741	O474	0.432200	0.500000	0.682200
O4751	O475	0.250000	0.682200	0.317800
O4761	O476	0.750000	0.067800	0.932200
O4771	O477	0.250000	0.067800	0.432200
O4781	O478	0.500000	0.182200	0.932200
O4791	O479	0.500000	0.567800	0.817800
O4801	O480	0.000000	0.567800	0.317800
