data_SAQQEH_clean_PM
_symmetry_space_group_name_H-M	'P1'
_cell_length_a	15.229900
_cell_length_b	15.229900
_cell_length_c	18.514100
_cell_angle_alpha	76.082000
_cell_angle_beta	76.082000
_cell_angle_gamma	68.204300
_symmetry_Int_Tables_number 1

loop_
_symmetry_equiv_pos_as_xyz
'x,y,z'

loop_
_atom_site_label
_atom_site_type_symbol
_atom_site_fract_x
_atom_site_fract_y
_atom_site_fract_z
Ho11	Ho1	0.961840	0.043660	0.104340
Ho21	Ho2	0.956340	0.038160	0.395660
Ho31	Ho3	0.038160	0.956340	0.895660
Ho41	Ho4	0.043660	0.961840	0.604340
H11	H1	0.986900	0.285500	0.786800
H21	H2	0.979200	0.439600	0.756300
H31	H3	0.959500	0.449300	0.971700
H41	H4	0.966900	0.294500	0.003500
H51	H5	0.653100	0.076700	0.093400
H61	H6	0.506700	0.067700	0.091000
H71	H7	0.616900	0.958900	0.902400
H81	H8	0.762800	0.967000	0.903900
H91	H9	0.895100	0.762500	0.906700
H101	H10	0.884000	0.612000	0.935300
H111	H11	0.048400	0.556400	0.735700
H121	H12	0.051000	0.707600	0.706300
H131	H13	0.714500	0.013100	0.713200
H141	H14	0.560400	0.020800	0.743700
H151	H15	0.550700	0.040500	0.528300
H161	H16	0.705500	0.033100	0.496500
H171	H17	0.923300	0.346900	0.406600
H181	H18	0.932300	0.493300	0.409000
H191	H19	0.041100	0.383100	0.597600
H201	H20	0.033000	0.237200	0.596100
H211	H21	0.237500	0.104900	0.593300
H221	H22	0.388000	0.116000	0.564700
H231	H23	0.443600	0.951600	0.764300
H241	H24	0.292400	0.949000	0.793700
H251	H25	0.013100	0.714500	0.213200
H261	H26	0.020800	0.560400	0.243700
H271	H27	0.040500	0.550700	0.028300
H281	H28	0.033100	0.705500	0.996500
H291	H29	0.346900	0.923300	0.906600
H301	H30	0.493300	0.932300	0.909000
H311	H31	0.383100	0.041100	0.097600
H321	H32	0.237200	0.033000	0.096100
H331	H33	0.104900	0.237500	0.093300
H341	H34	0.116000	0.388000	0.064700
H351	H35	0.951600	0.443600	0.264300
H361	H36	0.949000	0.292400	0.293700
H371	H37	0.285500	0.986900	0.286800
H381	H38	0.439600	0.979200	0.256300
H391	H39	0.449300	0.959500	0.471700
H401	H40	0.294500	0.966900	0.503500
H411	H41	0.076700	0.653100	0.593400
H421	H42	0.067700	0.506700	0.591000
H431	H43	0.958900	0.616900	0.402400
H441	H44	0.967000	0.762800	0.403900
H451	H45	0.762500	0.895100	0.406700
H461	H46	0.612000	0.884000	0.435300
H471	H47	0.556400	0.048400	0.235700
H481	H48	0.707600	0.051000	0.206300
C11	C1	0.992300	0.166300	0.919600
C21	C2	0.982500	0.269100	0.900300
C31	C3	0.982900	0.318100	0.824600
C41	C4	0.977800	0.410600	0.806600
C51	C5	0.970200	0.464800	0.859400
C61	C6	0.966100	0.416100	0.933500
C71	C7	0.971200	0.322600	0.952900
C81	C8	0.819100	0.031700	0.999100
C91	C9	0.724500	0.023500	0.997900
C101	C10	0.646100	0.052300	0.054400
C111	C11	0.558500	0.045300	0.053800
C121	C12	0.546900	0.005700	0.999000
C131	C13	0.624300	0.981100	0.942500
C141	C14	0.711800	0.987400	0.942300
C151	C15	0.984100	0.850300	0.785800
C161	C16	0.975800	0.752200	0.804600
C171	C17	0.925900	0.720900	0.872000
C181	C18	0.920200	0.629800	0.889800
C191	C19	0.967900	0.563900	0.840700
C201	C20	0.017000	0.597600	0.770700
C211	C21	0.019500	0.687700	0.753400
C221	C22	0.833700	0.007700	0.580400
C231	C23	0.730900	0.017500	0.599700
C241	C24	0.681900	0.017100	0.675400
C251	C25	0.589400	0.022200	0.693400
C261	C26	0.535200	0.029800	0.640600
C271	C27	0.583900	0.033900	0.566500
C281	C28	0.677400	0.028800	0.547100
C291	C29	0.968300	0.180900	0.500900
C301	C30	0.976500	0.275500	0.502100
C311	C31	0.947700	0.353900	0.445600
C321	C32	0.954700	0.441500	0.446200
C331	C33	0.994300	0.453100	0.501000
C341	C34	0.018900	0.375700	0.557500
C351	C35	0.012600	0.288200	0.557700
C361	C36	0.149700	0.015900	0.714200
C371	C37	0.247800	0.024200	0.695400
C381	C38	0.279100	0.074100	0.628000
C391	C39	0.370200	0.079800	0.610200
C401	C40	0.436100	0.032100	0.659300
C411	C41	0.402400	0.983000	0.729300
C421	C42	0.312300	0.980500	0.746600
C431	C43	0.007700	0.833700	0.080400
C441	C44	0.017500	0.730900	0.099700
C451	C45	0.017100	0.681900	0.175400
C461	C46	0.022200	0.589400	0.193400
C471	C47	0.029800	0.535200	0.140600
C481	C48	0.033900	0.583900	0.066500
C491	C49	0.028800	0.677400	0.047100
C501	C50	0.180900	0.968300	0.000900
C511	C51	0.275500	0.976500	0.002100
C521	C52	0.353900	0.947700	0.945600
C531	C53	0.441500	0.954700	0.946200
C541	C54	0.453100	0.994300	0.001000
C551	C55	0.375700	0.018900	0.057500
C561	C56	0.288200	0.012600	0.057700
C571	C57	0.015900	0.149700	0.214200
C581	C58	0.024200	0.247800	0.195400
C591	C59	0.074100	0.279100	0.128000
C601	C60	0.079800	0.370200	0.110200
C611	C61	0.032100	0.436100	0.159300
C621	C62	0.983000	0.402400	0.229300
C631	C63	0.980500	0.312300	0.246600
C641	C64	0.166300	0.992300	0.419600
C651	C65	0.269100	0.982500	0.400300
C661	C66	0.318100	0.982900	0.324600
C671	C67	0.410600	0.977800	0.306600
C681	C68	0.464800	0.970200	0.359400
C691	C69	0.416100	0.966100	0.433500
C701	C70	0.322600	0.971200	0.452900
C711	C71	0.031700	0.819100	0.499100
C721	C72	0.023500	0.724500	0.497900
C731	C73	0.052300	0.646100	0.554400
C741	C74	0.045300	0.558500	0.553800
C751	C75	0.005700	0.546900	0.499000
C761	C76	0.981100	0.624300	0.442500
C771	C77	0.987400	0.711800	0.442300
C781	C78	0.850300	0.984100	0.285800
C791	C79	0.752200	0.975800	0.304600
C801	C80	0.720900	0.925900	0.372000
C811	C81	0.629800	0.920200	0.389800
C821	C82	0.563900	0.967900	0.340700
C831	C83	0.597600	0.017000	0.270700
C841	C84	0.687700	0.019500	0.253400
O11	O1	0.986800	0.129000	0.987300
O21	O2	0.960760	0.896560	0.839000
O31	O3	0.832600	0.044000	0.060300
O41	O4	0.019500	0.875900	0.720900
O51	O5	0.989500	0.880100	0.133400
O61	O6	0.877700	0.024500	0.940500
O71	O7	0.871000	0.013200	0.512700
O81	O8	0.103440	0.039240	0.661000
O91	O9	0.956000	0.167400	0.439700
O101	O10	0.124100	0.980500	0.779100
O111	O11	0.119900	0.010500	0.366600
O121	O12	0.975500	0.122300	0.559500
O131	O13	0.013200	0.871000	0.012700
O141	O14	0.039240	0.103440	0.161000
O151	O15	0.167400	0.956000	0.939700
O161	O16	0.980500	0.124100	0.279100
O171	O17	0.010500	0.119900	0.866600
O181	O18	0.122300	0.975500	0.059500
O191	O19	0.129000	0.986800	0.487300
O201	O20	0.896560	0.960760	0.339000
O211	O21	0.044000	0.832600	0.560300
O221	O22	0.875900	0.019500	0.220900
O231	O23	0.880100	0.989500	0.633400
O241	O24	0.024500	0.877700	0.440500
