data_SAQQIL_clean_PM
_symmetry_space_group_name_H-M	'P1'
_cell_length_a	15.204000
_cell_length_b	15.204000
_cell_length_c	18.535400
_cell_angle_alpha	76.272400
_cell_angle_beta	76.272400
_cell_angle_gamma	68.393200
_symmetry_Int_Tables_number 1

loop_
_symmetry_equiv_pos_as_xyz
'x,y,z'

loop_
_atom_site_label
_atom_site_type_symbol
_atom_site_fract_x
_atom_site_fract_y
_atom_site_fract_z
Er11	Er1	0.043430	0.962150	0.104550
Er21	Er2	0.037850	0.956570	0.395450
Er31	Er3	0.956570	0.037850	0.895450
Er41	Er4	0.962150	0.043430	0.604550
H11	H1	0.077500	0.654300	0.093300
H21	H2	0.068600	0.507000	0.091300
H31	H3	0.953300	0.617100	0.904100
H41	H4	0.973600	0.760800	0.902200
H51	H5	0.292900	0.970100	0.005000
H61	H6	0.454100	0.956100	0.972400
H71	H7	0.440600	0.978800	0.757200
H81	H8	0.282600	0.987400	0.788900
H91	H9	0.765900	0.892100	0.906400
H101	H10	0.613000	0.884400	0.936200
H111	H11	0.555000	0.045200	0.735300
H121	H12	0.711000	0.048600	0.705300
H131	H13	0.345700	0.922500	0.406700
H141	H14	0.493000	0.931400	0.408700
H151	H15	0.382900	0.046700	0.595900
H161	H16	0.239200	0.026400	0.597800
H171	H17	0.029900	0.707100	0.495000
H181	H18	0.043900	0.545900	0.527600
H191	H19	0.021200	0.559400	0.742800
H201	H20	0.012600	0.717400	0.711100
H211	H21	0.107900	0.234100	0.593600
H221	H22	0.115600	0.387000	0.563800
H231	H23	0.954800	0.445000	0.764700
H241	H24	0.951400	0.289000	0.794700
H251	H25	0.922500	0.345700	0.906700
H261	H26	0.931400	0.493000	0.908700
H271	H27	0.046700	0.382900	0.095900
H281	H28	0.026400	0.239200	0.097800
H291	H29	0.707100	0.029900	0.995000
H301	H30	0.545900	0.043900	0.027600
H311	H31	0.559400	0.021200	0.242800
H321	H32	0.717400	0.012600	0.211100
H331	H33	0.234100	0.107900	0.093600
H341	H34	0.387000	0.115600	0.063800
H351	H35	0.445000	0.954800	0.264700
H361	H36	0.289000	0.951400	0.294700
H371	H37	0.654300	0.077500	0.593300
H381	H38	0.507000	0.068600	0.591300
H391	H39	0.617100	0.953300	0.404100
H401	H40	0.760800	0.973600	0.402200
H411	H41	0.970100	0.292900	0.505000
H421	H42	0.956100	0.454100	0.472400
H431	H43	0.978800	0.440600	0.257200
H441	H44	0.987400	0.282600	0.288900
H451	H45	0.892100	0.765900	0.406400
H461	H46	0.884400	0.613000	0.436200
H471	H47	0.045200	0.555000	0.235300
H481	H48	0.048600	0.711000	0.205300
C11	C1	0.031000	0.820000	0.999700
C21	C2	0.025000	0.724000	0.998800
C31	C3	0.053100	0.647100	0.054400
C41	C4	0.046100	0.558500	0.054100
C51	C5	0.006000	0.546200	0.999300
C61	C6	0.979100	0.623500	0.942500
C71	C7	0.990200	0.710800	0.941900
C81	C8	0.167000	0.992000	0.920800
C91	C9	0.270300	0.981700	0.900300
C101	C10	0.322200	0.971800	0.954800
C111	C11	0.419400	0.964400	0.934800
C121	C12	0.464700	0.969100	0.860300
C131	C13	0.411600	0.977200	0.807500
C141	C14	0.316200	0.982800	0.826300
C151	C15	0.851400	0.983400	0.785100
C161	C16	0.753700	0.974100	0.803200
C171	C17	0.723600	0.923200	0.872300
C181	C18	0.631500	0.919100	0.890200
C191	C19	0.566300	0.965500	0.841000
C201	C20	0.596800	0.014800	0.769900
C211	C21	0.690600	0.017200	0.752300
C221	C22	0.180000	0.969000	0.500300
C231	C23	0.276000	0.975000	0.501200
C241	C24	0.352900	0.946900	0.445600
C251	C25	0.441500	0.953900	0.445900
C261	C26	0.453800	0.994000	0.500700
C271	C27	0.376500	0.020900	0.557500
C281	C28	0.289200	0.009800	0.558100
C291	C29	0.008000	0.833000	0.579200
C301	C30	0.018300	0.729700	0.599700
C311	C31	0.028200	0.677800	0.545200
C321	C32	0.035600	0.580600	0.565200
C331	C33	0.030900	0.535300	0.639700
C341	C34	0.022800	0.588400	0.692500
C351	C35	0.017200	0.683800	0.673700
C361	C36	0.016600	0.148600	0.714900
C371	C37	0.025900	0.246300	0.696800
C381	C38	0.076800	0.276400	0.627700
C391	C39	0.080900	0.368500	0.609800
C401	C40	0.034500	0.433700	0.659000
C411	C41	0.985200	0.403200	0.730100
C421	C42	0.982800	0.309400	0.747700
C431	C43	0.969000	0.180000	0.000300
C441	C44	0.975000	0.276000	0.001200
C451	C45	0.946900	0.352900	0.945600
C461	C46	0.953900	0.441500	0.945900
C471	C47	0.994000	0.453800	0.000700
C481	C48	0.020900	0.376500	0.057500
C491	C49	0.009800	0.289200	0.058100
C501	C50	0.833000	0.008000	0.079200
C511	C51	0.729700	0.018300	0.099700
C521	C52	0.677800	0.028200	0.045200
C531	C53	0.580600	0.035600	0.065200
C541	C54	0.535300	0.030900	0.139700
C551	C55	0.588400	0.022800	0.192500
C561	C56	0.683800	0.017200	0.173700
C571	C57	0.148600	0.016600	0.214900
C581	C58	0.246300	0.025900	0.196800
C591	C59	0.276400	0.076800	0.127700
C601	C60	0.368500	0.080900	0.109800
C611	C61	0.433700	0.034500	0.159000
C621	C62	0.403200	0.985200	0.230100
C631	C63	0.309400	0.982800	0.247700
C641	C64	0.820000	0.031000	0.499700
C651	C65	0.724000	0.025000	0.498800
C661	C66	0.647100	0.053100	0.554400
C671	C67	0.558500	0.046100	0.554100
C681	C68	0.546200	0.006000	0.499300
C691	C69	0.623500	0.979100	0.442500
C701	C70	0.710800	0.990200	0.441900
C711	C71	0.992000	0.167000	0.420800
C721	C72	0.981700	0.270300	0.400300
C731	C73	0.971800	0.322200	0.454800
C741	C74	0.964400	0.419400	0.434800
C751	C75	0.969100	0.464700	0.360300
C761	C76	0.977200	0.411600	0.307500
C771	C77	0.982800	0.316200	0.326300
C781	C78	0.983400	0.851400	0.285100
C791	C79	0.974100	0.753700	0.303200
C801	C80	0.923200	0.723600	0.372300
C811	C81	0.919100	0.631500	0.390200
C821	C82	0.965500	0.566300	0.341000
C831	C83	0.014800	0.596800	0.269900
C841	C84	0.017200	0.690600	0.252300
O11	O1	0.042800	0.833600	0.060400
O21	O2	0.975900	0.120900	0.059600
O31	O3	0.129100	0.987100	0.989200
O41	O4	0.121400	0.009800	0.868600
O51	O5	0.900320	0.957920	0.837900
O61	O6	0.878500	0.017300	0.719000
O71	O7	0.166400	0.957200	0.439600
O81	O8	0.879100	0.024100	0.440400
O91	O9	0.012900	0.870900	0.510800
O101	O10	0.990200	0.878600	0.631400
O111	O11	0.042080	0.099680	0.662100
O121	O12	0.982700	0.121500	0.781000
O131	O13	0.957200	0.166400	0.939600
O141	O14	0.024100	0.879100	0.940400
O151	O15	0.870900	0.012900	0.010800
O161	O16	0.878600	0.990200	0.131400
O171	O17	0.099680	0.042080	0.162100
O181	O18	0.121500	0.982700	0.281000
O191	O19	0.833600	0.042800	0.560400
O201	O20	0.120900	0.975900	0.559600
O211	O21	0.987100	0.129100	0.489200
O221	O22	0.009800	0.121400	0.368600
O231	O23	0.957920	0.900320	0.337900
O241	O24	0.017300	0.878500	0.219000
