data_SAQZOB_clean_PM
_symmetry_space_group_name_H-M	'P1'
_cell_length_a	15.550000
_cell_length_b	24.921000
_cell_length_c	25.282000
_cell_angle_alpha	90.000000
_cell_angle_beta	90.005000
_cell_angle_gamma	90.000000
_symmetry_Int_Tables_number 1

loop_
_symmetry_equiv_pos_as_xyz
'x,y,z'

loop_
_atom_site_label
_atom_site_type_symbol
_atom_site_fract_x
_atom_site_fract_y
_atom_site_fract_z
Cd11	Cd1	0.068430	0.947420	0.084140
Cd21	Cd2	0.153180	0.007520	0.957330
Cd31	Cd3	0.931570	0.447420	0.415860
Cd41	Cd4	0.846820	0.507520	0.542670
Cd51	Cd5	0.931570	0.052580	0.915860
Cd61	Cd6	0.846820	0.992480	0.042670
Cd71	Cd7	0.068430	0.552580	0.584140
Cd81	Cd8	0.153180	0.492480	0.457330
H11	H1	0.198500	0.894300	0.911200
H21	H2	0.287700	0.742000	0.835400
H31	H3	0.377100	0.712500	0.823200
H41	H4	0.356900	0.656000	0.898500
H51	H5	0.268200	0.685800	0.911400
H61	H6	0.240200	0.602800	0.868800
H71	H7	0.207300	0.650900	0.832000
H81	H8	0.296100	0.621300	0.818900
H91	H9	0.265500	0.806900	0.039400
H101	H10	0.395700	0.712200	0.975500
H111	H11	0.358800	0.729700	0.032200
H121	H12	0.424500	0.818500	0.069100
H131	H13	0.553500	0.862000	0.088700
H141	H14	0.672700	0.846800	0.035500
H151	H15	0.630200	0.669600	0.990900
H161	H16	0.531800	0.657400	0.005800
H171	H17	0.512200	0.617700	0.921300
H181	H18	0.611700	0.627800	0.908600
H191	H19	0.544500	0.555100	0.984200
H201	H20	0.603300	0.540700	0.934200
H211	H21	0.644100	0.571300	0.983900
H221	H22	0.691200	0.749000	0.931500
H231	H23	0.751000	0.778100	0.974500
H241	H24	0.789400	0.873200	0.962100
H251	H25	0.716100	0.951500	0.830700
H261	H26	0.666700	0.770800	0.790700
H271	H27	0.694900	0.735700	0.841000
H281	H28	0.525600	0.728000	0.794200
H291	H29	0.560800	0.689900	0.840600
H301	H30	0.661900	0.650900	0.784000
H311	H31	0.572100	0.649200	0.753100
H321	H32	0.642000	0.694000	0.738600
H331	H33	0.634900	0.905800	0.762100
H341	H34	0.601900	0.845600	0.772000
H351	H35	0.557100	0.978600	0.817700
H361	H36	0.426100	0.011000	0.848100
H371	H37	0.311500	0.950100	0.863000
H381	H38	0.486300	0.814100	0.705000
H391	H39	0.421100	0.862100	0.716300
H401	H40	0.375700	0.759100	0.718100
H411	H41	0.316300	0.811500	0.716400
H421	H42	0.420900	0.817400	0.631500
H431	H43	0.382000	0.758000	0.632400
H441	H44	0.319000	0.808700	0.630600
H451	H45	0.301500	0.815500	0.815600
H461	H46	0.239900	0.866400	0.823600
H471	H47	0.069600	0.029200	0.181000
H481	H48	0.986800	0.028500	0.422700
H491	H49	0.941900	0.997600	0.374200
H501	H50	0.120400	0.992500	0.403600
H511	H51	0.091200	0.974500	0.345700
H521	H52	0.003600	0.905300	0.385900
H531	H53	0.104200	0.897000	0.396200
H541	H54	0.044400	0.921200	0.441900
H551	H55	0.820300	0.048300	0.223900
H561	H56	0.780500	0.072000	0.312300
H571	H57	0.845600	0.055800	0.358700
H581	H58	0.837300	0.162200	0.264100
H591	H59	0.864500	0.252800	0.280400
H601	H60	0.902300	0.280700	0.364400
H611	H61	0.813700	0.140300	0.495900
H621	H62	0.753700	0.140400	0.444600
H631	H63	0.760900	0.040400	0.449000
H641	H64	0.797100	0.048900	0.508200
H651	H65	0.642400	0.044700	0.510200
H661	H66	0.673700	0.102800	0.529000
H671	H67	0.637800	0.094500	0.470300
H681	H68	0.933600	0.194100	0.477300
H691	H69	0.891800	0.252200	0.468200
H701	H70	0.984200	0.326900	0.456300
H711	H71	0.229400	0.310300	0.404400
H721	H72	0.045100	0.162500	0.511200
H731	H73	0.046500	0.103000	0.486700
H741	H74	0.201600	0.107000	0.483200
H751	H75	0.198400	0.165300	0.510300
H761	H76	0.132100	0.069800	0.560000
H771	H77	0.221600	0.097100	0.576100
H781	H78	0.133000	0.127900	0.587100
H791	H79	0.251900	0.172500	0.416400
H801	H80	0.294000	0.224600	0.389700
H811	H81	0.199000	0.257700	0.304700
H821	H82	0.151500	0.226500	0.223500
H831	H83	0.128200	0.136600	0.208800
H841	H84	0.318800	0.060900	0.319300
H851	H85	0.356200	0.101100	0.363500
H861	H86	0.281300	0.997900	0.388300
H871	H87	0.321800	0.037500	0.431400
H881	H88	0.460300	0.022600	0.400000
H891	H89	0.417500	0.964400	0.405100
H901	H90	0.425100	0.992600	0.348400
H911	H91	0.183800	0.038300	0.242000
H921	H92	0.163100	0.031000	0.303700
H931	H93	0.801500	0.394300	0.588800
H941	H94	0.712300	0.242000	0.664600
H951	H95	0.622900	0.212500	0.676800
H961	H96	0.643100	0.156000	0.601500
H971	H97	0.731800	0.185800	0.588600
H981	H98	0.759800	0.102800	0.631200
H991	H99	0.792700	0.150900	0.668000
H1001	H100	0.703900	0.121300	0.681100
H1011	H101	0.734500	0.306900	0.460600
H1021	H102	0.604300	0.212200	0.524500
H1031	H103	0.641200	0.229700	0.467800
H1041	H104	0.575500	0.318500	0.430900
H1051	H105	0.446500	0.362000	0.411300
H1061	H106	0.327300	0.346800	0.464500
H1071	H107	0.369800	0.169600	0.509100
H1081	H108	0.468200	0.157400	0.494200
H1091	H109	0.487800	0.117700	0.578700
H1101	H110	0.388300	0.127800	0.591400
H1111	H111	0.455500	0.055100	0.515800
H1121	H112	0.396700	0.040700	0.565800
H1131	H113	0.355900	0.071300	0.516100
H1141	H114	0.308800	0.249000	0.568500
H1151	H115	0.249000	0.278100	0.525500
H1161	H116	0.210600	0.373200	0.537900
H1171	H117	0.283900	0.451500	0.669300
H1181	H118	0.333300	0.270800	0.709300
H1191	H119	0.305100	0.235700	0.659000
H1201	H120	0.474400	0.228000	0.705800
H1211	H121	0.439200	0.189900	0.659400
H1221	H122	0.338100	0.150900	0.716000
H1231	H123	0.427900	0.149200	0.746900
H1241	H124	0.358000	0.194000	0.761400
H1251	H125	0.365100	0.405800	0.737900
H1261	H126	0.398100	0.345600	0.728000
H1271	H127	0.442900	0.478600	0.682300
H1281	H128	0.573900	0.511000	0.651900
H1291	H129	0.688500	0.450100	0.637000
H1301	H130	0.513700	0.314100	0.795000
H1311	H131	0.578900	0.362100	0.783700
H1321	H132	0.624300	0.259100	0.781900
H1331	H133	0.683700	0.311500	0.783600
H1341	H134	0.579100	0.317400	0.868500
H1351	H135	0.618000	0.258000	0.867600
H1361	H136	0.681000	0.308700	0.869400
H1371	H137	0.698500	0.315500	0.684400
H1381	H138	0.760100	0.366400	0.676400
H1391	H139	0.930400	0.529200	0.319000
H1401	H140	0.013200	0.528500	0.077300
H1411	H141	0.058100	0.497600	0.125800
H1421	H142	0.879600	0.492500	0.096400
H1431	H143	0.908800	0.474500	0.154300
H1441	H144	0.996400	0.405300	0.114100
H1451	H145	0.895800	0.397000	0.103800
H1461	H146	0.955600	0.421200	0.058100
H1471	H147	0.179700	0.548300	0.276100
H1481	H148	0.219500	0.572000	0.187700
H1491	H149	0.154400	0.555800	0.141300
H1501	H150	0.162700	0.662200	0.235900
H1511	H151	0.135500	0.752800	0.219600
H1521	H152	0.097700	0.780700	0.135600
H1531	H153	0.186300	0.640300	0.004100
H1541	H154	0.246300	0.640400	0.055400
H1551	H155	0.239100	0.540400	0.051000
H1561	H156	0.202900	0.548900	0.991800
H1571	H157	0.357600	0.544700	0.989800
H1581	H158	0.326300	0.602800	0.971000
H1591	H159	0.362200	0.594500	0.029700
H1601	H160	0.066400	0.694100	0.022700
H1611	H161	0.108200	0.752200	0.031800
H1621	H162	0.015800	0.826900	0.043700
H1631	H163	0.770600	0.810300	0.095600
H1641	H164	0.954900	0.662500	0.988800
H1651	H165	0.953500	0.603000	0.013300
H1661	H166	0.798400	0.607000	0.016800
H1671	H167	0.801600	0.665300	0.989700
H1681	H168	0.867900	0.569800	0.940000
H1691	H169	0.778400	0.597100	0.923900
H1701	H170	0.867000	0.627900	0.912900
H1711	H171	0.748100	0.672500	0.083600
H1721	H172	0.706000	0.724600	0.110300
H1731	H173	0.801000	0.757700	0.195300
H1741	H174	0.848500	0.726500	0.276500
H1751	H175	0.871800	0.636600	0.291200
H1761	H176	0.681200	0.560900	0.180700
H1771	H177	0.643800	0.601100	0.136500
H1781	H178	0.718700	0.497900	0.111700
H1791	H179	0.678200	0.537500	0.068600
H1801	H180	0.539700	0.522600	0.100000
H1811	H181	0.582500	0.464400	0.094900
H1821	H182	0.574900	0.492600	0.151600
H1831	H183	0.816200	0.538300	0.258000
H1841	H184	0.836900	0.531000	0.196300
H1851	H185	0.801500	0.105700	0.088800
H1861	H186	0.712300	0.258000	0.164600
H1871	H187	0.622900	0.287500	0.176800
H1881	H188	0.643100	0.344000	0.101500
H1891	H189	0.731800	0.314200	0.088600
H1901	H190	0.759800	0.397200	0.131200
H1911	H191	0.792700	0.349100	0.168000
H1921	H192	0.703900	0.378700	0.181100
H1931	H193	0.734500	0.193100	0.960600
H1941	H194	0.604300	0.287800	0.024500
H1951	H195	0.641200	0.270300	0.967800
H1961	H196	0.575500	0.181500	0.930900
H1971	H197	0.446500	0.138000	0.911300
H1981	H198	0.327300	0.153200	0.964500
H1991	H199	0.369800	0.330400	0.009100
H2001	H200	0.468200	0.342600	0.994200
H2011	H201	0.487800	0.382300	0.078700
H2021	H202	0.388300	0.372200	0.091400
H2031	H203	0.455500	0.444900	0.015800
H2041	H204	0.396700	0.459300	0.065800
H2051	H205	0.355900	0.428700	0.016100
H2061	H206	0.308800	0.251000	0.068500
H2071	H207	0.249000	0.221900	0.025500
H2081	H208	0.210600	0.126800	0.037900
H2091	H209	0.283900	0.048500	0.169300
H2101	H210	0.333300	0.229200	0.209300
H2111	H211	0.305100	0.264300	0.159000
H2121	H212	0.474400	0.272000	0.205800
H2131	H213	0.439200	0.310100	0.159400
H2141	H214	0.338100	0.349100	0.216000
H2151	H215	0.427900	0.350800	0.246900
H2161	H216	0.358000	0.306000	0.261400
H2171	H217	0.365100	0.094200	0.237900
H2181	H218	0.398100	0.154400	0.228000
H2191	H219	0.442900	0.021400	0.182300
H2201	H220	0.573900	0.989000	0.151900
H2211	H221	0.688500	0.049900	0.137000
H2221	H222	0.513700	0.185900	0.295000
H2231	H223	0.578900	0.137900	0.283700
H2241	H224	0.624300	0.240900	0.281900
H2251	H225	0.683700	0.188500	0.283600
H2261	H226	0.579100	0.182600	0.368500
H2271	H227	0.618000	0.242000	0.367600
H2281	H228	0.681000	0.191300	0.369400
H2291	H229	0.698500	0.184500	0.184400
H2301	H230	0.760100	0.133600	0.176400
H2311	H231	0.930400	0.970800	0.819000
H2321	H232	0.013200	0.971500	0.577300
H2331	H233	0.058100	0.002400	0.625800
H2341	H234	0.879600	0.007500	0.596400
H2351	H235	0.908800	0.025500	0.654300
H2361	H236	0.996400	0.094700	0.614100
H2371	H237	0.895800	0.103000	0.603800
H2381	H238	0.955600	0.078800	0.558100
H2391	H239	0.179700	0.951700	0.776100
H2401	H240	0.219500	0.928000	0.687700
H2411	H241	0.154400	0.944200	0.641300
H2421	H242	0.162700	0.837800	0.735900
H2431	H243	0.135500	0.747200	0.719600
H2441	H244	0.097700	0.719300	0.635600
H2451	H245	0.186300	0.859700	0.504100
H2461	H246	0.246300	0.859600	0.555400
H2471	H247	0.239100	0.959600	0.551000
H2481	H248	0.202900	0.951100	0.491800
H2491	H249	0.357600	0.955300	0.489800
H2501	H250	0.326300	0.897200	0.471000
H2511	H251	0.362200	0.905500	0.529700
H2521	H252	0.066400	0.805900	0.522700
H2531	H253	0.108200	0.747800	0.531800
H2541	H254	0.015800	0.673100	0.543700
H2551	H255	0.770600	0.689700	0.595600
H2561	H256	0.954900	0.837500	0.488800
H2571	H257	0.953500	0.897000	0.513300
H2581	H258	0.798400	0.893000	0.516800
H2591	H259	0.801600	0.834700	0.489700
H2601	H260	0.867900	0.930200	0.440000
H2611	H261	0.778400	0.902900	0.423900
H2621	H262	0.867000	0.872100	0.412900
H2631	H263	0.748100	0.827500	0.583600
H2641	H264	0.706000	0.775400	0.610300
H2651	H265	0.801000	0.742300	0.695300
H2661	H266	0.848500	0.773500	0.776500
H2671	H267	0.871800	0.863400	0.791200
H2681	H268	0.681200	0.939100	0.680700
H2691	H269	0.643800	0.898900	0.636500
H2701	H270	0.718700	0.002100	0.611700
H2711	H271	0.678200	0.962500	0.568600
H2721	H272	0.539700	0.977400	0.600000
H2731	H273	0.582500	0.035600	0.594900
H2741	H274	0.574900	0.007400	0.651600
H2751	H275	0.816200	0.961700	0.758000
H2761	H276	0.836900	0.969000	0.696300
H2771	H277	0.198500	0.605700	0.411200
H2781	H278	0.287700	0.758000	0.335400
H2791	H279	0.377100	0.787500	0.323200
H2801	H280	0.356900	0.844000	0.398500
H2811	H281	0.268200	0.814200	0.411400
H2821	H282	0.240200	0.897200	0.368800
H2831	H283	0.207300	0.849100	0.332000
H2841	H284	0.296100	0.878700	0.318900
H2851	H285	0.265500	0.693100	0.539400
H2861	H286	0.395700	0.787800	0.475500
H2871	H287	0.358800	0.770300	0.532200
H2881	H288	0.424500	0.681500	0.569100
H2891	H289	0.553500	0.638000	0.588700
H2901	H290	0.672700	0.653200	0.535500
H2911	H291	0.630200	0.830400	0.490900
H2921	H292	0.531800	0.842600	0.505800
H2931	H293	0.512200	0.882300	0.421300
H2941	H294	0.611700	0.872200	0.408600
H2951	H295	0.544500	0.944900	0.484200
H2961	H296	0.603300	0.959300	0.434200
H2971	H297	0.644100	0.928700	0.483900
H2981	H298	0.691200	0.751000	0.431500
H2991	H299	0.751000	0.721900	0.474500
H3001	H300	0.789400	0.626800	0.462100
H3011	H301	0.716100	0.548500	0.330700
H3021	H302	0.666700	0.729200	0.290700
H3031	H303	0.694900	0.764300	0.341000
H3041	H304	0.525600	0.772000	0.294200
H3051	H305	0.560800	0.810100	0.340600
H3061	H306	0.661900	0.849100	0.284000
H3071	H307	0.572100	0.850800	0.253100
H3081	H308	0.642000	0.806000	0.238600
H3091	H309	0.634900	0.594200	0.262100
H3101	H310	0.601900	0.654400	0.272000
H3111	H311	0.557100	0.521400	0.317700
H3121	H312	0.426100	0.489000	0.348100
H3131	H313	0.311500	0.549900	0.363000
H3141	H314	0.486300	0.685900	0.205000
H3151	H315	0.421100	0.637900	0.216300
H3161	H316	0.375700	0.740900	0.218100
H3171	H317	0.316300	0.688500	0.216400
H3181	H318	0.420900	0.682600	0.131500
H3191	H319	0.382000	0.742000	0.132400
H3201	H320	0.319000	0.691300	0.130600
H3211	H321	0.301500	0.684500	0.315600
H3221	H322	0.239900	0.633600	0.323600
H3231	H323	0.069600	0.470800	0.681000
H3241	H324	0.986800	0.471500	0.922700
H3251	H325	0.941900	0.502400	0.874200
H3261	H326	0.120400	0.507500	0.903600
H3271	H327	0.091200	0.525500	0.845700
H3281	H328	0.003600	0.594700	0.885900
H3291	H329	0.104200	0.603000	0.896200
H3301	H330	0.044400	0.578800	0.941900
H3311	H331	0.820300	0.451700	0.723900
H3321	H332	0.780500	0.428000	0.812300
H3331	H333	0.845600	0.444200	0.858700
H3341	H334	0.837300	0.337800	0.764100
H3351	H335	0.864500	0.247200	0.780400
H3361	H336	0.902300	0.219300	0.864400
H3371	H337	0.813700	0.359700	0.995900
H3381	H338	0.753700	0.359600	0.944600
H3391	H339	0.760900	0.459600	0.949000
H3401	H340	0.797100	0.451100	0.008200
H3411	H341	0.642400	0.455300	0.010200
H3421	H342	0.673700	0.397200	0.029000
H3431	H343	0.637800	0.405500	0.970300
H3441	H344	0.933600	0.305900	0.977300
H3451	H345	0.891800	0.247800	0.968200
H3461	H346	0.984200	0.173100	0.956300
H3471	H347	0.229400	0.189700	0.904400
H3481	H348	0.045100	0.337500	0.011200
H3491	H349	0.046500	0.397000	0.986700
H3501	H350	0.201600	0.393000	0.983200
H3511	H351	0.198400	0.334700	0.010300
H3521	H352	0.132100	0.430200	0.060000
H3531	H353	0.221600	0.402900	0.076100
H3541	H354	0.133000	0.372100	0.087100
H3551	H355	0.251900	0.327500	0.916400
H3561	H356	0.294000	0.275400	0.889700
H3571	H357	0.199000	0.242300	0.804700
H3581	H358	0.151500	0.273500	0.723500
H3591	H359	0.128200	0.363400	0.708800
H3601	H360	0.318800	0.439100	0.819300
H3611	H361	0.356200	0.398900	0.863500
H3621	H362	0.281300	0.502100	0.888300
H3631	H363	0.321800	0.462500	0.931400
H3641	H364	0.460300	0.477400	0.900000
H3651	H365	0.417500	0.535600	0.905100
H3661	H366	0.425100	0.507400	0.848400
H3671	H367	0.183800	0.461700	0.742000
H3681	H368	0.163100	0.469000	0.803700
C11	C1	0.163800	0.887900	0.014400
C21	C2	0.222000	0.855160	0.980760
C31	C3	0.229900	0.865500	0.926450
C41	C4	0.282500	0.834300	0.894700
C51	C5	0.328700	0.791900	0.918000
C61	C6	0.337600	0.723800	0.851800
C71	C7	0.306600	0.674100	0.882400
C81	C8	0.258000	0.633600	0.847300
C91	C9	0.325200	0.783250	0.972400
C101	C10	0.270300	0.814050	0.002600
C111	C11	0.385600	0.743200	0.999300
C121	C12	0.470900	0.770110	0.012200
C131	C13	0.475000	0.809600	0.049800
C141	C14	0.550700	0.836900	0.060500
C151	C15	0.621600	0.826800	0.029700
C161	C16	0.620600	0.787900	0.989900
C171	C17	0.545600	0.757400	0.983900
C181	C18	0.571500	0.665300	0.976200
C191	C19	0.570200	0.620100	0.937300
C201	C20	0.592500	0.567200	0.962000
C211	C21	0.697900	0.781900	0.953100
C221	C22	0.706100	0.829700	0.917400
C231	C23	0.757000	0.873900	0.930200
C241	C24	0.761800	0.918700	0.898240
C251	C25	0.817800	0.965400	0.912900
C261	C26	0.713800	0.920300	0.852300
C271	C27	0.662600	0.878100	0.836800
C281	C28	0.659400	0.832500	0.869600
C291	C29	0.645500	0.752800	0.823000
C301	C30	0.577600	0.710400	0.808700
C311	C31	0.617000	0.672700	0.767400
C321	C32	0.607500	0.881600	0.788200
C331	C33	0.517600	0.903300	0.803000
C341	C34	0.509000	0.955100	0.819600
C351	C35	0.432200	0.974200	0.839300
C361	C36	0.362800	0.938400	0.846100
C371	C37	0.369800	0.886300	0.828000
C381	C38	0.445600	0.869100	0.804220
C391	C39	0.432900	0.823900	0.724000
C401	C40	0.371900	0.796300	0.704500
C411	C41	0.373600	0.795000	0.644400
C421	C42	0.293000	0.848700	0.836400
C431	C43	0.913900	0.021400	0.140100
C441	C44	0.941300	0.034700	0.194300
C451	C45	0.027700	0.035700	0.207600
C461	C46	0.053900	0.045900	0.259000
C471	C47	0.990600	0.054600	0.297800
C481	C48	0.995200	0.015800	0.386000
C491	C49	0.072300	0.977000	0.383000
C501	C50	0.055000	0.919900	0.403600
C511	C51	0.904000	0.057600	0.285200
C521	C52	0.879500	0.047100	0.233200
C531	C53	0.839500	0.077200	0.326000
C541	C54	0.853500	0.136200	0.338500
C551	C55	0.851100	0.173400	0.299000
C561	C56	0.868300	0.227500	0.308400
C571	C57	0.890500	0.243900	0.357900
C581	C58	0.896000	0.206600	0.399600
C591	C59	0.873200	0.153800	0.389700
C601	C60	0.798900	0.120000	0.463500
C611	C61	0.762300	0.065200	0.479600
C621	C62	0.670700	0.078000	0.499000
C631	C63	0.930900	0.225000	0.452700
C641	C64	0.019200	0.248700	0.446000
C651	C65	0.030800	0.304200	0.446900
C661	C66	0.110200	0.326600	0.434300
C671	C67	0.123700	0.385600	0.439200
C681	C68	0.177300	0.294400	0.416300
C691	C69	0.167700	0.238400	0.415700
C701	C70	0.090600	0.216300	0.432900
C711	C71	0.077000	0.137900	0.487600
C721	C72	0.168800	0.130200	0.507800
C731	C73	0.163400	0.103900	0.562800
C741	C74	0.240500	0.203300	0.392600
C751	C75	0.214500	0.183200	0.339100
C761	C76	0.193000	0.220300	0.298800
C771	C77	0.163300	0.201500	0.251000
C781	C78	0.150300	0.148100	0.242000
C791	C79	0.169400	0.110300	0.281000
C801	C80	0.205000	0.128700	0.328100
C811	C81	0.313300	0.072600	0.356500
C821	C82	0.326800	0.024900	0.394400
C831	C83	0.415500	0.998700	0.386200
C841	C84	0.148800	0.052100	0.271700
C851	C85	0.836200	0.387900	0.485600
C861	C86	0.778000	0.355160	0.519240
C871	C87	0.770100	0.365500	0.573550
C881	C88	0.717500	0.334300	0.605300
C891	C89	0.671300	0.291900	0.582000
C901	C90	0.662400	0.223800	0.648200
C911	C91	0.693400	0.174100	0.617600
C921	C92	0.742000	0.133600	0.652700
C931	C93	0.674800	0.283250	0.527600
C941	C94	0.729700	0.314050	0.497400
C951	C95	0.614400	0.243200	0.500700
C961	C96	0.529100	0.270110	0.487800
C971	C97	0.525000	0.309600	0.450200
C981	C98	0.449300	0.336900	0.439500
C991	C99	0.378400	0.326800	0.470300
C1001	C100	0.379400	0.287900	0.510100
C1011	C101	0.454400	0.257400	0.516100
C1021	C102	0.428500	0.165300	0.523800
C1031	C103	0.429800	0.120100	0.562700
C1041	C104	0.407500	0.067200	0.538000
C1051	C105	0.302100	0.281900	0.546900
C1061	C106	0.293900	0.329700	0.582600
C1071	C107	0.243000	0.373900	0.569800
C1081	C108	0.238200	0.418700	0.601760
C1091	C109	0.182200	0.465400	0.587100
C1101	C110	0.286200	0.420300	0.647700
C1111	C111	0.337400	0.378100	0.663200
C1121	C112	0.340600	0.332500	0.630400
C1131	C113	0.354500	0.252800	0.677000
C1141	C114	0.422400	0.210400	0.691300
C1151	C115	0.383000	0.172700	0.732600
C1161	C116	0.392500	0.381600	0.711800
C1171	C117	0.482400	0.403300	0.697000
C1181	C118	0.491000	0.455100	0.680400
C1191	C119	0.567800	0.474200	0.660700
C1201	C120	0.637200	0.438400	0.653900
C1211	C121	0.630200	0.386300	0.672000
C1221	C122	0.554400	0.369100	0.695780
C1231	C123	0.567100	0.323900	0.776000
C1241	C124	0.628100	0.296300	0.795500
C1251	C125	0.626400	0.295000	0.855600
C1261	C126	0.707000	0.348700	0.663600
C1271	C127	0.086100	0.521400	0.359900
C1281	C128	0.058700	0.534700	0.305700
C1291	C129	0.972300	0.535700	0.292400
C1301	C130	0.946100	0.545900	0.241000
C1311	C131	0.009400	0.554600	0.202200
C1321	C132	0.004800	0.515800	0.114000
C1331	C133	0.927700	0.477000	0.117000
C1341	C134	0.945000	0.419900	0.096400
C1351	C135	0.096000	0.557600	0.214800
C1361	C136	0.120500	0.547100	0.266800
C1371	C137	0.160500	0.577200	0.174000
C1381	C138	0.146500	0.636200	0.161500
C1391	C139	0.148900	0.673400	0.201000
C1401	C140	0.131700	0.727500	0.191600
C1411	C141	0.109500	0.743900	0.142100
C1421	C142	0.104000	0.706600	0.100400
C1431	C143	0.126800	0.653800	0.110300
C1441	C144	0.201100	0.620000	0.036500
C1451	C145	0.237700	0.565200	0.020400
C1461	C146	0.329300	0.578000	0.001000
C1471	C147	0.069100	0.725000	0.047300
C1481	C148	0.980800	0.748700	0.054000
C1491	C149	0.969200	0.804200	0.053100
C1501	C150	0.889800	0.826600	0.065700
C1511	C151	0.876300	0.885600	0.060800
C1521	C152	0.822700	0.794400	0.083700
C1531	C153	0.832300	0.738400	0.084300
C1541	C154	0.909400	0.716300	0.067100
C1551	C155	0.923000	0.637900	0.012400
C1561	C156	0.831200	0.630200	0.992200
C1571	C157	0.836600	0.603900	0.937200
C1581	C158	0.759500	0.703300	0.107400
C1591	C159	0.785500	0.683200	0.160900
C1601	C160	0.807000	0.720300	0.201200
C1611	C161	0.836700	0.701500	0.249000
C1621	C162	0.849700	0.648100	0.258000
C1631	C163	0.830600	0.610300	0.219000
C1641	C164	0.795000	0.628700	0.171900
C1651	C165	0.686700	0.572600	0.143500
C1661	C166	0.673200	0.524900	0.105600
C1671	C167	0.584500	0.498700	0.113800
C1681	C168	0.851200	0.552100	0.228300
C1691	C169	0.836200	0.112100	0.985600
C1701	C170	0.778000	0.144840	0.019240
C1711	C171	0.770100	0.134500	0.073550
C1721	C172	0.717500	0.165700	0.105300
C1731	C173	0.671300	0.208100	0.082000
C1741	C174	0.662400	0.276200	0.148200
C1751	C175	0.693400	0.325900	0.117600
C1761	C176	0.742000	0.366400	0.152700
C1771	C177	0.674800	0.216750	0.027600
C1781	C178	0.729700	0.185950	0.997400
C1791	C179	0.614400	0.256800	0.000700
C1801	C180	0.529100	0.229890	0.987800
C1811	C181	0.525000	0.190400	0.950200
C1821	C182	0.449300	0.163100	0.939500
C1831	C183	0.378400	0.173200	0.970300
C1841	C184	0.379400	0.212100	0.010100
C1851	C185	0.454400	0.242600	0.016100
C1861	C186	0.428500	0.334700	0.023800
C1871	C187	0.429800	0.379900	0.062700
C1881	C188	0.407500	0.432800	0.038000
C1891	C189	0.302100	0.218100	0.046900
C1901	C190	0.293900	0.170300	0.082600
C1911	C191	0.243000	0.126100	0.069800
C1921	C192	0.238200	0.081300	0.101760
C1931	C193	0.182200	0.034600	0.087100
C1941	C194	0.286200	0.079700	0.147700
C1951	C195	0.337400	0.121900	0.163200
C1961	C196	0.340600	0.167500	0.130400
C1971	C197	0.354500	0.247200	0.177000
C1981	C198	0.422400	0.289600	0.191300
C1991	C199	0.383000	0.327300	0.232600
C2001	C200	0.392500	0.118400	0.211800
C2011	C201	0.482400	0.096700	0.197000
C2021	C202	0.491000	0.044900	0.180400
C2031	C203	0.567800	0.025800	0.160700
C2041	C204	0.637200	0.061600	0.153900
C2051	C205	0.630200	0.113700	0.172000
C2061	C206	0.554400	0.130900	0.195780
C2071	C207	0.567100	0.176100	0.276000
C2081	C208	0.628100	0.203700	0.295500
C2091	C209	0.626400	0.205000	0.355600
C2101	C210	0.707000	0.151300	0.163600
C2111	C211	0.086100	0.978600	0.859900
C2121	C212	0.058700	0.965300	0.805700
C2131	C213	0.972300	0.964300	0.792400
C2141	C214	0.946100	0.954100	0.741000
C2151	C215	0.009400	0.945400	0.702200
C2161	C216	0.004800	0.984200	0.614000
C2171	C217	0.927700	0.023000	0.617000
C2181	C218	0.945000	0.080100	0.596400
C2191	C219	0.096000	0.942400	0.714800
C2201	C220	0.120500	0.952900	0.766800
C2211	C221	0.160500	0.922800	0.674000
C2221	C222	0.146500	0.863800	0.661500
C2231	C223	0.148900	0.826600	0.701000
C2241	C224	0.131700	0.772500	0.691600
C2251	C225	0.109500	0.756100	0.642100
C2261	C226	0.104000	0.793400	0.600400
C2271	C227	0.126800	0.846200	0.610300
C2281	C228	0.201100	0.880000	0.536500
C2291	C229	0.237700	0.934800	0.520400
C2301	C230	0.329300	0.922000	0.501000
C2311	C231	0.069100	0.775000	0.547300
C2321	C232	0.980800	0.751300	0.554000
C2331	C233	0.969200	0.695800	0.553100
C2341	C234	0.889800	0.673400	0.565700
C2351	C235	0.876300	0.614400	0.560800
C2361	C236	0.822700	0.705600	0.583700
C2371	C237	0.832300	0.761600	0.584300
C2381	C238	0.909400	0.783700	0.567100
C2391	C239	0.923000	0.862100	0.512400
C2401	C240	0.831200	0.869800	0.492200
C2411	C241	0.836600	0.896100	0.437200
C2421	C242	0.759500	0.796700	0.607400
C2431	C243	0.785500	0.816800	0.660900
C2441	C244	0.807000	0.779700	0.701200
C2451	C245	0.836700	0.798500	0.749000
C2461	C246	0.849700	0.851900	0.758000
C2471	C247	0.830600	0.889700	0.719000
C2481	C248	0.795000	0.871300	0.671900
C2491	C249	0.686700	0.927400	0.643500
C2501	C250	0.673200	0.975100	0.605600
C2511	C251	0.584500	0.001300	0.613800
C2521	C252	0.851200	0.947900	0.728300
C2531	C253	0.163800	0.612100	0.514400
C2541	C254	0.222000	0.644840	0.480760
C2551	C255	0.229900	0.634500	0.426450
C2561	C256	0.282500	0.665700	0.394700
C2571	C257	0.328700	0.708100	0.418000
C2581	C258	0.337600	0.776200	0.351800
C2591	C259	0.306600	0.825900	0.382400
C2601	C260	0.258000	0.866400	0.347300
C2611	C261	0.325200	0.716750	0.472400
C2621	C262	0.270300	0.685950	0.502600
C2631	C263	0.385600	0.756800	0.499300
C2641	C264	0.470900	0.729890	0.512200
C2651	C265	0.475000	0.690400	0.549800
C2661	C266	0.550700	0.663100	0.560500
C2671	C267	0.621600	0.673200	0.529700
C2681	C268	0.620600	0.712100	0.489900
C2691	C269	0.545600	0.742600	0.483900
C2701	C270	0.571500	0.834700	0.476200
C2711	C271	0.570200	0.879900	0.437300
C2721	C272	0.592500	0.932800	0.462000
C2731	C273	0.697900	0.718100	0.453100
C2741	C274	0.706100	0.670300	0.417400
C2751	C275	0.757000	0.626100	0.430200
C2761	C276	0.761800	0.581300	0.398240
C2771	C277	0.817800	0.534600	0.412900
C2781	C278	0.713800	0.579700	0.352300
C2791	C279	0.662600	0.621900	0.336800
C2801	C280	0.659400	0.667500	0.369600
C2811	C281	0.645500	0.747200	0.323000
C2821	C282	0.577600	0.789600	0.308700
C2831	C283	0.617000	0.827300	0.267400
C2841	C284	0.607500	0.618400	0.288200
C2851	C285	0.517600	0.596700	0.303000
C2861	C286	0.509000	0.544900	0.319600
C2871	C287	0.432200	0.525800	0.339300
C2881	C288	0.362800	0.561600	0.346100
C2891	C289	0.369800	0.613700	0.328000
C2901	C290	0.445600	0.630900	0.304220
C2911	C291	0.432900	0.676100	0.224000
C2921	C292	0.371900	0.703700	0.204500
C2931	C293	0.373600	0.705000	0.144400
C2941	C294	0.293000	0.651300	0.336400
C2951	C295	0.913900	0.478600	0.640100
C2961	C296	0.941300	0.465300	0.694300
C2971	C297	0.027700	0.464300	0.707600
C2981	C298	0.053900	0.454100	0.759000
C2991	C299	0.990600	0.445400	0.797800
C3001	C300	0.995200	0.484200	0.886000
C3011	C301	0.072300	0.523000	0.883000
C3021	C302	0.055000	0.580100	0.903600
C3031	C303	0.904000	0.442400	0.785200
C3041	C304	0.879500	0.452900	0.733200
C3051	C305	0.839500	0.422800	0.826000
C3061	C306	0.853500	0.363800	0.838500
C3071	C307	0.851100	0.326600	0.799000
C3081	C308	0.868300	0.272500	0.808400
C3091	C309	0.890500	0.256100	0.857900
C3101	C310	0.896000	0.293400	0.899600
C3111	C311	0.873200	0.346200	0.889700
C3121	C312	0.798900	0.380000	0.963500
C3131	C313	0.762300	0.434800	0.979600
C3141	C314	0.670700	0.422000	0.999000
C3151	C315	0.930900	0.275000	0.952700
C3161	C316	0.019200	0.251300	0.946000
C3171	C317	0.030800	0.195800	0.946900
C3181	C318	0.110200	0.173400	0.934300
C3191	C319	0.123700	0.114400	0.939200
C3201	C320	0.177300	0.205600	0.916300
C3211	C321	0.167700	0.261600	0.915700
C3221	C322	0.090600	0.283700	0.932900
C3231	C323	0.077000	0.362100	0.987600
C3241	C324	0.168800	0.369800	0.007800
C3251	C325	0.163400	0.396100	0.062800
C3261	C326	0.240500	0.296700	0.892600
C3271	C327	0.214500	0.316800	0.839100
C3281	C328	0.193000	0.279700	0.798800
C3291	C329	0.163300	0.298500	0.751000
C3301	C330	0.150300	0.351900	0.742000
C3311	C331	0.169400	0.389700	0.781000
C3321	C332	0.205000	0.371300	0.828100
C3331	C333	0.313300	0.427400	0.856500
C3341	C334	0.326800	0.475100	0.894400
C3351	C335	0.415500	0.501300	0.886200
C3361	C336	0.148800	0.447900	0.771700
O11	O1	0.121800	0.927170	0.994930
O21	O2	0.155800	0.875360	0.062200
O31	O3	0.381900	0.760970	0.887170
O41	O4	0.545500	0.713860	0.949980
O51	O5	0.606200	0.790530	0.856900
O61	O6	0.822900	0.003940	0.880880
O71	O7	0.859300	0.964240	0.955700
O81	O8	0.450400	0.818990	0.782810
O91	O9	0.970300	0.013820	0.104150
O101	O10	0.835000	0.018720	0.130020
O111	O11	0.016300	0.063000	0.349320
O121	O12	0.873200	0.117280	0.430590
O131	O13	0.081900	0.161550	0.432020
O141	O14	0.059700	0.416120	0.448600
O151	O15	0.197900	0.404260	0.434580
O161	O16	0.227900	0.091920	0.366820
O171	O17	0.878200	0.427170	0.505070
O181	O18	0.844200	0.375360	0.437800
O191	O19	0.618100	0.260970	0.612830
O201	O20	0.454500	0.213860	0.550020
O211	O21	0.393800	0.290530	0.643100
O221	O22	0.177100	0.503940	0.619120
O231	O23	0.140700	0.464240	0.544300
O241	O24	0.549600	0.318990	0.717190
O251	O25	0.029700	0.513820	0.395850
O261	O26	0.165000	0.518720	0.369980
O271	O27	0.983700	0.563000	0.150680
O281	O28	0.126800	0.617280	0.069410
O291	O29	0.918100	0.661550	0.067980
O301	O30	0.940300	0.916120	0.051400
O311	O31	0.802100	0.904260	0.065420
O321	O32	0.772100	0.591920	0.133180
O331	O33	0.878200	0.072830	0.005070
O341	O34	0.844200	0.124640	0.937800
O351	O35	0.618100	0.239030	0.112830
O361	O36	0.454500	0.286140	0.050020
O371	O37	0.393800	0.209470	0.143100
O381	O38	0.177100	0.996060	0.119120
O391	O39	0.140700	0.035760	0.044300
O401	O40	0.549600	0.181010	0.217190
O411	O41	0.029700	0.986180	0.895850
O421	O42	0.165000	0.981280	0.869980
O431	O43	0.983700	0.937000	0.650680
O441	O44	0.126800	0.882720	0.569410
O451	O45	0.918100	0.838450	0.567980
O461	O46	0.940300	0.583880	0.551400
O471	O47	0.802100	0.595740	0.565420
O481	O48	0.772100	0.908080	0.633180
O491	O49	0.121800	0.572830	0.494930
O501	O50	0.155800	0.624640	0.562200
O511	O51	0.381900	0.739030	0.387170
O521	O52	0.545500	0.786140	0.449980
O531	O53	0.606200	0.709470	0.356900
O541	O54	0.822900	0.496060	0.380880
O551	O55	0.859300	0.535760	0.455700
O561	O56	0.450400	0.681010	0.282810
O571	O57	0.970300	0.486180	0.604150
O581	O58	0.835000	0.481280	0.630020
O591	O59	0.016300	0.437000	0.849320
O601	O60	0.873200	0.382720	0.930590
O611	O61	0.081900	0.338450	0.932020
O621	O62	0.059700	0.083880	0.948600
O631	O63	0.197900	0.095740	0.934580
O641	O64	0.227900	0.408080	0.866820
