data_SARTIR_clean_PM
_symmetry_space_group_name_H-M	'P1'
_cell_length_a	9.611600
_cell_length_b	11.254200
_cell_length_c	12.556500
_cell_angle_alpha	103.502000
_cell_angle_beta	94.529800
_cell_angle_gamma	98.327200
_symmetry_Int_Tables_number 1

loop_
_symmetry_equiv_pos_as_xyz
'x,y,z'

loop_
_atom_site_label
_atom_site_type_symbol
_atom_site_fract_x
_atom_site_fract_y
_atom_site_fract_z
Ni11	Ni1	0.194790	0.303180	0.413210
O11	O1	0.198080	0.332570	0.277080
O21	O2	0.968440	0.354240	0.289510
O31	O3	0.998370	0.452260	0.510950
O41	O4	0.856560	0.179490	0.368390
N11	N1	0.396480	0.288600	0.452220
C11	C1	0.466770	0.381800	0.553390
C21	C2	0.433400	0.164150	0.460100
C31	C3	0.467810	0.327330	0.363890
C41	C4	0.079680	0.349630	0.234880
C51	C5	0.051380	0.336940	0.118240
C61	C6	0.162090	0.329160	0.047630
C71	C7	0.132380	0.314660	0.936030
C81	C8	0.240120	0.297520	0.864390
C91	C9	0.912250	0.339240	0.076350
C101	C10	0.120870	0.505150	0.492360
C111	C11	0.107990	0.629310	0.462720
C121	C12	0.989520	0.680580	0.486370
C131	C13	0.978200	0.788590	0.456200
C141	C14	0.852920	0.838980	0.473710
C151	C15	0.226550	0.687970	0.419290
Ni21	Ni2	0.902320	0.320400	0.408860
O51	O5	0.932050	0.300070	0.555430
O61	O6	0.158540	0.271470	0.541490
O71	O7	0.086120	0.170040	0.340050
O81	O8	0.227870	0.439300	0.488540
N21	N2	0.682660	0.302440	0.471690
C161	C16	0.631410	0.390800	0.566300
C171	C17	0.595730	0.177840	0.471920
C181	C18	0.629050	0.338220	0.373500
C191	C19	0.048470	0.280380	0.596940
C201	C20	0.074060	0.295560	0.713550
C211	C21	0.963880	0.308870	0.784430
C221	C22	0.992110	0.317110	0.895170
C231	C23	0.883200	0.329540	0.966090
C241	C24	0.211050	0.287320	0.754510
C251	C25	0.960730	0.128560	0.363550
C261	C26	0.955230	0.999220	0.389070
C271	C27	0.077740	0.955090	0.371970
C281	C28	0.093640	0.848690	0.406930
C291	C29	0.216160	0.797900	0.386860
C301	C30	0.839390	0.944900	0.437130
H11	H1	0.269020	0.327020	0.079110
H21	H2	0.346960	0.292090	0.893070
H31	H3	0.825260	0.347390	0.128540
H41	H4	0.857690	0.316060	0.753870
H51	H5	0.774400	0.327190	0.935360
H61	H6	0.296560	0.275060	0.701610
H71	H7	0.902200	0.631920	0.530970
H81	H8	0.764180	0.791570	0.517930
H91	H9	0.327050	0.645020	0.411670
H101	H10	0.165380	0.006250	0.329170
H111	H11	0.306900	0.845560	0.344430
H121	H12	0.739300	0.988450	0.444630
H131	H13	0.431750	0.368860	0.633280
H141	H14	0.457010	0.474020	0.535590
H151	H15	0.386610	0.089270	0.384490
H161	H16	0.385770	0.133450	0.532870
H171	H17	0.444070	0.423260	0.357470
H181	H18	0.423570	0.255090	0.286230
H191	H19	0.688800	0.492940	0.570890
H201	H20	0.659300	0.363010	0.644250
H211	H21	0.626250	0.151510	0.550020
H221	H22	0.621780	0.104100	0.402560
H231	H23	0.660370	0.273930	0.299930
H241	H24	0.681420	0.440890	0.375110
