data_SAXFII_clean_PM
_symmetry_space_group_name_H-M	'P1'
_cell_length_a	9.793900
_cell_length_b	21.688000
_cell_length_c	27.677000
_cell_angle_alpha	90.000000
_cell_angle_beta	90.000000
_cell_angle_gamma	90.000000
_symmetry_Int_Tables_number 1

loop_
_symmetry_equiv_pos_as_xyz
'x,y,z'

loop_
_atom_site_label
_atom_site_type_symbol
_atom_site_fract_x
_atom_site_fract_y
_atom_site_fract_z
Cd11	Cd1	0.328950	0.522710	0.356220
Cd21	Cd2	0.171050	0.477290	0.856220
Cd31	Cd3	0.671050	0.022710	0.143780
Cd41	Cd4	0.828950	0.977290	0.643780
Cd51	Cd5	0.796530	0.340910	0.458180
Cd61	Cd6	0.703470	0.659090	0.958180
Cd71	Cd7	0.203470	0.840910	0.041820
Cd81	Cd8	0.296530	0.159090	0.541820
H11	H1	0.096800	0.284800	0.199300
H21	H2	0.784100	0.180400	0.278000
H31	H3	0.677300	0.099900	0.239500
H41	H4	0.437200	0.362000	0.462900
H51	H5	0.329200	0.397100	0.431500
H61	H6	0.128400	0.411800	0.360900
H71	H7	0.954800	0.258700	0.281100
H81	H8	0.239400	0.378700	0.203300
H91	H9	0.929700	0.110400	0.131500
H101	H10	0.326200	0.460500	0.245400
H111	H11	0.035100	0.329600	0.321700
H121	H12	0.037500	0.193500	0.164800
H131	H13	0.475600	0.293700	0.397800
H141	H14	0.323500	0.290900	0.415300
H151	H15	0.361100	0.327600	0.368400
H161	H16	0.403200	0.715200	0.699300
H171	H17	0.715900	0.819600	0.778000
H181	H18	0.822700	0.900100	0.739500
H191	H19	0.062800	0.638000	0.962900
H201	H20	0.170800	0.602900	0.931500
H211	H21	0.371600	0.588200	0.860900
H221	H22	0.545200	0.741300	0.781100
H231	H23	0.260600	0.621300	0.703300
H241	H24	0.570300	0.889600	0.631500
H251	H25	0.173800	0.539500	0.745400
H261	H26	0.464900	0.670400	0.821700
H271	H27	0.462500	0.806500	0.664800
H281	H28	0.024400	0.706300	0.897800
H291	H29	0.176500	0.709100	0.915300
H301	H30	0.138900	0.672400	0.868400
H311	H31	0.903200	0.784800	0.300700
H321	H32	0.215900	0.680400	0.222000
H331	H33	0.322700	0.599900	0.260500
H341	H34	0.562800	0.862000	0.037100
H351	H35	0.670800	0.897100	0.068500
H361	H36	0.871600	0.911800	0.139100
H371	H37	0.045200	0.758700	0.218900
H381	H38	0.760600	0.878700	0.296700
H391	H39	0.070300	0.610400	0.368500
H401	H40	0.673800	0.960500	0.254600
H411	H41	0.964900	0.829600	0.178300
H421	H42	0.962500	0.693500	0.335200
H431	H43	0.524400	0.793700	0.102200
H441	H44	0.676500	0.790900	0.084700
H451	H45	0.638900	0.827600	0.131600
H461	H46	0.596800	0.215200	0.800700
H471	H47	0.284100	0.319600	0.722000
H481	H48	0.177300	0.400100	0.760500
H491	H49	0.937200	0.138000	0.537100
H501	H50	0.829200	0.102900	0.568500
H511	H51	0.628400	0.088200	0.639100
H521	H52	0.454800	0.241300	0.718900
H531	H53	0.739400	0.121300	0.796700
H541	H54	0.429700	0.389600	0.868500
H551	H55	0.826200	0.039500	0.754600
H561	H56	0.535100	0.170400	0.678300
H571	H57	0.537500	0.306500	0.835200
H581	H58	0.975600	0.206300	0.602200
H591	H59	0.823500	0.209100	0.584700
H601	H60	0.861100	0.172400	0.631600
H611	H61	0.632700	0.204000	0.425700
H621	H62	0.494200	0.172500	0.439800
H631	H63	0.749400	0.134900	0.476500
H641	H64	0.668700	0.099100	0.436400
H651	H65	0.610500	0.102700	0.489100
H661	H66	0.867300	0.796000	0.925700
H671	H67	0.005800	0.827500	0.939800
H681	H68	0.750600	0.865100	0.976500
H691	H69	0.831300	0.900900	0.936400
H701	H70	0.889500	0.897300	0.989100
H711	H71	0.367300	0.704000	0.074300
H721	H72	0.505800	0.672500	0.060200
H731	H73	0.250600	0.634900	0.023500
H741	H74	0.331300	0.599100	0.063600
H751	H75	0.389500	0.602700	0.010900
H761	H76	0.132700	0.296000	0.574300
H771	H77	0.994200	0.327500	0.560200
H781	H78	0.249400	0.365100	0.523500
H791	H79	0.168700	0.400900	0.563600
H801	H80	0.110500	0.397300	0.510900
C11	C1	0.722900	0.450630	0.393870
C21	C2	0.626300	0.485750	0.370500
C31	C3	0.523100	0.414230	0.410680
C41	C4	0.125300	0.344250	0.257270
C51	C5	0.920000	0.198210	0.225140
C61	C6	0.068500	0.290990	0.231010
C71	C7	0.636800	0.537400	0.336120
C81	C8	0.872500	0.457050	0.398030
C91	C9	0.813500	0.168000	0.247580
C101	C10	0.750900	0.119010	0.224440
C111	C11	0.413800	0.374000	0.430130
C121	C12	0.150700	0.405200	0.328650
C131	C13	0.981100	0.251830	0.249280
C141	C14	0.214500	0.384600	0.235350
C151	C15	0.898500	0.125680	0.160920
C161	C16	0.266800	0.433700	0.261140
C171	C17	0.094400	0.355700	0.305270
C181	C18	0.964200	0.175300	0.180720
C191	C19	0.391500	0.316200	0.400200
C201	C20	0.777100	0.549370	0.893870
C211	C21	0.873700	0.514250	0.870500
C221	C22	0.976900	0.585770	0.910680
C231	C23	0.374700	0.655750	0.757270
C241	C24	0.580000	0.801790	0.725140
C251	C25	0.431500	0.709010	0.731010
C261	C26	0.863200	0.462600	0.836120
C271	C27	0.627500	0.542950	0.898030
C281	C28	0.686500	0.832000	0.747580
C291	C29	0.749100	0.880990	0.724440
C301	C30	0.086200	0.626000	0.930130
C311	C31	0.349300	0.594800	0.828650
C321	C32	0.518900	0.748170	0.749280
C331	C33	0.285500	0.615400	0.735350
C341	C34	0.601500	0.874320	0.660920
C351	C35	0.233200	0.566300	0.761140
C361	C36	0.405600	0.644300	0.805270
C371	C37	0.535800	0.824700	0.680720
C381	C38	0.108500	0.683800	0.900200
C391	C39	0.277100	0.950630	0.106130
C401	C40	0.373700	0.985750	0.129500
C411	C41	0.476900	0.914230	0.089320
C421	C42	0.874700	0.844250	0.242730
C431	C43	0.080000	0.698210	0.274860
C441	C44	0.931500	0.790990	0.268990
C451	C45	0.363200	0.037400	0.163880
C461	C46	0.127500	0.957050	0.101970
C471	C47	0.186500	0.668000	0.252420
C481	C48	0.249100	0.619010	0.275560
C491	C49	0.586200	0.874000	0.069870
C501	C50	0.849300	0.905200	0.171350
C511	C51	0.018900	0.751830	0.250720
C521	C52	0.785500	0.884600	0.264650
C531	C53	0.101500	0.625680	0.339080
C541	C54	0.733200	0.933700	0.238860
C551	C55	0.905600	0.855700	0.194730
C561	C56	0.035800	0.675300	0.319280
C571	C57	0.608500	0.816200	0.099800
C581	C58	0.222900	0.049370	0.606130
C591	C59	0.126300	0.014250	0.629500
C601	C60	0.023100	0.085770	0.589320
C611	C61	0.625300	0.155750	0.742730
C621	C62	0.420000	0.301790	0.774860
C631	C63	0.568500	0.209010	0.768990
C641	C64	0.136800	0.962600	0.663880
C651	C65	0.372500	0.042950	0.601970
C661	C66	0.313500	0.332000	0.752420
C671	C67	0.250900	0.380990	0.775560
C681	C68	0.913800	0.126000	0.569870
C691	C69	0.650700	0.094800	0.671350
C701	C70	0.481100	0.248170	0.750720
C711	C71	0.714500	0.115400	0.764650
C721	C72	0.398500	0.374320	0.839080
C731	C73	0.766800	0.066300	0.738860
C741	C74	0.594400	0.144300	0.694730
C751	C75	0.464200	0.324700	0.819280
C761	C76	0.891500	0.183800	0.599800
C771	C77	0.598500	0.303740	0.541270
C781	C78	0.569900	0.226520	0.493020
C791	C79	0.655900	0.363040	0.558420
C801	C80	0.584400	0.183260	0.451600
C811	C81	0.498300	0.265770	0.559970
C821	C82	0.414900	0.267890	0.604250
C831	C83	0.660200	0.124600	0.464600
C841	C84	0.901500	0.696260	0.041270
C851	C85	0.930100	0.773480	0.993020
C861	C86	0.844100	0.636960	0.058420
C871	C87	0.915600	0.816740	0.951600
C881	C88	0.001700	0.734230	0.059970
C891	C89	0.085100	0.732110	0.104250
C901	C90	0.839800	0.875400	0.964600
C911	C91	0.401500	0.803740	0.958730
C921	C92	0.430100	0.726520	0.006980
C931	C93	0.344100	0.863040	0.941580
C941	C94	0.415600	0.683260	0.048400
C951	C95	0.501700	0.765770	0.940030
C961	C96	0.585100	0.767890	0.895750
C971	C97	0.339800	0.624600	0.035400
C981	C98	0.098500	0.196260	0.458730
C991	C99	0.069900	0.273480	0.506980
C1001	C100	0.155900	0.136960	0.441580
C1011	C101	0.084400	0.316740	0.548400
C1021	C102	0.998300	0.234230	0.440030
C1031	C103	0.914900	0.232110	0.395750
C1041	C104	0.160200	0.375400	0.535400
N11	N1	0.657200	0.405140	0.418840
N21	N2	0.500500	0.462990	0.381500
N31	N3	0.791200	0.098040	0.181790
N41	N4	0.237100	0.444740	0.306930
N51	N5	0.842800	0.594860	0.918840
N61	N6	0.999500	0.537010	0.881500
N71	N7	0.708800	0.901960	0.681790
N81	N8	0.262900	0.555260	0.806930
N91	N9	0.342800	0.905140	0.081160
N101	N10	0.499500	0.962990	0.118500
N111	N11	0.208800	0.598040	0.318210
N121	N12	0.762900	0.944740	0.193070
N131	N13	0.157200	0.094860	0.581160
N141	N14	0.000500	0.037010	0.618500
N151	N15	0.291200	0.401960	0.818210
N161	N16	0.737100	0.055260	0.693070
N171	N17	0.643300	0.278620	0.498740
N181	N18	0.481700	0.217100	0.529090
N191	N19	0.856700	0.721380	0.998740
N201	N20	0.018300	0.782900	0.029090
N211	N21	0.356700	0.778620	0.001260
N221	N22	0.518300	0.717100	0.970910
N231	N23	0.143300	0.221380	0.501260
N241	N24	0.981700	0.282900	0.470910
O11	O1	0.928900	0.500950	0.374900
O21	O2	0.936100	0.421410	0.424670
O31	O3	0.534000	0.557930	0.316780
O41	O4	0.758800	0.558840	0.327040
O51	O5	0.571100	0.499050	0.874900
O61	O6	0.563900	0.578590	0.924670
O71	O7	0.966000	0.442070	0.816780
O81	O8	0.741200	0.441160	0.827040
O91	O9	0.071100	0.000950	0.125100
O101	O10	0.063900	0.921410	0.075330
O111	O11	0.466000	0.057930	0.183220
O121	O12	0.241200	0.058840	0.172960
O131	O13	0.428900	0.999050	0.625100
O141	O14	0.436100	0.078590	0.575330
O151	O15	0.034000	0.942070	0.683220
O161	O16	0.258800	0.941160	0.672960
O171	O17	0.432200	0.314080	0.634040
O181	O18	0.751600	0.386800	0.534540
O191	O19	0.330100	0.227720	0.612900
O201	O20	0.604600	0.386730	0.596060
O211	O21	0.067800	0.685920	0.134040
O221	O22	0.748400	0.613200	0.034540
O231	O23	0.169900	0.772280	0.112900
O241	O24	0.895400	0.613270	0.096060
O251	O25	0.567800	0.814080	0.865960
O261	O26	0.248400	0.886800	0.965460
O271	O27	0.669900	0.727720	0.887100
O281	O28	0.395400	0.886730	0.903940
O291	O29	0.932200	0.185920	0.365960
O301	O30	0.251600	0.113200	0.465460
O311	O31	0.830100	0.272280	0.387100
O321	O32	0.104600	0.113270	0.403940
Cd91	Cd9	0.203470	0.659090	0.541820
Cd101	Cd10	0.296530	0.340910	0.041820
Cd111	Cd11	0.796530	0.159090	0.958180
Cd121	Cd12	0.703470	0.840910	0.458180
Cd131	Cd13	0.671050	0.477290	0.643780
Cd141	Cd14	0.828950	0.522710	0.143780
Cd151	Cd15	0.328950	0.977290	0.856220
Cd161	Cd16	0.171050	0.022710	0.356220
H811	H81	0.367300	0.796000	0.574300
H821	H82	0.505800	0.827500	0.560200
H831	H83	0.250600	0.865100	0.523500
H841	H84	0.331300	0.900900	0.563600
H851	H85	0.389500	0.897300	0.510900
H861	H86	0.132700	0.204000	0.074300
H871	H87	0.994200	0.172500	0.060200
H881	H88	0.249400	0.134900	0.023500
H891	H89	0.168700	0.099100	0.063600
H901	H90	0.110500	0.102700	0.010900
H911	H91	0.632700	0.296000	0.925700
H921	H92	0.494200	0.327500	0.939800
H931	H93	0.749400	0.365100	0.976500
H941	H94	0.668700	0.400900	0.936400
H951	H95	0.610500	0.397300	0.989100
H961	H96	0.867300	0.704000	0.425700
H971	H97	0.005800	0.672500	0.439800
H981	H98	0.750600	0.634900	0.476500
H991	H99	0.831300	0.599100	0.436400
H1001	H100	0.889500	0.602700	0.489100
H1011	H101	0.903200	0.715200	0.800700
H1021	H102	0.215900	0.819600	0.722000
H1031	H103	0.322700	0.900100	0.760500
H1041	H104	0.562800	0.638000	0.537100
H1051	H105	0.670800	0.602900	0.568500
H1061	H106	0.871600	0.588200	0.639100
H1071	H107	0.045200	0.741300	0.718900
H1081	H108	0.760600	0.621300	0.796700
H1091	H109	0.070300	0.889600	0.868500
H1101	H110	0.673800	0.539500	0.754600
H1111	H111	0.964900	0.670400	0.678300
H1121	H112	0.962500	0.806500	0.835200
H1131	H113	0.524400	0.706300	0.602200
H1141	H114	0.676500	0.709100	0.584700
H1151	H115	0.638900	0.672400	0.631600
H1161	H116	0.596800	0.284800	0.300700
H1171	H117	0.284100	0.180400	0.222000
H1181	H118	0.177300	0.099900	0.260500
H1191	H119	0.937200	0.362000	0.037100
H1201	H120	0.829200	0.397100	0.068500
H1211	H121	0.628400	0.411800	0.139100
H1221	H122	0.454800	0.258700	0.218900
H1231	H123	0.739400	0.378700	0.296700
H1241	H124	0.429700	0.110400	0.368500
H1251	H125	0.826200	0.460500	0.254600
H1261	H126	0.535100	0.329600	0.178300
H1271	H127	0.537500	0.193500	0.335200
H1281	H128	0.975600	0.293700	0.102200
H1291	H129	0.823500	0.290900	0.084700
H1301	H130	0.861100	0.327600	0.131600
H1311	H131	0.096800	0.215200	0.699300
H1321	H132	0.784100	0.319600	0.778000
H1331	H133	0.677300	0.400100	0.739500
H1341	H134	0.437200	0.138000	0.962900
H1351	H135	0.329200	0.102900	0.931500
H1361	H136	0.128400	0.088200	0.860900
H1371	H137	0.954800	0.241300	0.781100
H1381	H138	0.239400	0.121300	0.703300
H1391	H139	0.929700	0.389600	0.631500
H1401	H140	0.326200	0.039500	0.745400
H1411	H141	0.035100	0.170400	0.821700
H1421	H142	0.037500	0.306500	0.664800
H1431	H143	0.475600	0.206300	0.897800
H1441	H144	0.323500	0.209100	0.915300
H1451	H145	0.361100	0.172400	0.868400
H1461	H146	0.403200	0.784800	0.199300
H1471	H147	0.715900	0.680400	0.278000
H1481	H148	0.822700	0.599900	0.239500
H1491	H149	0.062800	0.862000	0.462900
H1501	H150	0.170800	0.897100	0.431500
H1511	H151	0.371600	0.911800	0.360900
H1521	H152	0.545200	0.758700	0.281100
H1531	H153	0.260600	0.878700	0.203300
H1541	H154	0.570300	0.610400	0.131500
H1551	H155	0.173800	0.960500	0.245400
H1561	H156	0.464900	0.829600	0.321700
H1571	H157	0.462500	0.693500	0.164800
H1581	H158	0.024400	0.793700	0.397800
H1591	H159	0.176500	0.790900	0.415300
H1601	H160	0.138900	0.827600	0.368400
C1051	C105	0.401500	0.696260	0.458730
C1061	C106	0.430100	0.773480	0.506980
C1071	C107	0.344100	0.636960	0.441580
C1081	C108	0.415600	0.816740	0.548400
C1091	C109	0.501700	0.734230	0.440030
C1101	C110	0.585100	0.732110	0.395750
C1111	C111	0.339800	0.875400	0.535400
C1121	C112	0.098500	0.303740	0.958730
C1131	C113	0.069900	0.226520	0.006980
C1141	C114	0.155900	0.363040	0.941580
C1151	C115	0.084400	0.183260	0.048400
C1161	C116	0.998300	0.265770	0.940030
C1171	C117	0.914900	0.267890	0.895750
C1181	C118	0.160200	0.124600	0.035400
C1191	C119	0.598500	0.196260	0.041270
C1201	C120	0.569900	0.273480	0.993020
C1211	C121	0.655900	0.136960	0.058420
C1221	C122	0.584400	0.316740	0.951600
C1231	C123	0.498300	0.234230	0.059970
C1241	C124	0.414900	0.232110	0.104250
C1251	C125	0.660200	0.375400	0.964600
C1261	C126	0.901500	0.803740	0.541270
C1271	C127	0.930100	0.726520	0.493020
C1281	C128	0.844100	0.863040	0.558420
C1291	C129	0.915600	0.683260	0.451600
C1301	C130	0.001700	0.765770	0.559970
C1311	C131	0.085100	0.767890	0.604250
C1321	C132	0.839800	0.624600	0.464600
C1331	C133	0.277100	0.549370	0.606130
C1341	C134	0.373700	0.514250	0.629500
C1351	C135	0.476900	0.585770	0.589320
C1361	C136	0.874700	0.655750	0.742730
C1371	C137	0.080000	0.801790	0.774860
C1381	C138	0.931500	0.709010	0.768990
C1391	C139	0.363200	0.462600	0.663880
C1401	C140	0.127500	0.542950	0.601970
C1411	C141	0.186500	0.832000	0.752420
C1421	C142	0.249100	0.880990	0.775560
C1431	C143	0.586200	0.626000	0.569870
C1441	C144	0.849300	0.594800	0.671350
C1451	C145	0.018900	0.748170	0.750720
C1461	C146	0.785500	0.615400	0.764650
C1471	C147	0.101500	0.874320	0.839080
C1481	C148	0.733200	0.566300	0.738860
C1491	C149	0.905600	0.644300	0.694730
C1501	C150	0.035800	0.824700	0.819280
C1511	C151	0.608500	0.683800	0.599800
C1521	C152	0.222900	0.450630	0.106130
C1531	C153	0.126300	0.485750	0.129500
C1541	C154	0.023100	0.414230	0.089320
C1551	C155	0.625300	0.344250	0.242730
C1561	C156	0.420000	0.198210	0.274860
C1571	C157	0.568500	0.290990	0.268990
C1581	C158	0.136800	0.537400	0.163880
C1591	C159	0.372500	0.457050	0.101970
C1601	C160	0.313500	0.168000	0.252420
C1611	C161	0.250900	0.119010	0.275560
C1621	C162	0.913800	0.374000	0.069870
C1631	C163	0.650700	0.405200	0.171350
C1641	C164	0.481100	0.251830	0.250720
C1651	C165	0.714500	0.384600	0.264650
C1661	C166	0.398500	0.125680	0.339080
C1671	C167	0.766800	0.433700	0.238860
C1681	C168	0.594400	0.355700	0.194730
C1691	C169	0.464200	0.175300	0.319280
C1701	C170	0.891500	0.316200	0.099800
C1711	C171	0.722900	0.049370	0.893870
C1721	C172	0.626300	0.014250	0.870500
C1731	C173	0.523100	0.085770	0.910680
C1741	C174	0.125300	0.155750	0.757270
C1751	C175	0.920000	0.301790	0.725140
C1761	C176	0.068500	0.209010	0.731010
C1771	C177	0.636800	0.962600	0.836120
C1781	C178	0.872500	0.042950	0.898030
C1791	C179	0.813500	0.332000	0.747580
C1801	C180	0.750900	0.380990	0.724440
C1811	C181	0.413800	0.126000	0.930130
C1821	C182	0.150700	0.094800	0.828650
C1831	C183	0.981100	0.248170	0.749280
C1841	C184	0.214500	0.115400	0.735350
C1851	C185	0.898500	0.374320	0.660920
C1861	C186	0.266800	0.066300	0.761140
C1871	C187	0.094400	0.144300	0.805270
C1881	C188	0.964200	0.324700	0.680720
C1891	C189	0.391500	0.183800	0.900200
C1901	C190	0.777100	0.950630	0.393870
C1911	C191	0.873700	0.985750	0.370500
C1921	C192	0.976900	0.914230	0.410680
C1931	C193	0.374700	0.844250	0.257270
C1941	C194	0.580000	0.698210	0.225140
C1951	C195	0.431500	0.790990	0.231010
C1961	C196	0.863200	0.037400	0.336120
C1971	C197	0.627500	0.957050	0.398030
C1981	C198	0.686500	0.668000	0.247580
C1991	C199	0.749100	0.619010	0.224440
C2001	C200	0.086200	0.874000	0.430130
C2011	C201	0.349300	0.905200	0.328650
C2021	C202	0.518900	0.751830	0.249280
C2031	C203	0.285500	0.884600	0.235350
C2041	C204	0.601500	0.625680	0.160920
C2051	C205	0.233200	0.933700	0.261140
C2061	C206	0.405600	0.855700	0.305270
C2071	C207	0.535800	0.675300	0.180720
C2081	C208	0.108500	0.816200	0.400200
N251	N25	0.356700	0.721380	0.501260
N261	N26	0.518300	0.782900	0.470910
N271	N27	0.143300	0.278620	0.001260
N281	N28	0.981700	0.217100	0.970910
N291	N29	0.643300	0.221380	0.998740
N301	N30	0.481700	0.282900	0.029090
N311	N31	0.856700	0.778620	0.498740
N321	N32	0.018300	0.717100	0.529090
N331	N33	0.342800	0.594860	0.581160
N341	N34	0.499500	0.537010	0.618500
N351	N35	0.208800	0.901960	0.818210
N361	N36	0.762900	0.555260	0.693070
N371	N37	0.157200	0.405140	0.081160
N381	N38	0.000500	0.462990	0.118500
N391	N39	0.291200	0.098040	0.318210
N401	N40	0.737100	0.444740	0.193070
N411	N41	0.657200	0.094860	0.918840
N421	N42	0.500500	0.037010	0.881500
N431	N43	0.791200	0.401960	0.681790
N441	N44	0.237100	0.055260	0.806930
N451	N45	0.842800	0.905140	0.418840
N461	N46	0.999500	0.962990	0.381500
N471	N47	0.708800	0.598040	0.181790
N481	N48	0.262900	0.944740	0.306930
O331	O33	0.567800	0.685920	0.365960
O341	O34	0.248400	0.613200	0.465460
O351	O35	0.669900	0.772280	0.387100
O361	O36	0.395400	0.613270	0.403940
O371	O37	0.932200	0.314080	0.865960
O381	O38	0.251600	0.386800	0.965460
O391	O39	0.830100	0.227720	0.887100
O401	O40	0.104600	0.386730	0.903940
O411	O41	0.432200	0.185920	0.134040
O421	O42	0.751600	0.113200	0.034540
O431	O43	0.330100	0.272280	0.112900
O441	O44	0.604600	0.113270	0.096060
O451	O45	0.067800	0.814080	0.634040
O461	O46	0.748400	0.886800	0.534540
O471	O47	0.169900	0.727720	0.612900
O481	O48	0.895400	0.886730	0.596060
O491	O49	0.071100	0.499050	0.625100
O501	O50	0.063900	0.578590	0.575330
O511	O51	0.466000	0.442070	0.683220
O521	O52	0.241200	0.441160	0.672960
O531	O53	0.428900	0.500950	0.125100
O541	O54	0.436100	0.421410	0.075330
O551	O55	0.034000	0.557930	0.183220
O561	O56	0.258800	0.558840	0.172960
O571	O57	0.928900	0.999050	0.874900
O581	O58	0.936100	0.078590	0.924670
O591	O59	0.534000	0.942070	0.816780
O601	O60	0.758800	0.941160	0.827040
O611	O61	0.571100	0.000950	0.374900
O621	O62	0.563900	0.921410	0.424670
O631	O63	0.966000	0.057930	0.316780
O641	O64	0.741200	0.058840	0.327040
