data_SAXRIS_clean_PM
_symmetry_space_group_name_H-M	'P1'
_cell_length_a	20.404000
_cell_length_b	20.404000
_cell_length_c	20.404000
_cell_angle_alpha	90.000000
_cell_angle_beta	90.000000
_cell_angle_gamma	90.000000
_symmetry_Int_Tables_number 1

loop_
_symmetry_equiv_pos_as_xyz
'x,y,z'

loop_
_atom_site_label
_atom_site_type_symbol
_atom_site_fract_x
_atom_site_fract_y
_atom_site_fract_z
Mo11	Mo1	0.108940	0.149130	0.946170
Mo21	Mo2	0.006990	0.192210	0.008530
P11	P1	0.265400	0.152300	0.987900
Na11	Na1	0.149600	0.257600	0.110000
O11	O1	0.025400	0.107400	0.968800
O21	O2	0.097300	0.223800	0.003300
O31	O3	0.142700	0.100800	0.042000
O41	O4	0.208900	0.175100	0.946300
O51	O5	0.142800	0.054600	0.926000
O61	O6	0.266700	0.186700	0.055300
O71	O7	0.330900	0.170800	0.951500
O81	O8	0.267600	0.078000	0.994400
Mo31	Mo3	0.391060	0.350870	0.946170
Mo41	Mo4	0.493010	0.307790	0.008530
P21	P2	0.234600	0.347700	0.987900
Na21	Na2	0.350400	0.242400	0.110000
O91	O9	0.474600	0.392600	0.968800
O101	O10	0.402700	0.276200	0.003300
O111	O11	0.357300	0.399200	0.042000
O121	O12	0.291100	0.324900	0.946300
O131	O13	0.357200	0.445400	0.926000
O141	O14	0.233300	0.313300	0.055300
O151	O15	0.169100	0.329200	0.951500
O161	O16	0.232400	0.422000	0.994400
Mo51	Mo5	0.391060	0.149130	0.553830
Mo61	Mo6	0.493010	0.192210	0.491470
P31	P3	0.234600	0.152300	0.512100
Na31	Na3	0.350400	0.257600	0.390000
O171	O17	0.474600	0.107400	0.531200
O181	O18	0.402700	0.223800	0.496700
O191	O19	0.357300	0.100800	0.458000
O201	O20	0.291100	0.175100	0.553700
O211	O21	0.357200	0.054600	0.574000
O221	O22	0.233300	0.186700	0.444700
O231	O23	0.169100	0.170800	0.548500
O241	O24	0.232400	0.078000	0.505600
Mo71	Mo7	0.108940	0.350870	0.553830
Mo81	Mo8	0.006990	0.307790	0.491470
P41	P4	0.265400	0.347700	0.512100
Na41	Na4	0.149600	0.242400	0.390000
O251	O25	0.025400	0.392600	0.531200
O261	O26	0.097300	0.276200	0.496700
O271	O27	0.142700	0.399200	0.458000
O281	O28	0.208900	0.324900	0.553700
O291	O29	0.142800	0.445400	0.574000
O301	O30	0.266700	0.313300	0.444700
O311	O31	0.330900	0.329200	0.548500
O321	O32	0.267600	0.422000	0.505600
Mo91	Mo9	0.946170	0.108940	0.149130
Mo101	Mo10	0.008530	0.006990	0.192210
P51	P5	0.987900	0.265400	0.152300
Na51	Na5	0.110000	0.149600	0.257600
O331	O33	0.968800	0.025400	0.107400
O341	O34	0.003300	0.097300	0.223800
O351	O35	0.042000	0.142700	0.100800
O361	O36	0.946300	0.208900	0.175100
O371	O37	0.926000	0.142800	0.054600
O381	O38	0.055300	0.266700	0.186700
O391	O39	0.951500	0.330900	0.170800
O401	O40	0.994400	0.267600	0.078000
Mo111	Mo11	0.946170	0.391060	0.350870
Mo121	Mo12	0.008530	0.493010	0.307790
P61	P6	0.987900	0.234600	0.347700
Na61	Na6	0.110000	0.350400	0.242400
O411	O41	0.968800	0.474600	0.392600
O421	O42	0.003300	0.402700	0.276200
O431	O43	0.042000	0.357300	0.399200
O441	O44	0.946300	0.291100	0.324900
O451	O45	0.926000	0.357200	0.445400
O461	O46	0.055300	0.233300	0.313300
O471	O47	0.951500	0.169100	0.329200
O481	O48	0.994400	0.232400	0.422000
Mo131	Mo13	0.553830	0.391060	0.149130
Mo141	Mo14	0.491470	0.493010	0.192210
P71	P7	0.512100	0.234600	0.152300
Na71	Na7	0.390000	0.350400	0.257600
O491	O49	0.531200	0.474600	0.107400
O501	O50	0.496700	0.402700	0.223800
O511	O51	0.458000	0.357300	0.100800
O521	O52	0.553700	0.291100	0.175100
O531	O53	0.574000	0.357200	0.054600
O541	O54	0.444700	0.233300	0.186700
O551	O55	0.548500	0.169100	0.170800
O561	O56	0.505600	0.232400	0.078000
Mo151	Mo15	0.553830	0.108940	0.350870
Mo161	Mo16	0.491470	0.006990	0.307790
P81	P8	0.512100	0.265400	0.347700
Na81	Na8	0.390000	0.149600	0.242400
O571	O57	0.531200	0.025400	0.392600
O581	O58	0.496700	0.097300	0.276200
O591	O59	0.458000	0.142700	0.399200
O601	O60	0.553700	0.208900	0.324900
O611	O61	0.574000	0.142800	0.445400
O621	O62	0.444700	0.266700	0.313300
O631	O63	0.548500	0.330900	0.329200
O641	O64	0.505600	0.267600	0.422000
Mo171	Mo17	0.149130	0.946170	0.108940
Mo181	Mo18	0.192210	0.008530	0.006990
P91	P9	0.152300	0.987900	0.265400
Na91	Na9	0.257600	0.110000	0.149600
O651	O65	0.107400	0.968800	0.025400
O661	O66	0.223800	0.003300	0.097300
O671	O67	0.100800	0.042000	0.142700
O681	O68	0.175100	0.946300	0.208900
O691	O69	0.054600	0.926000	0.142800
O701	O70	0.186700	0.055300	0.266700
O711	O71	0.170800	0.951500	0.330900
O721	O72	0.078000	0.994400	0.267600
Mo191	Mo19	0.350870	0.946170	0.391060
Mo201	Mo20	0.307790	0.008530	0.493010
P101	P10	0.347700	0.987900	0.234600
Na101	Na10	0.242400	0.110000	0.350400
O731	O73	0.392600	0.968800	0.474600
O741	O74	0.276200	0.003300	0.402700
O751	O75	0.399200	0.042000	0.357300
O761	O76	0.324900	0.946300	0.291100
O771	O77	0.445400	0.926000	0.357200
O781	O78	0.313300	0.055300	0.233300
O791	O79	0.329200	0.951500	0.169100
O801	O80	0.422000	0.994400	0.232400
Mo211	Mo21	0.149130	0.553830	0.391060
Mo221	Mo22	0.192210	0.491470	0.493010
P111	P11	0.152300	0.512100	0.234600
Na111	Na11	0.257600	0.390000	0.350400
O811	O81	0.107400	0.531200	0.474600
O821	O82	0.223800	0.496700	0.402700
O831	O83	0.100800	0.458000	0.357300
O841	O84	0.175100	0.553700	0.291100
O851	O85	0.054600	0.574000	0.357200
O861	O86	0.186700	0.444700	0.233300
O871	O87	0.170800	0.548500	0.169100
O881	O88	0.078000	0.505600	0.232400
Mo231	Mo23	0.350870	0.553830	0.108940
Mo241	Mo24	0.307790	0.491470	0.006990
P121	P12	0.347700	0.512100	0.265400
Na121	Na12	0.242400	0.390000	0.149600
O891	O89	0.392600	0.531200	0.025400
O901	O90	0.276200	0.496700	0.097300
O911	O91	0.399200	0.458000	0.142700
O921	O92	0.324900	0.553700	0.208900
O931	O93	0.445400	0.574000	0.142800
O941	O94	0.313300	0.444700	0.266700
O951	O95	0.329200	0.548500	0.330900
O961	O96	0.422000	0.505600	0.267600
Mo251	Mo25	0.891060	0.850870	0.053830
Mo261	Mo26	0.993010	0.807790	0.991470
P131	P13	0.734600	0.847700	0.012100
Na131	Na13	0.850400	0.742400	0.890000
O971	O97	0.974600	0.892600	0.031200
O981	O98	0.902700	0.776200	0.996700
O991	O99	0.857300	0.899200	0.958000
O1001	O100	0.791100	0.824900	0.053700
O1011	O101	0.857200	0.945400	0.074000
O1021	O102	0.733300	0.813300	0.944700
O1031	O103	0.669100	0.829200	0.048500
O1041	O104	0.732400	0.922000	0.005600
Mo271	Mo27	0.608940	0.649130	0.053830
Mo281	Mo28	0.506990	0.692210	0.991470
P141	P14	0.765400	0.652300	0.012100
Na141	Na14	0.649600	0.757600	0.890000
O1051	O105	0.525400	0.607400	0.031200
O1061	O106	0.597300	0.723800	0.996700
O1071	O107	0.642700	0.600800	0.958000
O1081	O108	0.708900	0.675100	0.053700
O1091	O109	0.642800	0.554600	0.074000
O1101	O110	0.766700	0.686700	0.944700
O1111	O111	0.830900	0.670800	0.048500
O1121	O112	0.767600	0.578000	0.005600
Mo291	Mo29	0.608940	0.850870	0.446170
Mo301	Mo30	0.506990	0.807790	0.508530
P151	P15	0.765400	0.847700	0.487900
Na151	Na15	0.649600	0.742400	0.610000
O1131	O113	0.525400	0.892600	0.468800
O1141	O114	0.597300	0.776200	0.503300
O1151	O115	0.642700	0.899200	0.542000
O1161	O116	0.708900	0.824900	0.446300
O1171	O117	0.642800	0.945400	0.426000
O1181	O118	0.766700	0.813300	0.555300
O1191	O119	0.830900	0.829200	0.451500
O1201	O120	0.767600	0.922000	0.494400
Mo311	Mo31	0.891060	0.649130	0.446170
Mo321	Mo32	0.993010	0.692210	0.508530
P161	P16	0.734600	0.652300	0.487900
Na161	Na16	0.850400	0.757600	0.610000
O1211	O121	0.974600	0.607400	0.468800
O1221	O122	0.902700	0.723800	0.503300
O1231	O123	0.857300	0.600800	0.542000
O1241	O124	0.791100	0.675100	0.446300
O1251	O125	0.857200	0.554600	0.426000
O1261	O126	0.733300	0.686700	0.555300
O1271	O127	0.669100	0.670800	0.451500
O1281	O128	0.732400	0.578000	0.494400
Mo331	Mo33	0.053830	0.891060	0.850870
Mo341	Mo34	0.991470	0.993010	0.807790
P171	P17	0.012100	0.734600	0.847700
Na171	Na17	0.890000	0.850400	0.742400
O1291	O129	0.031200	0.974600	0.892600
O1301	O130	0.996700	0.902700	0.776200
O1311	O131	0.958000	0.857300	0.899200
O1321	O132	0.053700	0.791100	0.824900
O1331	O133	0.074000	0.857200	0.945400
O1341	O134	0.944700	0.733300	0.813300
O1351	O135	0.048500	0.669100	0.829200
O1361	O136	0.005600	0.732400	0.922000
Mo351	Mo35	0.053830	0.608940	0.649130
Mo361	Mo36	0.991470	0.506990	0.692210
P181	P18	0.012100	0.765400	0.652300
Na181	Na18	0.890000	0.649600	0.757600
O1371	O137	0.031200	0.525400	0.607400
O1381	O138	0.996700	0.597300	0.723800
O1391	O139	0.958000	0.642700	0.600800
O1401	O140	0.053700	0.708900	0.675100
O1411	O141	0.074000	0.642800	0.554600
O1421	O142	0.944700	0.766700	0.686700
O1431	O143	0.048500	0.830900	0.670800
O1441	O144	0.005600	0.767600	0.578000
Mo371	Mo37	0.446170	0.608940	0.850870
Mo381	Mo38	0.508530	0.506990	0.807790
P191	P19	0.487900	0.765400	0.847700
Na191	Na19	0.610000	0.649600	0.742400
O1451	O145	0.468800	0.525400	0.892600
O1461	O146	0.503300	0.597300	0.776200
O1471	O147	0.542000	0.642700	0.899200
O1481	O148	0.446300	0.708900	0.824900
O1491	O149	0.426000	0.642800	0.945400
O1501	O150	0.555300	0.766700	0.813300
O1511	O151	0.451500	0.830900	0.829200
O1521	O152	0.494400	0.767600	0.922000
Mo391	Mo39	0.446170	0.891060	0.649130
Mo401	Mo40	0.508530	0.993010	0.692210
P201	P20	0.487900	0.734600	0.652300
Na201	Na20	0.610000	0.850400	0.757600
O1531	O153	0.468800	0.974600	0.607400
O1541	O154	0.503300	0.902700	0.723800
O1551	O155	0.542000	0.857300	0.600800
O1561	O156	0.446300	0.791100	0.675100
O1571	O157	0.426000	0.857200	0.554600
O1581	O158	0.555300	0.733300	0.686700
O1591	O159	0.451500	0.669100	0.670800
O1601	O160	0.494400	0.732400	0.578000
Mo411	Mo41	0.850870	0.053830	0.891060
Mo421	Mo42	0.807790	0.991470	0.993010
P211	P21	0.847700	0.012100	0.734600
Na211	Na21	0.742400	0.890000	0.850400
O1611	O161	0.892600	0.031200	0.974600
O1621	O162	0.776200	0.996700	0.902700
O1631	O163	0.899200	0.958000	0.857300
O1641	O164	0.824900	0.053700	0.791100
O1651	O165	0.945400	0.074000	0.857200
O1661	O166	0.813300	0.944700	0.733300
O1671	O167	0.829200	0.048500	0.669100
O1681	O168	0.922000	0.005600	0.732400
Mo431	Mo43	0.649130	0.053830	0.608940
Mo441	Mo44	0.692210	0.991470	0.506990
P221	P22	0.652300	0.012100	0.765400
Na221	Na22	0.757600	0.890000	0.649600
O1691	O169	0.607400	0.031200	0.525400
O1701	O170	0.723800	0.996700	0.597300
O1711	O171	0.600800	0.958000	0.642700
O1721	O172	0.675100	0.053700	0.708900
O1731	O173	0.554600	0.074000	0.642800
O1741	O174	0.686700	0.944700	0.766700
O1751	O175	0.670800	0.048500	0.830900
O1761	O176	0.578000	0.005600	0.767600
Mo451	Mo45	0.850870	0.446170	0.608940
Mo461	Mo46	0.807790	0.508530	0.506990
P231	P23	0.847700	0.487900	0.765400
Na231	Na23	0.742400	0.610000	0.649600
O1771	O177	0.892600	0.468800	0.525400
O1781	O178	0.776200	0.503300	0.597300
O1791	O179	0.899200	0.542000	0.642700
O1801	O180	0.824900	0.446300	0.708900
O1811	O181	0.945400	0.426000	0.642800
O1821	O182	0.813300	0.555300	0.766700
O1831	O183	0.829200	0.451500	0.830900
O1841	O184	0.922000	0.494400	0.767600
Mo471	Mo47	0.649130	0.446170	0.891060
Mo481	Mo48	0.692210	0.508530	0.993010
P241	P24	0.652300	0.487900	0.734600
Na241	Na24	0.757600	0.610000	0.850400
O1851	O185	0.607400	0.468800	0.974600
O1861	O186	0.723800	0.503300	0.902700
O1871	O187	0.600800	0.542000	0.857300
O1881	O188	0.675100	0.446300	0.791100
O1891	O189	0.554600	0.426000	0.857200
O1901	O190	0.686700	0.555300	0.733300
O1911	O191	0.670800	0.451500	0.669100
O1921	O192	0.578000	0.494400	0.732400
P251	P25	0.111100	0.111100	0.111100
O1931	O193	0.153300	0.153300	0.153300
P261	P26	0.388900	0.388900	0.111100
O1941	O194	0.346700	0.346700	0.153300
P271	P27	0.388900	0.111100	0.388900
O1951	O195	0.346700	0.153300	0.346700
P281	P28	0.111100	0.388900	0.388900
O1961	O196	0.153300	0.346700	0.346700
P291	P29	0.888900	0.888900	0.888900
O1971	O197	0.846700	0.846700	0.846700
P301	P30	0.611100	0.611100	0.888900
O1981	O198	0.653300	0.653300	0.846700
P311	P31	0.611100	0.888900	0.611100
O1991	O199	0.653300	0.846700	0.653300
P321	P32	0.888900	0.611100	0.611100
O2001	O200	0.846700	0.653300	0.653300
P331	P33	0.250000	0.250000	0.250000
P341	P34	0.750000	0.750000	0.750000
Na251	Na25	0.000000	0.000000	0.000000
Na261	Na26	0.500000	0.500000	0.000000
Na271	Na27	0.500000	0.000000	0.500000
Na281	Na28	0.000000	0.500000	0.500000
O2011	O201	0.206200	0.293800	0.206200
O2021	O202	0.293800	0.206200	0.206200
O2031	O203	0.293800	0.293800	0.293800
O2041	O204	0.206200	0.206200	0.293800
O2051	O205	0.793800	0.706200	0.793800
O2061	O206	0.706200	0.793800	0.793800
O2071	O207	0.706200	0.706200	0.706200
O2081	O208	0.793800	0.793800	0.706200
