data_SAYTOD_clean_PM
_symmetry_space_group_name_H-M	'P1'
_cell_length_a	17.046100
_cell_length_b	21.622900
_cell_length_c	9.850500
_cell_angle_alpha	90.000000
_cell_angle_beta	90.000000
_cell_angle_gamma	90.000000
_symmetry_Int_Tables_number 1

loop_
_symmetry_equiv_pos_as_xyz
'x,y,z'

loop_
_atom_site_label
_atom_site_type_symbol
_atom_site_fract_x
_atom_site_fract_y
_atom_site_fract_z
Cu11	Cu1	0.668370	0.578160	0.079850
Cu21	Cu2	0.432250	0.664550	0.314800
Cu31	Cu3	0.559640	0.452020	0.704420
C11	C1	0.513800	0.488600	0.544500
C21	C2	0.604500	0.494800	0.852500
C31	C3	0.527000	0.625500	0.237600
C41	C4	0.833500	0.622100	0.135500
N11	N1	0.631100	0.524900	0.933600
N21	N2	0.578600	0.610600	0.191700
N31	N3	0.777700	0.605000	0.118300
N41	N4	0.486200	0.511400	0.455500
Cu41	Cu4	0.831630	0.421840	0.579850
Cu51	Cu5	0.067750	0.335450	0.814800
Cu61	Cu6	0.940360	0.547980	0.204420
C51	C5	0.986200	0.511400	0.044500
C61	C6	0.895500	0.505200	0.352500
C71	C7	0.973000	0.374500	0.737600
C81	C8	0.666500	0.377900	0.635500
N51	N5	0.868900	0.475100	0.433600
N61	N6	0.921400	0.389400	0.691700
N71	N7	0.722300	0.395000	0.618300
N81	N8	0.013800	0.488600	0.955500
Cu71	Cu7	0.331630	0.078160	0.920150
Cu81	Cu8	0.567750	0.164550	0.685200
Cu91	Cu9	0.440360	0.952020	0.295580
C91	C9	0.486200	0.988600	0.455500
C101	C10	0.395500	0.994800	0.147500
C111	C11	0.473000	0.125500	0.762400
C121	C12	0.166500	0.122100	0.864500
N91	N9	0.368900	0.024900	0.066400
N101	N10	0.421400	0.110600	0.808300
N111	N11	0.222300	0.105000	0.881700
N121	N12	0.513800	0.011400	0.544500
Cu101	Cu10	0.168370	0.921840	0.420150
Cu111	Cu11	0.932250	0.835450	0.185200
Cu121	Cu12	0.059640	0.047980	0.795580
C131	C13	0.013800	0.011400	0.955500
C141	C14	0.104500	0.005200	0.647500
C151	C15	0.027000	0.874500	0.262400
C161	C16	0.333500	0.877900	0.364500
N131	N13	0.131100	0.975100	0.566400
N141	N14	0.078600	0.889400	0.308300
N151	N15	0.277700	0.895000	0.381700
N161	N16	0.986200	0.988600	0.044500
Cu131	Cu13	0.331630	0.421840	0.920150
Cu141	Cu14	0.567750	0.335450	0.685200
Cu151	Cu15	0.440360	0.547980	0.295580
C171	C17	0.395500	0.505200	0.147500
C181	C18	0.473000	0.374500	0.762400
C191	C19	0.166500	0.377900	0.864500
N171	N17	0.368900	0.475100	0.066400
N181	N18	0.421400	0.389400	0.808300
N191	N19	0.222300	0.395000	0.881700
Cu161	Cu16	0.168370	0.578160	0.420150
Cu171	Cu17	0.932250	0.664550	0.185200
Cu181	Cu18	0.059640	0.452020	0.795580
C201	C20	0.104500	0.494800	0.647500
C211	C21	0.027000	0.625500	0.262400
C221	C22	0.333500	0.622100	0.364500
N201	N20	0.131100	0.524900	0.566400
N211	N21	0.078600	0.610600	0.308300
N221	N22	0.277700	0.605000	0.381700
Cu191	Cu19	0.668370	0.921840	0.079850
Cu201	Cu20	0.432250	0.835450	0.314800
Cu211	Cu21	0.559640	0.047980	0.704420
C231	C23	0.604500	0.005200	0.852500
C241	C24	0.527000	0.874500	0.237600
C251	C25	0.833500	0.877900	0.135500
N231	N23	0.631100	0.975100	0.933600
N241	N24	0.578600	0.889400	0.191700
N251	N25	0.777700	0.895000	0.118300
Cu221	Cu22	0.831630	0.078160	0.579850
Cu231	Cu23	0.067750	0.164550	0.814800
Cu241	Cu24	0.940360	0.952020	0.204420
C261	C26	0.895500	0.994800	0.352500
C271	C27	0.973000	0.125500	0.737600
C281	C28	0.666500	0.122100	0.635500
N261	N26	0.868900	0.024900	0.433600
N271	N27	0.921400	0.110600	0.691700
N281	N28	0.722300	0.105000	0.618300
Br11	Br1	0.466460	0.750000	0.484230
Br21	Br2	0.387060	0.750000	0.129570
Br31	Br3	0.033540	0.250000	0.984230
Br41	Br4	0.112940	0.250000	0.629570
Br51	Br5	0.533540	0.250000	0.515770
Br61	Br6	0.612940	0.250000	0.870430
Br71	Br7	0.966460	0.750000	0.015770
Br81	Br8	0.887060	0.750000	0.370430
