data_science_PM
_symmetry_space_group_name_H-M	'P1'
_cell_length_a	23.336600
_cell_length_b	23.336300
_cell_length_c	23.336300
_cell_angle_alpha	109.471000
_cell_angle_beta	109.471000
_cell_angle_gamma	109.471000
_symmetry_Int_Tables_number 1

loop_
_symmetry_equiv_pos_as_xyz
'x,y,z'

loop_
_atom_site_label
_atom_site_type_symbol
_atom_site_fract_x
_atom_site_fract_y
_atom_site_fract_z
Cu11	Cu1	0.142190	0.642190	0.500000
Cu21	Cu2	0.642190	0.500000	0.142190
Cu31	Cu3	0.500000	0.857810	0.357810
Cu41	Cu4	0.259850	0.500000	0.759850
Cu51	Cu5	0.500000	0.240150	0.740150
Cu61	Cu6	0.500000	0.142190	0.642190
Cu71	Cu7	0.857810	0.357810	0.500000
Cu81	Cu8	0.500000	0.759850	0.259850
Cu91	Cu9	0.740150	0.500000	0.240150
Cu101	Cu10	0.240150	0.740150	0.500000
Cu111	Cu11	0.759850	0.259850	0.500000
Cu121	Cu12	0.357810	0.500000	0.857810
H11	H1	0.351800	0.714400	0.825400
H21	H2	0.631900	0.589400	0.511500
H31	H3	0.021900	0.575700	0.844000
H41	H4	0.368100	0.410600	0.488500
H51	H5	0.273800	0.781400	0.255600
H61	H6	0.726200	0.981800	0.507600
H71	H7	0.411400	0.966000	0.832600
H81	H8	0.473600	0.362600	0.648200
H91	H9	0.351800	0.526400	0.637400
H101	H10	0.177900	0.446200	0.021900
H111	H11	0.589400	0.957500	0.077900
H121	H12	0.174600	0.648200	0.285600
H131	H13	0.922100	0.410600	0.042500
H141	H14	0.526400	0.174600	0.889000
H151	H15	0.034000	0.445400	0.866600
H161	H16	0.511500	0.631900	0.589400
H171	H17	0.525800	0.018200	0.744400
H181	H18	0.966000	0.554600	0.133400
H191	H19	0.177900	0.156000	0.731700
H201	H20	0.488500	0.368100	0.410600
H211	H21	0.488500	0.077900	0.120400
H221	H22	0.167400	0.133400	0.578800
H231	H23	0.578800	0.167400	0.133400
H241	H24	0.034000	0.167400	0.588600
H251	H25	0.781400	0.507600	0.525800
H261	H26	0.726200	0.218600	0.744400
H271	H27	0.362600	0.889000	0.714400
H281	H28	0.474200	0.981800	0.255600
H291	H29	0.492400	0.474200	0.218600
H301	H30	0.156000	0.731700	0.177900
H311	H31	0.957500	0.368100	0.879600
H321	H32	0.268300	0.822100	0.844000
H331	H33	0.368100	0.879600	0.957500
H341	H34	0.411400	0.578800	0.445400
H351	H35	0.424300	0.446200	0.268300
H361	H36	0.648200	0.473600	0.362600
H371	H37	0.525800	0.781400	0.507600
H381	H38	0.446200	0.268300	0.424300
H391	H39	0.410600	0.042500	0.922100
H401	H40	0.077900	0.589400	0.957500
H411	H41	0.042500	0.922100	0.410600
H421	H42	0.554600	0.588600	0.421200
H431	H43	0.553800	0.731700	0.575700
H441	H44	0.421200	0.832600	0.866600
H451	H45	0.156000	0.978100	0.424300
H461	H46	0.714400	0.825400	0.351800
H471	H47	0.637400	0.351800	0.526400
H481	H48	0.648200	0.285600	0.174600
H491	H49	0.120400	0.488500	0.077900
H501	H50	0.575700	0.844000	0.021900
H511	H51	0.018200	0.744400	0.525800
H521	H52	0.731700	0.575700	0.553800
H531	H53	0.844000	0.021900	0.575700
H541	H54	0.966000	0.832600	0.411400
H551	H55	0.507600	0.525800	0.781400
H561	H56	0.575700	0.553800	0.731700
H571	H57	0.018200	0.492400	0.273800
H581	H58	0.255600	0.474200	0.981800
H591	H59	0.218600	0.744400	0.726200
H601	H60	0.981800	0.507600	0.726200
H611	H61	0.285600	0.174600	0.648200
H621	H62	0.832600	0.866600	0.421200
H631	H63	0.832600	0.411400	0.966000
H641	H64	0.744400	0.525800	0.018200
H651	H65	0.410600	0.488500	0.368100
H661	H66	0.744400	0.726200	0.218600
H671	H67	0.866600	0.034000	0.445400
H681	H68	0.285600	0.637400	0.111000
H691	H69	0.362600	0.648200	0.473600
H701	H70	0.957500	0.077900	0.589400
H711	H71	0.424300	0.156000	0.978100
H721	H72	0.714400	0.362600	0.889000
H731	H73	0.218600	0.492400	0.474200
H741	H74	0.637400	0.111000	0.285600
H751	H75	0.446200	0.021900	0.177900
H761	H76	0.268300	0.424300	0.446200
H771	H77	0.507600	0.726200	0.981800
H781	H78	0.553800	0.978100	0.822100
H791	H79	0.978100	0.424300	0.156000
H801	H80	0.120400	0.042500	0.631900
H811	H81	0.866600	0.421200	0.832600
H821	H82	0.174600	0.889000	0.526400
H831	H83	0.578800	0.445400	0.411400
H841	H84	0.111000	0.473600	0.825400
H851	H85	0.421200	0.554600	0.588600
H861	H86	0.889000	0.714400	0.362600
H871	H87	0.473600	0.825400	0.111000
H881	H88	0.981800	0.255600	0.474200
H891	H89	0.588600	0.421200	0.554600
H901	H90	0.021900	0.177900	0.446200
H911	H91	0.167400	0.588600	0.034000
H921	H92	0.889000	0.526400	0.174600
H931	H93	0.133400	0.966000	0.554600
H941	H94	0.844000	0.268300	0.822100
H951	H95	0.133400	0.578800	0.167400
H961	H96	0.922100	0.879600	0.511500
H971	H97	0.589400	0.511500	0.631900
H981	H98	0.781400	0.255600	0.273800
H991	H99	0.077900	0.120400	0.488500
H1001	H100	0.588600	0.034000	0.167400
H1011	H101	0.474200	0.218600	0.492400
H1021	H102	0.445400	0.411400	0.578800
H1031	H103	0.042500	0.631900	0.120400
H1041	H104	0.273800	0.018200	0.492400
H1051	H105	0.822100	0.553800	0.978100
H1061	H106	0.511500	0.922100	0.879600
H1071	H107	0.526400	0.637400	0.351800
H1081	H108	0.554600	0.133400	0.966000
H1091	H109	0.825400	0.111000	0.473600
H1101	H110	0.879600	0.957500	0.368100
H1111	H111	0.978100	0.822100	0.553800
H1121	H112	0.492400	0.273800	0.018200
H1131	H113	0.731700	0.177900	0.156000
H1141	H114	0.445400	0.866600	0.034000
H1151	H115	0.111000	0.285600	0.637400
H1161	H116	0.822100	0.844000	0.268300
H1171	H117	0.631900	0.120400	0.042500
H1181	H118	0.879600	0.511500	0.922100
H1191	H119	0.825400	0.351800	0.714400
H1201	H120	0.255600	0.273800	0.781400
C11	C1	0.412200	0.458300	0.387500
C21	C2	0.789700	0.531800	0.041900
C31	C3	0.875200	0.532200	0.134600
C41	C4	0.549400	0.628500	0.439300
C51	C5	0.422800	0.708400	0.899400
C61	C6	0.904200	0.849700	0.345100
C71	C7	0.387500	0.929200	0.975300
C81	C8	0.024700	0.612500	0.070800
C91	C9	0.397600	0.740600	0.865400
C101	C10	0.254900	0.623000	0.493100
C111	C11	0.345100	0.495400	0.440900
C121	C12	0.745100	0.238200	0.368100
C131	C13	0.809000	0.523400	0.100600
C141	C14	0.134600	0.602400	0.259400
C151	C15	0.182800	0.018500	0.469700
C161	C16	0.422800	0.523400	0.714400
C171	C17	0.541700	0.612500	0.587800
C181	C18	0.046200	0.427200	0.974400
C191	C19	0.559100	0.654900	0.504600
C201	C20	0.259400	0.657000	0.124800
C211	C21	0.489900	0.531800	0.742100
C221	C22	0.875200	0.740600	0.343000
C231	C23	0.713100	0.530300	0.548800
C241	C24	0.041900	0.510100	0.252200
C251	C25	0.291600	0.100600	0.577200
C261	C26	0.345100	0.904200	0.849700
C271	C27	0.440900	0.345100	0.495400
C281	C28	0.602400	0.259400	0.134600
C291	C29	0.547200	0.928200	0.974400
C301	C30	0.657000	0.397600	0.532200
C311	C31	0.945500	0.095800	0.440900
C321	C32	0.129900	0.623000	0.368100
C331	C33	0.381000	0.953800	0.928200
C341	C34	0.548800	0.018500	0.835700
C351	C35	0.095800	0.440900	0.945500
C361	C36	0.714400	0.191000	0.291600
C371	C37	0.285600	0.809000	0.708400
C381	C38	0.504600	0.559100	0.654900
C391	C39	0.018500	0.835700	0.548800
C401	C40	0.654900	0.095800	0.150300
C411	C41	0.025600	0.953800	0.572800
C421	C42	0.476600	0.285600	0.577200
C431	C43	0.291600	0.714400	0.191000
C441	C44	0.439300	0.549400	0.628500
C451	C45	0.958100	0.210300	0.468200
C461	C46	0.761800	0.631900	0.254900
C471	C47	0.110100	0.920900	0.549400
C481	C48	0.810800	0.371500	0.920900
C491	C49	0.506900	0.745100	0.377000
C501	C50	0.530300	0.548800	0.713100
C511	C51	0.572800	0.025600	0.953800
C521	C52	0.046100	0.070800	0.458300
C531	C53	0.286900	0.469700	0.451200
C541	C54	0.742100	0.210300	0.252200
C551	C55	0.210300	0.252200	0.742100
C561	C56	0.371500	0.560700	0.450600
C571	C57	0.577200	0.476600	0.285600
C581	C58	0.440900	0.945500	0.095800
C591	C59	0.981500	0.164300	0.451200
C601	C60	0.368100	0.745100	0.238200
C611	C61	0.343000	0.875200	0.740600
C621	C62	0.742100	0.489900	0.531800
C631	C63	0.654900	0.504600	0.559100
C641	C64	0.817200	0.981500	0.530300
C651	C65	0.587800	0.541700	0.612500
C661	C66	0.740600	0.865400	0.397600
C671	C67	0.257900	0.510100	0.468200
C681	C68	0.079100	0.189200	0.628500
C691	C69	0.623000	0.368100	0.129900
C701	C70	0.929200	0.975300	0.387500
C711	C71	0.747800	0.257900	0.789700
C721	C72	0.708400	0.899400	0.422800
C731	C73	0.920900	0.810800	0.371500
C741	C74	0.427200	0.381000	0.452800
C751	C75	0.889900	0.439300	0.810800
C761	C76	0.920900	0.549400	0.110100
C771	C77	0.740600	0.343000	0.875200
C781	C78	0.817200	0.286900	0.835700
C791	C79	0.761800	0.506900	0.129900
C801	C80	0.612500	0.070800	0.024700
C811	C81	0.150300	0.654900	0.095800
C821	C82	0.150300	0.054500	0.495400
C831	C83	0.493100	0.254900	0.623000
C841	C84	0.254900	0.761800	0.631900
C851	C85	0.953900	0.929200	0.541700
C861	C86	0.189200	0.110100	0.560700
C871	C87	0.631900	0.870100	0.377000
C881	C88	0.747800	0.958100	0.489900
C891	C89	0.469700	0.182800	0.018500
C901	C90	0.928200	0.381000	0.953800
C911	C91	0.623000	0.493100	0.254900
C921	C92	0.559100	0.054500	0.904200
C931	C93	0.450600	0.889900	0.079100
C941	C94	0.587800	0.975300	0.046100
C951	C95	0.577200	0.291600	0.100600
C961	C96	0.628500	0.439300	0.549400
C971	C97	0.071800	0.619000	0.046200
C981	C98	0.452800	0.427200	0.381000
C991	C99	0.467800	0.865400	0.124800
C1001	C100	0.458300	0.387500	0.412200
C1011	C101	0.541700	0.953900	0.929200
C1021	C102	0.810800	0.889900	0.439300
C1031	C103	0.397600	0.532200	0.657000
C1041	C104	0.870100	0.238200	0.493100
C1051	C105	0.377000	0.631900	0.870100
C1061	C106	0.835700	0.548800	0.018500
C1071	C107	0.134600	0.875200	0.532200
C1081	C108	0.904200	0.559100	0.054500
C1091	C109	0.974400	0.547200	0.928200
C1101	C110	0.531800	0.742100	0.489900
C1111	C111	0.259400	0.134600	0.602400
C1121	C112	0.945500	0.504600	0.849700
C1131	C113	0.974400	0.046200	0.427200
C1141	C114	0.899400	0.422800	0.708400
C1151	C115	0.110100	0.560700	0.189200
C1161	C116	0.493100	0.870100	0.238200
C1171	C117	0.450600	0.371500	0.560700
C1181	C118	0.547200	0.572800	0.619000
C1191	C119	0.849700	0.945500	0.504600
C1201	C120	0.189200	0.628500	0.079100
C1211	C121	0.025600	0.452800	0.071800
C1221	C122	0.495400	0.440900	0.345100
C1231	C123	0.095800	0.150300	0.654900
C1241	C124	0.975300	0.046100	0.587800
C1251	C125	0.343000	0.602400	0.467800
C1261	C126	0.929200	0.541700	0.953900
C1271	C127	0.619000	0.547200	0.572800
C1281	C128	0.468200	0.958100	0.210300
C1291	C129	0.024700	0.953900	0.412200
C1301	C130	0.041900	0.789700	0.531800
C1311	C131	0.714400	0.422800	0.523400
C1321	C132	0.628500	0.079100	0.189200
C1331	C133	0.210300	0.468200	0.958100
C1341	C134	0.619000	0.046200	0.071800
C1351	C135	0.238200	0.368100	0.745100
C1361	C136	0.504600	0.849700	0.945500
C1371	C137	0.452800	0.071800	0.025600
C1381	C138	0.079100	0.450600	0.889900
C1391	C139	0.070800	0.458300	0.046100
C1401	C140	0.070800	0.024700	0.612500
C1411	C141	0.458300	0.046100	0.070800
C1421	C142	0.708400	0.285600	0.809000
C1431	C143	0.899400	0.191000	0.476600
C1441	C144	0.870100	0.377000	0.631900
C1451	C145	0.958100	0.489900	0.747800
C1461	C146	0.953900	0.412200	0.024700
C1471	C147	0.548800	0.713100	0.530300
C1481	C148	0.046200	0.071800	0.619000
C1491	C149	0.371500	0.920900	0.810800
C1501	C150	0.531800	0.041900	0.789700
C1511	C151	0.129900	0.761800	0.506900
C1521	C152	0.835700	0.817200	0.286900
C1531	C153	0.164300	0.182800	0.713100
C1541	C154	0.467800	0.343000	0.602400
C1551	C155	0.560700	0.450600	0.371500
C1561	C156	0.387500	0.412200	0.458300
C1571	C157	0.054500	0.495400	0.150300
C1581	C158	0.257900	0.789700	0.747800
C1591	C159	0.657000	0.124800	0.259400
C1601	C160	0.510100	0.252200	0.041900
C1611	C161	0.849700	0.345100	0.904200
C1621	C162	0.532200	0.657000	0.397600
C1631	C163	0.631900	0.254900	0.761800
C1641	C164	0.865400	0.124800	0.467800
C1651	C165	0.523400	0.100600	0.809000
C1661	C166	0.191000	0.476600	0.899400
C1671	C167	0.451200	0.286900	0.469700
C1681	C168	0.412200	0.024700	0.953900
C1691	C169	0.100600	0.577200	0.291600
C1701	C170	0.713100	0.164300	0.182800
C1711	C171	0.928200	0.974400	0.547200
C1721	C172	0.164300	0.451200	0.981500
C1731	C173	0.495400	0.150300	0.054500
C1741	C174	0.468200	0.257900	0.510100
C1751	C175	0.612500	0.587800	0.541700
C1761	C176	0.238200	0.493100	0.870100
C1771	C177	0.572800	0.619000	0.547200
C1781	C178	0.510100	0.468200	0.257900
C1791	C179	0.252200	0.742100	0.210300
C1801	C180	0.809000	0.708400	0.285600
C1811	C181	0.018500	0.469700	0.182800
C1821	C182	0.975300	0.387500	0.929200
C1831	C183	0.889900	0.079100	0.450600
C1841	C184	0.602400	0.467800	0.343000
C1851	C185	0.381000	0.452800	0.427200
C1861	C186	0.523400	0.714400	0.422800
C1871	C187	0.124800	0.467800	0.865400
C1881	C188	0.953800	0.928200	0.381000
C1891	C189	0.285600	0.577200	0.476600
C1901	C190	0.182800	0.713100	0.164300
C1911	C191	0.439300	0.810800	0.889900
C1921	C192	0.427200	0.974400	0.046200
C1931	C193	0.252200	0.041900	0.510100
C1941	C194	0.286900	0.835700	0.817200
C1951	C195	0.489900	0.747800	0.958100
C1961	C196	0.124800	0.259400	0.657000
C1971	C197	0.532200	0.134600	0.875200
C1981	C198	0.071800	0.025600	0.452800
C1991	C199	0.560700	0.189200	0.110100
C2001	C200	0.506900	0.129900	0.761800
C2011	C201	0.469700	0.451200	0.286900
C2021	C202	0.530300	0.817200	0.981500
C2031	C203	0.549400	0.110100	0.920900
C2041	C204	0.981500	0.530300	0.817200
C2051	C205	0.953800	0.572800	0.025600
C2061	C206	0.191000	0.291600	0.714400
C2071	C207	0.865400	0.397600	0.740600
C2081	C208	0.054500	0.904200	0.559100
C2091	C209	0.451200	0.981500	0.164300
C2101	C210	0.100600	0.809000	0.523400
C2111	C211	0.745100	0.377000	0.506900
C2121	C212	0.789700	0.747800	0.257900
C2131	C213	0.476600	0.899400	0.191000
C2141	C214	0.377000	0.506900	0.745100
C2151	C215	0.368100	0.129900	0.623000
C2161	C216	0.046100	0.587800	0.975300
O11	O1	0.603180	0.900820	0.402340
O21	O2	0.597660	0.396820	0.099180
O41	O4	0.717270	0.216150	0.398680
O51	O5	0.501120	0.717270	0.318590
O61	O6	0.099180	0.597660	0.396820
O81	O8	0.396820	0.799160	0.297640
O91	O9	0.799160	0.297640	0.396820
O101	O10	0.702360	0.501520	0.099180
O111	O11	0.318590	0.601320	0.817470
O141	O14	0.498880	0.817470	0.216150
O151	O15	0.282730	0.783850	0.601320
O161	O16	0.398680	0.182530	0.681410
O171	O17	0.603180	0.200840	0.702360
O191	O19	0.099180	0.702360	0.501520
O201	O20	0.282730	0.681410	0.498880
O221	O22	0.681410	0.398680	0.182530
O231	O23	0.900820	0.402340	0.603180
O241	O24	0.398680	0.717270	0.216150
O251	O25	0.817470	0.318590	0.601320
O271	O27	0.501520	0.799160	0.402340
O281	O28	0.182530	0.681410	0.398680
O291	O29	0.799160	0.402340	0.501520
O301	O30	0.597660	0.498480	0.200840
O321	O32	0.783850	0.601320	0.282730
O341	O34	0.297640	0.396820	0.799160
O351	O35	0.498480	0.900820	0.297640
O361	O36	0.783850	0.501120	0.182530
O371	O37	0.601320	0.817470	0.318590
O381	O38	0.681410	0.498880	0.282730
O391	O39	0.200840	0.702360	0.603180
O401	O40	0.402340	0.501520	0.799160
O411	O41	0.601320	0.282730	0.783850
O421	O42	0.318590	0.501120	0.717270
O431	O43	0.182530	0.783850	0.501120
O441	O44	0.216150	0.498880	0.817470
O451	O45	0.501520	0.099180	0.702360
O461	O46	0.498480	0.200840	0.597660
O471	O47	0.702360	0.603180	0.200840
O481	O48	0.396820	0.099180	0.597660
O501	O50	0.297640	0.498480	0.900820
O511	O51	0.498880	0.282730	0.681410
O521	O52	0.216150	0.398680	0.717270
O541	O54	0.717270	0.318590	0.501120
O551	O55	0.900820	0.297640	0.498480
O561	O56	0.817470	0.216150	0.498880
O571	O57	0.200840	0.597660	0.498480
O581	O58	0.402340	0.603180	0.900820
O601	O60	0.501120	0.182530	0.783850
