data_SEFBOV_clean_PM
_symmetry_space_group_name_H-M	'P1'
_cell_length_a	10.299000
_cell_length_b	11.824000
_cell_length_c	20.372000
_cell_angle_alpha	90.000000
_cell_angle_beta	90.000000
_cell_angle_gamma	90.000000
_symmetry_Int_Tables_number 1

loop_
_symmetry_equiv_pos_as_xyz
'x,y,z'

loop_
_atom_site_label
_atom_site_type_symbol
_atom_site_fract_x
_atom_site_fract_y
_atom_site_fract_z
Zn11	Zn1	0.037990	0.919880	0.008650
Zn21	Zn2	0.351200	0.824530	0.007790
Zn31	Zn3	0.462010	0.080120	0.508650
Zn41	Zn4	0.148800	0.175470	0.507790
Zn51	Zn5	0.962010	0.419880	0.491350
Zn61	Zn6	0.648800	0.324530	0.492210
Zn71	Zn7	0.537990	0.580120	0.991350
Zn81	Zn8	0.851200	0.675470	0.992210
H11	H1	0.258900	0.528600	0.989800
H21	H2	0.344600	0.549100	0.882200
H31	H3	0.190900	0.550600	0.879500
H41	H4	0.269700	0.665300	0.874000
H51	H5	0.046300	0.009200	0.210300
H61	H6	0.406800	0.888000	0.209100
H71	H7	0.425700	0.928900	0.317600
H81	H8	0.068200	0.048200	0.320700
H91	H9	0.241100	0.471400	0.489800
H101	H10	0.155400	0.450900	0.382200
H111	H11	0.309100	0.449400	0.379500
H121	H12	0.230300	0.334700	0.374000
H131	H13	0.453700	0.990800	0.710300
H141	H14	0.093200	0.112000	0.709100
H151	H15	0.074300	0.071100	0.817600
H161	H16	0.431800	0.951800	0.820700
H171	H17	0.741100	0.028600	0.510200
H181	H18	0.655400	0.049100	0.617800
H191	H19	0.809100	0.050600	0.620500
H201	H20	0.730300	0.165300	0.626000
H211	H21	0.953700	0.509200	0.289700
H221	H22	0.593200	0.388000	0.290900
H231	H23	0.574300	0.428900	0.182400
H241	H24	0.931800	0.548200	0.179300
H251	H25	0.758900	0.971400	0.010200
H261	H26	0.844600	0.950900	0.117800
H271	H27	0.690900	0.949400	0.120500
H281	H28	0.769700	0.834700	0.126000
H291	H29	0.546300	0.490800	0.789700
H301	H30	0.906800	0.612000	0.790900
H311	H31	0.925700	0.571100	0.682400
H321	H32	0.568200	0.451800	0.679300
C11	C1	0.140500	0.670000	0.986800
C21	C2	0.262400	0.604300	0.969100
C31	C3	0.267400	0.591100	0.894300
C41	C4	0.216800	0.933900	0.122500
C51	C5	0.232100	0.962800	0.193500
C61	C6	0.127800	0.000500	0.230400
C71	C7	0.340600	0.929300	0.229900
C81	C8	0.274000	0.050300	0.397400
C91	C9	0.259300	0.017800	0.325900
C101	C10	0.352800	0.954600	0.294200
C111	C11	0.141100	0.025600	0.296200
C121	C12	0.359500	0.330000	0.486800
C131	C13	0.237600	0.395700	0.469100
C141	C14	0.232600	0.408900	0.394300
C151	C15	0.283200	0.066100	0.622500
C161	C16	0.267900	0.037200	0.693500
C171	C17	0.372200	0.999500	0.730400
C181	C18	0.159400	0.070700	0.729900
C191	C19	0.226000	0.949700	0.897400
C201	C20	0.240700	0.982200	0.825900
C211	C21	0.147200	0.045400	0.794200
C221	C22	0.358900	0.974400	0.796200
C231	C23	0.859500	0.170000	0.513200
C241	C24	0.737600	0.104300	0.530900
C251	C25	0.732600	0.091100	0.605700
C261	C26	0.783200	0.433900	0.377500
C271	C27	0.767900	0.462800	0.306500
C281	C28	0.872200	0.500500	0.269600
C291	C29	0.659400	0.429300	0.270100
C301	C30	0.726000	0.550300	0.102600
C311	C31	0.740700	0.517800	0.174100
C321	C32	0.647200	0.454600	0.205800
C331	C33	0.858900	0.525600	0.203800
C341	C34	0.640500	0.830000	0.013200
C351	C35	0.762400	0.895700	0.030900
C361	C36	0.767400	0.908900	0.105700
C371	C37	0.716800	0.566100	0.877500
C381	C38	0.732100	0.537200	0.806500
C391	C39	0.627800	0.499500	0.769600
C401	C40	0.840600	0.570700	0.770100
C411	C41	0.774000	0.449700	0.602600
C421	C42	0.759300	0.482200	0.674100
C431	C43	0.852800	0.545400	0.705800
C441	C44	0.641100	0.474400	0.703800
O11	O1	0.153200	0.770700	0.006090
O21	O2	0.374600	0.662000	0.991160
O31	O3	0.033700	0.620000	0.980800
O41	O4	0.110900	0.954500	0.095920
O51	O5	0.315400	0.891300	0.095000
O61	O6	0.385800	0.040900	0.421690
O71	O7	0.173500	0.082500	0.427270
O81	O8	0.346800	0.229300	0.506090
O91	O9	0.125400	0.338000	0.491160
O101	O10	0.466300	0.380000	0.480800
O111	O11	0.389100	0.045500	0.595920
O121	O12	0.184600	0.108700	0.595000
O131	O13	0.114200	0.959100	0.921690
O141	O14	0.326500	0.917500	0.927270
O151	O15	0.846800	0.270700	0.493910
O161	O16	0.625400	0.162000	0.508840
O171	O17	0.966300	0.120000	0.519200
O181	O18	0.889100	0.454500	0.404080
O191	O19	0.684600	0.391300	0.405000
O201	O20	0.614200	0.540900	0.078310
O211	O21	0.826500	0.582500	0.072730
O221	O22	0.653200	0.729300	0.993910
O231	O23	0.874600	0.838000	0.008840
O241	O24	0.533700	0.880000	0.019200
O251	O25	0.610900	0.545500	0.904080
O261	O26	0.815400	0.608700	0.905000
O271	O27	0.885800	0.459100	0.578310
O281	O28	0.673500	0.417500	0.572730
