data_SEFNIB_charged_PM
_symmetry_space_group_name_H-M	'P1'
_cell_length_a	7.591800
_cell_length_b	10.045200
_cell_length_c	31.696100
_cell_angle_alpha	87.406200
_cell_angle_beta	83.121900
_cell_angle_gamma	67.797700
_symmetry_Int_Tables_number 1

loop_
_symmetry_equiv_pos_as_xyz
'x,y,z'

loop_
_atom_site_label
_atom_site_type_symbol
_atom_site_fract_x
_atom_site_fract_y
_atom_site_fract_z
Zn11	Zn1	0.700000	0.196790	0.531470
Zn21	Zn2	0.428260	0.803210	0.468530
Zn31	Zn3	0.481470	0.696790	0.968530
Zn41	Zn4	0.146790	0.303210	0.031470
H11	H1	0.999500	0.010600	0.089600
H21	H2	0.926300	0.771600	0.405800
H31	H3	0.164400	0.563600	0.151800
H41	H4	0.034800	0.609200	0.089200
H51	H5	0.025300	0.802400	0.244800
H61	H6	0.118300	0.918000	0.235200
H71	H7	0.188500	0.023600	0.309800
H81	H8	0.026400	0.122200	0.374400
H91	H9	0.128700	0.973400	0.152600
H101	H10	0.846300	0.933200	0.040600
H111	H11	0.864500	0.772600	0.040600
H121	H12	0.079100	0.667000	0.341600
H131	H13	0.300300	0.657000	0.279000
H141	H14	0.379200	0.780800	0.271800
H151	H15	0.801100	0.966400	0.451000
H161	H16	0.784200	0.117800	0.432400
H171	H17	0.378300	0.751800	0.194400
H181	H18	0.298100	0.631000	0.205800
H191	H19	0.099700	0.989400	0.910400
H201	H20	0.103700	0.228400	0.594200
H211	H21	0.879800	0.436400	0.848200
H221	H22	0.733200	0.390800	0.910800
H231	H23	0.072500	0.197600	0.755200
H241	H24	0.271500	0.082000	0.764800
H251	H25	0.521900	0.976400	0.690200
H261	H26	0.523000	0.877800	0.625600
H271	H27	0.254700	0.026600	0.847400
H281	H28	0.820100	0.066800	0.959400
H291	H29	0.677700	0.227400	0.959400
H301	H30	0.087700	0.333000	0.658400
H311	H31	0.236300	0.343000	0.721000
H321	H32	0.431800	0.219200	0.728200
H331	H33	0.218500	0.033600	0.549000
H341	H34	0.334400	0.882200	0.567600
H351	H35	0.324500	0.248200	0.805600
H361	H36	0.134900	0.369000	0.794200
H371	H37	0.339100	0.510600	0.410400
H381	H38	0.582100	0.271600	0.094200
H391	H39	0.566200	0.063600	0.348200
H401	H40	0.374000	0.109200	0.410800
H411	H41	0.520100	0.302400	0.255200
H421	H42	0.603500	0.418000	0.264800
H431	H43	0.748300	0.523600	0.190200
H441	H44	0.650800	0.622200	0.125600
H451	H45	0.531300	0.473400	0.347400
H461	H46	0.136900	0.433200	0.459400
H471	H47	0.155100	0.272600	0.459400
H481	H48	0.670700	0.167000	0.158400
H491	H49	0.829300	0.157000	0.221000
H501	H50	0.901000	0.280800	0.228200
H511	H51	0.502100	0.466400	0.049000
H521	H52	0.466600	0.617800	0.067600
H531	H53	0.822700	0.251800	0.305600
H541	H54	0.753900	0.131000	0.294200
H551	H55	0.260100	0.489400	0.589600
H561	H56	0.947900	0.728400	0.905800
H571	H57	0.978000	0.936400	0.651800
H581	H58	0.894000	0.890800	0.589200
H591	H59	0.077700	0.697600	0.744800
H601	H60	0.286300	0.582000	0.735200
H611	H61	0.462100	0.476400	0.809800
H621	H62	0.398600	0.377800	0.874400
H631	H63	0.352100	0.526600	0.652600
H641	H64	0.029500	0.566800	0.540600
H651	H65	0.887100	0.727400	0.540600
H661	H66	0.996100	0.833000	0.841600
H671	H67	0.207300	0.843000	0.779000
H681	H68	0.410000	0.719200	0.771800
H691	H69	0.017500	0.533600	0.951000
H701	H70	0.152000	0.382200	0.932400
H711	H71	0.380100	0.748200	0.694400
H721	H72	0.179100	0.869000	0.705800
C11	C1	0.090600	0.803340	0.005060
C21	C2	0.021430	0.023940	0.464800
C31	C3	0.033910	0.920520	0.102460
C41	C4	0.978700	0.821800	0.386200
C51	C5	0.006650	0.813260	0.083840
C61	C6	0.964250	0.954440	0.395260
C71	C7	0.133060	0.654500	0.139580
C81	C8	0.055330	0.682100	0.102440
C91	C9	0.145780	0.816100	0.239340
C101	C10	0.135750	0.971680	0.328820
C111	C11	0.039580	0.029800	0.367440
C121	C12	0.111840	0.897720	0.140000
C131	C13	0.935190	0.834420	0.042600
C141	C14	0.071790	0.758780	0.347640
C151	C15	0.263200	0.760520	0.276880
C161	C16	0.873180	0.020500	0.436740
C171	C17	0.261430	0.732840	0.199700
C181	C18	0.899000	0.196660	0.994940
C191	C19	0.510170	0.976060	0.535200
C201	C20	0.056890	0.079480	0.897540
C211	C21	0.186700	0.178200	0.613800
C221	C22	0.903750	0.186740	0.916160
C231	C23	0.313950	0.045560	0.604740
C241	C24	0.927140	0.345500	0.860420
C251	C25	0.839870	0.317900	0.897560
C261	C26	0.201220	0.183900	0.760660
C271	C27	0.436250	0.028320	0.671180
C281	C28	0.436820	0.970200	0.632560
C291	C29	0.149560	0.102280	0.860000
C301	C30	0.812210	0.165580	0.957400
C311	C31	0.178210	0.241220	0.652360
C321	C32	0.300600	0.239480	0.723120
C331	C33	0.330420	0.979500	0.563260
C341	C34	0.193970	0.267160	0.800300
C351	C35	0.345660	0.303340	0.494940
C361	C36	0.736230	0.523940	0.035200
C371	C37	0.386370	0.420520	0.397540
C381	C38	0.614900	0.321800	0.113800
C391	C39	0.340490	0.313260	0.416160
C401	C40	0.609510	0.454440	0.104740
C411	C41	0.522640	0.154500	0.360420
C421	C42	0.407770	0.182100	0.397560
C431	C43	0.635120	0.316100	0.260660
C441	C44	0.714570	0.471680	0.171180
C451	C45	0.657020	0.529800	0.132560
C461	C46	0.501840	0.397720	0.360000
C471	C47	0.227790	0.334420	0.457400
C481	C48	0.669430	0.258780	0.152360
C491	C49	0.790080	0.260520	0.223120
C501	C50	0.559920	0.520500	0.063260
C511	C51	0.711130	0.232840	0.300300
C521	C52	0.143940	0.696660	0.505060
C531	C53	0.295370	0.476060	0.964800
C541	C54	0.204430	0.579480	0.602460
C551	C55	0.050500	0.678200	0.886200
C561	C56	0.069910	0.686740	0.583840
C571	C57	0.168690	0.545560	0.895260
C581	C58	0.037560	0.845500	0.639580
C591	C59	0.987430	0.817900	0.602440
C601	C60	0.211880	0.683900	0.739340
C611	C61	0.357430	0.528320	0.828820
C621	C62	0.319380	0.470200	0.867440
C631	C63	0.259560	0.602280	0.640000
C641	C64	0.019610	0.665580	0.542600
C651	C65	0.080570	0.741220	0.847640
C661	C66	0.273720	0.739480	0.776880
C671	C67	0.143680	0.479500	0.936740
C681	C68	0.244270	0.767160	0.699700
N11	N1	0.166990	0.763640	0.160180
N21	N2	0.152770	0.828620	0.318440
N31	N3	0.692220	0.221060	0.616100
N41	N4	0.090810	0.236360	0.839820
N51	N5	0.299830	0.171380	0.681560
N61	N6	0.529380	0.778940	0.383900
N71	N7	0.577170	0.263640	0.339820
N81	N8	0.721210	0.328620	0.181560
N91	N9	0.558320	0.721060	0.883900
N101	N10	0.180630	0.736360	0.660180
N111	N11	0.231390	0.671380	0.818440
N121	N12	0.163280	0.278940	0.116100
O11	O1	0.958640	0.077920	0.500960
O21	O2	0.193700	0.975580	0.449840
O31	O3	0.261180	0.765540	0.012900
O41	O4	0.833040	0.143080	0.592240
O51	O5	0.035250	0.818260	0.969440
O61	O6	0.547070	0.295980	0.598280
O71	O7	0.784820	0.375460	0.528300
O81	O8	0.699740	0.218500	0.654020
O91	O9	0.537520	0.922080	0.499040
O101	O10	0.619120	0.024420	0.550160
O111	O11	0.039620	0.234460	0.987100
O121	O12	0.568360	0.856920	0.407760
O131	O13	0.822950	0.181740	0.030560
O141	O14	0.441330	0.704020	0.401720
O151	O15	0.688580	0.624540	0.471700
O161	O16	0.572260	0.781500	0.345980
O171	O17	0.709600	0.577920	0.999040
O181	O18	0.893540	0.475580	0.050160
O191	O19	0.524080	0.265540	0.487100
O201	O20	0.675280	0.643080	0.907760
O211	O21	0.254690	0.318260	0.530560
O221	O22	0.395350	0.795980	0.901720
O231	O23	0.563120	0.875460	0.971700
O241	O24	0.603760	0.718500	0.845980
O251	O25	0.286560	0.422080	0.000960
O261	O26	0.419280	0.524420	0.949840
O271	O27	0.276720	0.734460	0.512900
O281	O28	0.226120	0.356920	0.092240
O291	O29	0.103510	0.681740	0.469440
O301	O30	0.093050	0.204020	0.098280
O311	O31	0.410280	0.124540	0.028300
O321	O32	0.168240	0.281500	0.154020
N131	N13	0.919650	0.412840	0.386660
O331	O33	0.009040	0.350060	0.353660
O341	O34	0.861380	0.347280	0.415760
O351	O35	0.897260	0.541340	0.392340
N141	N14	0.719150	0.587160	0.613340
O361	O36	0.712760	0.649940	0.646340
O371	O37	0.624420	0.652720	0.584240
O381	O38	0.830940	0.458660	0.607660
N151	N15	0.556310	0.912840	0.113340
O391	O39	0.612700	0.850060	0.146340
O401	O40	0.527140	0.847280	0.084240
O411	O41	0.539600	0.041340	0.107660
N161	N16	0.582490	0.087160	0.886660
O421	O42	0.609100	0.149940	0.853660
O431	O43	0.458660	0.152720	0.915760
O441	O44	0.688600	0.958660	0.892340
