data_SEFTUU_clean_PM
_symmetry_space_group_name_H-M	'P1'
_cell_length_a	17.086000
_cell_length_b	17.086000
_cell_length_c	17.086000
_cell_angle_alpha	90.000000
_cell_angle_beta	90.000000
_cell_angle_gamma	90.000000
_symmetry_Int_Tables_number 1

loop_
_symmetry_equiv_pos_as_xyz
'x,y,z'

loop_
_atom_site_label
_atom_site_type_symbol
_atom_site_fract_x
_atom_site_fract_y
_atom_site_fract_z
N11	N1	0.030060	0.682890	0.409460
C11	C1	0.099080	0.688700	0.367820
H11	H1	0.139600	0.725600	0.376900
H21	H2	0.910400	0.603200	0.463000
N21	N2	0.530060	0.182890	0.909460
C21	C2	0.599080	0.188700	0.867820
H31	H3	0.639600	0.225600	0.876900
H41	H4	0.410400	0.103200	0.963000
N31	N3	0.969940	0.317110	0.409460
C31	C3	0.900920	0.311300	0.367820
H51	H5	0.860400	0.274400	0.376900
H61	H6	0.089600	0.396800	0.463000
N41	N4	0.469940	0.817110	0.909460
C41	C4	0.400920	0.811300	0.867820
H71	H7	0.360400	0.774400	0.876900
H81	H8	0.589600	0.896800	0.963000
N51	N5	0.969940	0.682890	0.590540
C51	C5	0.900920	0.688700	0.632180
H91	H9	0.860400	0.725600	0.623100
H101	H10	0.089600	0.603200	0.537000
N61	N6	0.469940	0.182890	0.090540
C61	C6	0.400920	0.188700	0.132180
H111	H11	0.360400	0.225600	0.123100
H121	H12	0.589600	0.103200	0.037000
N71	N7	0.030060	0.317110	0.590540
C71	C7	0.099080	0.311300	0.632180
H131	H13	0.139600	0.274400	0.623100
H141	H14	0.910400	0.396800	0.537000
N81	N8	0.530060	0.817110	0.090540
C81	C8	0.599080	0.811300	0.132180
H151	H15	0.639600	0.774400	0.123100
H161	H16	0.410400	0.896800	0.037000
N91	N9	0.409460	0.030060	0.682890
C91	C9	0.367820	0.099080	0.688700
H171	H17	0.376900	0.139600	0.725600
H181	H18	0.463000	0.910400	0.603200
N101	N10	0.909460	0.530060	0.182890
C101	C10	0.867820	0.599080	0.188700
H191	H19	0.876900	0.639600	0.225600
H201	H20	0.963000	0.410400	0.103200
N111	N11	0.409460	0.969940	0.317110
C111	C11	0.367820	0.900920	0.311300
H211	H21	0.376900	0.860400	0.274400
H221	H22	0.463000	0.089600	0.396800
N121	N12	0.909460	0.469940	0.817110
C121	C12	0.867820	0.400920	0.811300
H231	H23	0.876900	0.360400	0.774400
H241	H24	0.963000	0.589600	0.896800
N131	N13	0.590540	0.969940	0.682890
C131	C13	0.632180	0.900920	0.688700
H251	H25	0.623100	0.860400	0.725600
H261	H26	0.537000	0.089600	0.603200
N141	N14	0.090540	0.469940	0.182890
C141	C14	0.132180	0.400920	0.188700
H271	H27	0.123100	0.360400	0.225600
H281	H28	0.037000	0.589600	0.103200
N151	N15	0.590540	0.030060	0.317110
C151	C15	0.632180	0.099080	0.311300
H291	H29	0.623100	0.139600	0.274400
H301	H30	0.537000	0.910400	0.396800
N161	N16	0.090540	0.530060	0.817110
C161	C16	0.132180	0.599080	0.811300
H311	H31	0.123100	0.639600	0.774400
H321	H32	0.037000	0.410400	0.896800
N171	N17	0.682890	0.409460	0.030060
C171	C17	0.688700	0.367820	0.099080
H331	H33	0.725600	0.376900	0.139600
H341	H34	0.603200	0.463000	0.910400
N181	N18	0.182890	0.909460	0.530060
C181	C18	0.188700	0.867820	0.599080
H351	H35	0.225600	0.876900	0.639600
H361	H36	0.103200	0.963000	0.410400
N191	N19	0.317110	0.409460	0.969940
C191	C19	0.311300	0.367820	0.900920
H371	H37	0.274400	0.376900	0.860400
H381	H38	0.396800	0.463000	0.089600
N201	N20	0.817110	0.909460	0.469940
C201	C20	0.811300	0.867820	0.400920
H391	H39	0.774400	0.876900	0.360400
H401	H40	0.896800	0.963000	0.589600
N211	N21	0.682890	0.590540	0.969940
C211	C21	0.688700	0.632180	0.900920
H411	H41	0.725600	0.623100	0.860400
H421	H42	0.603200	0.537000	0.089600
N221	N22	0.182890	0.090540	0.469940
C221	C22	0.188700	0.132180	0.400920
H431	H43	0.225600	0.123100	0.360400
H441	H44	0.103200	0.037000	0.589600
N231	N23	0.317110	0.590540	0.030060
C231	C23	0.311300	0.632180	0.099080
H451	H45	0.274400	0.623100	0.139600
H461	H46	0.396800	0.537000	0.910400
N241	N24	0.817110	0.090540	0.530060
C241	C24	0.811300	0.132180	0.599080
H471	H47	0.774400	0.123100	0.639600
H481	H48	0.896800	0.037000	0.410400
N251	N25	0.682890	0.030060	0.409460
C251	C25	0.688700	0.099080	0.367820
H491	H49	0.725600	0.139600	0.376900
H501	H50	0.603200	0.910400	0.463000
N261	N26	0.182890	0.530060	0.909460
C261	C26	0.188700	0.599080	0.867820
H511	H51	0.225600	0.639600	0.876900
H521	H52	0.103200	0.410400	0.963000
N271	N27	0.317110	0.969940	0.409460
C271	C27	0.311300	0.900920	0.367820
H531	H53	0.274400	0.860400	0.376900
H541	H54	0.396800	0.089600	0.463000
N281	N28	0.817110	0.469940	0.909460
C281	C28	0.811300	0.400920	0.867820
H551	H55	0.774400	0.360400	0.876900
H561	H56	0.896800	0.589600	0.963000
N291	N29	0.682890	0.969940	0.590540
C291	C29	0.688700	0.900920	0.632180
H571	H57	0.725600	0.860400	0.623100
H581	H58	0.603200	0.089600	0.537000
N301	N30	0.182890	0.469940	0.090540
C301	C30	0.188700	0.400920	0.132180
H591	H59	0.225600	0.360400	0.123100
H601	H60	0.103200	0.589600	0.037000
N311	N31	0.317110	0.030060	0.590540
C311	C31	0.311300	0.099080	0.632180
H611	H61	0.274400	0.139600	0.623100
H621	H62	0.396800	0.910400	0.537000
N321	N32	0.817110	0.530060	0.090540
C321	C32	0.811300	0.599080	0.132180
H631	H63	0.774400	0.639600	0.123100
H641	H64	0.896800	0.410400	0.037000
N331	N33	0.030060	0.409460	0.682890
C331	C33	0.099080	0.367820	0.688700
H651	H65	0.139600	0.376900	0.725600
H661	H66	0.910400	0.463000	0.603200
N341	N34	0.530060	0.909460	0.182890
C341	C34	0.599080	0.867820	0.188700
H671	H67	0.639600	0.876900	0.225600
H681	H68	0.410400	0.963000	0.103200
N351	N35	0.969940	0.409460	0.317110
C351	C35	0.900920	0.367820	0.311300
H691	H69	0.860400	0.376900	0.274400
H701	H70	0.089600	0.463000	0.396800
N361	N36	0.469940	0.909460	0.817110
C361	C36	0.400920	0.867820	0.811300
H711	H71	0.360400	0.876900	0.774400
H721	H72	0.589600	0.963000	0.896800
N371	N37	0.969940	0.590540	0.682890
C371	C37	0.900920	0.632180	0.688700
H731	H73	0.860400	0.623100	0.725600
H741	H74	0.089600	0.537000	0.603200
N381	N38	0.469940	0.090540	0.182890
C381	C38	0.400920	0.132180	0.188700
H751	H75	0.360400	0.123100	0.225600
H761	H76	0.589600	0.037000	0.103200
N391	N39	0.030060	0.590540	0.317110
C391	C39	0.099080	0.632180	0.311300
H771	H77	0.139600	0.623100	0.274400
H781	H78	0.910400	0.537000	0.396800
N401	N40	0.530060	0.090540	0.817110
C401	C40	0.599080	0.132180	0.811300
H791	H79	0.639600	0.123100	0.774400
H801	H80	0.410400	0.037000	0.896800
N411	N41	0.409460	0.682890	0.030060
C411	C41	0.367820	0.688700	0.099080
H811	H81	0.376900	0.725600	0.139600
H821	H82	0.463000	0.603200	0.910400
N421	N42	0.909460	0.182890	0.530060
C421	C42	0.867820	0.188700	0.599080
H831	H83	0.876900	0.225600	0.639600
H841	H84	0.963000	0.103200	0.410400
N431	N43	0.409460	0.317110	0.969940
C431	C43	0.367820	0.311300	0.900920
H851	H85	0.376900	0.274400	0.860400
H861	H86	0.463000	0.396800	0.089600
N441	N44	0.909460	0.817110	0.469940
C441	C44	0.867820	0.811300	0.400920
H871	H87	0.876900	0.774400	0.360400
H881	H88	0.963000	0.896800	0.589600
N451	N45	0.590540	0.682890	0.969940
C451	C45	0.632180	0.688700	0.900920
H891	H89	0.623100	0.725600	0.860400
H901	H90	0.537000	0.603200	0.089600
N461	N46	0.090540	0.182890	0.469940
C461	C46	0.132180	0.188700	0.400920
H911	H91	0.123100	0.225600	0.360400
H921	H92	0.037000	0.103200	0.589600
N471	N47	0.590540	0.317110	0.030060
C471	C47	0.632180	0.311300	0.099080
H931	H93	0.623100	0.274400	0.139600
H941	H94	0.537000	0.396800	0.910400
N481	N48	0.090540	0.817110	0.530060
C481	C48	0.132180	0.811300	0.599080
H951	H95	0.123100	0.774400	0.639600
H961	H96	0.037000	0.896800	0.410400
Zn11	Zn1	0.000000	0.750000	0.500000
Zn21	Zn2	0.000000	0.250000	0.500000
Zn31	Zn3	0.500000	0.000000	0.750000
Zn41	Zn4	0.500000	0.000000	0.250000
Zn51	Zn5	0.750000	0.500000	0.000000
Zn61	Zn6	0.250000	0.500000	0.000000
Zn71	Zn7	0.750000	0.000000	0.500000
Zn81	Zn8	0.250000	0.000000	0.500000
Zn91	Zn9	0.000000	0.500000	0.750000
Zn101	Zn10	0.000000	0.500000	0.250000
Zn111	Zn11	0.500000	0.750000	0.000000
Zn121	Zn12	0.500000	0.250000	0.000000
C491	C49	0.991700	0.622880	0.377120
C501	C50	0.914400	0.593400	0.406600
H971	H97	0.871900	0.620600	0.379400
C511	C51	0.491700	0.122880	0.877120
C521	C52	0.414400	0.093400	0.906600
H981	H98	0.371900	0.120600	0.879400
C531	C53	0.008300	0.377120	0.377120
C541	C54	0.085600	0.406600	0.406600
H991	H99	0.128100	0.379400	0.379400
C551	C55	0.508300	0.877120	0.877120
C561	C56	0.585600	0.906600	0.906600
H1001	H100	0.628100	0.879400	0.879400
C571	C57	0.008300	0.622880	0.622880
C581	C58	0.085600	0.593400	0.593400
H1011	H101	0.128100	0.620600	0.620600
C591	C59	0.508300	0.122880	0.122880
C601	C60	0.585600	0.093400	0.093400
H1021	H102	0.628100	0.120600	0.120600
C611	C61	0.991700	0.377120	0.622880
C621	C62	0.914400	0.406600	0.593400
H1031	H103	0.871900	0.379400	0.620600
C631	C63	0.491700	0.877120	0.122880
C641	C64	0.414400	0.906600	0.093400
H1041	H104	0.371900	0.879400	0.120600
C651	C65	0.377120	0.991700	0.622880
C661	C66	0.406600	0.914400	0.593400
H1051	H105	0.379400	0.871900	0.620600
C671	C67	0.877120	0.491700	0.122880
C681	C68	0.906600	0.414400	0.093400
H1061	H106	0.879400	0.371900	0.120600
C691	C69	0.377120	0.008300	0.377120
C701	C70	0.406600	0.085600	0.406600
H1071	H107	0.379400	0.128100	0.379400
C711	C71	0.877120	0.508300	0.877120
C721	C72	0.906600	0.585600	0.906600
H1081	H108	0.879400	0.628100	0.879400
C731	C73	0.622880	0.008300	0.622880
C741	C74	0.593400	0.085600	0.593400
H1091	H109	0.620600	0.128100	0.620600
C751	C75	0.122880	0.508300	0.122880
C761	C76	0.093400	0.585600	0.093400
H1101	H110	0.120600	0.628100	0.120600
C771	C77	0.622880	0.991700	0.377120
C781	C78	0.593400	0.914400	0.406600
H1111	H111	0.620600	0.871900	0.379400
C791	C79	0.122880	0.491700	0.877120
C801	C80	0.093400	0.414400	0.906600
H1121	H112	0.120600	0.371900	0.879400
C811	C81	0.622880	0.377120	0.991700
C821	C82	0.593400	0.406600	0.914400
H1131	H113	0.620600	0.379400	0.871900
C831	C83	0.122880	0.877120	0.491700
C841	C84	0.093400	0.906600	0.414400
H1141	H114	0.120600	0.879400	0.371900
C851	C85	0.377120	0.377120	0.008300
C861	C86	0.406600	0.406600	0.085600
H1151	H115	0.379400	0.379400	0.128100
C871	C87	0.877120	0.877120	0.508300
C881	C88	0.906600	0.906600	0.585600
H1161	H116	0.879400	0.879400	0.628100
C891	C89	0.622880	0.622880	0.008300
C901	C90	0.593400	0.593400	0.085600
H1171	H117	0.620600	0.620600	0.128100
C911	C91	0.122880	0.122880	0.508300
C921	C92	0.093400	0.093400	0.585600
H1181	H118	0.120600	0.120600	0.628100
C931	C93	0.377120	0.622880	0.991700
C941	C94	0.406600	0.593400	0.914400
H1191	H119	0.379400	0.620600	0.871900
C951	C95	0.877120	0.122880	0.491700
C961	C96	0.906600	0.093400	0.414400
H1201	H120	0.879400	0.120600	0.371900
