data_SEFVUW_clean_PM
_symmetry_space_group_name_H-M	'P1'
_cell_length_a	17.064100
_cell_length_b	17.064100
_cell_length_c	17.064100
_cell_angle_alpha	90.000000
_cell_angle_beta	90.000000
_cell_angle_gamma	90.000000
_symmetry_Int_Tables_number 1

loop_
_symmetry_equiv_pos_as_xyz
'x,y,z'

loop_
_atom_site_label
_atom_site_type_symbol
_atom_site_fract_x
_atom_site_fract_y
_atom_site_fract_z
N11	N1	0.025950	0.682730	0.408440
C11	C1	0.094540	0.687730	0.367510
H11	H1	0.135400	0.724400	0.376800
H21	H2	0.901100	0.607500	0.458800
N21	N2	0.094540	0.632490	0.312270
N31	N3	0.525950	0.182730	0.908440
C21	C2	0.594540	0.187730	0.867510
H31	H3	0.635400	0.224400	0.876800
H41	H4	0.401100	0.107500	0.958800
N41	N4	0.594540	0.132490	0.812270
N51	N5	0.974050	0.317270	0.408440
C31	C3	0.905460	0.312270	0.367510
H51	H5	0.864600	0.275600	0.376800
H61	H6	0.098900	0.392500	0.458800
N61	N6	0.905460	0.367510	0.312270
N71	N7	0.474050	0.817270	0.908440
C41	C4	0.405460	0.812270	0.867510
H71	H7	0.364600	0.775600	0.876800
H81	H8	0.598900	0.892500	0.958800
N81	N8	0.405460	0.867510	0.812270
N91	N9	0.974050	0.682730	0.591560
C51	C5	0.905460	0.687730	0.632490
H91	H9	0.864600	0.724400	0.623200
H101	H10	0.098900	0.607500	0.541200
N101	N10	0.905460	0.632490	0.687730
N111	N11	0.474050	0.182730	0.091560
C61	C6	0.405460	0.187730	0.132490
H111	H11	0.364600	0.224400	0.123200
H121	H12	0.598900	0.107500	0.041200
N121	N12	0.405460	0.132490	0.187730
N131	N13	0.025950	0.317270	0.591560
C71	C7	0.094540	0.312270	0.632490
H131	H13	0.135400	0.275600	0.623200
H141	H14	0.901100	0.392500	0.541200
N141	N14	0.094540	0.367510	0.687730
N151	N15	0.525950	0.817270	0.091560
C81	C8	0.594540	0.812270	0.132490
H151	H15	0.635400	0.775600	0.123200
H161	H16	0.401100	0.892500	0.041200
N161	N16	0.594540	0.867510	0.187730
N171	N17	0.408440	0.025950	0.682730
C91	C9	0.367510	0.094540	0.687730
H171	H17	0.376800	0.135400	0.724400
H181	H18	0.458800	0.901100	0.607500
N181	N18	0.312270	0.094540	0.632490
N191	N19	0.908440	0.525950	0.182730
C101	C10	0.867510	0.594540	0.187730
H191	H19	0.876800	0.635400	0.224400
H201	H20	0.958800	0.401100	0.107500
N201	N20	0.812270	0.594540	0.132490
N211	N21	0.408440	0.974050	0.317270
C111	C11	0.367510	0.905460	0.312270
H211	H21	0.376800	0.864600	0.275600
H221	H22	0.458800	0.098900	0.392500
N221	N22	0.312270	0.905460	0.367510
N231	N23	0.908440	0.474050	0.817270
C121	C12	0.867510	0.405460	0.812270
H231	H23	0.876800	0.364600	0.775600
H241	H24	0.958800	0.598900	0.892500
N241	N24	0.812270	0.405460	0.867510
N251	N25	0.591560	0.974050	0.682730
C131	C13	0.632490	0.905460	0.687730
H251	H25	0.623200	0.864600	0.724400
H261	H26	0.541200	0.098900	0.607500
N261	N26	0.687730	0.905460	0.632490
N271	N27	0.091560	0.474050	0.182730
C141	C14	0.132490	0.405460	0.187730
H271	H27	0.123200	0.364600	0.224400
H281	H28	0.041200	0.598900	0.107500
N281	N28	0.187730	0.405460	0.132490
N291	N29	0.591560	0.025950	0.317270
C151	C15	0.632490	0.094540	0.312270
H291	H29	0.623200	0.135400	0.275600
H301	H30	0.541200	0.901100	0.392500
N301	N30	0.687730	0.094540	0.367510
N311	N31	0.091560	0.525950	0.817270
C161	C16	0.132490	0.594540	0.812270
H311	H31	0.123200	0.635400	0.775600
H321	H32	0.041200	0.401100	0.892500
N321	N32	0.187730	0.594540	0.867510
N331	N33	0.682730	0.408440	0.025950
C171	C17	0.687730	0.367510	0.094540
H331	H33	0.724400	0.376800	0.135400
H341	H34	0.607500	0.458800	0.901100
N341	N34	0.632490	0.312270	0.094540
N351	N35	0.182730	0.908440	0.525950
C181	C18	0.187730	0.867510	0.594540
H351	H35	0.224400	0.876800	0.635400
H361	H36	0.107500	0.958800	0.401100
N361	N36	0.132490	0.812270	0.594540
N371	N37	0.317270	0.408440	0.974050
C191	C19	0.312270	0.367510	0.905460
H371	H37	0.275600	0.376800	0.864600
H381	H38	0.392500	0.458800	0.098900
N381	N38	0.367510	0.312270	0.905460
N391	N39	0.817270	0.908440	0.474050
C201	C20	0.812270	0.867510	0.405460
H391	H39	0.775600	0.876800	0.364600
H401	H40	0.892500	0.958800	0.598900
N401	N40	0.867510	0.812270	0.405460
N411	N41	0.682730	0.591560	0.974050
C211	C21	0.687730	0.632490	0.905460
H411	H41	0.724400	0.623200	0.864600
H421	H42	0.607500	0.541200	0.098900
N421	N42	0.632490	0.687730	0.905460
N431	N43	0.182730	0.091560	0.474050
C221	C22	0.187730	0.132490	0.405460
H431	H43	0.224400	0.123200	0.364600
H441	H44	0.107500	0.041200	0.598900
N441	N44	0.132490	0.187730	0.405460
N451	N45	0.317270	0.591560	0.025950
C231	C23	0.312270	0.632490	0.094540
H451	H45	0.275600	0.623200	0.135400
H461	H46	0.392500	0.541200	0.901100
N461	N46	0.367510	0.687730	0.094540
N471	N47	0.817270	0.091560	0.525950
C241	C24	0.812270	0.132490	0.594540
H471	H47	0.775600	0.123200	0.635400
H481	H48	0.892500	0.041200	0.401100
N481	N48	0.867510	0.187730	0.594540
N491	N49	0.682730	0.025950	0.408440
H491	H49	0.724400	0.135400	0.376800
H501	H50	0.607500	0.901100	0.458800
N501	N50	0.182730	0.525950	0.908440
H511	H51	0.224400	0.635400	0.876800
H521	H52	0.107500	0.401100	0.958800
N511	N51	0.317270	0.974050	0.408440
H531	H53	0.275600	0.864600	0.376800
H541	H54	0.392500	0.098900	0.458800
N521	N52	0.817270	0.474050	0.908440
H551	H55	0.775600	0.364600	0.876800
H561	H56	0.892500	0.598900	0.958800
N531	N53	0.682730	0.974050	0.591560
H571	H57	0.724400	0.864600	0.623200
H581	H58	0.607500	0.098900	0.541200
N541	N54	0.182730	0.474050	0.091560
H591	H59	0.224400	0.364600	0.123200
H601	H60	0.107500	0.598900	0.041200
N551	N55	0.317270	0.025950	0.591560
H611	H61	0.275600	0.135400	0.623200
H621	H62	0.392500	0.901100	0.541200
N561	N56	0.817270	0.525950	0.091560
H631	H63	0.775600	0.635400	0.123200
H641	H64	0.892500	0.401100	0.041200
N571	N57	0.025950	0.408440	0.682730
H651	H65	0.135400	0.376800	0.724400
H661	H66	0.901100	0.458800	0.607500
N581	N58	0.525950	0.908440	0.182730
H671	H67	0.635400	0.876800	0.224400
H681	H68	0.401100	0.958800	0.107500
N591	N59	0.974050	0.408440	0.317270
H691	H69	0.864600	0.376800	0.275600
H701	H70	0.098900	0.458800	0.392500
N601	N60	0.474050	0.908440	0.817270
H711	H71	0.364600	0.876800	0.775600
H721	H72	0.598900	0.958800	0.892500
N611	N61	0.974050	0.591560	0.682730
H731	H73	0.864600	0.623200	0.724400
H741	H74	0.098900	0.541200	0.607500
N621	N62	0.474050	0.091560	0.182730
H751	H75	0.364600	0.123200	0.224400
H761	H76	0.598900	0.041200	0.107500
N631	N63	0.025950	0.591560	0.317270
H771	H77	0.135400	0.623200	0.275600
H781	H78	0.901100	0.541200	0.392500
N641	N64	0.525950	0.091560	0.817270
H791	H79	0.635400	0.123200	0.775600
H801	H80	0.401100	0.041200	0.892500
N651	N65	0.408440	0.682730	0.025950
H811	H81	0.376800	0.724400	0.135400
H821	H82	0.458800	0.607500	0.901100
N661	N66	0.908440	0.182730	0.525950
H831	H83	0.876800	0.224400	0.635400
H841	H84	0.958800	0.107500	0.401100
N671	N67	0.408440	0.317270	0.974050
H851	H85	0.376800	0.275600	0.864600
H861	H86	0.458800	0.392500	0.098900
N681	N68	0.908440	0.817270	0.474050
H871	H87	0.876800	0.775600	0.364600
H881	H88	0.958800	0.892500	0.598900
N691	N69	0.591560	0.682730	0.974050
H891	H89	0.623200	0.724400	0.864600
H901	H90	0.541200	0.607500	0.098900
N701	N70	0.091560	0.182730	0.474050
H911	H91	0.123200	0.224400	0.364600
H921	H92	0.041200	0.107500	0.598900
N711	N71	0.591560	0.317270	0.025950
H931	H93	0.623200	0.275600	0.135400
H941	H94	0.541200	0.392500	0.901100
N721	N72	0.091560	0.817270	0.525950
H951	H95	0.123200	0.775600	0.635400
H961	H96	0.041200	0.892500	0.401100
Zn11	Zn1	0.000000	0.750000	0.500000
Zn21	Zn2	0.000000	0.250000	0.500000
Zn31	Zn3	0.500000	0.000000	0.750000
Zn41	Zn4	0.500000	0.000000	0.250000
Zn51	Zn5	0.750000	0.500000	0.000000
Zn61	Zn6	0.250000	0.500000	0.000000
Zn71	Zn7	0.750000	0.000000	0.500000
Zn81	Zn8	0.250000	0.000000	0.500000
Zn91	Zn9	0.000000	0.500000	0.750000
Zn101	Zn10	0.000000	0.500000	0.250000
Zn111	Zn11	0.500000	0.750000	0.000000
Zn121	Zn12	0.500000	0.250000	0.000000
C251	C25	0.986700	0.623600	0.376400
C261	C26	0.907000	0.597400	0.402600
H971	H97	0.866800	0.626350	0.373650
C271	C27	0.486700	0.123600	0.876400
C281	C28	0.407000	0.097400	0.902600
H981	H98	0.366800	0.126350	0.873650
C291	C29	0.013300	0.376400	0.376400
C301	C30	0.093000	0.402600	0.402600
H991	H99	0.133200	0.373650	0.373650
C311	C31	0.513300	0.876400	0.876400
C321	C32	0.593000	0.902600	0.902600
H1001	H100	0.633200	0.873650	0.873650
C331	C33	0.013300	0.623600	0.623600
C341	C34	0.093000	0.597400	0.597400
H1011	H101	0.133200	0.626350	0.626350
C351	C35	0.513300	0.123600	0.123600
C361	C36	0.593000	0.097400	0.097400
H1021	H102	0.633200	0.126350	0.126350
C371	C37	0.986700	0.376400	0.623600
C381	C38	0.907000	0.402600	0.597400
H1031	H103	0.866800	0.373650	0.626350
C391	C39	0.486700	0.876400	0.123600
C401	C40	0.407000	0.902600	0.097400
H1041	H104	0.366800	0.873650	0.126350
C411	C41	0.376400	0.986700	0.623600
C421	C42	0.402600	0.907000	0.597400
H1051	H105	0.373650	0.866800	0.626350
C431	C43	0.876400	0.486700	0.123600
C441	C44	0.902600	0.407000	0.097400
H1061	H106	0.873650	0.366800	0.126350
C451	C45	0.376400	0.013300	0.376400
C461	C46	0.402600	0.093000	0.402600
H1071	H107	0.373650	0.133200	0.373650
C471	C47	0.876400	0.513300	0.876400
C481	C48	0.902600	0.593000	0.902600
H1081	H108	0.873650	0.633200	0.873650
C491	C49	0.623600	0.013300	0.623600
C501	C50	0.597400	0.093000	0.597400
H1091	H109	0.626350	0.133200	0.626350
C511	C51	0.123600	0.513300	0.123600
C521	C52	0.097400	0.593000	0.097400
H1101	H110	0.126350	0.633200	0.126350
C531	C53	0.623600	0.986700	0.376400
C541	C54	0.597400	0.907000	0.402600
H1111	H111	0.626350	0.866800	0.373650
C551	C55	0.123600	0.486700	0.876400
C561	C56	0.097400	0.407000	0.902600
H1121	H112	0.126350	0.366800	0.873650
C571	C57	0.623600	0.376400	0.986700
C581	C58	0.597400	0.402600	0.907000
H1131	H113	0.626350	0.373650	0.866800
C591	C59	0.123600	0.876400	0.486700
C601	C60	0.097400	0.902600	0.407000
H1141	H114	0.126350	0.873650	0.366800
C611	C61	0.376400	0.376400	0.013300
C621	C62	0.402600	0.402600	0.093000
H1151	H115	0.373650	0.373650	0.133200
C631	C63	0.876400	0.876400	0.513300
C641	C64	0.902600	0.902600	0.593000
H1161	H116	0.873650	0.873650	0.633200
C651	C65	0.623600	0.623600	0.013300
C661	C66	0.597400	0.597400	0.093000
H1171	H117	0.626350	0.626350	0.133200
C671	C67	0.123600	0.123600	0.513300
C681	C68	0.097400	0.097400	0.593000
H1181	H118	0.126350	0.126350	0.633200
C691	C69	0.376400	0.623600	0.986700
C701	C70	0.402600	0.597400	0.907000
H1191	H119	0.373650	0.626350	0.866800
C711	C71	0.876400	0.123600	0.486700
C721	C72	0.902600	0.097400	0.407000
H1201	H120	0.873650	0.126350	0.366800
