data_SEFVAC_clean_PM
_symmetry_space_group_name_H-M	'P1'
_cell_length_a	17.120000
_cell_length_b	17.120000
_cell_length_c	17.120000
_cell_angle_alpha	90.000000
_cell_angle_beta	90.000000
_cell_angle_gamma	90.000000
_symmetry_Int_Tables_number 1

loop_
_symmetry_equiv_pos_as_xyz
'x,y,z'

loop_
_atom_site_label
_atom_site_type_symbol
_atom_site_fract_x
_atom_site_fract_y
_atom_site_fract_z
N11	N1	0.032100	0.681900	0.411000
C11	C1	0.104400	0.675500	0.379200
H11	H1	0.148500	0.705800	0.394000
H21	H2	0.897100	0.619900	0.446200
N21	N2	0.532100	0.181900	0.911000
C21	C2	0.604400	0.175500	0.879200
H31	H3	0.648500	0.205800	0.894000
H41	H4	0.397100	0.119900	0.946200
N31	N3	0.967900	0.318100	0.411000
C31	C3	0.895600	0.324500	0.379200
H51	H5	0.851500	0.294200	0.394000
H61	H6	0.102900	0.380100	0.446200
N41	N4	0.467900	0.818100	0.911000
C41	C4	0.395600	0.824500	0.879200
H71	H7	0.351500	0.794200	0.894000
H81	H8	0.602900	0.880100	0.946200
N51	N5	0.967900	0.681900	0.589000
C51	C5	0.895600	0.675500	0.620800
H91	H9	0.851500	0.705800	0.606000
H101	H10	0.102900	0.619900	0.553800
N61	N6	0.467900	0.181900	0.089000
C61	C6	0.395600	0.175500	0.120800
H111	H11	0.351500	0.205800	0.106000
H121	H12	0.602900	0.119900	0.053800
N71	N7	0.032100	0.318100	0.589000
C71	C7	0.104400	0.324500	0.620800
H131	H13	0.148500	0.294200	0.606000
H141	H14	0.897100	0.380100	0.553800
N81	N8	0.532100	0.818100	0.089000
C81	C8	0.604400	0.824500	0.120800
H151	H15	0.648500	0.794200	0.106000
H161	H16	0.397100	0.880100	0.053800
N91	N9	0.411000	0.032100	0.681900
C91	C9	0.379200	0.104400	0.675500
H171	H17	0.394000	0.148500	0.705800
H181	H18	0.446200	0.897100	0.619900
N101	N10	0.911000	0.532100	0.181900
C101	C10	0.879200	0.604400	0.175500
H191	H19	0.894000	0.648500	0.205800
H201	H20	0.946200	0.397100	0.119900
N111	N11	0.411000	0.967900	0.318100
C111	C11	0.379200	0.895600	0.324500
H211	H21	0.394000	0.851500	0.294200
H221	H22	0.446200	0.102900	0.380100
N121	N12	0.911000	0.467900	0.818100
C121	C12	0.879200	0.395600	0.824500
H231	H23	0.894000	0.351500	0.794200
H241	H24	0.946200	0.602900	0.880100
N131	N13	0.589000	0.967900	0.681900
C131	C13	0.620800	0.895600	0.675500
H251	H25	0.606000	0.851500	0.705800
H261	H26	0.553800	0.102900	0.619900
N141	N14	0.089000	0.467900	0.181900
C141	C14	0.120800	0.395600	0.175500
H271	H27	0.106000	0.351500	0.205800
H281	H28	0.053800	0.602900	0.119900
N151	N15	0.589000	0.032100	0.318100
C151	C15	0.620800	0.104400	0.324500
H291	H29	0.606000	0.148500	0.294200
H301	H30	0.553800	0.897100	0.380100
N161	N16	0.089000	0.532100	0.818100
C161	C16	0.120800	0.604400	0.824500
H311	H31	0.106000	0.648500	0.794200
H321	H32	0.053800	0.397100	0.880100
N171	N17	0.681900	0.411000	0.032100
C171	C17	0.675500	0.379200	0.104400
H331	H33	0.705800	0.394000	0.148500
H341	H34	0.619900	0.446200	0.897100
N181	N18	0.181900	0.911000	0.532100
C181	C18	0.175500	0.879200	0.604400
H351	H35	0.205800	0.894000	0.648500
H361	H36	0.119900	0.946200	0.397100
N191	N19	0.318100	0.411000	0.967900
C191	C19	0.324500	0.379200	0.895600
H371	H37	0.294200	0.394000	0.851500
H381	H38	0.380100	0.446200	0.102900
N201	N20	0.818100	0.911000	0.467900
C201	C20	0.824500	0.879200	0.395600
H391	H39	0.794200	0.894000	0.351500
H401	H40	0.880100	0.946200	0.602900
N211	N21	0.681900	0.589000	0.967900
C211	C21	0.675500	0.620800	0.895600
H411	H41	0.705800	0.606000	0.851500
H421	H42	0.619900	0.553800	0.102900
N221	N22	0.181900	0.089000	0.467900
C221	C22	0.175500	0.120800	0.395600
H431	H43	0.205800	0.106000	0.351500
H441	H44	0.119900	0.053800	0.602900
N231	N23	0.318100	0.589000	0.032100
C231	C23	0.324500	0.620800	0.104400
H451	H45	0.294200	0.606000	0.148500
H461	H46	0.380100	0.553800	0.897100
N241	N24	0.818100	0.089000	0.532100
C241	C24	0.824500	0.120800	0.604400
H471	H47	0.794200	0.106000	0.648500
H481	H48	0.880100	0.053800	0.397100
N251	N25	0.681900	0.032100	0.411000
C251	C25	0.675500	0.104400	0.379200
H491	H49	0.705800	0.148500	0.394000
H501	H50	0.619900	0.897100	0.446200
N261	N26	0.181900	0.532100	0.911000
C261	C26	0.175500	0.604400	0.879200
H511	H51	0.205800	0.648500	0.894000
H521	H52	0.119900	0.397100	0.946200
N271	N27	0.318100	0.967900	0.411000
C271	C27	0.324500	0.895600	0.379200
H531	H53	0.294200	0.851500	0.394000
H541	H54	0.380100	0.102900	0.446200
N281	N28	0.818100	0.467900	0.911000
C281	C28	0.824500	0.395600	0.879200
H551	H55	0.794200	0.351500	0.894000
H561	H56	0.880100	0.602900	0.946200
N291	N29	0.681900	0.967900	0.589000
C291	C29	0.675500	0.895600	0.620800
H571	H57	0.705800	0.851500	0.606000
H581	H58	0.619900	0.102900	0.553800
N301	N30	0.181900	0.467900	0.089000
C301	C30	0.175500	0.395600	0.120800
H591	H59	0.205800	0.351500	0.106000
H601	H60	0.119900	0.602900	0.053800
N311	N31	0.318100	0.032100	0.589000
C311	C31	0.324500	0.104400	0.620800
H611	H61	0.294200	0.148500	0.606000
H621	H62	0.380100	0.897100	0.553800
N321	N32	0.818100	0.532100	0.089000
C321	C32	0.824500	0.604400	0.120800
H631	H63	0.794200	0.648500	0.106000
H641	H64	0.880100	0.397100	0.053800
N331	N33	0.032100	0.411000	0.681900
C331	C33	0.104400	0.379200	0.675500
H651	H65	0.148500	0.394000	0.705800
H661	H66	0.897100	0.446200	0.619900
N341	N34	0.532100	0.911000	0.181900
C341	C34	0.604400	0.879200	0.175500
H671	H67	0.648500	0.894000	0.205800
H681	H68	0.397100	0.946200	0.119900
N351	N35	0.967900	0.411000	0.318100
C351	C35	0.895600	0.379200	0.324500
H691	H69	0.851500	0.394000	0.294200
H701	H70	0.102900	0.446200	0.380100
N361	N36	0.467900	0.911000	0.818100
C361	C36	0.395600	0.879200	0.824500
H711	H71	0.351500	0.894000	0.794200
H721	H72	0.602900	0.946200	0.880100
N371	N37	0.967900	0.589000	0.681900
C371	C37	0.895600	0.620800	0.675500
H731	H73	0.851500	0.606000	0.705800
H741	H74	0.102900	0.553800	0.619900
N381	N38	0.467900	0.089000	0.181900
C381	C38	0.395600	0.120800	0.175500
H751	H75	0.351500	0.106000	0.205800
H761	H76	0.602900	0.053800	0.119900
N391	N39	0.032100	0.589000	0.318100
C391	C39	0.104400	0.620800	0.324500
H771	H77	0.148500	0.606000	0.294200
H781	H78	0.897100	0.553800	0.380100
N401	N40	0.532100	0.089000	0.818100
C401	C40	0.604400	0.120800	0.824500
H791	H79	0.648500	0.106000	0.794200
H801	H80	0.397100	0.053800	0.880100
N411	N41	0.411000	0.681900	0.032100
C411	C41	0.379200	0.675500	0.104400
H811	H81	0.394000	0.705800	0.148500
H821	H82	0.446200	0.619900	0.897100
N421	N42	0.911000	0.181900	0.532100
C421	C42	0.879200	0.175500	0.604400
H831	H83	0.894000	0.205800	0.648500
H841	H84	0.946200	0.119900	0.397100
N431	N43	0.411000	0.318100	0.967900
C431	C43	0.379200	0.324500	0.895600
H851	H85	0.394000	0.294200	0.851500
H861	H86	0.446200	0.380100	0.102900
N441	N44	0.911000	0.818100	0.467900
C441	C44	0.879200	0.824500	0.395600
H871	H87	0.894000	0.794200	0.351500
H881	H88	0.946200	0.880100	0.602900
N451	N45	0.589000	0.681900	0.967900
C451	C45	0.620800	0.675500	0.895600
H891	H89	0.606000	0.705800	0.851500
H901	H90	0.553800	0.619900	0.102900
N461	N46	0.089000	0.181900	0.467900
C461	C46	0.120800	0.175500	0.395600
H911	H91	0.106000	0.205800	0.351500
H921	H92	0.053800	0.119900	0.602900
N471	N47	0.589000	0.318100	0.032100
C471	C47	0.620800	0.324500	0.104400
H931	H93	0.606000	0.294200	0.148500
H941	H94	0.553800	0.380100	0.897100
N481	N48	0.089000	0.818100	0.532100
C481	C48	0.120800	0.824500	0.604400
H951	H95	0.106000	0.794200	0.648500
H961	H96	0.053800	0.880100	0.397100
Zn11	Zn1	0.000000	0.750000	0.500000
Zn21	Zn2	0.000000	0.250000	0.500000
Zn31	Zn3	0.500000	0.000000	0.750000
Zn41	Zn4	0.500000	0.000000	0.250000
Zn51	Zn5	0.750000	0.500000	0.000000
Zn61	Zn6	0.250000	0.500000	0.000000
Zn71	Zn7	0.750000	0.000000	0.500000
Zn81	Zn8	0.250000	0.000000	0.500000
Zn91	Zn9	0.000000	0.500000	0.750000
Zn101	Zn10	0.000000	0.500000	0.250000
Zn111	Zn11	0.500000	0.750000	0.000000
Zn121	Zn12	0.500000	0.250000	0.000000
C491	C49	0.990700	0.627000	0.373000
C501	C50	0.907500	0.609100	0.390900
H971	H97	0.873500	0.641600	0.358400
C511	C51	0.490700	0.127000	0.873000
C521	C52	0.407500	0.109100	0.890900
H981	H98	0.373500	0.141600	0.858400
C531	C53	0.009300	0.373000	0.373000
C541	C54	0.092500	0.390900	0.390900
H991	H99	0.126500	0.358400	0.358400
C551	C55	0.509300	0.873000	0.873000
C561	C56	0.592500	0.890900	0.890900
H1001	H100	0.626500	0.858400	0.858400
C571	C57	0.009300	0.627000	0.627000
C581	C58	0.092500	0.609100	0.609100
H1011	H101	0.126500	0.641600	0.641600
C591	C59	0.509300	0.127000	0.127000
C601	C60	0.592500	0.109100	0.109100
H1021	H102	0.626500	0.141600	0.141600
C611	C61	0.990700	0.373000	0.627000
C621	C62	0.907500	0.390900	0.609100
H1031	H103	0.873500	0.358400	0.641600
C631	C63	0.490700	0.873000	0.127000
C641	C64	0.407500	0.890900	0.109100
H1041	H104	0.373500	0.858400	0.141600
C651	C65	0.373000	0.990700	0.627000
C661	C66	0.390900	0.907500	0.609100
H1051	H105	0.358400	0.873500	0.641600
C671	C67	0.873000	0.490700	0.127000
C681	C68	0.890900	0.407500	0.109100
H1061	H106	0.858400	0.373500	0.141600
C691	C69	0.373000	0.009300	0.373000
C701	C70	0.390900	0.092500	0.390900
H1071	H107	0.358400	0.126500	0.358400
C711	C71	0.873000	0.509300	0.873000
C721	C72	0.890900	0.592500	0.890900
H1081	H108	0.858400	0.626500	0.858400
C731	C73	0.627000	0.009300	0.627000
C741	C74	0.609100	0.092500	0.609100
H1091	H109	0.641600	0.126500	0.641600
C751	C75	0.127000	0.509300	0.127000
C761	C76	0.109100	0.592500	0.109100
H1101	H110	0.141600	0.626500	0.141600
C771	C77	0.627000	0.990700	0.373000
C781	C78	0.609100	0.907500	0.390900
H1111	H111	0.641600	0.873500	0.358400
C791	C79	0.127000	0.490700	0.873000
C801	C80	0.109100	0.407500	0.890900
H1121	H112	0.141600	0.373500	0.858400
C811	C81	0.627000	0.373000	0.990700
C821	C82	0.609100	0.390900	0.907500
H1131	H113	0.641600	0.358400	0.873500
C831	C83	0.127000	0.873000	0.490700
C841	C84	0.109100	0.890900	0.407500
H1141	H114	0.141600	0.858400	0.373500
C851	C85	0.373000	0.373000	0.009300
C861	C86	0.390900	0.390900	0.092500
H1151	H115	0.358400	0.358400	0.126500
C871	C87	0.873000	0.873000	0.509300
C881	C88	0.890900	0.890900	0.592500
H1161	H116	0.858400	0.858400	0.626500
C891	C89	0.627000	0.627000	0.009300
C901	C90	0.609100	0.609100	0.092500
H1171	H117	0.641600	0.641600	0.126500
C911	C91	0.127000	0.127000	0.509300
C921	C92	0.109100	0.109100	0.592500
H1181	H118	0.141600	0.141600	0.626500
C931	C93	0.373000	0.627000	0.990700
C941	C94	0.390900	0.609100	0.907500
H1191	H119	0.358400	0.641600	0.873500
C951	C95	0.873000	0.127000	0.490700
C961	C96	0.890900	0.109100	0.407500
H1201	H120	0.858400	0.141600	0.373500
