data_SEFWEH_clean_PM
_symmetry_space_group_name_H-M	'P1'
_cell_length_a	17.055000
_cell_length_b	17.055000
_cell_length_c	17.055000
_cell_angle_alpha	90.000000
_cell_angle_beta	90.000000
_cell_angle_gamma	90.000000
_symmetry_Int_Tables_number 1

loop_
_symmetry_equiv_pos_as_xyz
'x,y,z'

loop_
_atom_site_label
_atom_site_type_symbol
_atom_site_fract_x
_atom_site_fract_y
_atom_site_fract_z
N11	N1	0.027070	0.682420	0.408800
C11	C1	0.095400	0.685800	0.369000
H11	H1	0.136800	0.721700	0.378800
H21	H2	0.901500	0.607700	0.458400
N21	N2	0.527070	0.182420	0.908800
C21	C2	0.595400	0.185800	0.869000
H31	H3	0.636800	0.221700	0.878800
H41	H4	0.401500	0.107700	0.958400
N31	N3	0.972930	0.317580	0.408800
C31	C3	0.904600	0.314200	0.369000
H51	H5	0.863200	0.278300	0.378800
H61	H6	0.098500	0.392300	0.458400
N41	N4	0.472930	0.817580	0.908800
C41	C4	0.404600	0.814200	0.869000
H71	H7	0.363200	0.778300	0.878800
H81	H8	0.598500	0.892300	0.958400
N51	N5	0.972930	0.682420	0.591200
C51	C5	0.904600	0.685800	0.631000
H91	H9	0.863200	0.721700	0.621200
H101	H10	0.098500	0.607700	0.541600
N61	N6	0.472930	0.182420	0.091200
C61	C6	0.404600	0.185800	0.131000
H111	H11	0.363200	0.221700	0.121200
H121	H12	0.598500	0.107700	0.041600
N71	N7	0.027070	0.317580	0.591200
C71	C7	0.095400	0.314200	0.631000
H131	H13	0.136800	0.278300	0.621200
H141	H14	0.901500	0.392300	0.541600
N81	N8	0.527070	0.817580	0.091200
C81	C8	0.595400	0.814200	0.131000
H151	H15	0.636800	0.778300	0.121200
H161	H16	0.401500	0.892300	0.041600
N91	N9	0.408800	0.027070	0.682420
C91	C9	0.369000	0.095400	0.685800
H171	H17	0.378800	0.136800	0.721700
H181	H18	0.458400	0.901500	0.607700
N101	N10	0.908800	0.527070	0.182420
C101	C10	0.869000	0.595400	0.185800
H191	H19	0.878800	0.636800	0.221700
H201	H20	0.958400	0.401500	0.107700
N111	N11	0.408800	0.972930	0.317580
C111	C11	0.369000	0.904600	0.314200
H211	H21	0.378800	0.863200	0.278300
H221	H22	0.458400	0.098500	0.392300
N121	N12	0.908800	0.472930	0.817580
C121	C12	0.869000	0.404600	0.814200
H231	H23	0.878800	0.363200	0.778300
H241	H24	0.958400	0.598500	0.892300
N131	N13	0.591200	0.972930	0.682420
C131	C13	0.631000	0.904600	0.685800
H251	H25	0.621200	0.863200	0.721700
H261	H26	0.541600	0.098500	0.607700
N141	N14	0.091200	0.472930	0.182420
C141	C14	0.131000	0.404600	0.185800
H271	H27	0.121200	0.363200	0.221700
H281	H28	0.041600	0.598500	0.107700
N151	N15	0.591200	0.027070	0.317580
C151	C15	0.631000	0.095400	0.314200
H291	H29	0.621200	0.136800	0.278300
H301	H30	0.541600	0.901500	0.392300
N161	N16	0.091200	0.527070	0.817580
C161	C16	0.131000	0.595400	0.814200
H311	H31	0.121200	0.636800	0.778300
H321	H32	0.041600	0.401500	0.892300
N171	N17	0.682420	0.408800	0.027070
C171	C17	0.685800	0.369000	0.095400
H331	H33	0.721700	0.378800	0.136800
H341	H34	0.607700	0.458400	0.901500
N181	N18	0.182420	0.908800	0.527070
C181	C18	0.185800	0.869000	0.595400
H351	H35	0.221700	0.878800	0.636800
H361	H36	0.107700	0.958400	0.401500
N191	N19	0.317580	0.408800	0.972930
C191	C19	0.314200	0.369000	0.904600
H371	H37	0.278300	0.378800	0.863200
H381	H38	0.392300	0.458400	0.098500
N201	N20	0.817580	0.908800	0.472930
C201	C20	0.814200	0.869000	0.404600
H391	H39	0.778300	0.878800	0.363200
H401	H40	0.892300	0.958400	0.598500
N211	N21	0.682420	0.591200	0.972930
C211	C21	0.685800	0.631000	0.904600
H411	H41	0.721700	0.621200	0.863200
H421	H42	0.607700	0.541600	0.098500
N221	N22	0.182420	0.091200	0.472930
C221	C22	0.185800	0.131000	0.404600
H431	H43	0.221700	0.121200	0.363200
H441	H44	0.107700	0.041600	0.598500
N231	N23	0.317580	0.591200	0.027070
C231	C23	0.314200	0.631000	0.095400
H451	H45	0.278300	0.621200	0.136800
H461	H46	0.392300	0.541600	0.901500
N241	N24	0.817580	0.091200	0.527070
C241	C24	0.814200	0.131000	0.595400
H471	H47	0.778300	0.121200	0.636800
H481	H48	0.892300	0.041600	0.401500
N251	N25	0.682420	0.027070	0.408800
C251	C25	0.685800	0.095400	0.369000
H491	H49	0.721700	0.136800	0.378800
H501	H50	0.607700	0.901500	0.458400
N261	N26	0.182420	0.527070	0.908800
C261	C26	0.185800	0.595400	0.869000
H511	H51	0.221700	0.636800	0.878800
H521	H52	0.107700	0.401500	0.958400
N271	N27	0.317580	0.972930	0.408800
C271	C27	0.314200	0.904600	0.369000
H531	H53	0.278300	0.863200	0.378800
H541	H54	0.392300	0.098500	0.458400
N281	N28	0.817580	0.472930	0.908800
C281	C28	0.814200	0.404600	0.869000
H551	H55	0.778300	0.363200	0.878800
H561	H56	0.892300	0.598500	0.958400
N291	N29	0.682420	0.972930	0.591200
C291	C29	0.685800	0.904600	0.631000
H571	H57	0.721700	0.863200	0.621200
H581	H58	0.607700	0.098500	0.541600
N301	N30	0.182420	0.472930	0.091200
C301	C30	0.185800	0.404600	0.131000
H591	H59	0.221700	0.363200	0.121200
H601	H60	0.107700	0.598500	0.041600
N311	N31	0.317580	0.027070	0.591200
C311	C31	0.314200	0.095400	0.631000
H611	H61	0.278300	0.136800	0.621200
H621	H62	0.392300	0.901500	0.541600
N321	N32	0.817580	0.527070	0.091200
C321	C32	0.814200	0.595400	0.131000
H631	H63	0.778300	0.636800	0.121200
H641	H64	0.892300	0.401500	0.041600
N331	N33	0.027070	0.408800	0.682420
C331	C33	0.095400	0.369000	0.685800
H651	H65	0.136800	0.378800	0.721700
H661	H66	0.901500	0.458400	0.607700
N341	N34	0.527070	0.908800	0.182420
C341	C34	0.595400	0.869000	0.185800
H671	H67	0.636800	0.878800	0.221700
H681	H68	0.401500	0.958400	0.107700
N351	N35	0.972930	0.408800	0.317580
C351	C35	0.904600	0.369000	0.314200
H691	H69	0.863200	0.378800	0.278300
H701	H70	0.098500	0.458400	0.392300
N361	N36	0.472930	0.908800	0.817580
C361	C36	0.404600	0.869000	0.814200
H711	H71	0.363200	0.878800	0.778300
H721	H72	0.598500	0.958400	0.892300
N371	N37	0.972930	0.591200	0.682420
C371	C37	0.904600	0.631000	0.685800
H731	H73	0.863200	0.621200	0.721700
H741	H74	0.098500	0.541600	0.607700
N381	N38	0.472930	0.091200	0.182420
C381	C38	0.404600	0.131000	0.185800
H751	H75	0.363200	0.121200	0.221700
H761	H76	0.598500	0.041600	0.107700
N391	N39	0.027070	0.591200	0.317580
C391	C39	0.095400	0.631000	0.314200
H771	H77	0.136800	0.621200	0.278300
H781	H78	0.901500	0.541600	0.392300
N401	N40	0.527070	0.091200	0.817580
C401	C40	0.595400	0.131000	0.814200
H791	H79	0.636800	0.121200	0.778300
H801	H80	0.401500	0.041600	0.892300
N411	N41	0.408800	0.682420	0.027070
C411	C41	0.369000	0.685800	0.095400
H811	H81	0.378800	0.721700	0.136800
H821	H82	0.458400	0.607700	0.901500
N421	N42	0.908800	0.182420	0.527070
C421	C42	0.869000	0.185800	0.595400
H831	H83	0.878800	0.221700	0.636800
H841	H84	0.958400	0.107700	0.401500
N431	N43	0.408800	0.317580	0.972930
C431	C43	0.369000	0.314200	0.904600
H851	H85	0.378800	0.278300	0.863200
H861	H86	0.458400	0.392300	0.098500
N441	N44	0.908800	0.817580	0.472930
C441	C44	0.869000	0.814200	0.404600
H871	H87	0.878800	0.778300	0.363200
H881	H88	0.958400	0.892300	0.598500
N451	N45	0.591200	0.682420	0.972930
C451	C45	0.631000	0.685800	0.904600
H891	H89	0.621200	0.721700	0.863200
H901	H90	0.541600	0.607700	0.098500
N461	N46	0.091200	0.182420	0.472930
C461	C46	0.131000	0.185800	0.404600
H911	H91	0.121200	0.221700	0.363200
H921	H92	0.041600	0.107700	0.598500
N471	N47	0.591200	0.317580	0.027070
C471	C47	0.631000	0.314200	0.095400
H931	H93	0.621200	0.278300	0.136800
H941	H94	0.541600	0.392300	0.901500
N481	N48	0.091200	0.817580	0.527070
C481	C48	0.131000	0.814200	0.595400
H951	H95	0.121200	0.778300	0.636800
H961	H96	0.041600	0.892300	0.401500
Zn11	Zn1	0.000000	0.750000	0.500000
Zn21	Zn2	0.000000	0.250000	0.500000
Zn31	Zn3	0.500000	0.000000	0.750000
Zn41	Zn4	0.500000	0.000000	0.250000
Zn51	Zn5	0.750000	0.500000	0.000000
Zn61	Zn6	0.250000	0.500000	0.000000
Zn71	Zn7	0.750000	0.000000	0.500000
Zn81	Zn8	0.250000	0.000000	0.500000
Zn91	Zn9	0.000000	0.500000	0.750000
Zn101	Zn10	0.000000	0.500000	0.250000
Zn111	Zn11	0.500000	0.750000	0.000000
Zn121	Zn12	0.500000	0.250000	0.000000
C491	C49	0.987000	0.625200	0.374800
C501	C50	0.906900	0.597900	0.402100
H971	H97	0.866100	0.626600	0.373400
C511	C51	0.487000	0.125200	0.874800
C521	C52	0.406900	0.097900	0.902100
H981	H98	0.366100	0.126600	0.873400
C531	C53	0.013000	0.374800	0.374800
C541	C54	0.093100	0.402100	0.402100
H991	H99	0.133900	0.373400	0.373400
C551	C55	0.513000	0.874800	0.874800
C561	C56	0.593100	0.902100	0.902100
H1001	H100	0.633900	0.873400	0.873400
C571	C57	0.013000	0.625200	0.625200
C581	C58	0.093100	0.597900	0.597900
H1011	H101	0.133900	0.626600	0.626600
C591	C59	0.513000	0.125200	0.125200
C601	C60	0.593100	0.097900	0.097900
H1021	H102	0.633900	0.126600	0.126600
C611	C61	0.987000	0.374800	0.625200
C621	C62	0.906900	0.402100	0.597900
H1031	H103	0.866100	0.373400	0.626600
C631	C63	0.487000	0.874800	0.125200
C641	C64	0.406900	0.902100	0.097900
H1041	H104	0.366100	0.873400	0.126600
C651	C65	0.374800	0.987000	0.625200
C661	C66	0.402100	0.906900	0.597900
H1051	H105	0.373400	0.866100	0.626600
C671	C67	0.874800	0.487000	0.125200
C681	C68	0.902100	0.406900	0.097900
H1061	H106	0.873400	0.366100	0.126600
C691	C69	0.374800	0.013000	0.374800
C701	C70	0.402100	0.093100	0.402100
H1071	H107	0.373400	0.133900	0.373400
C711	C71	0.874800	0.513000	0.874800
C721	C72	0.902100	0.593100	0.902100
H1081	H108	0.873400	0.633900	0.873400
C731	C73	0.625200	0.013000	0.625200
C741	C74	0.597900	0.093100	0.597900
H1091	H109	0.626600	0.133900	0.626600
C751	C75	0.125200	0.513000	0.125200
C761	C76	0.097900	0.593100	0.097900
H1101	H110	0.126600	0.633900	0.126600
C771	C77	0.625200	0.987000	0.374800
C781	C78	0.597900	0.906900	0.402100
H1111	H111	0.626600	0.866100	0.373400
C791	C79	0.125200	0.487000	0.874800
C801	C80	0.097900	0.406900	0.902100
H1121	H112	0.126600	0.366100	0.873400
C811	C81	0.625200	0.374800	0.987000
C821	C82	0.597900	0.402100	0.906900
H1131	H113	0.626600	0.373400	0.866100
C831	C83	0.125200	0.874800	0.487000
C841	C84	0.097900	0.902100	0.406900
H1141	H114	0.126600	0.873400	0.366100
C851	C85	0.374800	0.374800	0.013000
C861	C86	0.402100	0.402100	0.093100
H1151	H115	0.373400	0.373400	0.133900
C871	C87	0.874800	0.874800	0.513000
C881	C88	0.902100	0.902100	0.593100
H1161	H116	0.873400	0.873400	0.633900
C891	C89	0.625200	0.625200	0.013000
C901	C90	0.597900	0.597900	0.093100
H1171	H117	0.626600	0.626600	0.133900
C911	C91	0.125200	0.125200	0.513000
C921	C92	0.097900	0.097900	0.593100
H1181	H118	0.126600	0.126600	0.633900
C931	C93	0.374800	0.625200	0.987000
C941	C94	0.402100	0.597900	0.906900
H1191	H119	0.373400	0.626600	0.866100
C951	C95	0.874800	0.125200	0.487000
C961	C96	0.902100	0.097900	0.406900
H1201	H120	0.873400	0.126600	0.366100
