data_SEFWIL_clean_PM
_symmetry_space_group_name_H-M	'P1'
_cell_length_a	17.065900
_cell_length_b	17.065900
_cell_length_c	17.065900
_cell_angle_alpha	90.000000
_cell_angle_beta	90.000000
_cell_angle_gamma	90.000000
_symmetry_Int_Tables_number 1

loop_
_symmetry_equiv_pos_as_xyz
'x,y,z'

loop_
_atom_site_label
_atom_site_type_symbol
_atom_site_fract_x
_atom_site_fract_y
_atom_site_fract_z
N11	N1	0.027600	0.682200	0.409400
C11	C1	0.098700	0.680500	0.374800
H11	H1	0.141700	0.713400	0.387600
H21	H2	0.898900	0.613500	0.452400
N21	N2	0.098700	0.625200	0.319500
N31	N3	0.527600	0.182200	0.909400
C21	C2	0.598700	0.180500	0.874800
H31	H3	0.641700	0.213400	0.887600
H41	H4	0.398900	0.113500	0.952400
N41	N4	0.598700	0.125200	0.819500
N51	N5	0.972400	0.317800	0.409400
C31	C3	0.901300	0.319500	0.374800
H51	H5	0.858300	0.286600	0.387600
H61	H6	0.101100	0.386500	0.452400
N61	N6	0.901300	0.374800	0.319500
N71	N7	0.472400	0.817800	0.909400
C41	C4	0.401300	0.819500	0.874800
H71	H7	0.358300	0.786600	0.887600
H81	H8	0.601100	0.886500	0.952400
N81	N8	0.401300	0.874800	0.819500
N91	N9	0.972400	0.682200	0.590600
C51	C5	0.901300	0.680500	0.625200
H91	H9	0.858300	0.713400	0.612400
H101	H10	0.101100	0.613500	0.547600
N101	N10	0.901300	0.625200	0.680500
N111	N11	0.472400	0.182200	0.090600
C61	C6	0.401300	0.180500	0.125200
H111	H11	0.358300	0.213400	0.112400
H121	H12	0.601100	0.113500	0.047600
N121	N12	0.401300	0.125200	0.180500
N131	N13	0.027600	0.317800	0.590600
C71	C7	0.098700	0.319500	0.625200
H131	H13	0.141700	0.286600	0.612400
H141	H14	0.898900	0.386500	0.547600
N141	N14	0.098700	0.374800	0.680500
N151	N15	0.527600	0.817800	0.090600
C81	C8	0.598700	0.819500	0.125200
H151	H15	0.641700	0.786600	0.112400
H161	H16	0.398900	0.886500	0.047600
N161	N16	0.598700	0.874800	0.180500
N171	N17	0.409400	0.027600	0.682200
C91	C9	0.374800	0.098700	0.680500
H171	H17	0.387600	0.141700	0.713400
H181	H18	0.452400	0.898900	0.613500
N181	N18	0.319500	0.098700	0.625200
N191	N19	0.909400	0.527600	0.182200
C101	C10	0.874800	0.598700	0.180500
H191	H19	0.887600	0.641700	0.213400
H201	H20	0.952400	0.398900	0.113500
N201	N20	0.819500	0.598700	0.125200
N211	N21	0.409400	0.972400	0.317800
C111	C11	0.374800	0.901300	0.319500
H211	H21	0.387600	0.858300	0.286600
H221	H22	0.452400	0.101100	0.386500
N221	N22	0.319500	0.901300	0.374800
N231	N23	0.909400	0.472400	0.817800
C121	C12	0.874800	0.401300	0.819500
H231	H23	0.887600	0.358300	0.786600
H241	H24	0.952400	0.601100	0.886500
N241	N24	0.819500	0.401300	0.874800
N251	N25	0.590600	0.972400	0.682200
C131	C13	0.625200	0.901300	0.680500
H251	H25	0.612400	0.858300	0.713400
H261	H26	0.547600	0.101100	0.613500
N261	N26	0.680500	0.901300	0.625200
N271	N27	0.090600	0.472400	0.182200
C141	C14	0.125200	0.401300	0.180500
H271	H27	0.112400	0.358300	0.213400
H281	H28	0.047600	0.601100	0.113500
N281	N28	0.180500	0.401300	0.125200
N291	N29	0.590600	0.027600	0.317800
C151	C15	0.625200	0.098700	0.319500
H291	H29	0.612400	0.141700	0.286600
H301	H30	0.547600	0.898900	0.386500
N301	N30	0.680500	0.098700	0.374800
N311	N31	0.090600	0.527600	0.817800
C161	C16	0.125200	0.598700	0.819500
H311	H31	0.112400	0.641700	0.786600
H321	H32	0.047600	0.398900	0.886500
N321	N32	0.180500	0.598700	0.874800
N331	N33	0.682200	0.409400	0.027600
C171	C17	0.680500	0.374800	0.098700
H331	H33	0.713400	0.387600	0.141700
H341	H34	0.613500	0.452400	0.898900
N341	N34	0.625200	0.319500	0.098700
N351	N35	0.182200	0.909400	0.527600
C181	C18	0.180500	0.874800	0.598700
H351	H35	0.213400	0.887600	0.641700
H361	H36	0.113500	0.952400	0.398900
N361	N36	0.125200	0.819500	0.598700
N371	N37	0.317800	0.409400	0.972400
C191	C19	0.319500	0.374800	0.901300
H371	H37	0.286600	0.387600	0.858300
H381	H38	0.386500	0.452400	0.101100
N381	N38	0.374800	0.319500	0.901300
N391	N39	0.817800	0.909400	0.472400
C201	C20	0.819500	0.874800	0.401300
H391	H39	0.786600	0.887600	0.358300
H401	H40	0.886500	0.952400	0.601100
N401	N40	0.874800	0.819500	0.401300
N411	N41	0.682200	0.590600	0.972400
C211	C21	0.680500	0.625200	0.901300
H411	H41	0.713400	0.612400	0.858300
H421	H42	0.613500	0.547600	0.101100
N421	N42	0.625200	0.680500	0.901300
N431	N43	0.182200	0.090600	0.472400
C221	C22	0.180500	0.125200	0.401300
H431	H43	0.213400	0.112400	0.358300
H441	H44	0.113500	0.047600	0.601100
N441	N44	0.125200	0.180500	0.401300
N451	N45	0.317800	0.590600	0.027600
C231	C23	0.319500	0.625200	0.098700
H451	H45	0.286600	0.612400	0.141700
H461	H46	0.386500	0.547600	0.898900
N461	N46	0.374800	0.680500	0.098700
N471	N47	0.817800	0.090600	0.527600
C241	C24	0.819500	0.125200	0.598700
H471	H47	0.786600	0.112400	0.641700
H481	H48	0.886500	0.047600	0.398900
N481	N48	0.874800	0.180500	0.598700
N491	N49	0.682200	0.027600	0.409400
H491	H49	0.713400	0.141700	0.387600
H501	H50	0.613500	0.898900	0.452400
N501	N50	0.182200	0.527600	0.909400
H511	H51	0.213400	0.641700	0.887600
H521	H52	0.113500	0.398900	0.952400
N511	N51	0.317800	0.972400	0.409400
H531	H53	0.286600	0.858300	0.387600
H541	H54	0.386500	0.101100	0.452400
N521	N52	0.817800	0.472400	0.909400
H551	H55	0.786600	0.358300	0.887600
H561	H56	0.886500	0.601100	0.952400
N531	N53	0.682200	0.972400	0.590600
H571	H57	0.713400	0.858300	0.612400
H581	H58	0.613500	0.101100	0.547600
N541	N54	0.182200	0.472400	0.090600
H591	H59	0.213400	0.358300	0.112400
H601	H60	0.113500	0.601100	0.047600
N551	N55	0.317800	0.027600	0.590600
H611	H61	0.286600	0.141700	0.612400
H621	H62	0.386500	0.898900	0.547600
N561	N56	0.817800	0.527600	0.090600
H631	H63	0.786600	0.641700	0.112400
H641	H64	0.886500	0.398900	0.047600
N571	N57	0.027600	0.409400	0.682200
H651	H65	0.141700	0.387600	0.713400
H661	H66	0.898900	0.452400	0.613500
N581	N58	0.527600	0.909400	0.182200
H671	H67	0.641700	0.887600	0.213400
H681	H68	0.398900	0.952400	0.113500
N591	N59	0.972400	0.409400	0.317800
H691	H69	0.858300	0.387600	0.286600
H701	H70	0.101100	0.452400	0.386500
N601	N60	0.472400	0.909400	0.817800
H711	H71	0.358300	0.887600	0.786600
H721	H72	0.601100	0.952400	0.886500
N611	N61	0.972400	0.590600	0.682200
H731	H73	0.858300	0.612400	0.713400
H741	H74	0.101100	0.547600	0.613500
N621	N62	0.472400	0.090600	0.182200
H751	H75	0.358300	0.112400	0.213400
H761	H76	0.601100	0.047600	0.113500
N631	N63	0.027600	0.590600	0.317800
H771	H77	0.141700	0.612400	0.286600
H781	H78	0.898900	0.547600	0.386500
N641	N64	0.527600	0.090600	0.817800
H791	H79	0.641700	0.112400	0.786600
H801	H80	0.398900	0.047600	0.886500
N651	N65	0.409400	0.682200	0.027600
H811	H81	0.387600	0.713400	0.141700
H821	H82	0.452400	0.613500	0.898900
N661	N66	0.909400	0.182200	0.527600
H831	H83	0.887600	0.213400	0.641700
H841	H84	0.952400	0.113500	0.398900
N671	N67	0.409400	0.317800	0.972400
H851	H85	0.387600	0.286600	0.858300
H861	H86	0.452400	0.386500	0.101100
N681	N68	0.909400	0.817800	0.472400
H871	H87	0.887600	0.786600	0.358300
H881	H88	0.952400	0.886500	0.601100
N691	N69	0.590600	0.682200	0.972400
H891	H89	0.612400	0.713400	0.858300
H901	H90	0.547600	0.613500	0.101100
N701	N70	0.090600	0.182200	0.472400
H911	H91	0.112400	0.213400	0.358300
H921	H92	0.047600	0.113500	0.601100
N711	N71	0.590600	0.317800	0.027600
H931	H93	0.612400	0.286600	0.141700
H941	H94	0.547600	0.386500	0.898900
N721	N72	0.090600	0.817800	0.527600
H951	H95	0.112400	0.786600	0.641700
H961	H96	0.047600	0.886500	0.398900
Zn11	Zn1	0.000000	0.750000	0.500000
Zn21	Zn2	0.000000	0.250000	0.500000
Zn31	Zn3	0.500000	0.000000	0.750000
Zn41	Zn4	0.500000	0.000000	0.250000
Zn51	Zn5	0.750000	0.500000	0.000000
Zn61	Zn6	0.250000	0.500000	0.000000
Zn71	Zn7	0.750000	0.000000	0.500000
Zn81	Zn8	0.250000	0.000000	0.500000
Zn91	Zn9	0.000000	0.500000	0.750000
Zn101	Zn10	0.000000	0.500000	0.250000
Zn111	Zn11	0.500000	0.750000	0.000000
Zn121	Zn12	0.500000	0.250000	0.000000
C251	C25	0.986200	0.627700	0.372300
C261	C26	0.905900	0.603800	0.396200
H971	H97	0.867200	0.633800	0.366200
C271	C27	0.486200	0.127700	0.872300
C281	C28	0.405900	0.103800	0.896200
H981	H98	0.367200	0.133800	0.866200
C291	C29	0.013800	0.372300	0.372300
C301	C30	0.094100	0.396200	0.396200
H991	H99	0.132800	0.366200	0.366200
C311	C31	0.513800	0.872300	0.872300
C321	C32	0.594100	0.896200	0.896200
H1001	H100	0.632800	0.866200	0.866200
C331	C33	0.013800	0.627700	0.627700
C341	C34	0.094100	0.603800	0.603800
H1011	H101	0.132800	0.633800	0.633800
C351	C35	0.513800	0.127700	0.127700
C361	C36	0.594100	0.103800	0.103800
H1021	H102	0.632800	0.133800	0.133800
C371	C37	0.986200	0.372300	0.627700
C381	C38	0.905900	0.396200	0.603800
H1031	H103	0.867200	0.366200	0.633800
C391	C39	0.486200	0.872300	0.127700
C401	C40	0.405900	0.896200	0.103800
H1041	H104	0.367200	0.866200	0.133800
C411	C41	0.372300	0.986200	0.627700
C421	C42	0.396200	0.905900	0.603800
H1051	H105	0.366200	0.867200	0.633800
C431	C43	0.872300	0.486200	0.127700
C441	C44	0.896200	0.405900	0.103800
H1061	H106	0.866200	0.367200	0.133800
C451	C45	0.372300	0.013800	0.372300
C461	C46	0.396200	0.094100	0.396200
H1071	H107	0.366200	0.132800	0.366200
C471	C47	0.872300	0.513800	0.872300
C481	C48	0.896200	0.594100	0.896200
H1081	H108	0.866200	0.632800	0.866200
C491	C49	0.627700	0.013800	0.627700
C501	C50	0.603800	0.094100	0.603800
H1091	H109	0.633800	0.132800	0.633800
C511	C51	0.127700	0.513800	0.127700
C521	C52	0.103800	0.594100	0.103800
H1101	H110	0.133800	0.632800	0.133800
C531	C53	0.627700	0.986200	0.372300
C541	C54	0.603800	0.905900	0.396200
H1111	H111	0.633800	0.867200	0.366200
C551	C55	0.127700	0.486200	0.872300
C561	C56	0.103800	0.405900	0.896200
H1121	H112	0.133800	0.367200	0.866200
C571	C57	0.627700	0.372300	0.986200
C581	C58	0.603800	0.396200	0.905900
H1131	H113	0.633800	0.366200	0.867200
C591	C59	0.127700	0.872300	0.486200
C601	C60	0.103800	0.896200	0.405900
H1141	H114	0.133800	0.866200	0.367200
C611	C61	0.372300	0.372300	0.013800
C621	C62	0.396200	0.396200	0.094100
H1151	H115	0.366200	0.366200	0.132800
C631	C63	0.872300	0.872300	0.513800
C641	C64	0.896200	0.896200	0.594100
H1161	H116	0.866200	0.866200	0.632800
C651	C65	0.627700	0.627700	0.013800
C661	C66	0.603800	0.603800	0.094100
H1171	H117	0.633800	0.633800	0.132800
C671	C67	0.127700	0.127700	0.513800
C681	C68	0.103800	0.103800	0.594100
H1181	H118	0.133800	0.133800	0.632800
C691	C69	0.372300	0.627700	0.986200
C701	C70	0.396200	0.603800	0.905900
H1191	H119	0.366200	0.633800	0.867200
C711	C71	0.872300	0.127700	0.486200
C721	C72	0.896200	0.103800	0.405900
H1201	H120	0.866200	0.133800	0.367200
