data_SEFWAD_clean_PM
_symmetry_space_group_name_H-M	'P1'
_cell_length_a	17.082000
_cell_length_b	17.082000
_cell_length_c	17.082000
_cell_angle_alpha	90.000000
_cell_angle_beta	90.000000
_cell_angle_gamma	90.000000
_symmetry_Int_Tables_number 1

loop_
_symmetry_equiv_pos_as_xyz
'x,y,z'

loop_
_atom_site_label
_atom_site_type_symbol
_atom_site_fract_x
_atom_site_fract_y
_atom_site_fract_z
N11	N1	0.030020	0.680660	0.410940
C11	C1	0.105500	0.664900	0.390000
H11	H1	0.150800	0.689300	0.411300
H21	H2	0.880400	0.644700	0.421800
N21	N2	0.530020	0.180660	0.910940
C21	C2	0.605500	0.164900	0.890000
H31	H3	0.650800	0.189300	0.911300
H41	H4	0.380400	0.144700	0.921800
N31	N3	0.969980	0.319340	0.410940
C31	C3	0.894500	0.335100	0.390000
H51	H5	0.849200	0.310700	0.411300
H61	H6	0.119600	0.355300	0.421800
N41	N4	0.469980	0.819340	0.910940
C41	C4	0.394500	0.835100	0.890000
H71	H7	0.349200	0.810700	0.911300
H81	H8	0.619600	0.855300	0.921800
N51	N5	0.969980	0.680660	0.589060
C51	C5	0.894500	0.664900	0.610000
H91	H9	0.849200	0.689300	0.588700
H101	H10	0.119600	0.644700	0.578200
N61	N6	0.469980	0.180660	0.089060
C61	C6	0.394500	0.164900	0.110000
H111	H11	0.349200	0.189300	0.088700
H121	H12	0.619600	0.144700	0.078200
N71	N7	0.030020	0.319340	0.589060
C71	C7	0.105500	0.335100	0.610000
H131	H13	0.150800	0.310700	0.588700
H141	H14	0.880400	0.355300	0.578200
N81	N8	0.530020	0.819340	0.089060
C81	C8	0.605500	0.835100	0.110000
H151	H15	0.650800	0.810700	0.088700
H161	H16	0.380400	0.855300	0.078200
N91	N9	0.410940	0.030020	0.680660
C91	C9	0.390000	0.105500	0.664900
H171	H17	0.411300	0.150800	0.689300
H181	H18	0.421800	0.880400	0.644700
N101	N10	0.910940	0.530020	0.180660
C101	C10	0.890000	0.605500	0.164900
H191	H19	0.911300	0.650800	0.189300
H201	H20	0.921800	0.380400	0.144700
N111	N11	0.410940	0.969980	0.319340
C111	C11	0.390000	0.894500	0.335100
H211	H21	0.411300	0.849200	0.310700
H221	H22	0.421800	0.119600	0.355300
N121	N12	0.910940	0.469980	0.819340
C121	C12	0.890000	0.394500	0.835100
H231	H23	0.911300	0.349200	0.810700
H241	H24	0.921800	0.619600	0.855300
N131	N13	0.589060	0.969980	0.680660
C131	C13	0.610000	0.894500	0.664900
H251	H25	0.588700	0.849200	0.689300
H261	H26	0.578200	0.119600	0.644700
N141	N14	0.089060	0.469980	0.180660
C141	C14	0.110000	0.394500	0.164900
H271	H27	0.088700	0.349200	0.189300
H281	H28	0.078200	0.619600	0.144700
N151	N15	0.589060	0.030020	0.319340
C151	C15	0.610000	0.105500	0.335100
H291	H29	0.588700	0.150800	0.310700
H301	H30	0.578200	0.880400	0.355300
N161	N16	0.089060	0.530020	0.819340
C161	C16	0.110000	0.605500	0.835100
H311	H31	0.088700	0.650800	0.810700
H321	H32	0.078200	0.380400	0.855300
N171	N17	0.680660	0.410940	0.030020
C171	C17	0.664900	0.390000	0.105500
H331	H33	0.689300	0.411300	0.150800
H341	H34	0.644700	0.421800	0.880400
N181	N18	0.180660	0.910940	0.530020
C181	C18	0.164900	0.890000	0.605500
H351	H35	0.189300	0.911300	0.650800
H361	H36	0.144700	0.921800	0.380400
N191	N19	0.319340	0.410940	0.969980
C191	C19	0.335100	0.390000	0.894500
H371	H37	0.310700	0.411300	0.849200
H381	H38	0.355300	0.421800	0.119600
N201	N20	0.819340	0.910940	0.469980
C201	C20	0.835100	0.890000	0.394500
H391	H39	0.810700	0.911300	0.349200
H401	H40	0.855300	0.921800	0.619600
N211	N21	0.680660	0.589060	0.969980
C211	C21	0.664900	0.610000	0.894500
H411	H41	0.689300	0.588700	0.849200
H421	H42	0.644700	0.578200	0.119600
N221	N22	0.180660	0.089060	0.469980
C221	C22	0.164900	0.110000	0.394500
H431	H43	0.189300	0.088700	0.349200
H441	H44	0.144700	0.078200	0.619600
N231	N23	0.319340	0.589060	0.030020
C231	C23	0.335100	0.610000	0.105500
H451	H45	0.310700	0.588700	0.150800
H461	H46	0.355300	0.578200	0.880400
N241	N24	0.819340	0.089060	0.530020
C241	C24	0.835100	0.110000	0.605500
H471	H47	0.810700	0.088700	0.650800
H481	H48	0.855300	0.078200	0.380400
N251	N25	0.680660	0.030020	0.410940
C251	C25	0.664900	0.105500	0.390000
H491	H49	0.689300	0.150800	0.411300
H501	H50	0.644700	0.880400	0.421800
N261	N26	0.180660	0.530020	0.910940
C261	C26	0.164900	0.605500	0.890000
H511	H51	0.189300	0.650800	0.911300
H521	H52	0.144700	0.380400	0.921800
N271	N27	0.319340	0.969980	0.410940
C271	C27	0.335100	0.894500	0.390000
H531	H53	0.310700	0.849200	0.411300
H541	H54	0.355300	0.119600	0.421800
N281	N28	0.819340	0.469980	0.910940
C281	C28	0.835100	0.394500	0.890000
H551	H55	0.810700	0.349200	0.911300
H561	H56	0.855300	0.619600	0.921800
N291	N29	0.680660	0.969980	0.589060
C291	C29	0.664900	0.894500	0.610000
H571	H57	0.689300	0.849200	0.588700
H581	H58	0.644700	0.119600	0.578200
N301	N30	0.180660	0.469980	0.089060
C301	C30	0.164900	0.394500	0.110000
H591	H59	0.189300	0.349200	0.088700
H601	H60	0.144700	0.619600	0.078200
N311	N31	0.319340	0.030020	0.589060
C311	C31	0.335100	0.105500	0.610000
H611	H61	0.310700	0.150800	0.588700
H621	H62	0.355300	0.880400	0.578200
N321	N32	0.819340	0.530020	0.089060
C321	C32	0.835100	0.605500	0.110000
H631	H63	0.810700	0.650800	0.088700
H641	H64	0.855300	0.380400	0.078200
N331	N33	0.030020	0.410940	0.680660
C331	C33	0.105500	0.390000	0.664900
H651	H65	0.150800	0.411300	0.689300
H661	H66	0.880400	0.421800	0.644700
N341	N34	0.530020	0.910940	0.180660
C341	C34	0.605500	0.890000	0.164900
H671	H67	0.650800	0.911300	0.189300
H681	H68	0.380400	0.921800	0.144700
N351	N35	0.969980	0.410940	0.319340
C351	C35	0.894500	0.390000	0.335100
H691	H69	0.849200	0.411300	0.310700
H701	H70	0.119600	0.421800	0.355300
N361	N36	0.469980	0.910940	0.819340
C361	C36	0.394500	0.890000	0.835100
H711	H71	0.349200	0.911300	0.810700
H721	H72	0.619600	0.921800	0.855300
N371	N37	0.969980	0.589060	0.680660
C371	C37	0.894500	0.610000	0.664900
H731	H73	0.849200	0.588700	0.689300
H741	H74	0.119600	0.578200	0.644700
N381	N38	0.469980	0.089060	0.180660
C381	C38	0.394500	0.110000	0.164900
H751	H75	0.349200	0.088700	0.189300
H761	H76	0.619600	0.078200	0.144700
N391	N39	0.030020	0.589060	0.319340
C391	C39	0.105500	0.610000	0.335100
H771	H77	0.150800	0.588700	0.310700
H781	H78	0.880400	0.578200	0.355300
N401	N40	0.530020	0.089060	0.819340
C401	C40	0.605500	0.110000	0.835100
H791	H79	0.650800	0.088700	0.810700
H801	H80	0.380400	0.078200	0.855300
N411	N41	0.410940	0.680660	0.030020
C411	C41	0.390000	0.664900	0.105500
H811	H81	0.411300	0.689300	0.150800
H821	H82	0.421800	0.644700	0.880400
N421	N42	0.910940	0.180660	0.530020
C421	C42	0.890000	0.164900	0.605500
H831	H83	0.911300	0.189300	0.650800
H841	H84	0.921800	0.144700	0.380400
N431	N43	0.410940	0.319340	0.969980
C431	C43	0.390000	0.335100	0.894500
H851	H85	0.411300	0.310700	0.849200
H861	H86	0.421800	0.355300	0.119600
N441	N44	0.910940	0.819340	0.469980
C441	C44	0.890000	0.835100	0.394500
H871	H87	0.911300	0.810700	0.349200
H881	H88	0.921800	0.855300	0.619600
N451	N45	0.589060	0.680660	0.969980
C451	C45	0.610000	0.664900	0.894500
H891	H89	0.588700	0.689300	0.849200
H901	H90	0.578200	0.644700	0.119600
N461	N46	0.089060	0.180660	0.469980
C461	C46	0.110000	0.164900	0.394500
H911	H91	0.088700	0.189300	0.349200
H921	H92	0.078200	0.144700	0.619600
N471	N47	0.589060	0.319340	0.030020
C471	C47	0.610000	0.335100	0.105500
H931	H93	0.588700	0.310700	0.150800
H941	H94	0.578200	0.355300	0.880400
N481	N48	0.089060	0.819340	0.530020
C481	C48	0.110000	0.835100	0.605500
H951	H95	0.088700	0.810700	0.650800
H961	H96	0.078200	0.855300	0.380400
Zn11	Zn1	0.000000	0.750000	0.500000
Zn21	Zn2	0.000000	0.250000	0.500000
Zn31	Zn3	0.500000	0.000000	0.750000
Zn41	Zn4	0.500000	0.000000	0.250000
Zn51	Zn5	0.750000	0.500000	0.000000
Zn61	Zn6	0.250000	0.500000	0.000000
Zn71	Zn7	0.750000	0.000000	0.500000
Zn81	Zn8	0.250000	0.000000	0.500000
Zn91	Zn9	0.000000	0.500000	0.750000
Zn101	Zn10	0.000000	0.500000	0.250000
Zn111	Zn11	0.500000	0.750000	0.000000
Zn121	Zn12	0.500000	0.250000	0.000000
C491	C49	0.986500	0.632500	0.367500
C501	C50	0.898800	0.630700	0.369300
H971	H97	0.878000	0.668500	0.331500
C511	C51	0.486500	0.132500	0.867500
C521	C52	0.398800	0.130700	0.869300
H981	H98	0.378000	0.168500	0.831500
C531	C53	0.013500	0.367500	0.367500
C541	C54	0.101200	0.369300	0.369300
H991	H99	0.122000	0.331500	0.331500
C551	C55	0.513500	0.867500	0.867500
C561	C56	0.601200	0.869300	0.869300
H1001	H100	0.622000	0.831500	0.831500
C571	C57	0.013500	0.632500	0.632500
C581	C58	0.101200	0.630700	0.630700
H1011	H101	0.122000	0.668500	0.668500
C591	C59	0.513500	0.132500	0.132500
C601	C60	0.601200	0.130700	0.130700
H1021	H102	0.622000	0.168500	0.168500
C611	C61	0.986500	0.367500	0.632500
C621	C62	0.898800	0.369300	0.630700
H1031	H103	0.878000	0.331500	0.668500
C631	C63	0.486500	0.867500	0.132500
C641	C64	0.398800	0.869300	0.130700
H1041	H104	0.378000	0.831500	0.168500
C651	C65	0.367500	0.986500	0.632500
C661	C66	0.369300	0.898800	0.630700
H1051	H105	0.331500	0.878000	0.668500
C671	C67	0.867500	0.486500	0.132500
C681	C68	0.869300	0.398800	0.130700
H1061	H106	0.831500	0.378000	0.168500
C691	C69	0.367500	0.013500	0.367500
C701	C70	0.369300	0.101200	0.369300
H1071	H107	0.331500	0.122000	0.331500
C711	C71	0.867500	0.513500	0.867500
C721	C72	0.869300	0.601200	0.869300
H1081	H108	0.831500	0.622000	0.831500
C731	C73	0.632500	0.013500	0.632500
C741	C74	0.630700	0.101200	0.630700
H1091	H109	0.668500	0.122000	0.668500
C751	C75	0.132500	0.513500	0.132500
C761	C76	0.130700	0.601200	0.130700
H1101	H110	0.168500	0.622000	0.168500
C771	C77	0.632500	0.986500	0.367500
C781	C78	0.630700	0.898800	0.369300
H1111	H111	0.668500	0.878000	0.331500
C791	C79	0.132500	0.486500	0.867500
C801	C80	0.130700	0.398800	0.869300
H1121	H112	0.168500	0.378000	0.831500
C811	C81	0.632500	0.367500	0.986500
C821	C82	0.630700	0.369300	0.898800
H1131	H113	0.668500	0.331500	0.878000
C831	C83	0.132500	0.867500	0.486500
C841	C84	0.130700	0.869300	0.398800
H1141	H114	0.168500	0.831500	0.378000
C851	C85	0.367500	0.367500	0.013500
C861	C86	0.369300	0.369300	0.101200
H1151	H115	0.331500	0.331500	0.122000
C871	C87	0.867500	0.867500	0.513500
C881	C88	0.869300	0.869300	0.601200
H1161	H116	0.831500	0.831500	0.622000
C891	C89	0.632500	0.632500	0.013500
C901	C90	0.630700	0.630700	0.101200
H1171	H117	0.668500	0.668500	0.122000
C911	C91	0.132500	0.132500	0.513500
C921	C92	0.130700	0.130700	0.601200
H1181	H118	0.168500	0.168500	0.622000
C931	C93	0.367500	0.632500	0.986500
C941	C94	0.369300	0.630700	0.898800
H1191	H119	0.331500	0.668500	0.878000
C951	C95	0.867500	0.132500	0.486500
C961	C96	0.869300	0.130700	0.398800
H1201	H120	0.831500	0.168500	0.378000
