data_SEGMEW_clean_PM
_symmetry_space_group_name_H-M	'P1'
_cell_length_a	13.868000
_cell_length_b	26.591000
_cell_length_c	7.840000
_cell_angle_alpha	90.000000
_cell_angle_beta	90.000000
_cell_angle_gamma	90.000000
_symmetry_Int_Tables_number 1

loop_
_symmetry_equiv_pos_as_xyz
'x,y,z'

loop_
_atom_site_label
_atom_site_type_symbol
_atom_site_fract_x
_atom_site_fract_y
_atom_site_fract_z
Cd11	Cd1	0.675150	0.500000	0.621300
Cd21	Cd2	0.754330	0.764730	0.618000
Ni11	Ni1	0.732700	0.631860	0.110800
N11	N1	0.701000	0.556400	0.834000
N21	N2	0.694000	0.555700	0.383000
N31	N3	0.831600	0.467200	0.605000
N41	N4	0.639000	0.440700	0.405000
N51	N5	0.507500	0.503200	0.593000
N61	N6	0.764000	0.711200	0.838000
N71	N7	0.769000	0.707500	0.395000
N81	N8	0.908000	0.798700	0.618000
N91	N9	0.723000	0.824000	0.395000
N101	N10	0.584000	0.758700	0.575000
C11	C1	0.711000	0.584100	0.940000
C21	C2	0.709000	0.584100	0.274000
C31	C3	0.881000	0.434400	0.564000
C41	C4	0.754000	0.681300	0.943000
C51	C5	0.758000	0.678800	0.290000
C61	C6	0.958000	0.829300	0.573000
C71	C7	0.538000	0.446000	0.357000
C81	C8	0.477000	0.464000	0.465000
C91	C9	0.369000	0.467200	0.432000
C101	C10	0.618000	0.824000	0.357000
C111	C11	0.554000	0.795000	0.456000
C121	C12	0.449000	0.796000	0.402000
Cd31	Cd3	0.324850	0.000000	0.378700
Cd41	Cd4	0.245670	0.264730	0.382000
Ni21	Ni2	0.267300	0.131860	0.889200
N111	N11	0.299000	0.056400	0.166000
N121	N12	0.306000	0.055700	0.617000
N131	N13	0.168400	0.967200	0.395000
N141	N14	0.361000	0.940700	0.595000
N151	N15	0.492500	0.003200	0.407000
N161	N16	0.236000	0.211200	0.162000
N171	N17	0.231000	0.207500	0.605000
N181	N18	0.092000	0.298700	0.382000
N191	N19	0.277000	0.324000	0.605000
N201	N20	0.416000	0.258700	0.425000
C131	C13	0.289000	0.084100	0.060000
C141	C14	0.291000	0.084100	0.726000
C151	C15	0.119000	0.934400	0.436000
C161	C16	0.246000	0.181300	0.057000
C171	C17	0.242000	0.178800	0.710000
C181	C18	0.042000	0.329300	0.427000
C191	C19	0.462000	0.946000	0.643000
C201	C20	0.523000	0.964000	0.535000
C211	C21	0.631000	0.967200	0.568000
C221	C22	0.382000	0.324000	0.643000
C231	C23	0.446000	0.295000	0.544000
C241	C24	0.551000	0.296000	0.598000
Ni31	Ni3	0.962100	0.382590	0.494500
N211	N21	0.131000	0.433900	0.663000
N221	N22	0.208100	0.832100	0.675000
C251	C25	0.067000	0.415000	0.593000
C261	C26	0.146000	0.851200	0.605000
Ni41	Ni4	0.037900	0.882590	0.505500
N231	N23	0.869000	0.933900	0.337000
N241	N24	0.791900	0.332100	0.325000
C271	C27	0.933000	0.915000	0.407000
C281	C28	0.854000	0.351200	0.395000
Ni51	Ni5	0.462100	0.382590	0.005500
N251	N25	0.631000	0.433900	0.837000
N261	N26	0.708100	0.832100	0.825000
C291	C29	0.567000	0.415000	0.907000
C301	C30	0.646000	0.851200	0.895000
Ni61	Ni6	0.537900	0.882590	0.994500
N271	N27	0.369000	0.933900	0.163000
N281	N28	0.291900	0.332100	0.175000
C311	C31	0.433000	0.915000	0.093000
C321	C32	0.354000	0.351200	0.105000
Cd51	Cd5	0.175150	0.500000	0.878700
Cd61	Cd6	0.254330	0.764730	0.882000
Ni71	Ni7	0.232700	0.631860	0.389200
N291	N29	0.201000	0.556400	0.666000
N301	N30	0.194000	0.555700	0.117000
N311	N31	0.331600	0.467200	0.895000
N321	N32	0.139000	0.440700	0.095000
N331	N33	0.007500	0.503200	0.907000
N341	N34	0.264000	0.711200	0.662000
N351	N35	0.269000	0.707500	0.105000
N361	N36	0.408000	0.798700	0.882000
N371	N37	0.223000	0.824000	0.105000
N381	N38	0.084000	0.758700	0.925000
C331	C33	0.211000	0.584100	0.560000
C341	C34	0.209000	0.584100	0.226000
C351	C35	0.381000	0.434400	0.936000
C361	C36	0.254000	0.681300	0.557000
C371	C37	0.258000	0.678800	0.210000
C381	C38	0.458000	0.829300	0.927000
C391	C39	0.038000	0.446000	0.143000
C401	C40	0.977000	0.464000	0.035000
C411	C41	0.869000	0.467200	0.068000
C421	C42	0.118000	0.824000	0.143000
C431	C43	0.054000	0.795000	0.044000
C441	C44	0.949000	0.796000	0.098000
Cd71	Cd7	0.824850	0.000000	0.121300
Cd81	Cd8	0.745670	0.264730	0.118000
Ni81	Ni8	0.767300	0.131860	0.610800
N391	N39	0.799000	0.056400	0.334000
N401	N40	0.806000	0.055700	0.883000
N411	N41	0.668400	0.967200	0.105000
N421	N42	0.861000	0.940700	0.905000
N431	N43	0.992500	0.003200	0.093000
N441	N44	0.736000	0.211200	0.338000
N451	N45	0.731000	0.207500	0.895000
N461	N46	0.592000	0.298700	0.118000
N471	N47	0.777000	0.324000	0.895000
N481	N48	0.916000	0.258700	0.075000
C451	C45	0.789000	0.084100	0.440000
C461	C46	0.791000	0.084100	0.774000
C471	C47	0.619000	0.934400	0.064000
C481	C48	0.746000	0.181300	0.443000
C491	C49	0.742000	0.178800	0.790000
C501	C50	0.542000	0.329300	0.073000
C511	C51	0.962000	0.946000	0.857000
C521	C52	0.023000	0.964000	0.965000
C531	C53	0.131000	0.967200	0.932000
C541	C54	0.882000	0.324000	0.857000
C551	C55	0.946000	0.295000	0.956000
C561	C56	0.051000	0.296000	0.902000
