data_SEHLAU_clean_PM
_symmetry_space_group_name_H-M	'P1'
_cell_length_a	12.313000
_cell_length_b	22.626000
_cell_length_c	34.702000
_cell_angle_alpha	90.000000
_cell_angle_beta	90.000000
_cell_angle_gamma	90.000000
_symmetry_Int_Tables_number 1

loop_
_symmetry_equiv_pos_as_xyz
'x,y,z'

loop_
_atom_site_label
_atom_site_type_symbol
_atom_site_fract_x
_atom_site_fract_y
_atom_site_fract_z
Zn11	Zn1	0.240930	0.324910	0.248460
C11	C1	0.081700	0.351500	0.305800
C21	C2	0.075100	0.402700	0.279300
C31	C3	0.027800	0.457300	0.281200
C41	C4	0.960500	0.487100	0.310300
C51	C5	0.126200	0.452900	0.228900
C61	C6	0.179800	0.468800	0.193400
C71	C7	0.192500	0.526600	0.182100
H11	H1	0.162200	0.556800	0.196800
C81	C8	0.251500	0.540600	0.148200
H21	H2	0.259400	0.579300	0.139600
C91	C9	0.295600	0.494200	0.129200
H31	H3	0.335300	0.502900	0.107100
C101	C10	0.228600	0.425600	0.170900
H41	H4	0.220800	0.386200	0.177900
N11	N1	0.138300	0.400400	0.246200
N21	N2	0.059400	0.489700	0.249300
N31	N3	0.288100	0.439300	0.138600
O11	O1	0.154800	0.312800	0.297800
O21	O2	0.019700	0.346100	0.334400
O31	O3	0.937300	0.463300	0.341600
O41	O4	0.934000	0.540900	0.302500
Zn21	Zn2	0.240930	0.824910	0.748460
C111	C11	0.081700	0.851500	0.805800
C121	C12	0.075100	0.902700	0.779300
C131	C13	0.027800	0.957300	0.781200
C141	C14	0.960500	0.987100	0.810300
C151	C15	0.126200	0.952900	0.728900
C161	C16	0.179800	0.968800	0.693400
C171	C17	0.192500	0.026600	0.682100
H51	H5	0.162200	0.056800	0.696800
C181	C18	0.251500	0.040600	0.648200
H61	H6	0.259400	0.079300	0.639600
C191	C19	0.295600	0.994200	0.629200
H71	H7	0.335300	0.002900	0.607100
C201	C20	0.228600	0.925600	0.670900
H81	H8	0.220800	0.886200	0.677900
N41	N4	0.138300	0.900400	0.746200
N51	N5	0.059400	0.989700	0.749300
N61	N6	0.288100	0.939300	0.638600
O51	O5	0.154800	0.812800	0.797800
O61	O6	0.019700	0.846100	0.834400
O71	O7	0.937300	0.963300	0.841600
O81	O8	0.934000	0.040900	0.802500
Zn31	Zn3	0.740930	0.324910	0.748460
C211	C21	0.581700	0.351500	0.805800
C221	C22	0.575100	0.402700	0.779300
C231	C23	0.527800	0.457300	0.781200
C241	C24	0.460500	0.487100	0.810300
C251	C25	0.626200	0.452900	0.728900
C261	C26	0.679800	0.468800	0.693400
C271	C27	0.692500	0.526600	0.682100
H91	H9	0.662200	0.556800	0.696800
C281	C28	0.751500	0.540600	0.648200
H101	H10	0.759400	0.579300	0.639600
C291	C29	0.795600	0.494200	0.629200
H111	H11	0.835300	0.502900	0.607100
C301	C30	0.728600	0.425600	0.670900
H121	H12	0.720800	0.386200	0.677900
N71	N7	0.638300	0.400400	0.746200
N81	N8	0.559400	0.489700	0.749300
N91	N9	0.788100	0.439300	0.638600
O91	O9	0.654800	0.312800	0.797800
O101	O10	0.519700	0.346100	0.834400
O111	O11	0.437300	0.463300	0.841600
O121	O12	0.434000	0.540900	0.802500
Zn41	Zn4	0.740930	0.824910	0.248460
C311	C31	0.581700	0.851500	0.305800
C321	C32	0.575100	0.902700	0.279300
C331	C33	0.527800	0.957300	0.281200
C341	C34	0.460500	0.987100	0.310300
C351	C35	0.626200	0.952900	0.228900
C361	C36	0.679800	0.968800	0.193400
C371	C37	0.692500	0.026600	0.182100
H131	H13	0.662200	0.056800	0.196800
C381	C38	0.751500	0.040600	0.148200
H141	H14	0.759400	0.079300	0.139600
C391	C39	0.795600	0.994200	0.129200
H151	H15	0.835300	0.002900	0.107100
C401	C40	0.728600	0.925600	0.170900
H161	H16	0.720800	0.886200	0.177900
N101	N10	0.638300	0.900400	0.246200
N111	N11	0.559400	0.989700	0.249300
N121	N12	0.788100	0.939300	0.138600
O131	O13	0.654800	0.812800	0.297800
O141	O14	0.519700	0.846100	0.334400
O151	O15	0.437300	0.963300	0.341600
O161	O16	0.434000	0.040900	0.302500
Zn51	Zn5	0.509070	0.425090	0.248460
C411	C41	0.668300	0.398500	0.305800
C421	C42	0.674900	0.347300	0.279300
C431	C43	0.722200	0.292700	0.281200
C441	C44	0.789500	0.262900	0.310300
C451	C45	0.623800	0.297100	0.228900
C461	C46	0.570200	0.281200	0.193400
C471	C47	0.557500	0.223400	0.182100
H171	H17	0.587800	0.193200	0.196800
C481	C48	0.498500	0.209400	0.148200
H181	H18	0.490600	0.170700	0.139600
C491	C49	0.454400	0.255800	0.129200
H191	H19	0.414700	0.247100	0.107100
C501	C50	0.521400	0.324400	0.170900
H201	H20	0.529200	0.363800	0.177900
N131	N13	0.611700	0.349600	0.246200
N141	N14	0.690600	0.260300	0.249300
N151	N15	0.461900	0.310700	0.138600
O171	O17	0.595200	0.437200	0.297800
O181	O18	0.730300	0.403900	0.334400
O191	O19	0.812700	0.286700	0.341600
O201	O20	0.816000	0.209100	0.302500
Zn61	Zn6	0.509070	0.925090	0.748460
C511	C51	0.668300	0.898500	0.805800
C521	C52	0.674900	0.847300	0.779300
C531	C53	0.722200	0.792700	0.781200
C541	C54	0.789500	0.762900	0.810300
C551	C55	0.623800	0.797100	0.728900
C561	C56	0.570200	0.781200	0.693400
C571	C57	0.557500	0.723400	0.682100
H211	H21	0.587800	0.693200	0.696800
C581	C58	0.498500	0.709400	0.648200
H221	H22	0.490600	0.670700	0.639600
C591	C59	0.454400	0.755800	0.629200
H231	H23	0.414700	0.747100	0.607100
C601	C60	0.521400	0.824400	0.670900
H241	H24	0.529200	0.863800	0.677900
N161	N16	0.611700	0.849600	0.746200
N171	N17	0.690600	0.760300	0.749300
N181	N18	0.461900	0.810700	0.638600
O211	O21	0.595200	0.937200	0.797800
O221	O22	0.730300	0.903900	0.834400
O231	O23	0.812700	0.786700	0.841600
O241	O24	0.816000	0.709100	0.802500
Zn71	Zn7	0.009070	0.425090	0.748460
C611	C61	0.168300	0.398500	0.805800
C621	C62	0.174900	0.347300	0.779300
C631	C63	0.222200	0.292700	0.781200
C641	C64	0.289500	0.262900	0.810300
C651	C65	0.123800	0.297100	0.728900
C661	C66	0.070200	0.281200	0.693400
C671	C67	0.057500	0.223400	0.682100
H251	H25	0.087800	0.193200	0.696800
C681	C68	0.998500	0.209400	0.648200
H261	H26	0.990600	0.170700	0.639600
C691	C69	0.954400	0.255800	0.629200
H271	H27	0.914700	0.247100	0.607100
C701	C70	0.021400	0.324400	0.670900
H281	H28	0.029200	0.363800	0.677900
N191	N19	0.111700	0.349600	0.746200
N201	N20	0.190600	0.260300	0.749300
N211	N21	0.961900	0.310700	0.638600
O251	O25	0.095200	0.437200	0.797800
O261	O26	0.230300	0.403900	0.834400
O271	O27	0.312700	0.286700	0.841600
O281	O28	0.316000	0.209100	0.802500
Zn81	Zn8	0.009070	0.925090	0.248460
C711	C71	0.168300	0.898500	0.305800
C721	C72	0.174900	0.847300	0.279300
C731	C73	0.222200	0.792700	0.281200
C741	C74	0.289500	0.762900	0.310300
C751	C75	0.123800	0.797100	0.228900
C761	C76	0.070200	0.781200	0.193400
C771	C77	0.057500	0.723400	0.182100
H291	H29	0.087800	0.693200	0.196800
C781	C78	0.998500	0.709400	0.148200
H301	H30	0.990600	0.670700	0.139600
C791	C79	0.954400	0.755800	0.129200
H311	H31	0.914700	0.747100	0.107100
C801	C80	0.021400	0.824400	0.170900
H321	H32	0.029200	0.863800	0.177900
N221	N22	0.111700	0.849600	0.246200
N231	N23	0.190600	0.760300	0.249300
N241	N24	0.961900	0.810700	0.138600
O291	O29	0.095200	0.937200	0.297800
O301	O30	0.230300	0.903900	0.334400
O311	O31	0.312700	0.786700	0.341600
O321	O32	0.316000	0.709100	0.302500
Zn91	Zn9	0.509070	0.324910	0.501540
C811	C81	0.668300	0.351500	0.444200
C821	C82	0.674900	0.402700	0.470700
C831	C83	0.722200	0.457300	0.468800
C841	C84	0.789500	0.487100	0.439700
C851	C85	0.623800	0.452900	0.521100
C861	C86	0.570200	0.468800	0.556600
C871	C87	0.557500	0.526600	0.567900
H331	H33	0.587800	0.556800	0.553200
C881	C88	0.498500	0.540600	0.601800
H341	H34	0.490600	0.579300	0.610400
C891	C89	0.454400	0.494200	0.620800
H351	H35	0.414700	0.502900	0.642900
C901	C90	0.521400	0.425600	0.579100
H361	H36	0.529200	0.386200	0.572100
N251	N25	0.611700	0.400400	0.503800
N261	N26	0.690600	0.489700	0.500700
N271	N27	0.461900	0.439300	0.611400
O331	O33	0.595200	0.312800	0.452200
O341	O34	0.730300	0.346100	0.415600
O351	O35	0.812700	0.463300	0.408400
O361	O36	0.816000	0.540900	0.447500
Zn101	Zn10	0.509070	0.824910	0.001540
C911	C91	0.668300	0.851500	0.944200
C921	C92	0.674900	0.902700	0.970700
C931	C93	0.722200	0.957300	0.968800
C941	C94	0.789500	0.987100	0.939700
C951	C95	0.623800	0.952900	0.021100
C961	C96	0.570200	0.968800	0.056600
C971	C97	0.557500	0.026600	0.067900
H371	H37	0.587800	0.056800	0.053200
C981	C98	0.498500	0.040600	0.101800
H381	H38	0.490600	0.079300	0.110400
C991	C99	0.454400	0.994200	0.120800
H391	H39	0.414700	0.002900	0.142900
C1001	C100	0.521400	0.925600	0.079100
H401	H40	0.529200	0.886200	0.072100
N281	N28	0.611700	0.900400	0.003800
N291	N29	0.690600	0.989700	0.000700
N301	N30	0.461900	0.939300	0.111400
O371	O37	0.595200	0.812800	0.952200
O381	O38	0.730300	0.846100	0.915600
O391	O39	0.812700	0.963300	0.908400
O401	O40	0.816000	0.040900	0.947500
Zn111	Zn11	0.009070	0.324910	0.001540
C1011	C101	0.168300	0.351500	0.944200
C1021	C102	0.174900	0.402700	0.970700
C1031	C103	0.222200	0.457300	0.968800
C1041	C104	0.289500	0.487100	0.939700
C1051	C105	0.123800	0.452900	0.021100
C1061	C106	0.070200	0.468800	0.056600
C1071	C107	0.057500	0.526600	0.067900
H411	H41	0.087800	0.556800	0.053200
C1081	C108	0.998500	0.540600	0.101800
H421	H42	0.990600	0.579300	0.110400
C1091	C109	0.954400	0.494200	0.120800
H431	H43	0.914700	0.502900	0.142900
C1101	C110	0.021400	0.425600	0.079100
H441	H44	0.029200	0.386200	0.072100
N311	N31	0.111700	0.400400	0.003800
N321	N32	0.190600	0.489700	0.000700
N331	N33	0.961900	0.439300	0.111400
O411	O41	0.095200	0.312800	0.952200
O421	O42	0.230300	0.346100	0.915600
O431	O43	0.312700	0.463300	0.908400
O441	O44	0.316000	0.540900	0.947500
Zn121	Zn12	0.009070	0.824910	0.501540
C1111	C111	0.168300	0.851500	0.444200
C1121	C112	0.174900	0.902700	0.470700
C1131	C113	0.222200	0.957300	0.468800
C1141	C114	0.289500	0.987100	0.439700
C1151	C115	0.123800	0.952900	0.521100
C1161	C116	0.070200	0.968800	0.556600
C1171	C117	0.057500	0.026600	0.567900
H451	H45	0.087800	0.056800	0.553200
C1181	C118	0.998500	0.040600	0.601800
H461	H46	0.990600	0.079300	0.610400
C1191	C119	0.954400	0.994200	0.620800
H471	H47	0.914700	0.002900	0.642900
C1201	C120	0.021400	0.925600	0.579100
H481	H48	0.029200	0.886200	0.572100
N341	N34	0.111700	0.900400	0.503800
N351	N35	0.190600	0.989700	0.500700
N361	N36	0.961900	0.939300	0.611400
O451	O45	0.095200	0.812800	0.452200
O461	O46	0.230300	0.846100	0.415600
O471	O47	0.312700	0.963300	0.408400
O481	O48	0.316000	0.040900	0.447500
Zn131	Zn13	0.240930	0.425090	0.501540
C1211	C121	0.081700	0.398500	0.444200
C1221	C122	0.075100	0.347300	0.470700
C1231	C123	0.027800	0.292700	0.468800
C1241	C124	0.960500	0.262900	0.439700
C1251	C125	0.126200	0.297100	0.521100
C1261	C126	0.179800	0.281200	0.556600
C1271	C127	0.192500	0.223400	0.567900
H491	H49	0.162200	0.193200	0.553200
C1281	C128	0.251500	0.209400	0.601800
H501	H50	0.259400	0.170700	0.610400
C1291	C129	0.295600	0.255800	0.620800
H511	H51	0.335300	0.247100	0.642900
C1301	C130	0.228600	0.324400	0.579100
H521	H52	0.220800	0.363800	0.572100
N371	N37	0.138300	0.349600	0.503800
N381	N38	0.059400	0.260300	0.500700
N391	N39	0.288100	0.310700	0.611400
O491	O49	0.154800	0.437200	0.452200
O501	O50	0.019700	0.403900	0.415600
O511	O51	0.937300	0.286700	0.408400
O521	O52	0.934000	0.209100	0.447500
Zn141	Zn14	0.240930	0.925090	0.001540
C1311	C131	0.081700	0.898500	0.944200
C1321	C132	0.075100	0.847300	0.970700
C1331	C133	0.027800	0.792700	0.968800
C1341	C134	0.960500	0.762900	0.939700
C1351	C135	0.126200	0.797100	0.021100
C1361	C136	0.179800	0.781200	0.056600
C1371	C137	0.192500	0.723400	0.067900
H531	H53	0.162200	0.693200	0.053200
C1381	C138	0.251500	0.709400	0.101800
H541	H54	0.259400	0.670700	0.110400
C1391	C139	0.295600	0.755800	0.120800
H551	H55	0.335300	0.747100	0.142900
C1401	C140	0.228600	0.824400	0.079100
H561	H56	0.220800	0.863800	0.072100
N401	N40	0.138300	0.849600	0.003800
N411	N41	0.059400	0.760300	0.000700
N421	N42	0.288100	0.810700	0.111400
O531	O53	0.154800	0.937200	0.952200
O541	O54	0.019700	0.903900	0.915600
O551	O55	0.937300	0.786700	0.908400
O561	O56	0.934000	0.709100	0.947500
Zn151	Zn15	0.740930	0.425090	0.001540
C1411	C141	0.581700	0.398500	0.944200
C1421	C142	0.575100	0.347300	0.970700
C1431	C143	0.527800	0.292700	0.968800
C1441	C144	0.460500	0.262900	0.939700
C1451	C145	0.626200	0.297100	0.021100
C1461	C146	0.679800	0.281200	0.056600
C1471	C147	0.692500	0.223400	0.067900
H571	H57	0.662200	0.193200	0.053200
C1481	C148	0.751500	0.209400	0.101800
H581	H58	0.759400	0.170700	0.110400
C1491	C149	0.795600	0.255800	0.120800
H591	H59	0.835300	0.247100	0.142900
C1501	C150	0.728600	0.324400	0.079100
H601	H60	0.720800	0.363800	0.072100
N431	N43	0.638300	0.349600	0.003800
N441	N44	0.559400	0.260300	0.000700
N451	N45	0.788100	0.310700	0.111400
O571	O57	0.654800	0.437200	0.952200
O581	O58	0.519700	0.403900	0.915600
O591	O59	0.437300	0.286700	0.908400
O601	O60	0.434000	0.209100	0.947500
Zn161	Zn16	0.740930	0.925090	0.501540
C1511	C151	0.581700	0.898500	0.444200
C1521	C152	0.575100	0.847300	0.470700
C1531	C153	0.527800	0.792700	0.468800
C1541	C154	0.460500	0.762900	0.439700
C1551	C155	0.626200	0.797100	0.521100
C1561	C156	0.679800	0.781200	0.556600
C1571	C157	0.692500	0.723400	0.567900
H611	H61	0.662200	0.693200	0.553200
C1581	C158	0.751500	0.709400	0.601800
H621	H62	0.759400	0.670700	0.610400
C1591	C159	0.795600	0.755800	0.620800
H631	H63	0.835300	0.747100	0.642900
C1601	C160	0.728600	0.824400	0.579100
H641	H64	0.720800	0.863800	0.572100
N461	N46	0.638300	0.849600	0.503800
N471	N47	0.559400	0.760300	0.500700
N481	N48	0.788100	0.810700	0.611400
O611	O61	0.654800	0.937200	0.452200
O621	O62	0.519700	0.903900	0.415600
O631	O63	0.437300	0.786700	0.408400
O641	O64	0.434000	0.709100	0.447500
Zn171	Zn17	0.759070	0.675090	0.751540
C1611	C161	0.918300	0.648500	0.694200
C1621	C162	0.924900	0.597300	0.720700
C1631	C163	0.972200	0.542700	0.718800
C1641	C164	0.039500	0.512900	0.689700
C1651	C165	0.873800	0.547100	0.771100
C1661	C166	0.820200	0.531200	0.806600
C1671	C167	0.807500	0.473400	0.817900
H651	H65	0.837800	0.443200	0.803200
C1681	C168	0.748500	0.459400	0.851800
H661	H66	0.740600	0.420700	0.860400
C1691	C169	0.704400	0.505800	0.870800
H671	H67	0.664700	0.497100	0.892900
C1701	C170	0.771400	0.574400	0.829100
H681	H68	0.779200	0.613800	0.822100
N491	N49	0.861700	0.599600	0.753800
N501	N50	0.940600	0.510300	0.750700
N511	N51	0.711900	0.560700	0.861400
O651	O65	0.845200	0.687200	0.702200
O661	O66	0.980300	0.653900	0.665600
O671	O67	0.062700	0.536700	0.658400
O681	O68	0.066000	0.459100	0.697500
Zn181	Zn18	0.759070	0.175090	0.251540
C1711	C171	0.918300	0.148500	0.194200
C1721	C172	0.924900	0.097300	0.220700
C1731	C173	0.972200	0.042700	0.218800
C1741	C174	0.039500	0.012900	0.189700
C1751	C175	0.873800	0.047100	0.271100
C1761	C176	0.820200	0.031200	0.306600
C1771	C177	0.807500	0.973400	0.317900
H691	H69	0.837800	0.943200	0.303200
C1781	C178	0.748500	0.959400	0.351800
H701	H70	0.740600	0.920700	0.360400
C1791	C179	0.704400	0.005800	0.370800
H711	H71	0.664700	0.997100	0.392900
C1801	C180	0.771400	0.074400	0.329100
H721	H72	0.779200	0.113800	0.322100
N521	N52	0.861700	0.099600	0.253800
N531	N53	0.940600	0.010300	0.250700
N541	N54	0.711900	0.060700	0.361400
O691	O69	0.845200	0.187200	0.202200
O701	O70	0.980300	0.153900	0.165600
O711	O71	0.062700	0.036700	0.158400
O721	O72	0.066000	0.959100	0.197500
Zn191	Zn19	0.259070	0.675090	0.251540
C1811	C181	0.418300	0.648500	0.194200
C1821	C182	0.424900	0.597300	0.220700
C1831	C183	0.472200	0.542700	0.218800
C1841	C184	0.539500	0.512900	0.189700
C1851	C185	0.373800	0.547100	0.271100
C1861	C186	0.320200	0.531200	0.306600
C1871	C187	0.307500	0.473400	0.317900
H731	H73	0.337800	0.443200	0.303200
C1881	C188	0.248500	0.459400	0.351800
H741	H74	0.240600	0.420700	0.360400
C1891	C189	0.204400	0.505800	0.370800
H751	H75	0.164700	0.497100	0.392900
C1901	C190	0.271400	0.574400	0.329100
H761	H76	0.279200	0.613800	0.322100
N551	N55	0.361700	0.599600	0.253800
N561	N56	0.440600	0.510300	0.250700
N571	N57	0.211900	0.560700	0.361400
O731	O73	0.345200	0.687200	0.202200
O741	O74	0.480300	0.653900	0.165600
O751	O75	0.562700	0.536700	0.158400
O761	O76	0.566000	0.459100	0.197500
Zn201	Zn20	0.259070	0.175090	0.751540
C1911	C191	0.418300	0.148500	0.694200
C1921	C192	0.424900	0.097300	0.720700
C1931	C193	0.472200	0.042700	0.718800
C1941	C194	0.539500	0.012900	0.689700
C1951	C195	0.373800	0.047100	0.771100
C1961	C196	0.320200	0.031200	0.806600
C1971	C197	0.307500	0.973400	0.817900
H771	H77	0.337800	0.943200	0.803200
C1981	C198	0.248500	0.959400	0.851800
H781	H78	0.240600	0.920700	0.860400
C1991	C199	0.204400	0.005800	0.870800
H791	H79	0.164700	0.997100	0.892900
C2001	C200	0.271400	0.074400	0.829100
H801	H80	0.279200	0.113800	0.822100
N581	N58	0.361700	0.099600	0.753800
N591	N59	0.440600	0.010300	0.750700
N601	N60	0.211900	0.060700	0.861400
O771	O77	0.345200	0.187200	0.702200
O781	O78	0.480300	0.153900	0.665600
O791	O79	0.562700	0.036700	0.658400
O801	O80	0.566000	0.959100	0.697500
Zn211	Zn21	0.490930	0.574910	0.751540
C2011	C201	0.331700	0.601500	0.694200
C2021	C202	0.325100	0.652700	0.720700
C2031	C203	0.277800	0.707300	0.718800
C2041	C204	0.210500	0.737100	0.689700
C2051	C205	0.376200	0.702900	0.771100
C2061	C206	0.429800	0.718800	0.806600
C2071	C207	0.442500	0.776600	0.817900
H811	H81	0.412200	0.806800	0.803200
C2081	C208	0.501500	0.790600	0.851800
H821	H82	0.509400	0.829300	0.860400
C2091	C209	0.545600	0.744200	0.870800
H831	H83	0.585300	0.752900	0.892900
C2101	C210	0.478600	0.675600	0.829100
H841	H84	0.470800	0.636200	0.822100
N611	N61	0.388300	0.650400	0.753800
N621	N62	0.309400	0.739700	0.750700
N631	N63	0.538100	0.689300	0.861400
O811	O81	0.404800	0.562800	0.702200
O821	O82	0.269700	0.596100	0.665600
O831	O83	0.187300	0.713300	0.658400
O841	O84	0.184000	0.790900	0.697500
Zn221	Zn22	0.490930	0.074910	0.251540
C2111	C211	0.331700	0.101500	0.194200
C2121	C212	0.325100	0.152700	0.220700
C2131	C213	0.277800	0.207300	0.218800
C2141	C214	0.210500	0.237100	0.189700
C2151	C215	0.376200	0.202900	0.271100
C2161	C216	0.429800	0.218800	0.306600
C2171	C217	0.442500	0.276600	0.317900
H851	H85	0.412200	0.306800	0.303200
C2181	C218	0.501500	0.290600	0.351800
H861	H86	0.509400	0.329300	0.360400
C2191	C219	0.545600	0.244200	0.370800
H871	H87	0.585300	0.252900	0.392900
C2201	C220	0.478600	0.175600	0.329100
H881	H88	0.470800	0.136200	0.322100
N641	N64	0.388300	0.150400	0.253800
N651	N65	0.309400	0.239700	0.250700
N661	N66	0.538100	0.189300	0.361400
O851	O85	0.404800	0.062800	0.202200
O861	O86	0.269700	0.096100	0.165600
O871	O87	0.187300	0.213300	0.158400
O881	O88	0.184000	0.290900	0.197500
Zn231	Zn23	0.990930	0.574910	0.251540
C2211	C221	0.831700	0.601500	0.194200
C2221	C222	0.825100	0.652700	0.220700
C2231	C223	0.777800	0.707300	0.218800
C2241	C224	0.710500	0.737100	0.189700
C2251	C225	0.876200	0.702900	0.271100
C2261	C226	0.929800	0.718800	0.306600
C2271	C227	0.942500	0.776600	0.317900
H891	H89	0.912200	0.806800	0.303200
C2281	C228	0.001500	0.790600	0.351800
H901	H90	0.009400	0.829300	0.360400
C2291	C229	0.045600	0.744200	0.370800
H911	H91	0.085300	0.752900	0.392900
C2301	C230	0.978600	0.675600	0.329100
H921	H92	0.970800	0.636200	0.322100
N671	N67	0.888300	0.650400	0.253800
N681	N68	0.809400	0.739700	0.250700
N691	N69	0.038100	0.689300	0.361400
O891	O89	0.904800	0.562800	0.202200
O901	O90	0.769700	0.596100	0.165600
O911	O91	0.687300	0.713300	0.158400
O921	O92	0.684000	0.790900	0.197500
Zn241	Zn24	0.990930	0.074910	0.751540
C2311	C231	0.831700	0.101500	0.694200
C2321	C232	0.825100	0.152700	0.720700
C2331	C233	0.777800	0.207300	0.718800
C2341	C234	0.710500	0.237100	0.689700
C2351	C235	0.876200	0.202900	0.771100
C2361	C236	0.929800	0.218800	0.806600
C2371	C237	0.942500	0.276600	0.817900
H931	H93	0.912200	0.306800	0.803200
C2381	C238	0.001500	0.290600	0.851800
H941	H94	0.009400	0.329300	0.860400
C2391	C239	0.045600	0.244200	0.870800
H951	H95	0.085300	0.252900	0.892900
C2401	C240	0.978600	0.175600	0.829100
H961	H96	0.970800	0.136200	0.822100
N701	N70	0.888300	0.150400	0.753800
N711	N71	0.809400	0.239700	0.750700
N721	N72	0.038100	0.189300	0.861400
O931	O93	0.904800	0.062800	0.702200
O941	O94	0.769700	0.096100	0.665600
O951	O95	0.687300	0.213300	0.658400
O961	O96	0.684000	0.290900	0.697500
Zn251	Zn25	0.490930	0.675090	0.498460
C2411	C241	0.331700	0.648500	0.555800
C2421	C242	0.325100	0.597300	0.529300
C2431	C243	0.277800	0.542700	0.531200
C2441	C244	0.210500	0.512900	0.560300
C2451	C245	0.376200	0.547100	0.478900
C2461	C246	0.429800	0.531200	0.443400
C2471	C247	0.442500	0.473400	0.432100
H971	H97	0.412200	0.443200	0.446800
C2481	C248	0.501500	0.459400	0.398200
H981	H98	0.509400	0.420700	0.389600
C2491	C249	0.545600	0.505800	0.379200
H991	H99	0.585300	0.497100	0.357100
C2501	C250	0.478600	0.574400	0.420900
H1001	H100	0.470800	0.613800	0.427900
N731	N73	0.388300	0.599600	0.496200
N741	N74	0.309400	0.510300	0.499300
N751	N75	0.538100	0.560700	0.388600
O971	O97	0.404800	0.687200	0.547800
O981	O98	0.269700	0.653900	0.584400
O991	O99	0.187300	0.536700	0.591600
O1001	O100	0.184000	0.459100	0.552500
Zn261	Zn26	0.490930	0.175090	0.998460
C2511	C251	0.331700	0.148500	0.055800
C2521	C252	0.325100	0.097300	0.029300
C2531	C253	0.277800	0.042700	0.031200
C2541	C254	0.210500	0.012900	0.060300
C2551	C255	0.376200	0.047100	0.978900
C2561	C256	0.429800	0.031200	0.943400
C2571	C257	0.442500	0.973400	0.932100
H1011	H101	0.412200	0.943200	0.946800
C2581	C258	0.501500	0.959400	0.898200
H1021	H102	0.509400	0.920700	0.889600
C2591	C259	0.545600	0.005800	0.879200
H1031	H103	0.585300	0.997100	0.857100
C2601	C260	0.478600	0.074400	0.920900
H1041	H104	0.470800	0.113800	0.927900
N761	N76	0.388300	0.099600	0.996200
N771	N77	0.309400	0.010300	0.999300
N781	N78	0.538100	0.060700	0.888600
O1011	O101	0.404800	0.187200	0.047800
O1021	O102	0.269700	0.153900	0.084400
O1031	O103	0.187300	0.036700	0.091600
O1041	O104	0.184000	0.959100	0.052500
Zn271	Zn27	0.990930	0.675090	0.998460
C2611	C261	0.831700	0.648500	0.055800
C2621	C262	0.825100	0.597300	0.029300
C2631	C263	0.777800	0.542700	0.031200
C2641	C264	0.710500	0.512900	0.060300
C2651	C265	0.876200	0.547100	0.978900
C2661	C266	0.929800	0.531200	0.943400
C2671	C267	0.942500	0.473400	0.932100
H1051	H105	0.912200	0.443200	0.946800
C2681	C268	0.001500	0.459400	0.898200
H1061	H106	0.009400	0.420700	0.889600
C2691	C269	0.045600	0.505800	0.879200
H1071	H107	0.085300	0.497100	0.857100
C2701	C270	0.978600	0.574400	0.920900
H1081	H108	0.970800	0.613800	0.927900
N791	N79	0.888300	0.599600	0.996200
N801	N80	0.809400	0.510300	0.999300
N811	N81	0.038100	0.560700	0.888600
O1051	O105	0.904800	0.687200	0.047800
O1061	O106	0.769700	0.653900	0.084400
O1071	O107	0.687300	0.536700	0.091600
O1081	O108	0.684000	0.459100	0.052500
Zn281	Zn28	0.990930	0.175090	0.498460
C2711	C271	0.831700	0.148500	0.555800
C2721	C272	0.825100	0.097300	0.529300
C2731	C273	0.777800	0.042700	0.531200
C2741	C274	0.710500	0.012900	0.560300
C2751	C275	0.876200	0.047100	0.478900
C2761	C276	0.929800	0.031200	0.443400
C2771	C277	0.942500	0.973400	0.432100
H1091	H109	0.912200	0.943200	0.446800
C2781	C278	0.001500	0.959400	0.398200
H1101	H110	0.009400	0.920700	0.389600
C2791	C279	0.045600	0.005800	0.379200
H1111	H111	0.085300	0.997100	0.357100
C2801	C280	0.978600	0.074400	0.420900
H1121	H112	0.970800	0.113800	0.427900
N821	N82	0.888300	0.099600	0.496200
N831	N83	0.809400	0.010300	0.499300
N841	N84	0.038100	0.060700	0.388600
O1091	O109	0.904800	0.187200	0.547800
O1101	O110	0.769700	0.153900	0.584400
O1111	O111	0.687300	0.036700	0.591600
O1121	O112	0.684000	0.959100	0.552500
Zn291	Zn29	0.759070	0.574910	0.498460
C2811	C281	0.918300	0.601500	0.555800
C2821	C282	0.924900	0.652700	0.529300
C2831	C283	0.972200	0.707300	0.531200
C2841	C284	0.039500	0.737100	0.560300
C2851	C285	0.873800	0.702900	0.478900
C2861	C286	0.820200	0.718800	0.443400
C2871	C287	0.807500	0.776600	0.432100
H1131	H113	0.837800	0.806800	0.446800
C2881	C288	0.748500	0.790600	0.398200
H1141	H114	0.740600	0.829300	0.389600
C2891	C289	0.704400	0.744200	0.379200
H1151	H115	0.664700	0.752900	0.357100
C2901	C290	0.771400	0.675600	0.420900
H1161	H116	0.779200	0.636200	0.427900
N851	N85	0.861700	0.650400	0.496200
N861	N86	0.940600	0.739700	0.499300
N871	N87	0.711900	0.689300	0.388600
O1131	O113	0.845200	0.562800	0.547800
O1141	O114	0.980300	0.596100	0.584400
O1151	O115	0.062700	0.713300	0.591600
O1161	O116	0.066000	0.790900	0.552500
Zn301	Zn30	0.759070	0.074910	0.998460
C2911	C291	0.918300	0.101500	0.055800
C2921	C292	0.924900	0.152700	0.029300
C2931	C293	0.972200	0.207300	0.031200
C2941	C294	0.039500	0.237100	0.060300
C2951	C295	0.873800	0.202900	0.978900
C2961	C296	0.820200	0.218800	0.943400
C2971	C297	0.807500	0.276600	0.932100
H1171	H117	0.837800	0.306800	0.946800
C2981	C298	0.748500	0.290600	0.898200
H1181	H118	0.740600	0.329300	0.889600
C2991	C299	0.704400	0.244200	0.879200
H1191	H119	0.664700	0.252900	0.857100
C3001	C300	0.771400	0.175600	0.920900
H1201	H120	0.779200	0.136200	0.927900
N881	N88	0.861700	0.150400	0.996200
N891	N89	0.940600	0.239700	0.999300
N901	N90	0.711900	0.189300	0.888600
O1171	O117	0.845200	0.062800	0.047800
O1181	O118	0.980300	0.096100	0.084400
O1191	O119	0.062700	0.213300	0.091600
O1201	O120	0.066000	0.290900	0.052500
Zn311	Zn31	0.259070	0.574910	0.998460
C3011	C301	0.418300	0.601500	0.055800
C3021	C302	0.424900	0.652700	0.029300
C3031	C303	0.472200	0.707300	0.031200
C3041	C304	0.539500	0.737100	0.060300
C3051	C305	0.373800	0.702900	0.978900
C3061	C306	0.320200	0.718800	0.943400
C3071	C307	0.307500	0.776600	0.932100
H1211	H121	0.337800	0.806800	0.946800
C3081	C308	0.248500	0.790600	0.898200
H1221	H122	0.240600	0.829300	0.889600
C3091	C309	0.204400	0.744200	0.879200
H1231	H123	0.164700	0.752900	0.857100
C3101	C310	0.271400	0.675600	0.920900
H1241	H124	0.279200	0.636200	0.927900
N911	N91	0.361700	0.650400	0.996200
N921	N92	0.440600	0.739700	0.999300
N931	N93	0.211900	0.689300	0.888600
O1211	O121	0.345200	0.562800	0.047800
O1221	O122	0.480300	0.596100	0.084400
O1231	O123	0.562700	0.713300	0.091600
O1241	O124	0.566000	0.790900	0.052500
Zn321	Zn32	0.259070	0.074910	0.498460
C3111	C311	0.418300	0.101500	0.555800
C3121	C312	0.424900	0.152700	0.529300
C3131	C313	0.472200	0.207300	0.531200
C3141	C314	0.539500	0.237100	0.560300
C3151	C315	0.373800	0.202900	0.478900
C3161	C316	0.320200	0.218800	0.443400
C3171	C317	0.307500	0.276600	0.432100
H1251	H125	0.337800	0.306800	0.446800
C3181	C318	0.248500	0.290600	0.398200
H1261	H126	0.240600	0.329300	0.389600
C3191	C319	0.204400	0.244200	0.379200
H1271	H127	0.164700	0.252900	0.357100
C3201	C320	0.271400	0.175600	0.420900
H1281	H128	0.279200	0.136200	0.427900
N941	N94	0.361700	0.150400	0.496200
N951	N95	0.440600	0.239700	0.499300
N961	N96	0.211900	0.189300	0.388600
O1251	O125	0.345200	0.062800	0.547800
O1261	O126	0.480300	0.096100	0.584400
O1271	O127	0.562700	0.213300	0.591600
O1281	O128	0.566000	0.290900	0.552500
Sm11	Sm1	0.875000	0.375000	0.375000
Sm21	Sm2	0.875000	0.875000	0.875000
Sm31	Sm3	0.375000	0.375000	0.875000
Sm41	Sm4	0.375000	0.875000	0.375000
Sm51	Sm5	0.125000	0.625000	0.625000
Sm61	Sm6	0.125000	0.125000	0.125000
Sm71	Sm7	0.625000	0.625000	0.125000
Sm81	Sm8	0.625000	0.125000	0.625000
Zn331	Zn33	0.375000	0.375000	0.108460
Cl11	Cl1	0.375000	0.375000	0.242800
Zn341	Zn34	0.375000	0.875000	0.608460
Cl21	Cl2	0.375000	0.875000	0.742800
Zn351	Zn35	0.875000	0.375000	0.608460
Cl31	Cl3	0.875000	0.375000	0.742800
Zn361	Zn36	0.875000	0.875000	0.108460
Cl41	Cl4	0.875000	0.875000	0.242800
Zn371	Zn37	0.375000	0.375000	0.641540
Cl51	Cl5	0.375000	0.375000	0.507200
Zn381	Zn38	0.375000	0.875000	0.141540
Cl61	Cl6	0.375000	0.875000	0.007200
Zn391	Zn39	0.875000	0.375000	0.141540
Cl71	Cl7	0.875000	0.375000	0.007200
Zn401	Zn40	0.875000	0.875000	0.641540
Cl81	Cl8	0.875000	0.875000	0.507200
Zn411	Zn41	0.625000	0.625000	0.891540
Cl91	Cl9	0.625000	0.625000	0.757200
Zn421	Zn42	0.625000	0.125000	0.391540
Cl101	Cl10	0.625000	0.125000	0.257200
Zn431	Zn43	0.125000	0.625000	0.391540
Cl111	Cl11	0.125000	0.625000	0.257200
Zn441	Zn44	0.125000	0.125000	0.891540
Cl121	Cl12	0.125000	0.125000	0.757200
Zn451	Zn45	0.625000	0.625000	0.358460
Cl131	Cl13	0.625000	0.625000	0.492800
Zn461	Zn46	0.625000	0.125000	0.858460
Cl141	Cl14	0.625000	0.125000	0.992800
Zn471	Zn47	0.125000	0.625000	0.858460
Cl151	Cl15	0.125000	0.625000	0.992800
Zn481	Zn48	0.125000	0.125000	0.358460
Cl161	Cl16	0.125000	0.125000	0.492800
