data_SEHTEF_clean_PM
_symmetry_space_group_name_H-M	'P1'
_cell_length_a	10.838800
_cell_length_b	10.942100
_cell_length_c	15.591800
_cell_angle_alpha	90.000000
_cell_angle_beta	90.000000
_cell_angle_gamma	100.513000
_symmetry_Int_Tables_number 1

loop_
_symmetry_equiv_pos_as_xyz
'x,y,z'

loop_
_atom_site_label
_atom_site_type_symbol
_atom_site_fract_x
_atom_site_fract_y
_atom_site_fract_z
Y11	Y1	0.143380	0.397350	0.897910
Y21	Y2	0.356620	0.102650	0.397910
Y31	Y3	0.856620	0.602650	0.102090
Y41	Y4	0.643380	0.897350	0.602090
H11	H1	0.601200	0.411200	0.952800
H21	H2	0.448500	0.181300	0.766500
H31	H3	0.815800	0.221200	0.814900
H41	H4	0.898800	0.088800	0.452800
H51	H5	0.051500	0.318700	0.266500
H61	H6	0.684200	0.278800	0.314900
H71	H7	0.398800	0.588800	0.047200
H81	H8	0.551500	0.818700	0.233500
H91	H9	0.184200	0.778800	0.185100
H101	H10	0.101200	0.911200	0.547200
H111	H11	0.948500	0.681300	0.733500
H121	H12	0.315800	0.721200	0.685100
C11	C1	0.840100	0.384200	0.943800
C21	C2	0.378300	0.335800	0.878200
C31	C3	0.643700	0.096000	0.709100
C41	C4	0.726800	0.324400	0.891900
C51	C5	0.609100	0.354700	0.909500
C61	C6	0.503900	0.300600	0.862600
C71	C7	0.518400	0.217800	0.798100
C81	C8	0.634200	0.187300	0.779000
C91	C9	0.737800	0.241200	0.826800
C101	C10	0.659900	0.115800	0.443800
C111	C11	0.121700	0.164200	0.378200
C121	C12	0.856300	0.404000	0.209100
C131	C13	0.773200	0.175600	0.391900
C141	C14	0.890900	0.145300	0.409500
C151	C15	0.996100	0.199400	0.362600
C161	C16	0.981600	0.282200	0.298100
C171	C17	0.865800	0.312700	0.279000
C181	C18	0.762200	0.258800	0.326800
C191	C19	0.159900	0.615800	0.056200
C201	C20	0.621700	0.664200	0.121800
C211	C21	0.356300	0.904000	0.290900
C221	C22	0.273200	0.675600	0.108100
C231	C23	0.390900	0.645300	0.090500
C241	C24	0.496100	0.699400	0.137400
C251	C25	0.481600	0.782200	0.201900
C261	C26	0.365800	0.812700	0.221000
C271	C27	0.262200	0.758800	0.173200
C281	C28	0.340100	0.884200	0.556200
C291	C29	0.878300	0.835800	0.621800
C301	C30	0.143700	0.596000	0.790900
C311	C31	0.226800	0.824400	0.608100
C321	C32	0.109100	0.854700	0.590500
C331	C33	0.003900	0.800600	0.637400
C341	C34	0.018400	0.717800	0.701900
C351	C35	0.134200	0.687300	0.721000
C361	C36	0.237800	0.741200	0.673200
O11	O1	0.937400	0.337900	0.937080
O21	O2	0.828800	0.474100	0.989960
O31	O3	0.364200	0.409500	0.936270
O41	O4	0.288500	0.287700	0.830120
O51	O5	0.549400	0.059700	0.662800
O61	O6	0.743300	0.054500	0.699120
O71	O7	0.562600	0.162100	0.437080
O81	O8	0.671200	0.025900	0.489960
O91	O9	0.135800	0.090500	0.436270
O101	O10	0.211500	0.212300	0.330120
O111	O11	0.950600	0.440300	0.162800
O121	O12	0.756700	0.445500	0.199120
O131	O13	0.062600	0.662100	0.062920
O141	O14	0.171200	0.525900	0.010040
O151	O15	0.635800	0.590500	0.063730
O161	O16	0.711500	0.712300	0.169880
O171	O17	0.450600	0.940300	0.337200
O181	O18	0.256700	0.945500	0.300880
O191	O19	0.437400	0.837900	0.562920
O201	O20	0.328800	0.974100	0.510040
O211	O21	0.864200	0.909500	0.563730
O221	O22	0.788500	0.787700	0.669880
O231	O23	0.049400	0.559700	0.837200
O241	O24	0.243300	0.554500	0.800880
