data_SEHVOQ_clean_PM
_symmetry_space_group_name_H-M	'P1'
_cell_length_a	14.206000
_cell_length_b	33.308000
_cell_length_c	11.587000
_cell_angle_alpha	90.000000
_cell_angle_beta	90.000000
_cell_angle_gamma	90.000000
_symmetry_Int_Tables_number 1

loop_
_symmetry_equiv_pos_as_xyz
'x,y,z'

loop_
_atom_site_label
_atom_site_type_symbol
_atom_site_fract_x
_atom_site_fract_y
_atom_site_fract_z
V11	V1	0.799700	0.139900	0.836000
V21	V2	0.957600	0.108600	0.683700
P11	P1	0.644100	0.073400	0.809500
P21	P2	0.121300	0.173400	0.704300
O11	O1	0.935300	0.143900	0.815900
O21	O2	0.706600	0.099800	0.885000
O31	O3	0.706100	0.055300	0.710300
O41	O4	0.605100	0.039000	0.878600
O51	O5	0.818600	0.150300	0.003000
O61	O6	0.060700	0.143800	0.634800
O71	O7	0.057500	0.193200	0.799400
O81	O8	0.157000	0.205400	0.624600
O91	O9	0.949900	0.099700	0.516500
O101	O10	0.819900	0.108700	0.693400
B11	B1	0.003600	0.166600	0.878300
V31	V3	0.799700	0.639900	0.336000
V41	V4	0.957600	0.608600	0.183700
P31	P3	0.644100	0.573400	0.309500
P41	P4	0.121300	0.673400	0.204300
O111	O11	0.935300	0.643900	0.315900
O121	O12	0.706600	0.599800	0.385000
O131	O13	0.706100	0.555300	0.210300
O141	O14	0.605100	0.539000	0.378600
O151	O15	0.818600	0.650300	0.503000
O161	O16	0.060700	0.643800	0.134800
O171	O17	0.057500	0.693200	0.299400
O181	O18	0.157000	0.705400	0.124600
O191	O19	0.949900	0.599700	0.016500
O201	O20	0.819900	0.608700	0.193400
B21	B2	0.003600	0.666600	0.378300
V51	V5	0.299700	0.139900	0.336000
V61	V6	0.457600	0.108600	0.183700
P51	P5	0.144100	0.073400	0.309500
P61	P6	0.621300	0.173400	0.204300
O211	O21	0.435300	0.143900	0.315900
O221	O22	0.206600	0.099800	0.385000
O231	O23	0.206100	0.055300	0.210300
O241	O24	0.105100	0.039000	0.378600
O251	O25	0.318600	0.150300	0.503000
O261	O26	0.560700	0.143800	0.134800
O271	O27	0.557500	0.193200	0.299400
O281	O28	0.657000	0.205400	0.124600
O291	O29	0.449900	0.099700	0.016500
O301	O30	0.319900	0.108700	0.193400
B31	B3	0.503600	0.166600	0.378300
V71	V7	0.299700	0.639900	0.836000
V81	V8	0.457600	0.608600	0.683700
P71	P7	0.144100	0.573400	0.809500
P81	P8	0.621300	0.673400	0.704300
O311	O31	0.435300	0.643900	0.815900
O321	O32	0.206600	0.599800	0.885000
O331	O33	0.206100	0.555300	0.710300
O341	O34	0.105100	0.539000	0.878600
O351	O35	0.318600	0.650300	0.003000
O361	O36	0.560700	0.643800	0.634800
O371	O37	0.557500	0.693200	0.799400
O381	O38	0.657000	0.705400	0.624600
O391	O39	0.449900	0.599700	0.516500
O401	O40	0.319900	0.608700	0.693400
B41	B4	0.503600	0.666600	0.878300
V91	V9	0.200300	0.860100	0.836000
V101	V10	0.042400	0.891400	0.683700
P91	P9	0.355900	0.926600	0.809500
P101	P10	0.878700	0.826600	0.704300
O411	O41	0.064700	0.856100	0.815900
O421	O42	0.293400	0.900200	0.885000
O431	O43	0.293900	0.944700	0.710300
O441	O44	0.394900	0.961000	0.878600
O451	O45	0.181400	0.849700	0.003000
O461	O46	0.939300	0.856200	0.634800
O471	O47	0.942500	0.806800	0.799400
O481	O48	0.843000	0.794600	0.624600
O491	O49	0.050100	0.900300	0.516500
O501	O50	0.180100	0.891300	0.693400
B51	B5	0.996400	0.833400	0.878300
V111	V11	0.200300	0.360100	0.336000
V121	V12	0.042400	0.391400	0.183700
P111	P11	0.355900	0.426600	0.309500
P121	P12	0.878700	0.326600	0.204300
O511	O51	0.064700	0.356100	0.315900
O521	O52	0.293400	0.400200	0.385000
O531	O53	0.293900	0.444700	0.210300
O541	O54	0.394900	0.461000	0.378600
O551	O55	0.181400	0.349700	0.503000
O561	O56	0.939300	0.356200	0.134800
O571	O57	0.942500	0.306800	0.299400
O581	O58	0.843000	0.294600	0.124600
O591	O59	0.050100	0.400300	0.016500
O601	O60	0.180100	0.391300	0.193400
B61	B6	0.996400	0.333400	0.378300
V131	V13	0.700300	0.860100	0.336000
V141	V14	0.542400	0.891400	0.183700
P131	P13	0.855900	0.926600	0.309500
P141	P14	0.378700	0.826600	0.204300
O611	O61	0.564700	0.856100	0.315900
O621	O62	0.793400	0.900200	0.385000
O631	O63	0.793900	0.944700	0.210300
O641	O64	0.894900	0.961000	0.378600
O651	O65	0.681400	0.849700	0.503000
O661	O66	0.439300	0.856200	0.134800
O671	O67	0.442500	0.806800	0.299400
O681	O68	0.343000	0.794600	0.124600
O691	O69	0.550100	0.900300	0.016500
O701	O70	0.680100	0.891300	0.193400
B71	B7	0.496400	0.833400	0.378300
V151	V15	0.700300	0.360100	0.836000
V161	V16	0.542400	0.391400	0.683700
P151	P15	0.855900	0.426600	0.809500
P161	P16	0.378700	0.326600	0.704300
O711	O71	0.564700	0.356100	0.815900
O721	O72	0.793400	0.400200	0.885000
O731	O73	0.793900	0.444700	0.710300
O741	O74	0.894900	0.461000	0.878600
O751	O75	0.681400	0.349700	0.003000
O761	O76	0.439300	0.356200	0.634800
O771	O77	0.442500	0.306800	0.799400
O781	O78	0.343000	0.294600	0.624600
O791	O79	0.550100	0.400300	0.516500
O801	O80	0.680100	0.391300	0.693400
B81	B8	0.496400	0.333400	0.878300
V171	V17	0.049700	0.110100	0.086000
V181	V18	0.207600	0.141400	0.933700
P171	P17	0.894100	0.176600	0.059500
P181	P18	0.371300	0.076600	0.954300
O811	O81	0.185300	0.106100	0.065900
O821	O82	0.956600	0.150200	0.135000
O831	O83	0.956100	0.194700	0.960300
O841	O84	0.855100	0.211000	0.128600
O851	O85	0.068600	0.099700	0.253000
O861	O86	0.310700	0.106200	0.884800
O871	O87	0.307500	0.056800	0.049400
O881	O88	0.407000	0.044600	0.874600
O891	O89	0.199900	0.150300	0.766500
O901	O90	0.069900	0.141300	0.943400
B91	B9	0.253600	0.083400	0.128300
V191	V19	0.049700	0.610100	0.586000
V201	V20	0.207600	0.641400	0.433700
P191	P19	0.894100	0.676600	0.559500
P201	P20	0.371300	0.576600	0.454300
O911	O91	0.185300	0.606100	0.565900
O921	O92	0.956600	0.650200	0.635000
O931	O93	0.956100	0.694700	0.460300
O941	O94	0.855100	0.711000	0.628600
O951	O95	0.068600	0.599700	0.753000
O961	O96	0.310700	0.606200	0.384800
O971	O97	0.307500	0.556800	0.549400
O981	O98	0.407000	0.544600	0.374600
O991	O99	0.199900	0.650300	0.266500
O1001	O100	0.069900	0.641300	0.443400
B101	B10	0.253600	0.583400	0.628300
V211	V21	0.549700	0.110100	0.586000
V221	V22	0.707600	0.141400	0.433700
P211	P21	0.394100	0.176600	0.559500
P221	P22	0.871300	0.076600	0.454300
O1011	O101	0.685300	0.106100	0.565900
O1021	O102	0.456600	0.150200	0.635000
O1031	O103	0.456100	0.194700	0.460300
O1041	O104	0.355100	0.211000	0.628600
O1051	O105	0.568600	0.099700	0.753000
O1061	O106	0.810700	0.106200	0.384800
O1071	O107	0.807500	0.056800	0.549400
O1081	O108	0.907000	0.044600	0.374600
O1091	O109	0.699900	0.150300	0.266500
O1101	O110	0.569900	0.141300	0.443400
B111	B11	0.753600	0.083400	0.628300
V231	V23	0.549700	0.610100	0.086000
V241	V24	0.707600	0.641400	0.933700
P231	P23	0.394100	0.676600	0.059500
P241	P24	0.871300	0.576600	0.954300
O1111	O111	0.685300	0.606100	0.065900
O1121	O112	0.456600	0.650200	0.135000
O1131	O113	0.456100	0.694700	0.960300
O1141	O114	0.355100	0.711000	0.128600
O1151	O115	0.568600	0.599700	0.253000
O1161	O116	0.810700	0.606200	0.884800
O1171	O117	0.807500	0.556800	0.049400
O1181	O118	0.907000	0.544600	0.874600
O1191	O119	0.699900	0.650300	0.766500
O1201	O120	0.569900	0.641300	0.943400
B121	B12	0.753600	0.583400	0.128300
V251	V25	0.450300	0.389900	0.086000
V261	V26	0.292400	0.358600	0.933700
P251	P25	0.605900	0.323400	0.059500
P261	P26	0.128700	0.423400	0.954300
O1211	O121	0.314700	0.393900	0.065900
O1221	O122	0.543400	0.349800	0.135000
O1231	O123	0.543900	0.305300	0.960300
O1241	O124	0.644900	0.289000	0.128600
O1251	O125	0.431400	0.400300	0.253000
O1261	O126	0.189300	0.393800	0.884800
O1271	O127	0.192500	0.443200	0.049400
O1281	O128	0.093000	0.455400	0.874600
O1291	O129	0.300100	0.349700	0.766500
O1301	O130	0.430100	0.358700	0.943400
B131	B13	0.246400	0.416600	0.128300
V271	V27	0.450300	0.889900	0.586000
V281	V28	0.292400	0.858600	0.433700
P271	P27	0.605900	0.823400	0.559500
P281	P28	0.128700	0.923400	0.454300
O1311	O131	0.314700	0.893900	0.565900
O1321	O132	0.543400	0.849800	0.635000
O1331	O133	0.543900	0.805300	0.460300
O1341	O134	0.644900	0.789000	0.628600
O1351	O135	0.431400	0.900300	0.753000
O1361	O136	0.189300	0.893800	0.384800
O1371	O137	0.192500	0.943200	0.549400
O1381	O138	0.093000	0.955400	0.374600
O1391	O139	0.300100	0.849700	0.266500
O1401	O140	0.430100	0.858700	0.443400
B141	B14	0.246400	0.916600	0.628300
V291	V29	0.950300	0.389900	0.586000
V301	V30	0.792400	0.358600	0.433700
P291	P29	0.105900	0.323400	0.559500
P301	P30	0.628700	0.423400	0.454300
O1411	O141	0.814700	0.393900	0.565900
O1421	O142	0.043400	0.349800	0.635000
O1431	O143	0.043900	0.305300	0.460300
O1441	O144	0.144900	0.289000	0.628600
O1451	O145	0.931400	0.400300	0.753000
O1461	O146	0.689300	0.393800	0.384800
O1471	O147	0.692500	0.443200	0.549400
O1481	O148	0.593000	0.455400	0.374600
O1491	O149	0.800100	0.349700	0.266500
O1501	O150	0.930100	0.358700	0.443400
B151	B15	0.746400	0.416600	0.628300
V311	V31	0.950300	0.889900	0.086000
V321	V32	0.792400	0.858600	0.933700
P311	P31	0.105900	0.823400	0.059500
P321	P32	0.628700	0.923400	0.954300
O1511	O151	0.814700	0.893900	0.065900
O1521	O152	0.043400	0.849800	0.135000
O1531	O153	0.043900	0.805300	0.960300
O1541	O154	0.144900	0.789000	0.128600
O1551	O155	0.931400	0.900300	0.253000
O1561	O156	0.689300	0.893800	0.884800
O1571	O157	0.692500	0.943200	0.049400
O1581	O158	0.593000	0.955400	0.874600
O1591	O159	0.800100	0.849700	0.766500
O1601	O160	0.930100	0.858700	0.943400
B161	B16	0.746400	0.916600	0.128300
V331	V33	0.500000	0.000000	0.902000
V341	V34	0.500000	0.500000	0.402000
V351	V35	0.000000	0.000000	0.402000
V361	V36	0.000000	0.500000	0.902000
V371	V37	0.750000	0.250000	0.152000
V381	V38	0.750000	0.750000	0.652000
V391	V39	0.250000	0.250000	0.652000
V401	V40	0.250000	0.750000	0.152000
