data_SEHZUB_clean_PM
_symmetry_space_group_name_H-M	'P1'
_cell_length_a	8.320000
_cell_length_b	11.375000
_cell_length_c	12.934700
_cell_angle_alpha	104.395000
_cell_angle_beta	108.761000
_cell_angle_gamma	90.000000
_symmetry_Int_Tables_number 1

loop_
_symmetry_equiv_pos_as_xyz
'x,y,z'

loop_
_atom_site_label
_atom_site_type_symbol
_atom_site_fract_x
_atom_site_fract_y
_atom_site_fract_z
Co11	Co1	0.322910	0.063440	0.629600
Co21	Co2	0.693310	0.936560	0.370400
H11	H1	0.139800	0.186300	0.040400
H21	H2	0.097700	0.281900	0.211600
H31	H3	0.191800	0.205100	0.363600
H41	H4	0.146600	0.802200	0.471600
H51	H5	0.145800	0.606800	0.477800
H61	H6	0.487200	0.698900	0.786200
H71	H7	0.493300	0.901200	0.777600
H81	H8	0.066200	0.474600	0.574800
H91	H9	0.044100	0.273900	0.582800
H101	H10	0.554100	0.274200	0.681000
H111	H11	0.576000	0.474900	0.673200
H121	H12	0.099400	0.813700	0.959600
H131	H13	0.886100	0.718100	0.788400
H141	H14	0.828200	0.794900	0.636400
H151	H15	0.675000	0.197800	0.528400
H161	H16	0.668000	0.393200	0.522200
H171	H17	0.701000	0.301100	0.213800
H181	H18	0.715700	0.098800	0.222400
H191	H19	0.491400	0.525400	0.425200
H201	H20	0.461300	0.726100	0.417200
H211	H21	0.873100	0.725800	0.319000
H221	H22	0.902800	0.525100	0.326800
C11	C1	0.340500	0.005700	0.390200
C21	C2	0.280000	0.052300	0.287600
C31	C3	0.316000	0.001300	0.192400
C41	C4	0.254800	0.049200	0.096400
C51	C5	0.176400	0.153300	0.102200
C61	C6	0.151900	0.210300	0.205600
C71	C7	0.204900	0.163600	0.295600
C81	C8	0.218300	0.782500	0.535600
C91	C9	0.217600	0.665500	0.539200
C101	C10	0.320600	0.629300	0.631800
C111	C11	0.419900	0.718900	0.721200
C121	C12	0.422100	0.841500	0.716600
C131	C13	0.323300	0.494700	0.623200
C141	C14	0.164000	0.434500	0.596200
C151	C15	0.150700	0.314200	0.600800
C161	C16	0.456300	0.314400	0.659800
C171	C17	0.469300	0.434600	0.655000
C181	C18	0.394200	0.882700	0.171000
C191	C19	0.950300	0.994300	0.609800
C201	C20	0.992400	0.947700	0.712400
C211	C21	0.123600	0.998700	0.807600
C221	C22	0.158400	0.950800	0.903600
C231	C23	0.074200	0.846700	0.897800
C241	C24	0.946300	0.789700	0.794400
C251	C25	0.909300	0.836400	0.704400
C261	C26	0.682700	0.217500	0.464400
C271	C27	0.678400	0.334500	0.460800
C281	C28	0.688800	0.370700	0.368200
C291	C29	0.698700	0.281100	0.278800
C301	C30	0.705500	0.158500	0.283400
C311	C31	0.700100	0.505300	0.376800
C321	C32	0.567800	0.565500	0.403800
C331	C33	0.549900	0.685800	0.399200
C341	C34	0.796500	0.685600	0.340200
C351	C35	0.814300	0.565400	0.345000
C361	C36	0.223200	0.117300	0.829000
N11	N1	0.296700	0.254200	0.632600
N21	N2	0.318700	0.871700	0.621000
N31	N3	0.664100	0.745800	0.367400
N41	N4	0.697700	0.128300	0.379000
O11	O1	0.267280	0.034800	0.456760
O21	O2	0.464590	0.949500	0.404380
O31	O3	0.294530	0.790000	0.136460
O41	O4	0.556930	0.888800	0.197460
O51	O5	0.810520	0.965200	0.543240
O61	O6	0.060210	0.050500	0.595620
O71	O7	0.158070	0.210000	0.863540
O81	O8	0.359470	0.111200	0.802540
O91	O9	0.298200	0.000000	0.000000
