data_SEMFEX_charged_PM
_symmetry_space_group_name_H-M	'P1'
_cell_length_a	12.485300
_cell_length_b	12.485300
_cell_length_c	23.936700
_cell_angle_alpha	104.354000
_cell_angle_beta	104.354000
_cell_angle_gamma	92.833000
_symmetry_Int_Tables_number 1

loop_
_symmetry_equiv_pos_as_xyz
'x,y,z'

loop_
_atom_site_label
_atom_site_type_symbol
_atom_site_fract_x
_atom_site_fract_y
_atom_site_fract_z
Co11	Co1	0.500000	0.000000	0.000000
Co21	Co2	0.500000	0.500000	0.000000
Co31	Co3	0.000000	0.500000	0.500000
Co41	Co4	0.500000	0.500000	0.500000
P11	P1	0.758820	0.008820	0.750000
P21	P2	0.991180	0.241180	0.750000
P31	P3	0.241180	0.991180	0.250000
P41	P4	0.008820	0.758820	0.250000
P51	P5	0.763580	0.236420	0.750000
P61	P6	0.986420	0.013580	0.750000
P71	P7	0.236420	0.763580	0.250000
P81	P8	0.013580	0.986420	0.250000
H11	H1	0.814700	0.897300	0.805600
H21	H2	0.581800	0.040000	0.809000
H31	H3	0.489400	0.051600	0.880800
H41	H4	0.582000	0.286800	0.927000
H51	H5	0.687700	0.872300	0.960000
H61	H6	0.675100	0.229300	0.857000
H71	H7	0.788100	0.854700	0.891600
H81	H8	0.733900	0.548700	0.858600
H91	H9	0.640300	0.595100	0.929000
H101	H10	0.801100	0.405700	0.796800
H111	H11	0.990900	0.408300	0.805600
H121	H12	0.227200	0.269000	0.809000
H131	H13	0.391400	0.329200	0.880800
H141	H14	0.345000	0.140200	0.927000
H151	H15	0.272300	0.587700	0.960000
H161	H16	0.181900	0.127700	0.857000
H171	H17	0.103500	0.536900	0.891600
H181	H18	0.124700	0.809900	0.858600
H191	H19	0.288700	0.833900	0.929000
H201	H20	0.995700	0.891100	0.796800
H211	H21	0.102700	0.185300	0.694400
H221	H22	0.960000	0.418200	0.691000
H231	H23	0.948400	0.510600	0.619200
H241	H24	0.713200	0.418000	0.573000
H251	H25	0.127700	0.312300	0.540000
H261	H26	0.770700	0.324900	0.643000
H271	H27	0.145300	0.211900	0.608400
H281	H28	0.451300	0.266100	0.641400
H291	H29	0.404900	0.359700	0.571000
H301	H30	0.594300	0.198900	0.703200
H311	H31	0.591700	0.009100	0.694400
H321	H32	0.731000	0.772800	0.691000
H331	H33	0.670800	0.608600	0.619200
H341	H34	0.859800	0.655000	0.573000
H351	H35	0.412300	0.727700	0.540000
H361	H36	0.872300	0.818100	0.643000
H371	H37	0.463100	0.896500	0.608400
H381	H38	0.190100	0.875300	0.641400
H391	H39	0.166100	0.711300	0.571000
H401	H40	0.108900	0.004300	0.703200
H411	H41	0.185300	0.102700	0.194400
H421	H42	0.418200	0.960000	0.191000
H431	H43	0.510600	0.948400	0.119200
H441	H44	0.418000	0.713200	0.073000
H451	H45	0.312300	0.127700	0.040000
H461	H46	0.324900	0.770700	0.143000
H471	H47	0.211900	0.145300	0.108400
H481	H48	0.266100	0.451300	0.141400
H491	H49	0.359700	0.404900	0.071000
H501	H50	0.198900	0.594300	0.203200
H511	H51	0.009100	0.591700	0.194400
H521	H52	0.772800	0.731000	0.191000
H531	H53	0.608600	0.670800	0.119200
H541	H54	0.655000	0.859800	0.073000
H551	H55	0.727700	0.412300	0.040000
H561	H56	0.818100	0.872300	0.143000
H571	H57	0.896500	0.463100	0.108400
H581	H58	0.875300	0.190100	0.141400
H591	H59	0.711300	0.166100	0.071000
H601	H60	0.004300	0.108900	0.203200
H611	H61	0.897300	0.814700	0.305600
H621	H62	0.040000	0.581800	0.309000
H631	H63	0.051600	0.489400	0.380800
H641	H64	0.286800	0.582000	0.427000
H651	H65	0.872300	0.687700	0.460000
H661	H66	0.229300	0.675100	0.357000
H671	H67	0.854700	0.788100	0.391600
H681	H68	0.548700	0.733900	0.358600
H691	H69	0.595100	0.640300	0.429000
H701	H70	0.405700	0.801100	0.296800
H711	H71	0.408300	0.990900	0.305600
H721	H72	0.269000	0.227200	0.309000
H731	H73	0.329200	0.391400	0.380800
H741	H74	0.140200	0.345000	0.427000
H751	H75	0.587700	0.272300	0.460000
H761	H76	0.127700	0.181900	0.357000
H771	H77	0.536900	0.103500	0.391600
H781	H78	0.809900	0.124700	0.358600
H791	H79	0.833900	0.288700	0.429000
H801	H80	0.891100	0.995700	0.296800
H811	H81	0.535200	0.285200	0.070400
H821	H82	0.714800	0.464800	0.429600
H831	H83	0.464800	0.714800	0.929600
H841	H84	0.285200	0.535200	0.570400
C11	C1	0.713380	0.381920	0.846540
C21	C2	0.699660	0.948700	0.842480
C31	C3	0.606280	0.006480	0.839760
C41	C4	0.551220	0.012820	0.883240
C51	C5	0.612410	0.340410	0.912620
C61	C6	0.667490	0.907890	0.929780
C71	C7	0.667750	0.304550	0.870100
C81	C8	0.728480	0.896480	0.888760
C91	C9	0.702600	0.493000	0.871200
C101	C10	0.646100	0.520100	0.913800
C111	C11	0.133160	0.964620	0.846540
C121	C12	0.142820	0.393780	0.842480
C131	C13	0.233480	0.333280	0.839760
C141	C14	0.332020	0.370420	0.883240
C151	C15	0.300210	0.072210	0.912620
C161	C16	0.262290	0.521890	0.929780
C171	C17	0.202350	0.065550	0.870100
C181	C18	0.160280	0.492280	0.888760
C191	C19	0.168600	0.878200	0.871200
C201	C20	0.267700	0.893700	0.913800
C211	C21	0.618080	0.286620	0.653460
C221	C22	0.051300	0.300340	0.657520
C231	C23	0.993520	0.393720	0.660240
C241	C24	0.987180	0.448780	0.616760
C251	C25	0.659590	0.387590	0.587380
C261	C26	0.092110	0.332510	0.570220
C271	C27	0.695450	0.332250	0.629900
C281	C28	0.103520	0.271520	0.611240
C291	C29	0.507000	0.297400	0.628800
C301	C30	0.479900	0.353900	0.586200
C311	C31	0.035380	0.866840	0.653460
C321	C32	0.606220	0.857180	0.657520
C331	C33	0.666720	0.766520	0.660240
C341	C34	0.629580	0.667980	0.616760
C351	C35	0.927790	0.699790	0.587380
C361	C36	0.478110	0.737710	0.570220
C371	C37	0.934450	0.797650	0.629900
C381	C38	0.507720	0.839720	0.611240
C391	C39	0.121800	0.831400	0.628800
C401	C40	0.106300	0.732300	0.586200
C411	C41	0.286620	0.618080	0.153460
C421	C42	0.300340	0.051300	0.157520
C431	C43	0.393720	0.993520	0.160240
C441	C44	0.448780	0.987180	0.116760
C451	C45	0.387590	0.659590	0.087380
C461	C46	0.332510	0.092110	0.070220
C471	C47	0.332250	0.695450	0.129900
C481	C48	0.271520	0.103520	0.111240
C491	C49	0.297400	0.507000	0.128800
C501	C50	0.353900	0.479900	0.086200
C511	C51	0.866840	0.035380	0.153460
C521	C52	0.857180	0.606220	0.157520
C531	C53	0.766520	0.666720	0.160240
C541	C54	0.667980	0.629580	0.116760
C551	C55	0.699790	0.927790	0.087380
C561	C56	0.737710	0.478110	0.070220
C571	C57	0.797650	0.934450	0.129900
C581	C58	0.839720	0.507720	0.111240
C591	C59	0.831400	0.121800	0.128800
C601	C60	0.732300	0.106300	0.086200
C611	C61	0.381920	0.713380	0.346540
C621	C62	0.948700	0.699660	0.342480
C631	C63	0.006480	0.606280	0.339760
C641	C64	0.012820	0.551220	0.383240
C651	C65	0.340410	0.612410	0.412620
C661	C66	0.907890	0.667490	0.429780
C671	C67	0.304550	0.667750	0.370100
C681	C68	0.896480	0.728480	0.388760
C691	C69	0.493000	0.702600	0.371200
C701	C70	0.520100	0.646100	0.413800
C711	C71	0.964620	0.133160	0.346540
C721	C72	0.393780	0.142820	0.342480
C731	C73	0.333280	0.233480	0.339760
C741	C74	0.370420	0.332020	0.383240
C751	C75	0.072210	0.300210	0.412620
C761	C76	0.521890	0.262290	0.429780
C771	C77	0.065550	0.202350	0.370100
C781	C78	0.492280	0.160280	0.388760
C791	C79	0.878200	0.168600	0.371200
C801	C80	0.893700	0.267700	0.413800
C811	C81	0.514380	0.264380	0.028760
C821	C82	0.735620	0.485620	0.471240
C831	C83	0.485620	0.735620	0.971240
C841	C84	0.264380	0.514380	0.528760
N11	N1	0.749810	0.135870	0.777940
N21	N2	0.764560	0.942040	0.802660
N31	N3	0.772280	0.354700	0.803700
N41	N4	0.580400	0.967060	0.929100
N51	N5	0.598480	0.446840	0.935140
N61	N6	0.028130	0.142070	0.777940
N71	N7	0.038100	0.360620	0.802660
N81	N8	0.031420	0.949000	0.803700
N91	N9	0.348700	0.462040	0.929100
N101	N10	0.336660	0.988300	0.935140
N111	N11	0.864130	0.250190	0.722060
N121	N12	0.057960	0.235440	0.697340
N131	N13	0.645300	0.227720	0.696300
N141	N14	0.032940	0.419600	0.570900
N151	N15	0.553160	0.401520	0.564860
N161	N16	0.857930	0.971870	0.722060
N171	N17	0.639380	0.961900	0.697340
N181	N18	0.051000	0.968580	0.696300
N191	N19	0.537960	0.651300	0.570900
N201	N20	0.011700	0.663340	0.564860
N211	N21	0.250190	0.864130	0.222060
N221	N22	0.235440	0.057960	0.197340
N231	N23	0.227720	0.645300	0.196300
N241	N24	0.419600	0.032940	0.070900
N251	N25	0.401520	0.553160	0.064860
N261	N26	0.971870	0.857930	0.222060
N271	N27	0.961900	0.639380	0.197340
N281	N28	0.968580	0.051000	0.196300
N291	N29	0.651300	0.537960	0.070900
N301	N30	0.663340	0.011700	0.064860
N311	N31	0.135870	0.749810	0.277940
N321	N32	0.942040	0.764560	0.302660
N331	N33	0.354700	0.772280	0.303700
N341	N34	0.967060	0.580400	0.429100
N351	N35	0.446840	0.598480	0.435140
N361	N36	0.142070	0.028130	0.277940
N371	N37	0.360620	0.038100	0.302660
N381	N38	0.949000	0.031420	0.303700
N391	N39	0.462040	0.348700	0.429100
N401	N40	0.988300	0.336660	0.435140
O11	O1	0.523980	0.166480	0.002480
O21	O2	0.478500	0.336000	0.002480
O31	O3	0.833520	0.476020	0.497520
O41	O4	0.664000	0.521500	0.497520
O51	O5	0.476020	0.833520	0.997520
O61	O6	0.521500	0.664000	0.997520
O71	O7	0.166480	0.523980	0.502480
O81	O8	0.336000	0.478500	0.502480
Cl11	Cl1	0.363060	0.113060	0.726120
O91	O9	0.391200	0.234600	0.737400
O101	O10	0.436900	0.070500	0.694200
O111	O11	0.346200	0.002800	0.737400
O121	O12	0.257300	0.123700	0.694200
Cl21	Cl2	0.886940	0.636940	0.773880
O131	O13	0.765400	0.608800	0.762600
O141	O14	0.929500	0.563100	0.805800
O151	O15	0.997200	0.653800	0.762600
O161	O16	0.876300	0.742700	0.805800
Cl31	Cl3	0.636940	0.886940	0.273880
O171	O17	0.608800	0.765400	0.262600
O181	O18	0.563100	0.929500	0.305800
O191	O19	0.653800	0.997200	0.262600
O201	O20	0.742700	0.876300	0.305800
Cl41	Cl4	0.113060	0.363060	0.226120
O211	O21	0.234600	0.391200	0.237400
O221	O22	0.070500	0.436900	0.194200
O231	O23	0.002800	0.346200	0.237400
O241	O24	0.123700	0.257300	0.194200
