data_SEMFIB_charged_PM
_symmetry_space_group_name_H-M	'P1'
_cell_length_a	12.597100
_cell_length_b	12.597100
_cell_length_c	24.475600
_cell_angle_alpha	104.051000
_cell_angle_beta	104.052000
_cell_angle_gamma	93.239800
_symmetry_Int_Tables_number 1

loop_
_symmetry_equiv_pos_as_xyz
'x,y,z'

loop_
_atom_site_label
_atom_site_type_symbol
_atom_site_fract_x
_atom_site_fract_y
_atom_site_fract_z
Cd11	Cd1	0.500000	0.500000	0.500000
Cd21	Cd2	0.500000	0.000000	0.500000
Cd31	Cd3	0.500000	0.500000	0.000000
Cd41	Cd4	0.000000	0.500000	0.000000
P11	P1	0.990350	0.240350	0.250000
P21	P2	0.759650	0.009650	0.250000
P31	P3	0.009650	0.759650	0.750000
P41	P4	0.240350	0.990350	0.750000
P51	P5	0.764990	0.235010	0.250000
P61	P6	0.985010	0.014990	0.250000
P71	P7	0.235010	0.764990	0.750000
P81	P8	0.014990	0.985010	0.750000
H11	H1	0.101600	0.186000	0.196600
H21	H2	0.967700	0.419500	0.194200
H31	H3	0.958300	0.511300	0.123600
H41	H4	0.717600	0.412400	0.075000
H51	H5	0.125800	0.306400	0.043600
H61	H6	0.774000	0.325800	0.147000
H71	H7	0.143100	0.207500	0.111600
H81	H8	0.456700	0.260500	0.142200
H91	H9	0.413100	0.352900	0.073000
H101	H10	0.583400	0.201200	0.204200
H111	H11	0.595000	0.010600	0.196600
H121	H12	0.726500	0.774700	0.194200
H131	H13	0.665300	0.612300	0.123600
H141	H14	0.857400	0.662600	0.075000
H151	H15	0.417800	0.737200	0.043600
H161	H16	0.873000	0.821200	0.147000
H171	H17	0.468500	0.904100	0.111600
H181	H18	0.185500	0.881700	0.142200
H191	H19	0.159900	0.720100	0.073000
H201	H20	0.120800	0.003000	0.204200
H211	H21	0.814000	0.898400	0.303400
H221	H22	0.580500	0.032300	0.305800
H231	H23	0.488700	0.041700	0.376400
H241	H24	0.587600	0.282400	0.425000
H251	H25	0.693600	0.874200	0.456400
H261	H26	0.674200	0.226000	0.353000
H271	H27	0.792500	0.856900	0.388400
H281	H28	0.739500	0.543300	0.357800
H291	H29	0.647100	0.586900	0.427000
H301	H30	0.798800	0.416600	0.295800
H311	H31	0.989400	0.405000	0.303400
H321	H32	0.225300	0.273500	0.305800
H331	H33	0.387700	0.334700	0.376400
H341	H34	0.337400	0.142600	0.425000
H351	H35	0.262800	0.582200	0.456400
H361	H36	0.178800	0.127000	0.353000
H371	H37	0.095900	0.531500	0.388400
H381	H38	0.118300	0.814500	0.357800
H391	H39	0.279900	0.840100	0.427000
H401	H40	0.997000	0.879200	0.295800
H411	H41	0.898400	0.814000	0.803400
H421	H42	0.032300	0.580500	0.805800
H431	H43	0.041700	0.488700	0.876400
H441	H44	0.282400	0.587600	0.925000
H451	H45	0.874200	0.693600	0.956400
H461	H46	0.226000	0.674200	0.853000
H471	H47	0.856900	0.792500	0.888400
H481	H48	0.543300	0.739500	0.857800
H491	H49	0.586900	0.647100	0.927000
H501	H50	0.416600	0.798800	0.795800
H511	H51	0.405000	0.989400	0.803400
H521	H52	0.273500	0.225300	0.805800
H531	H53	0.334700	0.387700	0.876400
H541	H54	0.142600	0.337400	0.925000
H551	H55	0.582200	0.262800	0.956400
H561	H56	0.127000	0.178800	0.853000
H571	H57	0.531500	0.095900	0.888400
H581	H58	0.814500	0.118300	0.857800
H591	H59	0.840100	0.279900	0.927000
H601	H60	0.879200	0.997000	0.795800
H611	H61	0.186000	0.101600	0.696600
H621	H62	0.419500	0.967700	0.694200
H631	H63	0.511300	0.958300	0.623600
H641	H64	0.412400	0.717600	0.575000
H651	H65	0.306400	0.125800	0.543600
H661	H66	0.325800	0.774000	0.647000
H671	H67	0.207500	0.143100	0.611600
H681	H68	0.260500	0.456700	0.642200
H691	H69	0.352900	0.413100	0.573000
H701	H70	0.201200	0.583400	0.704200
H711	H71	0.010600	0.595000	0.696600
H721	H72	0.774700	0.726500	0.694200
H731	H73	0.612300	0.665300	0.623600
H741	H74	0.662600	0.857400	0.575000
H751	H75	0.737200	0.417800	0.543600
H761	H76	0.821200	0.873000	0.647000
H771	H77	0.904100	0.468500	0.611600
H781	H78	0.881700	0.185500	0.642200
H791	H79	0.720100	0.159900	0.573000
H801	H80	0.003000	0.120800	0.704200
H811	H81	0.532700	0.282700	0.565400
H821	H82	0.717300	0.467300	0.934600
H831	H83	0.467300	0.717300	0.434600
H841	H84	0.282700	0.532700	0.065400
C11	C1	0.622570	0.284170	0.155140
C21	C2	0.052000	0.299080	0.159880
C31	C3	0.999190	0.393790	0.163580
C41	C4	0.994600	0.448600	0.121000
C51	C5	0.664520	0.382920	0.089640
C61	C6	0.093180	0.328380	0.074160
C71	C7	0.699310	0.330310	0.132820
C81	C8	0.103370	0.267770	0.114340
C91	C9	0.512350	0.292350	0.130300
C101	C10	0.487140	0.347540	0.088280
C111	C11	0.032570	0.870970	0.155140
C121	C12	0.607880	0.860800	0.159880
C131	C13	0.664390	0.769790	0.163580
C141	C14	0.626400	0.672400	0.121000
C151	C15	0.925120	0.706720	0.089640
C161	C16	0.480980	0.745780	0.074160
C171	C17	0.933510	0.802510	0.132820
C181	C18	0.510970	0.846570	0.114340
C191	C19	0.117950	0.837950	0.130300
C201	C20	0.101140	0.740740	0.088280
C211	C21	0.715830	0.377430	0.344860
C221	C22	0.700920	0.948000	0.340120
C231	C23	0.606210	0.000810	0.336420
C241	C24	0.551400	0.005400	0.379000
C251	C25	0.617080	0.335480	0.410360
C261	C26	0.671620	0.906820	0.425840
C271	C27	0.669690	0.300690	0.367180
C281	C28	0.732230	0.896630	0.385660
C291	C29	0.707650	0.487650	0.369700
C301	C30	0.652460	0.512860	0.411720
C311	C31	0.129030	0.967430	0.344860
C321	C32	0.139200	0.392120	0.340120
C331	C33	0.230210	0.335610	0.336420
C341	C34	0.327600	0.373600	0.379000
C351	C35	0.293280	0.074880	0.410360
C361	C36	0.254220	0.519020	0.425840
C371	C37	0.197490	0.066490	0.367180
C381	C38	0.153430	0.489030	0.385660
C391	C39	0.162050	0.882050	0.369700
C401	C40	0.259260	0.898860	0.411720
C411	C41	0.377430	0.715830	0.844860
C421	C42	0.948000	0.700920	0.840120
C431	C43	0.000810	0.606210	0.836420
C441	C44	0.005400	0.551400	0.879000
C451	C45	0.335480	0.617080	0.910360
C461	C46	0.906820	0.671620	0.925840
C471	C47	0.300690	0.669690	0.867180
C481	C48	0.896630	0.732230	0.885660
C491	C49	0.487650	0.707650	0.869700
C501	C50	0.512860	0.652460	0.911720
C511	C51	0.967430	0.129030	0.844860
C521	C52	0.392120	0.139200	0.840120
C531	C53	0.335610	0.230210	0.836420
C541	C54	0.373600	0.327600	0.879000
C551	C55	0.074880	0.293280	0.910360
C561	C56	0.519020	0.254220	0.925840
C571	C57	0.066490	0.197490	0.867180
C581	C58	0.489030	0.153430	0.885660
C591	C59	0.882050	0.162050	0.869700
C601	C60	0.898860	0.259260	0.911720
C611	C61	0.284170	0.622570	0.655140
C621	C62	0.299080	0.052000	0.659880
C631	C63	0.393790	0.999190	0.663580
C641	C64	0.448600	0.994600	0.621000
C651	C65	0.382920	0.664520	0.589640
C661	C66	0.328380	0.093180	0.574160
C671	C67	0.330310	0.699310	0.632820
C681	C68	0.267770	0.103370	0.614340
C691	C69	0.292350	0.512350	0.630300
C701	C70	0.347540	0.487140	0.588280
C711	C71	0.870970	0.032570	0.655140
C721	C72	0.860800	0.607880	0.659880
C731	C73	0.769790	0.664390	0.663580
C741	C74	0.672400	0.626400	0.621000
C751	C75	0.706720	0.925120	0.589640
C761	C76	0.745780	0.480980	0.574160
C771	C77	0.802510	0.933510	0.632820
C781	C78	0.846570	0.510970	0.614340
C791	C79	0.837950	0.117950	0.630300
C801	C80	0.740740	0.101140	0.588280
C811	C81	0.512420	0.262420	0.524840
C821	C82	0.737580	0.487580	0.975160
C831	C83	0.487580	0.737580	0.475160
C841	C84	0.262420	0.512420	0.024840
N11	N1	0.864880	0.248980	0.222600
N21	N2	0.057270	0.235270	0.199060
N31	N3	0.648720	0.225560	0.197580
N41	N4	0.039040	0.417640	0.076280
N51	N5	0.560320	0.394120	0.067640
N61	N6	0.857720	0.973620	0.222600
N71	N7	0.641790	0.963790	0.199060
N81	N8	0.048860	0.972020	0.197580
N91	N9	0.537240	0.658640	0.076280
N101	N10	0.007320	0.673520	0.067640
N111	N11	0.751020	0.135120	0.277400
N121	N12	0.764730	0.942730	0.300940
N131	N13	0.774440	0.351280	0.302420
N141	N14	0.582360	0.960960	0.423720
N151	N15	0.605880	0.439680	0.432360
N161	N16	0.026380	0.142280	0.277400
N171	N17	0.036210	0.358210	0.300940
N181	N18	0.027980	0.951140	0.302420
N191	N19	0.341360	0.462760	0.423720
N201	N20	0.326480	0.992680	0.432360
N211	N21	0.135120	0.751020	0.777400
N221	N22	0.942730	0.764730	0.800940
N231	N23	0.351280	0.774440	0.802420
N241	N24	0.960960	0.582360	0.923720
N251	N25	0.439680	0.605880	0.932360
N261	N26	0.142280	0.026380	0.777400
N271	N27	0.358210	0.036210	0.800940
N281	N28	0.951140	0.027980	0.802420
N291	N29	0.462760	0.341360	0.923720
N301	N30	0.992680	0.326480	0.932360
N311	N31	0.248980	0.864880	0.722600
N321	N32	0.235270	0.057270	0.699060
N331	N33	0.225560	0.648720	0.697580
N341	N34	0.417640	0.039040	0.576280
N351	N35	0.394120	0.560320	0.567640
N361	N36	0.973620	0.857720	0.722600
N371	N37	0.963790	0.641790	0.699060
N381	N38	0.972020	0.048860	0.697580
N391	N39	0.658640	0.537240	0.576280
N401	N40	0.673520	0.007320	0.567640
O11	O1	0.460880	0.324880	0.501560
O21	O2	0.540680	0.176680	0.501560
O31	O3	0.675120	0.539120	0.998440
O41	O4	0.823320	0.459320	0.998440
O51	O5	0.539120	0.675120	0.498440
O61	O6	0.459320	0.823320	0.498440
O71	O7	0.324880	0.460880	0.001560
O81	O8	0.176680	0.540680	0.001560
Cl11	Cl1	0.885910	0.635910	0.271820
O91	O9	0.992100	0.658300	0.259600
O101	O10	0.938400	0.565800	0.303400
O111	O11	0.767500	0.601300	0.259600
O121	O12	0.865000	0.737600	0.303400
Cl21	Cl2	0.364090	0.114090	0.228180
O131	O13	0.341700	0.007900	0.240400
O141	O14	0.434200	0.061600	0.196600
O151	O15	0.398700	0.232500	0.240400
O161	O16	0.262400	0.135000	0.196600
Cl31	Cl3	0.114090	0.364090	0.728180
O171	O17	0.007900	0.341700	0.740400
O181	O18	0.061600	0.434200	0.696600
O191	O19	0.232500	0.398700	0.740400
O201	O20	0.135000	0.262400	0.696600
Cl41	Cl4	0.635910	0.885910	0.771820
O211	O21	0.658300	0.992100	0.759600
O221	O22	0.565800	0.938400	0.803400
O231	O23	0.601300	0.767500	0.759600
O241	O24	0.737600	0.865000	0.803400
