data_SEQSIS_clean_PM
_symmetry_space_group_name_H-M	'P1'
_cell_length_a	10.764700
_cell_length_b	10.764700
_cell_length_c	26.757800
_cell_angle_alpha	90.000000
_cell_angle_beta	90.000000
_cell_angle_gamma	120.000000
_symmetry_Int_Tables_number 1

loop_
_symmetry_equiv_pos_as_xyz
'x,y,z'

loop_
_atom_site_label
_atom_site_type_symbol
_atom_site_fract_x
_atom_site_fract_y
_atom_site_fract_z
Ni11	Ni1	0.218770	0.051080	0.866680
Ni21	Ni2	0.832310	0.781230	0.200010
Ni31	Ni3	0.948920	0.167690	0.533350
Ni41	Ni4	0.167690	0.948920	0.133320
Ni51	Ni5	0.051080	0.218770	0.799990
Ni61	Ni6	0.781230	0.832310	0.466650
H11	H1	0.015000	0.467200	0.828900
H21	H2	0.304400	0.817000	0.757000
H31	H3	0.205800	0.425200	0.711600
H41	H4	0.521400	0.872900	0.723600
H51	H5	0.686800	0.977200	0.660900
H61	H6	0.446000	0.645200	0.571000
H71	H7	0.278400	0.539000	0.634000
H81	H8	0.452200	0.985000	0.162230
H91	H9	0.512600	0.695600	0.090330
H101	H10	0.219400	0.794200	0.044930
H111	H11	0.351500	0.478600	0.056930
H121	H12	0.290400	0.313200	0.994230
H131	H13	0.199200	0.554000	0.904330
H141	H14	0.260600	0.721600	0.967330
H151	H15	0.532800	0.547800	0.495570
H161	H16	0.183000	0.487400	0.423670
H171	H17	0.574800	0.780600	0.378270
H181	H18	0.127100	0.648500	0.390270
H191	H19	0.022800	0.709600	0.327570
H201	H20	0.354800	0.800800	0.237670
H211	H21	0.461000	0.739400	0.300670
H221	H22	0.547800	0.532800	0.171100
H231	H23	0.487400	0.183000	0.243000
H241	H24	0.780600	0.574800	0.288400
H251	H25	0.648500	0.127100	0.276400
H261	H26	0.709600	0.022800	0.339100
H271	H27	0.800800	0.354800	0.429000
H281	H28	0.739400	0.461000	0.366000
H291	H29	0.467200	0.015000	0.837770
H301	H30	0.817000	0.304400	0.909670
H311	H31	0.425200	0.205800	0.955070
H321	H32	0.872900	0.521400	0.943070
H331	H33	0.977200	0.686800	0.005770
H341	H34	0.645200	0.446000	0.095670
H351	H35	0.539000	0.278400	0.032670
H361	H36	0.985000	0.452200	0.504430
H371	H37	0.695600	0.512600	0.576330
H381	H38	0.794200	0.219400	0.621730
H391	H39	0.478600	0.351500	0.609730
H401	H40	0.313200	0.290400	0.672430
H411	H41	0.554000	0.199200	0.762330
H421	H42	0.721600	0.260600	0.699330
C11	C1	0.081200	0.508800	0.803090
C21	C2	0.153100	0.655700	0.798600
C31	C3	0.252100	0.717700	0.760230
C41	C4	0.273200	0.631900	0.726670
C51	C5	0.194000	0.484200	0.734190
C61	C6	0.379900	0.695000	0.685320
C71	C7	0.505000	0.827100	0.692810
C81	C8	0.604000	0.889800	0.655080
C91	C9	0.583000	0.825600	0.608630
C101	C10	0.460500	0.691900	0.601520
C111	C11	0.359800	0.627700	0.639450
C121	C12	0.130800	0.749000	0.836030
C131	C13	0.689000	0.898070	0.566980
C141	C14	0.427600	0.918800	0.136420
C151	C15	0.502600	0.846900	0.131930
C161	C16	0.465600	0.747900	0.093560
C171	C17	0.358700	0.726800	0.060000
C181	C18	0.290200	0.806000	0.067520
C191	C19	0.315100	0.620100	0.018650
C201	C20	0.322100	0.495000	0.026140
C211	C21	0.285800	0.396000	0.988410
C221	C22	0.242600	0.417000	0.941960
C231	C23	0.231400	0.539500	0.934850
C241	C24	0.267900	0.640200	0.972780
C251	C25	0.618200	0.869200	0.169360
C261	C26	0.209070	0.311000	0.900310
C271	C27	0.491200	0.572400	0.469760
C281	C28	0.344300	0.497400	0.465270
C291	C29	0.282300	0.534400	0.426900
C301	C30	0.368100	0.641300	0.393340
C311	C31	0.515800	0.709800	0.400860
C321	C32	0.305000	0.684900	0.351990
C331	C33	0.172900	0.677900	0.359480
C341	C34	0.110200	0.714200	0.321750
C351	C35	0.174400	0.757400	0.275300
C361	C36	0.308100	0.768600	0.268190
C371	C37	0.372300	0.732100	0.306120
C381	C38	0.251000	0.381800	0.502700
C391	C39	0.101930	0.790930	0.233650
C401	C40	0.572400	0.491200	0.196910
C411	C41	0.497400	0.344300	0.201400
C421	C42	0.534400	0.282300	0.239770
C431	C43	0.641300	0.368100	0.273330
C441	C44	0.709800	0.515800	0.265810
C451	C45	0.684900	0.305000	0.314680
C461	C46	0.677900	0.172900	0.307190
C471	C47	0.714200	0.110200	0.344920
C481	C48	0.757400	0.174400	0.391370
C491	C49	0.768600	0.308100	0.398480
C501	C50	0.732100	0.372300	0.360550
C511	C51	0.381800	0.251000	0.163970
C521	C52	0.790930	0.101930	0.433020
C531	C53	0.508800	0.081200	0.863580
C541	C54	0.655700	0.153100	0.868070
C551	C55	0.717700	0.252100	0.906440
C561	C56	0.631900	0.273200	0.940000
C571	C57	0.484200	0.194000	0.932480
C581	C58	0.695000	0.379900	0.981350
C591	C59	0.827100	0.505000	0.973860
C601	C60	0.889800	0.604000	0.011590
C611	C61	0.825600	0.583000	0.058040
C621	C62	0.691900	0.460500	0.065150
C631	C63	0.627700	0.359800	0.027220
C641	C64	0.749000	0.130800	0.830640
C651	C65	0.898070	0.689000	0.099690
C661	C66	0.918800	0.427600	0.530240
C671	C67	0.846900	0.502600	0.534730
C681	C68	0.747900	0.465600	0.573100
C691	C69	0.726800	0.358700	0.606660
C701	C70	0.806000	0.290200	0.599140
C711	C71	0.620100	0.315100	0.648010
C721	C72	0.495000	0.322100	0.640520
C731	C73	0.396000	0.285800	0.678250
C741	C74	0.417000	0.242600	0.724700
C751	C75	0.539500	0.231400	0.731810
C761	C76	0.640200	0.267900	0.693880
C771	C77	0.869200	0.618200	0.497300
C781	C78	0.311000	0.209070	0.766350
N11	N1	0.101580	0.422100	0.772190
N21	N2	0.320520	0.898420	0.105520
N31	N3	0.577900	0.679480	0.438860
N41	N4	0.679480	0.577900	0.227810
N51	N5	0.422100	0.101580	0.894480
N61	N6	0.898420	0.320520	0.561140
O11	O1	0.052700	0.687160	0.872530
O21	O2	0.196860	0.880120	0.826630
O31	O3	0.795760	0.016740	0.577110
O41	O4	0.661590	0.834240	0.525460
O51	O5	0.634460	0.947300	0.205860
O61	O6	0.683260	0.803140	0.159960
O71	O7	0.220980	0.204240	0.910440
O81	O8	0.172650	0.338410	0.858790
O91	O9	0.312840	0.365540	0.539200
O101	O10	0.119880	0.316740	0.493300
O111	O11	0.983260	0.779020	0.243780
O121	O12	0.165760	0.827350	0.192130
O131	O13	0.365540	0.312840	0.127470
O141	O14	0.316740	0.119880	0.173370
O151	O15	0.779020	0.983260	0.422890
O161	O16	0.827350	0.165760	0.474540
O171	O17	0.687160	0.052700	0.794140
O181	O18	0.880120	0.196860	0.840040
O191	O19	0.016740	0.795760	0.089560
O201	O20	0.834240	0.661590	0.141210
O211	O21	0.947300	0.634460	0.460800
O221	O22	0.803140	0.683260	0.506700
O231	O23	0.204240	0.220980	0.756220
O241	O24	0.338410	0.172650	0.807870
O251	O25	0.023710	0.023710	0.833330
O261	O26	0.000000	0.976290	0.166670
O271	O27	0.976290	0.000000	0.500000
