data_SEQTEP_clean_PM
_symmetry_space_group_name_H-M	'P1'
_cell_length_a	16.467400
_cell_length_b	18.170500
_cell_length_c	20.445600
_cell_angle_alpha	64.167000
_cell_angle_beta	70.668000
_cell_angle_gamma	70.119000
_symmetry_Int_Tables_number 1

loop_
_symmetry_equiv_pos_as_xyz
'x,y,z'

loop_
_atom_site_label
_atom_site_type_symbol
_atom_site_fract_x
_atom_site_fract_y
_atom_site_fract_z
Mn11	Mn1	0.640440	0.738870	0.579560
Mn21	Mn2	0.878690	0.668670	0.586380
Mn31	Mn3	0.090310	0.720520	0.621490
Mn41	Mn4	0.326140	0.698100	0.549530
H11	H1	0.849400	0.404000	0.707300
H21	H2	0.822200	0.278000	0.792200
H31	H3	0.602800	0.518800	0.776600
H41	H4	0.575400	0.392900	0.867600
H51	H5	0.841300	0.804200	0.722700
H61	H6	0.618500	0.190600	0.061600
H71	H7	0.583700	0.117900	0.131900
H81	H8	0.685600	0.109400	0.099400
H91	H9	0.418200	0.813300	0.401000
H101	H10	0.586900	0.255900	0.973900
H111	H11	0.553600	0.263800	0.906600
H121	H12	0.437200	0.903500	0.279200
H131	H13	0.658700	0.846400	0.093400
H141	H14	0.590900	0.858000	0.049000
H151	H15	0.691500	0.850800	0.010800
H161	H16	0.819800	0.870200	0.802500
H171	H17	0.581200	0.860700	0.739900
H181	H18	0.677900	0.749300	0.386500
H191	H19	0.699000	0.838300	0.262900
H201	H20	0.574700	0.127800	0.821500
H211	H21	0.524200	0.201900	0.850400
H221	H22	0.626100	0.189300	0.816300
H231	H23	0.557100	0.922000	0.823500
H241	H24	0.561200	0.018600	0.866700
H251	H25	0.562400	0.933300	0.935500
H261	H26	0.684500	0.974700	0.154200
H271	H27	0.697200	0.894500	0.136900
H281	H28	0.322800	0.302400	0.816300
H291	H29	0.100700	0.223500	0.024800
H301	H30	0.068100	0.152100	0.097900
H311	H31	0.169600	0.147300	0.065800
H321	H32	0.191800	0.017000	0.115300
H331	H33	0.213900	0.932700	0.102400
H341	H34	0.068600	0.278800	0.933700
H351	H35	0.058000	0.276000	0.861000
H361	H36	0.150000	0.870200	0.082500
H371	H37	0.085100	0.874200	0.039000
H381	H38	0.186600	0.863800	0.003400
H391	H39	0.087300	0.119600	0.795500
H401	H40	0.031300	0.200500	0.812900
H411	H41	0.134200	0.187300	0.784900
H421	H42	0.050200	0.017400	0.858000
H431	H43	0.079400	0.930600	0.920200
H441	H44	0.057200	0.921800	0.813500
H451	H45	0.313400	0.922300	0.749000
H461	H46	0.011300	0.869300	0.291500
H471	H47	0.242700	0.936300	0.210200
H481	H48	0.077800	0.852800	0.737100
H491	H49	0.333400	0.855500	0.670900
H501	H50	0.043900	0.797900	0.405500
H511	H51	0.275400	0.865100	0.325900
H521	H52	0.082400	0.394000	0.791500
H531	H53	0.118500	0.516200	0.706600
H541	H54	0.359700	0.426200	0.734900
H551	H55	0.907600	0.575700	0.819700
H561	H56	0.847900	0.609800	0.762100
H571	H57	0.921300	0.526400	0.768800
H581	H58	0.835300	0.893800	0.375200
H591	H59	0.791500	0.836100	0.365400
H601	H60	0.735900	0.891900	0.413100
C11	C1	0.532300	0.720700	0.488600
C21	C2	0.794000	0.401600	0.739100
C31	C3	0.778200	0.326900	0.789700
C41	C4	0.647500	0.470100	0.780900
C51	C5	0.695100	0.323000	0.838700
C61	C6	0.630200	0.394700	0.834700
C71	C7	0.784200	0.829000	0.742000
C81	C8	0.628500	0.130800	0.087100
C91	C9	0.474900	0.818700	0.373400
C101	C10	0.599600	0.234200	0.934900
C111	C11	0.486100	0.872200	0.300400
C121	C12	0.744000	0.559800	0.674700
C131	C13	0.644000	0.871700	0.045400
C141	C14	0.771400	0.867900	0.790100
C151	C15	0.629500	0.862100	0.753100
C161	C16	0.629300	0.780300	0.364800
C171	C17	0.642100	0.833700	0.290500
C181	C18	0.728500	0.475100	0.733800
C191	C19	0.578900	0.161100	0.845600
C201	C20	0.713400	0.826000	0.721700
C211	C21	0.570700	0.879800	0.257900
C221	C22	0.614400	0.899700	0.802300
C231	C23	0.726700	0.785800	0.666400
C241	C24	0.686900	0.903700	0.820200
C251	C25	0.594600	0.976900	0.903700
C261	C26	0.624700	0.090800	0.037700
C271	C27	0.629700	0.966300	0.018400
C281	C28	0.545900	0.772900	0.406500
C291	C29	0.605800	0.140500	0.967500
C301	C30	0.638300	0.002900	0.062300
C311	C31	0.657500	0.947700	0.137800
C321	C32	0.606900	0.016800	0.948900
C331	C33	0.597500	0.104100	0.922600
C341	C34	0.279200	0.347100	0.795300
C351	C35	0.198000	0.337000	0.814300
C361	C36	0.113100	0.164200	0.053200
C371	C37	0.166900	0.980800	0.107700
C381	C38	0.114700	0.116200	0.007100
C391	C39	0.094100	0.251200	0.897700
C401	C40	0.132300	0.028000	0.037300
C411	C41	0.137800	0.889400	0.034100
C421	C42	0.100000	0.158900	0.935400
C431	C43	0.086600	0.159600	0.814600
C441	C44	0.124800	0.983900	0.998700
C451	C45	0.097700	0.114400	0.895000
C461	C46	0.105800	0.027200	0.927800
C471	C47	0.096100	0.983000	0.886000
C481	C48	0.184000	0.927500	0.790400
C491	C49	0.124100	0.910300	0.238300
C501	C50	0.113300	0.907400	0.785600
C511	C51	0.265600	0.907800	0.746800
C521	C52	0.064800	0.868300	0.298400
C531	C53	0.202500	0.908500	0.249700
C541	C54	0.126000	0.866200	0.739700
C551	C55	0.277800	0.867400	0.700500
C561	C56	0.084200	0.826100	0.366400
C571	C57	0.222000	0.865900	0.319100
C581	C58	0.208000	0.843700	0.697000
C591	C59	0.162500	0.823600	0.379600
C601	C60	0.242600	0.485500	0.713200
C611	C61	0.182500	0.783100	0.455400
C621	C62	0.265500	0.567200	0.657300
C631	C63	0.140000	0.399600	0.780700
C641	C64	0.161600	0.473300	0.730100
C651	C65	0.219700	0.796600	0.650200
C661	C66	0.301900	0.421300	0.745700
C671	C67	0.972000	0.631100	0.713000
C681	C68	0.906200	0.581200	0.771200
C691	C69	0.820500	0.789200	0.466600
C701	C70	0.793400	0.858900	0.399100
O11	O1	0.597900	0.690800	0.518500
O21	O2	0.456800	0.711100	0.523300
O31	O3	0.824400	0.562600	0.646000
O41	O4	0.664900	0.799300	0.639300
O51	O5	0.802800	0.741900	0.652600
O61	O6	0.678800	0.616100	0.659100
O71	O7	0.573800	0.935000	0.186400
O81	O8	0.680900	0.941300	0.867900
O91	O9	0.685700	0.243700	0.887000
O101	O10	0.098800	0.952700	0.171300
O111	O11	0.152100	0.777300	0.653400
O121	O12	0.183900	0.259400	0.862600
O131	O13	0.210400	0.621200	0.620600
O141	O14	0.120700	0.752200	0.507000
O151	O15	0.292600	0.780200	0.609500
O161	O16	0.339200	0.577700	0.648200
O171	O17	0.179500	0.966400	0.836000
O181	O18	0.254000	0.781100	0.464700
O191	O19	0.981200	0.644500	0.644900
O201	O20	0.016100	0.658300	0.731900
O211	O21	0.773200	0.736700	0.507500
O221	O22	0.891300	0.780900	0.482500
Mn51	Mn5	0.359560	0.261130	0.420440
Mn61	Mn6	0.121310	0.331330	0.413620
Mn71	Mn7	0.909690	0.279480	0.378510
Mn81	Mn8	0.673860	0.301900	0.450470
H611	H61	0.150600	0.596000	0.292700
H621	H62	0.177800	0.722000	0.207800
H631	H63	0.397200	0.481200	0.223400
H641	H64	0.424600	0.607100	0.132400
H651	H65	0.158700	0.195800	0.277300
H661	H66	0.381500	0.809400	0.938400
H671	H67	0.416300	0.882100	0.868100
H681	H68	0.314400	0.890600	0.900600
H691	H69	0.581800	0.186700	0.599000
H701	H70	0.413100	0.744100	0.026100
H711	H71	0.446400	0.736200	0.093400
H721	H72	0.562800	0.096500	0.720800
H731	H73	0.341300	0.153600	0.906600
H741	H74	0.409100	0.142000	0.951000
H751	H75	0.308500	0.149200	0.989200
H761	H76	0.180200	0.129800	0.197500
H771	H77	0.418800	0.139300	0.260100
H781	H78	0.322100	0.250700	0.613500
H791	H79	0.301000	0.161700	0.737100
H801	H80	0.425300	0.872200	0.178500
H811	H81	0.475800	0.798100	0.149600
H821	H82	0.373900	0.810700	0.183700
H831	H83	0.442900	0.078000	0.176500
H841	H84	0.438800	0.981400	0.133300
H851	H85	0.437600	0.066700	0.064500
H861	H86	0.315500	0.025300	0.845800
H871	H87	0.302800	0.105500	0.863100
H881	H88	0.677200	0.697600	0.183700
H891	H89	0.899300	0.776500	0.975200
H901	H90	0.931900	0.847900	0.902100
H911	H91	0.830400	0.852700	0.934200
H921	H92	0.808200	0.983000	0.884700
H931	H93	0.786100	0.067300	0.897600
H941	H94	0.931400	0.721200	0.066300
H951	H95	0.942000	0.724000	0.139000
H961	H96	0.850000	0.129800	0.917500
H971	H97	0.914900	0.125800	0.961000
H981	H98	0.813400	0.136200	0.996600
H991	H99	0.912700	0.880400	0.204500
H1001	H100	0.968700	0.799500	0.187100
H1011	H101	0.865800	0.812700	0.215100
H1021	H102	0.949800	0.982600	0.142000
H1031	H103	0.920600	0.069400	0.079800
H1041	H104	0.942800	0.078200	0.186500
H1051	H105	0.686600	0.077700	0.251000
H1061	H106	0.988700	0.130700	0.708500
H1071	H107	0.757300	0.063700	0.789800
H1081	H108	0.922200	0.147200	0.262900
H1091	H109	0.666600	0.144500	0.329100
H1101	H110	0.956100	0.202100	0.594500
H1111	H111	0.724600	0.134900	0.674100
H1121	H112	0.917600	0.606000	0.208500
H1131	H113	0.881500	0.483800	0.293400
H1141	H114	0.640300	0.573800	0.265100
H1151	H115	0.092400	0.424300	0.180300
H1161	H116	0.152100	0.390200	0.237900
H1171	H117	0.078700	0.473600	0.231200
H1181	H118	0.164700	0.106200	0.624800
H1191	H119	0.208500	0.163900	0.634600
H1201	H120	0.264100	0.108100	0.586900
C711	C71	0.467700	0.279300	0.511400
C721	C72	0.206000	0.598400	0.260900
C731	C73	0.221800	0.673100	0.210300
C741	C74	0.352500	0.529900	0.219100
C751	C75	0.304900	0.677000	0.161300
C761	C76	0.369800	0.605300	0.165300
C771	C77	0.215800	0.171000	0.258000
C781	C78	0.371500	0.869200	0.912900
C791	C79	0.525100	0.181300	0.626600
C801	C80	0.400400	0.765800	0.065100
C811	C81	0.513900	0.127800	0.699600
C821	C82	0.256000	0.440200	0.325300
C831	C83	0.356000	0.128300	0.954600
C841	C84	0.228600	0.132100	0.209900
C851	C85	0.370500	0.137900	0.246900
C861	C86	0.370700	0.219700	0.635200
C871	C87	0.357900	0.166300	0.709500
C881	C88	0.271500	0.524900	0.266200
C891	C89	0.421100	0.838900	0.154400
C901	C90	0.286600	0.174000	0.278300
C911	C91	0.429300	0.120200	0.742100
C921	C92	0.385600	0.100300	0.197700
C931	C93	0.273300	0.214200	0.333600
C941	C94	0.313100	0.096300	0.179800
C951	C95	0.405400	0.023100	0.096300
C961	C96	0.375300	0.909200	0.962300
C971	C97	0.370300	0.033700	0.981600
C981	C98	0.454100	0.227100	0.593500
C991	C99	0.394200	0.859500	0.032500
C1001	C100	0.361700	0.997100	0.937700
C1011	C101	0.342500	0.052300	0.862200
C1021	C102	0.393100	0.983200	0.051100
C1031	C103	0.402500	0.895900	0.077400
C1041	C104	0.720800	0.652900	0.204700
C1051	C105	0.802000	0.663000	0.185700
C1061	C106	0.886900	0.835800	0.946800
C1071	C107	0.833100	0.019200	0.892300
C1081	C108	0.885300	0.883800	0.992900
C1091	C109	0.905900	0.748800	0.102300
C1101	C110	0.867700	0.972000	0.962700
C1111	C111	0.862200	0.110600	0.965900
C1121	C112	0.900000	0.841100	0.064600
C1131	C113	0.913400	0.840400	0.185400
C1141	C114	0.875200	0.016100	0.001300
C1151	C115	0.902300	0.885600	0.105000
C1161	C116	0.894200	0.972800	0.072200
C1171	C117	0.903900	0.017000	0.114000
C1181	C118	0.816000	0.072500	0.209600
C1191	C119	0.875900	0.089700	0.761700
C1201	C120	0.886700	0.092600	0.214400
C1211	C121	0.734400	0.092200	0.253200
C1221	C122	0.935200	0.131700	0.701600
C1231	C123	0.797500	0.091500	0.750300
C1241	C124	0.874000	0.133800	0.260300
C1251	C125	0.722200	0.132600	0.299500
C1261	C126	0.915800	0.173900	0.633600
C1271	C127	0.778000	0.134100	0.680900
C1281	C128	0.792000	0.156300	0.303000
C1291	C129	0.837500	0.176400	0.620400
C1301	C130	0.757400	0.514500	0.286800
C1311	C131	0.817500	0.216900	0.544600
C1321	C132	0.734500	0.432800	0.342700
C1331	C133	0.860000	0.600400	0.219300
C1341	C134	0.838400	0.526700	0.269900
C1351	C135	0.780300	0.203400	0.349800
C1361	C136	0.698100	0.578700	0.254300
C1371	C137	0.028000	0.368900	0.287000
C1381	C138	0.093800	0.418800	0.228800
C1391	C139	0.179500	0.210800	0.533400
C1401	C140	0.206600	0.141100	0.600900
O231	O23	0.402100	0.309200	0.481500
O241	O24	0.543200	0.288900	0.476700
O251	O25	0.175600	0.437400	0.354000
O261	O26	0.335100	0.200700	0.360700
O271	O27	0.197200	0.258100	0.347400
O281	O28	0.321200	0.383900	0.340900
O291	O29	0.426200	0.065000	0.813600
O301	O30	0.319100	0.058700	0.132100
O311	O31	0.314300	0.756300	0.113000
O321	O32	0.901200	0.047300	0.828700
O331	O33	0.847900	0.222700	0.346600
O341	O34	0.816100	0.740600	0.137400
O351	O35	0.789600	0.378800	0.379400
O361	O36	0.879300	0.247800	0.493000
O371	O37	0.707400	0.219800	0.390500
O381	O38	0.660800	0.422300	0.351800
O391	O39	0.820500	0.033600	0.164000
O401	O40	0.746000	0.218900	0.535300
O411	O41	0.018800	0.355500	0.355100
O421	O42	0.983900	0.341700	0.268100
O431	O43	0.226800	0.263300	0.492500
O441	O44	0.108700	0.219100	0.517500
