data_SERJOP_clean_PM
_symmetry_space_group_name_H-M	'P1'
_cell_length_a	8.438000
_cell_length_b	15.934000
_cell_length_c	27.795000
_cell_angle_alpha	90.000000
_cell_angle_beta	90.000000
_cell_angle_gamma	90.000000
_symmetry_Int_Tables_number 1

loop_
_symmetry_equiv_pos_as_xyz
'x,y,z'

loop_
_atom_site_label
_atom_site_type_symbol
_atom_site_fract_x
_atom_site_fract_y
_atom_site_fract_z
Er11	Er1	0.523120	0.698890	0.918680
Er21	Er2	0.976880	0.198890	0.081320
Er31	Er3	0.476880	0.301110	0.418680
Er41	Er4	0.023120	0.801110	0.581320
Er51	Er5	0.476880	0.301110	0.081320
Er61	Er6	0.023120	0.801110	0.918680
Er71	Er7	0.523120	0.698890	0.581320
Er81	Er8	0.976880	0.198890	0.418680
H11	H1	0.595200	0.817000	0.044000
H21	H2	0.226700	0.974800	0.023000
H31	H3	0.600300	0.038300	0.105800
H41	H4	0.184000	0.906300	0.820800
H51	H5	0.904800	0.317000	0.956000
H61	H6	0.273300	0.474800	0.977000
H71	H7	0.899700	0.538300	0.894200
H81	H8	0.316000	0.406300	0.179200
H91	H9	0.404800	0.183000	0.544000
H101	H10	0.773300	0.025200	0.523000
H111	H11	0.399700	0.961700	0.605800
H121	H12	0.816000	0.093700	0.320800
H131	H13	0.095200	0.683000	0.456000
H141	H14	0.726700	0.525200	0.477000
H151	H15	0.100300	0.461700	0.394200
H161	H16	0.684000	0.593700	0.679200
H171	H17	0.404800	0.183000	0.956000
H181	H18	0.773300	0.025200	0.977000
H191	H19	0.399700	0.961700	0.894200
H201	H20	0.816000	0.093700	0.179200
H211	H21	0.095200	0.683000	0.044000
H221	H22	0.726700	0.525200	0.023000
H231	H23	0.100300	0.461700	0.105800
H241	H24	0.684000	0.593700	0.820800
H251	H25	0.595200	0.817000	0.456000
H261	H26	0.226700	0.974800	0.477000
H271	H27	0.600300	0.038300	0.394200
H281	H28	0.184000	0.906300	0.679200
H291	H29	0.904800	0.317000	0.544000
H301	H30	0.273300	0.474800	0.523000
H311	H31	0.899700	0.538300	0.605800
H321	H32	0.316000	0.406300	0.320800
H331	H33	0.389200	0.715700	0.750000
H341	H34	0.110800	0.215700	0.250000
H351	H35	0.610800	0.284300	0.250000
H361	H36	0.889200	0.784300	0.750000
C11	C1	0.545700	0.869600	0.049700
C21	C2	0.400000	0.886200	0.027600
C31	C3	0.327200	0.962400	0.036600
C41	C4	0.403000	0.020600	0.066000
C51	C5	0.548000	0.998500	0.085900
C61	C6	0.327900	0.824200	0.994800
C71	C7	0.333100	0.105900	0.074100
C81	C8	0.211600	0.880200	0.791200
C91	C9	0.289600	0.803200	0.792800
C101	C10	0.331000	0.765800	0.839800
C111	C11	0.954300	0.369600	0.950300
C121	C12	0.100000	0.386200	0.972400
C131	C13	0.172800	0.462400	0.963400
C141	C14	0.097000	0.520600	0.934000
C151	C15	0.952000	0.498500	0.914100
C161	C16	0.172100	0.324200	0.005200
C171	C17	0.166900	0.605900	0.925900
C181	C18	0.288400	0.380200	0.208800
C191	C19	0.210400	0.303200	0.207200
C201	C20	0.169000	0.265800	0.160200
C211	C21	0.454300	0.130400	0.549700
C221	C22	0.600000	0.113800	0.527600
C231	C23	0.672800	0.037600	0.536600
C241	C24	0.597000	0.979400	0.566000
C251	C25	0.452000	0.001500	0.585900
C261	C26	0.672100	0.175800	0.494800
C271	C27	0.666900	0.894100	0.574100
C281	C28	0.788400	0.119800	0.291200
C291	C29	0.710400	0.196800	0.292800
C301	C30	0.669000	0.234200	0.339800
C311	C31	0.045700	0.630400	0.450300
C321	C32	0.900000	0.613800	0.472400
C331	C33	0.827200	0.537600	0.463400
C341	C34	0.903000	0.479400	0.434000
C351	C35	0.048000	0.501500	0.414100
C361	C36	0.827900	0.675800	0.505200
C371	C37	0.833100	0.394100	0.425900
C381	C38	0.711600	0.619800	0.708800
C391	C39	0.789600	0.696800	0.707200
C401	C40	0.831000	0.734200	0.660200
C411	C41	0.454300	0.130400	0.950300
C421	C42	0.600000	0.113800	0.972400
C431	C43	0.672800	0.037600	0.963400
C441	C44	0.597000	0.979400	0.934000
C451	C45	0.452000	0.001500	0.914100
C461	C46	0.672100	0.175800	0.005200
C471	C47	0.666900	0.894100	0.925900
C481	C48	0.788400	0.119800	0.208800
C491	C49	0.710400	0.196800	0.207200
C501	C50	0.669000	0.234200	0.160200
C511	C51	0.045700	0.630400	0.049700
C521	C52	0.900000	0.613800	0.027600
C531	C53	0.827200	0.537600	0.036600
C541	C54	0.903000	0.479400	0.066000
C551	C55	0.048000	0.501500	0.085900
C561	C56	0.827900	0.675800	0.994800
C571	C57	0.833100	0.394100	0.074100
C581	C58	0.711600	0.619800	0.791200
C591	C59	0.789600	0.696800	0.792800
C601	C60	0.831000	0.734200	0.839800
C611	C61	0.545700	0.869600	0.450300
C621	C62	0.400000	0.886200	0.472400
C631	C63	0.327200	0.962400	0.463400
C641	C64	0.403000	0.020600	0.434000
C651	C65	0.548000	0.998500	0.414100
C661	C66	0.327900	0.824200	0.505200
C671	C67	0.333100	0.105900	0.425900
C681	C68	0.211600	0.880200	0.708800
C691	C69	0.289600	0.803200	0.707200
C701	C70	0.331000	0.765800	0.660200
C711	C71	0.954300	0.369600	0.549700
C721	C72	0.100000	0.386200	0.527600
C731	C73	0.172800	0.462400	0.536600
C741	C74	0.097000	0.520600	0.566000
C751	C75	0.952000	0.498500	0.585900
C761	C76	0.172100	0.324200	0.494800
C771	C77	0.166900	0.605900	0.574100
C781	C78	0.288400	0.380200	0.291200
C791	C79	0.210400	0.303200	0.292800
C801	C80	0.169000	0.265800	0.339800
C811	C81	0.331100	0.766800	0.750000
C821	C82	0.168900	0.266800	0.250000
C831	C83	0.668900	0.233200	0.250000
C841	C84	0.831100	0.733200	0.750000
N11	N1	0.618000	0.924700	0.078500
N21	N2	0.882000	0.424700	0.921500
N31	N3	0.382000	0.075300	0.578500
N41	N4	0.118000	0.575300	0.421500
N51	N5	0.382000	0.075300	0.921500
N61	N6	0.118000	0.575300	0.078500
N71	N7	0.618000	0.924700	0.421500
N81	N8	0.882000	0.424700	0.578500
N91	N9	0.173000	0.919800	0.750000
N101	N10	0.327000	0.419800	0.250000
N111	N11	0.827000	0.080200	0.250000
N121	N12	0.673000	0.580200	0.750000
O11	O1	0.408000	0.759600	0.984600
O21	O2	0.192400	0.838800	0.978200
O31	O3	0.423800	0.162000	0.090000
O41	O4	0.189900	0.115300	0.063800
O51	O5	0.435100	0.708500	0.840900
O61	O6	0.267500	0.792100	0.878450
O71	O7	0.092000	0.259600	0.015400
O81	O8	0.307600	0.338800	0.021800
O91	O9	0.076200	0.662000	0.910000
O101	O10	0.310100	0.615300	0.936200
O111	O11	0.064900	0.208500	0.159100
O121	O12	0.232500	0.292100	0.121550
O131	O13	0.592000	0.240400	0.484600
O141	O14	0.807600	0.161200	0.478200
O151	O15	0.576200	0.838000	0.590000
O161	O16	0.810100	0.884700	0.563800
O171	O17	0.564900	0.291500	0.340900
O181	O18	0.732500	0.207900	0.378450
O191	O19	0.908000	0.740400	0.515400
O201	O20	0.692400	0.661200	0.521800
O211	O21	0.923800	0.338000	0.410000
O221	O22	0.689900	0.384700	0.436200
O231	O23	0.935100	0.791500	0.659100
O241	O24	0.767500	0.707900	0.621550
O251	O25	0.592000	0.240400	0.015400
O261	O26	0.807600	0.161200	0.021800
O271	O27	0.576200	0.838000	0.910000
O281	O28	0.810100	0.884700	0.936200
O291	O29	0.564900	0.291500	0.159100
O301	O30	0.732500	0.207900	0.121550
O311	O31	0.908000	0.740400	0.984600
O321	O32	0.692400	0.661200	0.978200
O331	O33	0.923800	0.338000	0.090000
O341	O34	0.689900	0.384700	0.063800
O351	O35	0.935100	0.791500	0.840900
O361	O36	0.767500	0.707900	0.878450
O371	O37	0.408000	0.759600	0.515400
O381	O38	0.192400	0.838800	0.521800
O391	O39	0.423800	0.162000	0.410000
O401	O40	0.189900	0.115300	0.436200
O411	O41	0.435100	0.708500	0.659100
O421	O42	0.267500	0.792100	0.621550
O431	O43	0.092000	0.259600	0.484600
O441	O44	0.307600	0.338800	0.478200
O451	O45	0.076200	0.662000	0.590000
O461	O46	0.310100	0.615300	0.563800
O471	O47	0.064900	0.208500	0.340900
O481	O48	0.232500	0.292100	0.378450
