data_SETFUT_clean_PM
_symmetry_space_group_name_H-M	'P1'
_cell_length_a	6.871100
_cell_length_b	14.010000
_cell_length_c	14.915000
_cell_angle_alpha	90.000000
_cell_angle_beta	90.000000
_cell_angle_gamma	90.000000
_symmetry_Int_Tables_number 1

loop_
_symmetry_equiv_pos_as_xyz
'x,y,z'

loop_
_atom_site_label
_atom_site_type_symbol
_atom_site_fract_x
_atom_site_fract_y
_atom_site_fract_z
Cd11	Cd1	0.608960	0.299780	0.960600
Cd21	Cd2	0.891040	0.700220	0.460600
Cd31	Cd3	0.391040	0.799780	0.539400
Cd41	Cd4	0.108960	0.200220	0.039400
H11	H1	0.851900	0.244600	0.714500
H21	H2	0.851100	0.290500	0.566900
H31	H3	0.862100	0.177700	0.453000
H41	H4	0.866600	0.018900	0.485900
H51	H5	0.854900	0.838900	0.746700
H61	H6	0.881600	0.950100	0.861600
H71	H7	0.648100	0.755400	0.214500
H81	H8	0.648900	0.709500	0.066900
H91	H9	0.637900	0.822300	0.953000
H101	H10	0.633400	0.981100	0.985900
H111	H11	0.645100	0.161100	0.246700
H121	H12	0.618400	0.049900	0.361600
H131	H13	0.148100	0.744600	0.785500
H141	H14	0.148900	0.790500	0.933100
H151	H15	0.137900	0.677700	0.047000
H161	H16	0.133400	0.518900	0.014100
H171	H17	0.145100	0.338900	0.753300
H181	H18	0.118400	0.450100	0.638400
H191	H19	0.351900	0.255400	0.285500
H201	H20	0.351100	0.209500	0.433100
H211	H21	0.362100	0.322300	0.547000
H221	H22	0.366600	0.481100	0.514100
H231	H23	0.354900	0.661100	0.253300
H241	H24	0.381600	0.549900	0.138400
C11	C1	0.876800	0.134600	0.865000
C21	C2	0.871100	0.067700	0.785300
C31	C3	0.861800	0.099700	0.693900
C41	C4	0.855700	0.198400	0.669800
C51	C5	0.855200	0.225900	0.581300
C61	C6	0.861000	0.157900	0.512500
C71	C7	0.865000	0.063300	0.532200
C81	C8	0.866900	0.030800	0.623100
C91	C9	0.865000	0.931700	0.644600
C101	C10	0.872900	0.854600	0.574500
C111	C11	0.863000	0.903500	0.732900
C121	C12	0.873300	0.971100	0.802600
C131	C13	0.623200	0.865400	0.365000
C141	C14	0.628900	0.932300	0.285300
C151	C15	0.638200	0.900300	0.193900
C161	C16	0.644300	0.801600	0.169800
C171	C17	0.644800	0.774100	0.081300
C181	C18	0.639000	0.842100	0.012500
C191	C19	0.635000	0.936700	0.032200
C201	C20	0.633100	0.969200	0.123100
C211	C21	0.635000	0.068300	0.144600
C221	C22	0.627100	0.145400	0.074500
C231	C23	0.637000	0.096500	0.232900
C241	C24	0.626700	0.028900	0.302600
C251	C25	0.123200	0.634600	0.635000
C261	C26	0.128900	0.567700	0.714700
C271	C27	0.138200	0.599700	0.806100
C281	C28	0.144300	0.698400	0.830200
C291	C29	0.144800	0.725900	0.918700
C301	C30	0.139000	0.657900	0.987500
C311	C31	0.135000	0.563300	0.967800
C321	C32	0.133100	0.530800	0.876900
C331	C33	0.135000	0.431700	0.855400
C341	C34	0.127100	0.354600	0.925500
C351	C35	0.137000	0.403500	0.767100
C361	C36	0.126700	0.471100	0.697400
C371	C37	0.376800	0.365400	0.135000
C381	C38	0.371100	0.432300	0.214700
C391	C39	0.361800	0.400300	0.306100
C401	C40	0.355700	0.301600	0.330200
C411	C41	0.355200	0.274100	0.418700
C421	C42	0.361000	0.342100	0.487500
C431	C43	0.365000	0.436700	0.467800
C441	C44	0.366900	0.469200	0.376900
C451	C45	0.365000	0.568300	0.355400
C461	C46	0.372900	0.645400	0.425500
C471	C47	0.363000	0.596500	0.267100
C481	C48	0.373300	0.528900	0.197400
O11	O1	0.776900	0.209100	0.861220
O21	O2	0.983500	0.107890	0.929500
O31	O3	0.005600	0.854840	0.516610
O41	O4	0.746200	0.788600	0.578820
O51	O5	0.723100	0.790900	0.361220
O61	O6	0.516500	0.892110	0.429500
O71	O7	0.494400	0.145160	0.016610
O81	O8	0.753800	0.211400	0.078820
O91	O9	0.223100	0.709100	0.638780
O101	O10	0.016500	0.607890	0.570500
O111	O11	0.994400	0.354840	0.983390
O121	O12	0.253800	0.288600	0.921180
O131	O13	0.276900	0.290900	0.138780
O141	O14	0.483500	0.392110	0.070500
O151	O15	0.505600	0.645160	0.483390
O161	O16	0.246200	0.711400	0.421180
