data_SETPEO_clean_PM
_symmetry_space_group_name_H-M	'P1'
_cell_length_a	19.127000
_cell_length_b	19.127000
_cell_length_c	19.127000
_cell_angle_alpha	109.471000
_cell_angle_beta	109.471000
_cell_angle_gamma	109.471000
_symmetry_Int_Tables_number 1

loop_
_symmetry_equiv_pos_as_xyz
'x,y,z'

loop_
_atom_site_label
_atom_site_type_symbol
_atom_site_fract_x
_atom_site_fract_y
_atom_site_fract_z
In11	In1	0.736060	0.236060	0.500000
In21	In2	0.263940	0.763940	0.500000
In31	In3	0.500000	0.263940	0.763940
In41	In4	0.500000	0.736060	0.236060
In51	In5	0.236060	0.500000	0.736060
In61	In6	0.763940	0.500000	0.263940
H11	H1	0.916900	0.267200	0.605700
H21	H2	0.997900	0.198700	0.605600
H31	H3	0.780500	0.969900	0.433200
H41	H4	0.699500	0.038400	0.433300
H51	H5	0.661500	0.311200	0.394300
H61	H6	0.593100	0.392300	0.394400
H71	H7	0.536700	0.347300	0.566800
H81	H8	0.605100	0.266200	0.566700
H91	H9	0.338500	0.732800	0.649700
H101	H10	0.406900	0.801300	0.799200
H111	H11	0.463300	0.030100	0.810600
H121	H12	0.394900	0.961600	0.661100
H131	H13	0.083100	0.688800	0.350300
H141	H14	0.002100	0.607700	0.200800
H151	H15	0.219500	0.652700	0.189400
H161	H16	0.300500	0.733800	0.338900
H171	H17	0.649700	0.338500	0.732800
H181	H18	0.799200	0.406900	0.801300
H191	H19	0.810600	0.463300	0.030100
H201	H20	0.661100	0.394900	0.961600
H211	H21	0.350300	0.083100	0.688800
H221	H22	0.200800	0.002100	0.607700
H231	H23	0.189400	0.219500	0.652700
H241	H24	0.338900	0.300500	0.733800
H251	H25	0.605700	0.916900	0.267200
H261	H26	0.605600	0.997900	0.198700
H271	H27	0.433200	0.780500	0.969900
H281	H28	0.433300	0.699500	0.038400
H291	H29	0.394300	0.661500	0.311200
H301	H30	0.394400	0.593100	0.392300
H311	H31	0.566800	0.536700	0.347300
H321	H32	0.566700	0.605100	0.266200
H331	H33	0.311200	0.394300	0.661500
H341	H34	0.392300	0.394400	0.593100
H351	H35	0.347300	0.566800	0.536700
H361	H36	0.266200	0.566700	0.605100
H371	H37	0.267200	0.605700	0.916900
H381	H38	0.198700	0.605600	0.997900
H391	H39	0.969900	0.433200	0.780500
H401	H40	0.038400	0.433300	0.699500
H411	H41	0.688800	0.350300	0.083100
H421	H42	0.607700	0.200800	0.002100
H431	H43	0.652700	0.189400	0.219500
H441	H44	0.733800	0.338900	0.300500
H451	H45	0.732800	0.649700	0.338500
H461	H46	0.801300	0.799200	0.406900
H471	H47	0.030100	0.810600	0.463300
H481	H48	0.961600	0.661100	0.394900
C11	C1	0.950700	0.037300	0.534200
C21	C2	0.889200	0.206900	0.570700
C31	C3	0.937300	0.166100	0.570600
C41	C4	0.896900	0.077900	0.519400
C51	C5	0.808200	0.030200	0.468200
C61	C6	0.760000	0.070900	0.468300
C71	C7	0.503100	0.416500	0.465800
C81	C8	0.636200	0.318500	0.429300
C91	C9	0.595500	0.366700	0.429400
C101	C10	0.558500	0.377500	0.480600
C111	C11	0.562000	0.340000	0.531800
C121	C12	0.602600	0.291700	0.531700
C131	C13	0.496900	0.962700	0.913400
C141	C14	0.363800	0.793100	0.682300
C151	C15	0.404500	0.833900	0.771200
C161	C16	0.441500	0.922100	0.819000
C171	C17	0.438000	0.969800	0.778000
C181	C18	0.397400	0.929100	0.689100
C191	C19	0.049300	0.583500	0.086600
C201	C20	0.110800	0.681500	0.317700
C211	C21	0.062700	0.633300	0.228800
C221	C22	0.103100	0.622500	0.181000
C231	C23	0.191800	0.660000	0.222000
C241	C24	0.240000	0.708300	0.310900
C251	C25	0.913400	0.496900	0.962700
C261	C26	0.682300	0.363800	0.793100
C271	C27	0.771200	0.404500	0.833900
C281	C28	0.819000	0.441500	0.922100
C291	C29	0.778000	0.438000	0.969800
C301	C30	0.689100	0.397400	0.929100
C311	C31	0.086600	0.049300	0.583500
C321	C32	0.317700	0.110800	0.681500
C331	C33	0.228800	0.062700	0.633300
C341	C34	0.181000	0.103100	0.622500
C351	C35	0.222000	0.191800	0.660000
C361	C36	0.310900	0.240000	0.708300
C371	C37	0.534200	0.950700	0.037300
C381	C38	0.570700	0.889200	0.206900
C391	C39	0.570600	0.937300	0.166100
C401	C40	0.519400	0.896900	0.077900
C411	C41	0.468200	0.808200	0.030200
C421	C42	0.468300	0.760000	0.070900
C431	C43	0.465800	0.503100	0.416500
C441	C44	0.429300	0.636200	0.318500
C451	C45	0.429400	0.595500	0.366700
C461	C46	0.480600	0.558500	0.377500
C471	C47	0.531800	0.562000	0.340000
C481	C48	0.531700	0.602600	0.291700
C491	C49	0.416500	0.465800	0.503100
C501	C50	0.318500	0.429300	0.636200
C511	C51	0.366700	0.429400	0.595500
C521	C52	0.377500	0.480600	0.558500
C531	C53	0.340000	0.531800	0.562000
C541	C54	0.291700	0.531700	0.602600
C551	C55	0.037300	0.534200	0.950700
C561	C56	0.206900	0.570700	0.889200
C571	C57	0.166100	0.570600	0.937300
C581	C58	0.077900	0.519400	0.896900
C591	C59	0.030200	0.468200	0.808200
C601	C60	0.070900	0.468300	0.760000
C611	C61	0.583500	0.086600	0.049300
C621	C62	0.681500	0.317700	0.110800
C631	C63	0.633300	0.228800	0.062700
C641	C64	0.622500	0.181000	0.103100
C651	C65	0.660000	0.222000	0.191800
C661	C66	0.708300	0.310900	0.240000
C671	C67	0.962700	0.913400	0.496900
C681	C68	0.793100	0.682300	0.363800
C691	C69	0.833900	0.771200	0.404500
C701	C70	0.922100	0.819000	0.441500
C711	C71	0.969800	0.778000	0.438000
C721	C72	0.929100	0.689100	0.397400
N11	N1	0.910300	0.948800	0.489300
N21	N2	0.800500	0.159200	0.519500
N31	N3	0.459500	0.421000	0.510700
N41	N4	0.639700	0.281000	0.480500
N51	N5	0.540500	0.051200	0.961500
N61	N6	0.360300	0.840800	0.641300
N71	N7	0.089700	0.579000	0.038500
N81	N8	0.199500	0.719000	0.358700
N91	N9	0.961500	0.540500	0.051200
N101	N10	0.641300	0.360300	0.840800
N111	N11	0.038500	0.089700	0.579000
N121	N12	0.358700	0.199500	0.719000
N131	N13	0.489300	0.910300	0.948800
N141	N14	0.519500	0.800500	0.159200
N151	N15	0.510700	0.459500	0.421000
N161	N16	0.480500	0.639700	0.281000
N171	N17	0.421000	0.510700	0.459500
N181	N18	0.281000	0.480500	0.639700
N191	N19	0.948800	0.489300	0.910300
N201	N20	0.159200	0.519500	0.800500
N211	N21	0.579000	0.038500	0.089700
N221	N22	0.719000	0.358700	0.199500
N231	N23	0.051200	0.961500	0.540500
N241	N24	0.840800	0.641300	0.360300
Cl11	Cl1	0.801660	0.313900	0.655960
Cl21	Cl2	0.657940	0.145700	0.344040
Cl31	Cl3	0.342060	0.686100	0.487760
Cl41	Cl4	0.198340	0.854300	0.512240
Cl51	Cl5	0.487760	0.342060	0.686100
Cl61	Cl6	0.512240	0.198340	0.854300
Cl71	Cl7	0.655960	0.801660	0.313900
Cl81	Cl8	0.344040	0.657940	0.145700
Cl91	Cl9	0.145700	0.344040	0.657940
Cl101	Cl10	0.313900	0.655960	0.801660
Cl111	Cl11	0.854300	0.512240	0.198340
Cl121	Cl12	0.686100	0.487760	0.342060
Cl131	Cl13	0.630800	0.130800	0.500000
Cl141	Cl14	0.369200	0.869200	0.500000
Cl151	Cl15	0.500000	0.369200	0.869200
Cl161	Cl16	0.500000	0.630800	0.130800
Cl171	Cl17	0.130800	0.500000	0.630800
Cl181	Cl18	0.869200	0.500000	0.369200
