data_SETSIV_clean_PM
_symmetry_space_group_name_H-M	'P1'
_cell_length_a	14.458000
_cell_length_b	16.915300
_cell_length_c	16.915300
_cell_angle_alpha	120.000000
_cell_angle_beta	90.000000
_cell_angle_gamma	90.000000
_symmetry_Int_Tables_number 1

loop_
_symmetry_equiv_pos_as_xyz
'x,y,z'

loop_
_atom_site_label
_atom_site_type_symbol
_atom_site_fract_x
_atom_site_fract_y
_atom_site_fract_z
Zn11	Zn1	0.000000	0.000000	0.652650
Zn21	Zn2	0.000000	0.652650	0.000000
Zn31	Zn3	0.000000	0.347350	0.347350
Cr11	Cr1	0.500000	0.113410	0.000000
Cr21	Cr2	0.500000	0.886590	0.886590
Cr31	Cr3	0.500000	0.000000	0.113410
H11	H1	0.712600	0.130400	0.829400
H21	H2	0.846000	0.126300	0.758100
H31	H3	0.712600	0.699000	0.869600
H41	H4	0.846000	0.631800	0.873700
H51	H5	0.712600	0.170600	0.301000
H61	H6	0.846000	0.241900	0.368200
H71	H7	0.287400	0.130400	0.829400
H81	H8	0.154000	0.126300	0.758100
H91	H9	0.287400	0.699000	0.869600
H101	H10	0.154000	0.631800	0.873700
H111	H11	0.287400	0.170600	0.301000
H121	H12	0.154000	0.241900	0.368200
H131	H13	0.287400	0.301000	0.170600
H141	H14	0.154000	0.368200	0.241900
H151	H15	0.287400	0.829400	0.130400
H161	H16	0.154000	0.758100	0.126300
H171	H17	0.287400	0.869600	0.699000
H181	H18	0.154000	0.873700	0.631800
H191	H19	0.712600	0.301000	0.170600
H201	H20	0.846000	0.368200	0.241900
H211	H21	0.712600	0.829400	0.130400
H221	H22	0.846000	0.758100	0.126300
H231	H23	0.712600	0.869600	0.699000
H241	H24	0.846000	0.873700	0.631800
H251	H25	0.000000	0.184500	0.544000
H261	H26	0.000000	0.359500	0.815500
H271	H27	0.000000	0.456000	0.640500
H281	H28	0.000000	0.640500	0.456000
H291	H29	0.000000	0.544000	0.184500
H301	H30	0.000000	0.815500	0.359500
C11	C1	0.747800	0.076500	0.801300
C21	C2	0.827200	0.073600	0.759000
C31	C3	0.747800	0.724800	0.923500
C41	C4	0.827200	0.685400	0.926400
C51	C5	0.747800	0.198700	0.275200
C61	C6	0.827200	0.241000	0.314600
C71	C7	0.252200	0.076500	0.801300
C81	C8	0.172800	0.073600	0.759000
C91	C9	0.252200	0.724800	0.923500
C101	C10	0.172800	0.685400	0.926400
C111	C11	0.252200	0.198700	0.275200
C121	C12	0.172800	0.241000	0.314600
C131	C13	0.252200	0.275200	0.198700
C141	C14	0.172800	0.314600	0.241000
C151	C15	0.252200	0.801300	0.076500
C161	C16	0.172800	0.759000	0.073600
C171	C17	0.252200	0.923500	0.724800
C181	C18	0.172800	0.926400	0.685400
C191	C19	0.747800	0.275200	0.198700
C201	C20	0.827200	0.314600	0.241000
C211	C21	0.747800	0.801300	0.076500
C221	C22	0.827200	0.759000	0.073600
C231	C23	0.747800	0.923500	0.724800
C241	C24	0.827200	0.926400	0.685400
C251	C25	0.000000	0.181380	0.701180
C261	C26	0.000000	0.259700	0.682250
C271	C27	0.000000	0.244550	0.593500
C281	C28	0.000000	0.519800	0.818620
C291	C29	0.000000	0.422550	0.740300
C301	C30	0.000000	0.348950	0.755450
C311	C31	0.000000	0.298820	0.480200
C321	C32	0.000000	0.317750	0.577450
C331	C33	0.000000	0.406500	0.651050
C341	C34	0.000000	0.480200	0.298820
C351	C35	0.000000	0.577450	0.317750
C361	C36	0.000000	0.651050	0.406500
C371	C37	0.000000	0.701180	0.181380
C381	C38	0.000000	0.682250	0.259700
C391	C39	0.000000	0.593500	0.244550
C401	C40	0.000000	0.818620	0.519800
C411	C41	0.000000	0.740300	0.422550
C421	C42	0.000000	0.755450	0.348950
C431	C43	0.630500	0.000000	0.851710
C441	C44	0.717800	0.000000	0.803320
C451	C45	0.630500	0.851710	0.000000
C461	C46	0.717800	0.803320	0.000000
C471	C47	0.630500	0.148290	0.148290
C481	C48	0.717800	0.196680	0.196680
C491	C49	0.369500	0.000000	0.851710
C501	C50	0.282200	0.000000	0.803320
C511	C51	0.369500	0.851710	0.000000
C521	C52	0.282200	0.803320	0.000000
C531	C53	0.369500	0.148290	0.148290
C541	C54	0.282200	0.196680	0.196680
N11	N1	0.880650	0.000000	0.718330
N21	N2	0.880650	0.718330	0.000000
N31	N3	0.880650	0.281670	0.281670
N41	N4	0.119350	0.000000	0.718330
N51	N5	0.119350	0.718330	0.000000
N61	N6	0.119350	0.281670	0.281670
O11	O1	0.598650	0.076400	0.907700
O21	O2	0.598650	0.831300	0.923600
O31	O3	0.598650	0.092300	0.168700
O41	O4	0.401350	0.076400	0.907700
O51	O5	0.401350	0.831300	0.923600
O61	O6	0.401350	0.092300	0.168700
O71	O7	0.401350	0.168700	0.092300
O81	O8	0.401350	0.907700	0.076400
O91	O9	0.401350	0.923600	0.831300
O101	O10	0.598650	0.168700	0.092300
O111	O11	0.598650	0.907700	0.076400
O121	O12	0.598650	0.923600	0.831300
O131	O13	0.500000	0.000000	0.000000
O141	O14	0.000000	0.197220	0.780120
O151	O15	0.000000	0.102660	0.630270
O161	O16	0.000000	0.582900	0.802780
O171	O17	0.000000	0.527610	0.897340
O181	O18	0.000000	0.219880	0.417100
O191	O19	0.000000	0.369730	0.472390
O201	O20	0.000000	0.417100	0.219880
O211	O21	0.000000	0.472390	0.369730
O221	O22	0.000000	0.780120	0.197220
O231	O23	0.000000	0.630270	0.102660
O241	O24	0.000000	0.802780	0.582900
O251	O25	0.000000	0.897340	0.527610
