data_SEVWEV_clean_h_PM
_symmetry_space_group_name_H-M	'P1'
_cell_length_a	6.120000
_cell_length_b	9.719000
_cell_length_c	20.133000
_cell_angle_alpha	90.000000
_cell_angle_beta	90.000000
_cell_angle_gamma	90.000000
_symmetry_Int_Tables_number 1

loop_
_symmetry_equiv_pos_as_xyz
'x,y,z'

loop_
_atom_site_label
_atom_site_type_symbol
_atom_site_fract_x
_atom_site_fract_y
_atom_site_fract_z
Nd11	Nd1	0.714200	0.034000	0.314700
Nd21	Nd2	0.785800	0.966000	0.814700
Nd31	Nd3	0.285800	0.534000	0.185300
Nd41	Nd4	0.214200	0.466000	0.685300
C11	C1	0.215000	0.872200	0.627700
C21	C2	0.419800	0.937600	0.626200
C31	C3	0.505200	0.977900	0.565200
C41	C4	0.393400	0.954300	0.506700
C51	C5	0.186100	0.894200	0.509100
C61	C6	0.102500	0.851900	0.569100
C71	C7	0.115500	0.826700	0.692700
C81	C8	0.552600	0.957300	0.686800
C91	C9	0.495900	0.993500	0.441600
C101	C10	0.285000	0.127800	0.127700
C111	C11	0.080200	0.062400	0.126200
C121	C12	0.994800	0.022100	0.065200
C131	C13	0.106600	0.045700	0.006700
C141	C14	0.313900	0.105800	0.009100
C151	C15	0.397500	0.148100	0.069100
C161	C16	0.384500	0.173300	0.192700
C171	C17	0.947400	0.042700	0.186800
C181	C18	0.004100	0.006500	0.941600
C191	C19	0.785000	0.372200	0.872300
C201	C20	0.580200	0.437600	0.873800
C211	C21	0.494800	0.477900	0.934800
C221	C22	0.606600	0.454300	0.993300
C231	C23	0.813900	0.394200	0.990900
C241	C24	0.897500	0.351900	0.930900
C251	C25	0.884500	0.326700	0.807300
C261	C26	0.447400	0.457300	0.813200
C271	C27	0.504100	0.493500	0.058400
C281	C28	0.715000	0.627800	0.372300
C291	C29	0.919800	0.562400	0.373800
C301	C30	0.005200	0.522100	0.434800
C311	C31	0.893400	0.545700	0.493300
C321	C32	0.686100	0.605800	0.490900
C331	C33	0.602500	0.648100	0.430900
C341	C34	0.615500	0.673300	0.307300
C351	C35	0.052600	0.542700	0.313200
C361	C36	0.995900	0.506500	0.558400
O11	O1	0.074200	0.700900	0.700700
O21	O2	0.065800	0.921500	0.732400
O31	O3	0.644200	0.069900	0.698200
O41	O4	0.571300	0.855400	0.726000
O51	O5	0.697600	0.015800	0.439800
O61	O6	0.381600	0.001400	0.389900
O71	O7	0.425800	0.299100	0.200700
O81	O8	0.434200	0.078500	0.232400
O91	O9	0.855800	0.930100	0.198200
O101	O10	0.928700	0.144600	0.226000
O111	O11	0.802400	0.984200	0.939800
O121	O12	0.118400	0.998600	0.889900
O131	O13	0.925800	0.200900	0.799300
O141	O14	0.934200	0.421500	0.767600
O151	O15	0.355800	0.569900	0.801800
O161	O16	0.428700	0.355400	0.774000
O171	O17	0.302400	0.515800	0.060200
O181	O18	0.618400	0.501400	0.110100
O191	O19	0.574200	0.799100	0.299300
O201	O20	0.565800	0.578500	0.267600
O211	O21	0.144200	0.430100	0.301800
O221	O22	0.071300	0.644600	0.274000
O231	O23	0.197600	0.484200	0.560200
O241	O24	0.881600	0.498600	0.610100
H11	H1	0.670640	0.031570	0.562800
H21	H2	0.087530	0.880530	0.461510
H31	H3	0.936630	0.798700	0.571230
H41	H4	0.829360	0.968430	0.062800
H51	H5	0.412470	0.119470	0.961510
H61	H6	0.563730	0.201020	0.069740
H71	H7	0.329360	0.531570	0.937200
H81	H8	0.912470	0.380530	0.038490
H91	H9	0.063730	0.298980	0.930260
H101	H10	0.170640	0.468430	0.437200
H111	H11	0.587530	0.619470	0.538490
H121	H12	0.436630	0.701300	0.428770
