data_SEWCED_clean_PM
_symmetry_space_group_name_H-M	'P1'
_cell_length_a	20.304900
_cell_length_b	20.304900
_cell_length_c	49.641000
_cell_angle_alpha	90.000000
_cell_angle_beta	90.000000
_cell_angle_gamma	90.000000
_symmetry_Int_Tables_number 1

loop_
_symmetry_equiv_pos_as_xyz
'x,y,z'

loop_
_atom_site_label
_atom_site_type_symbol
_atom_site_fract_x
_atom_site_fract_y
_atom_site_fract_z
Cd11	Cd1	0.691090	0.129500	0.981900
Cd21	Cd2	0.308910	0.870500	0.481900
Cd31	Cd3	0.129500	0.691090	0.268100
Cd41	Cd4	0.870500	0.308910	0.768100
Cd51	Cd5	0.796810	0.203190	0.875000
Cd61	Cd6	0.203190	0.796810	0.375000
H11	H1	0.293000	0.244500	0.911400
H21	H2	0.297400	0.251200	0.842700
H31	H3	0.323700	0.981900	0.075800
H41	H4	0.415700	0.834000	0.109600
H51	H5	0.670700	0.263600	0.846100
H61	H6	0.557200	0.257300	0.843500
H71	H7	0.559100	0.126300	0.904100
H81	H8	0.673900	0.133400	0.905100
H91	H9	0.460600	0.245300	0.906800
H101	H10	0.519400	0.116300	0.833300
H111	H11	0.346100	0.055500	0.801400
H121	H12	0.289600	0.109000	0.835100
H131	H13	0.306700	0.102400	0.913100
H141	H14	0.254900	0.032100	0.942200
H151	H15	0.078900	0.081900	0.909500
H161	H16	0.128800	0.242100	0.846300
H171	H17	0.922800	0.185400	0.834400
H181	H18	0.034900	0.169300	0.834400
H191	H19	0.031700	0.185100	0.915100
H201	H20	0.919500	0.202600	0.912900
H211	H21	0.618900	0.159400	0.036700
H221	H22	0.560300	0.115600	0.071300
H231	H23	0.554000	0.948900	0.031100
H241	H24	0.615200	0.995600	0.998300
H251	H25	0.635600	0.987800	0.091800
H261	H26	0.608500	0.907300	0.166300
H271	H27	0.495700	0.911600	0.161100
H281	H28	0.423500	0.008400	0.057800
H291	H29	0.389000	0.045300	0.145100
H301	H30	0.349400	0.113600	0.178600
H311	H31	0.275500	0.953600	0.217800
H321	H32	0.321800	0.776600	0.161400
H331	H33	0.188400	0.886100	0.203600
H341	H34	0.335700	0.754100	0.210700
H351	H35	0.271900	0.695700	0.241100
H361	H36	0.707000	0.755500	0.411400
H371	H37	0.702600	0.748800	0.342700
H381	H38	0.676300	0.018100	0.575800
H391	H39	0.584300	0.166000	0.609600
H401	H40	0.329300	0.736400	0.346100
H411	H41	0.442800	0.742700	0.343500
H421	H42	0.440900	0.873700	0.404100
H431	H43	0.326100	0.866600	0.405100
H441	H44	0.539400	0.754700	0.406800
H451	H45	0.480600	0.883700	0.333300
H461	H46	0.653900	0.944500	0.301400
H471	H47	0.710400	0.891000	0.335100
H481	H48	0.693300	0.897600	0.413100
H491	H49	0.745100	0.967900	0.442200
H501	H50	0.921100	0.918100	0.409500
H511	H51	0.871200	0.757900	0.346300
H521	H52	0.077200	0.814600	0.334400
H531	H53	0.965100	0.830700	0.334400
H541	H54	0.968300	0.814900	0.415100
H551	H55	0.080500	0.797400	0.412900
H561	H56	0.381100	0.840600	0.536700
H571	H57	0.439700	0.884400	0.571300
H581	H58	0.446000	0.051100	0.531100
H591	H59	0.384800	0.004400	0.498300
H601	H60	0.364400	0.012200	0.591800
H611	H61	0.391500	0.092700	0.666300
H621	H62	0.504300	0.088400	0.661100
H631	H63	0.576500	0.991600	0.557800
H641	H64	0.611000	0.954700	0.645100
H651	H65	0.650600	0.886400	0.678600
H661	H66	0.724500	0.046400	0.717800
H671	H67	0.678200	0.223400	0.661400
H681	H68	0.811600	0.113900	0.703600
H691	H69	0.664300	0.245900	0.710700
H701	H70	0.728100	0.304300	0.741100
H711	H71	0.244500	0.293000	0.338600
H721	H72	0.251200	0.297400	0.407300
H731	H73	0.981900	0.323700	0.174200
H741	H74	0.834000	0.415700	0.140400
H751	H75	0.263600	0.670700	0.403900
H761	H76	0.257300	0.557200	0.406500
H771	H77	0.126300	0.559100	0.345900
H781	H78	0.133400	0.673900	0.344900
H791	H79	0.245300	0.460600	0.343200
H801	H80	0.116300	0.519400	0.416700
H811	H81	0.055500	0.346100	0.448600
H821	H82	0.109000	0.289600	0.414900
H831	H83	0.102400	0.306700	0.336900
H841	H84	0.032100	0.254900	0.307800
H851	H85	0.081900	0.078900	0.340500
H861	H86	0.242100	0.128800	0.403700
H871	H87	0.185400	0.922800	0.415600
H881	H88	0.169300	0.034900	0.415600
H891	H89	0.185100	0.031700	0.334900
H901	H90	0.202600	0.919500	0.337100
H911	H91	0.159400	0.618900	0.213300
H921	H92	0.115600	0.560300	0.178700
H931	H93	0.948900	0.554000	0.218900
H941	H94	0.995600	0.615200	0.251700
H951	H95	0.987800	0.635600	0.158200
H961	H96	0.907300	0.608500	0.083700
H971	H97	0.911600	0.495700	0.088900
H981	H98	0.008400	0.423500	0.192200
H991	H99	0.045300	0.389000	0.104900
H1001	H100	0.113600	0.349400	0.071400
H1011	H101	0.953600	0.275500	0.032200
H1021	H102	0.776600	0.321800	0.088600
H1031	H103	0.886100	0.188400	0.046400
H1041	H104	0.754100	0.335700	0.039300
H1051	H105	0.695700	0.271900	0.008900
H1061	H106	0.755500	0.707000	0.838600
H1071	H107	0.748800	0.702600	0.907300
H1081	H108	0.018100	0.676300	0.674200
H1091	H109	0.166000	0.584300	0.640400
H1101	H110	0.736400	0.329300	0.903900
H1111	H111	0.742700	0.442800	0.906500
H1121	H112	0.873700	0.440900	0.845900
H1131	H113	0.866600	0.326100	0.844900
H1141	H114	0.754700	0.539400	0.843200
H1151	H115	0.883700	0.480600	0.916700
H1161	H116	0.944500	0.653900	0.948600
H1171	H117	0.891000	0.710400	0.914900
H1181	H118	0.897600	0.693300	0.836900
H1191	H119	0.967900	0.745100	0.807800
H1201	H120	0.918100	0.921100	0.840500
H1211	H121	0.757900	0.871200	0.903700
H1221	H122	0.814600	0.077200	0.915600
H1231	H123	0.830700	0.965100	0.915600
H1241	H124	0.814900	0.968300	0.834900
H1251	H125	0.797400	0.080500	0.837100
H1261	H126	0.840600	0.381100	0.713300
H1271	H127	0.884400	0.439700	0.678700
H1281	H128	0.051100	0.446000	0.718900
H1291	H129	0.004400	0.384800	0.751700
H1301	H130	0.012200	0.364400	0.658200
H1311	H131	0.092700	0.391500	0.583700
H1321	H132	0.088400	0.504300	0.588900
H1331	H133	0.991600	0.576500	0.692200
H1341	H134	0.954700	0.611000	0.604900
H1351	H135	0.886400	0.650600	0.571400
H1361	H136	0.046400	0.724500	0.532200
H1371	H137	0.223400	0.678200	0.588600
H1381	H138	0.113900	0.811600	0.546400
H1391	H139	0.245900	0.664300	0.539300
H1401	H140	0.304300	0.728100	0.508900
C11	C1	0.647800	0.235900	0.858380
C21	C2	0.579900	0.232500	0.856740
C31	C3	0.545000	0.193000	0.874460
C41	C4	0.581000	0.155600	0.892190
C51	C5	0.650000	0.160300	0.892810
C61	C6	0.472500	0.189300	0.873410
C71	C7	0.437400	0.221300	0.893410
C81	C8	0.367400	0.219200	0.894390
C91	C9	0.332600	0.183500	0.875190
C101	C10	0.369000	0.148500	0.854420
C111	C11	0.437800	0.150800	0.853910
C121	C12	0.472700	0.115200	0.833760
C131	C13	0.438900	0.079900	0.815400
C141	C14	0.369200	0.078700	0.815100
C151	C15	0.336400	0.111300	0.834690
C161	C16	0.259600	0.181100	0.875660
C171	C17	0.226100	0.138600	0.894110
C181	C18	0.260000	0.099200	0.912500
C191	C19	0.230100	0.056700	0.929510
C201	C20	0.161300	0.049800	0.927950
C211	C21	0.125300	0.087400	0.910340
C221	C22	0.155600	0.133700	0.893550
C231	C23	0.120500	0.174900	0.875160
C241	C24	0.153200	0.214500	0.858070
C251	C25	0.223700	0.216500	0.857170
C261	C26	0.945500	0.186600	0.851170
C271	C27	0.012700	0.177100	0.850970
C281	C28	0.047400	0.179000	0.874440
C291	C29	0.010500	0.186600	0.898050
C301	C30	0.943400	0.196300	0.896640
C311	C31	0.606900	0.114200	0.035730
C321	C32	0.570800	0.088700	0.056240
C331	C33	0.549600	0.025500	0.055550
C341	C34	0.567700	0.993300	0.033300
C351	C35	0.604500	0.021100	0.013700
C361	C36	0.507600	0.996200	0.077120
C371	C37	0.536700	0.972600	0.101460
C381	C38	0.606900	0.973100	0.105700
C391	C39	0.631700	0.952300	0.129600
C401	C40	0.589900	0.925300	0.150400
C411	C41	0.523600	0.926100	0.146910
C421	C42	0.495400	0.948200	0.122470
C431	C43	0.426100	0.945200	0.118450
C441	C44	0.400100	0.966800	0.094460
C451	C45	0.442500	0.992900	0.074080
C461	C46	0.383100	0.916600	0.139950
C471	C47	0.356100	0.956700	0.160310
C481	C48	0.365700	0.026500	0.159810
C491	C49	0.342700	0.067300	0.179580
C501	C50	0.308200	0.038500	0.201700
C511	C51	0.298000	0.971700	0.202730
C521	C52	0.319500	0.930000	0.182460
C531	C53	0.307700	0.859500	0.181710
C541	C54	0.331300	0.822400	0.161580
C551	C55	0.370500	0.850200	0.140300
C561	C56	0.168800	0.809200	0.228990
C571	C57	0.206200	0.846600	0.210830
C581	C58	0.268100	0.827000	0.203330
C591	C59	0.292700	0.769200	0.215120
C601	C60	0.254300	0.734400	0.233150
C611	C61	0.352200	0.764100	0.358380
C621	C62	0.420100	0.767500	0.356740
C631	C63	0.455000	0.807000	0.374460
C641	C64	0.419000	0.844400	0.392190
C651	C65	0.350000	0.839700	0.392810
C661	C66	0.527500	0.810700	0.373410
C671	C67	0.562600	0.778700	0.393410
C681	C68	0.632600	0.780800	0.394390
C691	C69	0.667400	0.816500	0.375190
C701	C70	0.631000	0.851500	0.354420
C711	C71	0.562200	0.849200	0.353910
C721	C72	0.527300	0.884800	0.333760
C731	C73	0.561100	0.920100	0.315400
C741	C74	0.630800	0.921300	0.315100
C751	C75	0.663600	0.888700	0.334690
C761	C76	0.740400	0.818900	0.375660
C771	C77	0.773900	0.861400	0.394110
C781	C78	0.740000	0.900800	0.412500
C791	C79	0.769900	0.943300	0.429510
C801	C80	0.838700	0.950200	0.427950
C811	C81	0.874700	0.912600	0.410340
C821	C82	0.844400	0.866300	0.393550
C831	C83	0.879500	0.825100	0.375160
C841	C84	0.846800	0.785500	0.358070
C851	C85	0.776300	0.783500	0.357170
C861	C86	0.054500	0.813400	0.351170
C871	C87	0.987300	0.822900	0.350970
C881	C88	0.952600	0.821000	0.374440
C891	C89	0.989500	0.813400	0.398050
C901	C90	0.056600	0.803700	0.396640
C911	C91	0.393100	0.885800	0.535730
C921	C92	0.429200	0.911300	0.556240
C931	C93	0.450400	0.974500	0.555550
C941	C94	0.432300	0.006700	0.533300
C951	C95	0.395500	0.978900	0.513700
C961	C96	0.492400	0.003800	0.577120
C971	C97	0.463300	0.027400	0.601460
C981	C98	0.393100	0.026900	0.605700
C991	C99	0.368300	0.047700	0.629600
C1001	C100	0.410100	0.074700	0.650400
C1011	C101	0.476400	0.073900	0.646910
C1021	C102	0.504600	0.051800	0.622470
C1031	C103	0.573900	0.054800	0.618450
C1041	C104	0.599900	0.033200	0.594460
C1051	C105	0.557500	0.007100	0.574080
C1061	C106	0.616900	0.083400	0.639950
C1071	C107	0.643900	0.043300	0.660310
C1081	C108	0.634300	0.973500	0.659810
C1091	C109	0.657300	0.932700	0.679580
C1101	C110	0.691800	0.961500	0.701700
C1111	C111	0.702000	0.028300	0.702730
C1121	C112	0.680500	0.070000	0.682460
C1131	C113	0.692300	0.140500	0.681710
C1141	C114	0.668700	0.177600	0.661580
C1151	C115	0.629500	0.149800	0.640300
C1161	C116	0.831200	0.190800	0.728990
C1171	C117	0.793800	0.153400	0.710830
C1181	C118	0.731900	0.173000	0.703330
C1191	C119	0.707300	0.230800	0.715120
C1201	C120	0.745700	0.265600	0.733150
C1211	C121	0.235900	0.647800	0.391620
C1221	C122	0.232500	0.579900	0.393260
C1231	C123	0.193000	0.545000	0.375540
C1241	C124	0.155600	0.581000	0.357810
C1251	C125	0.160300	0.650000	0.357190
C1261	C126	0.189300	0.472500	0.376590
C1271	C127	0.221300	0.437400	0.356590
C1281	C128	0.219200	0.367400	0.355610
C1291	C129	0.183500	0.332600	0.374810
C1301	C130	0.148500	0.369000	0.395580
C1311	C131	0.150800	0.437800	0.396090
C1321	C132	0.115200	0.472700	0.416240
C1331	C133	0.079900	0.438900	0.434600
C1341	C134	0.078700	0.369200	0.434900
C1351	C135	0.111300	0.336400	0.415310
C1361	C136	0.181100	0.259600	0.374340
C1371	C137	0.138600	0.226100	0.355890
C1381	C138	0.099200	0.260000	0.337500
C1391	C139	0.056700	0.230100	0.320490
C1401	C140	0.049800	0.161300	0.322050
C1411	C141	0.087400	0.125300	0.339660
C1421	C142	0.133700	0.155600	0.356450
C1431	C143	0.174900	0.120500	0.374840
C1441	C144	0.214500	0.153200	0.391930
C1451	C145	0.216500	0.223700	0.392830
C1461	C146	0.186600	0.945500	0.398830
C1471	C147	0.177100	0.012700	0.399030
C1481	C148	0.179000	0.047400	0.375560
C1491	C149	0.186600	0.010500	0.351950
C1501	C150	0.196300	0.943400	0.353360
C1511	C151	0.114200	0.606900	0.214270
C1521	C152	0.088700	0.570800	0.193760
C1531	C153	0.025500	0.549600	0.194450
C1541	C154	0.993300	0.567700	0.216700
C1551	C155	0.021100	0.604500	0.236300
C1561	C156	0.996200	0.507600	0.172880
C1571	C157	0.972600	0.536700	0.148540
C1581	C158	0.973100	0.606900	0.144300
C1591	C159	0.952300	0.631700	0.120400
C1601	C160	0.925300	0.589900	0.099600
C1611	C161	0.926100	0.523600	0.103090
C1621	C162	0.948200	0.495400	0.127530
C1631	C163	0.945200	0.426100	0.131550
C1641	C164	0.966800	0.400100	0.155540
C1651	C165	0.992900	0.442500	0.175920
C1661	C166	0.916600	0.383100	0.110050
C1671	C167	0.956700	0.356100	0.089690
C1681	C168	0.026500	0.365700	0.090190
C1691	C169	0.067300	0.342700	0.070420
C1701	C170	0.038500	0.308200	0.048300
C1711	C171	0.971700	0.298000	0.047270
C1721	C172	0.930000	0.319500	0.067540
C1731	C173	0.859500	0.307700	0.068290
C1741	C174	0.822400	0.331300	0.088420
C1751	C175	0.850200	0.370500	0.109700
C1761	C176	0.809200	0.168800	0.021010
C1771	C177	0.846600	0.206200	0.039170
C1781	C178	0.827000	0.268100	0.046670
C1791	C179	0.769200	0.292700	0.034880
C1801	C180	0.734400	0.254300	0.016850
C1811	C181	0.764100	0.352200	0.891620
C1821	C182	0.767500	0.420100	0.893260
C1831	C183	0.807000	0.455000	0.875540
C1841	C184	0.844400	0.419000	0.857810
C1851	C185	0.839700	0.350000	0.857190
C1861	C186	0.810700	0.527500	0.876590
C1871	C187	0.778700	0.562600	0.856590
C1881	C188	0.780800	0.632600	0.855610
C1891	C189	0.816500	0.667400	0.874810
C1901	C190	0.851500	0.631000	0.895580
C1911	C191	0.849200	0.562200	0.896090
C1921	C192	0.884800	0.527300	0.916240
C1931	C193	0.920100	0.561100	0.934600
C1941	C194	0.921300	0.630800	0.934900
C1951	C195	0.888700	0.663600	0.915310
C1961	C196	0.818900	0.740400	0.874340
C1971	C197	0.861400	0.773900	0.855890
C1981	C198	0.900800	0.740000	0.837500
C1991	C199	0.943300	0.769900	0.820490
C2001	C200	0.950200	0.838700	0.822050
C2011	C201	0.912600	0.874700	0.839660
C2021	C202	0.866300	0.844400	0.856450
C2031	C203	0.825100	0.879500	0.874840
C2041	C204	0.785500	0.846800	0.891930
C2051	C205	0.783500	0.776300	0.892830
C2061	C206	0.813400	0.054500	0.898830
C2071	C207	0.822900	0.987300	0.899030
C2081	C208	0.821000	0.952600	0.875560
C2091	C209	0.813400	0.989500	0.851950
C2101	C210	0.803700	0.056600	0.853360
C2111	C211	0.885800	0.393100	0.714270
C2121	C212	0.911300	0.429200	0.693760
C2131	C213	0.974500	0.450400	0.694450
C2141	C214	0.006700	0.432300	0.716700
C2151	C215	0.978900	0.395500	0.736300
C2161	C216	0.003800	0.492400	0.672880
C2171	C217	0.027400	0.463300	0.648540
C2181	C218	0.026900	0.393100	0.644300
C2191	C219	0.047700	0.368300	0.620400
C2201	C220	0.074700	0.410100	0.599600
C2211	C221	0.073900	0.476400	0.603090
C2221	C222	0.051800	0.504600	0.627530
C2231	C223	0.054800	0.573900	0.631550
C2241	C224	0.033200	0.599900	0.655540
C2251	C225	0.007100	0.557500	0.675920
C2261	C226	0.083400	0.616900	0.610050
C2271	C227	0.043300	0.643900	0.589690
C2281	C228	0.973500	0.634300	0.590190
C2291	C229	0.932700	0.657300	0.570420
C2301	C230	0.961500	0.691800	0.548300
C2311	C231	0.028300	0.702000	0.547270
C2321	C232	0.070000	0.680500	0.567540
C2331	C233	0.140500	0.692300	0.568290
C2341	C234	0.177600	0.668700	0.588420
C2351	C235	0.149800	0.629500	0.609700
C2361	C236	0.190800	0.831200	0.521010
C2371	C237	0.153400	0.793800	0.539170
C2381	C238	0.173000	0.731900	0.546670
C2391	C239	0.230800	0.707300	0.534880
C2401	C240	0.265600	0.745700	0.516850
N11	N1	0.683170	0.201100	0.876810
N21	N2	0.910700	0.197100	0.873360
N31	N3	0.625800	0.081000	0.015030
N41	N4	0.192700	0.753500	0.239800
N51	N5	0.767800	0.205300	0.940150
N61	N6	0.316830	0.798900	0.376810
N71	N7	0.089300	0.802900	0.373360
N81	N8	0.374200	0.919000	0.515030
N91	N9	0.807300	0.246500	0.739800
N101	N10	0.232200	0.794700	0.440150
N111	N11	0.201100	0.683170	0.373190
N121	N12	0.197100	0.910700	0.376640
N131	N13	0.081000	0.625800	0.234970
N141	N14	0.753500	0.192700	0.010200
N151	N15	0.205300	0.767800	0.309850
N161	N16	0.798900	0.316830	0.873190
N171	N17	0.802900	0.089300	0.876640
N181	N18	0.919000	0.374200	0.734970
N191	N19	0.246500	0.807300	0.510200
N201	N20	0.794700	0.232200	0.809850
Cl11	Cl1	0.480550	0.035800	0.790370
Cl21	Cl2	0.122220	0.995120	0.949620
Cl31	Cl3	0.716200	0.954200	0.135160
Cl41	Cl4	0.279040	0.090810	0.226590
Cl51	Cl5	0.519450	0.964200	0.290370
Cl61	Cl6	0.877780	0.004880	0.449620
Cl71	Cl7	0.283800	0.045800	0.635160
Cl81	Cl8	0.720960	0.909190	0.726590
Cl91	Cl9	0.035800	0.480550	0.459630
Cl101	Cl10	0.995120	0.122220	0.300380
Cl111	Cl11	0.954200	0.716200	0.114840
Cl121	Cl12	0.090810	0.279040	0.023410
Cl131	Cl13	0.964200	0.519450	0.959630
Cl141	Cl14	0.004880	0.877780	0.800380
Cl151	Cl15	0.045800	0.283800	0.614840
Cl161	Cl16	0.909190	0.720960	0.523410
O11	O1	0.333500	0.250400	0.913770
O21	O2	0.256700	0.256700	0.840600
O31	O3	0.333300	0.963800	0.090530
O41	O4	0.395600	0.811000	0.121030
O51	O5	0.727400	0.245700	0.949390
O61	O6	0.764100	0.149800	0.947500
O71	O7	0.804700	0.224700	0.921530
O81	O8	0.666500	0.749600	0.413770
O91	O9	0.743300	0.743300	0.340600
O101	O10	0.666700	0.036200	0.590530
O111	O11	0.604400	0.189000	0.621030
O121	O12	0.272600	0.754300	0.449390
O131	O13	0.235900	0.850200	0.447500
O141	O14	0.195300	0.775300	0.421530
O151	O15	0.250400	0.333500	0.336230
O161	O16	0.256700	0.256700	0.409400
O171	O17	0.963800	0.333300	0.159470
O181	O18	0.811000	0.395600	0.128970
O191	O19	0.245700	0.727400	0.300610
O201	O20	0.149800	0.764100	0.302500
O211	O21	0.224700	0.804700	0.328470
O221	O22	0.749600	0.666500	0.836230
O231	O23	0.743300	0.743300	0.909400
O241	O24	0.036200	0.666700	0.659470
O251	O25	0.189000	0.604400	0.628970
O261	O26	0.754300	0.272600	0.800610
O271	O27	0.850200	0.235900	0.802500
O281	O28	0.775300	0.195300	0.828470
Cd71	Cd7	0.870500	0.691090	0.731900
Cd81	Cd8	0.129500	0.308910	0.231900
Cd91	Cd9	0.308910	0.129500	0.018100
Cd101	Cd10	0.691090	0.870500	0.518100
Cd111	Cd11	0.796810	0.796810	0.625000
Cd121	Cd12	0.203190	0.203190	0.125000
H1411	H141	0.755500	0.293000	0.661400
H1421	H142	0.748800	0.297400	0.592700
H1431	H143	0.018100	0.323700	0.825800
H1441	H144	0.166000	0.415700	0.859600
H1451	H145	0.736400	0.670700	0.596100
H1461	H146	0.742700	0.557200	0.593500
H1471	H147	0.873700	0.559100	0.654100
H1481	H148	0.866600	0.673900	0.655100
H1491	H149	0.754700	0.460600	0.656800
H1501	H150	0.883700	0.519400	0.583300
H1511	H151	0.944500	0.346100	0.551400
H1521	H152	0.891000	0.289600	0.585100
H1531	H153	0.897600	0.306700	0.663100
H1541	H154	0.967900	0.254900	0.692200
H1551	H155	0.918100	0.078900	0.659500
H1561	H156	0.757900	0.128800	0.596300
H1571	H157	0.814600	0.922800	0.584400
H1581	H158	0.830700	0.034900	0.584400
H1591	H159	0.814900	0.031700	0.665100
H1601	H160	0.797400	0.919500	0.662900
H1611	H161	0.840600	0.618900	0.786700
H1621	H162	0.884400	0.560300	0.821300
H1631	H163	0.051100	0.554000	0.781100
H1641	H164	0.004400	0.615200	0.748300
H1651	H165	0.012200	0.635600	0.841800
H1661	H166	0.092700	0.608500	0.916300
H1671	H167	0.088400	0.495700	0.911100
H1681	H168	0.991600	0.423500	0.807800
H1691	H169	0.954700	0.389000	0.895100
H1701	H170	0.886400	0.349400	0.928600
H1711	H171	0.046400	0.275500	0.967800
H1721	H172	0.223400	0.321800	0.911400
H1731	H173	0.113900	0.188400	0.953600
H1741	H174	0.245900	0.335700	0.960700
H1751	H175	0.304300	0.271900	0.991100
H1761	H176	0.244500	0.707000	0.161400
H1771	H177	0.251200	0.702600	0.092700
H1781	H178	0.981900	0.676300	0.325800
H1791	H179	0.834000	0.584300	0.359600
H1801	H180	0.263600	0.329300	0.096100
H1811	H181	0.257300	0.442800	0.093500
H1821	H182	0.126300	0.440900	0.154100
H1831	H183	0.133400	0.326100	0.155100
H1841	H184	0.245300	0.539400	0.156800
H1851	H185	0.116300	0.480600	0.083300
H1861	H186	0.055500	0.653900	0.051400
H1871	H187	0.109000	0.710400	0.085100
H1881	H188	0.102400	0.693300	0.163100
H1891	H189	0.032100	0.745100	0.192200
H1901	H190	0.081900	0.921100	0.159500
H1911	H191	0.242100	0.871200	0.096300
H1921	H192	0.185400	0.077200	0.084400
H1931	H193	0.169300	0.965100	0.084400
H1941	H194	0.185100	0.968300	0.165100
H1951	H195	0.202600	0.080500	0.162900
H1961	H196	0.159400	0.381100	0.286700
H1971	H197	0.115600	0.439700	0.321300
H1981	H198	0.948900	0.446000	0.281100
H1991	H199	0.995600	0.384800	0.248300
H2001	H200	0.987800	0.364400	0.341800
H2011	H201	0.907300	0.391500	0.416300
H2021	H202	0.911600	0.504300	0.411100
H2031	H203	0.008400	0.576500	0.307800
H2041	H204	0.045300	0.611000	0.395100
H2051	H205	0.113600	0.650600	0.428600
H2061	H206	0.953600	0.724500	0.467800
H2071	H207	0.776600	0.678200	0.411400
H2081	H208	0.886100	0.811600	0.453600
H2091	H209	0.754100	0.664300	0.460700
H2101	H210	0.695700	0.728100	0.491100
H2111	H211	0.707000	0.244500	0.088600
H2121	H212	0.702600	0.251200	0.157300
H2131	H213	0.676300	0.981900	0.924200
H2141	H214	0.584300	0.834000	0.890400
H2151	H215	0.329300	0.263600	0.153900
H2161	H216	0.442800	0.257300	0.156500
H2171	H217	0.440900	0.126300	0.095900
H2181	H218	0.326100	0.133400	0.094900
H2191	H219	0.539400	0.245300	0.093200
H2201	H220	0.480600	0.116300	0.166700
H2211	H221	0.653900	0.055500	0.198600
H2221	H222	0.710400	0.109000	0.164900
H2231	H223	0.693300	0.102400	0.086900
H2241	H224	0.745100	0.032100	0.057800
H2251	H225	0.921100	0.081900	0.090500
H2261	H226	0.871200	0.242100	0.153700
H2271	H227	0.077200	0.185400	0.165600
H2281	H228	0.965100	0.169300	0.165600
H2291	H229	0.968300	0.185100	0.084900
H2301	H230	0.080500	0.202600	0.087100
H2311	H231	0.381100	0.159400	0.963300
H2321	H232	0.439700	0.115600	0.928700
H2331	H233	0.446000	0.948900	0.968900
H2341	H234	0.384800	0.995600	0.001700
H2351	H235	0.364400	0.987800	0.908200
H2361	H236	0.391500	0.907300	0.833700
H2371	H237	0.504300	0.911600	0.838900
H2381	H238	0.576500	0.008400	0.942200
H2391	H239	0.611000	0.045300	0.854900
H2401	H240	0.650600	0.113600	0.821400
H2411	H241	0.724500	0.953600	0.782200
H2421	H242	0.678200	0.776600	0.838600
H2431	H243	0.811600	0.886100	0.796400
H2441	H244	0.664300	0.754100	0.789300
H2451	H245	0.728100	0.695700	0.758900
H2461	H246	0.293000	0.755500	0.588600
H2471	H247	0.297400	0.748800	0.657300
H2481	H248	0.323700	0.018100	0.424200
H2491	H249	0.415700	0.166000	0.390400
H2501	H250	0.670700	0.736400	0.653900
H2511	H251	0.557200	0.742700	0.656500
H2521	H252	0.559100	0.873700	0.595900
H2531	H253	0.673900	0.866600	0.594900
H2541	H254	0.460600	0.754700	0.593200
H2551	H255	0.519400	0.883700	0.666700
H2561	H256	0.346100	0.944500	0.698600
H2571	H257	0.289600	0.891000	0.664900
H2581	H258	0.306700	0.897600	0.586900
H2591	H259	0.254900	0.967900	0.557800
H2601	H260	0.078900	0.918100	0.590500
H2611	H261	0.128800	0.757900	0.653700
H2621	H262	0.922800	0.814600	0.665600
H2631	H263	0.034900	0.830700	0.665600
H2641	H264	0.031700	0.814900	0.584900
H2651	H265	0.919500	0.797400	0.587100
H2661	H266	0.618900	0.840600	0.463300
H2671	H267	0.560300	0.884400	0.428700
H2681	H268	0.554000	0.051100	0.468900
H2691	H269	0.615200	0.004400	0.501700
H2701	H270	0.635600	0.012200	0.408200
H2711	H271	0.608500	0.092700	0.333700
H2721	H272	0.495700	0.088400	0.338900
H2731	H273	0.423500	0.991600	0.442200
H2741	H274	0.389000	0.954700	0.354900
H2751	H275	0.349400	0.886400	0.321400
H2761	H276	0.275500	0.046400	0.282200
H2771	H277	0.321800	0.223400	0.338600
H2781	H278	0.188400	0.113900	0.296400
H2791	H279	0.335700	0.245900	0.289300
H2801	H280	0.271900	0.304300	0.258900
C2411	C241	0.764100	0.647800	0.608380
C2421	C242	0.767500	0.579900	0.606740
C2431	C243	0.807000	0.545000	0.624460
C2441	C244	0.844400	0.581000	0.642190
C2451	C245	0.839700	0.650000	0.642810
C2461	C246	0.810700	0.472500	0.623410
C2471	C247	0.778700	0.437400	0.643410
C2481	C248	0.780800	0.367400	0.644390
C2491	C249	0.816500	0.332600	0.625190
C2501	C250	0.851500	0.369000	0.604420
C2511	C251	0.849200	0.437800	0.603910
C2521	C252	0.884800	0.472700	0.583760
C2531	C253	0.920100	0.438900	0.565400
C2541	C254	0.921300	0.369200	0.565100
C2551	C255	0.888700	0.336400	0.584690
C2561	C256	0.818900	0.259600	0.625660
C2571	C257	0.861400	0.226100	0.644110
C2581	C258	0.900800	0.260000	0.662500
C2591	C259	0.943300	0.230100	0.679510
C2601	C260	0.950200	0.161300	0.677950
C2611	C261	0.912600	0.125300	0.660340
C2621	C262	0.866300	0.155600	0.643550
C2631	C263	0.825100	0.120500	0.625160
C2641	C264	0.785500	0.153200	0.608070
C2651	C265	0.783500	0.223700	0.607170
C2661	C266	0.813400	0.945500	0.601170
C2671	C267	0.822900	0.012700	0.600970
C2681	C268	0.821000	0.047400	0.624440
C2691	C269	0.813400	0.010500	0.648050
C2701	C270	0.803700	0.943400	0.646640
C2711	C271	0.885800	0.606900	0.785730
C2721	C272	0.911300	0.570800	0.806240
C2731	C273	0.974500	0.549600	0.805550
C2741	C274	0.006700	0.567700	0.783300
C2751	C275	0.978900	0.604500	0.763700
C2761	C276	0.003800	0.507600	0.827120
C2771	C277	0.027400	0.536700	0.851460
C2781	C278	0.026900	0.606900	0.855700
C2791	C279	0.047700	0.631700	0.879600
C2801	C280	0.074700	0.589900	0.900400
C2811	C281	0.073900	0.523600	0.896910
C2821	C282	0.051800	0.495400	0.872470
C2831	C283	0.054800	0.426100	0.868450
C2841	C284	0.033200	0.400100	0.844460
C2851	C285	0.007100	0.442500	0.824080
C2861	C286	0.083400	0.383100	0.889950
C2871	C287	0.043300	0.356100	0.910310
C2881	C288	0.973500	0.365700	0.909810
C2891	C289	0.932700	0.342700	0.929580
C2901	C290	0.961500	0.308200	0.951700
C2911	C291	0.028300	0.298000	0.952730
C2921	C292	0.070000	0.319500	0.932460
C2931	C293	0.140500	0.307700	0.931710
C2941	C294	0.177600	0.331300	0.911580
C2951	C295	0.149800	0.370500	0.890300
C2961	C296	0.190800	0.168800	0.978990
C2971	C297	0.153400	0.206200	0.960830
C2981	C298	0.173000	0.268100	0.953330
C2991	C299	0.230800	0.292700	0.965120
C3001	C300	0.265600	0.254300	0.983150
C3011	C301	0.235900	0.352200	0.108380
C3021	C302	0.232500	0.420100	0.106740
C3031	C303	0.193000	0.455000	0.124460
C3041	C304	0.155600	0.419000	0.142190
C3051	C305	0.160300	0.350000	0.142810
C3061	C306	0.189300	0.527500	0.123410
C3071	C307	0.221300	0.562600	0.143410
C3081	C308	0.219200	0.632600	0.144390
C3091	C309	0.183500	0.667400	0.125190
C3101	C310	0.148500	0.631000	0.104420
C3111	C311	0.150800	0.562200	0.103910
C3121	C312	0.115200	0.527300	0.083760
C3131	C313	0.079900	0.561100	0.065400
C3141	C314	0.078700	0.630800	0.065100
C3151	C315	0.111300	0.663600	0.084690
C3161	C316	0.181100	0.740400	0.125660
C3171	C317	0.138600	0.773900	0.144110
C3181	C318	0.099200	0.740000	0.162500
C3191	C319	0.056700	0.769900	0.179510
C3201	C320	0.049800	0.838700	0.177950
C3211	C321	0.087400	0.874700	0.160340
C3221	C322	0.133700	0.844400	0.143550
C3231	C323	0.174900	0.879500	0.125160
C3241	C324	0.214500	0.846800	0.108070
C3251	C325	0.216500	0.776300	0.107170
C3261	C326	0.186600	0.054500	0.101170
C3271	C327	0.177100	0.987300	0.100970
C3281	C328	0.179000	0.952600	0.124440
C3291	C329	0.186600	0.989500	0.148050
C3301	C330	0.196300	0.056600	0.146640
C3311	C331	0.114200	0.393100	0.285730
C3321	C332	0.088700	0.429200	0.306240
C3331	C333	0.025500	0.450400	0.305550
C3341	C334	0.993300	0.432300	0.283300
C3351	C335	0.021100	0.395500	0.263700
C3361	C336	0.996200	0.492400	0.327120
C3371	C337	0.972600	0.463300	0.351460
C3381	C338	0.973100	0.393100	0.355700
C3391	C339	0.952300	0.368300	0.379600
C3401	C340	0.925300	0.410100	0.400400
C3411	C341	0.926100	0.476400	0.396910
C3421	C342	0.948200	0.504600	0.372470
C3431	C343	0.945200	0.573900	0.368450
C3441	C344	0.966800	0.599900	0.344460
C3451	C345	0.992900	0.557500	0.324080
C3461	C346	0.916600	0.616900	0.389950
C3471	C347	0.956700	0.643900	0.410310
C3481	C348	0.026500	0.634300	0.409810
C3491	C349	0.067300	0.657300	0.429580
C3501	C350	0.038500	0.691800	0.451700
C3511	C351	0.971700	0.702000	0.452730
C3521	C352	0.930000	0.680500	0.432460
C3531	C353	0.859500	0.692300	0.431710
C3541	C354	0.822400	0.668700	0.411580
C3551	C355	0.850200	0.629500	0.390300
C3561	C356	0.809200	0.831200	0.478990
C3571	C357	0.846600	0.793800	0.460830
C3581	C358	0.827000	0.731900	0.453330
C3591	C359	0.769200	0.707300	0.465120
C3601	C360	0.734400	0.745700	0.483150
C3611	C361	0.352200	0.235900	0.141620
C3621	C362	0.420100	0.232500	0.143260
C3631	C363	0.455000	0.193000	0.125540
C3641	C364	0.419000	0.155600	0.107810
C3651	C365	0.350000	0.160300	0.107190
C3661	C366	0.527500	0.189300	0.126590
C3671	C367	0.562600	0.221300	0.106590
C3681	C368	0.632600	0.219200	0.105610
C3691	C369	0.667400	0.183500	0.124810
C3701	C370	0.631000	0.148500	0.145580
C3711	C371	0.562200	0.150800	0.146090
C3721	C372	0.527300	0.115200	0.166240
C3731	C373	0.561100	0.079900	0.184600
C3741	C374	0.630800	0.078700	0.184900
C3751	C375	0.663600	0.111300	0.165310
C3761	C376	0.740400	0.181100	0.124340
C3771	C377	0.773900	0.138600	0.105890
C3781	C378	0.740000	0.099200	0.087500
C3791	C379	0.769900	0.056700	0.070490
C3801	C380	0.838700	0.049800	0.072050
C3811	C381	0.874700	0.087400	0.089660
C3821	C382	0.844400	0.133700	0.106450
C3831	C383	0.879500	0.174900	0.124840
C3841	C384	0.846800	0.214500	0.141930
C3851	C385	0.776300	0.216500	0.142830
C3861	C386	0.054500	0.186600	0.148830
C3871	C387	0.987300	0.177100	0.149030
C3881	C388	0.952600	0.179000	0.125560
C3891	C389	0.989500	0.186600	0.101950
C3901	C390	0.056600	0.196300	0.103360
C3911	C391	0.393100	0.114200	0.964270
C3921	C392	0.429200	0.088700	0.943760
C3931	C393	0.450400	0.025500	0.944450
C3941	C394	0.432300	0.993300	0.966700
C3951	C395	0.395500	0.021100	0.986300
C3961	C396	0.492400	0.996200	0.922880
C3971	C397	0.463300	0.972600	0.898540
C3981	C398	0.393100	0.973100	0.894300
C3991	C399	0.368300	0.952300	0.870400
C4001	C400	0.410100	0.925300	0.849600
C4011	C401	0.476400	0.926100	0.853090
C4021	C402	0.504600	0.948200	0.877530
C4031	C403	0.573900	0.945200	0.881550
C4041	C404	0.599900	0.966800	0.905540
C4051	C405	0.557500	0.992900	0.925920
C4061	C406	0.616900	0.916600	0.860050
C4071	C407	0.643900	0.956700	0.839690
C4081	C408	0.634300	0.026500	0.840190
C4091	C409	0.657300	0.067300	0.820420
C4101	C410	0.691800	0.038500	0.798300
C4111	C411	0.702000	0.971700	0.797270
C4121	C412	0.680500	0.930000	0.817540
C4131	C413	0.692300	0.859500	0.818290
C4141	C414	0.668700	0.822400	0.838420
C4151	C415	0.629500	0.850200	0.859700
C4161	C416	0.831200	0.809200	0.771010
C4171	C417	0.793800	0.846600	0.789170
C4181	C418	0.731900	0.827000	0.796670
C4191	C419	0.707300	0.769200	0.784880
C4201	C420	0.745700	0.734400	0.766850
C4211	C421	0.647800	0.764100	0.641620
C4221	C422	0.579900	0.767500	0.643260
C4231	C423	0.545000	0.807000	0.625540
C4241	C424	0.581000	0.844400	0.607810
C4251	C425	0.650000	0.839700	0.607190
C4261	C426	0.472500	0.810700	0.626590
C4271	C427	0.437400	0.778700	0.606590
C4281	C428	0.367400	0.780800	0.605610
C4291	C429	0.332600	0.816500	0.624810
C4301	C430	0.369000	0.851500	0.645580
C4311	C431	0.437800	0.849200	0.646090
C4321	C432	0.472700	0.884800	0.666240
C4331	C433	0.438900	0.920100	0.684600
C4341	C434	0.369200	0.921300	0.684900
C4351	C435	0.336400	0.888700	0.665310
C4361	C436	0.259600	0.818900	0.624340
C4371	C437	0.226100	0.861400	0.605890
C4381	C438	0.260000	0.900800	0.587500
C4391	C439	0.230100	0.943300	0.570490
C4401	C440	0.161300	0.950200	0.572050
C4411	C441	0.125300	0.912600	0.589660
C4421	C442	0.155600	0.866300	0.606450
C4431	C443	0.120500	0.825100	0.624840
C4441	C444	0.153200	0.785500	0.641930
C4451	C445	0.223700	0.783500	0.642830
C4461	C446	0.945500	0.813400	0.648830
C4471	C447	0.012700	0.822900	0.649030
C4481	C448	0.047400	0.821000	0.625560
C4491	C449	0.010500	0.813400	0.601950
C4501	C450	0.943400	0.803700	0.603360
C4511	C451	0.606900	0.885800	0.464270
C4521	C452	0.570800	0.911300	0.443760
C4531	C453	0.549600	0.974500	0.444450
C4541	C454	0.567700	0.006700	0.466700
C4551	C455	0.604500	0.978900	0.486300
C4561	C456	0.507600	0.003800	0.422880
C4571	C457	0.536700	0.027400	0.398540
C4581	C458	0.606900	0.026900	0.394300
C4591	C459	0.631700	0.047700	0.370400
C4601	C460	0.589900	0.074700	0.349600
C4611	C461	0.523600	0.073900	0.353090
C4621	C462	0.495400	0.051800	0.377530
C4631	C463	0.426100	0.054800	0.381550
C4641	C464	0.400100	0.033200	0.405540
C4651	C465	0.442500	0.007100	0.425920
C4661	C466	0.383100	0.083400	0.360050
C4671	C467	0.356100	0.043300	0.339690
C4681	C468	0.365700	0.973500	0.340190
C4691	C469	0.342700	0.932700	0.320420
C4701	C470	0.308200	0.961500	0.298300
C4711	C471	0.298000	0.028300	0.297270
C4721	C472	0.319500	0.070000	0.317540
C4731	C473	0.307700	0.140500	0.318290
C4741	C474	0.331300	0.177600	0.338420
C4751	C475	0.370500	0.149800	0.359700
C4761	C476	0.168800	0.190800	0.271010
C4771	C477	0.206200	0.153400	0.289170
C4781	C478	0.268100	0.173000	0.296670
C4791	C479	0.292700	0.230800	0.284880
C4801	C480	0.254300	0.265600	0.266850
N211	N21	0.798900	0.683170	0.626810
N221	N22	0.802900	0.910700	0.623360
N231	N23	0.919000	0.625800	0.765030
N241	N24	0.246500	0.192700	0.989800
N251	N25	0.794700	0.767800	0.690150
N261	N26	0.201100	0.316830	0.126810
N271	N27	0.197100	0.089300	0.123360
N281	N28	0.081000	0.374200	0.265030
N291	N29	0.753500	0.807300	0.489800
N301	N30	0.205300	0.232200	0.190150
N311	N31	0.316830	0.201100	0.123190
N321	N32	0.089300	0.197100	0.126640
N331	N33	0.374200	0.081000	0.984970
N341	N34	0.807300	0.753500	0.760200
N351	N35	0.232200	0.205300	0.059850
N361	N36	0.683170	0.798900	0.623190
N371	N37	0.910700	0.802900	0.626640
N381	N38	0.625800	0.919000	0.484970
N391	N39	0.192700	0.246500	0.260200
N401	N40	0.767800	0.794700	0.559850
Cl171	Cl17	0.964200	0.480550	0.540370
Cl181	Cl18	0.004880	0.122220	0.699620
Cl191	Cl19	0.045800	0.716200	0.885160
Cl201	Cl20	0.909190	0.279040	0.976590
Cl211	Cl21	0.035800	0.519450	0.040370
Cl221	Cl22	0.995120	0.877780	0.199620
Cl231	Cl23	0.954200	0.283800	0.385160
Cl241	Cl24	0.090810	0.720960	0.476590
Cl251	Cl25	0.519450	0.035800	0.209630
Cl261	Cl26	0.877780	0.995120	0.050380
Cl271	Cl27	0.283800	0.954200	0.864840
Cl281	Cl28	0.720960	0.090810	0.773410
Cl291	Cl29	0.480550	0.964200	0.709630
Cl301	Cl30	0.122220	0.004880	0.550380
Cl311	Cl31	0.716200	0.045800	0.364840
Cl321	Cl32	0.279040	0.909190	0.273410
O291	O29	0.749600	0.333500	0.663770
O301	O30	0.743300	0.256700	0.590600
O311	O31	0.036200	0.333300	0.840530
O321	O32	0.189000	0.395600	0.871030
O331	O33	0.754300	0.727400	0.699390
O341	O34	0.850200	0.764100	0.697500
O351	O35	0.775300	0.804700	0.671530
O361	O36	0.250400	0.666500	0.163770
O371	O37	0.256700	0.743300	0.090600
O381	O38	0.963800	0.666700	0.340530
O391	O39	0.811000	0.604400	0.371030
O401	O40	0.245700	0.272600	0.199390
O411	O41	0.149800	0.235900	0.197500
O421	O42	0.224700	0.195300	0.171530
O431	O43	0.666500	0.250400	0.086230
O441	O44	0.743300	0.256700	0.159400
O451	O45	0.666700	0.963800	0.909470
O461	O46	0.604400	0.811000	0.878970
O471	O47	0.272600	0.245700	0.050610
O481	O48	0.235900	0.149800	0.052500
O491	O49	0.195300	0.224700	0.078470
O501	O50	0.333500	0.749600	0.586230
O511	O51	0.256700	0.743300	0.659400
O521	O52	0.333300	0.036200	0.409470
O531	O53	0.395600	0.189000	0.378970
O541	O54	0.727400	0.754300	0.550610
O551	O55	0.764100	0.850200	0.552500
O561	O56	0.804700	0.775300	0.578470
