data_SEYNAM_clean_PM
_symmetry_space_group_name_H-M	'P1'
_cell_length_a	11.237400
_cell_length_b	11.237400
_cell_length_c	37.096000
_cell_angle_alpha	90.000000
_cell_angle_beta	90.000000
_cell_angle_gamma	90.000000
_symmetry_Int_Tables_number 1

loop_
_symmetry_equiv_pos_as_xyz
'x,y,z'

loop_
_atom_site_label
_atom_site_type_symbol
_atom_site_fract_x
_atom_site_fract_y
_atom_site_fract_z
Cu11	Cu1	0.696750	0.696990	0.560540
O11	O1	0.609100	0.617800	0.597420
O21	O2	0.617200	0.609100	0.523140
O31	O3	0.486500	0.490800	0.622600
O41	O4	0.491900	0.487600	0.497500
N11	N1	0.795300	0.770900	0.599900
N21	N2	0.773800	0.794200	0.521300
N31	N3	0.153100	0.866300	0.753300
N41	N4	0.869000	0.152200	0.367000
C11	C1	0.916600	0.764400	0.599300
H11	H1	0.954400	0.739700	0.578300
C21	C2	0.983000	0.792400	0.628100
H21	H2	0.065500	0.793400	0.626100
C31	C3	0.931300	0.819400	0.660400
C41	C4	0.814000	0.829100	0.660500
H31	H3	0.775500	0.854500	0.681400
C51	C5	0.748000	0.802200	0.630400
H41	H4	0.665500	0.806700	0.632000
C61	C6	0.007100	0.838900	0.693200
C71	C7	0.131000	0.840600	0.691600
H51	H5	0.168400	0.837400	0.669200
C81	C8	0.195400	0.846000	0.720800
H61	H6	0.277100	0.835900	0.718400
C91	C9	0.038300	0.870500	0.755100
H71	H7	0.004000	0.883000	0.777600
C101	C10	0.963200	0.857700	0.725800
H81	H8	0.881300	0.862200	0.729000
C111	C11	0.769900	0.913100	0.522700
H91	H9	0.751700	0.949500	0.544600
C121	C12	0.791700	0.983600	0.493200
H101	H10	0.786700	0.065900	0.495400
C131	C13	0.820600	0.933900	0.460800
C141	C14	0.825800	0.810400	0.459100
H111	H11	0.845200	0.771300	0.437800
C151	C15	0.800900	0.747700	0.490600
H121	H12	0.804100	0.665100	0.489400
C161	C16	0.838400	0.010300	0.428300
C171	C17	0.838100	0.129100	0.430200
H131	H13	0.830100	0.167100	0.452300
C181	C18	0.849800	0.194900	0.398900
H141	H14	0.843300	0.277100	0.401000
C191	C19	0.867300	0.037800	0.365800
H151	H15	0.874900	0.003100	0.343100
C201	C20	0.855400	0.961600	0.394600
H161	H16	0.858800	0.879600	0.391400
C211	C21	0.536600	0.533300	0.525000
C221	C22	0.488700	0.488000	0.560400
H171	H17	0.403100	0.498900	0.559700
H181	H18	0.502800	0.402900	0.560800
C231	C23	0.530300	0.535700	0.595600
Cu21	Cu2	0.303250	0.303010	0.060540
O51	O5	0.390900	0.382200	0.097420
O61	O6	0.382800	0.390900	0.023140
O71	O7	0.513500	0.509200	0.122600
O81	O8	0.508100	0.512400	0.997500
N51	N5	0.204700	0.229100	0.099900
N61	N6	0.226200	0.205800	0.021300
N71	N7	0.846900	0.133700	0.253300
N81	N8	0.131000	0.847800	0.867000
C241	C24	0.083400	0.235600	0.099300
H191	H19	0.045600	0.260300	0.078300
C251	C25	0.017000	0.207600	0.128100
H201	H20	0.934500	0.206600	0.126100
C261	C26	0.068700	0.180600	0.160400
C271	C27	0.186000	0.170900	0.160500
H211	H21	0.224500	0.145500	0.181400
C281	C28	0.252000	0.197800	0.130400
H221	H22	0.334500	0.193300	0.132000
C291	C29	0.992900	0.161100	0.193200
C301	C30	0.869000	0.159400	0.191600
H231	H23	0.831600	0.162600	0.169200
C311	C31	0.804600	0.154000	0.220800
H241	H24	0.722900	0.164100	0.218400
C321	C32	0.961700	0.129500	0.255100
H251	H25	0.996000	0.117000	0.277600
C331	C33	0.036800	0.142300	0.225800
H261	H26	0.118700	0.137800	0.229000
C341	C34	0.230100	0.086900	0.022700
H271	H27	0.248300	0.050500	0.044600
C351	C35	0.208300	0.016400	0.993200
H281	H28	0.213300	0.934100	0.995400
C361	C36	0.179400	0.066100	0.960800
C371	C37	0.174200	0.189600	0.959100
H291	H29	0.154800	0.228700	0.937800
C381	C38	0.199100	0.252300	0.990600
H301	H30	0.195900	0.334900	0.989400
C391	C39	0.161600	0.989700	0.928300
C401	C40	0.161900	0.870900	0.930200
H311	H31	0.169900	0.832900	0.952300
C411	C41	0.150200	0.805100	0.898900
H321	H32	0.156700	0.722900	0.901000
C421	C42	0.132700	0.962200	0.865800
H331	H33	0.125100	0.996900	0.843100
C431	C43	0.144600	0.038400	0.894600
H341	H34	0.141200	0.120400	0.891400
C441	C44	0.463400	0.466700	0.025000
C451	C45	0.511300	0.512000	0.060400
H351	H35	0.596900	0.501100	0.059700
H361	H36	0.497200	0.597100	0.060800
C461	C46	0.469700	0.464300	0.095600
Cu31	Cu3	0.303010	0.696750	0.310540
O91	O9	0.382200	0.609100	0.347420
O101	O10	0.390900	0.617200	0.273140
O111	O11	0.509200	0.486500	0.372600
O121	O12	0.512400	0.491900	0.247500
N91	N9	0.229100	0.795300	0.349900
N101	N10	0.205800	0.773800	0.271300
N111	N11	0.133700	0.153100	0.503300
N121	N12	0.847800	0.869000	0.117000
C471	C47	0.235600	0.916600	0.349300
H371	H37	0.260300	0.954400	0.328300
C481	C48	0.207600	0.983000	0.378100
H381	H38	0.206600	0.065500	0.376100
C491	C49	0.180600	0.931300	0.410400
C501	C50	0.170900	0.814000	0.410500
H391	H39	0.145500	0.775500	0.431400
C511	C51	0.197800	0.748000	0.380400
H401	H40	0.193300	0.665500	0.382000
C521	C52	0.161100	0.007100	0.443200
C531	C53	0.159400	0.131000	0.441600
H411	H41	0.162600	0.168400	0.419200
C541	C54	0.154000	0.195400	0.470800
H421	H42	0.164100	0.277100	0.468400
C551	C55	0.129500	0.038300	0.505100
H431	H43	0.117000	0.004000	0.527600
C561	C56	0.142300	0.963200	0.475800
H441	H44	0.137800	0.881300	0.479000
C571	C57	0.086900	0.769900	0.272700
H451	H45	0.050500	0.751700	0.294600
C581	C58	0.016400	0.791700	0.243200
H461	H46	0.934100	0.786700	0.245400
C591	C59	0.066100	0.820600	0.210800
C601	C60	0.189600	0.825800	0.209100
H471	H47	0.228700	0.845200	0.187800
C611	C61	0.252300	0.800900	0.240600
H481	H48	0.334900	0.804100	0.239400
C621	C62	0.989700	0.838400	0.178300
C631	C63	0.870900	0.838100	0.180200
H491	H49	0.832900	0.830100	0.202300
C641	C64	0.805100	0.849800	0.148900
H501	H50	0.722900	0.843300	0.151000
C651	C65	0.962200	0.867300	0.115800
H511	H51	0.996900	0.874900	0.093100
C661	C66	0.038400	0.855400	0.144600
H521	H52	0.120400	0.858800	0.141400
C671	C67	0.466700	0.536600	0.275000
C681	C68	0.512000	0.488700	0.310400
H531	H53	0.501100	0.403100	0.309700
H541	H54	0.597100	0.502800	0.310800
C691	C69	0.464300	0.530300	0.345600
Cu41	Cu4	0.696990	0.303250	0.810540
O131	O13	0.617800	0.390900	0.847420
O141	O14	0.609100	0.382800	0.773140
O151	O15	0.490800	0.513500	0.872600
O161	O16	0.487600	0.508100	0.747500
N131	N13	0.770900	0.204700	0.849900
N141	N14	0.794200	0.226200	0.771300
N151	N15	0.866300	0.846900	0.003300
N161	N16	0.152200	0.131000	0.617000
C701	C70	0.764400	0.083400	0.849300
H551	H55	0.739700	0.045600	0.828300
C711	C71	0.792400	0.017000	0.878100
H561	H56	0.793400	0.934500	0.876100
C721	C72	0.819400	0.068700	0.910400
C731	C73	0.829100	0.186000	0.910500
H571	H57	0.854500	0.224500	0.931400
C741	C74	0.802200	0.252000	0.880400
H581	H58	0.806700	0.334500	0.882000
C751	C75	0.838900	0.992900	0.943200
C761	C76	0.840600	0.869000	0.941600
H591	H59	0.837400	0.831600	0.919200
C771	C77	0.846000	0.804600	0.970800
H601	H60	0.835900	0.722900	0.968400
C781	C78	0.870500	0.961700	0.005100
H611	H61	0.883000	0.996000	0.027600
C791	C79	0.857700	0.036800	0.975800
H621	H62	0.862200	0.118700	0.979000
C801	C80	0.913100	0.230100	0.772700
H631	H63	0.949500	0.248300	0.794600
C811	C81	0.983600	0.208300	0.743200
H641	H64	0.065900	0.213300	0.745400
C821	C82	0.933900	0.179400	0.710800
C831	C83	0.810400	0.174200	0.709100
H651	H65	0.771300	0.154800	0.687800
C841	C84	0.747700	0.199100	0.740600
H661	H66	0.665100	0.195900	0.739400
C851	C85	0.010300	0.161600	0.678300
C861	C86	0.129100	0.161900	0.680200
H671	H67	0.167100	0.169900	0.702300
C871	C87	0.194900	0.150200	0.648900
H681	H68	0.277100	0.156700	0.651000
C881	C88	0.037800	0.132700	0.615800
H691	H69	0.003100	0.125100	0.593100
C891	C89	0.961600	0.144600	0.644600
H701	H70	0.879600	0.141200	0.641400
C901	C90	0.533300	0.463400	0.775000
C911	C91	0.488000	0.511300	0.810400
H711	H71	0.498900	0.596900	0.809700
H721	H72	0.402900	0.497200	0.810800
C921	C92	0.535700	0.469700	0.845600
Cu51	Cu5	0.494000	0.499830	0.685830
N171	N17	0.308100	0.499700	0.686600
N181	N18	0.487500	0.315400	0.685340
N191	N19	0.677900	0.499300	0.686600
N201	N20	0.488500	0.684400	0.687700
C931	C93	0.245700	0.481800	0.655900
H731	H73	0.287800	0.467000	0.634800
C941	C94	0.123000	0.484400	0.654100
H741	H74	0.083800	0.477100	0.632100
C951	C95	0.060500	0.497900	0.685600
C961	C96	0.124900	0.516800	0.715700
H751	H75	0.086100	0.530900	0.737400
C971	C97	0.246600	0.515500	0.714700
H761	H76	0.287000	0.527100	0.736300
C981	C98	0.928200	0.499300	0.686200
C991	C99	0.862900	0.531600	0.715400
H771	H77	0.901800	0.554100	0.736500
C1001	C100	0.740700	0.531700	0.714700
H781	H78	0.700300	0.556200	0.735200
C1011	C101	0.741000	0.469400	0.656400
H791	H79	0.700000	0.449100	0.635500
C1021	C102	0.866000	0.468300	0.656000
H801	H80	0.906500	0.446500	0.635100
C1031	C103	0.528800	0.250000	0.656200
H811	H81	0.558500	0.290200	0.636300
C1041	C104	0.527100	0.127800	0.656000
H821	H82	0.554000	0.086500	0.635800
C1051	C105	0.485400	0.066100	0.685600
C1061	C106	0.442600	0.133100	0.714400
H831	H83	0.413300	0.095600	0.734900
C1071	C107	0.444100	0.255600	0.712200
H841	H84	0.411700	0.298300	0.731300
C1081	C108	0.485800	0.934900	0.686300
C1091	C109	0.444100	0.866600	0.657200
H851	H85	0.414600	0.904000	0.636700
C1101	C110	0.446800	0.746700	0.659000
H861	H86	0.418300	0.704100	0.639400
C1111	C111	0.527200	0.749500	0.714700
H871	H87	0.557200	0.710000	0.734800
C1121	C112	0.526400	0.868900	0.715400
H881	H88	0.553600	0.908300	0.735800
Cu61	Cu6	0.506000	0.500170	0.185830
N211	N21	0.691900	0.500300	0.186600
N221	N22	0.512500	0.684600	0.185340
N231	N23	0.322100	0.500700	0.186600
N241	N24	0.511500	0.315600	0.187700
C1131	C113	0.754300	0.518200	0.155900
H891	H89	0.712200	0.533000	0.134800
C1141	C114	0.877000	0.515600	0.154100
H901	H90	0.916200	0.522900	0.132100
C1151	C115	0.939500	0.502100	0.185600
C1161	C116	0.875100	0.483200	0.215700
H911	H91	0.913900	0.469100	0.237400
C1171	C117	0.753400	0.484500	0.214700
H921	H92	0.713000	0.472900	0.236300
C1181	C118	0.071800	0.500700	0.186200
C1191	C119	0.137100	0.468400	0.215400
H931	H93	0.098200	0.445900	0.236500
C1201	C120	0.259300	0.468300	0.214700
H941	H94	0.299700	0.443800	0.235200
C1211	C121	0.259000	0.530600	0.156400
H951	H95	0.300000	0.550900	0.135500
C1221	C122	0.134000	0.531700	0.156000
H961	H96	0.093500	0.553500	0.135100
C1231	C123	0.471200	0.750000	0.156200
H971	H97	0.441500	0.709800	0.136300
C1241	C124	0.472900	0.872200	0.156000
H981	H98	0.446000	0.913500	0.135800
C1251	C125	0.514600	0.933900	0.185600
C1261	C126	0.557400	0.866900	0.214400
H991	H99	0.586700	0.904400	0.234900
C1271	C127	0.555900	0.744400	0.212200
H1001	H100	0.588300	0.701700	0.231300
C1281	C128	0.514200	0.065100	0.186300
C1291	C129	0.555900	0.133400	0.157200
H1011	H101	0.585400	0.096000	0.136700
C1301	C130	0.553200	0.253300	0.159000
H1021	H102	0.581700	0.295900	0.139400
C1311	C131	0.472800	0.250500	0.214700
H1031	H103	0.442800	0.290000	0.234800
C1321	C132	0.473600	0.131100	0.215400
H1041	H104	0.446400	0.091700	0.235800
Cu71	Cu7	0.500170	0.494000	0.435830
N251	N25	0.500300	0.308100	0.436600
N261	N26	0.684600	0.487500	0.435340
N271	N27	0.500700	0.677900	0.436600
N281	N28	0.315600	0.488500	0.437700
C1331	C133	0.518200	0.245700	0.405900
H1051	H105	0.533000	0.287800	0.384800
C1341	C134	0.515600	0.123000	0.404100
H1061	H106	0.522900	0.083800	0.382100
C1351	C135	0.502100	0.060500	0.435600
C1361	C136	0.483200	0.124900	0.465700
H1071	H107	0.469100	0.086100	0.487400
C1371	C137	0.484500	0.246600	0.464700
H1081	H108	0.472900	0.287000	0.486300
C1381	C138	0.500700	0.928200	0.436200
C1391	C139	0.468400	0.862900	0.465400
H1091	H109	0.445900	0.901800	0.486500
C1401	C140	0.468300	0.740700	0.464700
H1101	H110	0.443800	0.700300	0.485200
C1411	C141	0.530600	0.741000	0.406400
H1111	H111	0.550900	0.700000	0.385500
C1421	C142	0.531700	0.866000	0.406000
H1121	H112	0.553500	0.906500	0.385100
C1431	C143	0.750000	0.528800	0.406200
H1131	H113	0.709800	0.558500	0.386300
C1441	C144	0.872200	0.527100	0.406000
H1141	H114	0.913500	0.554000	0.385800
C1451	C145	0.933900	0.485400	0.435600
C1461	C146	0.866900	0.442600	0.464400
H1151	H115	0.904400	0.413300	0.484900
C1471	C147	0.744400	0.444100	0.462200
H1161	H116	0.701700	0.411700	0.481300
C1481	C148	0.065100	0.485800	0.436300
C1491	C149	0.133400	0.444100	0.407200
H1171	H117	0.096000	0.414600	0.386700
C1501	C150	0.253300	0.446800	0.409000
H1181	H118	0.295900	0.418300	0.389400
C1511	C151	0.250500	0.527200	0.464700
H1191	H119	0.290000	0.557200	0.484800
C1521	C152	0.131100	0.526400	0.465400
H1201	H120	0.091700	0.553600	0.485800
Cu81	Cu8	0.499830	0.506000	0.935830
N291	N29	0.499700	0.691900	0.936600
N301	N30	0.315400	0.512500	0.935340
N311	N31	0.499300	0.322100	0.936600
N321	N32	0.684400	0.511500	0.937700
C1531	C153	0.481800	0.754300	0.905900
H1211	H121	0.467000	0.712200	0.884800
C1541	C154	0.484400	0.877000	0.904100
H1221	H122	0.477100	0.916200	0.882100
C1551	C155	0.497900	0.939500	0.935600
C1561	C156	0.516800	0.875100	0.965700
H1231	H123	0.530900	0.913900	0.987400
C1571	C157	0.515500	0.753400	0.964700
H1241	H124	0.527100	0.713000	0.986300
C1581	C158	0.499300	0.071800	0.936200
C1591	C159	0.531600	0.137100	0.965400
H1251	H125	0.554100	0.098200	0.986500
C1601	C160	0.531700	0.259300	0.964700
H1261	H126	0.556200	0.299700	0.985200
C1611	C161	0.469400	0.259000	0.906400
H1271	H127	0.449100	0.300000	0.885500
C1621	C162	0.468300	0.134000	0.906000
H1281	H128	0.446500	0.093500	0.885100
C1631	C163	0.250000	0.471200	0.906200
H1291	H129	0.290200	0.441500	0.886300
C1641	C164	0.127800	0.472900	0.906000
H1301	H130	0.086500	0.446000	0.885800
C1651	C165	0.066100	0.514600	0.935600
C1661	C166	0.133100	0.557400	0.964400
H1311	H131	0.095600	0.586700	0.984900
C1671	C167	0.255600	0.555900	0.962200
H1321	H132	0.298300	0.588300	0.981300
C1681	C168	0.934900	0.514200	0.936300
C1691	C169	0.866600	0.555900	0.907200
H1331	H133	0.904000	0.585400	0.886700
C1701	C170	0.746700	0.553200	0.909000
H1341	H134	0.704100	0.581700	0.889400
C1711	C171	0.749500	0.472800	0.964700
H1351	H135	0.710000	0.442800	0.984800
C1721	C172	0.868900	0.473600	0.965400
H1361	H136	0.908300	0.446400	0.985800
