data_SEYQIW_clean_PM
_symmetry_space_group_name_H-M	'P1'
_cell_length_a	15.847000
_cell_length_b	9.685000
_cell_length_c	18.333000
_cell_angle_alpha	90.000000
_cell_angle_beta	115.500000
_cell_angle_gamma	90.000000
_symmetry_Int_Tables_number 1

loop_
_symmetry_equiv_pos_as_xyz
'x,y,z'

loop_
_atom_site_label
_atom_site_type_symbol
_atom_site_fract_x
_atom_site_fract_y
_atom_site_fract_z
Zn11	Zn1	0.418000	0.124900	0.586100
O11	O1	0.358400	0.284700	0.502400
O21	O2	0.393600	0.965000	0.502500
O31	O3	0.466900	0.262600	0.682700
O41	O4	0.466200	0.986100	0.683500
O51	O5	0.221700	0.385500	0.431200
O61	O6	0.459200	0.864500	0.431300
C11	C1	0.272700	0.300700	0.480800
C21	C2	0.457500	0.950100	0.480700
Zn21	Zn2	0.918000	0.624900	0.586100
O71	O7	0.858400	0.784700	0.502400
O81	O8	0.893600	0.465000	0.502500
O91	O9	0.966900	0.762600	0.682700
O101	O10	0.966200	0.486100	0.683500
O111	O11	0.721700	0.885500	0.431200
O121	O12	0.959200	0.364500	0.431300
C31	C3	0.772700	0.800700	0.480800
C41	C4	0.957500	0.450100	0.480700
Zn31	Zn3	0.582000	0.124900	0.913900
O131	O13	0.641600	0.284700	0.997600
O141	O14	0.606400	0.965000	0.997500
O151	O15	0.533100	0.262600	0.817300
O161	O16	0.533800	0.986100	0.816500
O171	O17	0.778300	0.385500	0.068800
O181	O18	0.540800	0.864500	0.068700
C51	C5	0.727300	0.300700	0.019200
C61	C6	0.542500	0.950100	0.019300
Zn41	Zn4	0.082000	0.624900	0.913900
O191	O19	0.141600	0.784700	0.997600
O201	O20	0.106400	0.465000	0.997500
O211	O21	0.033100	0.762600	0.817300
O221	O22	0.033800	0.486100	0.816500
O231	O23	0.278300	0.885500	0.068800
O241	O24	0.040800	0.364500	0.068700
C71	C7	0.227300	0.800700	0.019200
C81	C8	0.042500	0.450100	0.019300
Zn51	Zn5	0.582000	0.875100	0.413900
O251	O25	0.641600	0.715300	0.497600
O261	O26	0.606400	0.035000	0.497500
O271	O27	0.533100	0.737400	0.317300
O281	O28	0.533800	0.013900	0.316500
O291	O29	0.778300	0.614500	0.568800
O301	O30	0.540800	0.135500	0.568700
C91	C9	0.727300	0.699300	0.519200
C101	C10	0.542500	0.049900	0.519300
Zn61	Zn6	0.082000	0.375100	0.413900
O311	O31	0.141600	0.215300	0.497600
O321	O32	0.106400	0.535000	0.497500
O331	O33	0.033100	0.237400	0.317300
O341	O34	0.033800	0.513900	0.316500
O351	O35	0.278300	0.114500	0.568800
O361	O36	0.040800	0.635500	0.568700
C111	C11	0.227300	0.199300	0.519200
C121	C12	0.042500	0.549900	0.519300
Zn71	Zn7	0.418000	0.875100	0.086100
O371	O37	0.358400	0.715300	0.002400
O381	O38	0.393600	0.035000	0.002500
O391	O39	0.466900	0.737400	0.182700
O401	O40	0.466200	0.013900	0.183500
O411	O41	0.221700	0.614500	0.931200
O421	O42	0.459200	0.135500	0.931300
C131	C13	0.272700	0.699300	0.980800
C141	C14	0.457500	0.049900	0.980700
Zn81	Zn8	0.918000	0.375100	0.086100
O431	O43	0.858400	0.215300	0.002400
O441	O44	0.893600	0.535000	0.002500
O451	O45	0.966900	0.237400	0.182700
O461	O46	0.966200	0.513900	0.183500
O471	O47	0.721700	0.114500	0.931200
O481	O48	0.959200	0.635500	0.931300
C151	C15	0.772700	0.199300	0.980800
C161	C16	0.957500	0.549900	0.980700
C171	C17	0.500000	0.204700	0.750000
C181	C18	0.500000	0.044000	0.750000
C191	C19	0.000000	0.704700	0.750000
C201	C20	0.000000	0.544000	0.750000
C211	C21	0.500000	0.795300	0.250000
C221	C22	0.500000	0.956000	0.250000
C231	C23	0.000000	0.295300	0.250000
C241	C24	0.000000	0.456000	0.250000
