data_SICDAL_clean_PM
_symmetry_space_group_name_H-M	'P1'
_cell_length_a	6.671600
_cell_length_b	7.644400
_cell_length_c	10.546800
_cell_angle_alpha	111.248000
_cell_angle_beta	102.922000
_cell_angle_gamma	90.000000
_symmetry_Int_Tables_number 1

loop_
_symmetry_equiv_pos_as_xyz
'x,y,z'

loop_
_atom_site_label
_atom_site_type_symbol
_atom_site_fract_x
_atom_site_fract_y
_atom_site_fract_z
Ga11	Ga1	0.426000	0.111800	0.224000
Ga21	Ga2	0.926000	0.112200	0.224000
H11	H1	0.204300	0.669900	0.894600
H21	H2	0.618900	0.553300	0.548600
H31	H3	0.053500	0.481500	0.647000
H41	H4	0.770700	0.741800	0.796200
H51	H5	0.161000	0.861200	0.187200
H61	H6	0.704300	0.224700	0.894600
H71	H7	0.118900	0.995300	0.548600
H81	H8	0.553500	0.165500	0.647000
H91	H9	0.270700	0.054400	0.796200
H101	H10	0.661000	0.326000	0.187200
C11	C1	0.589300	0.832100	0.007800
C21	C2	0.498100	0.714500	0.859400
C31	C3	0.617100	0.685100	0.763600
C41	C4	0.293600	0.643800	0.820600
C51	C5	0.530100	0.579800	0.622800
C61	C6	0.207200	0.537900	0.679600
C71	C7	0.326100	0.508900	0.584000
C81	C8	0.229000	0.391000	0.436600
C91	C9	0.089300	0.175700	0.007800
C101	C10	0.998100	0.144900	0.859400
C111	C11	0.117100	0.078500	0.763600
C121	C12	0.793600	0.176800	0.820600
C131	C13	0.030100	0.043000	0.622800
C141	C14	0.707200	0.141700	0.679600
C151	C15	0.826100	0.075100	0.584000
C161	C16	0.729000	0.045600	0.436600
O11	O1	0.472100	0.856600	0.091600
O21	O2	0.773200	0.908000	0.046600
O31	O3	0.342300	0.354300	0.350400
O41	O4	0.041000	0.330100	0.403600
O51	O5	0.172600	0.998500	0.213200
O61	O6	0.972100	0.235000	0.091600
O71	O7	0.273200	0.138600	0.046600
O81	O8	0.842300	0.996100	0.350400
O91	O9	0.541000	0.073500	0.403600
O101	O10	0.672600	0.214700	0.213200
