data_SIDCAL_clean_PM
_symmetry_space_group_name_H-M	'P1'
_cell_length_a	9.852300
_cell_length_b	19.524400
_cell_length_c	19.669900
_cell_angle_alpha	89.715000
_cell_angle_beta	83.058000
_cell_angle_gamma	87.776000
_symmetry_Int_Tables_number 1

loop_
_symmetry_equiv_pos_as_xyz
'x,y,z'

loop_
_atom_site_label
_atom_site_type_symbol
_atom_site_fract_x
_atom_site_fract_y
_atom_site_fract_z
Cd11	Cd1	0.999240	0.154160	0.076840
Cd21	Cd2	0.063660	0.573920	0.344310
C11	C1	0.983900	0.222300	0.196000
C21	C2	0.985700	0.258700	0.263800
C31	C3	0.005500	0.329300	0.266300
H11	H1	0.015900	0.355300	0.226300
C41	C4	0.009400	0.359900	0.329900
C51	C5	0.997100	0.320100	0.390200
H21	H2	0.000100	0.341100	0.432400
C61	C6	0.980700	0.250800	0.387400
C71	C7	0.970700	0.220400	0.323700
H31	H3	0.953800	0.174000	0.321600
C81	C8	0.033400	0.434400	0.332600
C91	C9	0.974400	0.207600	0.452400
C101	C10	0.984000	0.132100	0.442600
H41	H4	0.066400	0.119700	0.413400
H51	H5	0.906300	0.117900	0.421800
H61	H6	0.985100	0.109900	0.486200
C111	C11	0.092000	0.222100	0.491600
H71	H7	0.091800	0.270300	0.501200
H81	H8	0.176600	0.208400	0.464800
H91	H9	0.082900	0.197000	0.533900
C121	C12	0.846000	0.227400	0.497000
H101	H10	0.840700	0.276300	0.503000
H111	H11	0.846700	0.205500	0.540800
H121	H12	0.768900	0.213300	0.476000
C131	C13	0.752400	0.084700	0.083700
C141	C14	0.626100	0.044800	0.089400
C151	C15	0.500000	0.073300	0.078900
H131	H13	0.492100	0.119500	0.067600
C161	C16	0.387200	0.034800	0.084900
C171	C17	0.401300	0.965900	0.103500
H141	H14	0.324100	0.939500	0.106200
C181	C18	0.520700	0.934900	0.117900
C191	C19	0.637500	0.974900	0.108200
H151	H15	0.722700	0.955200	0.114100
C201	C20	0.248800	0.062800	0.073600
C211	C21	0.407000	0.832100	0.170300
H161	H16	0.335300	0.844000	0.142800
H171	H17	0.383900	0.851100	0.215400
H181	H18	0.417000	0.783200	0.173400
C221	C22	0.558000	0.819100	0.071900
H191	H19	0.641600	0.832700	0.046000
H201	H20	0.483100	0.828300	0.045800
H211	H21	0.564500	0.771000	0.081800
C231	C23	0.668000	0.833300	0.158300
H221	H22	0.741100	0.850800	0.126800
H231	H23	0.672500	0.784100	0.156500
H241	H24	0.678300	0.848000	0.203800
C241	C24	0.794800	0.582700	0.412000
C251	C25	0.657100	0.589100	0.453400
C261	C26	0.540500	0.577700	0.424000
H251	H25	0.547000	0.565800	0.378000
C271	C27	0.412100	0.583800	0.462800
C281	C28	0.404800	0.604000	0.532400
H261	H26	0.319700	0.607400	0.558600
C291	C29	0.518600	0.618500	0.562100
C301	C30	0.651100	0.608000	0.521400
H271	H27	0.731200	0.614100	0.540900
C311	C31	0.280200	0.571200	0.435500
C321	C32	0.502000	0.641400	0.637900
C331	C33	0.633000	0.644600	0.668400
H281	H28	0.693200	0.607100	0.651500
H291	H29	0.614500	0.641600	0.717400
H301	H30	0.674900	0.687100	0.656000
C341	C34	0.422000	0.586400	0.677300
H311	H31	0.341500	0.578100	0.656300
H321	H32	0.396800	0.601200	0.723700
H331	H33	0.478100	0.544900	0.677000
C351	C35	0.400000	0.699400	0.651300
H341	H34	0.314600	0.686900	0.637400
H351	H35	0.432500	0.738900	0.625800
H361	H36	0.388200	0.710000	0.699300
C361	C36	0.066800	0.693400	0.274000
C371	C37	0.048600	0.759500	0.238100
C381	C38	0.034100	0.819600	0.275700
H371	H37	0.030800	0.816500	0.323000
C391	C39	0.024200	0.885100	0.246400
C401	C40	0.042500	0.764200	0.168000
H381	H38	0.050800	0.724800	0.141100
C411	C41	0.024100	0.827000	0.138800
C421	C42	0.016100	0.885900	0.175000
H391	H39	0.005200	0.927500	0.152700
C431	C43	0.007600	0.832300	0.062500
C441	C44	0.011100	0.950100	0.288400
C451	C45	0.119000	0.000200	0.259300
H401	H40	0.116000	0.005000	0.210900
H411	H41	0.207700	0.982900	0.267600
H421	H42	0.099800	0.044000	0.281000
C461	C46	0.889000	0.993500	0.277900
H431	H43	0.884900	0.999500	0.229700
H441	H44	0.894900	0.037400	0.298900
H451	H45	0.808300	0.971800	0.298200
C471	C47	0.012000	0.944300	0.360100
H461	H46	0.091900	0.918200	0.369500
H471	H47	0.931500	0.921600	0.379600
H481	H48	0.012100	0.989200	0.379700
O11	O1	0.972100	0.160200	0.196500
O21	O2	0.997000	0.256400	0.141100
O31	O3	0.048000	0.458400	0.392300
O41	O4	0.045500	0.471300	0.281200
O51	O5	0.739100	0.149400	0.074700
O61	O6	0.869100	0.054400	0.088500
O71	O7	0.161600	0.019400	0.064900
O81	O8	0.224700	0.127200	0.072800
O91	O9	0.798500	0.577300	0.349800
O101	O10	0.900700	0.586400	0.443600
O111	O11	0.179800	0.565500	0.478500
O121	O12	0.276100	0.569600	0.370400
O131	O13	0.059900	0.637000	0.240900
O141	O14	0.073900	0.693500	0.336800
O151	O15	0.021700	0.779000	0.025700
O161	O16	0.982600	0.890700	0.037700
C481	C48	0.534200	0.859600	0.139100
Cd31	Cd3	0.000760	0.845840	0.923160
Cd41	Cd4	0.936340	0.426080	0.655690
C491	C49	0.016100	0.777700	0.804000
C501	C50	0.014300	0.741300	0.736200
C511	C51	0.994500	0.670700	0.733700
H491	H49	0.984100	0.644700	0.773700
C521	C52	0.990600	0.640100	0.670100
C531	C53	0.002900	0.679900	0.609800
H501	H50	0.999900	0.658900	0.567600
C541	C54	0.019300	0.749200	0.612600
C551	C55	0.029300	0.779600	0.676300
H511	H51	0.046200	0.826000	0.678400
C561	C56	0.966600	0.565600	0.667400
C571	C57	0.025600	0.792400	0.547600
C581	C58	0.016000	0.867900	0.557400
H521	H52	0.933600	0.880300	0.586600
H531	H53	0.093700	0.882100	0.578200
H541	H54	0.014900	0.890100	0.513800
C591	C59	0.908000	0.777900	0.508400
H551	H55	0.908200	0.729700	0.498800
H561	H56	0.823400	0.791600	0.535200
H571	H57	0.917100	0.803000	0.466100
C601	C60	0.154000	0.772600	0.503000
H581	H58	0.159300	0.723700	0.497000
H591	H59	0.153300	0.794500	0.459200
H601	H60	0.231100	0.786700	0.524000
C611	C61	0.247600	0.915300	0.916300
C621	C62	0.373900	0.955200	0.910600
C631	C63	0.500000	0.926700	0.921100
H611	H61	0.507900	0.880500	0.932400
C641	C64	0.612800	0.965200	0.915100
C651	C65	0.598700	0.034100	0.896500
H621	H62	0.675900	0.060500	0.893800
C661	C66	0.479300	0.065100	0.882100
C671	C67	0.362500	0.025100	0.891800
H631	H63	0.277300	0.044800	0.885900
C681	C68	0.751200	0.937200	0.926400
C691	C69	0.593000	0.167900	0.829700
H641	H64	0.664700	0.156000	0.857200
H651	H65	0.616100	0.148900	0.784600
H661	H66	0.583000	0.216800	0.826600
C701	C70	0.442000	0.180900	0.928100
H671	H67	0.358400	0.167300	0.954000
H681	H68	0.516900	0.171700	0.954200
H691	H69	0.435500	0.229000	0.918200
C711	C71	0.332000	0.166700	0.841700
H701	H70	0.258900	0.149200	0.873200
H711	H71	0.327500	0.215900	0.843500
H721	H72	0.321700	0.152000	0.796200
C721	C72	0.205200	0.417300	0.588000
C731	C73	0.342900	0.410900	0.546600
C741	C74	0.459500	0.422300	0.576000
H731	H73	0.453000	0.434200	0.622000
C751	C75	0.587900	0.416200	0.537200
C761	C76	0.595200	0.396000	0.467600
H741	H74	0.680300	0.392600	0.441400
C771	C77	0.481400	0.381500	0.437900
C781	C78	0.348900	0.392000	0.478600
H751	H75	0.268800	0.385900	0.459100
C791	C79	0.719800	0.428800	0.564500
C801	C80	0.498000	0.358600	0.362100
C811	C81	0.367000	0.355400	0.331600
H761	H76	0.306800	0.392900	0.348500
H771	H77	0.385500	0.358400	0.282600
H781	H78	0.325100	0.312900	0.344000
C821	C82	0.578000	0.413600	0.322700
H791	H79	0.658500	0.421900	0.343700
H801	H80	0.603200	0.398800	0.276300
H811	H81	0.521900	0.455100	0.323000
C831	C83	0.600000	0.300600	0.348700
H821	H82	0.685400	0.313100	0.362600
H831	H83	0.567500	0.261100	0.374200
H841	H84	0.611800	0.290000	0.300700
C841	C84	0.933200	0.306600	0.726000
C851	C85	0.951400	0.240500	0.761900
C861	C86	0.965900	0.180400	0.724300
H851	H85	0.969200	0.183500	0.677000
C871	C87	0.975800	0.114900	0.753600
C881	C88	0.957500	0.235800	0.832000
H861	H86	0.949200	0.275200	0.858900
C891	C89	0.975900	0.173000	0.861200
C901	C90	0.983900	0.114100	0.825000
H871	H87	0.994800	0.072500	0.847300
C911	C91	0.992400	0.167700	0.937500
C921	C92	0.988900	0.049900	0.711600
C931	C93	0.881000	0.999800	0.740700
H881	H88	0.884000	0.995000	0.789100
H891	H89	0.792300	0.017100	0.732400
H901	H90	0.900200	0.956000	0.719000
C941	C94	0.111000	0.006500	0.722100
H911	H91	0.115100	0.000500	0.770300
H921	H92	0.105100	0.962600	0.701100
H931	H93	0.191700	0.028200	0.701800
C951	C95	0.988000	0.055700	0.639900
H941	H94	0.908100	0.081800	0.630500
H951	H95	0.068500	0.078400	0.620400
H961	H96	0.987900	0.010800	0.620300
O171	O17	0.027900	0.839800	0.803500
O181	O18	0.003000	0.743600	0.858900
O191	O19	0.952000	0.541600	0.607700
O201	O20	0.954500	0.528700	0.718800
O211	O21	0.260900	0.850600	0.925300
O221	O22	0.130900	0.945600	0.911500
O231	O23	0.838400	0.980600	0.935100
O241	O24	0.775300	0.872800	0.927200
O251	O25	0.201500	0.422700	0.650200
O261	O26	0.099300	0.413600	0.556400
O271	O27	0.820200	0.434500	0.521500
O281	O28	0.723900	0.430400	0.629600
O291	O29	0.940100	0.363000	0.759100
O301	O30	0.926100	0.306500	0.663200
O311	O31	0.978300	0.221000	0.974300
O321	O32	0.017400	0.109300	0.962300
C961	C96	0.465800	0.140400	0.860900
Cd51	Cd5	0.000000	0.000000	0.000000
Cd61	Cd6	0.000000	0.500000	0.500000
