data_SIFVAG_clean_PM
_symmetry_space_group_name_H-M	'P1'
_cell_length_a	10.288200
_cell_length_b	14.472400
_cell_length_c	31.030000
_cell_angle_alpha	90.000000
_cell_angle_beta	91.991000
_cell_angle_gamma	90.000000
_symmetry_Int_Tables_number 1

loop_
_symmetry_equiv_pos_as_xyz
'x,y,z'

loop_
_atom_site_label
_atom_site_type_symbol
_atom_site_fract_x
_atom_site_fract_y
_atom_site_fract_z
Na11	Na1	0.215600	0.468200	0.524090
Na21	Na2	0.288600	0.705900	0.482290
Na31	Na3	0.784400	0.968200	0.975910
Na41	Na4	0.711400	0.205900	0.017710
Na51	Na5	0.784400	0.531800	0.475910
Na61	Na6	0.711400	0.294100	0.517710
Na71	Na7	0.215600	0.031800	0.024090
Na81	Na8	0.288600	0.794100	0.982290
Ag11	Ag1	0.664910	0.851870	0.241470
Ag21	Ag2	0.335090	0.351870	0.258530
Ag31	Ag3	0.335090	0.148130	0.758530
Ag41	Ag4	0.664910	0.648130	0.741470
H11	H1	0.920200	0.141500	0.279900
H21	H2	0.857100	0.083200	0.351000
H31	H3	0.811500	0.738600	0.406300
H41	H4	0.469700	0.873300	0.406100
H51	H5	0.564900	0.051600	0.333300
H61	H6	0.464900	0.127700	0.379100
H71	H7	0.357200	0.051800	0.383000
H81	H8	0.486600	0.044600	0.411000
H91	H9	0.350100	0.025100	0.309000
H101	H10	0.447900	0.951600	0.292000
H111	H11	0.357800	0.926700	0.330100
H121	H12	0.953100	0.879400	0.324500
H131	H13	0.872300	0.727600	0.305300
H141	H14	0.024600	0.733200	0.308000
H151	H15	0.949300	0.688600	0.345800
H161	H16	0.039800	0.791500	0.402400
H171	H17	0.130600	0.839000	0.369500
H181	H18	0.037300	0.899100	0.396800
H191	H19	0.043900	0.970800	0.138200
H201	H20	0.711400	0.110800	0.120000
H211	H21	0.026900	0.950400	0.251500
H221	H22	0.207600	0.001300	0.189800
H231	H23	0.185900	0.048700	0.234400
H241	H24	0.253700	0.951800	0.232600
H251	H25	0.964900	0.817100	0.216900
H261	H26	0.074700	0.829400	0.183500
H271	H27	0.111500	0.809500	0.232100
H281	H28	0.632400	0.119900	0.232300
H291	H29	0.608500	0.239100	0.160300
H301	H30	0.564400	0.260900	0.207100
H311	H31	0.712800	0.255600	0.197500
H321	H32	0.500800	0.085200	0.153300
H331	H33	0.509300	0.015800	0.192100
H341	H34	0.432700	0.108800	0.196400
H351	H35	0.079800	0.641500	0.220100
H361	H36	0.142900	0.583200	0.149000
H371	H37	0.188500	0.238600	0.093700
H381	H38	0.530300	0.373300	0.093900
H391	H39	0.435100	0.551600	0.166700
H401	H40	0.535100	0.627700	0.120900
H411	H41	0.642800	0.551800	0.117000
H421	H42	0.513400	0.544600	0.089000
H431	H43	0.649900	0.525100	0.191000
H441	H44	0.552100	0.451600	0.208000
H451	H45	0.642200	0.426700	0.169900
H461	H46	0.046900	0.379400	0.175500
H471	H47	0.127700	0.227600	0.194700
H481	H48	0.975400	0.233200	0.192000
H491	H49	0.050700	0.188600	0.154200
H501	H50	0.960200	0.291500	0.097600
H511	H51	0.869400	0.339000	0.130500
H521	H52	0.962700	0.399100	0.103200
H531	H53	0.956100	0.470800	0.361800
H541	H54	0.288600	0.610800	0.380000
H551	H55	0.973100	0.450400	0.248500
H561	H56	0.792400	0.501300	0.310200
H571	H57	0.814100	0.548700	0.265600
H581	H58	0.746300	0.451800	0.267400
H591	H59	0.035100	0.317100	0.283100
H601	H60	0.925300	0.329400	0.316500
H611	H61	0.888500	0.309500	0.267900
H621	H62	0.367600	0.619900	0.267700
H631	H63	0.391500	0.739100	0.339700
H641	H64	0.435600	0.760900	0.292900
H651	H65	0.287200	0.755600	0.302500
H661	H66	0.499200	0.585200	0.346700
H671	H67	0.490700	0.515800	0.307900
H681	H68	0.567300	0.608800	0.303600
H691	H69	0.079800	0.858500	0.720100
H701	H70	0.142900	0.916800	0.649000
H711	H71	0.188500	0.261400	0.593700
H721	H72	0.530300	0.126700	0.593900
H731	H73	0.435100	0.948400	0.666700
H741	H74	0.535100	0.872300	0.620900
H751	H75	0.642800	0.948200	0.617000
H761	H76	0.513400	0.955400	0.589000
H771	H77	0.649900	0.974900	0.691000
H781	H78	0.552100	0.048400	0.708000
H791	H79	0.642200	0.073300	0.669900
H801	H80	0.046900	0.120600	0.675500
H811	H81	0.127700	0.272400	0.694700
H821	H82	0.975400	0.266800	0.692000
H831	H83	0.050700	0.311400	0.654200
H841	H84	0.960200	0.208500	0.597600
H851	H85	0.869400	0.161000	0.630500
H861	H86	0.962700	0.100900	0.603200
H871	H87	0.956100	0.029200	0.861800
H881	H88	0.288600	0.889200	0.880000
H891	H89	0.973100	0.049600	0.748500
H901	H90	0.792400	0.998700	0.810200
H911	H91	0.814100	0.951300	0.765600
H921	H92	0.746300	0.048200	0.767400
H931	H93	0.035100	0.182900	0.783100
H941	H94	0.925300	0.170600	0.816500
H951	H95	0.888500	0.190500	0.767900
H961	H96	0.367600	0.880100	0.767700
H971	H97	0.391500	0.760900	0.839700
H981	H98	0.435600	0.739100	0.792900
H991	H99	0.287200	0.744400	0.802500
H1001	H100	0.499200	0.914800	0.846700
H1011	H101	0.490700	0.984200	0.807900
H1021	H102	0.567300	0.891200	0.803600
H1031	H103	0.920200	0.358500	0.779900
H1041	H104	0.857100	0.416800	0.851000
H1051	H105	0.811500	0.761400	0.906300
H1061	H106	0.469700	0.626700	0.906100
H1071	H107	0.564900	0.448400	0.833300
H1081	H108	0.464900	0.372300	0.879100
H1091	H109	0.357200	0.448200	0.883000
H1101	H110	0.486600	0.455400	0.911000
H1111	H111	0.350100	0.474900	0.809000
H1121	H112	0.447900	0.548400	0.792000
H1131	H113	0.357800	0.573300	0.830100
H1141	H114	0.953100	0.620600	0.824500
H1151	H115	0.872300	0.772400	0.805300
H1161	H116	0.024600	0.766800	0.808000
H1171	H117	0.949300	0.811400	0.845800
H1181	H118	0.039800	0.708500	0.902400
H1191	H119	0.130600	0.661000	0.869500
H1201	H120	0.037300	0.600900	0.896800
H1211	H121	0.043900	0.529200	0.638200
H1221	H122	0.711400	0.389200	0.620000
H1231	H123	0.026900	0.549600	0.751500
H1241	H124	0.207600	0.498700	0.689800
H1251	H125	0.185900	0.451300	0.734400
H1261	H126	0.253700	0.548200	0.732600
H1271	H127	0.964900	0.682900	0.716900
H1281	H128	0.074700	0.670600	0.683500
H1291	H129	0.111500	0.690500	0.732100
H1301	H130	0.632400	0.380100	0.732300
H1311	H131	0.608500	0.260900	0.660300
H1321	H132	0.564400	0.239100	0.707100
H1331	H133	0.712800	0.244400	0.697500
H1341	H134	0.500800	0.414800	0.653300
H1351	H135	0.509300	0.484200	0.692100
H1361	H136	0.432700	0.391200	0.696400
C11	C1	0.757100	0.958800	0.274000
C21	C2	0.871800	0.088600	0.285300
C31	C3	0.837000	0.056800	0.324300
C41	C4	0.719300	0.916600	0.349100
C51	C5	0.803500	0.845700	0.363600
C61	C6	0.758700	0.786000	0.395500
C71	C7	0.636000	0.798400	0.410700
C81	C8	0.553100	0.868200	0.395600
C91	C9	0.595100	0.930100	0.364900
C101	C10	0.509200	0.009100	0.348900
C111	C11	0.449200	0.063000	0.383600
C121	C12	0.407100	0.975100	0.317200
C131	C13	0.938800	0.831800	0.346300
C141	C14	0.947000	0.736200	0.324300
C151	C15	0.047000	0.841300	0.382200
C161	C16	0.842400	0.035300	0.209300
C171	C17	0.953900	0.993100	0.193800
C181	C18	0.971000	0.997900	0.149800
C191	C19	0.881200	0.042600	0.122700
C201	C20	0.771300	0.082000	0.138600
C211	C21	0.749000	0.079000	0.183200
C221	C22	0.054000	0.942900	0.221700
C231	C23	0.188000	0.990700	0.219400
C241	C24	0.051000	0.840400	0.212700
C251	C25	0.628400	0.126600	0.200900
C261	C26	0.628600	0.230300	0.190500
C271	C27	0.506900	0.079900	0.184200
C281	C28	0.369000	0.717000	0.601800
C291	C29	0.537500	0.587200	0.582400
C301	C30	0.242900	0.458800	0.226000
C311	C31	0.128200	0.588600	0.214700
C321	C32	0.163000	0.556800	0.175700
C331	C33	0.280700	0.416600	0.150900
C341	C34	0.196500	0.345700	0.136400
C351	C35	0.241300	0.286000	0.104500
C361	C36	0.364000	0.298400	0.089300
C371	C37	0.446900	0.368200	0.104400
C381	C38	0.404900	0.430100	0.135100
C391	C39	0.490800	0.509100	0.151100
C401	C40	0.550800	0.563000	0.116400
C411	C41	0.592900	0.475100	0.182800
C421	C42	0.061200	0.331800	0.153700
C431	C43	0.053000	0.236200	0.175700
C441	C44	0.953000	0.341300	0.117800
C451	C45	0.157600	0.535300	0.290700
C461	C46	0.046100	0.493100	0.306200
C471	C47	0.029000	0.497900	0.350200
C481	C48	0.118800	0.542600	0.377300
C491	C49	0.228700	0.582000	0.361400
C501	C50	0.251000	0.579000	0.316800
C511	C51	0.946000	0.442900	0.278300
C521	C52	0.812000	0.490700	0.280600
C531	C53	0.949000	0.340400	0.287300
C541	C54	0.371600	0.626600	0.299100
C551	C55	0.371400	0.730300	0.309500
C561	C56	0.493100	0.579900	0.315800
C571	C57	0.631000	0.217000	0.898200
C581	C58	0.462500	0.087200	0.917600
C591	C59	0.242900	0.041200	0.726000
C601	C60	0.128200	0.911400	0.714700
C611	C61	0.163000	0.943200	0.675700
C621	C62	0.280700	0.083400	0.650900
C631	C63	0.196500	0.154300	0.636400
C641	C64	0.241300	0.214000	0.604500
C651	C65	0.364000	0.201600	0.589300
C661	C66	0.446900	0.131800	0.604400
C671	C67	0.404900	0.069900	0.635100
C681	C68	0.490800	0.990900	0.651100
C691	C69	0.550800	0.937000	0.616400
C701	C70	0.592900	0.024900	0.682800
C711	C71	0.061200	0.168200	0.653700
C721	C72	0.053000	0.263800	0.675700
C731	C73	0.953000	0.158700	0.617800
C741	C74	0.157600	0.964700	0.790700
C751	C75	0.046100	0.006900	0.806200
C761	C76	0.029000	0.002100	0.850200
C771	C77	0.118800	0.957400	0.877300
C781	C78	0.228700	0.918000	0.861400
C791	C79	0.251000	0.921000	0.816800
C801	C80	0.946000	0.057100	0.778300
C811	C81	0.812000	0.009300	0.780600
C821	C82	0.949000	0.159600	0.787300
C831	C83	0.371600	0.873400	0.799100
C841	C84	0.371400	0.769700	0.809500
C851	C85	0.493100	0.920100	0.815800
C861	C86	0.631000	0.283000	0.398200
C871	C87	0.462500	0.412800	0.417600
C881	C88	0.757100	0.541200	0.774000
C891	C89	0.871800	0.411400	0.785300
C901	C90	0.837000	0.443200	0.824300
C911	C91	0.719300	0.583400	0.849100
C921	C92	0.803500	0.654300	0.863600
C931	C93	0.758700	0.714000	0.895500
C941	C94	0.636000	0.701600	0.910700
C951	C95	0.553100	0.631800	0.895600
C961	C96	0.595100	0.569900	0.864900
C971	C97	0.509200	0.490900	0.848900
C981	C98	0.449200	0.437000	0.883600
C991	C99	0.407100	0.524900	0.817200
C1001	C100	0.938800	0.668200	0.846300
C1011	C101	0.947000	0.763800	0.824300
C1021	C102	0.047000	0.658700	0.882200
C1031	C103	0.842400	0.464700	0.709300
C1041	C104	0.953900	0.506900	0.693800
C1051	C105	0.971000	0.502100	0.649800
C1061	C106	0.881200	0.457400	0.622700
C1071	C107	0.771300	0.418000	0.638600
C1081	C108	0.749000	0.421000	0.683200
C1091	C109	0.054000	0.557100	0.721700
C1101	C110	0.188000	0.509300	0.719400
C1111	C111	0.051000	0.659600	0.712700
C1121	C112	0.628400	0.373400	0.700900
C1131	C113	0.628600	0.269700	0.690500
C1141	C114	0.506900	0.420100	0.684200
C1151	C115	0.369000	0.783000	0.101800
C1161	C116	0.537500	0.912800	0.082400
S11	S1	0.576700	0.720920	0.450970
S21	S2	0.911380	0.051640	0.066880
S31	S3	0.369900	0.604300	0.588210
S41	S4	0.423300	0.220920	0.049030
S51	S5	0.088620	0.551640	0.433120
S61	S6	0.630100	0.104300	0.911790
S71	S7	0.423300	0.279080	0.549030
S81	S8	0.088620	0.948360	0.933120
S91	S9	0.630100	0.395700	0.411790
S101	S10	0.576700	0.779080	0.950970
S111	S11	0.911380	0.448360	0.566880
S121	S12	0.369900	0.895700	0.088210
N11	N1	0.766500	0.978100	0.316510
N21	N2	0.822400	0.028600	0.255560
N31	N3	0.233500	0.478100	0.183490
N41	N4	0.177600	0.528600	0.244440
N51	N5	0.233500	0.021900	0.683490
N61	N6	0.177600	0.971400	0.744440
N71	N7	0.766500	0.521900	0.816510
N81	N8	0.822400	0.471400	0.755560
Cl11	Cl1	0.561700	0.738100	0.201570
Cl21	Cl2	0.438300	0.238100	0.298430
Cl31	Cl3	0.438300	0.261900	0.798430
Cl41	Cl4	0.561700	0.761900	0.701570
O11	O1	0.669200	0.652900	0.457700
O21	O2	0.554800	0.775100	0.488500
O31	O3	0.454800	0.686000	0.434300
O41	O4	0.040400	0.026100	0.062300
O51	O5	0.819000	0.992700	0.046000
O61	O6	0.888200	0.143300	0.055100
O71	O7	0.318000	0.607400	0.541500
O81	O8	0.330800	0.152900	0.042300
O91	O9	0.445200	0.275100	0.011500
O101	O10	0.545200	0.186000	0.065700
O111	O11	0.959600	0.526100	0.437700
O121	O12	0.181000	0.492700	0.454000
O131	O13	0.111800	0.643300	0.444900
O141	O14	0.682000	0.107400	0.958500
O151	O15	0.330800	0.347100	0.542300
O161	O16	0.445200	0.224900	0.511500
O171	O17	0.545200	0.314000	0.565700
O181	O18	0.959600	0.973900	0.937700
O191	O19	0.181000	0.007300	0.954000
O201	O20	0.111800	0.856700	0.944900
O211	O21	0.682000	0.392600	0.458500
O221	O22	0.669200	0.847100	0.957700
O231	O23	0.554800	0.724900	0.988500
O241	O24	0.454800	0.814000	0.934300
O251	O25	0.040400	0.473900	0.562300
O261	O26	0.819000	0.507300	0.546000
O271	O27	0.888200	0.356700	0.555100
O281	O28	0.318000	0.892600	0.041500
