data_SIKGAW_clean_PM
_symmetry_space_group_name_H-M	'P1'
_cell_length_a	10.837000
_cell_length_b	18.131000
_cell_length_c	17.561000
_cell_angle_alpha	90.000000
_cell_angle_beta	104.301000
_cell_angle_gamma	90.000000
_symmetry_Int_Tables_number 1

loop_
_symmetry_equiv_pos_as_xyz
'x,y,z'

loop_
_atom_site_label
_atom_site_type_symbol
_atom_site_fract_x
_atom_site_fract_y
_atom_site_fract_z
Cu11	Cu1	0.955580	0.140450	0.625060
Cu21	Cu2	0.552720	0.132690	0.869970
N11	N1	0.845700	0.113990	0.702820
N21	N2	0.678200	0.113340	0.802990
C11	C1	0.722300	0.096400	0.677500
H11	H1	0.690100	0.083700	0.623800
C21	C2	0.639700	0.096100	0.726100
H21	H2	0.553000	0.083200	0.704700
C31	C3	0.803500	0.128520	0.829100
H31	H3	0.836600	0.139100	0.883300
C41	C4	0.885600	0.129240	0.780100
H41	H4	0.972800	0.140800	0.801600
N31	N3	0.133900	0.150820	0.694510
N41	N4	0.377700	0.146720	0.797130
C51	C5	0.178300	0.090500	0.736600
H51	H5	0.125800	0.047900	0.731300
C61	C6	0.297800	0.088400	0.787500
H61	H6	0.324600	0.044600	0.816700
C71	C7	0.333500	0.206200	0.754200
H71	H7	0.386600	0.248400	0.758100
C81	C8	0.212200	0.208400	0.703800
H81	H8	0.184500	0.252300	0.675300
N51	N5	0.982300	0.053480	0.553360
C91	C9	0.074200	0.057100	0.517500
H91	H9	0.131900	0.097400	0.528600
C101	C10	0.909400	0.995600	0.536200
H101	H10	0.842200	0.989300	0.561600
N61	N6	0.838400	0.208410	0.551220
N71	N7	0.654600	0.294290	0.449020
C111	C11	0.784700	0.267200	0.576100
H111	H11	0.809000	0.279900	0.630200
C121	C12	0.694800	0.310000	0.525400
H121	H12	0.660700	0.351800	0.545600
C131	C13	0.707300	0.234600	0.424800
H131	H13	0.681400	0.220900	0.371000
C141	C14	0.797800	0.192600	0.475000
H141	H14	0.832400	0.151000	0.454700
N81	N8	0.518900	0.050180	0.943560
C151	C15	0.590900	0.989280	0.961120
H151	H15	0.655800	0.980100	0.934600
C161	C16	0.572100	0.939500	0.017400
H161	H16	0.625000	0.897100	0.028600
Cu31	Cu3	0.044420	0.640450	0.874940
Cu41	Cu4	0.447280	0.632690	0.630030
N91	N9	0.154300	0.613990	0.797180
N101	N10	0.321800	0.613340	0.697010
C171	C17	0.277700	0.596400	0.822500
H171	H17	0.309900	0.583700	0.876200
C181	C18	0.360300	0.596100	0.773900
H181	H18	0.447000	0.583200	0.795300
C191	C19	0.196500	0.628520	0.670900
H191	H19	0.163400	0.639100	0.616700
C201	C20	0.114400	0.629240	0.719900
H201	H20	0.027200	0.640800	0.698400
N111	N11	0.866100	0.650820	0.805490
N121	N12	0.622300	0.646720	0.702870
C211	C21	0.821700	0.590500	0.763400
H211	H21	0.874200	0.547900	0.768700
C221	C22	0.702200	0.588400	0.712500
H221	H22	0.675400	0.544600	0.683300
C231	C23	0.666500	0.706200	0.745800
H231	H23	0.613400	0.748400	0.741900
C241	C24	0.787800	0.708400	0.796200
H241	H24	0.815500	0.752300	0.824700
N131	N13	0.017700	0.553480	0.946640
C251	C25	0.925800	0.557100	0.982500
H251	H25	0.868100	0.597400	0.971400
C261	C26	0.090600	0.495600	0.963800
H261	H26	0.157800	0.489300	0.938400
N141	N14	0.161600	0.708410	0.948780
N151	N15	0.345400	0.794290	0.050980
C271	C27	0.215300	0.767200	0.923900
H271	H27	0.191000	0.779900	0.869800
C281	C28	0.305200	0.810000	0.974600
H281	H28	0.339300	0.851800	0.954400
C291	C29	0.292700	0.734600	0.075200
H291	H29	0.318600	0.720900	0.129000
C301	C30	0.202200	0.692600	0.025000
H301	H30	0.167600	0.651000	0.045300
N161	N16	0.481100	0.550180	0.556440
C311	C31	0.409100	0.489280	0.538880
H311	H31	0.344200	0.480100	0.565400
C321	C32	0.427900	0.439500	0.482600
H321	H32	0.375000	0.397100	0.471400
Cu51	Cu5	0.044420	0.859550	0.374940
Cu61	Cu6	0.447280	0.867310	0.130030
N171	N17	0.154300	0.886010	0.297180
N181	N18	0.321800	0.886660	0.197010
C331	C33	0.277700	0.903600	0.322500
H331	H33	0.309900	0.916300	0.376200
C341	C34	0.360300	0.903900	0.273900
H341	H34	0.447000	0.916800	0.295300
C351	C35	0.196500	0.871480	0.170900
H351	H35	0.163400	0.860900	0.116700
C361	C36	0.114400	0.870760	0.219900
H361	H36	0.027200	0.859200	0.198400
N191	N19	0.866100	0.849180	0.305490
N201	N20	0.622300	0.853280	0.202870
C371	C37	0.821700	0.909500	0.263400
H371	H37	0.874200	0.952100	0.268700
C381	C38	0.702200	0.911600	0.212500
H381	H38	0.675400	0.955400	0.183300
C391	C39	0.666500	0.793800	0.245800
H391	H39	0.613400	0.751600	0.241900
C401	C40	0.787800	0.791600	0.296200
H401	H40	0.815500	0.747700	0.324700
N211	N21	0.017700	0.946520	0.446640
C411	C41	0.925800	0.942900	0.482500
H411	H41	0.868100	0.902600	0.471400
C421	C42	0.090600	0.004400	0.463800
H421	H42	0.157800	0.010700	0.438400
N221	N22	0.161600	0.791590	0.448780
N231	N23	0.345400	0.705710	0.550980
C431	C43	0.215300	0.732800	0.423900
H431	H43	0.191000	0.720100	0.369800
C441	C44	0.305200	0.690000	0.474600
H441	H44	0.339300	0.648200	0.454400
C451	C45	0.292700	0.765400	0.575200
H451	H45	0.318600	0.779100	0.629000
C461	C46	0.202200	0.807400	0.525000
H461	H46	0.167600	0.849000	0.545300
N241	N24	0.481100	0.949820	0.056440
C471	C47	0.409100	0.010720	0.038880
H471	H47	0.344200	0.019900	0.065400
C481	C48	0.427900	0.060500	0.982600
H481	H48	0.375000	0.102900	0.971400
Cu71	Cu7	0.955580	0.359550	0.125060
Cu81	Cu8	0.552720	0.367310	0.369970
N251	N25	0.845700	0.386010	0.202820
N261	N26	0.678200	0.386660	0.302990
C491	C49	0.722300	0.403600	0.177500
H491	H49	0.690100	0.416300	0.123800
C501	C50	0.639700	0.403900	0.226100
H501	H50	0.553000	0.416800	0.204700
C511	C51	0.803500	0.371480	0.329100
H511	H51	0.836600	0.360900	0.383300
C521	C52	0.885600	0.370760	0.280100
H521	H52	0.972800	0.359200	0.301600
N271	N27	0.133900	0.349180	0.194510
N281	N28	0.377700	0.353280	0.297130
C531	C53	0.178300	0.409500	0.236600
H531	H53	0.125800	0.452100	0.231300
C541	C54	0.297800	0.411600	0.287500
H541	H54	0.324600	0.455400	0.316700
C551	C55	0.333500	0.293800	0.254200
H551	H55	0.386600	0.251600	0.258100
C561	C56	0.212200	0.291600	0.203800
H561	H56	0.184500	0.247700	0.175300
N291	N29	0.982300	0.446520	0.053360
C571	C57	0.074200	0.442900	0.017500
H571	H57	0.131900	0.402600	0.028600
C581	C58	0.909400	0.504400	0.036200
H581	H58	0.842200	0.510700	0.061600
N301	N30	0.838400	0.291590	0.051220
N311	N31	0.654600	0.205710	0.949020
C591	C59	0.784700	0.232800	0.076100
H591	H59	0.809000	0.220100	0.130200
C601	C60	0.694800	0.190000	0.025400
H601	H60	0.660700	0.148200	0.045600
C611	C61	0.707300	0.265400	0.924800
H611	H61	0.681400	0.279100	0.871000
C621	C62	0.797800	0.307400	0.975000
H621	H62	0.832400	0.349000	0.954700
N321	N32	0.518900	0.449820	0.443560
C631	C63	0.590900	0.510720	0.461120
H631	H63	0.655800	0.519900	0.434600
C641	C64	0.572100	0.560500	0.517400
H641	H64	0.625000	0.602900	0.528600
