data_SINQAH_clean_PM
_symmetry_space_group_name_H-M	'P1'
_cell_length_a	5.131800
_cell_length_b	7.841100
_cell_length_c	16.510000
_cell_angle_alpha	90.000000
_cell_angle_beta	90.119000
_cell_angle_gamma	90.000000
_symmetry_Int_Tables_number 1

loop_
_symmetry_equiv_pos_as_xyz
'x,y,z'

loop_
_atom_site_label
_atom_site_type_symbol
_atom_site_fract_x
_atom_site_fract_y
_atom_site_fract_z
Zn11	Zn1	0.198210	0.142100	0.586250
Zn21	Zn2	0.195700	0.370600	0.920890
O11	O1	0.850300	0.239200	0.578500
O21	O2	0.328500	0.128400	0.695000
O31	O3	0.811500	0.408300	0.448500
O41	O4	0.413100	0.289600	0.516600
O51	O5	0.195100	0.612200	0.936900
O61	O6	0.156300	0.785500	0.066100
O71	O7	0.593500	0.726300	0.008500
O81	O8	0.275100	0.348600	0.807900
O91	O9	0.745000	0.103500	0.443600
O101	O10	0.277300	0.916000	0.931900
O111	O11	0.614300	0.388900	0.706700
O121	O12	0.646000	0.137500	0.804000
P11	P1	0.703500	0.265600	0.498570
P21	P2	0.305600	0.755500	0.987460
P31	P3	0.453900	0.250700	0.753460
H11	H1	0.660000	0.003000	0.461000
H21	H2	0.300000	0.022000	0.958000
H31	H3	0.713000	0.341000	0.664000
H41	H4	0.727000	0.169000	0.853000
Zn31	Zn3	0.801790	0.642100	0.413750
Zn41	Zn4	0.804300	0.870600	0.079110
O131	O13	0.149700	0.739200	0.421500
O141	O14	0.671500	0.628400	0.305000
O151	O15	0.188500	0.908300	0.551500
O161	O16	0.586900	0.789600	0.483400
O171	O17	0.804900	0.112200	0.063100
O181	O18	0.843700	0.285500	0.933900
O191	O19	0.406500	0.226300	0.991500
O201	O20	0.724900	0.848600	0.192100
O211	O21	0.255000	0.603500	0.556400
O221	O22	0.722700	0.416000	0.068100
O231	O23	0.385700	0.888900	0.293300
O241	O24	0.354000	0.637500	0.196000
P41	P4	0.296500	0.765600	0.501430
P51	P5	0.694400	0.255500	0.012540
P61	P6	0.546100	0.750700	0.246540
H51	H5	0.340000	0.503000	0.539000
H61	H6	0.700000	0.522000	0.042000
H71	H7	0.287000	0.841000	0.336000
H81	H8	0.273000	0.669000	0.147000
