data_SINVAM_clean_PM
_symmetry_space_group_name_H-M	'P1'
_cell_length_a	10.138300
_cell_length_b	10.138300
_cell_length_c	9.628000
_cell_angle_alpha	90.000000
_cell_angle_beta	90.000000
_cell_angle_gamma	90.000000
_symmetry_Int_Tables_number 1

loop_
_symmetry_equiv_pos_as_xyz
'x,y,z'

loop_
_atom_site_label
_atom_site_type_symbol
_atom_site_fract_x
_atom_site_fract_y
_atom_site_fract_z
O11	O1	0.299000	0.524000	0.223000
O21	O2	0.799000	0.024000	0.723000
O31	O3	0.701000	0.476000	0.223000
O41	O4	0.201000	0.976000	0.723000
O51	O5	0.524000	0.701000	0.777000
O61	O6	0.024000	0.201000	0.277000
O71	O7	0.476000	0.299000	0.777000
O81	O8	0.976000	0.799000	0.277000
O91	O9	0.701000	0.524000	0.777000
O101	O10	0.201000	0.024000	0.277000
O111	O11	0.299000	0.476000	0.777000
O121	O12	0.799000	0.976000	0.277000
O131	O13	0.476000	0.701000	0.223000
O141	O14	0.976000	0.201000	0.723000
O151	O15	0.524000	0.299000	0.223000
O161	O16	0.024000	0.799000	0.723000
O171	O17	0.500000	0.500000	0.000000
O181	O18	0.000000	0.000000	0.500000
O191	O19	0.296000	0.704000	0.052000
O201	O20	0.246000	0.754000	0.310000
P11	P1	0.331100	0.668900	0.196100
O211	O21	0.796000	0.204000	0.552000
O221	O22	0.746000	0.254000	0.810000
P21	P2	0.831100	0.168900	0.696100
O231	O23	0.704000	0.296000	0.052000
O241	O24	0.754000	0.246000	0.310000
P31	P3	0.668900	0.331100	0.196100
O251	O25	0.204000	0.796000	0.552000
O261	O26	0.254000	0.746000	0.810000
P41	P4	0.168900	0.831100	0.696100
O271	O27	0.704000	0.704000	0.948000
O281	O28	0.754000	0.754000	0.690000
P51	P5	0.668900	0.668900	0.803900
O291	O29	0.204000	0.204000	0.448000
O301	O30	0.254000	0.254000	0.190000
P61	P6	0.168900	0.168900	0.303900
O311	O31	0.296000	0.296000	0.948000
O321	O32	0.246000	0.246000	0.690000
P71	P7	0.331100	0.331100	0.803900
O331	O33	0.796000	0.796000	0.448000
O341	O34	0.746000	0.746000	0.190000
P81	P8	0.831100	0.831100	0.303900
Fe11	Fe1	0.373600	0.373600	0.121200
Fe21	Fe2	0.873600	0.873600	0.621200
Fe31	Fe3	0.626400	0.626400	0.121200
Fe41	Fe4	0.126400	0.126400	0.621200
Fe51	Fe5	0.373600	0.626400	0.878800
Fe61	Fe6	0.873600	0.126400	0.378800
Fe71	Fe7	0.626400	0.373600	0.878800
Fe81	Fe8	0.126400	0.873600	0.378800
