data_SIRZUQ_clean_PM
_symmetry_space_group_name_H-M	'P1'
_cell_length_a	11.102000
_cell_length_b	15.900400
_cell_length_c	15.900400
_cell_angle_alpha	65.244400
_cell_angle_beta	76.541600
_cell_angle_gamma	103.458000
_symmetry_Int_Tables_number 1

loop_
_symmetry_equiv_pos_as_xyz
'x,y,z'

loop_
_atom_site_label
_atom_site_type_symbol
_atom_site_fract_x
_atom_site_fract_y
_atom_site_fract_z
Cd11	Cd1	0.228040	0.756970	0.631710
Cd21	Cd2	0.771960	0.243030	0.368290
H11	H1	0.716500	0.036200	0.228900
H21	H2	0.296400	0.097600	0.520400
H31	H3	0.385300	0.832800	0.270900
H41	H4	0.153100	0.145000	0.606200
H51	H5	0.069800	0.955700	0.306700
H61	H6	0.846900	0.855000	0.393800
H71	H7	0.614100	0.914400	0.198300
H81	H8	0.385900	0.085600	0.801700
H91	H9	0.614700	0.167200	0.729100
H101	H10	0.151000	0.105100	0.302500
H111	H11	0.283500	0.963800	0.771100
H121	H12	0.849000	0.894900	0.697500
H131	H13	0.741500	0.129900	0.622500
H141	H14	0.258500	0.870100	0.377500
H151	H15	0.703600	0.902400	0.479600
H161	H16	0.930200	0.044300	0.693300
C11	C1	0.436860	0.069470	0.759890
C21	C2	0.550140	0.029620	0.320000
C31	C3	0.563140	0.930530	0.240110
C41	C4	0.793620	0.943230	0.444170
C51	C5	0.350460	0.904030	0.347350
C61	C6	0.206380	0.056770	0.555830
C71	C7	0.649540	0.095970	0.652650
C81	C8	0.012450	0.975430	0.340380
C91	C9	0.624260	0.003750	0.258370
C101	C10	0.426540	0.881400	0.283980
C111	C11	0.987550	0.024570	0.659620
C121	C12	0.939100	0.934980	0.662160
C131	C13	0.034960	0.194170	0.381880
C141	C14	0.842870	0.032630	0.442520
C151	C15	0.411700	0.977530	0.365890
C161	C16	0.060900	0.065020	0.337840
C171	C17	0.588300	0.022470	0.634110
C181	C18	0.377400	0.889740	0.664010
C191	C19	0.622600	0.110260	0.335990
C201	C20	0.120670	0.084990	0.607180
C211	C21	0.965040	0.805830	0.618120
C221	C22	0.375740	0.996250	0.741630
C231	C23	0.157130	0.967370	0.557480
C241	C24	0.573460	0.118600	0.716020
C251	C25	0.023110	0.903940	0.612580
C261	C26	0.449860	0.970380	0.680000
C271	C27	0.879330	0.915010	0.392820
C281	C28	0.976890	0.096060	0.387420
N11	N1	0.329060	0.007630	0.422150
N21	N2	0.245280	0.937020	0.504480
N31	N3	0.670940	0.992370	0.577850
N41	N4	0.754720	0.062980	0.495520
O11	O1	0.155490	0.228160	0.367390
O21	O2	0.439870	0.869360	0.602860
O31	O3	0.844510	0.771840	0.632610
O41	O4	0.036550	0.756840	0.608100
O51	O5	0.253440	0.845140	0.712890
O61	O6	0.963450	0.243160	0.391900
O71	O7	0.746560	0.154860	0.287110
O81	O8	0.560130	0.130640	0.397140
Cd31	Cd3	0.471070	0.611320	0.756970
Cd41	Cd4	0.528930	0.388680	0.243030
H171	H17	0.552500	0.896300	0.832800
H181	H18	0.954100	0.407600	0.894900
H191	H19	0.319700	0.265100	0.963800
H201	H20	0.114100	0.737600	0.955700
H211	H21	0.388400	0.752400	0.870100
H221	H22	0.991900	0.751200	0.855000
H231	H23	0.801200	0.618000	0.902400
H241	H24	0.699700	0.887300	0.914400
H251	H25	0.008100	0.248800	0.145000
H261	H26	0.680300	0.734900	0.036200
H271	H27	0.045900	0.592400	0.105100
H281	H28	0.885900	0.262400	0.044300
H291	H29	0.447500	0.103700	0.167200
H301	H30	0.300300	0.112700	0.085600
H311	H31	0.198800	0.382000	0.097600
H321	H32	0.611600	0.247600	0.129900
C291	C29	0.545140	0.834620	0.881400
C301	C30	0.995880	0.597140	0.065020
C311	C31	0.810240	0.524850	0.032630
C321	C32	0.434170	0.656580	0.977530
C331	C33	0.119170	0.483480	0.903940
C341	C34	0.004120	0.402860	0.934980
C351	C35	0.479480	0.349620	0.970380
C361	C36	0.880830	0.516520	0.096060
C371	C37	0.035680	0.307830	0.084990
C381	C38	0.159210	0.576050	0.805830
C391	C39	0.454860	0.165380	0.118600
C401	C40	0.446430	0.748620	0.904030
C411	C41	0.149610	0.387400	0.056770
C421	C42	0.189760	0.475150	0.967370
C431	C43	0.367390	0.170640	0.069470
C441	C44	0.512340	0.553750	0.110260
C451	C45	0.964320	0.692170	0.915010
C461	C46	0.632610	0.829360	0.930530
C471	C47	0.565830	0.343420	0.022470
C481	C48	0.850390	0.612600	0.943230
C491	C49	0.620510	0.737880	0.003750
C501	C50	0.037020	0.684190	0.975430
C511	C51	0.520520	0.650380	0.029620
C521	C52	0.840790	0.423950	0.194170
C531	C53	0.487660	0.446250	0.889740
C541	C54	0.553570	0.251380	0.095970
C551	C55	0.962980	0.315810	0.024570
C561	C56	0.379490	0.262120	0.996250
N51	N5	0.691740	0.441500	0.062980
N61	N6	0.678570	0.429780	0.992370
N71	N7	0.308260	0.558500	0.937020
N81	N8	0.321430	0.570220	0.007630
O91	O9	0.591700	0.558030	0.154860
O101	O10	0.720290	0.364940	0.243160
O111	O11	0.072670	0.595550	0.771840
O121	O12	0.279710	0.635060	0.756840
O131	O13	0.429490	0.472220	0.130640
O141	O14	0.927330	0.404450	0.228160
O151	O15	0.570510	0.527780	0.869360
O161	O16	0.408300	0.441970	0.845140
Cd51	Cd5	0.859750	0.631710	0.611320
Cd61	Cd6	0.140250	0.368290	0.388680
H331	H33	0.812400	0.198300	0.887300
H341	H34	0.945400	0.228900	0.734900
H351	H35	0.636000	0.377500	0.752400
H361	H36	0.183200	0.479600	0.618000
H371	H37	0.343800	0.729100	0.103700
H381	H38	0.759300	0.606200	0.248800
H391	H39	0.376500	0.306700	0.737600
H401	H40	0.656200	0.270900	0.896300
H411	H41	0.187600	0.801700	0.112700
H421	H42	0.054600	0.771100	0.265100
H431	H43	0.453500	0.302500	0.592400
H441	H44	0.364000	0.622500	0.247600
H451	H45	0.240700	0.393800	0.751200
H461	H46	0.546500	0.697500	0.407600
H471	H47	0.816800	0.520400	0.382000
H481	H48	0.623500	0.693300	0.262400
C571	C57	0.398740	0.337840	0.597140
C581	C58	0.710520	0.283980	0.834620
C591	C59	0.714610	0.557480	0.475150
C601	C60	0.289480	0.716020	0.165380
C611	C61	0.352830	0.340380	0.684190
C621	C62	0.635690	0.612580	0.483480
C631	C63	0.222410	0.634110	0.343420
C641	C64	0.777590	0.365890	0.656580
C651	C65	0.762210	0.555830	0.387400
C661	C66	0.117370	0.741630	0.262120
C671	C67	0.601260	0.662160	0.402860
C681	C68	0.727850	0.607180	0.307830
C691	C69	0.958590	0.335990	0.553750
C701	C70	0.129860	0.680000	0.349620
C711	C71	0.364310	0.387420	0.516520
C721	C72	0.647170	0.659620	0.315810
C731	C73	0.237790	0.444170	0.612600
C741	C74	0.583160	0.618120	0.576050
C751	C75	0.285390	0.442520	0.524850
C761	C76	0.697810	0.347350	0.748620
C771	C77	0.196750	0.759890	0.170640
C781	C78	0.803250	0.240110	0.829360
C791	C79	0.041410	0.664010	0.446250
C801	C80	0.882630	0.258370	0.737880
C811	C81	0.416840	0.381880	0.423950
C821	C82	0.272150	0.392820	0.692170
C831	C83	0.302190	0.652650	0.251380
C841	C84	0.870140	0.320000	0.650380
N91	N9	0.749760	0.504480	0.558500
N101	N10	0.248790	0.577850	0.429780
N111	N11	0.250240	0.495520	0.441500
N121	N12	0.751210	0.422150	0.570220
O171	O17	0.033670	0.287110	0.558030
O181	O18	0.477120	0.632610	0.595550
O191	O19	0.957270	0.397140	0.472220
O201	O20	0.042730	0.602860	0.527780
O211	O21	0.355350	0.391900	0.364940
O221	O22	0.644650	0.608100	0.635060
O231	O23	0.522880	0.367390	0.404450
O241	O24	0.966330	0.712890	0.441970
