data_SISFEH_clean_PM
_symmetry_space_group_name_H-M	'P1'
_cell_length_a	8.763500
_cell_length_b	11.467800
_cell_length_c	11.467800
_cell_angle_alpha	106.056000
_cell_angle_beta	103.826000
_cell_angle_gamma	76.173700
_symmetry_Int_Tables_number 1

loop_
_symmetry_equiv_pos_as_xyz
'x,y,z'

loop_
_atom_site_label
_atom_site_type_symbol
_atom_site_fract_x
_atom_site_fract_y
_atom_site_fract_z
Sr11	Sr1	0.750000	0.461650	0.461650
Sr21	Sr2	0.250000	0.538350	0.538350
Ni11	Ni1	0.000000	0.500000	0.000000
Ni21	Ni2	0.500000	0.000000	0.500000
H11	H1	0.475700	0.306300	0.459900
H21	H2	0.463900	0.347300	0.355100
H31	H3	0.570300	0.297300	0.741700
H41	H4	0.462000	0.266700	0.895900
H51	H5	0.773500	0.452700	0.147900
H61	H6	0.024300	0.459900	0.306300
H71	H7	0.036100	0.355100	0.347300
H81	H8	0.929700	0.741700	0.297300
H91	H9	0.038000	0.895900	0.266700
H101	H10	0.726500	0.147900	0.452700
H111	H11	0.524300	0.693700	0.540100
H121	H12	0.536100	0.652700	0.644900
H131	H13	0.429700	0.702700	0.258300
H141	H14	0.538000	0.733300	0.104100
H151	H15	0.226500	0.547300	0.852100
H161	H16	0.975700	0.540100	0.693700
H171	H17	0.963900	0.644900	0.652700
H181	H18	0.070300	0.258300	0.702700
H191	H19	0.962000	0.104100	0.733300
H201	H20	0.273500	0.852100	0.547300
C11	C1	0.735100	0.390970	0.859190
C21	C2	0.610300	0.327760	0.824640
C31	C3	0.545300	0.310280	0.916720
C41	C4	0.605500	0.358240	0.039440
C51	C5	0.732000	0.420150	0.065710
C61	C6	0.809700	0.420190	0.766970
C71	C7	0.540100	0.346980	0.144820
C81	C8	0.764900	0.859190	0.390970
C91	C9	0.889700	0.824640	0.327760
C101	C10	0.954700	0.916720	0.310280
C111	C11	0.894500	0.039440	0.358240
C121	C12	0.768000	0.065710	0.420150
C131	C13	0.690300	0.766970	0.420190
C141	C14	0.959900	0.144820	0.346980
C151	C15	0.264900	0.609030	0.140810
C161	C16	0.389700	0.672240	0.175360
C171	C17	0.454700	0.689720	0.083280
C181	C18	0.394500	0.641760	0.960560
C191	C19	0.268000	0.579850	0.934290
C201	C20	0.190300	0.579810	0.233030
C211	C21	0.459900	0.653020	0.855180
C221	C22	0.235100	0.140810	0.609030
C231	C23	0.110300	0.175360	0.672240
C241	C24	0.045300	0.083280	0.689720
C251	C25	0.105500	0.960560	0.641760
C261	C26	0.232000	0.934290	0.579850
C271	C27	0.309700	0.233030	0.579810
C281	C28	0.040100	0.855180	0.653020
N11	N1	0.796700	0.434770	0.977650
N21	N2	0.703300	0.977650	0.434770
N31	N3	0.203300	0.565230	0.022350
N41	N4	0.296700	0.022350	0.565230
O11	O1	0.930700	0.472300	0.812680
O21	O2	0.751600	0.392580	0.656520
O31	O3	0.426400	0.292230	0.122170
O41	O4	0.603900	0.395410	0.249650
O51	O5	0.467200	0.369770	0.432690
O61	O6	0.569300	0.812680	0.472300
O71	O7	0.748400	0.656520	0.392580
O81	O8	0.073600	0.122170	0.292230
O91	O9	0.896100	0.249650	0.395410
O101	O10	0.032800	0.432690	0.369770
O111	O11	0.069300	0.527700	0.187320
O121	O12	0.248400	0.607420	0.343480
O131	O13	0.573600	0.707770	0.877830
O141	O14	0.396100	0.604590	0.750350
O151	O15	0.532800	0.630230	0.567310
O161	O16	0.430700	0.187320	0.527700
O171	O17	0.251600	0.343480	0.607420
O181	O18	0.926400	0.877830	0.707770
O191	O19	0.103900	0.750350	0.604590
O201	O20	0.967200	0.567310	0.630230
