data_SISQIW_clean_PM
_symmetry_space_group_name_H-M	'P1'
_cell_length_a	10.935000
_cell_length_b	17.915000
_cell_length_c	16.953000
_cell_angle_alpha	89.832000
_cell_angle_beta	90.000000
_cell_angle_gamma	90.000000
_symmetry_Int_Tables_number 1

loop_
_symmetry_equiv_pos_as_xyz
'x,y,z'

loop_
_atom_site_label
_atom_site_type_symbol
_atom_site_fract_x
_atom_site_fract_y
_atom_site_fract_z
Nd11	Nd1	0.607900	0.828890	0.123740
Nd21	Nd2	0.955090	0.332780	0.472730
Nd31	Nd3	0.411270	0.831030	0.908920
Nd41	Nd4	0.044910	0.332780	0.972730
Nd51	Nd5	0.139930	0.325400	0.261500
Nd61	Nd6	0.392100	0.828890	0.623740
Nd71	Nd7	0.860070	0.325400	0.761500
Nd81	Nd8	0.588730	0.831030	0.408920
H11	H1	0.735600	0.011600	0.075800
H21	H2	0.791200	0.161600	0.412700
H31	H3	0.264400	0.011600	0.575800
H41	H4	0.569800	0.786300	0.766800
H51	H5	0.160100	0.133400	0.555900
H61	H6	0.570200	0.873000	0.765800
H71	H7	0.600600	0.026500	0.715300
H81	H8	0.240800	0.663200	0.972700
H91	H9	0.862400	0.543900	0.489500
H101	H10	0.277500	0.511600	0.304100
H111	H11	0.430200	0.786300	0.266800
H121	H12	0.088300	0.516700	0.653900
H131	H13	0.208800	0.161600	0.912700
H141	H14	0.722500	0.511600	0.804100
H151	H15	0.429800	0.873000	0.265800
H161	H16	0.839900	0.133400	0.055900
H171	H17	0.399400	0.026500	0.215300
H181	H18	0.911700	0.516700	0.153900
H191	H19	0.672700	0.044400	0.396300
H201	H20	0.618400	0.631200	0.818900
H211	H21	0.311900	0.151800	0.225900
H221	H22	0.327300	0.044400	0.896300
H231	H23	0.759200	0.663200	0.472700
H241	H24	0.803500	0.637300	0.141500
H251	H25	0.137600	0.543900	0.989500
H261	H26	0.688100	0.151800	0.725900
H271	H27	0.196500	0.637300	0.641500
H281	H28	0.381600	0.631200	0.318900
C11	C1	0.237200	0.140200	0.116700
C21	C2	0.762800	0.140200	0.616700
C31	C3	0.188800	0.450800	0.116900
C41	C4	0.726700	0.540600	0.849500
C51	C5	0.811200	0.450800	0.616900
C61	C6	0.301700	0.121000	0.182300
C71	C7	0.814500	0.210800	0.914300
C81	C8	0.698300	0.121000	0.682300
C91	C9	0.901400	0.439200	0.298000
C101	C10	0.297900	0.709100	0.769600
C111	C11	0.692600	0.643500	0.926600
C121	C12	0.180700	0.213800	0.099600
C131	C13	0.702100	0.709100	0.269600
C141	C14	0.792600	0.109800	0.017800
C151	C15	0.759800	0.635600	0.254500
C161	C16	0.635300	0.940200	0.579800
C171	C17	0.307400	0.643500	0.426600
C181	C18	0.195300	0.562800	0.024400
C191	C19	0.364700	0.940200	0.079800
C201	C20	0.300700	0.955900	0.764200
C211	C21	0.331700	0.610400	0.357500
C221	C22	0.699300	0.955900	0.264200
C231	C23	0.725000	0.064200	0.358400
C241	C24	0.664000	0.647300	0.575000
C251	C25	0.588700	0.713700	0.584700
C261	C26	0.792000	0.133200	0.366900
C271	C27	0.855300	0.151900	0.302400
C281	C28	0.240200	0.635600	0.754500
C291	C29	0.851300	0.511600	0.267800
C301	C30	0.336000	0.647300	0.075000
C311	C31	0.804700	0.562800	0.524400
C321	C32	0.396800	0.946800	0.452000
C331	C33	0.654100	0.718400	0.956900
C341	C34	0.678000	0.013800	0.607400
C351	C35	0.771600	0.137400	0.946200
C361	C36	0.273300	0.540600	0.349500
C371	C37	0.322000	0.013800	0.107400
C381	C38	0.819300	0.213800	0.599600
C391	C39	0.131800	0.539700	0.694200
C401	C40	0.345900	0.718400	0.456900
C411	C41	0.254800	0.631300	0.015200
C421	C42	0.603200	0.946800	0.952000
C431	C43	0.191900	0.610700	0.688600
C441	C44	0.935400	0.218800	0.290100
C451	C45	0.351500	0.048400	0.176200
C461	C46	0.251200	0.031500	0.786200
C471	C47	0.212000	0.520700	0.413400
C481	C48	0.672800	0.016300	0.963500
C491	C49	0.668300	0.610400	0.857500
C501	C50	0.648500	0.048400	0.676200
C511	C51	0.207400	0.109800	0.517800
C521	C52	0.868200	0.539700	0.194200
C531	C53	0.411300	0.713700	0.084700
C541	C54	0.275000	0.064200	0.858400
C551	C55	0.228400	0.137400	0.446200
C561	C56	0.267000	0.038800	0.529000
C571	C57	0.748800	0.031500	0.286200
C581	C58	0.327200	0.016300	0.463500
C591	C59	0.064600	0.218800	0.790100
C601	C60	0.144700	0.151900	0.802400
C611	C61	0.233300	0.527900	0.090800
C621	C62	0.098600	0.439200	0.798000
C631	C63	0.733000	0.038800	0.029000
C641	C64	0.808100	0.610700	0.188600
C651	C65	0.788000	0.520700	0.913400
C661	C66	0.148700	0.511600	0.767800
C671	C67	0.208000	0.133200	0.866900
C681	C68	0.141500	0.452100	0.429600
C691	C69	0.185500	0.210800	0.414300
C701	C70	0.766700	0.527900	0.590800
C711	C71	0.745200	0.631300	0.515200
C721	C72	0.858500	0.452100	0.929600
S11	S1	0.318800	0.081310	0.389670
S21	S2	0.681200	0.081310	0.889670
S31	S3	0.233100	0.069630	0.050120
S41	S4	0.226000	0.570540	0.828050
S51	S5	0.774000	0.570540	0.328050
S61	S6	0.666700	0.578690	0.644200
S71	S7	0.163100	0.085880	0.728250
S81	S8	0.836900	0.085880	0.228250
S91	S9	0.218100	0.587710	0.485520
S101	S10	0.766900	0.069630	0.550120
S111	S11	0.781900	0.587710	0.985520
S121	S12	0.333300	0.578690	0.144200
O11	O1	0.142100	0.399700	0.377000
O21	O2	0.417200	0.761200	0.030200
O31	O3	0.205800	0.264700	0.147600
O41	O4	0.351000	0.719200	0.834400
O51	O5	0.339900	0.922400	0.009700
O61	O6	0.322600	0.734900	0.525700
O71	O7	0.885100	0.219900	0.540200
O81	O8	0.115700	0.425300	0.869700
O91	O9	0.792400	0.226600	0.845200
O101	O10	0.793500	0.433700	0.687700
O111	O11	0.595800	0.758300	0.907300
O121	O12	0.548700	0.937700	0.886000
O131	O13	0.451300	0.937700	0.386000
O141	O14	0.957800	0.398500	0.249300
O151	O15	0.660100	0.922400	0.509700
O161	O16	0.516900	0.829800	0.767300
O171	O17	0.014500	0.228400	0.725000
O181	O18	0.948000	0.262400	0.347500
O191	O19	0.598000	0.899800	0.004200
O201	O20	0.404200	0.758300	0.407300
O211	O21	0.042200	0.398500	0.749300
O221	O22	0.713700	0.756800	0.216200
O231	O23	0.207600	0.226600	0.345200
O241	O24	0.419800	0.900800	0.127200
O251	O25	0.052000	0.262400	0.847500
O261	O26	0.677400	0.734900	0.025700
O271	O27	0.308400	0.910600	0.820500
O281	O28	0.676200	0.942500	0.194500
O291	O29	0.085700	0.445900	0.490500
O301	O30	0.531500	0.721200	0.649100
O311	O31	0.582800	0.761200	0.530200
O321	O32	0.649000	0.719200	0.334400
O331	O33	0.402000	0.899800	0.504200
O341	O34	0.873200	0.251200	0.962200
O351	O35	0.580200	0.900800	0.627200
O361	O36	0.985500	0.228400	0.225000
O371	O37	0.206500	0.433700	0.187700
O381	O38	0.861800	0.412300	0.568200
O391	O39	0.114900	0.219900	0.040200
O401	O40	0.286300	0.756800	0.716200
O411	O41	0.138200	0.412300	0.068200
O421	O42	0.914300	0.445900	0.990500
O431	O43	0.126800	0.251200	0.462200
O441	O44	0.857900	0.399700	0.877000
O451	O45	0.794200	0.264700	0.647600
O461	O46	0.691600	0.910600	0.320500
O471	O47	0.323800	0.942500	0.694500
O481	O48	0.884300	0.425300	0.369700
O491	O49	0.483100	0.829800	0.267300
O501	O50	0.468500	0.721200	0.149100
