data_SIVGOV_clean_PM
_symmetry_space_group_name_H-M	'P1'
_cell_length_a	12.989000
_cell_length_b	13.821800
_cell_length_c	9.276600
_cell_angle_alpha	90.000000
_cell_angle_beta	124.430000
_cell_angle_gamma	90.000000
_symmetry_Int_Tables_number 1

loop_
_symmetry_equiv_pos_as_xyz
'x,y,z'

loop_
_atom_site_label
_atom_site_type_symbol
_atom_site_fract_x
_atom_site_fract_y
_atom_site_fract_z
Zn11	Zn1	0.720460	0.849780	0.383180
N11	N1	0.367400	0.733600	0.043900
N21	N2	0.545600	0.800600	0.232400
N31	N3	0.815400	0.966500	0.853500
N41	N4	0.725600	0.928200	0.580200
N51	N5	0.811600	0.902300	0.748800
N61	N6	0.349800	0.832300	0.046900
C11	C1	0.485100	0.716700	0.157200
C21	C2	0.681500	0.012800	0.591500
N71	N7	0.735000	0.039500	0.756700
C31	C3	0.546200	0.619800	0.199300
H11	H1	0.484900	0.571400	0.128200
H21	H2	0.583400	0.605400	0.320500
H31	H3	0.609600	0.620200	0.176300
C41	C4	0.582300	0.069600	0.433400
H41	H4	0.559400	0.035700	0.328900
H51	H5	0.614400	0.132300	0.434100
H61	H6	0.510300	0.076900	0.436800
N81	N8	0.456300	0.871300	0.161200
Zn21	Zn2	0.220460	0.349780	0.383180
N91	N9	0.867400	0.233600	0.043900
N101	N10	0.045600	0.300600	0.232400
N111	N11	0.315400	0.466500	0.853500
N121	N12	0.225600	0.428200	0.580200
N131	N13	0.311600	0.402300	0.748800
N141	N14	0.849800	0.332300	0.046900
C51	C5	0.985100	0.216700	0.157200
C61	C6	0.181500	0.512800	0.591500
N151	N15	0.235000	0.539500	0.756700
C71	C7	0.046200	0.119800	0.199300
H71	H7	0.984900	0.071400	0.128200
H81	H8	0.083400	0.105400	0.320500
H91	H9	0.109600	0.120200	0.176300
C81	C8	0.082300	0.569600	0.433400
H101	H10	0.059400	0.535700	0.328900
H111	H11	0.114400	0.632300	0.434100
H121	H12	0.010300	0.576900	0.436800
N161	N16	0.956300	0.371300	0.161200
Zn31	Zn3	0.720460	0.150220	0.883180
N171	N17	0.367400	0.266400	0.543900
N181	N18	0.545600	0.199400	0.732400
N191	N19	0.815400	0.033500	0.353500
N201	N20	0.725600	0.071800	0.080200
N211	N21	0.811600	0.097700	0.248800
N221	N22	0.349800	0.167700	0.546900
C91	C9	0.485100	0.283300	0.657200
C101	C10	0.681500	0.987200	0.091500
N231	N23	0.735000	0.960500	0.256700
C111	C11	0.546200	0.380200	0.699300
H131	H13	0.484900	0.428600	0.628200
H141	H14	0.583400	0.394600	0.820500
H151	H15	0.609600	0.379800	0.676300
C121	C12	0.582300	0.930400	0.933400
H161	H16	0.559400	0.964300	0.828900
H171	H17	0.614400	0.867700	0.934100
H181	H18	0.510300	0.923100	0.936800
N241	N24	0.456300	0.128700	0.661200
Zn41	Zn4	0.220460	0.650220	0.883180
N251	N25	0.867400	0.766400	0.543900
N261	N26	0.045600	0.699400	0.732400
N271	N27	0.315400	0.533500	0.353500
N281	N28	0.225600	0.571800	0.080200
N291	N29	0.311600	0.597700	0.248800
N301	N30	0.849800	0.667700	0.546900
C131	C13	0.985100	0.783300	0.657200
C141	C14	0.181500	0.487200	0.091500
N311	N31	0.235000	0.460500	0.256700
C151	C15	0.046200	0.880200	0.699300
H191	H19	0.984900	0.928600	0.628200
H201	H20	0.083400	0.894600	0.820500
H211	H21	0.109600	0.879800	0.676300
C161	C16	0.082300	0.430400	0.933400
H221	H22	0.059400	0.464300	0.828900
H231	H23	0.114400	0.367700	0.934100
H241	H24	0.010300	0.423100	0.936800
N321	N32	0.956300	0.628700	0.661200
