data_SIWZOP_clean_PM
_symmetry_space_group_name_H-M	'P1'
_cell_length_a	7.899900
_cell_length_b	13.750500
_cell_length_c	7.382900
_cell_angle_alpha	90.000000
_cell_angle_beta	90.000000
_cell_angle_gamma	90.000000
_symmetry_Int_Tables_number 1

loop_
_symmetry_equiv_pos_as_xyz
'x,y,z'

loop_
_atom_site_label
_atom_site_type_symbol
_atom_site_fract_x
_atom_site_fract_y
_atom_site_fract_z
Mg11	Mg1	0.220980	0.164840	0.260010
O11	O1	0.103280	0.269670	0.108640
O21	O2	0.927760	0.333700	0.907610
O31	O3	0.307870	0.286670	0.403320
O41	O4	0.504940	0.353750	0.579420
O51	O5	0.117560	0.047860	0.119920
O61	O6	0.134690	0.927850	0.919340
C11	C1	0.987210	0.264180	0.995300
H11	H1	0.939900	0.201700	0.973700
C21	C2	0.444130	0.285090	0.492200
H21	H2	0.505900	0.225800	0.492300
C31	C3	0.195670	0.997150	0.005500
H31	H3	0.310800	0.013100	0.983100
Mg21	Mg2	0.279020	0.835160	0.760010
O71	O7	0.396720	0.730330	0.608640
O81	O8	0.572240	0.666300	0.407610
O91	O9	0.192130	0.713330	0.903320
O101	O10	0.995060	0.646250	0.079420
O111	O11	0.382440	0.952140	0.619920
O121	O12	0.365310	0.072150	0.419340
C41	C4	0.512790	0.735820	0.495300
H41	H4	0.560100	0.798300	0.473700
C51	C5	0.055870	0.714910	0.992200
H51	H5	0.994100	0.774200	0.992300
C61	C6	0.304330	0.002850	0.505500
H61	H6	0.189200	0.986900	0.483100
Mg31	Mg3	0.779020	0.664840	0.239990
O131	O13	0.896720	0.769670	0.391360
O141	O14	0.072240	0.833700	0.592390
O151	O15	0.692130	0.786670	0.096680
O161	O16	0.495060	0.853750	0.920580
O171	O17	0.882440	0.547860	0.380080
O181	O18	0.865310	0.427850	0.580660
C71	C7	0.012790	0.764180	0.504700
H71	H7	0.060100	0.701700	0.526300
C81	C8	0.555870	0.785090	0.007800
H81	H8	0.494100	0.725800	0.007700
C91	C9	0.804330	0.497150	0.494500
H91	H9	0.689200	0.513100	0.516900
Mg41	Mg4	0.720980	0.335160	0.739990
O191	O19	0.603280	0.230330	0.891360
O201	O20	0.427760	0.166300	0.092390
O211	O21	0.807870	0.213330	0.596680
O221	O22	0.004940	0.146250	0.420580
O231	O23	0.617560	0.452140	0.880080
O241	O24	0.634690	0.572150	0.080660
C101	C10	0.487210	0.235820	0.004700
H101	H10	0.439900	0.298300	0.026300
C111	C11	0.944130	0.214910	0.507800
H111	H11	0.005900	0.274200	0.507700
C121	C12	0.695670	0.502850	0.994500
H121	H12	0.810800	0.486900	0.016900
