data_SIWZOP01_clean_PM
_symmetry_space_group_name_H-M	'P1'
_cell_length_a	7.892800
_cell_length_b	13.769300
_cell_length_c	7.400700
_cell_angle_alpha	90.000000
_cell_angle_beta	90.000000
_cell_angle_gamma	90.000000
_symmetry_Int_Tables_number 1

loop_
_symmetry_equiv_pos_as_xyz
'x,y,z'

loop_
_atom_site_label
_atom_site_type_symbol
_atom_site_fract_x
_atom_site_fract_y
_atom_site_fract_z
Mg11	Mg1	0.222790	0.164660	0.259590
O11	O1	0.104370	0.269520	0.108760
O21	O2	0.929470	0.333740	0.908630
O31	O3	0.310920	0.285990	0.402480
O41	O4	0.507200	0.352900	0.578700
O51	O5	0.118380	0.048130	0.119350
O61	O6	0.134290	0.928510	0.919260
C11	C1	0.989600	0.264630	0.995600
H11	H1	0.943000	0.202200	0.972900
C21	C2	0.445200	0.284580	0.493800
H21	H2	0.505000	0.224700	0.497800
C31	C3	0.194000	0.997870	0.003700
H31	H3	0.308300	0.014700	0.978400
Mg21	Mg2	0.277210	0.835340	0.759590
O71	O7	0.395630	0.730480	0.608760
O81	O8	0.570530	0.666260	0.408630
O91	O9	0.189080	0.714010	0.902480
O101	O10	0.992800	0.647100	0.078700
O111	O11	0.381620	0.951870	0.619350
O121	O12	0.365710	0.071490	0.419260
C41	C4	0.510400	0.735370	0.495600
H41	H4	0.557000	0.797800	0.472900
C51	C5	0.054800	0.715420	0.993800
H51	H5	0.995000	0.775300	0.997800
C61	C6	0.306000	0.002130	0.503700
H61	H6	0.191700	0.985300	0.478400
Mg31	Mg3	0.777210	0.664660	0.240410
O131	O13	0.895630	0.769520	0.391240
O141	O14	0.070530	0.833740	0.591370
O151	O15	0.689080	0.785990	0.097520
O161	O16	0.492800	0.852900	0.921300
O171	O17	0.881620	0.548130	0.380650
O181	O18	0.865710	0.428510	0.580740
C71	C7	0.010400	0.764630	0.504400
H71	H7	0.057000	0.702200	0.527100
C81	C8	0.554800	0.784580	0.006200
H81	H8	0.495000	0.724700	0.002200
C91	C9	0.806000	0.497870	0.496300
H91	H9	0.691700	0.514700	0.521600
Mg41	Mg4	0.722790	0.335340	0.740410
O191	O19	0.604370	0.230480	0.891240
O201	O20	0.429470	0.166260	0.091370
O211	O21	0.810920	0.214010	0.597520
O221	O22	0.007200	0.147100	0.421300
O231	O23	0.618380	0.451870	0.880650
O241	O24	0.634290	0.571490	0.080740
C101	C10	0.489600	0.235370	0.004400
H101	H10	0.443000	0.297800	0.027100
C111	C11	0.945200	0.215420	0.506200
H111	H11	0.005000	0.275300	0.502200
C121	C12	0.694000	0.502130	0.996300
H121	H12	0.808300	0.485300	0.021600
