data_SIYXIH10_clean_PM
_symmetry_space_group_name_H-M	'P1'
_cell_length_a	8.664000
_cell_length_b	8.664000
_cell_length_c	10.861000
_cell_angle_alpha	90.000000
_cell_angle_beta	90.000000
_cell_angle_gamma	120.000000
_symmetry_Int_Tables_number 1

loop_
_symmetry_equiv_pos_as_xyz
'x,y,z'

loop_
_atom_site_label
_atom_site_type_symbol
_atom_site_fract_x
_atom_site_fract_y
_atom_site_fract_z
O11	O1	0.811240	0.977920	0.934630
O21	O2	0.193870	0.882080	0.637070
C11	C1	0.478360	0.942490	0.726770
C21	C2	0.314880	0.940060	0.728830
O31	O3	0.022080	0.833320	0.267960
O41	O4	0.117920	0.311790	0.970400
C31	C3	0.057510	0.535870	0.060100
C41	C4	0.059940	0.374820	0.062160
O51	O5	0.166680	0.188760	0.601300
O61	O6	0.688210	0.806130	0.303740
C51	C5	0.464130	0.521640	0.393440
C61	C6	0.625180	0.685120	0.395500
O71	O7	0.977920	0.811240	0.065370
O81	O8	0.882080	0.193870	0.362930
C71	C7	0.942490	0.478360	0.273230
C81	C8	0.940060	0.314880	0.271170
O91	O9	0.833320	0.022080	0.732040
O101	O10	0.311790	0.117920	0.029600
C91	C9	0.535870	0.057510	0.939900
C101	C10	0.374820	0.059940	0.937840
O111	O11	0.188760	0.166680	0.398700
O121	O12	0.806130	0.688210	0.696260
C111	C11	0.521640	0.464130	0.606560
C121	C12	0.685120	0.625180	0.604500
Fe11	Fe1	0.000000	0.944030	0.666670
Fe21	Fe2	0.055970	0.055970	0.000000
Fe31	Fe3	0.944030	0.000000	0.333330
O131	O13	0.113300	0.000000	0.833330
C131	C13	0.755800	0.000000	0.833330
C141	C14	0.582180	0.000000	0.833330
C151	C15	0.269500	0.000000	0.833330
O141	O14	0.000000	0.113300	0.166670
C161	C16	0.000000	0.755800	0.166670
C171	C17	0.000000	0.582180	0.166670
C181	C18	0.000000	0.269500	0.166670
O151	O15	0.886700	0.886700	0.500000
C191	C19	0.244200	0.244200	0.500000
C201	C20	0.417820	0.417820	0.500000
C211	C21	0.730500	0.730500	0.500000
