data_SIZNIA_clean_PM
_symmetry_space_group_name_H-M	'P1'
_cell_length_a	8.862100
_cell_length_b	13.981200
_cell_length_c	16.399300
_cell_angle_alpha	66.352200
_cell_angle_beta	74.324100
_cell_angle_gamma	71.522800
_symmetry_Int_Tables_number 1

loop_
_symmetry_equiv_pos_as_xyz
'x,y,z'

loop_
_atom_site_label
_atom_site_type_symbol
_atom_site_fract_x
_atom_site_fract_y
_atom_site_fract_z
Cu11	Cu1	0.000000	0.000000	0.000000
Cu21	Cu2	0.500000	0.500000	0.000000
Cu31	Cu3	0.000000	0.000000	0.500000
Cu41	Cu4	0.000000	0.500000	0.500000
H11	H1	0.589700	0.134500	0.347100
H21	H2	0.378500	0.549700	0.643100
H31	H3	0.882100	0.396000	0.169200
H41	H4	0.414600	0.715000	0.860200
H51	H5	0.989800	0.785000	0.639800
H61	H6	0.962100	0.954500	0.346100
H71	H7	0.252800	0.796000	0.014200
H81	H8	0.447300	0.104000	0.330800
H91	H9	0.290100	0.279900	0.371700
H101	H10	0.621500	0.450300	0.356900
H111	H11	0.519200	0.712800	0.371200
H121	H12	0.348900	0.461300	0.417700
H131	H13	0.585400	0.285000	0.139800
H141	H14	0.058300	0.779900	0.871700
H151	H15	0.705300	0.532200	0.359200
H161	H16	0.037900	0.045500	0.653900
H171	H17	0.596700	0.967800	0.140800
H181	H18	0.294700	0.467800	0.640800
H191	H19	0.928700	0.634500	0.847100
H201	H20	0.117900	0.604000	0.830800
H211	H21	0.937000	0.296000	0.514200
H221	H22	0.626800	0.558100	0.275500
H231	H23	0.024900	0.618700	0.756100
H241	H24	0.709900	0.720100	0.628300
H251	H25	0.460400	0.941900	0.224500
H261	H26	0.010200	0.215000	0.360200
H271	H27	0.399700	0.881300	0.743900
H281	H28	0.071300	0.365500	0.152900
H291	H29	0.063000	0.704000	0.485800
H301	H30	0.603200	0.787200	0.128800
H311	H31	0.410300	0.865500	0.652900
H321	H32	0.552700	0.896000	0.669200
H331	H33	0.262700	0.545500	0.153900
H341	H34	0.941700	0.220100	0.128300
H351	H35	0.403300	0.032200	0.859200
H361	H36	0.975100	0.381300	0.243900
H371	H37	0.373200	0.441900	0.724500
H381	H38	0.737300	0.454500	0.846100
H391	H39	0.747200	0.204000	0.985800
H401	H40	0.539600	0.058100	0.775500
H411	H41	0.480800	0.287200	0.628800
H421	H42	0.396800	0.212800	0.871200
H431	H43	0.428700	0.049700	0.143100
H441	H44	0.227900	0.038700	0.082300
H451	H45	0.651100	0.538700	0.582300
H461	H46	0.772100	0.961300	0.917700
H471	H47	0.571300	0.950300	0.856900
H481	H48	0.600300	0.118700	0.256100
C11	C1	0.325560	0.315580	0.311300
C21	C2	0.024000	0.644000	0.802800
C31	C3	0.083580	0.982740	0.820700
C41	C4	0.993470	0.180260	0.326600
C51	C5	0.112980	0.482740	0.320700
C61	C6	0.253090	0.421820	0.270800
C71	C7	0.459230	0.579240	0.384100
C81	C8	0.382350	0.475000	0.660100
C91	C9	0.500330	0.319740	0.173400
C101	C10	0.024920	0.761560	0.762200
C111	C11	0.945710	0.078180	0.229200
C121	C12	0.047560	0.815580	0.811300
C131	C13	0.281120	0.970260	0.080700
C141	C14	0.297110	0.828560	0.038620
C151	C15	0.470800	0.856000	0.697200
C161	C16	0.743960	0.169780	0.554500
C171	C17	0.548680	0.738440	0.737800
C181	C18	0.332080	0.529740	0.419300
C191	C19	0.952440	0.184420	0.188700
C201	C20	0.887020	0.517260	0.679300
C211	C21	0.689590	0.526660	0.818560
C221	C22	0.577430	0.079240	0.884100
C231	C23	0.564680	0.322040	0.607600
C241	C24	0.835710	0.328560	0.538620
C251	C25	0.494320	0.177960	0.892400
C261	C26	0.286570	0.725040	0.432220
C271	C27	0.482550	0.975000	0.160100
C281	C28	0.054290	0.921820	0.770800
C291	C29	0.451320	0.261560	0.262200
C301	C30	0.531760	0.669780	0.054500
C311	C31	0.164290	0.671440	0.461380
C321	C32	0.517450	0.025000	0.839900
C331	C33	0.667920	0.470260	0.580700
C341	C34	0.674440	0.684420	0.688700
C351	C35	0.435320	0.677960	0.392400
C361	C36	0.713430	0.274960	0.567780
C371	C37	0.529200	0.144000	0.302800
C381	C38	0.034810	0.973340	0.681440
C391	C39	0.540770	0.420760	0.615900
C401	C40	0.718880	0.029740	0.919300
C411	C41	0.556170	0.225040	0.932220
C421	C42	0.422570	0.920760	0.115900
C431	C43	0.965190	0.026660	0.318560
C441	C44	0.468240	0.330220	0.945500
C451	C45	0.310410	0.473340	0.181440
C461	C46	0.617650	0.525000	0.339900
C471	C47	0.499670	0.680260	0.826600
C481	C48	0.702890	0.171440	0.961380
C491	C49	0.443830	0.774960	0.067780
C501	C50	0.006530	0.819740	0.673400
C511	C51	0.976000	0.356000	0.197200
C521	C52	0.746910	0.578180	0.729200
C531	C53	0.975080	0.238440	0.237800
C541	C54	0.916420	0.017260	0.179300
C551	C55	0.505680	0.822040	0.107600
C561	C56	0.256040	0.830220	0.445500
N11	N1	0.011530	0.922970	0.632970
N21	N2	0.567470	0.577030	0.867030
N31	N3	0.185060	0.574700	0.455980
N41	N4	0.784260	0.074700	0.955980
N51	N5	0.215740	0.925300	0.044020
N61	N6	0.988470	0.077030	0.367030
N71	N7	0.432530	0.422970	0.132970
N81	N8	0.814940	0.425300	0.544020
O11	O1	0.963780	0.428910	0.722730
O21	O2	0.633000	0.124400	0.575600
O31	O3	0.333000	0.375600	0.924400
O41	O4	0.087450	0.435860	0.405040
O51	O5	0.454790	0.635100	0.022120
O61	O6	0.071650	0.935860	0.905040
O71	O7	0.115420	0.071090	0.777270
O81	O8	0.884580	0.928910	0.222730
O91	O9	0.367000	0.875600	0.424400
O101	O10	0.912550	0.564140	0.594960
O111	O11	0.928350	0.064140	0.094960
O121	O12	0.887990	0.135100	0.522120
O131	O13	0.112010	0.864900	0.477880
O141	O14	0.545210	0.364900	0.977880
O151	O15	0.036220	0.571090	0.277270
O161	O16	0.667000	0.624400	0.075600
