data_SIZPAT_charged_PM
_symmetry_space_group_name_H-M	'P1'
_cell_length_a	14.127000
_cell_length_b	15.532000
_cell_length_c	16.645000
_cell_angle_alpha	90.000000
_cell_angle_beta	90.000000
_cell_angle_gamma	90.000000
_symmetry_Int_Tables_number 1

loop_
_symmetry_equiv_pos_as_xyz
'x,y,z'

loop_
_atom_site_label
_atom_site_type_symbol
_atom_site_fract_x
_atom_site_fract_y
_atom_site_fract_z
Pr11	Pr1	0.109120	0.750000	0.750000
Pr21	Pr2	0.390880	0.250000	0.250000
Pr31	Pr3	0.890880	0.250000	0.250000
Pr41	Pr4	0.609120	0.750000	0.750000
Ni11	Ni1	0.286480	0.560780	0.884790
Ni21	Ni2	0.286480	0.939220	0.615210
Ni31	Ni3	0.213520	0.439220	0.384790
Ni41	Ni4	0.213520	0.060780	0.115210
Ni51	Ni5	0.713520	0.439220	0.115210
Ni61	Ni6	0.713520	0.060780	0.384790
Ni71	Ni7	0.786480	0.560780	0.615210
Ni81	Ni8	0.786480	0.939220	0.884790
H11	H1	0.097200	0.735600	0.573600
H21	H2	0.008500	0.773700	0.596000
H31	H3	0.296700	0.757100	0.667200
H41	H4	0.244600	0.691500	0.625100
H51	H5	0.222400	0.457100	0.691000
H61	H6	0.178900	0.435300	0.775600
H71	H7	0.428600	0.497100	0.716900
H81	H8	0.343000	0.547300	0.679800
H91	H9	0.301800	0.371000	0.836900
H101	H10	0.378400	0.374000	0.768500
H111	H11	0.477700	0.457100	0.848700
H121	H12	0.451400	0.372700	0.895800
H131	H13	0.353600	0.365500	0.992900
H141	H14	0.349500	0.443400	0.052500
H151	H15	0.493000	0.564900	0.941400
H161	H16	0.434500	0.564200	0.021300
H171	H17	0.097200	0.764400	0.926400
H181	H18	0.008500	0.726300	0.904000
H191	H19	0.296700	0.742900	0.832800
H201	H20	0.244600	0.808500	0.874900
H211	H21	0.222400	0.042900	0.809000
H221	H22	0.178900	0.064700	0.724400
H231	H23	0.428600	0.002900	0.783100
H241	H24	0.343000	0.952700	0.820200
H251	H25	0.301800	0.129000	0.663100
H261	H26	0.378400	0.126000	0.731500
H271	H27	0.477700	0.042900	0.651300
H281	H28	0.451400	0.127300	0.604200
H291	H29	0.353600	0.134500	0.507100
H301	H30	0.349500	0.056600	0.447500
H311	H31	0.493000	0.935100	0.558600
H321	H32	0.434500	0.935800	0.478700
H331	H33	0.402800	0.264400	0.073600
H341	H34	0.491500	0.226300	0.096000
H351	H35	0.203300	0.242900	0.167200
H361	H36	0.255400	0.308500	0.125100
H371	H37	0.277600	0.542900	0.191000
H381	H38	0.321100	0.564700	0.275600
H391	H39	0.071400	0.502900	0.216900
H401	H40	0.157000	0.452700	0.179800
H411	H41	0.198200	0.629000	0.336900
H421	H42	0.121600	0.626000	0.268500
H431	H43	0.022300	0.542900	0.348700
H441	H44	0.048600	0.627300	0.395800
H451	H45	0.146400	0.634500	0.492900
H461	H46	0.150500	0.556600	0.552500
H471	H47	0.007000	0.435100	0.441400
H481	H48	0.065500	0.435800	0.521300
H491	H49	0.402800	0.235600	0.426400
H501	H50	0.491500	0.273700	0.404000
H511	H51	0.203300	0.257100	0.332800
H521	H52	0.255400	0.191500	0.374900
H531	H53	0.277600	0.957100	0.309000
H541	H54	0.321100	0.935300	0.224400
H551	H55	0.071400	0.997100	0.283100
H561	H56	0.157000	0.047300	0.320200
H571	H57	0.198200	0.871000	0.163100
H581	H58	0.121600	0.874000	0.231500
H591	H59	0.022300	0.957100	0.151300
H601	H60	0.048600	0.872700	0.104200
H611	H61	0.146400	0.865500	0.007100
H621	H62	0.150500	0.943400	0.947500
H631	H63	0.007000	0.064900	0.058600
H641	H64	0.065500	0.064200	0.978700
H651	H65	0.902800	0.264400	0.426400
H661	H66	0.991500	0.226300	0.404000
H671	H67	0.703300	0.242900	0.332800
H681	H68	0.755400	0.308500	0.374900
H691	H69	0.777600	0.542900	0.309000
H701	H70	0.821100	0.564700	0.224400
H711	H71	0.571400	0.502900	0.283100
H721	H72	0.657000	0.452700	0.320200
H731	H73	0.698200	0.629000	0.163100
H741	H74	0.621600	0.626000	0.231500
H751	H75	0.522300	0.542900	0.151300
H761	H76	0.548600	0.627300	0.104200
H771	H77	0.646400	0.634500	0.007100
H781	H78	0.650500	0.556600	0.947500
H791	H79	0.507000	0.435100	0.058600
H801	H80	0.565500	0.435800	0.978700
H811	H81	0.902800	0.235600	0.073600
H821	H82	0.991500	0.273700	0.096000
H831	H83	0.703300	0.257100	0.167200
H841	H84	0.755400	0.191500	0.125100
H851	H85	0.777600	0.957100	0.191000
H861	H86	0.821100	0.935300	0.275600
H871	H87	0.571400	0.997100	0.216900
H881	H88	0.657000	0.047300	0.179800
H891	H89	0.698200	0.871000	0.336900
H901	H90	0.621600	0.874000	0.268500
H911	H91	0.522300	0.957100	0.348700
H921	H92	0.548600	0.872700	0.395800
H931	H93	0.646400	0.865500	0.492900
H941	H94	0.650500	0.943400	0.552500
H951	H95	0.507000	0.064900	0.441400
H961	H96	0.565500	0.064200	0.521300
H971	H97	0.597200	0.735600	0.926400
H981	H98	0.508500	0.773700	0.904000
H991	H99	0.796700	0.757100	0.832800
H1001	H100	0.744600	0.691500	0.874900
H1011	H101	0.722400	0.457100	0.809000
H1021	H102	0.678900	0.435300	0.724400
H1031	H103	0.928600	0.497100	0.783100
H1041	H104	0.843000	0.547300	0.820200
H1051	H105	0.801800	0.371000	0.663100
H1061	H106	0.878400	0.374000	0.731500
H1071	H107	0.977700	0.457100	0.651300
H1081	H108	0.951400	0.372700	0.604200
H1091	H109	0.853600	0.365500	0.507100
H1101	H110	0.849500	0.443400	0.447500
H1111	H111	0.993000	0.564900	0.558600
H1121	H112	0.934500	0.564200	0.478700
H1131	H113	0.597200	0.764400	0.573600
H1141	H114	0.508500	0.726300	0.596000
H1151	H115	0.796700	0.742900	0.667200
H1161	H116	0.744600	0.808500	0.625100
H1171	H117	0.722400	0.042900	0.691000
H1181	H118	0.678900	0.064700	0.775600
H1191	H119	0.928600	0.002900	0.716900
H1201	H120	0.843000	0.952700	0.679800
H1211	H121	0.801800	0.129000	0.836900
H1221	H122	0.878400	0.126000	0.768500
H1231	H123	0.977700	0.042900	0.848700
H1241	H124	0.951400	0.127300	0.895800
H1251	H125	0.853600	0.134500	0.992900
H1261	H126	0.849500	0.056600	0.052500
H1271	H127	0.993000	0.935100	0.941400
H1281	H128	0.934500	0.935800	0.021300
C11	C1	0.167200	0.563700	0.747300
C21	C2	0.216000	0.477100	0.745900
C31	C3	0.375400	0.534200	0.729700
C41	C4	0.413000	0.617300	0.765200
C51	C5	0.350900	0.406100	0.812700
C61	C6	0.426200	0.426100	0.874300
C71	C7	0.333400	0.424900	0.998600
C81	C8	0.227700	0.428900	0.988800
C91	C9	0.462800	0.527700	0.980600
C101	C10	0.234800	0.659800	0.029900
C111	C11	0.167200	0.936300	0.752700
C121	C12	0.216000	0.022900	0.754100
C131	C13	0.375400	0.965800	0.770300
C141	C14	0.413000	0.882700	0.734800
C151	C15	0.350900	0.093900	0.687300
C161	C16	0.426200	0.073900	0.625700
C171	C17	0.333400	0.075100	0.501400
C181	C18	0.227700	0.071100	0.511200
C191	C19	0.462800	0.972300	0.519400
C201	C20	0.234800	0.840200	0.470100
C211	C21	0.332800	0.436300	0.247300
C221	C22	0.284000	0.522900	0.245900
C231	C23	0.124600	0.465800	0.229700
C241	C24	0.087000	0.382700	0.265200
C251	C25	0.149100	0.593900	0.312700
C261	C26	0.073800	0.573900	0.374300
C271	C27	0.166600	0.575100	0.498600
C281	C28	0.272300	0.571100	0.488800
C291	C29	0.037200	0.472300	0.480600
C301	C30	0.265200	0.340200	0.529900
C311	C31	0.332800	0.063700	0.252700
C321	C32	0.284000	0.977100	0.254100
C331	C33	0.124600	0.034200	0.270300
C341	C34	0.087000	0.117300	0.234800
C351	C35	0.149100	0.906100	0.187300
C361	C36	0.073800	0.926100	0.125700
C371	C37	0.166600	0.924900	0.001400
C381	C38	0.272300	0.928900	0.011200
C391	C39	0.037200	0.027700	0.019400
C401	C40	0.265200	0.159800	0.970100
C411	C41	0.832800	0.436300	0.252700
C421	C42	0.784000	0.522900	0.254100
C431	C43	0.624600	0.465800	0.270300
C441	C44	0.587000	0.382700	0.234800
C451	C45	0.649100	0.593900	0.187300
C461	C46	0.573800	0.573900	0.125700
C471	C47	0.666600	0.575100	0.001400
C481	C48	0.772300	0.571100	0.011200
C491	C49	0.537200	0.472300	0.019400
C501	C50	0.765200	0.340200	0.970100
C511	C51	0.832800	0.063700	0.247300
C521	C52	0.784000	0.977100	0.245900
C531	C53	0.624600	0.034200	0.229700
C541	C54	0.587000	0.117300	0.265200
C551	C55	0.649100	0.906100	0.312700
C561	C56	0.573800	0.926100	0.374300
C571	C57	0.666600	0.924900	0.498600
C581	C58	0.772300	0.928900	0.488800
C591	C59	0.537200	0.027700	0.480600
C601	C60	0.765200	0.159800	0.529900
C611	C61	0.667200	0.563700	0.752700
C621	C62	0.716000	0.477100	0.754100
C631	C63	0.875400	0.534200	0.770300
C641	C64	0.913000	0.617300	0.734800
C651	C65	0.850900	0.406100	0.687300
C661	C66	0.926200	0.426100	0.625700
C671	C67	0.833400	0.424900	0.501400
C681	C68	0.727700	0.428900	0.511200
C691	C69	0.962800	0.527700	0.519400
C701	C70	0.734800	0.659800	0.470100
C711	C71	0.667200	0.936300	0.747300
C721	C72	0.716000	0.022900	0.745900
C731	C73	0.875400	0.965800	0.729700
C741	C74	0.913000	0.882700	0.765200
C751	C75	0.850900	0.093900	0.812700
C761	C76	0.926200	0.073900	0.874300
C771	C77	0.833400	0.075100	0.998600
C781	C78	0.727700	0.071100	0.988800
C791	C79	0.962800	0.972300	0.980600
C801	C80	0.734800	0.840200	0.029900
S11	S1	0.185000	0.701000	0.117000
S21	S2	0.185000	0.799000	0.383000
S31	S3	0.315000	0.299000	0.617000
S41	S4	0.315000	0.201000	0.883000
S51	S5	0.815000	0.299000	0.883000
S61	S6	0.815000	0.201000	0.617000
S71	S7	0.685000	0.701000	0.383000
S81	S8	0.685000	0.799000	0.117000
N11	N1	0.309900	0.486800	0.782800
N21	N2	0.387100	0.478400	0.940300
N31	N3	0.267800	0.639300	0.975100
N41	N4	0.309900	0.013200	0.717200
N51	N5	0.387100	0.021600	0.559700
N61	N6	0.267800	0.860700	0.524900
N71	N7	0.190100	0.513200	0.282800
N81	N8	0.112900	0.521600	0.440300
N91	N9	0.232200	0.360700	0.475100
N101	N10	0.190100	0.986800	0.217200
N111	N11	0.112900	0.978400	0.059700
N121	N12	0.232200	0.139300	0.024900
N131	N13	0.690100	0.513200	0.217200
N141	N14	0.612900	0.521600	0.059700
N151	N15	0.732200	0.360700	0.024900
N161	N16	0.690100	0.986800	0.282800
N171	N17	0.612900	0.978400	0.440300
N181	N18	0.732200	0.139300	0.475100
N191	N19	0.809900	0.486800	0.717200
N201	N20	0.887100	0.478400	0.559700
N211	N21	0.767800	0.639300	0.524900
N221	N22	0.809900	0.013200	0.782800
N231	N23	0.887100	0.021600	0.940300
N241	N24	0.767800	0.860700	0.975100
O11	O1	0.182200	0.611700	0.808700
O21	O2	0.116700	0.586800	0.690900
O31	O3	0.385300	0.639800	0.834100
O41	O4	0.470000	0.658300	0.723700
O51	O5	0.193600	0.474600	0.934000
O61	O6	0.181400	0.385900	0.038200
O71	O7	0.051200	0.737700	0.606900
O81	O8	0.257100	0.717400	0.668400
O91	O9	0.182200	0.888300	0.691300
O101	O10	0.116700	0.913200	0.809100
O111	O11	0.385300	0.860200	0.665900
O121	O12	0.470000	0.841700	0.776300
O131	O13	0.193600	0.025400	0.566000
O141	O14	0.181400	0.114100	0.461800
O151	O15	0.051200	0.762300	0.893100
O161	O16	0.257100	0.782600	0.831600
O171	O17	0.317800	0.388300	0.308700
O181	O18	0.383300	0.413200	0.190900
O191	O19	0.114700	0.360200	0.334100
O201	O20	0.030000	0.341700	0.223700
O211	O21	0.306400	0.525400	0.434000
O221	O22	0.318600	0.614100	0.538200
O231	O23	0.448800	0.262300	0.106900
O241	O24	0.242900	0.282600	0.168400
O251	O25	0.317800	0.111700	0.191300
O261	O26	0.383300	0.086800	0.309100
O271	O27	0.114700	0.139800	0.165900
O281	O28	0.030000	0.158300	0.276300
O291	O29	0.306400	0.974600	0.066000
O301	O30	0.318600	0.885900	0.961800
O311	O31	0.448800	0.237700	0.393100
O321	O32	0.242900	0.217400	0.331600
O331	O33	0.817800	0.388300	0.191300
O341	O34	0.883300	0.413200	0.309100
O351	O35	0.614700	0.360200	0.165900
O361	O36	0.530000	0.341700	0.276300
O371	O37	0.806400	0.525400	0.066000
O381	O38	0.818600	0.614100	0.961800
O391	O39	0.948800	0.262300	0.393100
O401	O40	0.742900	0.282600	0.331600
O411	O41	0.817800	0.111700	0.308700
O421	O42	0.883300	0.086800	0.190900
O431	O43	0.614700	0.139800	0.334100
O441	O44	0.530000	0.158300	0.223700
O451	O45	0.806400	0.974600	0.434000
O461	O46	0.818600	0.885900	0.538200
O471	O47	0.948800	0.237700	0.106900
O481	O48	0.742900	0.217400	0.168400
O491	O49	0.682200	0.611700	0.691300
O501	O50	0.616700	0.586800	0.809100
O511	O51	0.885300	0.639800	0.665900
O521	O52	0.970000	0.658300	0.776300
O531	O53	0.693600	0.474600	0.566000
O541	O54	0.681400	0.385900	0.461800
O551	O55	0.551200	0.737700	0.893100
O561	O56	0.757100	0.717400	0.831600
O571	O57	0.682200	0.888300	0.808700
O581	O58	0.616700	0.913200	0.690900
O591	O59	0.885300	0.860200	0.834100
O601	O60	0.970000	0.841700	0.723700
O611	O61	0.693600	0.025400	0.934000
O621	O62	0.681400	0.114100	0.038200
O631	O63	0.551200	0.762300	0.606900
O641	O64	0.757100	0.782600	0.668400
