data_SIZPEX_charged_PM
_symmetry_space_group_name_H-M	'P1'
_cell_length_a	13.563000
_cell_length_b	15.030000
_cell_length_c	16.193000
_cell_angle_alpha	90.000000
_cell_angle_beta	90.000000
_cell_angle_gamma	90.000000
_symmetry_Int_Tables_number 1

loop_
_symmetry_equiv_pos_as_xyz
'x,y,z'

loop_
_atom_site_label
_atom_site_type_symbol
_atom_site_fract_x
_atom_site_fract_y
_atom_site_fract_z
Ce11	Ce1	0.107270	0.750000	0.750000
Ce21	Ce2	0.392730	0.250000	0.250000
Ce31	Ce3	0.892730	0.250000	0.250000
Ce41	Ce4	0.607270	0.750000	0.750000
Ni11	Ni1	0.285160	0.560330	0.884950
Ni21	Ni2	0.285160	0.939670	0.615050
Ni31	Ni3	0.214840	0.439670	0.384950
Ni41	Ni4	0.214840	0.060330	0.115050
Ni51	Ni5	0.714840	0.439670	0.115050
Ni61	Ni6	0.714840	0.060330	0.384950
Ni71	Ni7	0.785160	0.560330	0.615050
Ni81	Ni8	0.785160	0.939670	0.884950
H11	H1	0.094400	0.734800	0.572400
H21	H2	0.005700	0.772800	0.594700
H31	H3	0.296800	0.756700	0.666800
H41	H4	0.244600	0.691100	0.624700
H51	H5	0.219700	0.454500	0.690800
H61	H6	0.174400	0.433600	0.778200
H71	H7	0.430500	0.494000	0.717700
H81	H8	0.341200	0.544700	0.678200
H91	H9	0.298500	0.368700	0.838000
H101	H10	0.378600	0.372100	0.768000
H111	H11	0.479700	0.456400	0.849200
H121	H12	0.451300	0.369600	0.897700
H131	H13	0.352400	0.363800	0.993600
H141	H14	0.349600	0.444700	0.054600
H151	H15	0.492500	0.566900	0.940800
H161	H16	0.432200	0.564900	0.023300
H171	H17	0.094400	0.765200	0.927600
H181	H18	0.005700	0.727200	0.905300
H191	H19	0.296800	0.743300	0.833200
H201	H20	0.244600	0.808900	0.875300
H211	H21	0.219700	0.045500	0.809200
H221	H22	0.174400	0.066400	0.721800
H231	H23	0.430500	0.006000	0.782300
H241	H24	0.341200	0.955300	0.821800
H251	H25	0.298500	0.131300	0.662000
H261	H26	0.378600	0.127900	0.732000
H271	H27	0.479700	0.043600	0.650800
H281	H28	0.451300	0.130400	0.602300
H291	H29	0.352400	0.136200	0.506400
H301	H30	0.349600	0.055300	0.445400
H311	H31	0.492500	0.933100	0.559200
H321	H32	0.432200	0.935100	0.476700
H331	H33	0.405600	0.265200	0.072400
H341	H34	0.494300	0.227200	0.094700
H351	H35	0.203200	0.243300	0.166800
H361	H36	0.255400	0.308900	0.124700
H371	H37	0.280300	0.545500	0.190800
H381	H38	0.325600	0.566400	0.278200
H391	H39	0.069500	0.506000	0.217700
H401	H40	0.158800	0.455300	0.178200
H411	H41	0.201500	0.631300	0.338000
H421	H42	0.121400	0.627900	0.268000
H431	H43	0.020300	0.543600	0.349200
H441	H44	0.048700	0.630400	0.397700
H451	H45	0.147600	0.636200	0.493600
H461	H46	0.150400	0.555300	0.554600
H471	H47	0.007500	0.433100	0.440800
H481	H48	0.067800	0.435100	0.523300
H491	H49	0.405600	0.234800	0.427600
H501	H50	0.494300	0.272800	0.405300
H511	H51	0.203200	0.256700	0.333200
H521	H52	0.255400	0.191100	0.375300
H531	H53	0.280300	0.954500	0.309200
H541	H54	0.325600	0.933600	0.221800
H551	H55	0.069500	0.994000	0.282300
H561	H56	0.158800	0.044700	0.321800
H571	H57	0.201500	0.868700	0.162000
H581	H58	0.121400	0.872100	0.232000
H591	H59	0.020300	0.956400	0.150800
H601	H60	0.048700	0.869600	0.102300
H611	H61	0.147600	0.863800	0.006400
H621	H62	0.150400	0.944700	0.945400
H631	H63	0.007500	0.066900	0.059200
H641	H64	0.067800	0.064900	0.976700
H651	H65	0.905600	0.265200	0.427600
H661	H66	0.994300	0.227200	0.405300
H671	H67	0.703200	0.243300	0.333200
H681	H68	0.755400	0.308900	0.375300
H691	H69	0.780300	0.545500	0.309200
H701	H70	0.825600	0.566400	0.221800
H711	H71	0.569500	0.506000	0.282300
H721	H72	0.658800	0.455300	0.321800
H731	H73	0.701500	0.631300	0.162000
H741	H74	0.621400	0.627900	0.232000
H751	H75	0.520300	0.543600	0.150800
H761	H76	0.548700	0.630400	0.102300
H771	H77	0.647600	0.636200	0.006400
H781	H78	0.650400	0.555300	0.945400
H791	H79	0.507500	0.433100	0.059200
H801	H80	0.567800	0.435100	0.976700
H811	H81	0.905600	0.234800	0.072400
H821	H82	0.994300	0.272800	0.094700
H831	H83	0.703200	0.256700	0.166800
H841	H84	0.755400	0.191100	0.124700
H851	H85	0.780300	0.954500	0.190800
H861	H86	0.825600	0.933600	0.278200
H871	H87	0.569500	0.994000	0.217700
H881	H88	0.658800	0.044700	0.178200
H891	H89	0.701500	0.868700	0.338000
H901	H90	0.621400	0.872100	0.268000
H911	H91	0.520300	0.956400	0.349200
H921	H92	0.548700	0.869600	0.397700
H931	H93	0.647600	0.863800	0.493600
H941	H94	0.650400	0.944700	0.554600
H951	H95	0.507500	0.066900	0.440800
H961	H96	0.567800	0.064900	0.523300
H971	H97	0.594400	0.734800	0.927600
H981	H98	0.505700	0.772800	0.905300
H991	H99	0.796800	0.756700	0.833200
H1001	H100	0.744600	0.691100	0.875300
H1011	H101	0.719700	0.454500	0.809200
H1021	H102	0.674400	0.433600	0.721800
H1031	H103	0.930500	0.494000	0.782300
H1041	H104	0.841200	0.544700	0.821800
H1051	H105	0.798500	0.368700	0.662000
H1061	H106	0.878600	0.372100	0.732000
H1071	H107	0.979700	0.456400	0.650800
H1081	H108	0.951300	0.369600	0.602300
H1091	H109	0.852400	0.363800	0.506400
H1101	H110	0.849600	0.444700	0.445400
H1111	H111	0.992500	0.566900	0.559200
H1121	H112	0.932200	0.564900	0.476700
H1131	H113	0.594400	0.765200	0.572400
H1141	H114	0.505700	0.727200	0.594700
H1151	H115	0.796800	0.743300	0.666800
H1161	H116	0.744600	0.808900	0.624700
H1171	H117	0.719700	0.045500	0.690800
H1181	H118	0.674400	0.066400	0.778200
H1191	H119	0.930500	0.006000	0.717700
H1201	H120	0.841200	0.955300	0.678200
H1211	H121	0.798500	0.131300	0.838000
H1221	H122	0.878600	0.127900	0.768000
H1231	H123	0.979700	0.043600	0.849200
H1241	H124	0.951300	0.130400	0.897700
H1251	H125	0.852400	0.136200	0.993600
H1261	H126	0.849600	0.055300	0.054600
H1271	H127	0.992500	0.933100	0.940800
H1281	H128	0.932200	0.935100	0.023300
C11	C1	0.165600	0.562800	0.747600
C21	C2	0.213300	0.476000	0.747000
C31	C3	0.374700	0.532300	0.729900
C41	C4	0.411400	0.616400	0.764800
C51	C5	0.349800	0.405100	0.813400
C61	C6	0.425700	0.424800	0.875200
C71	C7	0.332200	0.425400	0.999300
C81	C8	0.226100	0.430600	0.990000
C91	C9	0.461700	0.527800	0.981000
C101	C10	0.229500	0.657900	0.025900
C111	C11	0.165600	0.937200	0.752400
C121	C12	0.213300	0.024000	0.753000
C131	C13	0.374700	0.967700	0.770100
C141	C14	0.411400	0.883600	0.735200
C151	C15	0.349800	0.094900	0.686600
C161	C16	0.425700	0.075200	0.624800
C171	C17	0.332200	0.074600	0.500700
C181	C18	0.226100	0.069400	0.510000
C191	C19	0.461700	0.972200	0.519000
C201	C20	0.229500	0.842100	0.474100
C211	C21	0.334400	0.437200	0.247600
C221	C22	0.286700	0.524000	0.247000
C231	C23	0.125300	0.467700	0.229900
C241	C24	0.088600	0.383600	0.264800
C251	C25	0.150200	0.594900	0.313400
C261	C26	0.074300	0.575200	0.375200
C271	C27	0.167800	0.574600	0.499300
C281	C28	0.273900	0.569400	0.490000
C291	C29	0.038300	0.472200	0.481000
C301	C30	0.270500	0.342100	0.525900
C311	C31	0.334400	0.062800	0.252400
C321	C32	0.286700	0.976000	0.253000
C331	C33	0.125300	0.032300	0.270100
C341	C34	0.088600	0.116400	0.235200
C351	C35	0.150200	0.905100	0.186600
C361	C36	0.074300	0.924800	0.124800
C371	C37	0.167800	0.925400	0.000700
C381	C38	0.273900	0.930600	0.010000
C391	C39	0.038300	0.027800	0.019000
C401	C40	0.270500	0.157900	0.974100
C411	C41	0.834400	0.437200	0.252400
C421	C42	0.786700	0.524000	0.253000
C431	C43	0.625300	0.467700	0.270100
C441	C44	0.588600	0.383600	0.235200
C451	C45	0.650200	0.594900	0.186600
C461	C46	0.574300	0.575200	0.124800
C471	C47	0.667800	0.574600	0.000700
C481	C48	0.773900	0.569400	0.010000
C491	C49	0.538300	0.472200	0.019000
C501	C50	0.770500	0.342100	0.974100
C511	C51	0.834400	0.062800	0.247600
C521	C52	0.786700	0.976000	0.247000
C531	C53	0.625300	0.032300	0.229900
C541	C54	0.588600	0.116400	0.264800
C551	C55	0.650200	0.905100	0.313400
C561	C56	0.574300	0.924800	0.375200
C571	C57	0.667800	0.925400	0.499300
C581	C58	0.773900	0.930600	0.490000
C591	C59	0.538300	0.027800	0.481000
C601	C60	0.770500	0.157900	0.525900
C611	C61	0.665600	0.562800	0.752400
C621	C62	0.713300	0.476000	0.753000
C631	C63	0.874700	0.532300	0.770100
C641	C64	0.911400	0.616400	0.735200
C651	C65	0.849800	0.405100	0.686600
C661	C66	0.925700	0.424800	0.624800
C671	C67	0.832200	0.425400	0.500700
C681	C68	0.726100	0.430600	0.510000
C691	C69	0.961700	0.527800	0.519000
C701	C70	0.729500	0.657900	0.474100
C711	C71	0.665600	0.937200	0.747600
C721	C72	0.713300	0.024000	0.747000
C731	C73	0.874700	0.967700	0.729900
C741	C74	0.911400	0.883600	0.764800
C751	C75	0.849800	0.094900	0.813400
C761	C76	0.925700	0.075200	0.875200
C771	C77	0.832200	0.074600	0.999300
C781	C78	0.726100	0.069400	0.990000
C791	C79	0.961700	0.972200	0.981000
C801	C80	0.729500	0.842100	0.025900
S11	S1	0.180500	0.699600	0.117300
S21	S2	0.180500	0.800400	0.382700
S31	S3	0.319500	0.300400	0.617300
S41	S4	0.319500	0.199600	0.882700
S51	S5	0.819500	0.300400	0.882700
S61	S6	0.819500	0.199600	0.617300
S71	S7	0.680500	0.699600	0.382700
S81	S8	0.680500	0.800400	0.117300
N11	N1	0.308400	0.485800	0.783600
N21	N2	0.385600	0.478100	0.940900
N31	N3	0.268000	0.638600	0.971900
N41	N4	0.308400	0.014200	0.716400
N51	N5	0.385600	0.021900	0.559100
N61	N6	0.268000	0.861400	0.528100
N71	N7	0.191600	0.514200	0.283600
N81	N8	0.114400	0.521900	0.440900
N91	N9	0.232000	0.361400	0.471900
N101	N10	0.191600	0.985800	0.216400
N111	N11	0.114400	0.978100	0.059100
N121	N12	0.232000	0.138600	0.028100
N131	N13	0.691600	0.514200	0.216400
N141	N14	0.614400	0.521900	0.059100
N151	N15	0.732000	0.361400	0.028100
N161	N16	0.691600	0.985800	0.283600
N171	N17	0.614400	0.978100	0.440900
N181	N18	0.732000	0.138600	0.471900
N191	N19	0.808400	0.485800	0.716400
N201	N20	0.885600	0.478100	0.559100
N211	N21	0.768000	0.638600	0.528100
N221	N22	0.808400	0.014200	0.783600
N231	N23	0.885600	0.021900	0.940900
N241	N24	0.768000	0.861400	0.971900
O11	O1	0.180400	0.610900	0.809000
O21	O2	0.114700	0.585300	0.691400
O31	O3	0.384700	0.638500	0.833500
O41	O4	0.466700	0.658200	0.722700
O51	O5	0.190900	0.475300	0.934900
O61	O6	0.178200	0.387600	0.039300
O71	O7	0.048400	0.736800	0.605700
O81	O8	0.257100	0.717000	0.667900
O91	O9	0.180400	0.889100	0.691000
O101	O10	0.114700	0.914700	0.808600
O111	O11	0.384700	0.861500	0.666500
O121	O12	0.466700	0.841800	0.777300
O131	O13	0.190900	0.024700	0.565100
O141	O14	0.178200	0.112400	0.460700
O151	O15	0.048400	0.763200	0.894300
O161	O16	0.257100	0.783000	0.832100
O171	O17	0.319600	0.389100	0.309000
O181	O18	0.385300	0.414700	0.191400
O191	O19	0.115300	0.361500	0.333500
O201	O20	0.033300	0.341800	0.222700
O211	O21	0.309100	0.524700	0.434900
O221	O22	0.321800	0.612400	0.539300
O231	O23	0.451600	0.263200	0.105700
O241	O24	0.242900	0.283000	0.167900
O251	O25	0.319600	0.110900	0.191000
O261	O26	0.385300	0.085300	0.308600
O271	O27	0.115300	0.138500	0.166500
O281	O28	0.033300	0.158200	0.277300
O291	O29	0.309100	0.975300	0.065100
O301	O30	0.321800	0.887600	0.960700
O311	O31	0.451600	0.236800	0.394300
O321	O32	0.242900	0.217000	0.332100
O331	O33	0.819600	0.389100	0.191000
O341	O34	0.885300	0.414700	0.308600
O351	O35	0.615300	0.361500	0.166500
O361	O36	0.533300	0.341800	0.277300
O371	O37	0.809100	0.524700	0.065100
O381	O38	0.821800	0.612400	0.960700
O391	O39	0.951600	0.263200	0.394300
O401	O40	0.742900	0.283000	0.332100
O411	O41	0.819600	0.110900	0.309000
O421	O42	0.885300	0.085300	0.191400
O431	O43	0.615300	0.138500	0.333500
O441	O44	0.533300	0.158200	0.222700
O451	O45	0.809100	0.975300	0.434900
O461	O46	0.821800	0.887600	0.539300
O471	O47	0.951600	0.236800	0.105700
O481	O48	0.742900	0.217000	0.167900
O491	O49	0.680400	0.610900	0.691000
O501	O50	0.614700	0.585300	0.808600
O511	O51	0.884700	0.638500	0.666500
O521	O52	0.966700	0.658200	0.777300
O531	O53	0.690900	0.475300	0.565100
O541	O54	0.678200	0.387600	0.460700
O551	O55	0.548400	0.736800	0.894300
O561	O56	0.757100	0.717000	0.832100
O571	O57	0.680400	0.889100	0.809000
O581	O58	0.614700	0.914700	0.691400
O591	O59	0.884700	0.861500	0.833500
O601	O60	0.966700	0.841800	0.722700
O611	O61	0.690900	0.024700	0.934900
O621	O62	0.678200	0.112400	0.039300
O631	O63	0.548400	0.763200	0.605700
O641	O64	0.757100	0.783000	0.667900
