data_SOBTUY_clean_PM
_symmetry_space_group_name_H-M	'P1'
_cell_length_a	16.520000
_cell_length_b	34.600000
_cell_length_c	9.361000
_cell_angle_alpha	90.000000
_cell_angle_beta	112.400000
_cell_angle_gamma	90.000000
_symmetry_Int_Tables_number 1

loop_
_symmetry_equiv_pos_as_xyz
'x,y,z'

loop_
_atom_site_label
_atom_site_type_symbol
_atom_site_fract_x
_atom_site_fract_y
_atom_site_fract_z
N11	N1	0.887000	0.016000	0.830000
N21	N2	0.972000	0.945000	0.945000
C11	C1	0.827000	0.990000	0.729000
C21	C2	0.828000	0.953000	0.723000
C31	C3	0.895000	0.929000	0.821000
C41	C4	0.904000	0.888000	0.808000
C51	C5	0.980000	0.876000	0.931000
C61	C6	0.021000	0.913000	0.994000
C71	C7	0.094000	0.916000	0.151000
C81	C8	0.861000	0.052000	0.785000
C91	C9	0.778000	0.051000	0.648000
C101	C10	0.755000	0.017000	0.622000
C111	C11	0.744000	0.931000	0.631000
C121	C12	0.700000	0.904000	0.667000
C131	C13	0.625000	0.882000	0.568000
C141	C14	0.649000	0.921000	0.377000
C151	C15	0.724000	0.941000	0.458000
C161	C16	0.137000	0.876000	0.204000
C171	C17	0.184000	0.851000	0.169000
C181	C18	0.221000	0.816000	0.235000
C191	C19	0.158000	0.831000	0.415000
C201	C20	0.131000	0.868000	0.337000
N31	N3	0.607000	0.893000	0.408000
N41	N4	0.205000	0.806000	0.370000
N51	N5	0.387000	0.516000	0.830000
N61	N6	0.472000	0.445000	0.945000
C211	C21	0.327000	0.490000	0.729000
C221	C22	0.328000	0.453000	0.723000
C231	C23	0.395000	0.429000	0.821000
C241	C24	0.404000	0.388000	0.808000
C251	C25	0.480000	0.376000	0.931000
C261	C26	0.521000	0.413000	0.994000
C271	C27	0.594000	0.416000	0.151000
C281	C28	0.361000	0.552000	0.785000
C291	C29	0.278000	0.551000	0.648000
C301	C30	0.255000	0.517000	0.622000
C311	C31	0.244000	0.431000	0.631000
C321	C32	0.200000	0.404000	0.667000
C331	C33	0.125000	0.382000	0.568000
C341	C34	0.149000	0.421000	0.377000
C351	C35	0.224000	0.441000	0.458000
C361	C36	0.637000	0.376000	0.204000
C371	C37	0.684000	0.351000	0.169000
C381	C38	0.721000	0.316000	0.235000
C391	C39	0.658000	0.331000	0.415000
C401	C40	0.631000	0.368000	0.337000
N71	N7	0.107000	0.393000	0.408000
N81	N8	0.705000	0.306000	0.370000
N91	N9	0.113000	0.016000	0.670000
N101	N10	0.028000	0.945000	0.555000
C411	C41	0.173000	0.990000	0.771000
C421	C42	0.172000	0.953000	0.777000
C431	C43	0.105000	0.929000	0.679000
C441	C44	0.096000	0.888000	0.692000
C451	C45	0.020000	0.876000	0.569000
C461	C46	0.979000	0.913000	0.506000
C471	C47	0.906000	0.916000	0.349000
C481	C48	0.139000	0.052000	0.715000
C491	C49	0.222000	0.051000	0.852000
C501	C50	0.245000	0.017000	0.878000
C511	C51	0.256000	0.931000	0.869000
C521	C52	0.300000	0.904000	0.833000
C531	C53	0.375000	0.882000	0.932000
C541	C54	0.351000	0.921000	0.123000
C551	C55	0.276000	0.941000	0.042000
C561	C56	0.863000	0.876000	0.296000
C571	C57	0.816000	0.851000	0.331000
C581	C58	0.779000	0.816000	0.265000
C591	C59	0.842000	0.831000	0.085000
C601	C60	0.869000	0.868000	0.163000
N111	N11	0.393000	0.893000	0.092000
N121	N12	0.795000	0.806000	0.130000
N131	N13	0.613000	0.516000	0.670000
N141	N14	0.528000	0.445000	0.555000
C611	C61	0.673000	0.490000	0.771000
C621	C62	0.672000	0.453000	0.777000
C631	C63	0.605000	0.429000	0.679000
C641	C64	0.596000	0.388000	0.692000
C651	C65	0.520000	0.376000	0.569000
C661	C66	0.479000	0.413000	0.506000
C671	C67	0.406000	0.416000	0.349000
C681	C68	0.639000	0.552000	0.715000
C691	C69	0.722000	0.551000	0.852000
C701	C70	0.745000	0.517000	0.878000
C711	C71	0.756000	0.431000	0.869000
C721	C72	0.800000	0.404000	0.833000
C731	C73	0.875000	0.382000	0.932000
C741	C74	0.851000	0.421000	0.123000
C751	C75	0.776000	0.441000	0.042000
C761	C76	0.363000	0.376000	0.296000
C771	C77	0.316000	0.351000	0.331000
C781	C78	0.279000	0.316000	0.265000
C791	C79	0.342000	0.331000	0.085000
C801	C80	0.369000	0.368000	0.163000
N151	N15	0.893000	0.393000	0.092000
N161	N16	0.295000	0.306000	0.130000
N171	N17	0.113000	0.984000	0.170000
N181	N18	0.028000	0.055000	0.055000
C811	C81	0.173000	0.010000	0.271000
C821	C82	0.172000	0.047000	0.277000
C831	C83	0.105000	0.071000	0.179000
C841	C84	0.096000	0.112000	0.192000
C851	C85	0.020000	0.124000	0.069000
C861	C86	0.979000	0.087000	0.006000
C871	C87	0.906000	0.084000	0.849000
C881	C88	0.139000	0.948000	0.215000
C891	C89	0.222000	0.949000	0.352000
C901	C90	0.245000	0.983000	0.378000
C911	C91	0.256000	0.069000	0.369000
C921	C92	0.300000	0.096000	0.333000
C931	C93	0.375000	0.118000	0.432000
C941	C94	0.351000	0.079000	0.623000
C951	C95	0.276000	0.059000	0.542000
C961	C96	0.863000	0.124000	0.796000
C971	C97	0.816000	0.149000	0.831000
C981	C98	0.779000	0.184000	0.765000
C991	C99	0.842000	0.169000	0.585000
C1001	C100	0.869000	0.132000	0.663000
N191	N19	0.393000	0.107000	0.592000
N201	N20	0.795000	0.194000	0.630000
N211	N21	0.613000	0.484000	0.170000
N221	N22	0.528000	0.555000	0.055000
C1011	C101	0.673000	0.510000	0.271000
C1021	C102	0.672000	0.547000	0.277000
C1031	C103	0.605000	0.571000	0.179000
C1041	C104	0.596000	0.612000	0.192000
C1051	C105	0.520000	0.624000	0.069000
C1061	C106	0.479000	0.587000	0.006000
C1071	C107	0.406000	0.584000	0.849000
C1081	C108	0.639000	0.448000	0.215000
C1091	C109	0.722000	0.449000	0.352000
C1101	C110	0.745000	0.483000	0.378000
C1111	C111	0.756000	0.569000	0.369000
C1121	C112	0.800000	0.596000	0.333000
C1131	C113	0.875000	0.618000	0.432000
C1141	C114	0.851000	0.579000	0.623000
C1151	C115	0.776000	0.559000	0.542000
C1161	C116	0.363000	0.624000	0.796000
C1171	C117	0.316000	0.649000	0.831000
C1181	C118	0.279000	0.684000	0.765000
C1191	C119	0.342000	0.669000	0.585000
C1201	C120	0.369000	0.632000	0.663000
N231	N23	0.893000	0.607000	0.592000
N241	N24	0.295000	0.694000	0.630000
N251	N25	0.887000	0.984000	0.330000
N261	N26	0.972000	0.055000	0.445000
C1211	C121	0.827000	0.010000	0.229000
C1221	C122	0.828000	0.047000	0.223000
C1231	C123	0.895000	0.071000	0.321000
C1241	C124	0.904000	0.112000	0.308000
C1251	C125	0.980000	0.124000	0.431000
C1261	C126	0.021000	0.087000	0.494000
C1271	C127	0.094000	0.084000	0.651000
C1281	C128	0.861000	0.948000	0.285000
C1291	C129	0.778000	0.949000	0.148000
C1301	C130	0.755000	0.983000	0.122000
C1311	C131	0.744000	0.069000	0.131000
C1321	C132	0.700000	0.096000	0.167000
C1331	C133	0.625000	0.118000	0.068000
C1341	C134	0.649000	0.079000	0.877000
C1351	C135	0.724000	0.059000	0.958000
C1361	C136	0.137000	0.124000	0.704000
C1371	C137	0.184000	0.149000	0.669000
C1381	C138	0.221000	0.184000	0.735000
C1391	C139	0.158000	0.169000	0.915000
C1401	C140	0.131000	0.132000	0.837000
N271	N27	0.607000	0.107000	0.908000
N281	N28	0.205000	0.194000	0.870000
N291	N29	0.387000	0.484000	0.330000
N301	N30	0.472000	0.555000	0.445000
C1411	C141	0.327000	0.510000	0.229000
C1421	C142	0.328000	0.547000	0.223000
C1431	C143	0.395000	0.571000	0.321000
C1441	C144	0.404000	0.612000	0.308000
C1451	C145	0.480000	0.624000	0.431000
C1461	C146	0.521000	0.587000	0.494000
C1471	C147	0.594000	0.584000	0.651000
C1481	C148	0.361000	0.448000	0.285000
C1491	C149	0.278000	0.449000	0.148000
C1501	C150	0.255000	0.483000	0.122000
C1511	C151	0.244000	0.569000	0.131000
C1521	C152	0.200000	0.596000	0.167000
C1531	C153	0.125000	0.618000	0.068000
C1541	C154	0.149000	0.579000	0.877000
C1551	C155	0.224000	0.559000	0.958000
C1561	C156	0.637000	0.624000	0.704000
C1571	C157	0.684000	0.649000	0.669000
C1581	C158	0.721000	0.684000	0.735000
C1591	C159	0.658000	0.669000	0.915000
C1601	C160	0.631000	0.632000	0.837000
N311	N31	0.107000	0.607000	0.908000
N321	N32	0.705000	0.694000	0.870000
Cd11	Cd1	0.500000	0.148400	0.750000
Cd21	Cd2	0.000000	0.648400	0.750000
Cd31	Cd3	0.500000	0.851600	0.250000
Cd41	Cd4	0.000000	0.351600	0.250000
Cd51	Cd5	0.250000	0.750000	0.500000
Cd61	Cd6	0.750000	0.750000	0.000000
Cd71	Cd7	0.750000	0.250000	0.500000
Cd81	Cd8	0.250000	0.250000	0.000000
Pd11	Pd1	0.000000	0.000000	0.000000
Pd21	Pd2	0.500000	0.500000	0.000000
Pd31	Pd3	0.000000	0.000000	0.500000
Pd41	Pd4	0.500000	0.500000	0.500000
