data_SOBZEQ_clean_PM
_symmetry_space_group_name_H-M	'P1'
_cell_length_a	13.912900
_cell_length_b	14.276700
_cell_length_c	18.623000
_cell_angle_alpha	94.191000
_cell_angle_beta	90.000000
_cell_angle_gamma	90.000000
_symmetry_Int_Tables_number 1

loop_
_symmetry_equiv_pos_as_xyz
'x,y,z'

loop_
_atom_site_label
_atom_site_type_symbol
_atom_site_fract_x
_atom_site_fract_y
_atom_site_fract_z
Ca11	Ca1	0.701950	0.584580	0.372050
Ca21	Ca2	0.298050	0.415420	0.627950
Ca31	Ca3	0.201950	0.915420	0.127950
Ca41	Ca4	0.798050	0.084580	0.872050
Cd11	Cd1	0.543010	0.502580	0.226420
Cd21	Cd2	0.956990	0.002580	0.726420
Cd31	Cd3	0.456990	0.497420	0.773580
Cd41	Cd4	0.043010	0.997420	0.273580
H11	H1	0.780300	0.236500	0.248800
H21	H2	0.820000	0.129000	0.439300
H31	H3	0.680000	0.629000	0.939300
H41	H4	0.180000	0.871000	0.560700
H51	H5	0.918000	0.815100	0.024800
H61	H6	0.141500	0.154100	0.075700
H71	H7	0.191400	0.851200	0.450900
H81	H8	0.849200	0.736200	0.220400
H91	H9	0.308600	0.351200	0.950900
H101	H10	0.691400	0.648800	0.049100
H111	H11	0.280300	0.263500	0.251200
H121	H12	0.650800	0.236200	0.720400
H131	H13	0.808600	0.148800	0.549100
H141	H14	0.082000	0.184900	0.975200
H151	H15	0.150800	0.263800	0.779600
H161	H16	0.358500	0.654100	0.575700
H171	H17	0.349200	0.763800	0.279600
H181	H18	0.719700	0.736500	0.748800
H191	H19	0.858500	0.845900	0.924300
H201	H20	0.418000	0.684900	0.475200
H211	H21	0.582000	0.315100	0.524800
H221	H22	0.641500	0.345900	0.424300
H231	H23	0.320000	0.371000	0.060700
H241	H24	0.219700	0.763500	0.751200
C11	C1	0.316400	0.698600	0.596800
C21	C2	0.877400	0.782800	0.054090
C31	C3	0.799000	0.732900	0.023430
C41	C4	0.524400	0.346300	0.659470
C51	C5	0.724800	0.235400	0.445320
C61	C6	0.261200	0.817100	0.358480
C71	C7	0.796000	0.801700	0.830470
C81	C8	0.183600	0.198600	0.096800
C91	C9	0.185700	0.824900	0.660000
C101	C10	0.197500	0.872900	0.312590
C111	C11	0.238800	0.317100	0.858480
C121	C12	0.697500	0.627100	0.187410
C131	C13	0.895400	0.784900	0.127350
C141	C14	0.814300	0.175100	0.340000
C151	C15	0.802500	0.127100	0.687410
C161	C16	0.209200	0.826800	0.587780
C171	C17	0.656200	0.372800	0.287040
C181	C18	0.975600	0.846300	0.159470
C191	C19	0.768300	0.237600	0.298020
C201	C20	0.256900	0.316700	0.931520
C211	C21	0.662700	0.234900	0.671250
C221	C22	0.892700	0.111500	0.309190
C231	C23	0.775200	0.735400	0.945320
C241	C24	0.604600	0.284900	0.627350
C251	C25	0.738800	0.182900	0.641520
C261	C26	0.156200	0.127200	0.212960
C271	C27	0.731700	0.737600	0.798020
C281	C28	0.701000	0.232900	0.523430
C291	C29	0.709200	0.673200	0.912220
C301	C30	0.343800	0.627200	0.712960
C311	C31	0.337300	0.765100	0.328750
C321	C32	0.761200	0.682900	0.141520
C331	C33	0.837300	0.734900	0.171250
C341	C34	0.290800	0.326800	0.087780
C351	C35	0.231700	0.762400	0.701980
C361	C36	0.843800	0.872800	0.787040
C371	C37	0.224800	0.264600	0.054680
C381	C38	0.107300	0.888500	0.690810
C391	C39	0.302500	0.372900	0.812590
C401	C40	0.296000	0.698300	0.669530
C411	C41	0.268300	0.262400	0.201980
C421	C42	0.243100	0.816700	0.431520
C431	C43	0.622600	0.282800	0.554090
C441	C44	0.704000	0.301700	0.330470
C451	C45	0.201000	0.267100	0.976570
C461	C46	0.122600	0.217200	0.945910
C471	C47	0.162700	0.265100	0.828750
C481	C48	0.392700	0.388500	0.190810
C491	C49	0.204000	0.198300	0.169530
C501	C50	0.299000	0.767100	0.476570
C511	C51	0.756900	0.183300	0.568480
C521	C52	0.275200	0.764600	0.554680
C531	C53	0.816400	0.801400	0.903200
C541	C54	0.685700	0.675100	0.840000
C551	C55	0.314300	0.324900	0.160000
C561	C56	0.790800	0.173200	0.412220
C571	C57	0.743100	0.683300	0.068480
C581	C58	0.475600	0.653700	0.340530
C591	C59	0.024400	0.153700	0.840530
C601	C60	0.104600	0.215100	0.872650
C611	C61	0.377400	0.717200	0.445910
C621	C62	0.607300	0.611500	0.809190
C631	C63	0.395400	0.715100	0.372650
C641	C64	0.683600	0.301400	0.403200
O11	O1	0.912360	0.110980	0.243620
O21	O2	0.956580	0.134080	0.879890
O31	O3	0.646690	0.358360	0.220840
O41	O4	0.789340	0.130090	0.753800
O51	O5	0.034660	0.126090	0.775650
O61	O6	0.936070	0.062420	0.351900
O71	O7	0.853310	0.858360	0.720840
O81	O8	0.043420	0.865920	0.120110
O91	O9	0.875260	0.947850	0.821180
O101	O10	0.210660	0.869910	0.246200
O111	O11	0.456580	0.365920	0.620110
O121	O12	0.146690	0.141640	0.279160
O131	O13	0.353310	0.641640	0.779160
O141	O14	0.412360	0.389020	0.256380
O151	O15	0.375260	0.552150	0.678820
O161	O16	0.633110	0.579360	0.154690
O171	O17	0.124740	0.052150	0.178820
O181	O18	0.366890	0.420640	0.845310
O191	O19	0.087640	0.889020	0.756380
O201	O20	0.289340	0.369910	0.746200
O211	O21	0.587640	0.610980	0.743620
O221	O22	0.866890	0.079360	0.654690
O231	O23	0.436070	0.437580	0.148100
O241	O24	0.965340	0.873910	0.224350
O251	O25	0.543420	0.634080	0.379890
O261	O26	0.063930	0.937580	0.648100
O271	O27	0.563930	0.562420	0.851900
O281	O28	0.534660	0.373910	0.724350
O291	O29	0.133110	0.920640	0.345310
O301	O30	0.710660	0.630090	0.253800
O311	O31	0.465340	0.626090	0.275650
O321	O32	0.624740	0.447850	0.321180
