data_SOCLAZ_clean_PM
_symmetry_space_group_name_H-M	'P1'
_cell_length_a	7.280000
_cell_length_b	16.267300
_cell_length_c	16.287300
_cell_angle_alpha	106.001000
_cell_angle_beta	90.000000
_cell_angle_gamma	90.000000
_symmetry_Int_Tables_number 1

loop_
_symmetry_equiv_pos_as_xyz
'x,y,z'

loop_
_atom_site_label
_atom_site_type_symbol
_atom_site_fract_x
_atom_site_fract_y
_atom_site_fract_z
Cd11	Cd1	0.274100	0.781230	0.577060
Cd21	Cd2	0.725900	0.218770	0.422940
Cd31	Cd3	0.774100	0.218770	0.922940
Cd41	Cd4	0.225900	0.781230	0.077060
H11	H1	0.074200	0.326800	0.683100
H21	H2	0.424800	0.304000	0.557000
H31	H3	0.252400	0.972800	0.133100
H41	H4	0.895900	0.447600	0.432000
H51	H5	0.173600	0.080900	0.565900
H61	H6	0.558300	0.369100	0.352800
H71	H7	0.925800	0.673200	0.316900
H81	H8	0.887500	0.440900	0.526300
H91	H9	0.779700	0.099500	0.152800
H101	H10	0.673600	0.919100	0.934100
H111	H11	0.441700	0.630900	0.647200
H121	H12	0.127400	0.029700	0.369100
H131	H13	0.604100	0.447600	0.932000
H141	H14	0.075200	0.304000	0.057000
H151	H15	0.872600	0.970300	0.630900
H161	H16	0.395900	0.552400	0.068000
H171	H17	0.202800	0.406000	0.589400
H181	H18	0.575200	0.696000	0.443000
H191	H19	0.338100	0.473000	0.380000
H201	H20	0.292300	0.154000	0.394200
H211	H21	0.387500	0.559100	0.973700
H221	H22	0.279700	0.900500	0.347200
H231	H23	0.924800	0.696000	0.943000
H241	H24	0.207700	0.154000	0.894200
H251	H25	0.720300	0.099500	0.652800
H261	H26	0.326400	0.080900	0.065900
H271	H27	0.058300	0.630900	0.147200
H281	H28	0.104100	0.552400	0.568000
H291	H29	0.372600	0.029700	0.869100
H301	H30	0.574200	0.673200	0.816900
H311	H31	0.747600	0.027200	0.866900
H321	H32	0.175800	0.329400	0.270800
H331	H33	0.838100	0.527000	0.120000
H341	H34	0.661900	0.527000	0.620000
H351	H35	0.161900	0.473000	0.880000
H361	H36	0.941700	0.369100	0.852800
H371	H37	0.675800	0.670600	0.229200
H381	H38	0.112500	0.559100	0.473700
H391	H39	0.324200	0.329400	0.770800
H401	H40	0.752400	0.027200	0.366900
H411	H41	0.826400	0.919100	0.434100
H421	H42	0.425800	0.326800	0.183100
H431	H43	0.247600	0.972800	0.633100
H441	H44	0.702800	0.594000	0.910600
H451	H45	0.612500	0.440900	0.026300
H461	H46	0.792300	0.846000	0.105800
H471	H47	0.627400	0.970300	0.130900
H481	H48	0.824200	0.670600	0.729200
H491	H49	0.297200	0.406000	0.089400
H501	H50	0.797200	0.594000	0.410600
H511	H51	0.707700	0.846000	0.605800
H521	H52	0.220300	0.900500	0.847200
C11	C1	0.854900	0.870000	0.839200
C21	C2	0.147300	0.439300	0.917200
C31	C3	0.354400	0.102200	0.383800
C41	C4	0.955400	0.211200	0.290000
C51	C5	0.145100	0.130000	0.160800
C61	C6	0.226700	0.399700	0.040400
C71	C7	0.405200	0.520000	0.008400
C81	C8	0.644300	0.722400	0.822900
C91	C9	0.354900	0.130000	0.660800
C101	C10	0.900800	0.797000	0.385200
C111	C11	0.273300	0.399700	0.540400
C121	C12	0.793300	0.721100	0.770000
C131	C13	0.397100	0.206000	0.723300
C141	C14	0.463500	0.050800	0.647100
C151	C15	0.906800	0.661800	0.979600
C161	C16	0.645600	0.897800	0.616200
C171	C17	0.773300	0.600300	0.959600
C181	C18	0.094800	0.520000	0.508400
C191	C19	0.355700	0.277600	0.177100
C201	C20	0.036500	0.050800	0.147100
C211	C21	0.645100	0.870000	0.339200
C221	C22	0.400800	0.203000	0.114800
C231	C23	0.744900	0.972000	0.630600
C241	C24	0.593200	0.661800	0.479600
C251	C25	0.099200	0.203000	0.614800
C261	C26	0.647300	0.560700	0.582800
C271	C27	0.255100	0.028000	0.369400
C281	C28	0.515200	0.623800	0.599100
C291	C29	0.455400	0.788800	0.210000
C301	C30	0.293300	0.278900	0.730000
C311	C31	0.536500	0.949200	0.352900
C321	C32	0.015200	0.376200	0.900900
C331	C33	0.352700	0.439300	0.417200
C341	C34	0.897100	0.794000	0.776700
C351	C35	0.145600	0.102200	0.883800
C361	C36	0.093200	0.338200	0.020400
C371	C37	0.905200	0.480000	0.491600
C381	C38	0.852700	0.560700	0.082800
C391	C39	0.244900	0.028000	0.869400
C401	C40	0.406800	0.338200	0.520400
C411	C41	0.599200	0.797000	0.885200
C421	C42	0.854400	0.897800	0.116200
C431	C43	0.855700	0.722400	0.322900
C441	C44	0.602900	0.794000	0.276700
C451	C45	0.446400	0.797900	0.948000
C461	C46	0.963500	0.949200	0.852900
C471	C47	0.757600	0.547300	0.511900
C481	C48	0.946400	0.202100	0.552000
C491	C49	0.296000	0.130900	0.107600
C501	C50	0.755100	0.972000	0.130600
C511	C51	0.594800	0.480000	0.991600
C521	C52	0.544600	0.211200	0.790000
C531	C53	0.124700	0.973000	0.132200
C541	C54	0.726700	0.600300	0.459600
C551	C55	0.053600	0.797900	0.448000
C561	C56	0.845800	0.049000	0.144800
C571	C57	0.375300	0.973000	0.632200
C581	C58	0.875300	0.027000	0.867800
C591	C59	0.257600	0.452700	0.988100
C601	C60	0.345800	0.951000	0.355200
C611	C61	0.144300	0.277600	0.677100
C621	C62	0.204000	0.130900	0.607600
C631	C63	0.984800	0.623800	0.099100
C641	C64	0.654200	0.049000	0.644800
C651	C65	0.624700	0.027000	0.367800
C661	C66	0.706700	0.721100	0.270000
C671	C67	0.796000	0.869100	0.392400
C681	C68	0.154200	0.951000	0.855200
C691	C69	0.044600	0.788800	0.710000
C701	C70	0.553600	0.202100	0.052000
C711	C71	0.242400	0.452700	0.488100
C721	C72	0.484800	0.376200	0.400900
C731	C73	0.102900	0.206000	0.223300
C741	C74	0.704000	0.869100	0.892400
C751	C75	0.206700	0.278900	0.230000
C761	C76	0.742400	0.547300	0.011900
N11	N1	0.012300	0.675200	0.049100
N21	N2	0.512300	0.324800	0.450900
N31	N3	0.487700	0.675200	0.549100
N41	N4	0.038000	0.897700	0.116500
N51	N5	0.987700	0.324800	0.950900
N61	N6	0.962000	0.102300	0.883500
N71	N7	0.462000	0.897700	0.616500
N81	N8	0.538000	0.102300	0.383500
O11	O1	0.625700	0.272080	0.050570
O21	O2	0.055100	0.846400	0.674430
O31	O3	0.444900	0.846400	0.174430
O41	O4	0.353700	0.724910	0.189500
O51	O5	0.600700	0.133500	0.002800
O61	O6	0.874300	0.272080	0.550570
O71	O7	0.853700	0.275090	0.310500
O81	O8	0.146300	0.724910	0.689500
O91	O9	0.399300	0.866500	0.997200
O101	O10	0.100700	0.866500	0.497200
O111	O11	0.555100	0.153600	0.825570
O121	O12	0.944900	0.153600	0.325570
O131	O13	0.899300	0.133500	0.502800
O141	O14	0.125700	0.727920	0.449430
O151	O15	0.646300	0.275090	0.810500
O161	O16	0.374300	0.727920	0.949430
