data_SOCNAB_clean_PM
_symmetry_space_group_name_H-M	'P1'
_cell_length_a	8.301000
_cell_length_b	11.146000
_cell_length_c	13.363000
_cell_angle_alpha	86.427000
_cell_angle_beta	84.122000
_cell_angle_gamma	83.573000
_symmetry_Int_Tables_number 1

loop_
_symmetry_equiv_pos_as_xyz
'x,y,z'

loop_
_atom_site_label
_atom_site_type_symbol
_atom_site_fract_x
_atom_site_fract_y
_atom_site_fract_z
Zn11	Zn1	0.943820	0.311970	0.795170
C11	C1	0.572300	0.511500	0.979800
H11	H1	0.594600	0.591600	0.971100
C21	C2	0.592900	0.296700	0.756100
H21	H2	0.557300	0.369500	0.785800
C31	C3	0.496700	0.224000	0.720400
H31	H3	0.384100	0.236700	0.720600
C41	C4	0.749200	0.145600	0.697300
H41	H4	0.840700	0.093300	0.677700
C51	C5	0.547000	0.024600	0.634500
H51	H5	0.443800	0.003400	0.667700
H61	H6	0.627300	0.955200	0.641900
C61	C6	0.529800	0.053100	0.524200
H71	H7	0.634200	0.070300	0.490100
H81	H8	0.453000	0.124500	0.516400
C71	C7	0.098400	0.287900	0.990500
H91	H9	0.069000	0.369100	0.002400
C81	C8	0.174300	0.207100	0.053600
H101	H10	0.207000	0.221700	0.115800
C91	C9	0.130200	0.118900	0.920000
H111	H11	0.128100	0.059600	0.874300
C101	C10	0.273400	0.983600	0.046700
H121	H12	0.255300	0.920000	0.004100
H131	H13	0.224100	0.964900	0.114000
C111	C11	0.454900	0.986100	0.049900
H141	H14	0.472000	0.046200	0.096100
H151	H15	0.500600	0.908100	0.076500
C121	C12	0.123800	0.532400	0.753000
H161	H16	0.106700	0.551900	0.820200
C131	C13	0.205800	0.594500	0.679500
H171	H17	0.256200	0.663500	0.686600
C141	C14	0.119100	0.443300	0.617300
H181	H18	0.099200	0.388700	0.571300
C151	C15	0.278900	0.572900	0.493100
H191	H19	0.240100	0.655800	0.474500
H201	H20	0.249000	0.521400	0.443600
C161	C16	0.465200	0.560500	0.493000
H211	H21	0.512100	0.594300	0.429400
H221	H22	0.493400	0.607300	0.546200
C171	C17	0.702900	0.414900	0.947100
O11	O1	0.806800	0.447200	0.875620
O21	O2	0.703000	0.311500	0.985390
N11	N1	0.753700	0.247000	0.742060
N21	N2	0.596900	0.127200	0.683630
N31	N3	0.070600	0.232500	0.905740
N41	N4	0.193900	0.099200	0.008020
N51	N5	0.069300	0.435700	0.713820
N61	N6	0.201500	0.538600	0.593400
Zn21	Zn2	0.056180	0.688030	0.204830
C181	C18	0.427700	0.488500	0.020200
H231	H23	0.405400	0.408400	0.028900
C191	C19	0.407100	0.703300	0.243900
H241	H24	0.442700	0.630500	0.214200
C201	C20	0.503300	0.776000	0.279600
H251	H25	0.615900	0.763300	0.279400
C211	C21	0.250800	0.854400	0.302700
H261	H26	0.159300	0.906700	0.322300
C221	C22	0.453000	0.975400	0.365500
H271	H27	0.556200	0.996600	0.332300
H281	H28	0.372700	0.044800	0.358100
C231	C23	0.470200	0.946900	0.475800
H291	H29	0.365800	0.929700	0.509900
H301	H30	0.547000	0.875500	0.483600
C241	C24	0.901600	0.712100	0.009500
H311	H31	0.931000	0.630900	0.997600
C251	C25	0.825700	0.792900	0.946400
H321	H32	0.793000	0.778300	0.884200
C261	C26	0.869800	0.881100	0.080000
H331	H33	0.871900	0.940400	0.125700
C271	C27	0.726600	0.016400	0.953300
H341	H34	0.744700	0.080000	0.995900
H351	H35	0.775900	0.035100	0.886000
C281	C28	0.545100	0.013900	0.950100
H361	H36	0.528000	0.953800	0.903900
H371	H37	0.499400	0.091900	0.923500
C291	C29	0.876200	0.467600	0.247000
H381	H38	0.893300	0.448100	0.179800
C301	C30	0.794200	0.405500	0.320500
H391	H39	0.743800	0.336500	0.313400
C311	C31	0.880900	0.556700	0.382700
H401	H40	0.900800	0.611300	0.428700
C321	C32	0.721100	0.427100	0.506900
H411	H41	0.759900	0.344200	0.525500
H421	H42	0.751000	0.478600	0.556400
C331	C33	0.534800	0.439500	0.507000
H431	H43	0.487900	0.405700	0.570600
H441	H44	0.506600	0.392700	0.453800
C341	C34	0.297100	0.585100	0.052900
O31	O3	0.193200	0.552800	0.124380
O41	O4	0.297000	0.688500	0.014610
N71	N7	0.246300	0.753000	0.257940
N81	N8	0.403100	0.872800	0.316370
N91	N9	0.929400	0.767500	0.094260
N101	N10	0.806100	0.900800	0.991980
N111	N11	0.930700	0.564300	0.286180
N121	N12	0.798500	0.461400	0.406600
