data_SODNAA_clean_PM
_symmetry_space_group_name_H-M	'P1'
_cell_length_a	8.258000
_cell_length_b	14.371000
_cell_length_c	16.189000
_cell_angle_alpha	90.000000
_cell_angle_beta	90.000000
_cell_angle_gamma	90.000000
_symmetry_Int_Tables_number 1

loop_
_symmetry_equiv_pos_as_xyz
'x,y,z'

loop_
_atom_site_label
_atom_site_type_symbol
_atom_site_fract_x
_atom_site_fract_y
_atom_site_fract_z
Ag11	Ag1	0.206580	0.086980	0.152240
S11	S1	0.225300	0.242900	0.238100
S21	S2	0.455200	0.367000	0.934400
S31	S3	0.970500	0.491700	0.895200
S41	S4	0.831800	0.454600	0.234500
C11	C1	0.378000	0.309100	0.184300
C21	C2	0.358000	0.308800	0.090200
C31	C3	0.489000	0.361900	0.045600
C41	C4	0.292000	0.452300	0.925400
C51	C5	0.128000	0.405700	0.913500
C61	C6	0.943000	0.543400	0.996100
C71	C7	0.898000	0.477200	0.066000
C81	C8	0.874000	0.528200	0.146100
C91	C9	0.026000	0.397100	0.254700
C101	C10	0.041000	0.304200	0.212600
O11	O1	0.265000	0.261000	0.056600
O21	O2	0.367000	0.101200	0.944600
H11	H1	0.483000	0.284000	0.196000
H21	H2	0.374000	0.373000	0.202000
H31	H3	0.592000	0.330000	0.055000
H41	H4	0.495000	0.424000	0.067000
H51	H5	0.313000	0.492000	0.879000
H61	H6	0.289000	0.489000	0.975000
H71	H7	0.101000	0.372000	0.962000
H81	H8	0.133000	0.365000	0.867000
H91	H9	0.859000	0.589000	0.991000
H101	H10	0.043000	0.573000	0.011000
H111	H11	0.785000	0.571000	0.139000
H121	H12	0.971000	0.563000	0.158000
H131	H13	0.034000	0.388000	0.313000
H141	H14	0.110000	0.437000	0.236000
H151	H15	0.037000	0.314000	0.153000
H161	H16	0.949000	0.266000	0.227000
Ag21	Ag2	0.293420	0.913020	0.652240
S51	S5	0.274700	0.757100	0.738100
S61	S6	0.044800	0.633000	0.434400
S71	S7	0.529500	0.508300	0.395200
S81	S8	0.668200	0.545400	0.734500
C111	C11	0.122000	0.690900	0.684300
C121	C12	0.142000	0.691200	0.590200
C131	C13	0.011000	0.638100	0.545600
C141	C14	0.208000	0.547700	0.425400
C151	C15	0.372000	0.594300	0.413500
C161	C16	0.557000	0.456600	0.496100
C171	C17	0.602000	0.522800	0.566000
C181	C18	0.626000	0.471800	0.646100
C191	C19	0.474000	0.602900	0.754700
C201	C20	0.459000	0.695800	0.712600
O31	O3	0.235000	0.739000	0.556600
O41	O4	0.133000	0.898800	0.444600
H171	H17	0.017000	0.716000	0.696000
H181	H18	0.126000	0.627000	0.702000
H191	H19	0.908000	0.670000	0.555000
H201	H20	0.005000	0.576000	0.567000
H211	H21	0.187000	0.508000	0.379000
H221	H22	0.211000	0.511000	0.475000
H231	H23	0.399000	0.628000	0.462000
H241	H24	0.367000	0.635000	0.367000
H251	H25	0.641000	0.411000	0.491000
H261	H26	0.457000	0.427000	0.511000
H271	H27	0.715000	0.429000	0.639000
H281	H28	0.529000	0.437000	0.658000
H291	H29	0.466000	0.612000	0.813000
H301	H30	0.390000	0.563000	0.736000
H311	H31	0.463000	0.686000	0.653000
H321	H32	0.551000	0.734000	0.727000
Ag31	Ag3	0.793420	0.586980	0.347760
S91	S9	0.774700	0.742900	0.261900
S101	S10	0.544800	0.867000	0.565600
S111	S11	0.029500	0.991700	0.604800
S121	S12	0.168200	0.954600	0.265500
C211	C21	0.622000	0.809100	0.315700
C221	C22	0.642000	0.808800	0.409800
C231	C23	0.511000	0.861900	0.454400
C241	C24	0.708000	0.952300	0.574600
C251	C25	0.872000	0.905700	0.586500
C261	C26	0.057000	0.043400	0.503900
C271	C27	0.102000	0.977200	0.434000
C281	C28	0.126000	0.028200	0.353900
C291	C29	0.974000	0.897100	0.245300
C301	C30	0.959000	0.804200	0.287400
O51	O5	0.735000	0.761000	0.443400
O61	O6	0.633000	0.601200	0.555400
H331	H33	0.517000	0.784000	0.304000
H341	H34	0.626000	0.873000	0.298000
H351	H35	0.408000	0.830000	0.445000
H361	H36	0.505000	0.924000	0.433000
H371	H37	0.687000	0.992000	0.621000
H381	H38	0.711000	0.989000	0.525000
H391	H39	0.899000	0.872000	0.538000
H401	H40	0.867000	0.865000	0.633000
H411	H41	0.141000	0.089000	0.509000
H421	H42	0.957000	0.073000	0.489000
H431	H43	0.215000	0.071000	0.361000
H441	H44	0.029000	0.063000	0.342000
H451	H45	0.966000	0.888000	0.187000
H461	H46	0.890000	0.937000	0.264000
H471	H47	0.963000	0.814000	0.347000
H481	H48	0.051000	0.766000	0.273000
Ag41	Ag4	0.706580	0.413020	0.847760
S131	S13	0.725300	0.257100	0.761900
S141	S14	0.955200	0.133000	0.065600
S151	S15	0.470500	0.008300	0.104800
S161	S16	0.331800	0.045400	0.765500
C311	C31	0.878000	0.190900	0.815700
C321	C32	0.858000	0.191200	0.909800
C331	C33	0.989000	0.138100	0.954400
C341	C34	0.792000	0.047700	0.074600
C351	C35	0.628000	0.094300	0.086500
C361	C36	0.443000	0.956600	0.003900
C371	C37	0.398000	0.022800	0.934000
C381	C38	0.374000	0.971800	0.853900
C391	C39	0.526000	0.102900	0.745300
C401	C40	0.541000	0.195800	0.787400
O71	O7	0.765000	0.239000	0.943400
O81	O8	0.867000	0.398800	0.055400
H491	H49	0.983000	0.216000	0.804000
H501	H50	0.874000	0.127000	0.798000
H511	H51	0.092000	0.170000	0.945000
H521	H52	0.995000	0.076000	0.933000
H531	H53	0.813000	0.008000	0.121000
H541	H54	0.789000	0.011000	0.025000
H551	H55	0.601000	0.128000	0.038000
H561	H56	0.633000	0.135000	0.133000
H571	H57	0.359000	0.911000	0.009000
H581	H58	0.543000	0.927000	0.989000
H591	H59	0.285000	0.929000	0.861000
H601	H60	0.471000	0.937000	0.842000
H611	H61	0.534000	0.112000	0.687000
H621	H62	0.610000	0.063000	0.764000
H631	H63	0.537000	0.186000	0.847000
H641	H64	0.449000	0.234000	0.773000
