data_SODQOT_clean_PM
_symmetry_space_group_name_H-M	'P1'
_cell_length_a	10.830400
_cell_length_b	11.998500
_cell_length_c	15.496000
_cell_angle_alpha	90.000000
_cell_angle_beta	95.227000
_cell_angle_gamma	90.000000
_symmetry_Int_Tables_number 1

loop_
_symmetry_equiv_pos_as_xyz
'x,y,z'

loop_
_atom_site_label
_atom_site_type_symbol
_atom_site_fract_x
_atom_site_fract_y
_atom_site_fract_z
Cu11	Cu1	0.023770	0.628820	0.658660
Cu21	Cu2	0.523770	0.871180	0.158660
Cu31	Cu3	0.363700	0.003790	0.005840
Cu41	Cu4	0.976230	0.371180	0.341340
Cu51	Cu5	0.476230	0.128820	0.841340
Cu61	Cu6	0.636300	0.996210	0.994160
Cu71	Cu7	0.863700	0.496210	0.505840
Cu81	Cu8	0.136300	0.503790	0.494160
H11	H1	0.511600	0.588900	0.578600
H21	H2	0.996800	0.672300	0.499500
H31	H3	0.011600	0.911100	0.078600
H41	H4	0.988400	0.088900	0.921400
H51	H5	0.349000	0.780300	0.750800
H61	H6	0.279800	0.211400	0.255900
H71	H7	0.220200	0.711400	0.244100
H81	H8	0.003200	0.327700	0.500500
H91	H9	0.720200	0.788600	0.744100
H101	H10	0.503200	0.172300	0.000500
H111	H11	0.496800	0.827700	0.999500
H121	H12	0.779800	0.288600	0.755900
H131	H13	0.151000	0.280300	0.749200
H141	H14	0.651000	0.219700	0.249200
H151	H15	0.849000	0.719700	0.250800
H161	H16	0.488400	0.411100	0.421400
C11	C1	0.750200	0.640400	0.620200
C21	C2	0.410900	0.676700	0.660280
C31	C3	0.365600	0.318300	0.344000
C41	C4	0.250200	0.859600	0.120200
C51	C5	0.358600	0.239600	0.277400
C61	C6	0.858600	0.260400	0.777400
C71	C7	0.957100	0.388900	0.673600
C81	C8	0.982000	0.141300	0.875200
C91	C9	0.578300	0.244500	0.273400
C101	C10	0.542900	0.888900	0.826400
C111	C11	0.921700	0.744500	0.226600
C121	C12	0.963900	0.298600	0.741600
C131	C13	0.463900	0.201400	0.241600
C141	C14	0.634400	0.681700	0.656000
C151	C15	0.284900	0.634500	0.626220
C161	C16	0.715100	0.365500	0.373780
C171	C17	0.089100	0.176700	0.839720
C181	C18	0.641400	0.760400	0.722600
C191	C19	0.215100	0.134500	0.873780
C201	C20	0.134400	0.818300	0.156000
C211	C21	0.078300	0.255500	0.773400
C221	C22	0.141400	0.739600	0.222600
C231	C23	0.749800	0.140400	0.879800
C241	C24	0.482000	0.358700	0.375200
C251	C25	0.518000	0.641300	0.624800
C261	C26	0.018000	0.858700	0.124800
C271	C27	0.042900	0.611100	0.326400
C281	C28	0.784900	0.865500	0.126220
C291	C29	0.536100	0.798600	0.758400
C301	C30	0.910900	0.823300	0.160280
C311	C31	0.457100	0.111100	0.173600
C321	C32	0.589100	0.323300	0.339720
C331	C33	0.865600	0.181700	0.844000
C341	C34	0.036100	0.701400	0.258400
C351	C35	0.421700	0.755500	0.726600
C361	C36	0.249800	0.359600	0.379800
O11	O1	0.449300	0.951000	0.825840
O21	O2	0.651570	0.153400	0.831220
O31	O3	0.304100	0.171300	0.836120
O41	O4	0.859760	0.397110	0.623870
O51	O5	0.804100	0.328700	0.336120
O61	O6	0.738720	0.596340	0.546420
O71	O7	0.348430	0.846600	0.168780
O81	O8	0.493800	0.101720	0.966250
O91	O9	0.238720	0.903660	0.046420
O101	O10	0.993800	0.398280	0.466250
O111	O11	0.195900	0.671300	0.663880
O121	O12	0.640240	0.897110	0.876130
O131	O13	0.279900	0.569700	0.563030
O141	O14	0.949300	0.549000	0.325840
O151	O15	0.261280	0.403660	0.453580
O161	O16	0.151570	0.346600	0.331220
O171	O17	0.550700	0.049000	0.174160
O181	O18	0.720100	0.430300	0.436970
O191	O19	0.848430	0.653400	0.668780
O201	O20	0.761280	0.096340	0.953580
O211	O21	0.779900	0.930300	0.063030
O221	O22	0.359760	0.102890	0.123870
O231	O23	0.220100	0.069700	0.936970
O241	O24	0.006200	0.601720	0.533750
O251	O25	0.695900	0.828700	0.163880
O261	O26	0.140240	0.602890	0.376130
O271	O27	0.506200	0.898280	0.033750
O281	O28	0.050700	0.451000	0.674160
