data_SODXUG_clean_PM
_symmetry_space_group_name_H-M	'P1'
_cell_length_a	16.244500
_cell_length_b	16.480500
_cell_length_c	25.737200
_cell_angle_alpha	90.000000
_cell_angle_beta	90.000000
_cell_angle_gamma	90.000000
_symmetry_Int_Tables_number 1

loop_
_symmetry_equiv_pos_as_xyz
'x,y,z'

loop_
_atom_site_label
_atom_site_type_symbol
_atom_site_fract_x
_atom_site_fract_y
_atom_site_fract_z
Co11	Co1	0.076690	0.014690	0.108990
Co21	Co2	0.638700	0.557950	0.075540
Co31	Co3	0.923310	0.985310	0.891010
Co41	Co4	0.361300	0.057950	0.424460
Co51	Co5	0.361300	0.442050	0.924460
Co61	Co6	0.423310	0.985310	0.608990
Co71	Co7	0.638700	0.942050	0.575540
Co81	Co8	0.076690	0.485310	0.608990
Co91	Co9	0.861300	0.442050	0.575540
Co101	Co10	0.576690	0.485310	0.891010
Co111	Co11	0.576690	0.014690	0.391010
Co121	Co12	0.423310	0.514690	0.108990
Co131	Co13	0.138700	0.942050	0.924460
Co141	Co14	0.923310	0.514690	0.391010
Co151	Co15	0.000000	0.000000	0.000000
Co161	Co16	0.861300	0.057950	0.075540
Co171	Co17	0.500000	0.500000	0.000000
Co181	Co18	0.000000	0.500000	0.500000
Co191	Co19	0.138700	0.557950	0.424460
Co201	Co20	0.500000	0.000000	0.500000
H11	H1	0.990000	0.690900	0.914800
H21	H2	0.542000	0.221600	0.083900
H31	H3	0.793600	0.677300	0.248600
H41	H4	0.561100	0.194100	0.451700
H51	H5	0.094500	0.420100	0.099800
H61	H6	0.412300	0.765000	0.688800
H71	H7	0.814700	0.348600	0.694300
H81	H8	0.840600	0.164300	0.830200
H91	H9	0.900000	0.824500	0.242300
H101	H10	0.979200	0.394500	0.965000
H111	H11	0.316300	0.965400	0.958400
H121	H12	0.490000	0.690900	0.585200
H131	H13	0.542000	0.278400	0.583900
H141	H14	0.046300	0.433100	0.418600
H151	H15	0.216700	0.780200	0.889300
H161	H16	0.520800	0.894500	0.965000
H171	H17	0.341900	0.783000	0.382400
H181	H18	0.771900	0.917100	0.424700
H191	H19	0.094500	0.079900	0.599800
H201	H20	0.719600	0.269700	0.316400
H211	H21	0.479200	0.394500	0.535000
H221	H22	0.706400	0.177300	0.248600
H231	H23	0.546300	0.066900	0.581400
H241	H24	0.293600	0.677300	0.251400
H251	H25	0.601400	0.769000	0.006800
H261	H26	0.405500	0.579900	0.599800
H271	H27	0.953700	0.933100	0.081400
H281	H28	0.206400	0.177300	0.251400
H291	H29	0.912300	0.765000	0.811200
H301	H30	0.510000	0.190900	0.914800
H311	H31	0.600000	0.175500	0.742300
H321	H32	0.490000	0.809100	0.085200
H331	H33	0.898600	0.231000	0.506800
H341	H34	0.271900	0.917100	0.075300
H351	H35	0.681700	0.884300	0.015200
H361	H36	0.314700	0.348600	0.805700
H371	H37	0.587700	0.265000	0.811200
H381	H38	0.280400	0.769700	0.183600
H391	H39	0.979200	0.105500	0.465000
H401	H40	0.458000	0.721600	0.416100
H411	H41	0.771900	0.582900	0.924700
H421	H42	0.271900	0.582900	0.575300
H431	H43	0.793600	0.822700	0.748600
H441	H44	0.042000	0.278400	0.916100
H451	H45	0.181700	0.615700	0.984800
H461	H46	0.814700	0.151400	0.194300
H471	H47	0.958000	0.778400	0.583900
H481	H48	0.185300	0.651400	0.305700
H491	H49	0.101400	0.769000	0.493200
H501	H50	0.046300	0.066900	0.918600
H511	H51	0.158100	0.283000	0.382400
H521	H52	0.398600	0.231000	0.993200
H531	H53	0.594500	0.420100	0.400200
H541	H54	0.340600	0.164300	0.669800
H551	H55	0.841900	0.783000	0.117600
H561	H56	0.185300	0.848600	0.805700
H571	H57	0.341900	0.717000	0.882400
H581	H58	0.216700	0.719800	0.389300
H591	H59	0.398600	0.269000	0.493200
H601	H60	0.438900	0.694100	0.048300
H611	H61	0.600000	0.324500	0.242300
H621	H62	0.405500	0.920100	0.099800
H631	H63	0.685300	0.848600	0.694300
H641	H64	0.594500	0.079900	0.900200
H651	H65	0.818300	0.115700	0.515200
H661	H66	0.479200	0.105500	0.035000
H671	H67	0.453700	0.566900	0.918600
H681	H68	0.206400	0.322700	0.751400
H691	H69	0.659400	0.664300	0.830200
H701	H70	0.561100	0.305900	0.951700
H711	H71	0.587700	0.235000	0.311200
H721	H72	0.219600	0.230300	0.683600
H731	H73	0.683700	0.465400	0.541600
H741	H74	0.087700	0.235000	0.188800
H751	H75	0.510000	0.309100	0.414800
H761	H76	0.293600	0.822700	0.751400
H771	H77	0.685300	0.651400	0.194300
H781	H78	0.183700	0.034600	0.458400
H791	H79	0.412300	0.735000	0.188800
H801	H80	0.159400	0.835700	0.169800
H811	H81	0.900000	0.675500	0.742300
H821	H82	0.818300	0.384300	0.015200
H831	H83	0.400000	0.675500	0.757700
H841	H84	0.100000	0.175500	0.757700
H851	H85	0.318300	0.115700	0.984800
H861	H86	0.841900	0.717000	0.617600
H871	H87	0.905500	0.920100	0.400200
H881	H88	0.546300	0.433100	0.081400
H891	H89	0.042000	0.221600	0.416100
H901	H90	0.898600	0.269000	0.006800
H911	H91	0.020800	0.605500	0.035000
H921	H92	0.340600	0.335700	0.169800
H931	H93	0.061100	0.194100	0.048300
H941	H94	0.601400	0.731000	0.506800
H951	H95	0.816300	0.534600	0.041600
H961	H96	0.658100	0.283000	0.117600
H971	H97	0.840600	0.335700	0.330200
H981	H98	0.905500	0.579900	0.900200
H991	H99	0.716700	0.780200	0.610700
H1001	H100	0.228100	0.082900	0.575300
H1011	H101	0.816300	0.965400	0.541600
H1021	H102	0.958000	0.721600	0.083900
H1031	H103	0.458000	0.778400	0.916100
H1041	H104	0.283300	0.280200	0.889300
H1051	H105	0.719600	0.230300	0.816400
H1061	H106	0.520800	0.605500	0.465000
H1071	H107	0.683700	0.034600	0.041600
H1081	H108	0.283300	0.219800	0.389300
H1091	H109	0.658100	0.217000	0.617600
H1101	H110	0.706400	0.322700	0.748600
H1111	H111	0.938900	0.805900	0.951700
H1121	H112	0.681700	0.615700	0.515200
H1131	H113	0.280400	0.730300	0.683600
H1141	H114	0.780400	0.769700	0.316400
H1151	H115	0.453700	0.933100	0.418600
H1161	H116	0.010000	0.309100	0.085200
H1171	H117	0.158100	0.217000	0.882400
H1181	H118	0.183700	0.465400	0.958400
H1191	H119	0.314700	0.151400	0.305700
H1201	H120	0.318300	0.384300	0.484800
H1211	H121	0.010000	0.190900	0.585200
H1221	H122	0.728100	0.082900	0.924700
H1231	H123	0.783300	0.280200	0.610700
H1241	H124	0.783300	0.219800	0.110700
H1251	H125	0.659400	0.835700	0.330200
H1261	H126	0.728100	0.417100	0.424700
H1271	H127	0.780400	0.730300	0.816400
H1281	H128	0.953700	0.566900	0.581400
H1291	H129	0.061100	0.305900	0.548300
H1301	H130	0.228100	0.417100	0.075300
H1311	H131	0.938900	0.694100	0.451700
H1321	H132	0.020800	0.894500	0.535000
H1331	H133	0.316300	0.534600	0.458400
H1341	H134	0.438900	0.805900	0.548300
H1351	H135	0.716700	0.719800	0.110700
H1361	H136	0.159400	0.664300	0.669800
H1371	H137	0.990000	0.809100	0.414800
H1381	H138	0.912300	0.735000	0.311200
H1391	H139	0.087700	0.265000	0.688800
H1401	H140	0.219600	0.269700	0.183600
H1411	H141	0.100000	0.324500	0.257700
H1421	H142	0.400000	0.824500	0.257700
H1431	H143	0.101400	0.731000	0.993200
H1441	H144	0.181700	0.884300	0.484800
C11	C1	0.763100	0.806200	0.597600
C21	C2	0.264200	0.259700	0.205300
C31	C3	0.235800	0.740300	0.705300
C41	C4	0.795600	0.338000	0.000310
C51	C5	0.661800	0.232600	0.101600
C61	C6	0.469500	0.919500	0.966000
C71	C7	0.304500	0.871500	0.069990
C81	C8	0.467900	0.289100	0.803260
C91	C9	0.934700	0.693200	0.924260
C101	C10	0.951100	0.698300	0.749810
C111	C11	0.905300	0.215300	0.769950
C121	C12	0.820100	0.768000	0.960960
C131	C13	0.934700	0.806800	0.424260
C141	C14	0.505200	0.884400	0.322200
C151	C15	0.065300	0.193200	0.575740
C161	C16	0.467900	0.210900	0.303260
C171	C17	0.969500	0.919500	0.534000
C181	C18	0.951100	0.801700	0.249810
C191	C19	0.397200	0.272200	0.771870
C201	C20	0.404000	0.738100	0.053760
C211	C21	0.541500	0.247000	0.291290
C221	C22	0.155100	0.731500	0.005520
C231	C23	0.679900	0.232000	0.460960
C241	C24	0.165800	0.415800	0.503800
C251	C25	0.338200	0.732600	0.398400
C261	C26	0.531500	0.652000	0.151560
C271	C27	0.593000	0.303800	0.581800
C281	C28	0.678700	0.085600	0.056810
C291	C29	0.321300	0.585600	0.443190
C301	C30	0.005200	0.615600	0.677800
C311	C31	0.743800	0.703900	0.253700
C321	C32	0.344900	0.268500	0.505520
C331	C33	0.231400	0.301300	0.047130
C341	C34	0.264200	0.240300	0.705300
C351	C35	0.763100	0.693800	0.097600
C361	C36	0.338200	0.767400	0.898400
C371	C37	0.897200	0.227800	0.228130
C381	C38	0.284900	0.839500	0.515400
C391	C39	0.836100	0.201000	0.802870
C401	C40	0.468500	0.348000	0.848440
C411	C41	0.469500	0.580500	0.466000
C421	C42	0.399400	0.879100	0.941680
C431	C43	0.834200	0.584200	0.496200
C441	C44	0.451100	0.801700	0.250190
C451	C45	0.093000	0.196200	0.418200
C461	C46	0.295600	0.338000	0.499690
C471	C47	0.102800	0.772200	0.771870
C481	C48	0.655100	0.731500	0.494480
C491	C49	0.295600	0.162000	0.999690
C501	C50	0.815100	0.199800	0.970900
C511	C51	0.041500	0.253000	0.708710
C521	C52	0.384200	0.873700	0.084200
C531	C53	0.870900	0.372700	0.464310
C541	C54	0.695500	0.371500	0.430010
C551	C55	0.321300	0.914400	0.943190
C561	C56	0.048900	0.198300	0.750190
C571	C57	0.235800	0.759700	0.205300
C581	C58	0.815100	0.300200	0.470900
C591	C59	0.679000	0.811600	0.721290
C601	C60	0.434700	0.693200	0.575740
C611	C61	0.032100	0.789100	0.803260
C621	C62	0.204400	0.662000	0.999690
C631	C63	0.336100	0.299000	0.197130
C641	C64	0.905300	0.284700	0.269950
C651	C65	0.321000	0.311600	0.778710
C661	C66	0.907000	0.696200	0.081800
C671	C67	0.532100	0.710900	0.196740
C681	C68	0.370900	0.372700	0.035690
C691	C69	0.531500	0.848000	0.651560
C701	C70	0.731400	0.198700	0.952870
C711	C71	0.215100	0.339500	0.515400
C721	C72	0.315100	0.300200	0.029100
C731	C73	0.494800	0.384400	0.177800
C741	C74	0.100600	0.120900	0.441680
C751	C75	0.899400	0.879100	0.558320
C761	C76	0.655100	0.768500	0.994480
C771	C77	0.195500	0.128500	0.569990
C781	C78	0.704400	0.838000	0.000310
C791	C79	0.178700	0.414400	0.943190
C801	C80	0.904000	0.761900	0.946240
C811	C81	0.517600	0.822000	0.279670
C821	C82	0.256200	0.203900	0.246300
C831	C83	0.615800	0.126300	0.915800
C841	C84	0.764200	0.240300	0.794700
C851	C85	0.663900	0.701000	0.802870
C861	C86	0.836100	0.299000	0.302870
C871	C87	0.458500	0.753000	0.708710
C881	C88	0.451100	0.698300	0.750190
C891	C89	0.907000	0.803800	0.581800
C901	C90	0.041500	0.247000	0.208710
C911	C91	0.184900	0.699800	0.529100
C921	C92	0.768600	0.698700	0.952870
C931	C93	0.195500	0.371500	0.069990
C941	C94	0.093000	0.303800	0.918200
C951	C95	0.399400	0.620900	0.441680
C961	C96	0.468500	0.152000	0.348440
C971	C97	0.600600	0.379100	0.558320
C981	C98	0.795600	0.162000	0.500310
C991	C99	0.096000	0.261900	0.553760
C1001	C100	0.407000	0.803800	0.918200
C1011	C101	0.236900	0.306200	0.902400
C1021	C102	0.184900	0.800200	0.029100
C1031	C103	0.115800	0.126300	0.584200
C1041	C104	0.268600	0.801300	0.047130
C1051	C105	0.820100	0.732000	0.460960
C1061	C106	0.821300	0.585600	0.056810
C1071	C107	0.968500	0.152000	0.151560
C1081	C108	0.397200	0.227800	0.271870
C1091	C109	0.967900	0.289100	0.696740
C1101	C110	0.405300	0.284700	0.230050
C1111	C111	0.517600	0.678000	0.779670
C1121	C112	0.031500	0.652000	0.348440
C1131	C113	0.530500	0.080500	0.034000
C1141	C114	0.715100	0.339500	0.984600
C1151	C115	0.482400	0.178000	0.720330
C1161	C116	0.756200	0.296100	0.753700
C1171	C117	0.334200	0.584200	0.003800
C1181	C118	0.179900	0.232000	0.039040
C1191	C119	0.897200	0.272200	0.728130
C1201	C120	0.129100	0.627300	0.535690
C1211	C121	0.629100	0.872700	0.464310
C1221	C122	0.684900	0.800200	0.470900
C1231	C123	0.596000	0.261900	0.946240
C1241	C124	0.094700	0.715300	0.730050
C1251	C125	0.030500	0.419500	0.966000
C1261	C126	0.370900	0.127300	0.535690
C1271	C127	0.263100	0.806200	0.902400
C1281	C128	0.102800	0.727800	0.271870
C1291	C129	0.434700	0.806800	0.075740
C1301	C130	0.032100	0.710900	0.303260
C1311	C131	0.320100	0.768000	0.539040
C1321	C132	0.178700	0.085600	0.443190
C1331	C133	0.163900	0.701000	0.697130
C1341	C134	0.179000	0.688400	0.278710
C1351	C135	0.838200	0.767400	0.601600
C1361	C136	0.665800	0.415800	0.996200
C1371	C137	0.482400	0.322000	0.220330
C1381	C138	0.629100	0.627300	0.964310
C1391	C139	0.844900	0.268500	0.994480
C1401	C140	0.736900	0.193800	0.097600
C1411	C141	0.756200	0.203900	0.253700
C1421	C142	0.884200	0.873700	0.415800
C1431	C143	0.969500	0.580500	0.034000
C1441	C144	0.284900	0.660500	0.015400
C1451	C145	0.548900	0.301700	0.249810
C1461	C146	0.695500	0.128500	0.930010
C1471	C147	0.704400	0.662000	0.500310
C1481	C148	0.243800	0.796100	0.746300
C1491	C149	0.030500	0.080500	0.466000
C1501	C150	0.844900	0.231500	0.494480
C1511	C151	0.764200	0.259700	0.294700
C1521	C152	0.768600	0.801300	0.452870
C1531	C153	0.602800	0.772200	0.728130
C1541	C154	0.736900	0.306200	0.597600
C1551	C155	0.821300	0.914400	0.556810
C1561	C156	0.548900	0.198300	0.749810
C1571	C157	0.684900	0.699800	0.970900
C1581	C158	0.096000	0.238100	0.053760
C1591	C159	0.565300	0.306800	0.424260
C1601	C160	0.982400	0.178000	0.779670
C1611	C161	0.065300	0.306800	0.075740
C1621	C162	0.821000	0.311600	0.721290
C1631	C163	0.204400	0.838000	0.499690
C1641	C164	0.593000	0.196200	0.081800
C1651	C165	0.967900	0.210900	0.196740
C1661	C166	0.784900	0.660500	0.484600
C1671	C167	0.304500	0.628500	0.569990
C1681	C168	0.602800	0.727800	0.228130
C1691	C169	0.163900	0.799000	0.197130
C1701	C170	0.315100	0.199800	0.529100
C1711	C171	0.458500	0.747000	0.208710
C1721	C172	0.048900	0.301700	0.250190
C1731	C173	0.100600	0.379100	0.941680
C1741	C174	0.532100	0.789100	0.696740
C1751	C175	0.743800	0.796100	0.753700
C1761	C176	0.165800	0.084200	0.003800
C1771	C177	0.494800	0.115600	0.677800
C1781	C178	0.017600	0.822000	0.220330
C1791	C179	0.784900	0.839500	0.984600
C1801	C180	0.530500	0.419500	0.534000
C1811	C181	0.958500	0.753000	0.791290
C1821	C182	0.005200	0.884400	0.177800
C1831	C183	0.899400	0.620900	0.058320
C1841	C184	0.336100	0.201000	0.697130
C1851	C185	0.679000	0.688400	0.221290
C1861	C186	0.821000	0.188400	0.221290
C1871	C187	0.870900	0.127300	0.964310
C1881	C188	0.320100	0.732000	0.039040
C1891	C189	0.215100	0.160500	0.015400
C1901	C190	0.615800	0.373700	0.415800
C1911	C191	0.715100	0.160500	0.484600
C1921	C192	0.094700	0.784700	0.230050
C1931	C193	0.678700	0.414400	0.556810
C1941	C194	0.982400	0.322000	0.279670
C1951	C195	0.334200	0.915800	0.503800
C1961	C196	0.268600	0.698700	0.547130
C1971	C197	0.663900	0.799000	0.302870
C1981	C198	0.161800	0.232600	0.398400
C1991	C199	0.804500	0.871500	0.430010
C2001	C200	0.263100	0.693800	0.402400
C2011	C201	0.115800	0.373700	0.084200
C2021	C202	0.600600	0.120900	0.058320
C2031	C203	0.838200	0.732600	0.101600
C2041	C204	0.179900	0.268000	0.539040
C2051	C205	0.179000	0.811600	0.778710
C2061	C206	0.017600	0.678000	0.720330
C2071	C207	0.596000	0.238100	0.446240
C2081	C208	0.321000	0.188400	0.278710
C2091	C209	0.804500	0.628500	0.930010
C2101	C210	0.594700	0.715300	0.769950
C2111	C211	0.129100	0.872700	0.035690
C2121	C212	0.236900	0.193800	0.402400
C2131	C213	0.958500	0.747000	0.291290
C2141	C214	0.884200	0.626300	0.915800
C2151	C215	0.155100	0.768500	0.505520
C2161	C216	0.834200	0.915800	0.996200
C2171	C217	0.404000	0.761900	0.553760
C2181	C218	0.231400	0.198700	0.547130
C2191	C219	0.661800	0.267400	0.601600
C2201	C220	0.731400	0.301300	0.452870
C2211	C221	0.904000	0.738100	0.446240
C2221	C222	0.994800	0.115600	0.822200
C2231	C223	0.665800	0.084200	0.496200
C2241	C224	0.594700	0.784700	0.269950
C2251	C225	0.243800	0.703900	0.246300
C2261	C226	0.505200	0.615600	0.822200
C2271	C227	0.344900	0.231500	0.005520
C2281	C228	0.968500	0.348000	0.651560
C2291	C229	0.565300	0.193200	0.924260
C2301	C230	0.161800	0.267400	0.898400
C2311	C231	0.405300	0.215300	0.730050
C2321	C232	0.735800	0.740300	0.794700
C2331	C233	0.384200	0.626300	0.584200
C2341	C234	0.994800	0.384400	0.322200
C2351	C235	0.679900	0.268000	0.960960
C2361	C236	0.541500	0.253000	0.791290
C2371	C237	0.407000	0.696200	0.418200
C2381	C238	0.031500	0.848000	0.848440
C2391	C239	0.735800	0.759700	0.294700
C2401	C240	0.256200	0.296100	0.746300
N11	N1	0.745900	0.380100	0.575560
N21	N2	0.254100	0.619900	0.424440
N31	N3	0.962600	0.512600	0.011600
N41	N4	0.037400	0.012600	0.488400
N51	N5	0.462600	0.987400	0.988400
N61	N6	0.537400	0.487400	0.511600
N71	N7	0.745900	0.119900	0.075560
N81	N8	0.962600	0.987400	0.511600
N91	N9	0.037400	0.487400	0.988400
N101	N10	0.754100	0.619900	0.075560
N111	N11	0.537400	0.012600	0.011600
N121	N12	0.245900	0.119900	0.424440
N131	N13	0.462600	0.512600	0.488400
N141	N14	0.754100	0.880100	0.575560
N151	N15	0.245900	0.380100	0.924440
N161	N16	0.254100	0.880100	0.924440
O11	O1	0.467880	0.510130	0.925610
O21	O2	0.913190	0.395060	0.503410
O31	O3	0.806910	0.538990	0.531690
O41	O4	0.599750	0.429560	0.970950
O51	O5	0.533630	0.388340	0.852080
O61	O6	0.306910	0.961010	0.468310
O71	O7	0.054900	0.125900	0.851400
O81	O8	0.408890	0.350050	0.878590
O91	O9	0.444470	0.442920	0.175930
O101	O10	0.444470	0.057080	0.675930
O111	O11	0.900250	0.929560	0.970950
O121	O12	0.466370	0.888340	0.647920
O131	O13	0.467880	0.989870	0.425610
O141	O14	0.193090	0.038990	0.968310
O151	O15	0.873460	0.094750	0.920480
O161	O16	0.900250	0.570440	0.470950
O171	O17	0.532120	0.010130	0.574390
O181	O18	0.091110	0.649950	0.378590
O191	O19	0.099750	0.070440	0.029050
O201	O20	0.032120	0.010130	0.925610
O211	O21	0.126540	0.905250	0.079520
O221	O22	0.806910	0.961010	0.031690
O231	O23	0.373460	0.094750	0.579520
O241	O24	0.033630	0.388340	0.647920
O251	O25	0.413190	0.104940	0.496590
O261	O26	0.591110	0.649950	0.121410
O271	O27	0.413190	0.395060	0.996590
O281	O28	0.400250	0.570440	0.029050
O291	O29	0.966370	0.611660	0.352080
O301	O30	0.126540	0.594750	0.579520
O311	O31	0.554900	0.374100	0.148600
O321	O32	0.944470	0.442920	0.324070
O331	O33	0.091110	0.850050	0.878590
O341	O34	0.944470	0.057080	0.824070
O351	O35	0.555530	0.942920	0.324070
O361	O36	0.373460	0.405250	0.079520
O371	O37	0.586810	0.604940	0.003410
O381	O38	0.055530	0.942920	0.175930
O391	O39	0.054900	0.374100	0.351400
O401	O40	0.693090	0.038990	0.531690
O411	O41	0.099750	0.429560	0.529050
O421	O42	0.591110	0.850050	0.621410
O431	O43	0.408890	0.149950	0.378590
O441	O44	0.945100	0.625900	0.648600
O451	O45	0.193090	0.461010	0.468310
O461	O46	0.908890	0.149950	0.121410
O471	O47	0.626540	0.905250	0.420480
O481	O48	0.626540	0.594750	0.920480
O491	O49	0.967880	0.510130	0.574390
O501	O50	0.945100	0.874100	0.148600
O511	O51	0.586810	0.895060	0.503410
O521	O52	0.693090	0.461010	0.031690
O531	O53	0.400250	0.929560	0.529050
O541	O54	0.554900	0.125900	0.648600
O551	O55	0.466370	0.611660	0.147920
O561	O56	0.086810	0.604940	0.496590
O571	O57	0.445100	0.625900	0.851400
O581	O58	0.873460	0.405250	0.420480
O591	O59	0.599750	0.070440	0.470950
O601	O60	0.033630	0.111660	0.147920
O611	O61	0.445100	0.874100	0.351400
O621	O62	0.913190	0.104940	0.003410
O631	O63	0.086810	0.895060	0.996590
O641	O64	0.967880	0.989870	0.074390
O651	O65	0.032120	0.489870	0.425610
O661	O66	0.055530	0.557080	0.675930
O671	O67	0.908890	0.350050	0.621410
O681	O68	0.532120	0.489870	0.074390
O691	O69	0.555530	0.557080	0.824070
O701	O70	0.533630	0.111660	0.352080
O711	O71	0.306910	0.538990	0.968310
O721	O72	0.966370	0.888340	0.852080
