data_SODZIV_clean_PM
_symmetry_space_group_name_H-M	'P1'
_cell_length_a	14.497900
_cell_length_b	15.471600
_cell_length_c	17.512500
_cell_angle_alpha	90.000000
_cell_angle_beta	90.000000
_cell_angle_gamma	90.000000
_symmetry_Int_Tables_number 1

loop_
_symmetry_equiv_pos_as_xyz
'x,y,z'

loop_
_atom_site_label
_atom_site_type_symbol
_atom_site_fract_x
_atom_site_fract_y
_atom_site_fract_z
Cd11	Cd1	0.872140	0.772970	0.959280
Cd21	Cd2	0.930020	0.226970	0.424150
Cd31	Cd3	0.127860	0.272970	0.040720
Cd41	Cd4	0.069980	0.726970	0.575850
Cd51	Cd5	0.372140	0.772970	0.540720
Cd61	Cd6	0.430020	0.226970	0.075850
Cd71	Cd7	0.627860	0.272970	0.459280
Cd81	Cd8	0.569980	0.726970	0.924150
H11	H1	0.119200	0.636800	0.835200
H21	H2	0.112500	0.567200	0.985500
H31	H3	0.057800	0.529700	0.915600
H41	H4	0.193900	0.490300	0.855800
H51	H5	0.338000	0.509700	0.910700
H61	H6	0.293900	0.553800	0.982600
H71	H7	0.290200	0.623500	0.833200
H81	H8	0.213100	0.702800	0.964200
H91	H9	0.215300	0.745200	0.882800
H101	H10	0.891000	0.740900	0.143300
H111	H11	0.899000	0.636600	0.235700
H121	H12	0.861100	0.460000	0.072800
H131	H13	0.854200	0.570300	0.985100
H141	H14	0.937200	0.263900	0.246100
H151	H15	0.918600	0.366300	0.152400
H161	H16	0.846800	0.535100	0.316400
H171	H17	0.863100	0.426000	0.402200
H181	H18	0.882600	0.970600	0.901900
H191	H19	0.891000	0.059400	0.797600
H201	H20	0.851500	0.851200	0.665500
H211	H21	0.845300	0.769000	0.773900
H221	H22	0.855100	0.218000	0.594600
H231	H23	0.836600	0.132900	0.698800
H241	H24	0.930600	0.933400	0.575100
H251	H25	0.945500	0.026700	0.474400
H261	H26	0.880800	0.136800	0.164800
H271	H27	0.887500	0.067200	0.014500
H281	H28	0.942200	0.029700	0.084400
H291	H29	0.806100	0.990300	0.144200
H301	H30	0.662000	0.009700	0.089300
H311	H31	0.706100	0.053800	0.017400
H321	H32	0.709800	0.123500	0.166800
H331	H33	0.786900	0.202800	0.035800
H341	H34	0.784700	0.245200	0.117200
H351	H35	0.109000	0.240900	0.856700
H361	H36	0.101000	0.136600	0.764300
H371	H37	0.138900	0.960000	0.927200
H381	H38	0.145800	0.070300	0.014900
H391	H39	0.062800	0.763900	0.753900
H401	H40	0.081400	0.866300	0.847600
H411	H41	0.153200	0.035100	0.683600
H421	H42	0.136900	0.926000	0.597800
H431	H43	0.117400	0.470600	0.098100
H441	H44	0.109000	0.559400	0.202400
H451	H45	0.148500	0.351200	0.334500
H461	H46	0.154700	0.269000	0.226100
H471	H47	0.144900	0.718000	0.405400
H481	H48	0.163400	0.632900	0.301200
H491	H49	0.069400	0.433400	0.424900
H501	H50	0.054500	0.526700	0.525600
H511	H51	0.619200	0.636800	0.664800
H521	H52	0.612500	0.567200	0.514500
H531	H53	0.557800	0.529700	0.584400
H541	H54	0.693900	0.490300	0.644200
H551	H55	0.838000	0.509700	0.589300
H561	H56	0.793900	0.553800	0.517400
H571	H57	0.790200	0.623500	0.666800
H581	H58	0.713100	0.702800	0.535800
H591	H59	0.715300	0.745200	0.617200
H601	H60	0.391000	0.740900	0.356700
H611	H61	0.399000	0.636600	0.264300
H621	H62	0.361100	0.460000	0.427200
H631	H63	0.354200	0.570300	0.514900
H641	H64	0.437200	0.263900	0.253900
H651	H65	0.418600	0.366300	0.347600
H661	H66	0.346800	0.535100	0.183600
H671	H67	0.363100	0.426000	0.097800
H681	H68	0.382600	0.970600	0.598100
H691	H69	0.391000	0.059400	0.702400
H701	H70	0.351500	0.851200	0.834500
H711	H71	0.345300	0.769000	0.726100
H721	H72	0.355100	0.218000	0.905400
H731	H73	0.336600	0.132900	0.801200
H741	H74	0.430600	0.933400	0.924900
H751	H75	0.445500	0.026700	0.025600
H761	H76	0.380800	0.136800	0.335200
H771	H77	0.387500	0.067200	0.485500
H781	H78	0.442200	0.029700	0.415600
H791	H79	0.306100	0.990300	0.355800
H801	H80	0.162000	0.009700	0.410700
H811	H81	0.206100	0.053800	0.482600
H821	H82	0.209800	0.123500	0.333200
H831	H83	0.286900	0.202800	0.464200
H841	H84	0.284700	0.245200	0.382800
H851	H85	0.609000	0.240900	0.643300
H861	H86	0.601000	0.136600	0.735700
H871	H87	0.638900	0.960000	0.572800
H881	H88	0.645800	0.070300	0.485100
H891	H89	0.562800	0.763900	0.746100
H901	H90	0.581400	0.866300	0.652400
H911	H91	0.653200	0.035100	0.816400
H921	H92	0.636900	0.926000	0.902200
H931	H93	0.617400	0.470600	0.401900
H941	H94	0.609000	0.559400	0.297600
H951	H95	0.648500	0.351200	0.165500
H961	H96	0.654700	0.269000	0.273900
H971	H97	0.644900	0.718000	0.094600
H981	H98	0.663400	0.632900	0.198800
H991	H99	0.569400	0.433400	0.075100
H1001	H100	0.554500	0.526700	0.974400
C11	C1	0.120500	0.646800	0.890400
C21	C2	0.114500	0.558400	0.930700
C31	C3	0.196100	0.501100	0.910900
C41	C4	0.287500	0.545900	0.927900
C51	C5	0.293300	0.633700	0.888300
C61	C6	0.211200	0.690700	0.909900
C71	C7	0.035800	0.698600	0.911500
C81	C8	0.186000	0.413600	0.951100
C91	C9	0.385600	0.677100	0.905200
C101	C10	0.884900	0.683400	0.128700
C111	C11	0.889600	0.620800	0.185100
C121	C12	0.880300	0.535000	0.165500
C131	C13	0.867300	0.517000	0.089000
C141	C14	0.863400	0.583700	0.036400
C151	C15	0.918600	0.319200	0.260100
C161	C16	0.909000	0.381000	0.203300
C171	C17	0.884900	0.464500	0.223000
C181	C18	0.865800	0.480600	0.300300
C191	C19	0.875900	0.414500	0.351200
C201	C20	0.876500	0.946300	0.853600
C211	C21	0.881900	0.000400	0.791000
C221	C22	0.873500	0.965800	0.717900
C231	C23	0.858600	0.877300	0.712900
C241	C24	0.854500	0.828200	0.778700
C251	C25	0.871600	0.160000	0.591200
C261	C26	0.859800	0.109300	0.653800
C271	C27	0.882200	0.022400	0.650600
C281	C28	0.915200	0.991300	0.580900
C291	C29	0.924600	0.048500	0.520800
C301	C30	0.879500	0.146800	0.109600
C311	C31	0.885500	0.058400	0.069300
C321	C32	0.803900	0.001100	0.089100
C331	C33	0.712500	0.045900	0.072100
C341	C34	0.706700	0.133700	0.111700
C351	C35	0.788800	0.190700	0.090100
C361	C36	0.964200	0.198600	0.088500
C371	C37	0.814000	0.913600	0.048900
C381	C38	0.614400	0.177100	0.094800
C391	C39	0.115100	0.183400	0.871300
C401	C40	0.110400	0.120800	0.814900
C411	C41	0.119700	0.035000	0.834500
C421	C42	0.132700	0.017000	0.911000
C431	C43	0.136600	0.083700	0.963600
C441	C44	0.081400	0.819200	0.739900
C451	C45	0.091000	0.881000	0.796700
C461	C46	0.115100	0.964500	0.777000
C471	C47	0.134200	0.980600	0.699700
C481	C48	0.124100	0.914500	0.648800
C491	C49	0.123500	0.446300	0.146400
C501	C50	0.118100	0.500400	0.209000
C511	C51	0.126500	0.465800	0.282100
C521	C52	0.141400	0.377300	0.287100
C531	C53	0.145500	0.328200	0.221300
C541	C54	0.128400	0.660000	0.408800
C551	C55	0.140200	0.609300	0.346200
C561	C56	0.117800	0.522400	0.349400
C571	C57	0.084800	0.491300	0.419100
C581	C58	0.075400	0.548500	0.479200
C591	C59	0.620500	0.646800	0.609600
C601	C60	0.614500	0.558400	0.569300
C611	C61	0.696100	0.501100	0.589100
C621	C62	0.787500	0.545900	0.572100
C631	C63	0.793300	0.633700	0.611700
C641	C64	0.711200	0.690700	0.590100
C651	C65	0.535800	0.698600	0.588500
C661	C66	0.686000	0.413600	0.548900
C671	C67	0.885600	0.677100	0.594800
C681	C68	0.384900	0.683400	0.371300
C691	C69	0.389600	0.620800	0.314900
C701	C70	0.380300	0.535000	0.334500
C711	C71	0.367300	0.517000	0.411000
C721	C72	0.363400	0.583700	0.463600
C731	C73	0.418600	0.319200	0.239900
C741	C74	0.409000	0.381000	0.296700
C751	C75	0.384900	0.464500	0.277000
C761	C76	0.365800	0.480600	0.199700
C771	C77	0.375900	0.414500	0.148800
C781	C78	0.376500	0.946300	0.646400
C791	C79	0.381900	0.000400	0.709000
C801	C80	0.373500	0.965800	0.782100
C811	C81	0.358600	0.877300	0.787100
C821	C82	0.354500	0.828200	0.721300
C831	C83	0.371600	0.160000	0.908800
C841	C84	0.359800	0.109300	0.846200
C851	C85	0.382200	0.022400	0.849400
C861	C86	0.415200	0.991300	0.919100
C871	C87	0.424600	0.048500	0.979200
C881	C88	0.379500	0.146800	0.390400
C891	C89	0.385500	0.058400	0.430700
C901	C90	0.303900	0.001100	0.410900
C911	C91	0.212500	0.045900	0.427900
C921	C92	0.206700	0.133700	0.388300
C931	C93	0.288800	0.190700	0.409900
C941	C94	0.464200	0.198600	0.411500
C951	C95	0.314000	0.913600	0.451100
C961	C96	0.114400	0.177100	0.405200
C971	C97	0.615100	0.183400	0.628700
C981	C98	0.610400	0.120800	0.685100
C991	C99	0.619700	0.035000	0.665500
C1001	C100	0.632700	0.017000	0.589000
C1011	C101	0.636600	0.083700	0.536400
C1021	C102	0.581400	0.819200	0.760100
C1031	C103	0.591000	0.881000	0.703300
C1041	C104	0.615100	0.964500	0.723000
C1051	C105	0.634200	0.980600	0.800300
C1061	C106	0.624100	0.914500	0.851200
C1071	C107	0.623500	0.446300	0.353600
C1081	C108	0.618100	0.500400	0.291000
C1091	C109	0.626500	0.465800	0.217900
C1101	C110	0.641400	0.377300	0.212900
C1111	C111	0.645500	0.328200	0.278700
C1121	C112	0.628400	0.660000	0.091200
C1131	C113	0.640200	0.609300	0.153800
C1141	C114	0.617800	0.522400	0.150600
C1151	C115	0.584800	0.491300	0.080900
C1161	C116	0.575400	0.548500	0.020800
N11	N1	0.872500	0.666800	0.056400
N21	N2	0.902800	0.334800	0.333500
N31	N3	0.863000	0.861000	0.848800
N41	N4	0.906000	0.131000	0.524500
N51	N5	0.127500	0.166800	0.943600
N61	N6	0.097200	0.834800	0.666500
N71	N7	0.137000	0.361000	0.151200
N81	N8	0.094000	0.631000	0.475500
N91	N9	0.372500	0.666800	0.443600
N101	N10	0.402800	0.334800	0.166500
N111	N11	0.363000	0.861000	0.651200
N121	N12	0.406000	0.131000	0.975500
N131	N13	0.627500	0.166800	0.556400
N141	N14	0.597200	0.834800	0.833500
N151	N15	0.637000	0.361000	0.348800
N161	N16	0.594000	0.631000	0.024500
O11	O1	0.959400	0.674000	0.885470
O21	O2	0.042200	0.762300	0.955100
O31	O3	0.108400	0.386300	0.964300
O41	O4	0.253900	0.372900	0.974200
O51	O5	0.449700	0.667900	0.859500
O61	O6	0.397700	0.717900	0.963800
O71	O7	0.040600	0.174000	0.114530
O81	O8	0.957800	0.262300	0.044900
O91	O9	0.891600	0.886300	0.035700
O101	O10	0.746100	0.872900	0.025800
O111	O11	0.550300	0.167900	0.140500
O121	O12	0.602300	0.217900	0.036200
O131	O13	0.459400	0.674000	0.614530
O141	O14	0.542200	0.762300	0.544900
O151	O15	0.608400	0.386300	0.535700
O161	O16	0.753900	0.372900	0.525800
O171	O17	0.949700	0.667900	0.640500
O181	O18	0.897700	0.717900	0.536200
O191	O19	0.540600	0.174000	0.385470
O201	O20	0.457800	0.262300	0.455100
O211	O21	0.391600	0.886300	0.464300
O221	O22	0.246100	0.872900	0.474200
O231	O23	0.050300	0.167900	0.359500
O241	O24	0.102300	0.217900	0.463800
