data_SOGWIV_charged_PM
_symmetry_space_group_name_H-M	'P1'
_cell_length_a	9.617200
_cell_length_b	11.782600
_cell_length_c	12.273400
_cell_angle_alpha	90.000000
_cell_angle_beta	99.295000
_cell_angle_gamma	90.000000
_symmetry_Int_Tables_number 1

loop_
_symmetry_equiv_pos_as_xyz
'x,y,z'

loop_
_atom_site_label
_atom_site_type_symbol
_atom_site_fract_x
_atom_site_fract_y
_atom_site_fract_z
Cd11	Cd1	0.786630	0.017520	0.170590
Cd21	Cd2	0.713370	0.517520	0.329410
Cd31	Cd3	0.213370	0.982480	0.829410
Cd41	Cd4	0.286630	0.482480	0.670590
C11	C1	0.799700	0.748500	0.217600
C21	C2	0.700400	0.791300	0.295300
C31	C3	0.494200	0.065600	0.998800
C41	C4	0.063200	0.000700	0.047100
C51	C5	0.700300	0.248500	0.282400
C61	C6	0.799600	0.291300	0.204700
C71	C7	0.005800	0.565600	0.501200
C81	C8	0.436800	0.500700	0.452900
C91	C9	0.200300	0.251500	0.782400
C101	C10	0.299600	0.208700	0.704700
C111	C11	0.505800	0.934400	0.001200
C121	C12	0.936800	0.999300	0.952900
C131	C13	0.299700	0.751500	0.717600
C141	C14	0.200400	0.708700	0.795300
C151	C15	0.994200	0.434400	0.498800
C161	C16	0.563200	0.499300	0.547100
O11	O1	0.686900	0.896500	0.303400
O21	O2	0.638900	0.717200	0.343600
O31	O3	0.805700	0.643800	0.203100
O41	O4	0.868100	0.821000	0.173800
O51	O5	0.035500	0.015900	0.142800
O61	O6	0.182800	0.987000	0.023100
O71	O7	0.581300	0.118800	0.067300
O81	O8	0.399800	0.107700	0.931200
O91	O9	0.813100	0.396500	0.196600
O101	O10	0.861100	0.217200	0.156400
O111	O11	0.694300	0.143800	0.296900
O121	O12	0.631900	0.321000	0.326200
O131	O13	0.464500	0.515900	0.357200
O141	O14	0.317200	0.487000	0.476900
O151	O15	0.918700	0.618800	0.432700
O161	O16	0.100200	0.607700	0.568800
O171	O17	0.313100	0.103500	0.696600
O181	O18	0.361100	0.282800	0.656400
O191	O19	0.194300	0.356200	0.796900
O201	O20	0.131900	0.179000	0.826200
O211	O21	0.964500	0.984100	0.857200
O221	O22	0.817200	0.013000	0.976900
O231	O23	0.418700	0.881200	0.932700
O241	O24	0.600200	0.892300	0.068800
O251	O25	0.186900	0.603500	0.803400
O261	O26	0.138900	0.782800	0.843600
O271	O27	0.305700	0.856200	0.703100
O281	O28	0.368100	0.679000	0.673800
O291	O29	0.535500	0.484100	0.642800
O301	O30	0.682800	0.513000	0.523100
O311	O31	0.081300	0.381200	0.567300
O321	O32	0.899800	0.392300	0.431200
H11	H1	0.005600	0.305300	0.005900
H21	H2	0.104200	0.236600	0.982100
H31	H3	0.073400	0.236100	0.080500
O331	O33	0.086500	0.280900	0.030800
H41	H4	0.645900	0.964600	0.448800
H51	H5	0.614300	0.975500	0.549100
H61	H6	0.644900	0.061900	0.489700
O341	O34	0.670100	0.996400	0.508600
H71	H7	0.494400	0.805300	0.494100
H81	H8	0.395800	0.736600	0.517900
H91	H9	0.426600	0.736100	0.419500
O351	O35	0.413500	0.780900	0.469200
H101	H10	0.854100	0.464600	0.051200
H111	H11	0.885700	0.475500	0.950900
H121	H12	0.855100	0.561900	0.010300
O361	O36	0.829900	0.496400	0.991400
H131	H13	0.994400	0.694700	0.994100
H141	H14	0.895800	0.763400	0.017900
H151	H15	0.926600	0.763900	0.919500
O371	O37	0.913500	0.719100	0.969200
H161	H16	0.354100	0.035400	0.551200
H171	H17	0.385700	0.024500	0.450900
H181	H18	0.355100	0.938100	0.510300
O381	O38	0.329900	0.003600	0.491400
H191	H19	0.505600	0.194700	0.505900
H201	H20	0.604200	0.263400	0.482100
H211	H21	0.573400	0.263900	0.580500
O391	O39	0.586500	0.219100	0.530800
H221	H22	0.145900	0.535400	0.948800
H231	H23	0.114300	0.524500	0.049100
H241	H24	0.144900	0.438100	0.989700
O401	O40	0.170100	0.503600	0.008600
