data_SOGXAP_clean_PM
_symmetry_space_group_name_H-M	'P1'
_cell_length_a	6.123100
_cell_length_b	7.470500
_cell_length_c	13.063000
_cell_angle_alpha	88.250000
_cell_angle_beta	81.240000
_cell_angle_gamma	89.270000
_symmetry_Int_Tables_number 1

loop_
_symmetry_equiv_pos_as_xyz
'x,y,z'

loop_
_atom_site_label
_atom_site_type_symbol
_atom_site_fract_x
_atom_site_fract_y
_atom_site_fract_z
Ce11	Ce1	0.152210	0.249180	0.311920
Ce21	Ce2	0.886350	0.735940	0.679630
H11	H1	0.309200	0.292100	0.720800
H21	H2	0.580600	0.721800	0.433300
H31	H3	0.343100	0.796000	0.980300
H41	H4	0.439500	0.198800	0.561600
H51	H5	0.627200	0.660300	0.050600
H61	H6	0.225700	0.465200	0.487900
H71	H7	0.789900	0.981200	0.063700
H81	H8	0.592000	0.067100	0.900600
H91	H9	0.767800	0.814200	0.272900
H101	H10	0.804700	0.969000	0.506400
H111	H11	0.108000	0.872500	0.279100
H121	H12	0.993200	0.337600	0.744300
C11	C1	0.725100	0.777100	0.432800
C21	C2	0.789200	0.887400	0.331500
C31	C3	0.395100	0.542500	0.661200
C41	C4	0.775500	0.737800	0.905700
C51	C5	0.301800	0.267800	0.563600
C61	C6	0.330300	0.921800	0.118900
C71	C7	0.264700	0.370400	0.665900
C81	C8	0.440700	0.875500	0.010500
C91	C9	0.116300	0.136600	0.565300
C101	C10	0.662800	0.776300	0.015400
C111	C11	0.903500	0.631800	0.431200
C121	C12	0.653300	0.060800	0.327800
O11	O1	0.796600	0.867500	0.074900
O21	O2	0.004300	0.147000	0.493200
O31	O3	0.290300	0.688700	0.672800
O41	O4	0.017500	0.630100	0.503100
O51	O5	0.932500	0.528300	0.355600
O61	O6	0.300700	0.081000	0.139400
O71	O7	0.275000	0.785900	0.179300
O81	O8	0.487600	0.028200	0.942800
O91	O9	0.322300	0.380800	0.472200
O101	O10	0.447700	0.046700	0.346900
O111	O11	0.602300	0.529300	0.645300
O121	O12	0.014400	0.934400	0.321900
O131	O13	0.085800	0.023100	0.640100
O141	O14	0.720300	0.882100	0.521900
O151	O15	0.033600	0.414400	0.693800
O161	O16	0.931800	0.833100	0.864700
O171	O17	0.693800	0.616600	0.858600
O181	O18	0.756400	0.204000	0.305300
