data_SOHMUY_clean_PM
_symmetry_space_group_name_H-M	'P1'
_cell_length_a	13.829600
_cell_length_b	28.180700
_cell_length_c	44.309400
_cell_angle_alpha	90.000000
_cell_angle_beta	90.000000
_cell_angle_gamma	90.000000
_symmetry_Int_Tables_number 1

loop_
_symmetry_equiv_pos_as_xyz
'x,y,z'

loop_
_atom_site_label
_atom_site_type_symbol
_atom_site_fract_x
_atom_site_fract_y
_atom_site_fract_z
Zn11	Zn1	0.570460	0.027560	0.931070
Zn21	Zn2	0.373050	0.231350	0.827070
Zn31	Zn3	0.611190	0.204670	0.657930
Zn41	Zn4	0.929540	0.972440	0.431070
Zn51	Zn5	0.126950	0.768650	0.327070
Zn61	Zn6	0.888810	0.795330	0.157930
Zn71	Zn7	0.429540	0.527560	0.568930
Zn81	Zn8	0.626950	0.731350	0.672930
Zn91	Zn9	0.388810	0.704670	0.842070
Zn101	Zn10	0.070460	0.472440	0.068930
Zn111	Zn11	0.873050	0.268650	0.172930
Zn121	Zn12	0.111190	0.295330	0.342070
H11	H1	0.798200	0.222800	0.688700
H21	H2	0.880800	0.200400	0.731000
H31	H3	0.551400	0.179100	0.722400
H41	H4	0.627200	0.160600	0.768500
H51	H5	0.542400	0.066400	0.870300
H61	H6	0.625500	0.102300	0.832200
H71	H7	0.779500	0.062200	0.919800
H81	H8	0.864500	0.101100	0.882100
H91	H9	0.229100	0.173200	0.862200
H101	H10	0.063700	0.151600	0.856900
H111	H11	0.229600	0.218100	0.777000
H121	H12	0.073400	0.193400	0.768900
H131	H13	0.863200	0.162000	0.186200
H141	H14	0.841500	0.093300	0.160100
H151	H15	0.807800	0.234800	0.112700
H161	H16	0.780400	0.166800	0.085400
H171	H17	0.612700	0.100300	0.979000
H181	H18	0.702300	0.108200	0.023200
H191	H19	0.678000	0.964800	0.972800
H201	H20	0.752700	0.968100	0.020900
H211	H21	0.801100	0.838000	0.102200
H221	H22	0.788100	0.911400	0.079600
H231	H23	0.870800	0.899100	0.178800
H241	H24	0.849600	0.972600	0.157800
H251	H25	0.701800	0.777200	0.188700
H261	H26	0.619200	0.799600	0.231000
H271	H27	0.948600	0.820900	0.222400
H281	H28	0.872800	0.839400	0.268500
H291	H29	0.957600	0.933600	0.370300
H301	H30	0.874500	0.897700	0.332200
H311	H31	0.720500	0.937800	0.419800
H321	H32	0.635500	0.898900	0.382100
H331	H33	0.270900	0.826800	0.362200
H341	H34	0.436300	0.848400	0.356900
H351	H35	0.270400	0.781900	0.277000
H361	H36	0.426600	0.806600	0.268900
H371	H37	0.636800	0.838000	0.686200
H381	H38	0.658500	0.906700	0.660100
H391	H39	0.692200	0.765200	0.612700
H401	H40	0.719600	0.833200	0.585400
H411	H41	0.887300	0.899700	0.479000
H421	H42	0.797700	0.891800	0.523200
H431	H43	0.822000	0.035200	0.472800
H441	H44	0.747300	0.031900	0.520900
H451	H45	0.698900	0.162000	0.602200
H461	H46	0.711900	0.088600	0.579600
H471	H47	0.629200	0.100900	0.678800
H481	H48	0.650400	0.027400	0.657800
H491	H49	0.201800	0.722800	0.811300
H501	H50	0.119200	0.700400	0.769000
H511	H51	0.448600	0.679100	0.777600
H521	H52	0.372800	0.660600	0.731500
H531	H53	0.457600	0.566400	0.629700
H541	H54	0.374500	0.602300	0.667800
H551	H55	0.220500	0.562200	0.580200
H561	H56	0.135500	0.601100	0.617900
H571	H57	0.770900	0.673200	0.637800
H581	H58	0.936300	0.651600	0.643100
H591	H59	0.770400	0.718100	0.723000
H601	H60	0.926600	0.693400	0.731100
H611	H61	0.136800	0.662000	0.313800
H621	H62	0.158500	0.593300	0.339900
H631	H63	0.192200	0.734800	0.387300
H641	H64	0.219600	0.666800	0.414600
H651	H65	0.387300	0.600300	0.521000
H661	H66	0.297700	0.608200	0.476800
H671	H67	0.322000	0.464800	0.527200
H681	H68	0.247300	0.468100	0.479100
H691	H69	0.198900	0.338000	0.397800
H701	H70	0.211900	0.411400	0.420400
H711	H71	0.129200	0.399100	0.321200
H721	H72	0.150400	0.472600	0.342200
H731	H73	0.298200	0.277200	0.311300
H741	H74	0.380800	0.299600	0.269000
H751	H75	0.051400	0.320900	0.277600
H761	H76	0.127200	0.339400	0.231500
H771	H77	0.042400	0.433600	0.129700
H781	H78	0.125500	0.397700	0.167800
H791	H79	0.279500	0.437800	0.080200
H801	H80	0.364500	0.398900	0.117900
H811	H81	0.729100	0.326800	0.137800
H821	H82	0.563700	0.348400	0.143100
H831	H83	0.729600	0.281900	0.223000
H841	H84	0.573400	0.306600	0.231100
H851	H85	0.363200	0.338000	0.813800
H861	H86	0.341500	0.406700	0.839900
H871	H87	0.307800	0.265200	0.887300
H881	H88	0.280400	0.333200	0.914600
H891	H89	0.112700	0.399700	0.021000
H901	H90	0.202300	0.391800	0.976800
H911	H91	0.178000	0.535200	0.027200
H921	H92	0.252700	0.531900	0.979100
H931	H93	0.301100	0.662000	0.897800
H941	H94	0.288100	0.588600	0.920400
H951	H95	0.370800	0.600900	0.821200
H961	H96	0.349600	0.527400	0.842200
C11	C1	0.764200	0.208500	0.704300
C21	C2	0.814100	0.196400	0.729800
C31	C3	0.617700	0.183500	0.724400
C41	C4	0.662900	0.171900	0.752200
C51	C5	0.760800	0.177800	0.754200
C61	C6	0.810600	0.163000	0.781600
C71	C7	0.607700	0.073200	0.872800
C81	C8	0.657400	0.094000	0.849900
C91	C9	0.748300	0.071200	0.902100
C101	C10	0.799900	0.093100	0.879300
C111	C11	0.754800	0.102800	0.852800
C121	C12	0.810500	0.126200	0.827200
C131	C13	0.196300	0.178300	0.844200
C141	C14	0.097000	0.164600	0.840700
C151	C15	0.195700	0.204400	0.792900
C161	C16	0.102300	0.190400	0.787800
C171	C17	0.050800	0.170700	0.813600
C181	C18	0.946000	0.159100	0.808800
C191	C19	0.848000	0.163100	0.165700
C201	C20	0.835300	0.122000	0.149900
C211	C21	0.814700	0.205700	0.122300
C221	C22	0.799500	0.165000	0.105500
C231	C23	0.813800	0.120900	0.119700
C241	C24	0.797200	0.076800	0.102700
C251	C25	0.645600	0.074300	0.986700
C261	C26	0.692800	0.078600	0.014400
C271	C27	0.681500	0.993400	0.983100
C281	C28	0.725000	0.995200	0.012700
C291	C29	0.725600	0.037200	0.028700
C301	C30	0.758900	0.037400	0.060200
C311	C31	0.815300	0.865100	0.113300
C321	C32	0.802400	0.909400	0.100000
C331	C33	0.855000	0.901300	0.158500
C341	C34	0.839900	0.945600	0.146100
C351	C35	0.810600	0.950000	0.116800
C361	C36	0.798700	0.996900	0.101700
C371	C37	0.735800	0.791500	0.204300
C381	C38	0.685900	0.803600	0.229800
C391	C39	0.882300	0.816500	0.224400
C401	C40	0.837100	0.828100	0.252200
C411	C41	0.739200	0.822200	0.254200
C421	C42	0.689400	0.837000	0.281600
C431	C43	0.892300	0.926800	0.372800
C441	C44	0.842600	0.906000	0.349900
C451	C45	0.751700	0.928800	0.402100
C461	C46	0.700100	0.906900	0.379300
C471	C47	0.745200	0.897200	0.352800
C481	C48	0.689500	0.873800	0.327200
C491	C49	0.303700	0.821700	0.344200
C501	C50	0.403000	0.835400	0.340700
C511	C51	0.304300	0.795600	0.292900
C521	C52	0.397700	0.809600	0.287800
C531	C53	0.449200	0.829300	0.313600
C541	C54	0.554000	0.840900	0.308800
C551	C55	0.652000	0.836900	0.665700
C561	C56	0.664700	0.878000	0.649900
C571	C57	0.685300	0.794300	0.622300
C581	C58	0.700500	0.835000	0.605500
C591	C59	0.686200	0.879100	0.619700
C601	C60	0.702800	0.923200	0.602700
C611	C61	0.854400	0.925700	0.486700
C621	C62	0.807200	0.921400	0.514400
C631	C63	0.818500	0.006600	0.483100
C641	C64	0.775000	0.004800	0.512700
C651	C65	0.774400	0.962800	0.528700
C661	C66	0.741100	0.962600	0.560200
C671	C67	0.684700	0.134900	0.613300
C681	C68	0.697600	0.090600	0.600000
C691	C69	0.645000	0.098700	0.658500
C701	C70	0.660100	0.054400	0.646100
C711	C71	0.689400	0.050000	0.616800
C721	C72	0.701300	0.003100	0.601700
C731	C73	0.235800	0.708500	0.795700
C741	C74	0.185900	0.696400	0.770200
C751	C75	0.382300	0.683500	0.775600
C761	C76	0.337100	0.671900	0.747800
C771	C77	0.239200	0.677800	0.745800
C781	C78	0.189400	0.663000	0.718400
C791	C79	0.392300	0.573200	0.627200
C801	C80	0.342600	0.594000	0.650100
C811	C81	0.251700	0.571200	0.597900
C821	C82	0.200100	0.593100	0.620700
C831	C83	0.245200	0.602800	0.647200
C841	C84	0.189500	0.626200	0.672800
C851	C85	0.803700	0.678300	0.655800
C861	C86	0.903000	0.664600	0.659300
C871	C87	0.804300	0.704400	0.707100
C881	C88	0.897700	0.690400	0.712200
C891	C89	0.949200	0.670700	0.686400
C901	C90	0.054000	0.659100	0.691200
C911	C91	0.152000	0.663100	0.334300
C921	C92	0.164700	0.622000	0.350100
C931	C93	0.185300	0.705700	0.377700
C941	C94	0.200500	0.665000	0.394500
C951	C95	0.186200	0.620900	0.380300
C961	C96	0.202800	0.576800	0.397300
C971	C97	0.354400	0.574300	0.513300
C981	C98	0.307200	0.578600	0.485600
C991	C99	0.318500	0.493400	0.516900
C1001	C100	0.275000	0.495200	0.487300
C1011	C101	0.274400	0.537200	0.471300
C1021	C102	0.241100	0.537400	0.439800
C1031	C103	0.184700	0.365100	0.386700
C1041	C104	0.197600	0.409400	0.400000
C1051	C105	0.145000	0.401300	0.341500
C1061	C106	0.160100	0.445600	0.353900
C1071	C107	0.189400	0.450000	0.383200
C1081	C108	0.201300	0.496900	0.398300
C1091	C109	0.264200	0.291500	0.295700
C1101	C110	0.314100	0.303600	0.270200
C1111	C111	0.117700	0.316500	0.275600
C1121	C112	0.162900	0.328100	0.247800
C1131	C113	0.260800	0.322200	0.245800
C1141	C114	0.310600	0.337000	0.218400
C1151	C115	0.107700	0.426800	0.127200
C1161	C116	0.157400	0.406000	0.150100
C1171	C117	0.248300	0.428800	0.097900
C1181	C118	0.299900	0.406900	0.120700
C1191	C119	0.254800	0.397200	0.147200
C1201	C120	0.310500	0.373800	0.172800
C1211	C121	0.696300	0.321700	0.155800
C1221	C122	0.597000	0.335400	0.159300
C1231	C123	0.695700	0.295600	0.207100
C1241	C124	0.602300	0.309600	0.212200
C1251	C125	0.550800	0.329300	0.186400
C1261	C126	0.446000	0.340900	0.191200
C1271	C127	0.348000	0.336900	0.834300
C1281	C128	0.335300	0.378000	0.850100
C1291	C129	0.314700	0.294300	0.877700
C1301	C130	0.299500	0.335000	0.894500
C1311	C131	0.313800	0.379100	0.880300
C1321	C132	0.297200	0.423200	0.897300
C1331	C133	0.145600	0.425700	0.013300
C1341	C134	0.192800	0.421400	0.985600
C1351	C135	0.181500	0.506600	0.016900
C1361	C136	0.225000	0.504800	0.987300
C1371	C137	0.225600	0.462800	0.971300
C1381	C138	0.258900	0.462600	0.939800
C1391	C139	0.315300	0.634900	0.886700
C1401	C140	0.302400	0.590600	0.900000
C1411	C141	0.355000	0.598700	0.841500
C1421	C142	0.339900	0.554400	0.853900
C1431	C143	0.310600	0.550000	0.883200
C1441	C144	0.298700	0.503100	0.898300
I11	I1	0.566390	0.940790	0.914460
I21	I2	0.410930	0.072200	0.937030
I31	I3	0.439080	0.250290	0.774580
I41	I4	0.465790	0.181860	0.864970
I51	I5	0.427160	0.201940	0.661580
I61	I6	0.699790	0.267250	0.627470
I71	I7	0.933610	0.059210	0.414460
I81	I8	0.089070	0.927800	0.437030
I91	I9	0.060920	0.749710	0.274580
I101	I10	0.034210	0.818140	0.364970
I111	I11	0.072840	0.798060	0.161580
I121	I12	0.800210	0.732750	0.127470
I131	I13	0.433610	0.440790	0.585540
I141	I14	0.589070	0.572200	0.562970
I151	I15	0.560920	0.750290	0.725420
I161	I16	0.534210	0.681860	0.635030
I171	I17	0.572840	0.701940	0.838420
I181	I18	0.300210	0.767250	0.872530
I191	I19	0.066390	0.559210	0.085540
I201	I20	0.910930	0.427800	0.062970
I211	I21	0.939080	0.249710	0.225420
I221	I22	0.965790	0.318140	0.135030
I231	I23	0.927160	0.298060	0.338420
I241	I24	0.199790	0.232750	0.372530
N11	N1	0.669100	0.201100	0.700400
N21	N2	0.650900	0.062600	0.898700
N31	N3	0.241700	0.199400	0.819800
N41	N4	0.757300	0.139900	0.802700
N51	N5	0.904400	0.132900	0.831300
N61	N6	0.903900	0.174000	0.784000
N71	N7	0.838300	0.205800	0.151300
N81	N8	0.646500	0.032500	0.970700
N91	N9	0.847700	0.860200	0.142000
N101	N10	0.771100	0.080800	0.074100
N111	N11	0.773100	0.995600	0.072700
N121	N12	0.811000	0.035800	0.117500
N131	N13	0.830900	0.798900	0.200400
N141	N14	0.849100	0.937400	0.398700
N151	N15	0.258300	0.800600	0.319800
N161	N16	0.742700	0.860100	0.302700
N171	N17	0.595600	0.867100	0.331300
N181	N18	0.596100	0.826000	0.284000
N191	N19	0.661700	0.794200	0.651300
N201	N20	0.853500	0.967500	0.470700
N211	N21	0.652300	0.139800	0.642000
N221	N22	0.728900	0.919200	0.574100
N231	N23	0.726900	0.004400	0.572700
N241	N24	0.689000	0.964200	0.617500
N251	N25	0.330900	0.701100	0.799600
N261	N26	0.349100	0.562600	0.601300
N271	N27	0.758300	0.699400	0.680200
N281	N28	0.242700	0.639900	0.697300
N291	N29	0.095600	0.632900	0.668700
N301	N30	0.096100	0.674000	0.716000
N311	N31	0.161700	0.705800	0.348700
N321	N32	0.353500	0.532500	0.529300
N331	N33	0.152300	0.360200	0.358000
N341	N34	0.228900	0.580800	0.425900
N351	N35	0.226900	0.495600	0.427300
N361	N36	0.189000	0.535800	0.382500
N371	N37	0.169100	0.298900	0.299600
N381	N38	0.150900	0.437400	0.101300
N391	N39	0.741700	0.300600	0.180200
N401	N40	0.257300	0.360100	0.197300
N411	N41	0.404400	0.367100	0.168700
N421	N42	0.403900	0.326000	0.216000
N431	N43	0.338300	0.294200	0.848700
N441	N44	0.146500	0.467500	0.029300
N451	N45	0.347700	0.639800	0.858000
N461	N46	0.271100	0.419200	0.925900
N471	N47	0.273100	0.504400	0.927300
N481	N48	0.311000	0.464200	0.882500
Zn131	Zn13	0.561170	0.497210	0.069720
Zn141	Zn14	0.887410	0.302900	0.832740
Zn151	Zn15	0.867130	0.779230	0.847750
Zn161	Zn16	0.938830	0.502790	0.569720
Zn171	Zn17	0.612590	0.697100	0.332740
Zn181	Zn18	0.632870	0.220770	0.347750
Zn191	Zn19	0.438830	0.997210	0.430280
Zn201	Zn20	0.112590	0.802900	0.667260
Zn211	Zn21	0.132870	0.279230	0.652250
Zn221	Zn22	0.061170	0.002790	0.930280
Zn231	Zn23	0.387410	0.197100	0.167260
Zn241	Zn24	0.367130	0.720770	0.152250
H971	H97	0.827400	0.339200	0.891800
H981	H98	0.785900	0.406000	0.915800
H991	H99	0.871000	0.408200	0.817500
H1001	H100	0.841700	0.480200	0.841500
H1011	H101	0.871300	0.676700	0.827500
H1021	H102	0.849000	0.600200	0.848100
H1031	H103	0.792000	0.734700	0.902800
H1041	H104	0.762200	0.662500	0.924500
H1051	H105	0.615600	0.578800	0.028500
H1061	H106	0.684100	0.590600	0.984200
H1071	H107	0.692500	0.445600	0.025200
H1081	H108	0.752700	0.455700	0.978200
H1091	H109	0.766400	0.514900	0.084700
H1101	H110	0.862000	0.552400	0.120400
H1111	H111	0.533100	0.571400	0.116000
H1121	H112	0.618300	0.608700	0.153900
H1131	H113	0.554000	0.667000	0.270000
H1141	H114	0.628900	0.649500	0.224900
H1151	H115	0.797800	0.722500	0.299200
H1161	H116	0.880500	0.698600	0.254700
H1171	H117	0.239700	0.700600	0.205100
H1181	H118	0.079600	0.678200	0.217600
H1191	H119	0.198300	0.678700	0.120100
H1201	H120	0.044900	0.653400	0.127700
H1211	H121	0.672600	0.660800	0.391800
H1221	H122	0.714100	0.594000	0.415800
H1231	H123	0.629000	0.591800	0.317500
H1241	H124	0.658300	0.519800	0.341500
H1251	H125	0.628700	0.323300	0.327500
H1261	H126	0.651000	0.399800	0.348100
H1271	H127	0.708000	0.265300	0.402800
H1281	H128	0.737800	0.337500	0.424500
H1291	H129	0.884400	0.421200	0.528500
H1301	H130	0.815900	0.409400	0.484200
H1311	H131	0.807500	0.554400	0.525200
H1321	H132	0.747300	0.544300	0.478200
H1331	H133	0.733600	0.485100	0.584700
H1341	H134	0.638000	0.447600	0.620400
H1351	H135	0.966900	0.428600	0.616000
H1361	H136	0.881700	0.391300	0.653900
H1371	H137	0.946000	0.333000	0.770000
H1381	H138	0.871100	0.350500	0.724900
H1391	H139	0.702200	0.277500	0.799200
H1401	H140	0.619500	0.301400	0.754700
H1411	H141	0.260300	0.299400	0.705100
H1421	H142	0.420400	0.321800	0.717600
H1431	H143	0.301700	0.321300	0.620100
H1441	H144	0.455100	0.346600	0.627700
H1451	H145	0.172600	0.839200	0.608200
H1461	H146	0.214100	0.906000	0.584200
H1471	H147	0.129000	0.908200	0.682500
H1481	H148	0.158300	0.980200	0.658500
H1491	H149	0.128700	0.176700	0.672500
H1501	H150	0.151000	0.100200	0.651900
H1511	H151	0.208000	0.234700	0.597200
H1521	H152	0.237800	0.162500	0.575500
H1531	H153	0.384400	0.078800	0.471500
H1541	H154	0.315900	0.090600	0.515800
H1551	H155	0.307500	0.945600	0.474800
H1561	H156	0.247300	0.955700	0.521800
H1571	H157	0.233600	0.014900	0.415300
H1581	H158	0.138000	0.052400	0.379600
H1591	H159	0.466900	0.071400	0.384000
H1601	H160	0.381700	0.108700	0.346100
H1611	H161	0.446000	0.167000	0.230000
H1621	H162	0.371100	0.149500	0.275100
H1631	H163	0.202200	0.222500	0.200800
H1641	H164	0.119500	0.198600	0.245300
H1651	H165	0.760300	0.200600	0.294900
H1661	H166	0.920400	0.178200	0.282400
H1671	H167	0.801700	0.178700	0.379900
H1681	H168	0.955100	0.153400	0.372300
H1691	H169	0.327400	0.160800	0.108200
H1701	H170	0.285900	0.094000	0.084200
H1711	H171	0.371000	0.091800	0.182500
H1721	H172	0.341700	0.019800	0.158500
H1731	H173	0.371300	0.823300	0.172500
H1741	H174	0.349000	0.899800	0.151900
H1751	H175	0.292000	0.765300	0.097200
H1761	H176	0.262200	0.837500	0.075500
H1771	H177	0.115600	0.921200	0.971500
H1781	H178	0.184100	0.909400	0.015800
H1791	H179	0.192500	0.054400	0.974800
H1801	H180	0.252700	0.044300	0.021800
H1811	H181	0.266400	0.985100	0.915300
H1821	H182	0.362000	0.947600	0.879600
H1831	H183	0.033100	0.928600	0.884000
H1841	H184	0.118300	0.891300	0.846100
H1851	H185	0.054000	0.833000	0.730000
H1861	H186	0.128900	0.850500	0.775100
H1871	H187	0.297800	0.777500	0.700800
H1881	H188	0.380500	0.801400	0.745300
H1891	H189	0.739700	0.799400	0.794900
H1901	H190	0.579600	0.821800	0.782400
H1911	H191	0.698300	0.821300	0.879900
H1921	H192	0.544900	0.846600	0.872300
C1451	C145	0.826900	0.367600	0.881100
C1461	C146	0.806100	0.407700	0.895800
C1471	C147	0.854000	0.408100	0.837800
C1481	C148	0.837100	0.452000	0.852200
C1491	C149	0.814000	0.452300	0.881900
C1501	C150	0.797100	0.496900	0.900100
C1511	C151	0.849100	0.673500	0.847200
C1521	C152	0.835400	0.626900	0.859600
C1531	C153	0.801800	0.707500	0.891300
C1541	C154	0.784900	0.663800	0.904700
C1551	C155	0.801500	0.622100	0.889000
C1561	C156	0.796200	0.574900	0.902700
C1571	C157	0.643200	0.553300	0.018300
C1581	C158	0.682400	0.560000	0.992000
C1591	C159	0.686600	0.475300	0.016200
C1601	C160	0.724700	0.481300	0.988100
C1611	C161	0.722200	0.523100	0.975000
C1621	C162	0.757000	0.530600	0.943100
C1631	C163	0.737300	0.533600	0.099500
C1641	C164	0.795400	0.557100	0.120000
C1651	C165	0.599200	0.566300	0.117800
C1661	C166	0.650900	0.590600	0.139600
C1671	C167	0.750000	0.588200	0.140300
C1681	C168	0.806900	0.616400	0.164200
C1691	C169	0.619400	0.673600	0.267500
C1701	C170	0.664600	0.662500	0.240600
C1711	C171	0.765000	0.705400	0.284500
C1721	C172	0.815100	0.692300	0.257600
C1731	C173	0.761900	0.670400	0.237000
C1741	C174	0.812000	0.653200	0.208200
C1751	C175	0.198700	0.691400	0.189500
C1761	C176	0.102300	0.677400	0.197800
C1771	C177	0.174500	0.678100	0.139800
C1781	C178	0.082200	0.663100	0.144000
C1791	C179	0.044400	0.662200	0.172800
C1801	C180	0.946700	0.649000	0.178600
C1811	C181	0.673100	0.632400	0.381100
C1821	C182	0.693900	0.592300	0.395800
C1831	C183	0.646000	0.591900	0.337800
C1841	C184	0.662900	0.548000	0.352200
C1851	C185	0.686000	0.547700	0.381900
C1861	C186	0.702900	0.503100	0.400100
C1871	C187	0.650900	0.326500	0.347200
C1881	C188	0.664600	0.373100	0.359600
C1891	C189	0.698200	0.292500	0.391300
C1901	C190	0.715100	0.336200	0.404700
C1911	C191	0.698500	0.377900	0.389000
C1921	C192	0.703800	0.425100	0.402700
C1931	C193	0.856800	0.446700	0.518300
C1941	C194	0.817600	0.440000	0.492000
C1951	C195	0.813400	0.524700	0.516200
C1961	C196	0.775300	0.518700	0.488100
C1971	C197	0.777800	0.476900	0.475000
C1981	C198	0.743000	0.469400	0.443100
C1991	C199	0.762700	0.466400	0.599500
C2001	C200	0.704600	0.442900	0.620000
C2011	C201	0.900800	0.433700	0.617800
C2021	C202	0.849100	0.409400	0.639600
C2031	C203	0.750000	0.411800	0.640300
C2041	C204	0.693100	0.383600	0.664200
C2051	C205	0.880600	0.326400	0.767500
C2061	C206	0.835400	0.337500	0.740600
C2071	C207	0.735000	0.294600	0.784500
C2081	C208	0.684900	0.307700	0.757600
C2091	C209	0.738100	0.329600	0.737000
C2101	C210	0.688000	0.346800	0.708200
C2111	C211	0.301300	0.308600	0.689500
C2121	C212	0.397700	0.322600	0.697800
C2131	C213	0.325500	0.321900	0.639800
C2141	C214	0.417800	0.336900	0.644000
C2151	C215	0.455600	0.337800	0.672800
C2161	C216	0.553300	0.351000	0.678600
C2171	C217	0.173100	0.867600	0.618900
C2181	C218	0.193900	0.907700	0.604200
C2191	C219	0.146000	0.908100	0.662200
C2201	C220	0.162900	0.952000	0.647800
C2211	C221	0.186000	0.952300	0.618100
C2221	C222	0.202900	0.996900	0.599900
C2231	C223	0.150900	0.173500	0.652800
C2241	C224	0.164600	0.126900	0.640400
C2251	C225	0.198200	0.207500	0.608700
C2261	C226	0.215100	0.163800	0.595300
C2271	C227	0.198500	0.122100	0.611000
C2281	C228	0.203800	0.074900	0.597300
C2291	C229	0.356800	0.053300	0.481700
C2301	C230	0.317600	0.060000	0.508000
C2311	C231	0.313400	0.975300	0.483800
C2321	C232	0.275300	0.981300	0.511900
C2331	C233	0.277800	0.023100	0.525000
C2341	C234	0.243000	0.030600	0.556900
C2351	C235	0.262700	0.033600	0.400500
C2361	C236	0.204600	0.057100	0.380000
C2371	C237	0.400800	0.066300	0.382200
C2381	C238	0.349100	0.090600	0.360400
C2391	C239	0.250000	0.088200	0.359700
C2401	C240	0.193100	0.116400	0.335800
C2411	C241	0.380600	0.173600	0.232500
C2421	C242	0.335400	0.162500	0.259400
C2431	C243	0.235000	0.205400	0.215500
C2441	C244	0.184900	0.192300	0.242400
C2451	C245	0.238100	0.170400	0.263000
C2461	C246	0.188000	0.153200	0.291800
C2471	C247	0.801300	0.191400	0.310500
C2481	C248	0.897700	0.177400	0.302200
C2491	C249	0.825500	0.178100	0.360200
C2501	C250	0.917800	0.163100	0.356000
C2511	C251	0.955600	0.162200	0.327200
C2521	C252	0.053300	0.149000	0.321400
C2531	C253	0.326900	0.132400	0.118900
C2541	C254	0.306100	0.092300	0.104200
C2551	C255	0.354000	0.091900	0.162200
C2561	C256	0.337100	0.048000	0.147800
C2571	C257	0.314000	0.047700	0.118100
C2581	C258	0.297100	0.003100	0.099900
C2591	C259	0.349100	0.826500	0.152800
C2601	C260	0.335400	0.873100	0.140400
C2611	C261	0.301800	0.792500	0.108700
C2621	C262	0.284900	0.836200	0.095300
C2631	C263	0.301500	0.877900	0.111000
C2641	C264	0.296200	0.925100	0.097300
C2651	C265	0.143200	0.946700	0.981700
C2661	C266	0.182400	0.940000	0.008000
C2671	C267	0.186600	0.024700	0.983800
C2681	C268	0.224700	0.018700	0.011900
C2691	C269	0.222200	0.976900	0.025000
C2701	C270	0.257000	0.969400	0.056900
C2711	C271	0.237300	0.966400	0.900500
C2721	C272	0.295400	0.942900	0.880000
C2731	C273	0.099200	0.933700	0.882200
C2741	C274	0.150900	0.909400	0.860400
C2751	C275	0.250000	0.911800	0.859700
C2761	C276	0.306900	0.883600	0.835800
C2771	C277	0.119400	0.826400	0.732500
C2781	C278	0.164600	0.837500	0.759400
C2791	C279	0.265000	0.794600	0.715500
C2801	C280	0.315100	0.807700	0.742400
C2811	C281	0.261900	0.829600	0.763000
C2821	C282	0.312000	0.846800	0.791800
C2831	C283	0.698700	0.808600	0.810500
C2841	C284	0.602300	0.822600	0.802200
C2851	C285	0.674500	0.821900	0.860200
C2861	C286	0.582200	0.836900	0.856000
C2871	C287	0.544400	0.837800	0.827200
C2881	C288	0.446700	0.851000	0.821400
I251	I25	0.569180	0.408500	0.081420
I261	I26	0.398820	0.537880	0.062120
I271	I27	0.072850	0.306820	0.828790
I281	I28	0.803590	0.238110	0.862620
I291	I29	0.957910	0.771440	0.797550
I301	I30	0.939410	0.822530	0.893200
I311	I31	0.930820	0.591500	0.581420
I321	I32	0.101180	0.462120	0.562120
I331	I33	0.427150	0.693180	0.328790
I341	I34	0.696410	0.761890	0.362620
I351	I35	0.542090	0.228560	0.297550
I361	I36	0.560590	0.177470	0.393200
I371	I37	0.430820	0.908500	0.418580
I381	I38	0.601180	0.037880	0.437880
I391	I39	0.927150	0.806820	0.671210
I401	I40	0.196410	0.738110	0.637380
I411	I41	0.042090	0.271440	0.702450
I421	I42	0.060590	0.322530	0.606800
I431	I43	0.069180	0.091500	0.918580
I441	I44	0.898820	0.962120	0.937880
I451	I45	0.572850	0.193180	0.171210
I461	I46	0.303590	0.261890	0.137380
I471	I47	0.457910	0.728560	0.202450
I481	I48	0.439410	0.677470	0.106800
N491	N49	0.846600	0.366600	0.852000
N501	N50	0.830500	0.712600	0.863600
N511	N51	0.642000	0.508900	0.031300
N521	N52	0.809500	0.538300	0.885800
N531	N53	0.768300	0.573300	0.931900
N541	N54	0.771900	0.491800	0.927900
N551	N55	0.641400	0.536600	0.100100
N561	N56	0.668100	0.693400	0.289300
N571	N57	0.234100	0.692500	0.162300
N581	N58	0.758700	0.631000	0.188100
N591	N59	0.902900	0.664900	0.205200
N601	N60	0.899100	0.622800	0.158800
N611	N61	0.653400	0.633400	0.352000
N621	N62	0.669500	0.287400	0.363600
N631	N63	0.858000	0.491100	0.531300
N641	N64	0.690500	0.461700	0.385800
N651	N65	0.731700	0.426700	0.431900
N661	N66	0.728100	0.508200	0.427900
N671	N67	0.858600	0.463400	0.600100
N681	N68	0.831900	0.306600	0.789300
N691	N69	0.265900	0.307500	0.662300
N701	N70	0.741300	0.369000	0.688100
N711	N71	0.597100	0.335100	0.705200
N721	N72	0.600900	0.377200	0.658800
N731	N73	0.153400	0.866600	0.648000
N741	N74	0.169500	0.212600	0.636400
N751	N75	0.358000	0.008900	0.468700
N761	N76	0.190500	0.038300	0.614200
N771	N77	0.231700	0.073300	0.568100
N781	N78	0.228100	0.991800	0.572100
N791	N79	0.358600	0.036600	0.399900
N801	N80	0.331900	0.193400	0.210700
N811	N81	0.765900	0.192500	0.337700
N821	N82	0.241300	0.131000	0.311900
N831	N83	0.097100	0.164900	0.294800
N841	N84	0.100900	0.122800	0.341200
N851	N85	0.346600	0.133400	0.148000
N861	N86	0.330500	0.787400	0.136400
N871	N87	0.142000	0.991100	0.968700
N881	N88	0.309500	0.961700	0.114200
N891	N89	0.268300	0.926700	0.068100
N901	N90	0.271900	0.008200	0.072100
N911	N91	0.141400	0.963400	0.899900
N921	N92	0.168100	0.806600	0.710700
N931	N93	0.734100	0.807500	0.837700
N941	N94	0.258700	0.869000	0.811900
N951	N95	0.402900	0.835100	0.794800
N961	N96	0.399100	0.877200	0.841200
