data_SOHMEI_clean_PM
_symmetry_space_group_name_H-M	'P1'
_cell_length_a	13.823800
_cell_length_b	28.174500
_cell_length_c	45.199500
_cell_angle_alpha	90.000000
_cell_angle_beta	90.000000
_cell_angle_gamma	90.000000
_symmetry_Int_Tables_number 1

loop_
_symmetry_equiv_pos_as_xyz
'x,y,z'

loop_
_atom_site_label
_atom_site_type_symbol
_atom_site_fract_x
_atom_site_fract_y
_atom_site_fract_z
Zn11	Zn1	0.144660	0.447420	0.578880
Zn21	Zn2	0.834160	0.238600	0.815560
Zn31	Zn3	0.127420	0.977950	0.586630
Zn41	Zn4	0.855340	0.052580	0.078880
Zn51	Zn5	0.165840	0.261400	0.315560
Zn61	Zn6	0.872580	0.522050	0.086630
Zn71	Zn7	0.644660	0.552580	0.921120
Zn81	Zn8	0.334160	0.761400	0.684440
Zn91	Zn9	0.627420	0.022050	0.913370
Zn101	Zn10	0.355340	0.947420	0.421120
Zn111	Zn11	0.665840	0.738600	0.184440
Zn121	Zn12	0.372580	0.477950	0.413370
H11	H1	0.090400	0.271500	0.589000
H21	H2	0.125800	0.344100	0.565800
H31	H3	0.067500	0.414300	0.635600
H41	H4	0.028700	0.345200	0.661600
H51	H5	0.993000	0.293400	0.722800
H61	H6	0.942800	0.297800	0.771600
H71	H7	0.894800	0.163400	0.773600
H81	H8	0.947400	0.154500	0.727200
H91	H9	0.037000	0.088200	0.669500
H101	H10	0.067300	0.017100	0.645600
H111	H11	0.117600	0.083100	0.570700
H121	H12	0.079200	0.155600	0.591200
H131	H13	0.870400	0.446900	0.507600
H141	H14	0.953700	0.465700	0.550500
H151	H15	0.195900	0.418100	0.516900
H161	H16	0.118400	0.395800	0.474400
H171	H17	0.116200	0.355700	0.404600
H181	H18	0.196600	0.321700	0.367400
H191	H19	0.955600	0.279100	0.332000
H201	H20	0.869900	0.318900	0.367200
H211	H21	0.676400	0.393100	0.386500
H221	H22	0.518600	0.415800	0.381500
H231	H23	0.514800	0.467600	0.462600
H241	H24	0.674600	0.438800	0.470000
H251	H25	0.909600	0.228500	0.089000
H261	H26	0.874200	0.155900	0.065800
H271	H27	0.932500	0.085700	0.135600
H281	H28	0.971300	0.154800	0.161600
H291	H29	0.007000	0.206600	0.222800
H301	H30	0.057200	0.202200	0.271600
H311	H31	0.105200	0.336600	0.273600
H321	H32	0.052600	0.345500	0.227200
H331	H33	0.963000	0.411800	0.169500
H341	H34	0.932700	0.482900	0.145600
H351	H35	0.882400	0.416900	0.070700
H361	H36	0.920800	0.344400	0.091200
H371	H37	0.129600	0.053100	0.007600
H381	H38	0.046300	0.034300	0.050500
H391	H39	0.804100	0.081900	0.016900
H401	H40	0.881600	0.104200	0.974400
H411	H41	0.883800	0.144300	0.904600
H421	H42	0.803400	0.178300	0.867400
H431	H43	0.044400	0.220900	0.832000
H441	H44	0.130100	0.181100	0.867200
H451	H45	0.323600	0.106900	0.886500
H461	H46	0.481400	0.084200	0.881500
H471	H47	0.485200	0.032400	0.962600
H481	H48	0.325400	0.061200	0.970000
H491	H49	0.590400	0.728500	0.911000
H501	H50	0.625800	0.655900	0.934200
H511	H51	0.567500	0.585700	0.864400
H521	H52	0.528700	0.654800	0.838400
H531	H53	0.493000	0.706600	0.777200
H541	H54	0.442800	0.702200	0.728400
H551	H55	0.394800	0.836600	0.726400
H561	H56	0.447400	0.845500	0.772800
H571	H57	0.537000	0.911800	0.830500
H581	H58	0.567300	0.982900	0.854400
H591	H59	0.617600	0.916900	0.929300
H601	H60	0.579200	0.844400	0.908800
H611	H61	0.370400	0.553100	0.992400
H621	H62	0.453700	0.534300	0.949500
H631	H63	0.695900	0.581900	0.983100
H641	H64	0.618400	0.604200	0.025600
H651	H65	0.616200	0.644300	0.095400
H661	H66	0.696600	0.678300	0.132600
H671	H67	0.455600	0.720900	0.168000
H681	H68	0.369900	0.681100	0.132800
H691	H69	0.176400	0.606900	0.113500
H701	H70	0.018600	0.584200	0.118500
H711	H71	0.014800	0.532400	0.037400
H721	H72	0.174600	0.561200	0.030000
H731	H73	0.409600	0.771500	0.411000
H741	H74	0.374200	0.844100	0.434200
H751	H75	0.432500	0.914300	0.364400
H761	H76	0.471300	0.845200	0.338400
H771	H77	0.507000	0.793400	0.277200
H781	H78	0.557200	0.797800	0.228400
H791	H79	0.605200	0.663400	0.226400
H801	H80	0.552600	0.654500	0.272800
H811	H81	0.463000	0.588200	0.330500
H821	H82	0.432700	0.517100	0.354400
H831	H83	0.382400	0.583100	0.429300
H841	H84	0.420800	0.655600	0.408800
H851	H85	0.629600	0.946900	0.492400
H861	H86	0.546300	0.965700	0.449500
H871	H87	0.304100	0.918100	0.483100
H881	H88	0.381600	0.895800	0.525600
H891	H89	0.383800	0.855700	0.595400
H901	H90	0.303400	0.821700	0.632600
H911	H91	0.544400	0.779100	0.668000
H921	H92	0.630100	0.818900	0.632800
H931	H93	0.823600	0.893100	0.613500
H941	H94	0.981400	0.915800	0.618500
H951	H95	0.985200	0.967600	0.537400
H961	H96	0.825400	0.938800	0.530000
C11	C1	0.044800	0.254800	0.645000
C21	C2	0.007900	0.218300	0.688100
C31	C3	0.043300	0.176100	0.648000
C41	C4	0.061100	0.300500	0.628000
C51	C5	0.086300	0.299900	0.599500
C61	C6	0.106700	0.344500	0.585500
C71	C7	0.072600	0.385100	0.626100
C81	C8	0.050200	0.343600	0.642200
C91	C9	0.979200	0.223200	0.718300
C101	C10	0.974500	0.265800	0.732600
C111	C11	0.941800	0.268500	0.762000
C121	C12	0.914800	0.190100	0.763200
C131	C13	0.946700	0.184800	0.735500
C141	C14	0.057600	0.129700	0.633400
C151	C15	0.052400	0.087900	0.649400
C161	C16	0.071100	0.044900	0.634600
C171	C17	0.099200	0.084100	0.590500
C181	C18	0.078900	0.128200	0.602700
C191	C19	0.932100	0.402500	0.459500
C201	C20	0.929100	0.365500	0.414600
C211	C21	0.794100	0.399400	0.432400
C221	C22	0.984700	0.418100	0.486200
C231	C23	0.935900	0.439900	0.509200
C241	C24	0.986400	0.451100	0.535000
C251	C25	0.129400	0.422700	0.515400
C261	C26	0.083400	0.409900	0.489700
C271	C27	0.982400	0.342100	0.390600
C281	C28	0.081400	0.341300	0.389400
C291	C29	0.129400	0.320800	0.367400
C301	C30	0.988200	0.296500	0.346400
C311	C31	0.937100	0.319100	0.367900
C321	C32	0.691900	0.413100	0.429000
C331	C33	0.644600	0.407300	0.402300
C341	C34	0.550800	0.422400	0.399100
C351	C35	0.547500	0.452400	0.447300
C361	C36	0.644400	0.435100	0.451700
C371	C37	0.955200	0.245200	0.145000
C381	C38	0.992100	0.281700	0.188100
C391	C39	0.956700	0.323900	0.148000
C401	C40	0.938900	0.199500	0.128000
C411	C41	0.913700	0.200100	0.099500
C421	C42	0.893300	0.155500	0.085500
C431	C43	0.927400	0.114900	0.126100
C441	C44	0.949800	0.156400	0.142200
C451	C45	0.020800	0.276800	0.218300
C461	C46	0.025500	0.234200	0.232600
C471	C47	0.058200	0.231500	0.262000
C481	C48	0.085200	0.309900	0.263200
C491	C49	0.053300	0.315200	0.235500
C501	C50	0.942400	0.370300	0.133400
C511	C51	0.947600	0.412100	0.149400
C521	C52	0.928900	0.455100	0.134600
C531	C53	0.900800	0.415900	0.090500
C541	C54	0.921100	0.371800	0.102700
C551	C55	0.067900	0.097500	0.959500
C561	C56	0.070900	0.134500	0.914600
C571	C57	0.205900	0.100600	0.932400
C581	C58	0.015300	0.081900	0.986200
C591	C59	0.064100	0.060100	0.009200
C601	C60	0.013600	0.048900	0.035000
C611	C61	0.870600	0.077300	0.015400
C621	C62	0.916600	0.090100	0.989700
C631	C63	0.017600	0.157900	0.890600
C641	C64	0.918600	0.158700	0.889400
C651	C65	0.870600	0.179200	0.867400
C661	C66	0.011800	0.203500	0.846400
C671	C67	0.062900	0.180900	0.867900
C681	C68	0.308100	0.086900	0.929000
C691	C69	0.355400	0.092700	0.902300
C701	C70	0.449200	0.077600	0.899100
C711	C71	0.452500	0.047600	0.947300
C721	C72	0.355600	0.064900	0.951700
C731	C73	0.544800	0.745200	0.855000
C741	C74	0.507900	0.781700	0.811900
C751	C75	0.543300	0.823900	0.852000
C761	C76	0.561100	0.699500	0.872000
C771	C77	0.586300	0.700100	0.900500
C781	C78	0.606700	0.655500	0.914500
C791	C79	0.572600	0.614900	0.873900
C801	C80	0.550200	0.656400	0.857800
C811	C81	0.479200	0.776800	0.781700
C821	C82	0.474500	0.734200	0.767400
C831	C83	0.441800	0.731500	0.738000
C841	C84	0.414800	0.809900	0.736800
C851	C85	0.446700	0.815200	0.764500
C861	C86	0.557600	0.870300	0.866600
C871	C87	0.552400	0.912100	0.850600
C881	C88	0.571100	0.955100	0.865400
C891	C89	0.599200	0.915900	0.909500
C901	C90	0.578900	0.871800	0.897300
C911	C91	0.432100	0.597500	0.040500
C921	C92	0.429100	0.634500	0.085400
C931	C93	0.294100	0.600600	0.067600
C941	C94	0.484700	0.581900	0.013800
C951	C95	0.435900	0.560100	0.990800
C961	C96	0.486400	0.548900	0.965000
C971	C97	0.629400	0.577300	0.984600
C981	C98	0.583400	0.590100	0.010300
C991	C99	0.482400	0.657900	0.109400
C1001	C100	0.581400	0.658700	0.110600
C1011	C101	0.629400	0.679200	0.132600
C1021	C102	0.488200	0.703500	0.153600
C1031	C103	0.437100	0.680900	0.132100
C1041	C104	0.191900	0.586900	0.071000
C1051	C105	0.144600	0.592700	0.097700
C1061	C106	0.050800	0.577600	0.100900
C1071	C107	0.047500	0.547600	0.052700
C1081	C108	0.144400	0.564900	0.048300
C1091	C109	0.455200	0.754800	0.355000
C1101	C110	0.492100	0.718300	0.311900
C1111	C111	0.456700	0.676100	0.352000
C1121	C112	0.438900	0.800500	0.372000
C1131	C113	0.413700	0.799900	0.400500
C1141	C114	0.393300	0.844500	0.414500
C1151	C115	0.427400	0.885100	0.373900
C1161	C116	0.449800	0.843600	0.357800
C1171	C117	0.520800	0.723200	0.281700
C1181	C118	0.525500	0.765800	0.267400
C1191	C119	0.558200	0.768500	0.238000
C1201	C120	0.585200	0.690100	0.236800
C1211	C121	0.553300	0.684800	0.264500
C1221	C122	0.442400	0.629700	0.366600
C1231	C123	0.447600	0.587900	0.350600
C1241	C124	0.428900	0.544900	0.365400
C1251	C125	0.400800	0.584100	0.409500
C1261	C126	0.421100	0.628200	0.397300
C1271	C127	0.567900	0.902500	0.540500
C1281	C128	0.570900	0.865500	0.585400
C1291	C129	0.705900	0.899400	0.567600
C1301	C130	0.515300	0.918100	0.513800
C1311	C131	0.564100	0.939900	0.490800
C1321	C132	0.513600	0.951100	0.465000
C1331	C133	0.370600	0.922700	0.484600
C1341	C134	0.416600	0.909900	0.510300
C1351	C135	0.517600	0.842100	0.609400
C1361	C136	0.418600	0.841300	0.610600
C1371	C137	0.370600	0.820800	0.632600
C1381	C138	0.511800	0.796500	0.653600
C1391	C139	0.562900	0.819100	0.632100
C1401	C140	0.808100	0.913100	0.571000
C1411	C141	0.855400	0.907300	0.597700
C1421	C142	0.949200	0.922400	0.600900
C1431	C143	0.952500	0.952400	0.552700
C1441	C144	0.855600	0.935100	0.548300
I11	I1	0.325870	0.438820	0.573670
I21	I2	0.053620	0.512240	0.606570
I31	I3	0.673060	0.195070	0.809100
I41	I4	0.832290	0.325660	0.830480
I51	I5	0.203270	0.994050	0.535960
I61	I6	0.211860	0.930420	0.626420
I71	I7	0.674130	0.061180	0.073670
I81	I8	0.946380	0.987760	0.106570
I91	I9	0.326940	0.304930	0.309100
I101	I10	0.167710	0.174340	0.330480
I111	I11	0.796730	0.505950	0.035960
I121	I12	0.788140	0.569580	0.126420
I131	I13	0.825870	0.561180	0.926330
I141	I14	0.553620	0.487760	0.893430
I151	I15	0.173060	0.804930	0.690900
I161	I16	0.332290	0.674340	0.669520
I171	I17	0.703270	0.005950	0.964040
I181	I18	0.711860	0.069580	0.873580
I191	I19	0.174130	0.938820	0.426330
I201	I20	0.446380	0.012240	0.393430
I211	I21	0.826940	0.695070	0.190900
I221	I22	0.667710	0.825660	0.169520
I231	I23	0.296730	0.494050	0.464040
I241	I24	0.288140	0.430420	0.373580
N11	N1	0.021300	0.260000	0.673580
N21	N2	0.017900	0.176900	0.676400
N31	N3	0.059100	0.215200	0.630820
N41	N4	0.100600	0.384300	0.598100
N51	N5	0.910600	0.232100	0.776140
N61	N6	0.094000	0.041300	0.605800
N71	N7	0.980200	0.379200	0.438800
N81	N8	0.834000	0.373100	0.411200
N91	N9	0.837200	0.413600	0.457800
N101	N10	0.083100	0.441100	0.538100
N111	N11	0.084200	0.299000	0.345600
N121	N12	0.504000	0.446300	0.420400
N131	N13	0.978700	0.240000	0.173580
N141	N14	0.982100	0.323100	0.176400
N151	N15	0.940900	0.284800	0.130820
N161	N16	0.899400	0.115700	0.098100
N171	N17	0.089400	0.267900	0.276140
N181	N18	0.906000	0.458700	0.105800
N191	N19	0.019800	0.120800	0.938800
N201	N20	0.166000	0.126900	0.911200
N211	N21	0.162800	0.086400	0.957800
N221	N22	0.916900	0.058900	0.038100
N231	N23	0.915800	0.201000	0.845600
N241	N24	0.496000	0.053700	0.920400
N251	N25	0.521300	0.740000	0.826420
N261	N26	0.517900	0.823100	0.823600
N271	N27	0.559100	0.784800	0.869180
N281	N28	0.600600	0.615700	0.901900
N291	N29	0.410600	0.767900	0.723860
N301	N30	0.594000	0.958700	0.894200
N311	N31	0.480200	0.620800	0.061200
N321	N32	0.334000	0.626900	0.088800
N331	N33	0.337200	0.586400	0.042200
N341	N34	0.583100	0.558900	0.961900
N351	N35	0.584200	0.701000	0.154400
N361	N36	0.004000	0.553700	0.079600
N371	N37	0.478700	0.760000	0.326420
N381	N38	0.482100	0.676900	0.323600
N391	N39	0.440900	0.715200	0.369180
N401	N40	0.399400	0.884300	0.401900
N411	N41	0.589400	0.732100	0.223860
N421	N42	0.406000	0.541300	0.394200
N431	N43	0.519800	0.879200	0.561200
N441	N44	0.666000	0.873100	0.588800
N451	N45	0.662800	0.913600	0.542200
N461	N46	0.416900	0.941100	0.461900
N471	N47	0.415800	0.799000	0.654400
N481	N48	0.996000	0.946300	0.579600
Zn131	Zn13	0.855340	0.552580	0.421120
Zn141	Zn14	0.165840	0.761400	0.184440
Zn151	Zn15	0.872580	0.022050	0.413370
Zn161	Zn16	0.144660	0.947420	0.921120
Zn171	Zn17	0.834160	0.738600	0.684440
Zn181	Zn18	0.127420	0.477950	0.913370
Zn191	Zn19	0.355340	0.447420	0.078880
Zn201	Zn20	0.665840	0.238600	0.315560
Zn211	Zn21	0.372580	0.977950	0.086630
Zn221	Zn22	0.644660	0.052580	0.578880
Zn231	Zn23	0.334160	0.261400	0.815560
Zn241	Zn24	0.627420	0.522050	0.586630
H971	H97	0.909600	0.728500	0.411000
H981	H98	0.874200	0.655900	0.434200
H991	H99	0.932500	0.585700	0.364400
H1001	H100	0.971300	0.654800	0.338400
H1011	H101	0.007000	0.706600	0.277200
H1021	H102	0.057200	0.702200	0.228400
H1031	H103	0.105200	0.836600	0.226400
H1041	H104	0.052600	0.845500	0.272800
H1051	H105	0.963000	0.911800	0.330500
H1061	H106	0.932700	0.982900	0.354400
H1071	H107	0.882400	0.916900	0.429300
H1081	H108	0.920800	0.844400	0.408800
H1091	H109	0.129600	0.553100	0.492400
H1101	H110	0.046300	0.534300	0.449500
H1111	H111	0.804100	0.581900	0.483100
H1121	H112	0.881600	0.604200	0.525600
H1131	H113	0.883800	0.644300	0.595400
H1141	H114	0.803400	0.678300	0.632600
H1151	H115	0.044400	0.720900	0.668000
H1161	H116	0.130100	0.681100	0.632800
H1171	H117	0.323600	0.606900	0.613500
H1181	H118	0.481400	0.584200	0.618500
H1191	H119	0.485200	0.532400	0.537400
H1201	H120	0.325400	0.561200	0.530000
H1211	H121	0.090400	0.771500	0.911000
H1221	H122	0.125800	0.844100	0.934200
H1231	H123	0.067500	0.914300	0.864400
H1241	H124	0.028700	0.845200	0.838400
H1251	H125	0.993000	0.793400	0.777200
H1261	H126	0.942800	0.797800	0.728400
H1271	H127	0.894800	0.663400	0.726400
H1281	H128	0.947400	0.654500	0.772800
H1291	H129	0.037000	0.588200	0.830500
H1301	H130	0.067300	0.517100	0.854400
H1311	H131	0.117600	0.583100	0.929300
H1321	H132	0.079200	0.655600	0.908800
H1331	H133	0.870400	0.946900	0.992400
H1341	H134	0.953700	0.965700	0.949500
H1351	H135	0.195900	0.918100	0.983100
H1361	H136	0.118400	0.895800	0.025600
H1371	H137	0.116200	0.855700	0.095400
H1381	H138	0.196600	0.821700	0.132600
H1391	H139	0.955600	0.779100	0.168000
H1401	H140	0.869900	0.818900	0.132800
H1411	H141	0.676400	0.893100	0.113500
H1421	H142	0.518600	0.915800	0.118500
H1431	H143	0.514800	0.967600	0.037400
H1441	H144	0.674600	0.938800	0.030000
H1451	H145	0.409600	0.271500	0.089000
H1461	H146	0.374200	0.344100	0.065800
H1471	H147	0.432500	0.414300	0.135600
H1481	H148	0.471300	0.345200	0.161600
H1491	H149	0.507000	0.293400	0.222800
H1501	H150	0.557200	0.297800	0.271600
H1511	H151	0.605200	0.163400	0.273600
H1521	H152	0.552600	0.154500	0.227200
H1531	H153	0.463000	0.088200	0.169500
H1541	H154	0.432700	0.017100	0.145600
H1551	H155	0.382400	0.083100	0.070700
H1561	H156	0.420800	0.155600	0.091200
H1571	H157	0.629600	0.446900	0.007600
H1581	H158	0.546300	0.465700	0.050500
H1591	H159	0.304100	0.418100	0.016900
H1601	H160	0.381600	0.395800	0.974400
H1611	H161	0.383800	0.355700	0.904600
H1621	H162	0.303400	0.321700	0.867400
H1631	H163	0.544400	0.279100	0.832000
H1641	H164	0.630100	0.318900	0.867200
H1651	H165	0.823600	0.393100	0.886500
H1661	H166	0.981400	0.415800	0.881500
H1671	H167	0.985200	0.467600	0.962600
H1681	H168	0.825400	0.438800	0.970000
H1691	H169	0.590400	0.228500	0.589000
H1701	H170	0.625800	0.155900	0.565800
H1711	H171	0.567500	0.085700	0.635600
H1721	H172	0.528700	0.154800	0.661600
H1731	H173	0.493000	0.206600	0.722800
H1741	H174	0.442800	0.202200	0.771600
H1751	H175	0.394800	0.336600	0.773600
H1761	H176	0.447400	0.345500	0.727200
H1771	H177	0.537000	0.411800	0.669500
H1781	H178	0.567300	0.482900	0.645600
H1791	H179	0.617600	0.416900	0.570700
H1801	H180	0.579200	0.344400	0.591200
H1811	H181	0.370400	0.053100	0.507600
H1821	H182	0.453700	0.034300	0.550500
H1831	H183	0.695900	0.081900	0.516900
H1841	H184	0.618400	0.104200	0.474400
H1851	H185	0.616200	0.144300	0.404600
H1861	H186	0.696600	0.178300	0.367400
H1871	H187	0.455600	0.220900	0.332000
H1881	H188	0.369900	0.181100	0.367200
H1891	H189	0.176400	0.106900	0.386500
H1901	H190	0.018600	0.084200	0.381500
H1911	H191	0.014800	0.032400	0.462600
H1921	H192	0.174600	0.061200	0.470000
C1451	C145	0.955200	0.745200	0.355000
C1461	C146	0.992100	0.781700	0.311900
C1471	C147	0.956700	0.823900	0.352000
C1481	C148	0.938900	0.699500	0.372000
C1491	C149	0.913700	0.700100	0.400500
C1501	C150	0.893300	0.655500	0.414500
C1511	C151	0.927400	0.614900	0.373900
C1521	C152	0.949800	0.656400	0.357800
C1531	C153	0.020800	0.776800	0.281700
C1541	C154	0.025500	0.734200	0.267400
C1551	C155	0.058200	0.731500	0.238000
C1561	C156	0.085200	0.809900	0.236800
C1571	C157	0.053300	0.815200	0.264500
C1581	C158	0.942400	0.870300	0.366600
C1591	C159	0.947600	0.912100	0.350600
C1601	C160	0.928900	0.955100	0.365400
C1611	C161	0.900800	0.915900	0.409500
C1621	C162	0.921100	0.871800	0.397300
C1631	C163	0.067900	0.597500	0.540500
C1641	C164	0.070900	0.634500	0.585400
C1651	C165	0.205900	0.600600	0.567600
C1661	C166	0.015300	0.581900	0.513800
C1671	C167	0.064100	0.560100	0.490800
C1681	C168	0.013600	0.548900	0.465000
C1691	C169	0.870600	0.577300	0.484600
C1701	C170	0.916600	0.590100	0.510300
C1711	C171	0.017600	0.657900	0.609400
C1721	C172	0.918600	0.658700	0.610600
C1731	C173	0.870600	0.679200	0.632600
C1741	C174	0.011800	0.703500	0.653600
C1751	C175	0.062900	0.680900	0.632100
C1761	C176	0.308100	0.586900	0.571000
C1771	C177	0.355400	0.592700	0.597700
C1781	C178	0.449200	0.577600	0.600900
C1791	C179	0.452500	0.547600	0.552700
C1801	C180	0.355600	0.564900	0.548300
C1811	C181	0.044800	0.754800	0.855000
C1821	C182	0.007900	0.718300	0.811900
C1831	C183	0.043300	0.676100	0.852000
C1841	C184	0.061100	0.800500	0.872000
C1851	C185	0.086300	0.799900	0.900500
C1861	C186	0.106700	0.844500	0.914500
C1871	C187	0.072600	0.885100	0.873900
C1881	C188	0.050200	0.843600	0.857800
C1891	C189	0.979200	0.723200	0.781700
C1901	C190	0.974500	0.765800	0.767400
C1911	C191	0.941800	0.768500	0.738000
C1921	C192	0.914800	0.690100	0.736800
C1931	C193	0.946700	0.684800	0.764500
C1941	C194	0.057600	0.629700	0.866600
C1951	C195	0.052400	0.587900	0.850600
C1961	C196	0.071100	0.544900	0.865400
C1971	C197	0.099200	0.584100	0.909500
C1981	C198	0.078900	0.628200	0.897300
C1991	C199	0.932100	0.902500	0.040500
C2001	C200	0.929100	0.865500	0.085400
C2011	C201	0.794100	0.899400	0.067600
C2021	C202	0.984700	0.918100	0.013800
C2031	C203	0.935900	0.939900	0.990800
C2041	C204	0.986400	0.951100	0.965000
C2051	C205	0.129400	0.922700	0.984600
C2061	C206	0.083400	0.909900	0.010300
C2071	C207	0.982400	0.842100	0.109400
C2081	C208	0.081400	0.841300	0.110600
C2091	C209	0.129400	0.820800	0.132600
C2101	C210	0.988200	0.796500	0.153600
C2111	C211	0.937100	0.819100	0.132100
C2121	C212	0.691900	0.913100	0.071000
C2131	C213	0.644600	0.907300	0.097700
C2141	C214	0.550800	0.922400	0.100900
C2151	C215	0.547500	0.952400	0.052700
C2161	C216	0.644400	0.935100	0.048300
C2171	C217	0.455200	0.254800	0.145000
C2181	C218	0.492100	0.218300	0.188100
C2191	C219	0.456700	0.176100	0.148000
C2201	C220	0.438900	0.300500	0.128000
C2211	C221	0.413700	0.299900	0.099500
C2221	C222	0.393300	0.344500	0.085500
C2231	C223	0.427400	0.385100	0.126100
C2241	C224	0.449800	0.343600	0.142200
C2251	C225	0.520800	0.223200	0.218300
C2261	C226	0.525500	0.265800	0.232600
C2271	C227	0.558200	0.268500	0.262000
C2281	C228	0.585200	0.190100	0.263200
C2291	C229	0.553300	0.184800	0.235500
C2301	C230	0.442400	0.129700	0.133400
C2311	C231	0.447600	0.087900	0.149400
C2321	C232	0.428900	0.044900	0.134600
C2331	C233	0.400800	0.084100	0.090500
C2341	C234	0.421100	0.128200	0.102700
C2351	C235	0.567900	0.402500	0.959500
C2361	C236	0.570900	0.365500	0.914600
C2371	C237	0.705900	0.399400	0.932400
C2381	C238	0.515300	0.418100	0.986200
C2391	C239	0.564100	0.439900	0.009200
C2401	C240	0.513600	0.451100	0.035000
C2411	C241	0.370600	0.422700	0.015400
C2421	C242	0.416600	0.409900	0.989700
C2431	C243	0.517600	0.342100	0.890600
C2441	C244	0.418600	0.341300	0.889400
C2451	C245	0.370600	0.320800	0.867400
C2461	C246	0.511800	0.296500	0.846400
C2471	C247	0.562900	0.319100	0.867900
C2481	C248	0.808100	0.413100	0.929000
C2491	C249	0.855400	0.407300	0.902300
C2501	C250	0.949200	0.422400	0.899100
C2511	C251	0.952500	0.452400	0.947300
C2521	C252	0.855600	0.435100	0.951700
C2531	C253	0.544800	0.245200	0.645000
C2541	C254	0.507900	0.281700	0.688100
C2551	C255	0.543300	0.323900	0.648000
C2561	C256	0.561100	0.199500	0.628000
C2571	C257	0.586300	0.200100	0.599500
C2581	C258	0.606700	0.155500	0.585500
C2591	C259	0.572600	0.114900	0.626100
C2601	C260	0.550200	0.156400	0.642200
C2611	C261	0.479200	0.276800	0.718300
C2621	C262	0.474500	0.234200	0.732600
C2631	C263	0.441800	0.231500	0.762000
C2641	C264	0.414800	0.309900	0.763200
C2651	C265	0.446700	0.315200	0.735500
C2661	C266	0.557600	0.370300	0.633400
C2671	C267	0.552400	0.412100	0.649400
C2681	C268	0.571100	0.455100	0.634600
C2691	C269	0.599200	0.415900	0.590500
C2701	C270	0.578900	0.371800	0.602700
C2711	C271	0.432100	0.097500	0.459500
C2721	C272	0.429100	0.134500	0.414600
C2731	C273	0.294100	0.100600	0.432400
C2741	C274	0.484700	0.081900	0.486200
C2751	C275	0.435900	0.060100	0.509200
C2761	C276	0.486400	0.048900	0.535000
C2771	C277	0.629400	0.077300	0.515400
C2781	C278	0.583400	0.090100	0.489700
C2791	C279	0.482400	0.157900	0.390600
C2801	C280	0.581400	0.158700	0.389400
C2811	C281	0.629400	0.179200	0.367400
C2821	C282	0.488200	0.203500	0.346400
C2831	C283	0.437100	0.180900	0.367900
C2841	C284	0.191900	0.086900	0.429000
C2851	C285	0.144600	0.092700	0.402300
C2861	C286	0.050800	0.077600	0.399100
C2871	C287	0.047500	0.047600	0.447300
C2881	C288	0.144400	0.064900	0.451700
I251	I25	0.674130	0.561180	0.426330
I261	I26	0.946380	0.487760	0.393430
I271	I27	0.326940	0.804930	0.190900
I281	I28	0.167710	0.674340	0.169520
I291	I29	0.796730	0.005950	0.464040
I301	I30	0.788140	0.069580	0.373580
I311	I31	0.325870	0.938820	0.926330
I321	I32	0.053620	0.012240	0.893430
I331	I33	0.673060	0.695070	0.690900
I341	I34	0.832290	0.825660	0.669520
I351	I35	0.203270	0.494050	0.964040
I361	I36	0.211860	0.430420	0.873580
I371	I37	0.174130	0.438820	0.073670
I381	I38	0.446380	0.512240	0.106570
I391	I39	0.826940	0.195070	0.309100
I401	I40	0.667710	0.325660	0.330480
I411	I41	0.296730	0.994050	0.035960
I421	I42	0.288140	0.930420	0.126420
I431	I43	0.825870	0.061180	0.573670
I441	I44	0.553620	0.987760	0.606570
I451	I45	0.173060	0.304930	0.809100
I461	I46	0.332290	0.174340	0.830480
I471	I47	0.703270	0.505950	0.535960
I481	I48	0.711860	0.569580	0.626420
N491	N49	0.978700	0.740000	0.326420
N501	N50	0.982100	0.823100	0.323600
N511	N51	0.940900	0.784800	0.369180
N521	N52	0.899400	0.615700	0.401900
N531	N53	0.089400	0.767900	0.223860
N541	N54	0.906000	0.958700	0.394200
N551	N55	0.019800	0.620800	0.561200
N561	N56	0.166000	0.626900	0.588800
N571	N57	0.162800	0.586400	0.542200
N581	N58	0.916900	0.558900	0.461900
N591	N59	0.915800	0.701000	0.654400
N601	N60	0.496000	0.553700	0.579600
N611	N61	0.021300	0.760000	0.826420
N621	N62	0.017900	0.676900	0.823600
N631	N63	0.059100	0.715200	0.869180
N641	N64	0.100600	0.884300	0.901900
N651	N65	0.910600	0.732100	0.723860
N661	N66	0.094000	0.541300	0.894200
N671	N67	0.980200	0.879200	0.061200
N681	N68	0.834000	0.873100	0.088800
N691	N69	0.837200	0.913600	0.042200
N701	N70	0.083100	0.941100	0.961900
N711	N71	0.084200	0.799000	0.154400
N721	N72	0.504000	0.946300	0.079600
N731	N73	0.478700	0.260000	0.173580
N741	N74	0.482100	0.176900	0.176400
N751	N75	0.440900	0.215200	0.130820
N761	N76	0.399400	0.384300	0.098100
N771	N77	0.589400	0.232100	0.276140
N781	N78	0.406000	0.041300	0.105800
N791	N79	0.519800	0.379200	0.938800
N801	N80	0.666000	0.373100	0.911200
N811	N81	0.662800	0.413600	0.957800
N821	N82	0.416900	0.441100	0.038100
N831	N83	0.415800	0.299000	0.845600
N841	N84	0.996000	0.446300	0.920400
N851	N85	0.521300	0.240000	0.673580
N861	N86	0.517900	0.323100	0.676400
N871	N87	0.559100	0.284800	0.630820
N881	N88	0.600600	0.115700	0.598100
N891	N89	0.410600	0.267900	0.776140
N901	N90	0.594000	0.458700	0.605800
N911	N91	0.480200	0.120800	0.438800
N921	N92	0.334000	0.126900	0.411200
N931	N93	0.337200	0.086400	0.457800
N941	N94	0.583100	0.058900	0.538100
N951	N95	0.584200	0.201000	0.345600
N961	N96	0.004000	0.053700	0.420400
