data_SOHNAF_clean_PM
_symmetry_space_group_name_H-M	'P1'
_cell_length_a	28.857000
_cell_length_b	13.706300
_cell_length_c	45.188000
_cell_angle_alpha	90.000000
_cell_angle_beta	90.000000
_cell_angle_gamma	90.000000
_symmetry_Int_Tables_number 1

loop_
_symmetry_equiv_pos_as_xyz
'x,y,z'

loop_
_atom_site_label
_atom_site_type_symbol
_atom_site_fract_x
_atom_site_fract_y
_atom_site_fract_z
Zn11	Zn1	0.022800	0.147220	0.914130
Zn21	Zn2	0.563580	0.158550	0.928740
Zn31	Zn3	0.762230	0.855940	0.689450
I11	I1	0.008380	0.218000	0.965700
I21	I2	0.068910	0.234830	0.874590
I31	I3	0.574340	0.341730	0.939700
I41	I4	0.496850	0.089540	0.899630
I51	I5	0.801260	0.690230	0.694420
I61	I6	0.678360	0.862400	0.672840
C11	C1	0.920600	0.113700	0.912220
H11	H1	0.923200	0.123800	0.933000
C21	C2	0.877000	0.100200	0.899960
H21	H2	0.850200	0.100600	0.912200
C31	C3	0.955200	0.096700	0.866970
H31	H3	0.982500	0.094700	0.855300
C41	C4	0.913000	0.082400	0.853230
H41	H4	0.911600	0.070200	0.832600
C51	C5	0.872900	0.086100	0.869950
C61	C6	0.826700	0.073500	0.856060
C71	C7	0.810200	0.924600	0.742850
H51	H5	0.835700	0.894000	0.733300
C81	C8	0.816400	0.962800	0.770910
H61	H6	0.845900	0.960100	0.780200
C91	C9	0.734200	0.971200	0.742140
H71	H7	0.705400	0.975500	0.732000
C101	C10	0.737600	0.009000	0.770430
H81	H8	0.711400	0.037800	0.779700
C111	C11	0.779600	0.004400	0.784980
C121	C12	0.783500	0.038300	0.816130
C131	C13	0.623300	0.096200	0.878550
H91	H9	0.594200	0.088800	0.869000
C141	C14	0.663000	0.081100	0.862380
H101	H10	0.661200	0.064800	0.842000
C151	C15	0.665100	0.128600	0.920470
H111	H11	0.665800	0.145700	0.940800
C161	C16	0.706500	0.113200	0.906260
H121	H12	0.735000	0.118200	0.916600
C171	C17	0.705700	0.090100	0.876150
C181	C18	0.749200	0.076100	0.859260
C191	C19	0.093300	0.375500	0.009520
H131	H13	0.103500	0.309800	0.011000
C201	C20	0.103400	0.426100	0.984290
H141	H14	0.119700	0.395400	0.968600
C211	C21	0.054500	0.505100	0.028970
H151	H15	0.036300	0.532100	0.044500
C221	C22	0.063600	0.561500	0.004570
H161	H16	0.052200	0.626400	0.003400
C231	C23	0.089600	0.522400	0.981730
C241	C24	0.101600	0.580500	0.955150
C251	C25	0.042400	0.960300	0.943900
H171	H17	0.022600	0.988100	0.958400
C261	C26	0.058400	0.866700	0.948370
H181	H18	0.050000	0.831300	0.965600
C271	C27	0.081000	0.973600	0.900540
H191	H19	0.088700	0.010700	0.883500
C281	C28	0.098900	0.880500	0.903410
H201	H20	0.119400	0.855300	0.888900
C291	C29	0.087000	0.825400	0.927290
C301	C30	0.101600	0.722200	0.930170
C311	C31	0.198900	0.533400	0.840400
H211	H21	0.214100	0.567700	0.824900
C321	C32	0.177500	0.587200	0.862640
H221	H22	0.177600	0.656500	0.862200
C331	C33	0.177100	0.390100	0.861050
H231	H23	0.175700	0.320800	0.860300
C341	C34	0.155700	0.437000	0.884580
H241	H24	0.141000	0.400800	0.899900
C351	C35	0.156300	0.537400	0.885150
C361	C36	0.134000	0.589100	0.909890
N11	N1	0.959300	0.113100	0.895720
N21	N2	0.769900	0.929100	0.728730
N31	N3	0.624000	0.120900	0.907330
N41	N4	0.825900	0.048500	0.827370
N51	N5	0.744270	0.052600	0.830640
N61	N6	0.789300	0.086500	0.872950
N71	N7	0.199100	0.435900	0.839700
N81	N8	0.070100	0.413700	0.031930
N91	N9	0.053330	0.012900	0.920670
N101	N10	0.123000	0.533900	0.933420
N111	N11	0.090400	0.674700	0.954890
N121	N12	0.124670	0.683900	0.907220
Zn41	Zn4	0.477200	0.852780	0.414130
Zn51	Zn5	0.936420	0.841450	0.428740
Zn61	Zn6	0.737770	0.144060	0.189450
I71	I7	0.491620	0.782000	0.465700
I81	I8	0.431090	0.765170	0.374590
I91	I9	0.925660	0.658270	0.439700
I101	I10	0.003150	0.910460	0.399630
I111	I11	0.698740	0.309770	0.194420
I121	I12	0.821640	0.137600	0.172840
C371	C37	0.579400	0.886300	0.412220
H251	H25	0.576800	0.876200	0.433000
C381	C38	0.623000	0.899800	0.399960
H261	H26	0.649800	0.899400	0.412200
C391	C39	0.544800	0.903300	0.366970
H271	H27	0.517500	0.905300	0.355300
C401	C40	0.587000	0.917600	0.353230
H281	H28	0.588400	0.929800	0.332600
C411	C41	0.627100	0.913900	0.369950
C421	C42	0.673300	0.926500	0.356060
C431	C43	0.689800	0.075400	0.242850
H291	H29	0.664300	0.106000	0.233300
C441	C44	0.683600	0.037200	0.270910
H301	H30	0.654100	0.039900	0.280200
C451	C45	0.765800	0.028800	0.242140
H311	H31	0.794600	0.024500	0.232000
C461	C46	0.762400	0.991000	0.270430
H321	H32	0.788600	0.962200	0.279700
C471	C47	0.720400	0.995600	0.284980
C481	C48	0.716500	0.961700	0.316130
C491	C49	0.876700	0.903800	0.378550
H331	H33	0.905800	0.911200	0.369000
C501	C50	0.837000	0.918900	0.362380
H341	H34	0.838800	0.935200	0.342000
C511	C51	0.834900	0.871400	0.420470
H351	H35	0.834200	0.854300	0.440800
C521	C52	0.793500	0.886800	0.406260
H361	H36	0.765000	0.881800	0.416600
C531	C53	0.794300	0.909900	0.376150
C541	C54	0.750800	0.923900	0.359260
C551	C55	0.406700	0.624500	0.509520
H371	H37	0.396500	0.690200	0.511000
C561	C56	0.396600	0.573900	0.484290
H381	H38	0.380300	0.604600	0.468600
C571	C57	0.445500	0.494900	0.528970
H391	H39	0.463700	0.467900	0.544500
C581	C58	0.436400	0.438500	0.504570
H401	H40	0.447800	0.373600	0.503400
C591	C59	0.410400	0.477600	0.481730
C601	C60	0.398400	0.419500	0.455150
C611	C61	0.457600	0.039700	0.443900
H411	H41	0.477400	0.011900	0.458400
C621	C62	0.441600	0.133300	0.448370
H421	H42	0.450000	0.168700	0.465600
C631	C63	0.419000	0.026400	0.400540
H431	H43	0.411300	0.989300	0.383500
C641	C64	0.401100	0.119500	0.403410
H441	H44	0.380600	0.144700	0.388900
C651	C65	0.413000	0.174600	0.427290
C661	C66	0.398400	0.277800	0.430170
C671	C67	0.301100	0.466600	0.340400
H451	H45	0.285900	0.432300	0.324900
C681	C68	0.322500	0.412800	0.362640
H461	H46	0.322400	0.343500	0.362200
C691	C69	0.322900	0.609900	0.361050
H471	H47	0.324300	0.679200	0.360300
C701	C70	0.344300	0.563000	0.384580
H481	H48	0.359000	0.599200	0.399900
C711	C71	0.343700	0.462600	0.385150
C721	C72	0.366000	0.410900	0.409890
N131	N13	0.540700	0.886900	0.395720
N141	N14	0.730100	0.070900	0.228730
N151	N15	0.876000	0.879100	0.407330
N161	N16	0.674100	0.951500	0.327370
N171	N17	0.755730	0.947400	0.330640
N181	N18	0.710700	0.913500	0.372950
N191	N19	0.300900	0.564100	0.339700
N201	N20	0.429900	0.586300	0.531930
N211	N21	0.446670	0.987100	0.420670
N221	N22	0.377000	0.466100	0.433420
N231	N23	0.409600	0.325300	0.454890
N241	N24	0.375330	0.316100	0.407220
Zn71	Zn7	0.977200	0.647220	0.585870
Zn81	Zn8	0.436420	0.658550	0.571260
Zn91	Zn9	0.237770	0.355940	0.810550
I131	I13	0.991620	0.718000	0.534300
I141	I14	0.931090	0.734830	0.625410
I151	I15	0.425660	0.841730	0.560300
I161	I16	0.503150	0.589540	0.600370
I171	I17	0.198740	0.190230	0.805580
I181	I18	0.321640	0.362400	0.827160
C731	C73	0.079400	0.613700	0.587780
H491	H49	0.076800	0.623800	0.567000
C741	C74	0.123000	0.600200	0.600040
H501	H50	0.149800	0.600600	0.587800
C751	C75	0.044800	0.596700	0.633030
H511	H51	0.017500	0.594700	0.644700
C761	C76	0.087000	0.582400	0.646770
H521	H52	0.088400	0.570200	0.667400
C771	C77	0.127100	0.586100	0.630050
C781	C78	0.173300	0.573500	0.643940
C791	C79	0.189800	0.424600	0.757150
H531	H53	0.164300	0.394000	0.766700
C801	C80	0.183600	0.462800	0.729090
H541	H54	0.154100	0.460100	0.719800
C811	C81	0.265800	0.471200	0.757860
H551	H55	0.294600	0.475500	0.768000
C821	C82	0.262400	0.509000	0.729570
H561	H56	0.288600	0.537800	0.720300
C831	C83	0.220400	0.504400	0.715020
C841	C84	0.216500	0.538300	0.683870
C851	C85	0.376700	0.596200	0.621450
H571	H57	0.405800	0.588800	0.631000
C861	C86	0.337000	0.581100	0.637620
H581	H58	0.338800	0.564800	0.658000
C871	C87	0.334900	0.628600	0.579530
H591	H59	0.334200	0.645700	0.559200
C881	C88	0.293500	0.613200	0.593740
H601	H60	0.265000	0.618200	0.583400
C891	C89	0.294300	0.590100	0.623850
C901	C90	0.250800	0.576100	0.640740
C911	C91	0.906700	0.875500	0.490480
H611	H61	0.896500	0.809800	0.489000
C921	C92	0.896600	0.926100	0.515710
H621	H62	0.880300	0.895400	0.531400
C931	C93	0.945500	0.005100	0.471030
H631	H63	0.963700	0.032100	0.455500
C941	C94	0.936400	0.061500	0.495430
H641	H64	0.947800	0.126400	0.496600
C951	C95	0.910400	0.022400	0.518270
C961	C96	0.898400	0.080500	0.544850
C971	C97	0.957600	0.460300	0.556100
H651	H65	0.977400	0.488100	0.541600
C981	C98	0.941600	0.366700	0.551630
H661	H66	0.950000	0.331300	0.534400
C991	C99	0.919000	0.473600	0.599460
H671	H67	0.911300	0.510700	0.616500
C1001	C100	0.901100	0.380500	0.596590
H681	H68	0.880600	0.355300	0.611100
C1011	C101	0.913000	0.325400	0.572710
C1021	C102	0.898400	0.222200	0.569830
C1031	C103	0.801100	0.033400	0.659600
H691	H69	0.785900	0.067700	0.675100
C1041	C104	0.822500	0.087200	0.637360
H701	H70	0.822400	0.156500	0.637800
C1051	C105	0.822900	0.890100	0.638950
H711	H71	0.824300	0.820800	0.639700
C1061	C106	0.844300	0.937000	0.615420
H721	H72	0.859000	0.900800	0.600100
C1071	C107	0.843700	0.037400	0.614850
C1081	C108	0.866000	0.089100	0.590110
N251	N25	0.040700	0.613100	0.604280
N261	N26	0.230100	0.429100	0.771270
N271	N27	0.376000	0.620900	0.592670
N281	N28	0.174100	0.548500	0.672630
N291	N29	0.255730	0.552600	0.669360
N301	N30	0.210700	0.586500	0.627050
N311	N31	0.800900	0.935900	0.660300
N321	N32	0.929900	0.913700	0.468070
N331	N33	0.946670	0.512900	0.579330
N341	N34	0.877000	0.033900	0.566580
N351	N35	0.909600	0.174700	0.545110
N361	N36	0.875330	0.183900	0.592780
Zn101	Zn10	0.522800	0.352780	0.085870
Zn111	Zn11	0.063580	0.341450	0.071260
Zn121	Zn12	0.262230	0.644060	0.310550
I191	I19	0.508380	0.282000	0.034300
I201	I20	0.568910	0.265170	0.125410
I211	I21	0.074340	0.158270	0.060300
I221	I22	0.996850	0.410460	0.100370
I231	I23	0.301260	0.809770	0.305580
I241	I24	0.178360	0.637600	0.327160
C1091	C109	0.420600	0.386300	0.087780
H731	H73	0.423200	0.376200	0.067000
C1101	C110	0.377000	0.399800	0.100040
H741	H74	0.350200	0.399400	0.087800
C1111	C111	0.455200	0.403300	0.133030
H751	H75	0.482500	0.405300	0.144700
C1121	C112	0.413000	0.417600	0.146770
H761	H76	0.411600	0.429800	0.167400
C1131	C113	0.372900	0.413900	0.130050
C1141	C114	0.326700	0.426500	0.143940
C1151	C115	0.310200	0.575400	0.257150
H771	H77	0.335700	0.606000	0.266700
C1161	C116	0.316400	0.537200	0.229090
H781	H78	0.345900	0.539900	0.219800
C1171	C117	0.234200	0.528800	0.257860
H791	H79	0.205400	0.524500	0.268000
C1181	C118	0.237600	0.491000	0.229570
H801	H80	0.211400	0.462200	0.220300
C1191	C119	0.279600	0.495600	0.215020
C1201	C120	0.283500	0.461700	0.183870
C1211	C121	0.123300	0.403800	0.121450
H811	H81	0.094200	0.411200	0.131000
C1221	C122	0.163000	0.418900	0.137620
H821	H82	0.161200	0.435200	0.158000
C1231	C123	0.165100	0.371400	0.079530
H831	H83	0.165800	0.354300	0.059200
C1241	C124	0.206500	0.386800	0.093740
H841	H84	0.235000	0.381800	0.083400
C1251	C125	0.205700	0.409900	0.123850
C1261	C126	0.249200	0.423900	0.140740
C1271	C127	0.593300	0.124500	0.990480
H851	H85	0.603500	0.190200	0.989000
C1281	C128	0.603400	0.073900	0.015710
H861	H86	0.619700	0.104600	0.031400
C1291	C129	0.554500	0.994900	0.971030
H871	H87	0.536300	0.967900	0.955500
C1301	C130	0.563600	0.938500	0.995430
H881	H88	0.552200	0.873600	0.996600
C1311	C131	0.589600	0.977600	0.018270
C1321	C132	0.601600	0.919500	0.044850
C1331	C133	0.542400	0.539700	0.056100
H891	H89	0.522600	0.511900	0.041600
C1341	C134	0.558400	0.633300	0.051630
H901	H90	0.550000	0.668700	0.034400
C1351	C135	0.581000	0.526400	0.099460
H911	H91	0.588700	0.489300	0.116500
C1361	C136	0.598900	0.619500	0.096590
H921	H92	0.619400	0.644700	0.111100
C1371	C137	0.587000	0.674600	0.072710
C1381	C138	0.601600	0.777800	0.069830
C1391	C139	0.698900	0.966600	0.159600
H931	H93	0.714100	0.932300	0.175100
C1401	C140	0.677500	0.912800	0.137360
H941	H94	0.677600	0.843500	0.137800
C1411	C141	0.677100	0.109900	0.138950
H951	H95	0.675700	0.179200	0.139700
C1421	C142	0.655700	0.063000	0.115420
H961	H96	0.641000	0.099200	0.100100
C1431	C143	0.656300	0.962600	0.114850
C1441	C144	0.634000	0.910900	0.090110
N371	N37	0.459300	0.386900	0.104280
N381	N38	0.269900	0.570900	0.271270
N391	N39	0.124000	0.379100	0.092670
N401	N40	0.325900	0.451500	0.172630
N411	N41	0.244270	0.447400	0.169360
N421	N42	0.289300	0.413500	0.127050
N431	N43	0.699100	0.064100	0.160300
N441	N44	0.570100	0.086300	0.968070
N451	N45	0.553330	0.487100	0.079330
N461	N46	0.623000	0.966100	0.066580
N471	N47	0.590400	0.825300	0.045110
N481	N48	0.624670	0.816100	0.092780
Zn131	Zn13	0.977200	0.852780	0.085870
Zn141	Zn14	0.436420	0.841450	0.071260
Zn151	Zn15	0.237770	0.144060	0.310550
I251	I25	0.991620	0.782000	0.034300
I261	I26	0.931090	0.765170	0.125410
I271	I27	0.425660	0.658270	0.060300
I281	I28	0.503150	0.910460	0.100370
I291	I29	0.198740	0.309770	0.305580
I301	I30	0.321640	0.137600	0.327160
C1451	C145	0.079400	0.886300	0.087780
H971	H97	0.076800	0.876200	0.067000
C1461	C146	0.123000	0.899800	0.100040
H981	H98	0.149800	0.899400	0.087800
C1471	C147	0.044800	0.903300	0.133030
H991	H99	0.017500	0.905300	0.144700
C1481	C148	0.087000	0.917600	0.146770
H1001	H100	0.088400	0.929800	0.167400
C1491	C149	0.127100	0.913900	0.130050
C1501	C150	0.173300	0.926500	0.143940
C1511	C151	0.189800	0.075400	0.257150
H1011	H101	0.164300	0.106000	0.266700
C1521	C152	0.183600	0.037200	0.229090
H1021	H102	0.154100	0.039900	0.219800
C1531	C153	0.265800	0.028800	0.257860
H1031	H103	0.294600	0.024500	0.268000
C1541	C154	0.262400	0.991000	0.229570
H1041	H104	0.288600	0.962200	0.220300
C1551	C155	0.220400	0.995600	0.215020
C1561	C156	0.216500	0.961700	0.183870
C1571	C157	0.376700	0.903800	0.121450
H1051	H105	0.405800	0.911200	0.131000
C1581	C158	0.337000	0.918900	0.137620
H1061	H106	0.338800	0.935200	0.158000
C1591	C159	0.334900	0.871400	0.079530
H1071	H107	0.334200	0.854300	0.059200
C1601	C160	0.293500	0.886800	0.093740
H1081	H108	0.265000	0.881800	0.083400
C1611	C161	0.294300	0.909900	0.123850
C1621	C162	0.250800	0.923900	0.140740
C1631	C163	0.906700	0.624500	0.990480
H1091	H109	0.896500	0.690200	0.989000
C1641	C164	0.896600	0.573900	0.015710
H1101	H110	0.880300	0.604600	0.031400
C1651	C165	0.945500	0.494900	0.971030
H1111	H111	0.963700	0.467900	0.955500
C1661	C166	0.936400	0.438500	0.995430
H1121	H112	0.947800	0.373600	0.996600
C1671	C167	0.910400	0.477600	0.018270
C1681	C168	0.898400	0.419500	0.044850
C1691	C169	0.957600	0.039700	0.056100
H1131	H113	0.977400	0.011900	0.041600
C1701	C170	0.941600	0.133300	0.051630
H1141	H114	0.950000	0.168700	0.034400
C1711	C171	0.919000	0.026400	0.099460
H1151	H115	0.911300	0.989300	0.116500
C1721	C172	0.901100	0.119500	0.096590
H1161	H116	0.880600	0.144700	0.111100
C1731	C173	0.913000	0.174600	0.072710
C1741	C174	0.898400	0.277800	0.069830
C1751	C175	0.801100	0.466600	0.159600
H1171	H117	0.785900	0.432300	0.175100
C1761	C176	0.822500	0.412800	0.137360
H1181	H118	0.822400	0.343500	0.137800
C1771	C177	0.822900	0.609900	0.138950
H1191	H119	0.824300	0.679200	0.139700
C1781	C178	0.844300	0.563000	0.115420
H1201	H120	0.859000	0.599200	0.100100
C1791	C179	0.843700	0.462600	0.114850
C1801	C180	0.866000	0.410900	0.090110
N491	N49	0.040700	0.886900	0.104280
N501	N50	0.230100	0.070900	0.271270
N511	N51	0.376000	0.879100	0.092670
N521	N52	0.174100	0.951500	0.172630
N531	N53	0.255730	0.947400	0.169360
N541	N54	0.210700	0.913500	0.127050
N551	N55	0.800900	0.564100	0.160300
N561	N56	0.929900	0.586300	0.968070
N571	N57	0.946670	0.987100	0.079330
N581	N58	0.877000	0.466100	0.066580
N591	N59	0.909600	0.325300	0.045110
N601	N60	0.875330	0.316100	0.092780
Zn161	Zn16	0.522800	0.147220	0.585870
Zn171	Zn17	0.063580	0.158550	0.571260
Zn181	Zn18	0.262230	0.855940	0.810550
I311	I31	0.508380	0.218000	0.534300
I321	I32	0.568910	0.234830	0.625410
I331	I33	0.074340	0.341730	0.560300
I341	I34	0.996850	0.089540	0.600370
I351	I35	0.301260	0.690230	0.805580
I361	I36	0.178360	0.862400	0.827160
C1811	C181	0.420600	0.113700	0.587780
H1211	H121	0.423200	0.123800	0.567000
C1821	C182	0.377000	0.100200	0.600040
H1221	H122	0.350200	0.100600	0.587800
C1831	C183	0.455200	0.096700	0.633030
H1231	H123	0.482500	0.094700	0.644700
C1841	C184	0.413000	0.082400	0.646770
H1241	H124	0.411600	0.070200	0.667400
C1851	C185	0.372900	0.086100	0.630050
C1861	C186	0.326700	0.073500	0.643940
C1871	C187	0.310200	0.924600	0.757150
H1251	H125	0.335700	0.894000	0.766700
C1881	C188	0.316400	0.962800	0.729090
H1261	H126	0.345900	0.960100	0.719800
C1891	C189	0.234200	0.971200	0.757860
H1271	H127	0.205400	0.975500	0.768000
C1901	C190	0.237600	0.009000	0.729570
H1281	H128	0.211400	0.037800	0.720300
C1911	C191	0.279600	0.004400	0.715020
C1921	C192	0.283500	0.038300	0.683870
C1931	C193	0.123300	0.096200	0.621450
H1291	H129	0.094200	0.088800	0.631000
C1941	C194	0.163000	0.081100	0.637620
H1301	H130	0.161200	0.064800	0.658000
C1951	C195	0.165100	0.128600	0.579530
H1311	H131	0.165800	0.145700	0.559200
C1961	C196	0.206500	0.113200	0.593740
H1321	H132	0.235000	0.118200	0.583400
C1971	C197	0.205700	0.090100	0.623850
C1981	C198	0.249200	0.076100	0.640740
C1991	C199	0.593300	0.375500	0.490480
H1331	H133	0.603500	0.309800	0.489000
C2001	C200	0.603400	0.426100	0.515710
H1341	H134	0.619700	0.395400	0.531400
C2011	C201	0.554500	0.505100	0.471030
H1351	H135	0.536300	0.532100	0.455500
C2021	C202	0.563600	0.561500	0.495430
H1361	H136	0.552200	0.626400	0.496600
C2031	C203	0.589600	0.522400	0.518270
C2041	C204	0.601600	0.580500	0.544850
C2051	C205	0.542400	0.960300	0.556100
H1371	H137	0.522600	0.988100	0.541600
C2061	C206	0.558400	0.866700	0.551630
H1381	H138	0.550000	0.831300	0.534400
C2071	C207	0.581000	0.973600	0.599460
H1391	H139	0.588700	0.010700	0.616500
C2081	C208	0.598900	0.880500	0.596590
H1401	H140	0.619400	0.855300	0.611100
C2091	C209	0.587000	0.825400	0.572710
C2101	C210	0.601600	0.722200	0.569830
C2111	C211	0.698900	0.533400	0.659600
H1411	H141	0.714100	0.567700	0.675100
C2121	C212	0.677500	0.587200	0.637360
H1421	H142	0.677600	0.656500	0.637800
C2131	C213	0.677100	0.390100	0.638950
H1431	H143	0.675700	0.320800	0.639700
C2141	C214	0.655700	0.437000	0.615420
H1441	H144	0.641000	0.400800	0.600100
C2151	C215	0.656300	0.537400	0.614850
C2161	C216	0.634000	0.589100	0.590110
N611	N61	0.459300	0.113100	0.604280
N621	N62	0.269900	0.929100	0.771270
N631	N63	0.124000	0.120900	0.592670
N641	N64	0.325900	0.048500	0.672630
N651	N65	0.244270	0.052600	0.669360
N661	N66	0.289300	0.086500	0.627050
N671	N67	0.699100	0.435900	0.660300
N681	N68	0.570100	0.413700	0.468070
N691	N69	0.553330	0.012900	0.579330
N701	N70	0.623000	0.533900	0.566580
N711	N71	0.590400	0.674700	0.545110
N721	N72	0.624670	0.683900	0.592780
Zn191	Zn19	0.022800	0.352780	0.414130
Zn201	Zn20	0.563580	0.341450	0.428740
Zn211	Zn21	0.762230	0.644060	0.189450
I371	I37	0.008380	0.282000	0.465700
I381	I38	0.068910	0.265170	0.374590
I391	I39	0.574340	0.158270	0.439700
I401	I40	0.496850	0.410460	0.399630
I411	I41	0.801260	0.809770	0.194420
I421	I42	0.678360	0.637600	0.172840
C2171	C217	0.920600	0.386300	0.412220
H1451	H145	0.923200	0.376200	0.433000
C2181	C218	0.877000	0.399800	0.399960
H1461	H146	0.850200	0.399400	0.412200
C2191	C219	0.955200	0.403300	0.366970
H1471	H147	0.982500	0.405300	0.355300
C2201	C220	0.913000	0.417600	0.353230
H1481	H148	0.911600	0.429800	0.332600
C2211	C221	0.872900	0.413900	0.369950
C2221	C222	0.826700	0.426500	0.356060
C2231	C223	0.810200	0.575400	0.242850
H1491	H149	0.835700	0.606000	0.233300
C2241	C224	0.816400	0.537200	0.270910
H1501	H150	0.845900	0.539900	0.280200
C2251	C225	0.734200	0.528800	0.242140
H1511	H151	0.705400	0.524500	0.232000
C2261	C226	0.737600	0.491000	0.270430
H1521	H152	0.711400	0.462200	0.279700
C2271	C227	0.779600	0.495600	0.284980
C2281	C228	0.783500	0.461700	0.316130
C2291	C229	0.623300	0.403800	0.378550
H1531	H153	0.594200	0.411200	0.369000
C2301	C230	0.663000	0.418900	0.362380
H1541	H154	0.661200	0.435200	0.342000
C2311	C231	0.665100	0.371400	0.420470
H1551	H155	0.665800	0.354300	0.440800
C2321	C232	0.706500	0.386800	0.406260
H1561	H156	0.735000	0.381800	0.416600
C2331	C233	0.705700	0.409900	0.376150
C2341	C234	0.749200	0.423900	0.359260
C2351	C235	0.093300	0.124500	0.509520
H1571	H157	0.103500	0.190200	0.511000
C2361	C236	0.103400	0.073900	0.484290
H1581	H158	0.119700	0.104600	0.468600
C2371	C237	0.054500	0.994900	0.528970
H1591	H159	0.036300	0.967900	0.544500
C2381	C238	0.063600	0.938500	0.504570
H1601	H160	0.052200	0.873600	0.503400
C2391	C239	0.089600	0.977600	0.481730
C2401	C240	0.101600	0.919500	0.455150
C2411	C241	0.042400	0.539700	0.443900
H1611	H161	0.022600	0.511900	0.458400
C2421	C242	0.058400	0.633300	0.448370
H1621	H162	0.050000	0.668700	0.465600
C2431	C243	0.081000	0.526400	0.400540
H1631	H163	0.088700	0.489300	0.383500
C2441	C244	0.098900	0.619500	0.403410
H1641	H164	0.119400	0.644700	0.388900
C2451	C245	0.087000	0.674600	0.427290
C2461	C246	0.101600	0.777800	0.430170
C2471	C247	0.198900	0.966600	0.340400
H1651	H165	0.214100	0.932300	0.324900
C2481	C248	0.177500	0.912800	0.362640
H1661	H166	0.177600	0.843500	0.362200
C2491	C249	0.177100	0.109900	0.361050
H1671	H167	0.175700	0.179200	0.360300
C2501	C250	0.155700	0.063000	0.384580
H1681	H168	0.141000	0.099200	0.399900
C2511	C251	0.156300	0.962600	0.385150
C2521	C252	0.134000	0.910900	0.409890
N731	N73	0.959300	0.386900	0.395720
N741	N74	0.769900	0.570900	0.228730
N751	N75	0.624000	0.379100	0.407330
N761	N76	0.825900	0.451500	0.327370
N771	N77	0.744270	0.447400	0.330640
N781	N78	0.789300	0.413500	0.372950
N791	N79	0.199100	0.064100	0.339700
N801	N80	0.070100	0.086300	0.531930
N811	N81	0.053330	0.487100	0.420670
N821	N82	0.123000	0.966100	0.433420
N831	N83	0.090400	0.825300	0.454890
N841	N84	0.124670	0.816100	0.407220
Zn221	Zn22	0.477200	0.647220	0.914130
Zn231	Zn23	0.936420	0.658550	0.928740
Zn241	Zn24	0.737770	0.355940	0.689450
I431	I43	0.491620	0.718000	0.965700
I441	I44	0.431090	0.734830	0.874590
I451	I45	0.925660	0.841730	0.939700
I461	I46	0.003150	0.589540	0.899630
I471	I47	0.698740	0.190230	0.694420
I481	I48	0.821640	0.362400	0.672840
C2531	C253	0.579400	0.613700	0.912220
H1691	H169	0.576800	0.623800	0.933000
C2541	C254	0.623000	0.600200	0.899960
H1701	H170	0.649800	0.600600	0.912200
C2551	C255	0.544800	0.596700	0.866970
H1711	H171	0.517500	0.594700	0.855300
C2561	C256	0.587000	0.582400	0.853230
H1721	H172	0.588400	0.570200	0.832600
C2571	C257	0.627100	0.586100	0.869950
C2581	C258	0.673300	0.573500	0.856060
C2591	C259	0.689800	0.424600	0.742850
H1731	H173	0.664300	0.394000	0.733300
C2601	C260	0.683600	0.462800	0.770910
H1741	H174	0.654100	0.460100	0.780200
C2611	C261	0.765800	0.471200	0.742140
H1751	H175	0.794600	0.475500	0.732000
C2621	C262	0.762400	0.509000	0.770430
H1761	H176	0.788600	0.537800	0.779700
C2631	C263	0.720400	0.504400	0.784980
C2641	C264	0.716500	0.538300	0.816130
C2651	C265	0.876700	0.596200	0.878550
H1771	H177	0.905800	0.588800	0.869000
C2661	C266	0.837000	0.581100	0.862380
H1781	H178	0.838800	0.564800	0.842000
C2671	C267	0.834900	0.628600	0.920470
H1791	H179	0.834200	0.645700	0.940800
C2681	C268	0.793500	0.613200	0.906260
H1801	H180	0.765000	0.618200	0.916600
C2691	C269	0.794300	0.590100	0.876150
C2701	C270	0.750800	0.576100	0.859260
C2711	C271	0.406700	0.875500	0.009520
H1811	H181	0.396500	0.809800	0.011000
C2721	C272	0.396600	0.926100	0.984290
H1821	H182	0.380300	0.895400	0.968600
C2731	C273	0.445500	0.005100	0.028970
H1831	H183	0.463700	0.032100	0.044500
C2741	C274	0.436400	0.061500	0.004570
H1841	H184	0.447800	0.126400	0.003400
C2751	C275	0.410400	0.022400	0.981730
C2761	C276	0.398400	0.080500	0.955150
C2771	C277	0.457600	0.460300	0.943900
H1851	H185	0.477400	0.488100	0.958400
C2781	C278	0.441600	0.366700	0.948370
H1861	H186	0.450000	0.331300	0.965600
C2791	C279	0.419000	0.473600	0.900540
H1871	H187	0.411300	0.510700	0.883500
C2801	C280	0.401100	0.380500	0.903410
H1881	H188	0.380600	0.355300	0.888900
C2811	C281	0.413000	0.325400	0.927290
C2821	C282	0.398400	0.222200	0.930170
C2831	C283	0.301100	0.033400	0.840400
H1891	H189	0.285900	0.067700	0.824900
C2841	C284	0.322500	0.087200	0.862640
H1901	H190	0.322400	0.156500	0.862200
C2851	C285	0.322900	0.890100	0.861050
H1911	H191	0.324300	0.820800	0.860300
C2861	C286	0.344300	0.937000	0.884580
H1921	H192	0.359000	0.900800	0.899900
C2871	C287	0.343700	0.037400	0.885150
C2881	C288	0.366000	0.089100	0.909890
N851	N85	0.540700	0.613100	0.895720
N861	N86	0.730100	0.429100	0.728730
N871	N87	0.876000	0.620900	0.907330
N881	N88	0.674100	0.548500	0.827370
N891	N89	0.755730	0.552600	0.830640
N901	N90	0.710700	0.586500	0.872950
N911	N91	0.300900	0.935900	0.839700
N921	N92	0.429900	0.913700	0.031930
N931	N93	0.446670	0.512900	0.920670
N941	N94	0.377000	0.033900	0.933420
N951	N95	0.409600	0.174700	0.954890
N961	N96	0.375330	0.183900	0.907220
