data_SOHNIN_clean_PM
_symmetry_space_group_name_H-M	'P1'
_cell_length_a	27.806000
_cell_length_b	13.809100
_cell_length_c	45.137800
_cell_angle_alpha	90.000000
_cell_angle_beta	90.000000
_cell_angle_gamma	90.000000
_symmetry_Int_Tables_number 1

loop_
_symmetry_equiv_pos_as_xyz
'x,y,z'

loop_
_atom_site_label
_atom_site_type_symbol
_atom_site_fract_x
_atom_site_fract_y
_atom_site_fract_z
Zn11	Zn1	0.476520	0.128440	0.415320
Zn21	Zn2	0.738800	0.830920	0.185330
Zn31	Zn3	0.951480	0.145180	0.421690
I11	I1	0.494520	0.201580	0.466330
I21	I2	0.430730	0.216820	0.375280
I31	I3	0.693890	0.670950	0.192260
I41	I4	0.826760	0.832290	0.170100
I51	I5	0.945750	0.327570	0.426940
I61	I6	0.016260	0.052270	0.394450
C11	C1	0.676600	0.047100	0.353440
C21	C2	0.719800	0.010600	0.312670
C31	C3	0.756900	0.050200	0.355040
C41	C4	0.629300	0.060000	0.368500
C51	C5	0.626500	0.080600	0.397860
H11	H1	0.655100	0.084200	0.409300
C61	C6	0.583300	0.096400	0.411230
H21	H2	0.582600	0.112000	0.431700
C71	C7	0.544600	0.067700	0.367300
H31	H3	0.515500	0.062500	0.356400
C81	C8	0.586600	0.051400	0.352760
H41	H4	0.586700	0.034600	0.332300
C91	C9	0.723600	0.977500	0.281640
C101	C10	0.683000	0.940500	0.267160
H51	H5	0.652400	0.940000	0.276400
C111	C11	0.689600	0.903800	0.238230
H61	H6	0.662600	0.877300	0.228300
C121	C12	0.769200	0.942400	0.238280
H71	H7	0.799100	0.944700	0.228100
C131	C13	0.766900	0.978300	0.266780
H81	H8	0.794900	0.003400	0.276100
C141	C14	0.802400	0.067000	0.371450
C151	C15	0.846900	0.058000	0.357480
H91	H9	0.848400	0.039900	0.337200
C161	C16	0.888200	0.075300	0.372960
H101	H10	0.918200	0.067900	0.363200
C171	C17	0.845400	0.110300	0.415460
H111	H11	0.845100	0.129200	0.435700
C181	C18	0.802000	0.092100	0.401690
H121	H12	0.772700	0.096500	0.412300
C191	C19	0.394300	0.706800	0.433800
C201	C20	0.398800	0.569300	0.460200
C211	C21	0.361500	0.571700	0.415560
C221	C22	0.408500	0.809800	0.430150
C231	C23	0.405500	0.855600	0.403050
H131	H13	0.392300	0.823000	0.386400
C241	C24	0.421700	0.947700	0.400530
H141	H14	0.418100	0.979400	0.382000
C251	C25	0.445200	0.952900	0.448980
H151	H15	0.458900	0.987200	0.465100
C261	C26	0.429300	0.861200	0.454120
H161	H16	0.432000	0.832600	0.473200
C271	C27	0.415000	0.515400	0.486040
C281	C28	0.439500	0.561900	0.508940
H171	H17	0.447000	0.628800	0.507300
C291	C29	0.452600	0.511500	0.533850
H181	H18	0.469500	0.544700	0.549100
C301	C30	0.420300	0.370800	0.515550
H191	H19	0.414000	0.303600	0.517700
C311	C31	0.406000	0.418100	0.489320
H201	H20	0.390200	0.383000	0.474000
C321	C32	0.338000	0.517800	0.391650
C331	C33	0.340400	0.417400	0.390700
H211	H21	0.357000	0.382900	0.405800
C341	C34	0.319200	0.368700	0.368200
H221	H22	0.320600	0.300000	0.368300
C351	C35	0.292800	0.508800	0.346870
H231	H23	0.275500	0.540700	0.331600
C361	C36	0.312600	0.564300	0.368380
H241	H24	0.309500	0.632800	0.367900
N11	N1	0.676000	0.021000	0.324540
N21	N2	0.761300	0.025300	0.327040
N31	N3	0.715600	0.063100	0.369630
N41	N4	0.541600	0.090500	0.396230
N51	N5	0.731200	0.904500	0.224410
N61	N6	0.887700	0.102600	0.401840
N71	N7	0.409300	0.664000	0.458510
N81	N8	0.374200	0.519900	0.439480
N91	N9	0.369700	0.666300	0.411800
N101	N10	0.442800	0.997500	0.423120
N111	N11	0.442700	0.418200	0.537600
N121	N12	0.296000	0.413300	0.345600
Zn41	Zn4	0.023480	0.871560	0.915320
Zn51	Zn5	0.761200	0.169080	0.685330
Zn61	Zn6	0.548520	0.854820	0.921690
I71	I7	0.005480	0.798420	0.966330
I81	I8	0.069270	0.783180	0.875280
I91	I9	0.806110	0.329050	0.692260
I101	I10	0.673240	0.167710	0.670100
I111	I11	0.554250	0.672430	0.926940
I121	I12	0.483740	0.947730	0.894450
C371	C37	0.823400	0.952900	0.853440
C381	C38	0.780200	0.989400	0.812670
C391	C39	0.743100	0.949800	0.855040
C401	C40	0.870700	0.940000	0.868500
C411	C41	0.873500	0.919400	0.897860
H251	H25	0.844900	0.915800	0.909300
C421	C42	0.916700	0.903600	0.911230
H261	H26	0.917400	0.888000	0.931700
C431	C43	0.955400	0.932300	0.867300
H271	H27	0.984500	0.937500	0.856400
C441	C44	0.913400	0.948600	0.852760
H281	H28	0.913300	0.965400	0.832300
C451	C45	0.776400	0.022500	0.781640
C461	C46	0.817000	0.059500	0.767160
H291	H29	0.847600	0.060000	0.776400
C471	C47	0.810400	0.096200	0.738230
H301	H30	0.837400	0.122700	0.728300
C481	C48	0.730800	0.057600	0.738280
H311	H31	0.700900	0.055300	0.728100
C491	C49	0.733100	0.021700	0.766780
H321	H32	0.705100	0.996600	0.776100
C501	C50	0.697600	0.933000	0.871450
C511	C51	0.653100	0.942000	0.857480
H331	H33	0.651600	0.960100	0.837200
C521	C52	0.611800	0.924700	0.872960
H341	H34	0.581800	0.932100	0.863200
C531	C53	0.654600	0.889700	0.915460
H351	H35	0.654900	0.870800	0.935700
C541	C54	0.698000	0.907900	0.901690
H361	H36	0.727300	0.903500	0.912300
C551	C55	0.105700	0.293200	0.933800
C561	C56	0.101200	0.430700	0.960200
C571	C57	0.138500	0.428300	0.915560
C581	C58	0.091500	0.190200	0.930150
C591	C59	0.094500	0.144400	0.903050
H371	H37	0.107700	0.177000	0.886400
C601	C60	0.078300	0.052300	0.900530
H381	H38	0.081900	0.020600	0.882000
C611	C61	0.054800	0.047100	0.948980
H391	H39	0.041100	0.012800	0.965100
C621	C62	0.070700	0.138800	0.954120
H401	H40	0.068000	0.167400	0.973200
C631	C63	0.085000	0.484600	0.986040
C641	C64	0.060500	0.438100	0.008940
H411	H41	0.053000	0.371200	0.007300
C651	C65	0.047400	0.488500	0.033850
H421	H42	0.030500	0.455300	0.049100
C661	C66	0.079700	0.629200	0.015550
H431	H43	0.086000	0.696400	0.017700
C671	C67	0.094000	0.581900	0.989320
H441	H44	0.109800	0.617000	0.974000
C681	C68	0.162000	0.482200	0.891650
C691	C69	0.159600	0.582600	0.890700
H451	H45	0.143000	0.617100	0.905800
C701	C70	0.180800	0.631300	0.868200
H461	H46	0.179400	0.700000	0.868300
C711	C71	0.207200	0.491200	0.846870
H471	H47	0.224500	0.459300	0.831600
C721	C72	0.187400	0.435700	0.868380
H481	H48	0.190500	0.367200	0.867900
N131	N13	0.824000	0.979000	0.824540
N141	N14	0.738700	0.974700	0.827040
N151	N15	0.784400	0.936900	0.869630
N161	N16	0.958400	0.909500	0.896230
N171	N17	0.768800	0.095500	0.724410
N181	N18	0.612300	0.897400	0.901840
N191	N19	0.090700	0.336000	0.958510
N201	N20	0.125800	0.480100	0.939480
N211	N21	0.130300	0.333700	0.911800
N221	N22	0.057200	0.002500	0.923120
N231	N23	0.057300	0.581800	0.037600
N241	N24	0.204000	0.586700	0.845600
Zn71	Zn7	0.523480	0.628440	0.084680
Zn81	Zn8	0.261200	0.330920	0.314670
Zn91	Zn9	0.048520	0.645180	0.078310
I131	I13	0.505480	0.701580	0.033670
I141	I14	0.569270	0.716820	0.124720
I151	I15	0.306110	0.170950	0.307740
I161	I16	0.173240	0.332290	0.329900
I171	I17	0.054250	0.827570	0.073060
I181	I18	0.983740	0.552270	0.105550
C731	C73	0.323400	0.547100	0.146560
C741	C74	0.280200	0.510600	0.187330
C751	C75	0.243100	0.550200	0.144960
C761	C76	0.370700	0.560000	0.131500
C771	C77	0.373500	0.580600	0.102140
H491	H49	0.344900	0.584200	0.090700
C781	C78	0.416700	0.596400	0.088770
H501	H50	0.417400	0.612000	0.068300
C791	C79	0.455400	0.567700	0.132700
H511	H51	0.484500	0.562500	0.143600
C801	C80	0.413400	0.551400	0.147240
H521	H52	0.413300	0.534600	0.167700
C811	C81	0.276400	0.477500	0.218360
C821	C82	0.317000	0.440500	0.232840
H531	H53	0.347600	0.440000	0.223600
C831	C83	0.310400	0.403800	0.261770
H541	H54	0.337400	0.377300	0.271700
C841	C84	0.230800	0.442400	0.261720
H551	H55	0.200900	0.444700	0.271900
C851	C85	0.233100	0.478300	0.233220
H561	H56	0.205100	0.503400	0.223900
C861	C86	0.197600	0.567000	0.128550
C871	C87	0.153100	0.558000	0.142520
H571	H57	0.151600	0.539900	0.162800
C881	C88	0.111800	0.575300	0.127040
H581	H58	0.081800	0.567900	0.136800
C891	C89	0.154600	0.610300	0.084540
H591	H59	0.154900	0.629200	0.064300
C901	C90	0.198000	0.592100	0.098310
H601	H60	0.227300	0.596500	0.087700
C911	C91	0.605700	0.206800	0.066200
C921	C92	0.601200	0.069300	0.039800
C931	C93	0.638500	0.071700	0.084440
C941	C94	0.591500	0.309800	0.069850
C951	C95	0.594500	0.355600	0.096950
H611	H61	0.607700	0.323000	0.113600
C961	C96	0.578300	0.447700	0.099470
H621	H62	0.581900	0.479400	0.118000
C971	C97	0.554800	0.452900	0.051020
H631	H63	0.541100	0.487200	0.034900
C981	C98	0.570700	0.361200	0.045880
H641	H64	0.568000	0.332600	0.026800
C991	C99	0.585000	0.015400	0.013960
C1001	C100	0.560500	0.061900	0.991060
H651	H65	0.553000	0.128800	0.992700
C1011	C101	0.547400	0.011500	0.966150
H661	H66	0.530500	0.044700	0.950900
C1021	C102	0.579700	0.870800	0.984450
H671	H67	0.586000	0.803600	0.982300
C1031	C103	0.594000	0.918100	0.010680
H681	H68	0.609800	0.883000	0.026000
C1041	C104	0.662000	0.017800	0.108350
C1051	C105	0.659600	0.917400	0.109300
H691	H69	0.643000	0.882900	0.094200
C1061	C106	0.680800	0.868700	0.131800
H701	H70	0.679400	0.800000	0.131700
C1071	C107	0.707200	0.008800	0.153130
H711	H71	0.724500	0.040700	0.168400
C1081	C108	0.687400	0.064300	0.131620
H721	H72	0.690500	0.132800	0.132100
N251	N25	0.324000	0.521000	0.175460
N261	N26	0.238700	0.525300	0.172960
N271	N27	0.284400	0.563100	0.130370
N281	N28	0.458400	0.590500	0.103770
N291	N29	0.268800	0.404500	0.275590
N301	N30	0.112300	0.602600	0.098160
N311	N31	0.590700	0.164000	0.041490
N321	N32	0.625800	0.019900	0.060520
N331	N33	0.630300	0.166300	0.088200
N341	N34	0.557200	0.497500	0.076880
N351	N35	0.557300	0.918200	0.962400
N361	N36	0.704000	0.913300	0.154400
Zn101	Zn10	0.976520	0.371560	0.584680
Zn111	Zn11	0.238800	0.669080	0.814670
Zn121	Zn12	0.451480	0.354820	0.578310
I191	I19	0.994520	0.298420	0.533670
I201	I20	0.930730	0.283180	0.624720
I211	I21	0.193890	0.829050	0.807740
I221	I22	0.326760	0.667710	0.829900
I231	I23	0.445750	0.172430	0.573060
I241	I24	0.516260	0.447730	0.605550
C1091	C109	0.176600	0.452900	0.646560
C1101	C110	0.219800	0.489400	0.687330
C1111	C111	0.256900	0.449800	0.644960
C1121	C112	0.129300	0.440000	0.631500
C1131	C113	0.126500	0.419400	0.602140
H731	H73	0.155100	0.415800	0.590700
C1141	C114	0.083300	0.403600	0.588770
H741	H74	0.082600	0.388000	0.568300
C1151	C115	0.044600	0.432300	0.632700
H751	H75	0.015500	0.437500	0.643600
C1161	C116	0.086600	0.448600	0.647240
H761	H76	0.086700	0.465400	0.667700
C1171	C117	0.223600	0.522500	0.718360
C1181	C118	0.183000	0.559500	0.732840
H771	H77	0.152400	0.560000	0.723600
C1191	C119	0.189600	0.596200	0.761770
H781	H78	0.162600	0.622700	0.771700
C1201	C120	0.269200	0.557600	0.761720
H791	H79	0.299100	0.555300	0.771900
C1211	C121	0.266900	0.521700	0.733220
H801	H80	0.294900	0.496600	0.723900
C1221	C122	0.302400	0.433000	0.628550
C1231	C123	0.346900	0.442000	0.642520
H811	H81	0.348400	0.460100	0.662800
C1241	C124	0.388200	0.424700	0.627040
H821	H82	0.418200	0.432100	0.636800
C1251	C125	0.345400	0.389700	0.584540
H831	H83	0.345100	0.370800	0.564300
C1261	C126	0.302000	0.407900	0.598310
H841	H84	0.272700	0.403500	0.587700
C1271	C127	0.894300	0.793200	0.566200
C1281	C128	0.898800	0.930700	0.539800
C1291	C129	0.861500	0.928300	0.584440
C1301	C130	0.908500	0.690200	0.569850
C1311	C131	0.905500	0.644400	0.596950
H851	H85	0.892300	0.677000	0.613600
C1321	C132	0.921700	0.552300	0.599470
H861	H86	0.918100	0.520600	0.618000
C1331	C133	0.945200	0.547100	0.551020
H871	H87	0.958900	0.512800	0.534900
C1341	C134	0.929300	0.638800	0.545880
H881	H88	0.932000	0.667400	0.526800
C1351	C135	0.915000	0.984600	0.513960
C1361	C136	0.939500	0.938100	0.491060
H891	H89	0.947000	0.871200	0.492700
C1371	C137	0.952600	0.988500	0.466150
H901	H90	0.969500	0.955300	0.450900
C1381	C138	0.920300	0.129200	0.484450
H911	H91	0.914000	0.196400	0.482300
C1391	C139	0.906000	0.081900	0.510680
H921	H92	0.890200	0.117000	0.526000
C1401	C140	0.838000	0.982200	0.608350
C1411	C141	0.840400	0.082600	0.609300
H931	H93	0.857000	0.117100	0.594200
C1421	C142	0.819200	0.131300	0.631800
H941	H94	0.820600	0.200000	0.631700
C1431	C143	0.792800	0.991200	0.653130
H951	H95	0.775500	0.959300	0.668400
C1441	C144	0.812600	0.935700	0.631620
H961	H96	0.809500	0.867200	0.632100
N371	N37	0.176000	0.479000	0.675460
N381	N38	0.261300	0.474700	0.672960
N391	N39	0.215600	0.436900	0.630370
N401	N40	0.041600	0.409500	0.603770
N411	N41	0.231200	0.595500	0.775590
N421	N42	0.387700	0.397400	0.598160
N431	N43	0.909300	0.836000	0.541490
N441	N44	0.874200	0.980100	0.560520
N451	N45	0.869700	0.833700	0.588200
N461	N46	0.942800	0.502500	0.576880
N471	N47	0.942700	0.081800	0.462400
N481	N48	0.796000	0.086700	0.654400
Zn131	Zn13	0.523480	0.871560	0.584680
Zn141	Zn14	0.261200	0.169080	0.814670
Zn151	Zn15	0.048520	0.854820	0.578310
I251	I25	0.505480	0.798420	0.533670
I261	I26	0.569270	0.783180	0.624720
I271	I27	0.306110	0.329050	0.807740
I281	I28	0.173240	0.167710	0.829900
I291	I29	0.054250	0.672430	0.573060
I301	I30	0.983740	0.947730	0.605550
C1451	C145	0.323400	0.952900	0.646560
C1461	C146	0.280200	0.989400	0.687330
C1471	C147	0.243100	0.949800	0.644960
C1481	C148	0.370700	0.940000	0.631500
C1491	C149	0.373500	0.919400	0.602140
H971	H97	0.344900	0.915800	0.590700
C1501	C150	0.416700	0.903600	0.588770
H981	H98	0.417400	0.888000	0.568300
C1511	C151	0.455400	0.932300	0.632700
H991	H99	0.484500	0.937500	0.643600
C1521	C152	0.413400	0.948600	0.647240
H1001	H100	0.413300	0.965400	0.667700
C1531	C153	0.276400	0.022500	0.718360
C1541	C154	0.317000	0.059500	0.732840
H1011	H101	0.347600	0.060000	0.723600
C1551	C155	0.310400	0.096200	0.761770
H1021	H102	0.337400	0.122700	0.771700
C1561	C156	0.230800	0.057600	0.761720
H1031	H103	0.200900	0.055300	0.771900
C1571	C157	0.233100	0.021700	0.733220
H1041	H104	0.205100	0.996600	0.723900
C1581	C158	0.197600	0.933000	0.628550
C1591	C159	0.153100	0.942000	0.642520
H1051	H105	0.151600	0.960100	0.662800
C1601	C160	0.111800	0.924700	0.627040
H1061	H106	0.081800	0.932100	0.636800
C1611	C161	0.154600	0.889700	0.584540
H1071	H107	0.154900	0.870800	0.564300
C1621	C162	0.198000	0.907900	0.598310
H1081	H108	0.227300	0.903500	0.587700
C1631	C163	0.605700	0.293200	0.566200
C1641	C164	0.601200	0.430700	0.539800
C1651	C165	0.638500	0.428300	0.584440
C1661	C166	0.591500	0.190200	0.569850
C1671	C167	0.594500	0.144400	0.596950
H1091	H109	0.607700	0.177000	0.613600
C1681	C168	0.578300	0.052300	0.599470
H1101	H110	0.581900	0.020600	0.618000
C1691	C169	0.554800	0.047100	0.551020
H1111	H111	0.541100	0.012800	0.534900
C1701	C170	0.570700	0.138800	0.545880
H1121	H112	0.568000	0.167400	0.526800
C1711	C171	0.585000	0.484600	0.513960
C1721	C172	0.560500	0.438100	0.491060
H1131	H113	0.553000	0.371200	0.492700
C1731	C173	0.547400	0.488500	0.466150
H1141	H114	0.530500	0.455300	0.450900
C1741	C174	0.579700	0.629200	0.484450
H1151	H115	0.586000	0.696400	0.482300
C1751	C175	0.594000	0.581900	0.510680
H1161	H116	0.609800	0.617000	0.526000
C1761	C176	0.662000	0.482200	0.608350
C1771	C177	0.659600	0.582600	0.609300
H1171	H117	0.643000	0.617100	0.594200
C1781	C178	0.680800	0.631300	0.631800
H1181	H118	0.679400	0.700000	0.631700
C1791	C179	0.707200	0.491200	0.653130
H1191	H119	0.724500	0.459300	0.668400
C1801	C180	0.687400	0.435700	0.631620
H1201	H120	0.690500	0.367200	0.632100
N491	N49	0.324000	0.979000	0.675460
N501	N50	0.238700	0.974700	0.672960
N511	N51	0.284400	0.936900	0.630370
N521	N52	0.458400	0.909500	0.603770
N531	N53	0.268800	0.095500	0.775590
N541	N54	0.112300	0.897400	0.598160
N551	N55	0.590700	0.336000	0.541490
N561	N56	0.625800	0.480100	0.560520
N571	N57	0.630300	0.333700	0.588200
N581	N58	0.557200	0.002500	0.576880
N591	N59	0.557300	0.581800	0.462400
N601	N60	0.704000	0.586700	0.654400
Zn161	Zn16	0.976520	0.128440	0.084680
Zn171	Zn17	0.238800	0.830920	0.314670
Zn181	Zn18	0.451480	0.145180	0.078310
I311	I31	0.994520	0.201580	0.033670
I321	I32	0.930730	0.216820	0.124720
I331	I33	0.193890	0.670950	0.307740
I341	I34	0.326760	0.832290	0.329900
I351	I35	0.445750	0.327570	0.073060
I361	I36	0.516260	0.052270	0.105550
C1811	C181	0.176600	0.047100	0.146560
C1821	C182	0.219800	0.010600	0.187330
C1831	C183	0.256900	0.050200	0.144960
C1841	C184	0.129300	0.060000	0.131500
C1851	C185	0.126500	0.080600	0.102140
H1211	H121	0.155100	0.084200	0.090700
C1861	C186	0.083300	0.096400	0.088770
H1221	H122	0.082600	0.112000	0.068300
C1871	C187	0.044600	0.067700	0.132700
H1231	H123	0.015500	0.062500	0.143600
C1881	C188	0.086600	0.051400	0.147240
H1241	H124	0.086700	0.034600	0.167700
C1891	C189	0.223600	0.977500	0.218360
C1901	C190	0.183000	0.940500	0.232840
H1251	H125	0.152400	0.940000	0.223600
C1911	C191	0.189600	0.903800	0.261770
H1261	H126	0.162600	0.877300	0.271700
C1921	C192	0.269200	0.942400	0.261720
H1271	H127	0.299100	0.944700	0.271900
C1931	C193	0.266900	0.978300	0.233220
H1281	H128	0.294900	0.003400	0.223900
C1941	C194	0.302400	0.067000	0.128550
C1951	C195	0.346900	0.058000	0.142520
H1291	H129	0.348400	0.039900	0.162800
C1961	C196	0.388200	0.075300	0.127040
H1301	H130	0.418200	0.067900	0.136800
C1971	C197	0.345400	0.110300	0.084540
H1311	H131	0.345100	0.129200	0.064300
C1981	C198	0.302000	0.092100	0.098310
H1321	H132	0.272700	0.096500	0.087700
C1991	C199	0.894300	0.706800	0.066200
C2001	C200	0.898800	0.569300	0.039800
C2011	C201	0.861500	0.571700	0.084440
C2021	C202	0.908500	0.809800	0.069850
C2031	C203	0.905500	0.855600	0.096950
H1331	H133	0.892300	0.823000	0.113600
C2041	C204	0.921700	0.947700	0.099470
H1341	H134	0.918100	0.979400	0.118000
C2051	C205	0.945200	0.952900	0.051020
H1351	H135	0.958900	0.987200	0.034900
C2061	C206	0.929300	0.861200	0.045880
H1361	H136	0.932000	0.832600	0.026800
C2071	C207	0.915000	0.515400	0.013960
C2081	C208	0.939500	0.561900	0.991060
H1371	H137	0.947000	0.628800	0.992700
C2091	C209	0.952600	0.511500	0.966150
H1381	H138	0.969500	0.544700	0.950900
C2101	C210	0.920300	0.370800	0.984450
H1391	H139	0.914000	0.303600	0.982300
C2111	C211	0.906000	0.418100	0.010680
H1401	H140	0.890200	0.383000	0.026000
C2121	C212	0.838000	0.517800	0.108350
C2131	C213	0.840400	0.417400	0.109300
H1411	H141	0.857000	0.382900	0.094200
C2141	C214	0.819200	0.368700	0.131800
H1421	H142	0.820600	0.300000	0.131700
C2151	C215	0.792800	0.508800	0.153130
H1431	H143	0.775500	0.540700	0.168400
C2161	C216	0.812600	0.564300	0.131620
H1441	H144	0.809500	0.632800	0.132100
N611	N61	0.176000	0.021000	0.175460
N621	N62	0.261300	0.025300	0.172960
N631	N63	0.215600	0.063100	0.130370
N641	N64	0.041600	0.090500	0.103770
N651	N65	0.231200	0.904500	0.275590
N661	N66	0.387700	0.102600	0.098160
N671	N67	0.909300	0.664000	0.041490
N681	N68	0.874200	0.519900	0.060520
N691	N69	0.869700	0.666300	0.088200
N701	N70	0.942800	0.997500	0.076880
N711	N71	0.942700	0.418200	0.962400
N721	N72	0.796000	0.413300	0.154400
Zn191	Zn19	0.476520	0.371560	0.915320
Zn201	Zn20	0.738800	0.669080	0.685330
Zn211	Zn21	0.951480	0.354820	0.921690
I371	I37	0.494520	0.298420	0.966330
I381	I38	0.430730	0.283180	0.875280
I391	I39	0.693890	0.829050	0.692260
I401	I40	0.826760	0.667710	0.670100
I411	I41	0.945750	0.172430	0.926940
I421	I42	0.016260	0.447730	0.894450
C2171	C217	0.676600	0.452900	0.853440
C2181	C218	0.719800	0.489400	0.812670
C2191	C219	0.756900	0.449800	0.855040
C2201	C220	0.629300	0.440000	0.868500
C2211	C221	0.626500	0.419400	0.897860
H1451	H145	0.655100	0.415800	0.909300
C2221	C222	0.583300	0.403600	0.911230
H1461	H146	0.582600	0.388000	0.931700
C2231	C223	0.544600	0.432300	0.867300
H1471	H147	0.515500	0.437500	0.856400
C2241	C224	0.586600	0.448600	0.852760
H1481	H148	0.586700	0.465400	0.832300
C2251	C225	0.723600	0.522500	0.781640
C2261	C226	0.683000	0.559500	0.767160
H1491	H149	0.652400	0.560000	0.776400
C2271	C227	0.689600	0.596200	0.738230
H1501	H150	0.662600	0.622700	0.728300
C2281	C228	0.769200	0.557600	0.738280
H1511	H151	0.799100	0.555300	0.728100
C2291	C229	0.766900	0.521700	0.766780
H1521	H152	0.794900	0.496600	0.776100
C2301	C230	0.802400	0.433000	0.871450
C2311	C231	0.846900	0.442000	0.857480
H1531	H153	0.848400	0.460100	0.837200
C2321	C232	0.888200	0.424700	0.872960
H1541	H154	0.918200	0.432100	0.863200
C2331	C233	0.845400	0.389700	0.915460
H1551	H155	0.845100	0.370800	0.935700
C2341	C234	0.802000	0.407900	0.901690
H1561	H156	0.772700	0.403500	0.912300
C2351	C235	0.394300	0.793200	0.933800
C2361	C236	0.398800	0.930700	0.960200
C2371	C237	0.361500	0.928300	0.915560
C2381	C238	0.408500	0.690200	0.930150
C2391	C239	0.405500	0.644400	0.903050
H1571	H157	0.392300	0.677000	0.886400
C2401	C240	0.421700	0.552300	0.900530
H1581	H158	0.418100	0.520600	0.882000
C2411	C241	0.445200	0.547100	0.948980
H1591	H159	0.458900	0.512800	0.965100
C2421	C242	0.429300	0.638800	0.954120
H1601	H160	0.432000	0.667400	0.973200
C2431	C243	0.415000	0.984600	0.986040
C2441	C244	0.439500	0.938100	0.008940
H1611	H161	0.447000	0.871200	0.007300
C2451	C245	0.452600	0.988500	0.033850
H1621	H162	0.469500	0.955300	0.049100
C2461	C246	0.420300	0.129200	0.015550
H1631	H163	0.414000	0.196400	0.017700
C2471	C247	0.406000	0.081900	0.989320
H1641	H164	0.390200	0.117000	0.974000
C2481	C248	0.338000	0.982200	0.891650
C2491	C249	0.340400	0.082600	0.890700
H1651	H165	0.357000	0.117100	0.905800
C2501	C250	0.319200	0.131300	0.868200
H1661	H166	0.320600	0.200000	0.868300
C2511	C251	0.292800	0.991200	0.846870
H1671	H167	0.275500	0.959300	0.831600
C2521	C252	0.312600	0.935700	0.868380
H1681	H168	0.309500	0.867200	0.867900
N731	N73	0.676000	0.479000	0.824540
N741	N74	0.761300	0.474700	0.827040
N751	N75	0.715600	0.436900	0.869630
N761	N76	0.541600	0.409500	0.896230
N771	N77	0.731200	0.595500	0.724410
N781	N78	0.887700	0.397400	0.901840
N791	N79	0.409300	0.836000	0.958510
N801	N80	0.374200	0.980100	0.939480
N811	N81	0.369700	0.833700	0.911800
N821	N82	0.442800	0.502500	0.923120
N831	N83	0.442700	0.081800	0.037600
N841	N84	0.296000	0.086700	0.845600
Zn221	Zn22	0.023480	0.628440	0.415320
Zn231	Zn23	0.761200	0.330920	0.185330
Zn241	Zn24	0.548520	0.645180	0.421690
I431	I43	0.005480	0.701580	0.466330
I441	I44	0.069270	0.716820	0.375280
I451	I45	0.806110	0.170950	0.192260
I461	I46	0.673240	0.332290	0.170100
I471	I47	0.554250	0.827570	0.426940
I481	I48	0.483740	0.552270	0.394450
C2531	C253	0.823400	0.547100	0.353440
C2541	C254	0.780200	0.510600	0.312670
C2551	C255	0.743100	0.550200	0.355040
C2561	C256	0.870700	0.560000	0.368500
C2571	C257	0.873500	0.580600	0.397860
H1691	H169	0.844900	0.584200	0.409300
C2581	C258	0.916700	0.596400	0.411230
H1701	H170	0.917400	0.612000	0.431700
C2591	C259	0.955400	0.567700	0.367300
H1711	H171	0.984500	0.562500	0.356400
C2601	C260	0.913400	0.551400	0.352760
H1721	H172	0.913300	0.534600	0.332300
C2611	C261	0.776400	0.477500	0.281640
C2621	C262	0.817000	0.440500	0.267160
H1731	H173	0.847600	0.440000	0.276400
C2631	C263	0.810400	0.403800	0.238230
H1741	H174	0.837400	0.377300	0.228300
C2641	C264	0.730800	0.442400	0.238280
H1751	H175	0.700900	0.444700	0.228100
C2651	C265	0.733100	0.478300	0.266780
H1761	H176	0.705100	0.503400	0.276100
C2661	C266	0.697600	0.567000	0.371450
C2671	C267	0.653100	0.558000	0.357480
H1771	H177	0.651600	0.539900	0.337200
C2681	C268	0.611800	0.575300	0.372960
H1781	H178	0.581800	0.567900	0.363200
C2691	C269	0.654600	0.610300	0.415460
H1791	H179	0.654900	0.629200	0.435700
C2701	C270	0.698000	0.592100	0.401690
H1801	H180	0.727300	0.596500	0.412300
C2711	C271	0.105700	0.206800	0.433800
C2721	C272	0.101200	0.069300	0.460200
C2731	C273	0.138500	0.071700	0.415560
C2741	C274	0.091500	0.309800	0.430150
C2751	C275	0.094500	0.355600	0.403050
H1811	H181	0.107700	0.323000	0.386400
C2761	C276	0.078300	0.447700	0.400530
H1821	H182	0.081900	0.479400	0.382000
C2771	C277	0.054800	0.452900	0.448980
H1831	H183	0.041100	0.487200	0.465100
C2781	C278	0.070700	0.361200	0.454120
H1841	H184	0.068000	0.332600	0.473200
C2791	C279	0.085000	0.015400	0.486040
C2801	C280	0.060500	0.061900	0.508940
H1851	H185	0.053000	0.128800	0.507300
C2811	C281	0.047400	0.011500	0.533850
H1861	H186	0.030500	0.044700	0.549100
C2821	C282	0.079700	0.870800	0.515550
H1871	H187	0.086000	0.803600	0.517700
C2831	C283	0.094000	0.918100	0.489320
H1881	H188	0.109800	0.883000	0.474000
C2841	C284	0.162000	0.017800	0.391650
C2851	C285	0.159600	0.917400	0.390700
H1891	H189	0.143000	0.882900	0.405800
C2861	C286	0.180800	0.868700	0.368200
H1901	H190	0.179400	0.800000	0.368300
C2871	C287	0.207200	0.008800	0.346870
H1911	H191	0.224500	0.040700	0.331600
C2881	C288	0.187400	0.064300	0.368380
H1921	H192	0.190500	0.132800	0.367900
N851	N85	0.824000	0.521000	0.324540
N861	N86	0.738700	0.525300	0.327040
N871	N87	0.784400	0.563100	0.369630
N881	N88	0.958400	0.590500	0.396230
N891	N89	0.768800	0.404500	0.224410
N901	N90	0.612300	0.602600	0.401840
N911	N91	0.090700	0.164000	0.458510
N921	N92	0.125800	0.019900	0.439480
N931	N93	0.130300	0.166300	0.411800
N941	N94	0.057200	0.497500	0.423120
N951	N95	0.057300	0.918200	0.537600
N961	N96	0.204000	0.913300	0.345600
