data_SOJDEB_clean_PM
_symmetry_space_group_name_H-M	'P1'
_cell_length_a	11.396600
_cell_length_b	11.478700
_cell_length_c	16.877500
_cell_angle_alpha	90.000000
_cell_angle_beta	90.000000
_cell_angle_gamma	90.000000
_symmetry_Int_Tables_number 1

loop_
_symmetry_equiv_pos_as_xyz
'x,y,z'

loop_
_atom_site_label
_atom_site_type_symbol
_atom_site_fract_x
_atom_site_fract_y
_atom_site_fract_z
Cr11	Cr1	0.000000	0.500000	0.500000
Cr21	Cr2	0.000000	0.000000	0.000000
Cr31	Cr3	0.500000	0.500000	0.000000
Cr41	Cr4	0.500000	0.000000	0.500000
C11	C1	0.771600	0.603800	0.584800
C21	C2	0.634200	0.758600	0.590300
C31	C3	0.706000	0.512500	0.730100
C41	C4	0.548100	0.617900	0.831100
C51	C5	0.499800	0.769600	0.737800
C61	C6	0.682200	0.659800	0.628100
C71	C7	0.649100	0.619700	0.703300
C81	C8	0.566700	0.667200	0.754700
C91	C9	0.228400	0.896200	0.084800
C101	C10	0.365800	0.741400	0.090300
C111	C11	0.294000	0.987500	0.230100
C121	C12	0.451900	0.882100	0.331100
C131	C13	0.500200	0.730400	0.237800
C141	C14	0.317800	0.840200	0.128100
C151	C15	0.350900	0.880300	0.203300
C161	C16	0.433300	0.832800	0.254700
C171	C17	0.271600	0.396200	0.915200
C181	C18	0.134200	0.241400	0.909700
C191	C19	0.206000	0.487500	0.769900
C201	C20	0.048100	0.382100	0.668900
C211	C21	0.999800	0.230400	0.762200
C221	C22	0.182200	0.340200	0.871900
C231	C23	0.149100	0.380300	0.796700
C241	C24	0.066700	0.332800	0.745300
C251	C25	0.728400	0.103800	0.415200
C261	C26	0.865800	0.258600	0.409700
C271	C27	0.794000	0.012500	0.269900
C281	C28	0.951900	0.117900	0.168900
C291	C29	0.000200	0.269600	0.262200
C301	C30	0.817800	0.159800	0.371900
C311	C31	0.850900	0.119700	0.296700
C321	C32	0.933300	0.167200	0.245300
C331	C33	0.228400	0.396200	0.415200
C341	C34	0.365800	0.241400	0.409700
C351	C35	0.294000	0.487500	0.269900
C361	C36	0.451900	0.382100	0.168900
C371	C37	0.500200	0.230400	0.262200
C381	C38	0.317800	0.340200	0.371900
C391	C39	0.350900	0.380300	0.296700
C401	C40	0.433300	0.332800	0.245300
C411	C41	0.771600	0.103800	0.915200
C421	C42	0.634200	0.258600	0.909700
C431	C43	0.706000	0.012500	0.769900
C441	C44	0.548100	0.117900	0.668900
C451	C45	0.499800	0.269600	0.762200
C461	C46	0.682200	0.159800	0.871900
C471	C47	0.649100	0.119700	0.796700
C481	C48	0.566700	0.167200	0.745300
C491	C49	0.728400	0.603800	0.084800
C501	C50	0.865800	0.758600	0.090300
C511	C51	0.794000	0.512500	0.230100
C521	C52	0.951900	0.617900	0.331100
C531	C53	0.000200	0.769600	0.237800
C541	C54	0.817800	0.659800	0.128100
C551	C55	0.850900	0.619700	0.203300
C561	C56	0.933300	0.667200	0.254700
C571	C57	0.271600	0.896200	0.584800
C581	C58	0.134200	0.741400	0.590300
C591	C59	0.206000	0.987500	0.730100
C601	C60	0.048100	0.882100	0.831100
C611	C61	0.999800	0.730400	0.737800
C621	C62	0.182200	0.840200	0.628100
C631	C63	0.149100	0.880300	0.703300
C641	C64	0.066700	0.832800	0.754700
N11	N1	0.845400	0.561500	0.548500
N21	N2	0.598300	0.837700	0.555400
N31	N3	0.748400	0.427800	0.750500
N41	N4	0.533300	0.582300	0.893230
N51	N5	0.443800	0.850400	0.726400
N61	N6	0.154600	0.938500	0.048500
N71	N7	0.401700	0.662300	0.055400
N81	N8	0.251600	0.072200	0.250500
N91	N9	0.466700	0.917700	0.393230
N101	N10	0.556200	0.649600	0.226400
N111	N11	0.345400	0.438500	0.951500
N121	N12	0.098300	0.162300	0.944600
N131	N13	0.248400	0.572200	0.749500
N141	N14	0.033300	0.417700	0.606770
N151	N15	0.943800	0.149600	0.773600
N161	N16	0.654600	0.061500	0.451500
N171	N17	0.901700	0.337700	0.444600
N181	N18	0.751600	0.927800	0.249500
N191	N19	0.966700	0.082300	0.106770
N201	N20	0.056200	0.350400	0.273600
N211	N21	0.154600	0.438500	0.451500
N221	N22	0.401700	0.162300	0.444600
N231	N23	0.251600	0.572200	0.249500
N241	N24	0.466700	0.417700	0.106770
N251	N25	0.556200	0.149600	0.273600
N261	N26	0.845400	0.061500	0.951500
N271	N27	0.598300	0.337700	0.944600
N281	N28	0.748400	0.927800	0.749500
N291	N29	0.533300	0.082300	0.606770
N301	N30	0.443800	0.350400	0.773600
N311	N31	0.654600	0.561500	0.048500
N321	N32	0.901700	0.837700	0.055400
N331	N33	0.751600	0.427800	0.250500
N341	N34	0.966700	0.582300	0.393230
N351	N35	0.056200	0.850400	0.226400
N361	N36	0.345400	0.938500	0.548500
N371	N37	0.098300	0.662300	0.555400
N381	N38	0.248400	0.072200	0.750500
N391	N39	0.033300	0.917700	0.893230
N401	N40	0.943800	0.649600	0.726400
