data_SOJGOO_clean_PM
_symmetry_space_group_name_H-M	'P1'
_cell_length_a	11.849300
_cell_length_b	13.960400
_cell_length_c	34.273800
_cell_angle_alpha	97.096100
_cell_angle_beta	99.454300
_cell_angle_gamma	100.103000
_symmetry_Int_Tables_number 1

loop_
_symmetry_equiv_pos_as_xyz
'x,y,z'

loop_
_atom_site_label
_atom_site_type_symbol
_atom_site_fract_x
_atom_site_fract_y
_atom_site_fract_z
Ce11	Ce1	0.131670	0.957300	0.750180
Ce21	Ce2	0.841320	0.092200	0.752570
Ce31	Ce3	0.512810	0.986590	0.246260
Ce41	Ce4	0.868330	0.042700	0.249820
Ce51	Ce5	0.158680	0.907800	0.247430
Ce61	Ce6	0.487190	0.013410	0.753740
H11	H1	0.447600	0.451800	0.854200
H21	H2	0.603900	0.593200	0.850400
H31	H3	0.994400	0.789700	0.949000
H41	H4	0.102700	0.770700	0.014100
H51	H5	0.024900	0.532400	0.120600
H61	H6	0.874600	0.389700	0.123600
H71	H7	0.467500	0.204700	0.029300
H81	H8	0.361700	0.225600	0.963800
H91	H9	0.674700	0.514400	0.959900
H101	H10	0.793900	0.476700	0.016700
H111	H11	0.928200	0.643600	0.869400
H121	H12	0.982500	0.748000	0.824900
H131	H13	0.755200	0.914500	0.855000
H141	H14	0.698100	0.807100	0.898300
H151	H15	0.000700	0.787500	0.091200
H161	H16	0.139300	0.884400	0.143100
H171	H17	0.358300	0.696800	0.128000
H181	H18	0.212700	0.594900	0.078200
H191	H19	0.527300	0.306000	0.101600
H201	H20	0.510300	0.211900	0.152200
H211	H21	0.799300	0.111700	0.133500
H221	H22	0.813100	0.203800	0.081200
H231	H23	0.269800	0.429900	0.902200
H241	H24	0.110000	0.346700	0.855000
H251	H25	0.269100	0.115900	0.835200
H261	H26	0.430100	0.199100	0.884400
H271	H27	0.026100	0.440700	0.360700
H281	H28	0.183700	0.581900	0.359600
H291	H29	0.528400	0.809700	0.470500
H301	H30	0.612600	0.800000	0.540800
H311	H31	0.519200	0.561300	0.644700
H321	H32	0.360300	0.419000	0.645800
H331	H33	0.968000	0.236000	0.543700
H341	H34	0.881900	0.246400	0.473700
H351	H35	0.208000	0.526100	0.473500
H361	H36	0.304000	0.501700	0.536100
H371	H37	0.203500	0.777500	0.398300
H381	H38	0.238600	0.873100	0.349400
H391	H39	0.556300	0.802900	0.355300
H401	H40	0.516100	0.697600	0.400700
H411	H41	0.510200	0.802400	0.625200
H421	H42	0.664600	0.894300	0.674300
H431	H43	0.871000	0.712300	0.641600
H441	H44	0.717500	0.622300	0.592100
H451	H45	0.039300	0.379800	0.622300
H461	H46	0.977100	0.284300	0.667900
H471	H47	0.207200	0.111300	0.645800
H481	H48	0.265500	0.207100	0.598500
H491	H49	0.817100	0.420500	0.396300
H501	H50	0.680000	0.323100	0.344700
H511	H51	0.861400	0.100900	0.351900
H521	H52	0.990200	0.197900	0.406700
H531	H53	0.318700	0.238600	0.756400
H541	H54	0.552400	0.548200	0.145800
H551	H55	0.396100	0.406800	0.149600
H561	H56	0.005600	0.210300	0.051000
H571	H57	0.897300	0.229300	0.985900
H581	H58	0.975100	0.467600	0.879400
H591	H59	0.125400	0.610300	0.876400
H601	H60	0.532500	0.795300	0.970700
H611	H61	0.638300	0.774400	0.036200
H621	H62	0.325300	0.485600	0.040100
H631	H63	0.206100	0.523300	0.983300
H641	H64	0.071800	0.356400	0.130600
H651	H65	0.017500	0.252000	0.175100
H661	H66	0.244800	0.085500	0.145000
H671	H67	0.301900	0.192900	0.101700
H681	H68	0.999300	0.212500	0.908800
H691	H69	0.860700	0.115600	0.856900
H701	H70	0.641700	0.303200	0.872000
H711	H71	0.787300	0.405100	0.921800
H721	H72	0.472700	0.694000	0.898400
H731	H73	0.489700	0.788100	0.847800
H741	H74	0.200700	0.888300	0.866500
H751	H75	0.186900	0.796200	0.918800
H761	H76	0.730200	0.570100	0.097800
H771	H77	0.890000	0.653300	0.145000
H781	H78	0.730900	0.884100	0.164800
H791	H79	0.569900	0.800900	0.115600
H801	H80	0.973900	0.559300	0.639300
H811	H81	0.816300	0.418100	0.640400
H821	H82	0.471600	0.190300	0.529500
H831	H83	0.387400	0.200000	0.459200
H841	H84	0.480800	0.438700	0.355300
H851	H85	0.639700	0.581000	0.354200
H861	H86	0.032000	0.764000	0.456300
H871	H87	0.118100	0.753600	0.526300
H881	H88	0.792000	0.473900	0.526500
H891	H89	0.696000	0.498300	0.463900
H901	H90	0.796500	0.222500	0.601700
H911	H91	0.761400	0.126900	0.650600
H921	H92	0.443700	0.197100	0.644700
H931	H93	0.483900	0.302400	0.599300
H941	H94	0.489800	0.197600	0.374800
H951	H95	0.335400	0.105700	0.325700
H961	H96	0.129000	0.287700	0.358400
H971	H97	0.282500	0.377700	0.407900
H981	H98	0.960700	0.620200	0.377700
H991	H99	0.022900	0.715700	0.332100
H1001	H100	0.792800	0.888700	0.354200
H1011	H101	0.734500	0.792900	0.401500
H1021	H102	0.182900	0.579500	0.603700
H1031	H103	0.320000	0.676900	0.655300
H1041	H104	0.138600	0.899100	0.648100
H1051	H105	0.009800	0.802100	0.593300
H1061	H106	0.681300	0.761400	0.243600
C11	C1	0.541000	0.455800	0.913980
C21	C2	0.512800	0.482200	0.874590
C31	C3	0.598300	0.559300	0.872600
C41	C4	0.679500	0.580200	0.910700
C51	C5	0.781800	0.651700	0.919380
C61	C6	0.868200	0.666400	0.953900
C71	C7	0.971100	0.740800	0.964650
C81	C8	0.030100	0.731200	0.000400
C91	C9	0.963100	0.649900	0.014170
C101	C10	0.992700	0.615600	0.050460
C111	C11	0.929100	0.532900	0.062040
C121	C12	0.959100	0.502800	0.100260
C131	C13	0.877400	0.425600	0.101810
C141	C14	0.794000	0.405900	0.064740
C151	C15	0.689800	0.334400	0.056320
C161	C16	0.601000	0.322200	0.022830
C171	C17	0.493500	0.251700	0.013250
C181	C18	0.435300	0.263600	0.977480
C191	C19	0.503400	0.343400	0.963530
C201	C20	0.474800	0.378000	0.927180
C211	C21	0.809400	0.715700	0.889070
C221	C22	0.892500	0.698900	0.866600
C231	C23	0.925000	0.760900	0.840030
C241	C24	0.873700	0.841900	0.835450
C251	C25	0.790400	0.858900	0.857620
C261	C26	0.757400	0.795400	0.883810
C271	C27	0.914600	0.910000	0.808320
C281	C28	0.090200	0.679800	0.080790
C291	C29	0.072000	0.767100	0.099490
C301	C30	0.154700	0.825500	0.129910
C311	C31	0.260800	0.798000	0.141280
C321	C32	0.284100	0.713800	0.121360
C331	C33	0.197800	0.653900	0.091430
C341	C34	0.349200	0.861100	0.175930
C351	C35	0.672500	0.267400	0.087020
C361	C36	0.583500	0.266700	0.108070
C371	C37	0.573100	0.211000	0.138210
C381	C38	0.654100	0.153900	0.148050
C391	C39	0.743700	0.151400	0.126950
C401	C40	0.752600	0.206900	0.096100
C411	C41	0.651100	0.096600	0.181800
C421	C42	0.367500	0.321800	0.898260
C431	C43	0.269900	0.366000	0.888850
C441	C44	0.175900	0.317000	0.860610
C451	C45	0.174100	0.223900	0.839700
C461	C46	0.269100	0.179500	0.848760
C471	C47	0.365100	0.229600	0.878200
C481	C48	0.071300	0.175600	0.807740
C491	C49	0.090900	0.459100	0.424180
C501	C50	0.082100	0.476700	0.383070
C511	C51	0.167700	0.553500	0.382440
C521	C52	0.231200	0.584400	0.423450
C531	C53	0.326600	0.661300	0.434630
C541	C54	0.401000	0.682600	0.472040
C551	C55	0.500000	0.761500	0.485760
C561	C56	0.546800	0.756000	0.524440
C571	C57	0.479600	0.672800	0.535910
C581	C58	0.499000	0.642600	0.573350
C591	C59	0.431700	0.560400	0.584200
C601	C60	0.455600	0.531600	0.623500
C611	C61	0.369500	0.453900	0.624050
C621	C62	0.293800	0.434400	0.584580
C631	C63	0.190700	0.363400	0.574370
C641	C64	0.109800	0.349100	0.538560
C651	C65	0.000900	0.278900	0.527310
C661	C66	0.953300	0.285100	0.488850
C671	C67	0.028800	0.359300	0.475310
C681	C68	0.016600	0.384800	0.437000
C691	C69	0.353800	0.726700	0.404750
C701	C70	0.275000	0.780700	0.388950
C711	C71	0.296100	0.838900	0.360210
C721	C72	0.401600	0.847300	0.347130
C731	C73	0.482800	0.795700	0.363440
C741	C74	0.460200	0.734400	0.391040
C751	C75	0.430900	0.910100	0.317070
C761	C76	0.598300	0.701500	0.603610
C771	C77	0.584000	0.783600	0.628250
C781	C78	0.676500	0.838900	0.657520
C791	C79	0.783600	0.814100	0.662260
C801	C80	0.797700	0.732000	0.638200
C811	C81	0.705200	0.677500	0.608820
C821	C82	0.884900	0.871500	0.693480
C831	C83	0.156500	0.302300	0.605370
C841	C84	0.072800	0.324200	0.626700
C851	C85	0.036400	0.268300	0.654110
C861	C86	0.086200	0.188600	0.661680
C871	C87	0.172200	0.166000	0.640770
C881	C88	0.207000	0.222900	0.612650
C891	C89	0.045100	0.126700	0.690800
C901	C90	0.920000	0.319800	0.406160
C911	C91	0.825300	0.355300	0.387460
C921	C92	0.744500	0.298000	0.356760
C931	C93	0.756500	0.201600	0.342790
C941	C94	0.851000	0.165100	0.361220
C951	C95	0.928700	0.224000	0.393190
C961	C96	0.676400	0.138600	0.307100
C971	C97	0.362100	0.187400	0.757000
C981	C98	0.459000	0.544200	0.086020
C991	C99	0.487200	0.517800	0.125410
C1001	C100	0.401700	0.440700	0.127400
C1011	C101	0.320500	0.419800	0.089300
C1021	C102	0.218200	0.348300	0.080620
C1031	C103	0.131800	0.333600	0.046100
C1041	C104	0.028900	0.259200	0.035350
C1051	C105	0.969900	0.268800	0.999600
C1061	C106	0.036900	0.350100	0.985830
C1071	C107	0.007300	0.384400	0.949540
C1081	C108	0.070900	0.467100	0.937960
C1091	C109	0.040900	0.497200	0.899740
C1101	C110	0.122600	0.574400	0.898190
C1111	C111	0.206000	0.594100	0.935260
C1121	C112	0.310200	0.665600	0.943680
C1131	C113	0.399000	0.677800	0.977170
C1141	C114	0.506500	0.748300	0.986750
C1151	C115	0.564700	0.736400	0.022520
C1161	C116	0.496600	0.656600	0.036470
C1171	C117	0.525200	0.622000	0.072820
C1181	C118	0.190600	0.284300	0.110930
C1191	C119	0.107500	0.301100	0.133400
C1201	C120	0.075000	0.239100	0.159970
C1211	C121	0.126300	0.158100	0.164550
C1221	C122	0.209600	0.141100	0.142380
C1231	C123	0.242600	0.204600	0.116190
C1241	C124	0.085400	0.090000	0.191680
C1251	C125	0.909800	0.320200	0.919210
C1261	C126	0.928000	0.232900	0.900510
C1271	C127	0.845300	0.174500	0.870090
C1281	C128	0.739200	0.202000	0.858720
C1291	C129	0.715900	0.286200	0.878640
C1301	C130	0.802200	0.346100	0.908570
C1311	C131	0.650800	0.138900	0.824070
C1321	C132	0.327500	0.732600	0.912980
C1331	C133	0.416500	0.733300	0.891930
C1341	C134	0.426900	0.789000	0.861790
C1351	C135	0.345900	0.846100	0.851950
C1361	C136	0.256300	0.848600	0.873050
C1371	C137	0.247400	0.793100	0.903900
C1381	C138	0.348900	0.903400	0.818200
C1391	C139	0.632500	0.678200	0.101740
C1401	C140	0.730100	0.634000	0.111150
C1411	C141	0.824100	0.683000	0.139390
C1421	C142	0.825900	0.776100	0.160300
C1431	C143	0.730900	0.820500	0.151240
C1441	C144	0.634900	0.770400	0.121800
C1451	C145	0.928700	0.824400	0.192260
C1461	C146	0.909100	0.540900	0.575820
C1471	C147	0.917900	0.523300	0.616930
C1481	C148	0.832300	0.446500	0.617560
C1491	C149	0.768800	0.415600	0.576550
C1501	C150	0.673400	0.338700	0.565370
C1511	C151	0.599000	0.317400	0.527960
C1521	C152	0.500000	0.238500	0.514240
C1531	C153	0.453200	0.244000	0.475560
C1541	C154	0.520400	0.327200	0.464090
C1551	C155	0.501000	0.357400	0.426650
C1561	C156	0.568300	0.439600	0.415800
C1571	C157	0.544400	0.468400	0.376500
C1581	C158	0.630500	0.546100	0.375950
C1591	C159	0.706200	0.565600	0.415420
C1601	C160	0.809300	0.636600	0.425630
C1611	C161	0.890200	0.650900	0.461440
C1621	C162	0.999100	0.721100	0.472690
C1631	C163	0.046700	0.714900	0.511150
C1641	C164	0.971200	0.640700	0.524690
C1651	C165	0.983400	0.615200	0.563000
C1661	C166	0.646200	0.273300	0.595250
C1671	C167	0.725000	0.219300	0.611050
C1681	C168	0.703900	0.161100	0.639790
C1691	C169	0.598400	0.152700	0.652870
C1701	C170	0.517200	0.204300	0.636560
C1711	C171	0.539800	0.265600	0.608960
C1721	C172	0.569100	0.089900	0.682930
C1731	C173	0.401700	0.298500	0.396390
C1741	C174	0.416000	0.216400	0.371750
C1751	C175	0.323500	0.161100	0.342480
C1761	C176	0.216400	0.185900	0.337740
C1771	C177	0.202300	0.268000	0.361800
C1781	C178	0.294800	0.322500	0.391180
C1791	C179	0.115100	0.128500	0.306520
C1801	C180	0.843500	0.697700	0.394630
C1811	C181	0.927200	0.675800	0.373300
C1821	C182	0.963600	0.731700	0.345890
C1831	C183	0.913800	0.811400	0.338320
C1841	C184	0.827800	0.834000	0.359230
C1851	C185	0.793000	0.777100	0.387350
C1861	C186	0.954900	0.873300	0.309200
C1871	C187	0.080000	0.680200	0.593840
C1881	C188	0.174700	0.644700	0.612540
C1891	C189	0.255500	0.702000	0.643240
C1901	C190	0.243500	0.798400	0.657210
C1911	C191	0.149000	0.834900	0.638780
C1921	C192	0.071300	0.776000	0.606810
C1931	C193	0.323600	0.861400	0.692900
C1941	C194	0.637900	0.812600	0.243000
N11	N1	0.641100	0.516200	0.935220
N21	N2	0.866000	0.611500	0.985220
N31	N3	0.829300	0.473100	0.041010
N41	N4	0.603100	0.377800	0.991940
N51	N5	0.183400	0.523700	0.447630
N61	N6	0.390100	0.630800	0.503900
N71	N7	0.334400	0.499400	0.561160
N81	N8	0.123900	0.397300	0.506240
N91	N9	0.358900	0.483800	0.064780
N101	N10	0.134000	0.388500	0.014780
N111	N11	0.170700	0.526900	0.958990
N121	N12	0.396900	0.622200	0.008060
N131	N13	0.816600	0.476300	0.552370
N141	N14	0.609900	0.369200	0.496100
N151	N15	0.665600	0.500600	0.438840
N161	N16	0.876100	0.602700	0.493760
O11	O1	0.997600	0.891800	0.791590
O21	O2	0.860300	0.979100	0.802410
O31	O3	0.311500	0.892700	0.206290
O41	O4	0.454100	0.882900	0.173650
O51	O5	0.568600	0.101300	0.200980
O61	O6	0.728100	0.049200	0.191060
O71	O7	0.983600	0.215700	0.803620
O81	O8	0.073400	0.096500	0.785510
O91	O9	0.350500	0.934800	0.293050
O101	O10	0.537300	0.940300	0.315700
O111	O11	0.868000	0.947000	0.714870
O121	O12	0.980800	0.842900	0.698300
O131	O13	0.094100	0.055800	0.697550
O141	O14	0.962300	0.149300	0.706980
O151	O15	0.572300	0.151400	0.297400
O161	O16	0.713300	0.075500	0.286000
O171	O17	0.315300	0.099100	0.759890
O181	O18	0.474200	0.203300	0.754850
O191	O19	0.002400	0.108200	0.208410
O201	O20	0.139700	0.020900	0.197590
O211	O21	0.688500	0.107300	0.793710
O221	O22	0.545900	0.117100	0.826350
O231	O23	0.431400	0.898700	0.799020
O241	O24	0.271900	0.950800	0.808940
O251	O25	0.016400	0.784300	0.196380
O261	O26	0.926600	0.903500	0.214490
O271	O27	0.649500	0.065200	0.706950
O281	O28	0.462700	0.059700	0.684300
O291	O29	0.132000	0.053000	0.285130
O301	O30	0.019200	0.157100	0.301700
O311	O31	0.905900	0.944200	0.302450
O321	O32	0.037700	0.850700	0.293020
O331	O33	0.427700	0.848600	0.702600
O341	O34	0.286700	0.924500	0.714000
O351	O35	0.684700	0.900900	0.240110
O361	O36	0.525800	0.796700	0.245150
