data_SOJKOT02_clean_PM
_symmetry_space_group_name_H-M	'P1'
_cell_length_a	7.941500
_cell_length_b	13.846000
_cell_length_c	7.310300
_cell_angle_alpha	90.000000
_cell_angle_beta	90.000000
_cell_angle_gamma	90.000000
_symmetry_Int_Tables_number 1

loop_
_symmetry_equiv_pos_as_xyz
'x,y,z'

loop_
_atom_site_label
_atom_site_type_symbol
_atom_site_fract_x
_atom_site_fract_y
_atom_site_fract_z
Co11	Co1	0.220600	0.335450	0.759410
O11	O1	0.105200	0.228590	0.608100
O21	O2	0.926900	0.164020	0.412000
O31	O3	0.308840	0.211940	0.902600
O41	O4	0.505620	0.145240	0.077300
O51	O5	0.112100	0.452900	0.619000
O61	O6	0.131610	0.572420	0.418900
C11	C1	0.985900	0.233630	0.498400
H11	H1	0.936100	0.295200	0.479100
C21	C2	0.443500	0.214280	0.991700
H21	H2	0.503200	0.273700	0.994100
C31	C3	0.193300	0.504490	0.508700
H31	H3	0.309600	0.490900	0.492600
Co21	Co2	0.279400	0.664550	0.259410
O71	O7	0.394800	0.771410	0.108100
O81	O8	0.573100	0.835980	0.912000
O91	O9	0.191160	0.788060	0.402600
O101	O10	0.994380	0.854760	0.577300
O111	O11	0.387900	0.547100	0.119000
O121	O12	0.368390	0.427580	0.918900
C41	C4	0.514100	0.766370	0.998400
H41	H4	0.563900	0.704800	0.979100
C51	C5	0.056500	0.785720	0.491700
H51	H5	0.996800	0.726300	0.494100
C61	C6	0.306700	0.495510	0.008700
H61	H6	0.190400	0.509100	0.992600
Co31	Co3	0.779400	0.835450	0.740590
O131	O13	0.894800	0.728590	0.891900
O141	O14	0.073100	0.664020	0.088000
O151	O15	0.691160	0.711940	0.597400
O161	O16	0.494380	0.645240	0.422700
O171	O17	0.887900	0.952900	0.881000
O181	O18	0.868390	0.072420	0.081100
C71	C7	0.014100	0.733630	0.001600
H71	H7	0.063900	0.795200	0.020900
C81	C8	0.556500	0.714280	0.508300
H81	H8	0.496800	0.773700	0.505900
C91	C9	0.806700	0.004490	0.991300
H91	H9	0.690400	0.990900	0.007400
Co41	Co4	0.720600	0.164550	0.240590
O191	O19	0.605200	0.271410	0.391900
O201	O20	0.426900	0.335980	0.588000
O211	O21	0.808840	0.288060	0.097400
O221	O22	0.005620	0.354760	0.922700
O231	O23	0.612100	0.047100	0.381000
O241	O24	0.631610	0.927580	0.581100
C101	C10	0.485900	0.266370	0.501600
H101	H10	0.436100	0.204800	0.520900
C111	C11	0.943500	0.285720	0.008300
H111	H11	0.003200	0.226300	0.005900
C121	C12	0.693300	0.995510	0.491300
H121	H12	0.809600	0.009100	0.507400
