data_SOJKOT03_clean_PM
_symmetry_space_group_name_H-M	'P1'
_cell_length_a	7.934100
_cell_length_b	13.869700
_cell_length_c	7.336100
_cell_angle_alpha	90.000000
_cell_angle_beta	90.000000
_cell_angle_gamma	90.000000
_symmetry_Int_Tables_number 1

loop_
_symmetry_equiv_pos_as_xyz
'x,y,z'

loop_
_atom_site_label
_atom_site_type_symbol
_atom_site_fract_x
_atom_site_fract_y
_atom_site_fract_z
Co11	Co1	0.223060	0.335450	0.758870
O11	O1	0.107200	0.228710	0.608300
O21	O2	0.929300	0.163910	0.413300
O31	O3	0.312800	0.212600	0.901400
O41	O4	0.508400	0.146260	0.077100
O51	O5	0.113300	0.452270	0.617800
O61	O6	0.130600	0.571520	0.418500
C11	C1	0.988900	0.232980	0.498700
H11	H1	0.940600	0.293200	0.478800
C21	C2	0.445200	0.214760	0.993300
H21	H2	0.501700	0.273400	0.999400
C31	C3	0.191700	0.504140	0.507300
H31	H3	0.305600	0.491000	0.490300
Co21	Co2	0.276940	0.664550	0.258870
O71	O7	0.392800	0.771290	0.108300
O81	O8	0.570700	0.836090	0.913300
O91	O9	0.187200	0.787400	0.401400
O101	O10	0.991600	0.853740	0.577100
O111	O11	0.386700	0.547730	0.117800
O121	O12	0.369400	0.428480	0.918500
C41	C4	0.511100	0.767020	0.998700
H41	H4	0.559400	0.706800	0.978800
C51	C5	0.054800	0.785240	0.493300
H51	H5	0.998300	0.726600	0.499400
C61	C6	0.308300	0.495860	0.007300
H61	H6	0.194400	0.509000	0.990300
Co31	Co3	0.776940	0.835450	0.741130
O131	O13	0.892800	0.728710	0.891700
O141	O14	0.070700	0.663910	0.086700
O151	O15	0.687200	0.712600	0.598600
O161	O16	0.491600	0.646260	0.422900
O171	O17	0.886700	0.952270	0.882200
O181	O18	0.869400	0.071520	0.081500
C71	C7	0.011100	0.732980	0.001300
H71	H7	0.059400	0.793200	0.021200
C81	C8	0.554800	0.714760	0.506700
H81	H8	0.498300	0.773400	0.500600
C91	C9	0.808300	0.004140	0.992700
H91	H9	0.694400	0.991000	0.009700
Co41	Co4	0.723060	0.164550	0.241130
O191	O19	0.607200	0.271290	0.391700
O201	O20	0.429300	0.336090	0.586700
O211	O21	0.812800	0.287400	0.098600
O221	O22	0.008400	0.353740	0.922900
O231	O23	0.613300	0.047730	0.382200
O241	O24	0.630600	0.928480	0.581500
C101	C10	0.488900	0.267020	0.501300
H101	H10	0.440600	0.206800	0.521200
C111	C11	0.945200	0.285240	0.006700
H111	H11	0.001700	0.226600	0.000600
C121	C12	0.691700	0.995860	0.492700
H121	H12	0.805600	0.009000	0.509700
