data_SOJKOT01_clean_PM
_symmetry_space_group_name_H-M	'P1'
_cell_length_a	7.943500
_cell_length_b	13.833900
_cell_length_c	7.301600
_cell_angle_alpha	90.000000
_cell_angle_beta	90.000000
_cell_angle_gamma	90.000000
_symmetry_Int_Tables_number 1

loop_
_symmetry_equiv_pos_as_xyz
'x,y,z'

loop_
_atom_site_label
_atom_site_type_symbol
_atom_site_fract_x
_atom_site_fract_y
_atom_site_fract_z
Co11	Co1	0.219190	0.335410	0.759690
O11	O1	0.104510	0.228480	0.608390
O21	O2	0.925710	0.163840	0.411390
O31	O3	0.306740	0.211470	0.902910
O41	O4	0.503410	0.144500	0.078310
O51	O5	0.111680	0.453140	0.619600
O61	O6	0.132010	0.572730	0.418220
C11	C1	0.984400	0.234050	0.498700
H11	H1	0.934200	0.295600	0.480200
C21	C2	0.442800	0.214120	0.991000
H21	H2	0.503800	0.273200	0.991200
C31	C3	0.194100	0.505010	0.509400
H31	H3	0.310700	0.491800	0.494700
Co21	Co2	0.280810	0.664590	0.259690
O71	O7	0.395490	0.771520	0.108390
O81	O8	0.574290	0.836160	0.911390
O91	O9	0.193260	0.788530	0.402910
O101	O10	0.996590	0.855500	0.578310
O111	O11	0.388320	0.546860	0.119600
O121	O12	0.367990	0.427270	0.918220
C41	C4	0.515600	0.765950	0.998700
H41	H4	0.565800	0.704400	0.980200
C51	C5	0.057200	0.785880	0.491000
H51	H5	0.996200	0.726800	0.491200
C61	C6	0.305900	0.494990	0.009400
H61	H6	0.189300	0.508200	0.994700
Co31	Co3	0.780810	0.835410	0.740310
O131	O13	0.895490	0.728480	0.891610
O141	O14	0.074290	0.663840	0.088610
O151	O15	0.693260	0.711470	0.597090
O161	O16	0.496590	0.644500	0.421690
O171	O17	0.888320	0.953140	0.880400
O181	O18	0.867990	0.072730	0.081780
C71	C7	0.015600	0.734050	0.001300
H71	H7	0.065800	0.795600	0.019800
C81	C8	0.557200	0.714120	0.509000
H81	H8	0.496200	0.773200	0.508800
C91	C9	0.805900	0.005010	0.990600
H91	H9	0.689300	0.991800	0.005300
Co41	Co4	0.719190	0.164590	0.240310
O191	O19	0.604510	0.271520	0.391610
O201	O20	0.425710	0.336160	0.588610
O211	O21	0.806740	0.288530	0.097090
O221	O22	0.003410	0.355500	0.921690
O231	O23	0.611680	0.046860	0.380400
O241	O24	0.632010	0.927270	0.581780
C101	C10	0.484400	0.265950	0.501300
H101	H10	0.434200	0.204400	0.519800
C111	C11	0.942800	0.285880	0.009000
H111	H11	0.003800	0.226800	0.008800
C121	C12	0.694100	0.994990	0.490600
H121	H12	0.810700	0.008200	0.505300
