data_SOJSUH_clean_PM
_symmetry_space_group_name_H-M	'P1'
_cell_length_a	31.517000
_cell_length_b	14.882000
_cell_length_c	28.494000
_cell_angle_alpha	90.000000
_cell_angle_beta	120.190000
_cell_angle_gamma	90.000000
_symmetry_Int_Tables_number 1

loop_
_symmetry_equiv_pos_as_xyz
'x,y,z'

loop_
_atom_site_label
_atom_site_type_symbol
_atom_site_fract_x
_atom_site_fract_y
_atom_site_fract_z
Gd11	Gd1	0.267520	0.118110	0.487810
O11	O1	0.074310	0.357100	0.355800
H11	H1	0.089000	0.402700	0.356000
O21	O2	0.253070	0.974300	0.128190
H21	H2	0.234300	0.014200	0.109300
O31	O3	0.228590	0.070400	0.301240
H31	H3	0.232800	0.119600	0.316000
O41	O4	0.241170	0.867700	0.050910
O51	O5	0.203220	0.739800	0.040900
O61	O6	0.250820	0.072900	0.401100
O71	O7	0.325330	0.048500	0.464610
O81	O8	0.200660	0.208700	0.437460
O91	O9	0.161130	0.335300	0.434570
C11	C1	0.127670	0.239500	0.357700
C21	C2	0.133800	0.172400	0.328700
H41	H4	0.162100	0.137500	0.346000
C31	C3	0.100000	0.154300	0.275100
C41	C4	0.056200	0.206400	0.247100
C51	C5	0.047400	0.272000	0.275500
C61	C6	0.081920	0.291700	0.327800
H51	H5	0.999500	0.364300	0.222300
C71	C7	0.023200	0.188500	0.190300
H61	H6	0.993400	0.218900	0.172100
C81	C8	0.034700	0.129400	0.164000
H71	H7	0.016700	0.126700	0.126300
C91	C9	0.211100	0.829100	0.110120
C101	C10	0.187400	0.768400	0.125600
H81	H8	0.176300	0.714500	0.106800
C111	C11	0.179580	0.786000	0.169190
C121	C12	0.198170	0.866500	0.199300
C131	C13	0.228020	0.913200	0.141050
C141	C14	0.224470	0.928300	0.186440
C151	C15	0.244550	0.017100	0.219000
H91	H9	0.257100	0.053600	0.200400
H101	H10	0.217100	0.049300	0.217400
C161	C16	0.187400	0.881500	0.240500
H111	H11	0.197100	0.934800	0.260200
C171	C17	0.295120	0.047900	0.413530
C181	C18	0.271500	0.034800	0.314600
C191	C19	0.351500	0.992000	0.386000
H121	H12	0.373000	0.979500	0.422500
C201	C20	0.306770	0.028500	0.372800
C211	C21	0.284120	0.010300	0.277640
C221	C22	0.331030	0.976200	0.293300
C231	C23	0.367280	0.972100	0.349700
C241	C24	0.345600	0.954000	0.255100
H131	H13	0.322900	0.959200	0.218200
C251	C25	0.392500	0.925000	0.270900
H141	H14	0.400600	0.908700	0.244900
C261	C26	0.162000	0.816100	0.252200
H151	H15	0.156000	0.826900	0.280500
C271	C27	0.413900	0.943000	0.362300
H161	H16	0.437200	0.939200	0.399000
C281	C28	0.219770	0.808700	0.065050
C291	C29	0.107500	0.090800	0.242800
H171	H17	0.138500	0.064700	0.258600
C301	C30	0.077500	0.066000	0.195600
H181	H18	0.081100	0.012600	0.181000
C311	C31	0.165390	0.260700	0.413100
C321	C32	0.145200	0.735400	0.223300
H191	H19	0.128100	0.692900	0.231300
C331	C33	0.155200	0.723900	0.184100
H201	H20	0.145400	0.670300	0.164900
C341	C34	0.428800	0.920000	0.327700
H211	H21	0.460900	0.901800	0.339600
Gd21	Gd2	0.767510	0.618110	0.487810
O101	O10	0.574310	0.857100	0.355800
H221	H22	0.589000	0.902700	0.356000
O111	O11	0.753070	0.474300	0.128190
H231	H23	0.734300	0.514200	0.109300
O121	O12	0.728590	0.570400	0.301240
H241	H24	0.732800	0.619600	0.316000
O131	O13	0.741170	0.367700	0.050910
O141	O14	0.703220	0.239800	0.040900
O151	O15	0.750820	0.572900	0.401100
O161	O16	0.825330	0.548500	0.464610
O171	O17	0.700660	0.708700	0.437460
O181	O18	0.661130	0.835300	0.434570
C351	C35	0.627670	0.739500	0.357700
C361	C36	0.633800	0.672400	0.328700
H251	H25	0.662100	0.637500	0.346000
C371	C37	0.600000	0.654300	0.275100
C381	C38	0.556200	0.706400	0.247100
C391	C39	0.547400	0.772000	0.275500
C401	C40	0.581920	0.791700	0.327800
H261	H26	0.499500	0.864300	0.222300
C411	C41	0.523200	0.688500	0.190300
H271	H27	0.493400	0.718900	0.172100
C421	C42	0.534700	0.629400	0.164000
H281	H28	0.516700	0.626700	0.126300
C431	C43	0.711100	0.329100	0.110120
C441	C44	0.687400	0.268400	0.125600
H291	H29	0.676300	0.214500	0.106800
C451	C45	0.679580	0.286000	0.169190
C461	C46	0.698170	0.366500	0.199300
C471	C47	0.728020	0.413200	0.141050
C481	C48	0.724470	0.428300	0.186440
C491	C49	0.744550	0.517100	0.219000
H301	H30	0.757100	0.553600	0.200400
H311	H31	0.717100	0.549300	0.217400
C501	C50	0.687400	0.381500	0.240500
H321	H32	0.697100	0.434800	0.260200
C511	C51	0.795120	0.547900	0.413530
C521	C52	0.771500	0.534800	0.314600
C531	C53	0.851500	0.492000	0.386000
H331	H33	0.873000	0.479500	0.422500
C541	C54	0.806770	0.528500	0.372800
C551	C55	0.784120	0.510300	0.277640
C561	C56	0.831030	0.476200	0.293300
C571	C57	0.867280	0.472100	0.349700
C581	C58	0.845600	0.454000	0.255100
H341	H34	0.822900	0.459200	0.218200
C591	C59	0.892500	0.425000	0.270900
H351	H35	0.900600	0.408700	0.244900
C601	C60	0.662000	0.316100	0.252200
H361	H36	0.656000	0.326900	0.280500
C611	C61	0.913900	0.443000	0.362300
H371	H37	0.937200	0.439200	0.399000
C621	C62	0.719770	0.308700	0.065050
C631	C63	0.607500	0.590800	0.242800
H381	H38	0.638500	0.564700	0.258600
C641	C64	0.577500	0.566000	0.195600
H391	H39	0.581100	0.512600	0.181000
C651	C65	0.665390	0.760700	0.413100
C661	C66	0.645200	0.235400	0.223300
H401	H40	0.628100	0.192900	0.231300
C671	C67	0.655200	0.223900	0.184100
H411	H41	0.645400	0.170300	0.164900
C681	C68	0.928800	0.420000	0.327700
H421	H42	0.960900	0.401800	0.339600
Gd31	Gd3	0.732480	0.118110	0.012190
O191	O19	0.925690	0.357100	0.144200
H431	H43	0.911000	0.402700	0.144000
O201	O20	0.746930	0.974300	0.371810
H441	H44	0.765700	0.014200	0.390700
O211	O21	0.771410	0.070400	0.198760
H451	H45	0.767200	0.119600	0.184000
O221	O22	0.758830	0.867700	0.449090
O231	O23	0.796780	0.739800	0.459100
O241	O24	0.749180	0.072900	0.098900
O251	O25	0.674670	0.048500	0.035390
O261	O26	0.799340	0.208700	0.062540
O271	O27	0.838870	0.335300	0.065430
C691	C69	0.872330	0.239500	0.142300
C701	C70	0.866200	0.172400	0.171300
H461	H46	0.837900	0.137500	0.154000
C711	C71	0.900000	0.154300	0.224900
C721	C72	0.943800	0.206400	0.252900
C731	C73	0.952600	0.272000	0.224500
C741	C74	0.918080	0.291700	0.172200
H471	H47	0.000500	0.364300	0.277700
C751	C75	0.976800	0.188500	0.309700
H481	H48	0.006600	0.218900	0.327900
C761	C76	0.965300	0.129400	0.336000
H491	H49	0.983300	0.126700	0.373700
C771	C77	0.788900	0.829100	0.389880
C781	C78	0.812600	0.768400	0.374400
H501	H50	0.823700	0.714500	0.393200
C791	C79	0.820420	0.786000	0.330810
C801	C80	0.801830	0.866500	0.300700
C811	C81	0.771980	0.913200	0.358950
C821	C82	0.775530	0.928300	0.313560
C831	C83	0.755450	0.017100	0.281000
H511	H51	0.742900	0.053600	0.299600
H521	H52	0.782900	0.049300	0.282600
C841	C84	0.812600	0.881500	0.259500
H531	H53	0.802900	0.934800	0.239800
C851	C85	0.704880	0.047900	0.086470
C861	C86	0.728500	0.034800	0.185400
C871	C87	0.648500	0.992000	0.114000
H541	H54	0.627000	0.979500	0.077500
C881	C88	0.693230	0.028500	0.127200
C891	C89	0.715880	0.010300	0.222360
C901	C90	0.668970	0.976200	0.206700
C911	C91	0.632720	0.972100	0.150300
C921	C92	0.654400	0.954000	0.244900
H551	H55	0.677100	0.959200	0.281800
C931	C93	0.607500	0.925000	0.229100
H561	H56	0.599400	0.908700	0.255100
C941	C94	0.838000	0.816100	0.247800
H571	H57	0.844000	0.826900	0.219500
C951	C95	0.586100	0.943000	0.137700
H581	H58	0.562800	0.939200	0.101000
C961	C96	0.780230	0.808700	0.434950
C971	C97	0.892500	0.090800	0.257200
H591	H59	0.861500	0.064700	0.241400
C981	C98	0.922500	0.066000	0.304400
H601	H60	0.918900	0.012600	0.319000
C991	C99	0.834610	0.260700	0.086900
C1001	C100	0.854800	0.735400	0.276700
H611	H61	0.871900	0.692900	0.268700
C1011	C101	0.844800	0.723900	0.315900
H621	H62	0.854600	0.670300	0.335100
C1021	C102	0.571200	0.920000	0.172300
H631	H63	0.539100	0.901800	0.160400
Gd41	Gd4	0.232480	0.618110	0.012190
O281	O28	0.425690	0.857100	0.144200
H641	H64	0.411000	0.902700	0.144000
O291	O29	0.246930	0.474300	0.371810
H651	H65	0.265700	0.514200	0.390700
O301	O30	0.271410	0.570400	0.198760
H661	H66	0.267200	0.619600	0.184000
O311	O31	0.258830	0.367700	0.449090
O321	O32	0.296780	0.239800	0.459100
O331	O33	0.249180	0.572900	0.098900
O341	O34	0.174670	0.548500	0.035390
O351	O35	0.299340	0.708700	0.062540
O361	O36	0.338870	0.835300	0.065430
C1031	C103	0.372330	0.739500	0.142300
C1041	C104	0.366200	0.672400	0.171300
H671	H67	0.337900	0.637500	0.154000
C1051	C105	0.400000	0.654300	0.224900
C1061	C106	0.443800	0.706400	0.252900
C1071	C107	0.452600	0.772000	0.224500
C1081	C108	0.418080	0.791700	0.172200
H681	H68	0.500500	0.864300	0.277700
C1091	C109	0.476800	0.688500	0.309700
H691	H69	0.506600	0.718900	0.327900
C1101	C110	0.465300	0.629400	0.336000
H701	H70	0.483300	0.626700	0.373700
C1111	C111	0.288900	0.329100	0.389880
C1121	C112	0.312600	0.268400	0.374400
H711	H71	0.323700	0.214500	0.393200
C1131	C113	0.320420	0.286000	0.330810
C1141	C114	0.301830	0.366500	0.300700
C1151	C115	0.271980	0.413200	0.358950
C1161	C116	0.275530	0.428300	0.313560
C1171	C117	0.255450	0.517100	0.281000
H721	H72	0.242900	0.553600	0.299600
H731	H73	0.282900	0.549300	0.282600
C1181	C118	0.312600	0.381500	0.259500
H741	H74	0.302900	0.434800	0.239800
C1191	C119	0.204880	0.547900	0.086470
C1201	C120	0.228500	0.534800	0.185400
C1211	C121	0.148500	0.492000	0.114000
H751	H75	0.127000	0.479500	0.077500
C1221	C122	0.193230	0.528500	0.127200
C1231	C123	0.215880	0.510300	0.222360
C1241	C124	0.168970	0.476200	0.206700
C1251	C125	0.132720	0.472100	0.150300
C1261	C126	0.154400	0.454000	0.244900
H761	H76	0.177100	0.459200	0.281800
C1271	C127	0.107500	0.425000	0.229100
H771	H77	0.099400	0.408700	0.255100
C1281	C128	0.338000	0.316100	0.247800
H781	H78	0.344000	0.326900	0.219500
C1291	C129	0.086100	0.443000	0.137700
H791	H79	0.062800	0.439200	0.101000
C1301	C130	0.280230	0.308700	0.434950
C1311	C131	0.392500	0.590800	0.257200
H801	H80	0.361500	0.564700	0.241400
C1321	C132	0.422500	0.566000	0.304400
H811	H81	0.418900	0.512600	0.319000
C1331	C133	0.334610	0.760700	0.086900
C1341	C134	0.354800	0.235400	0.276700
H821	H82	0.371900	0.192900	0.268700
C1351	C135	0.344800	0.223900	0.315900
H831	H83	0.354600	0.170300	0.335100
C1361	C136	0.071200	0.420000	0.172300
H841	H84	0.039100	0.401800	0.160400
Gd51	Gd5	0.732480	0.881890	0.512190
O371	O37	0.925690	0.642900	0.644200
H851	H85	0.911000	0.597300	0.644000
O381	O38	0.746930	0.025700	0.871810
H861	H86	0.765700	0.985800	0.890700
O391	O39	0.771410	0.929600	0.698760
H871	H87	0.767200	0.880400	0.684000
O401	O40	0.758830	0.132300	0.949090
O411	O41	0.796780	0.260200	0.959100
O421	O42	0.749180	0.927100	0.598900
O431	O43	0.674670	0.951500	0.535390
O441	O44	0.799340	0.791300	0.562540
O451	O45	0.838870	0.664700	0.565430
C1371	C137	0.872330	0.760500	0.642300
C1381	C138	0.866200	0.827600	0.671300
H881	H88	0.837900	0.862500	0.654000
C1391	C139	0.900000	0.845700	0.724900
C1401	C140	0.943800	0.793600	0.752900
C1411	C141	0.952600	0.728000	0.724500
C1421	C142	0.918080	0.708300	0.672200
H891	H89	0.000500	0.635700	0.777700
C1431	C143	0.976800	0.811500	0.809700
H901	H90	0.006600	0.781100	0.827900
C1441	C144	0.965300	0.870600	0.836000
H911	H91	0.983300	0.873300	0.873700
C1451	C145	0.788900	0.170900	0.889880
C1461	C146	0.812600	0.231600	0.874400
H921	H92	0.823700	0.285500	0.893200
C1471	C147	0.820420	0.214000	0.830810
C1481	C148	0.801830	0.133500	0.800700
C1491	C149	0.771980	0.086800	0.858950
C1501	C150	0.775530	0.071700	0.813560
C1511	C151	0.755450	0.982900	0.781000
H931	H93	0.742900	0.946400	0.799600
H941	H94	0.782900	0.950700	0.782600
C1521	C152	0.812600	0.118500	0.759500
H951	H95	0.802900	0.065200	0.739800
C1531	C153	0.704880	0.952100	0.586470
C1541	C154	0.728500	0.965200	0.685400
C1551	C155	0.648500	0.008000	0.614000
H961	H96	0.627000	0.020500	0.577500
C1561	C156	0.693230	0.971500	0.627200
C1571	C157	0.715880	0.989700	0.722360
C1581	C158	0.668970	0.023800	0.706700
C1591	C159	0.632720	0.027900	0.650300
C1601	C160	0.654400	0.046000	0.744900
H971	H97	0.677100	0.040800	0.781800
C1611	C161	0.607500	0.075000	0.729100
H981	H98	0.599400	0.091300	0.755100
C1621	C162	0.838000	0.183900	0.747800
H991	H99	0.844000	0.173100	0.719500
C1631	C163	0.586100	0.057000	0.637700
H1001	H100	0.562800	0.060800	0.601000
C1641	C164	0.780230	0.191300	0.934950
C1651	C165	0.892500	0.909200	0.757200
H1011	H101	0.861500	0.935300	0.741400
C1661	C166	0.922500	0.934000	0.804400
H1021	H102	0.918900	0.987400	0.819000
C1671	C167	0.834610	0.739300	0.586900
C1681	C168	0.854800	0.264600	0.776700
H1031	H103	0.871900	0.307100	0.768700
C1691	C169	0.844800	0.276100	0.815900
H1041	H104	0.854600	0.329700	0.835100
C1701	C170	0.571200	0.080000	0.672300
H1051	H105	0.539100	0.098200	0.660400
Gd61	Gd6	0.232480	0.381890	0.512190
O461	O46	0.425690	0.142900	0.644200
H1061	H106	0.411000	0.097300	0.644000
O471	O47	0.246930	0.525700	0.871810
H1071	H107	0.265700	0.485800	0.890700
O481	O48	0.271410	0.429600	0.698760
H1081	H108	0.267200	0.380400	0.684000
O491	O49	0.258830	0.632300	0.949090
O501	O50	0.296780	0.760200	0.959100
O511	O51	0.249180	0.427100	0.598900
O521	O52	0.174670	0.451500	0.535390
O531	O53	0.299340	0.291300	0.562540
O541	O54	0.338870	0.164700	0.565430
C1711	C171	0.372330	0.260500	0.642300
C1721	C172	0.366200	0.327600	0.671300
H1091	H109	0.337900	0.362500	0.654000
C1731	C173	0.400000	0.345700	0.724900
C1741	C174	0.443800	0.293600	0.752900
C1751	C175	0.452600	0.228000	0.724500
C1761	C176	0.418080	0.208300	0.672200
H1101	H110	0.500500	0.135700	0.777700
C1771	C177	0.476800	0.311500	0.809700
H1111	H111	0.506600	0.281100	0.827900
C1781	C178	0.465300	0.370600	0.836000
H1121	H112	0.483300	0.373300	0.873700
C1791	C179	0.288900	0.670900	0.889880
C1801	C180	0.312600	0.731600	0.874400
H1131	H113	0.323700	0.785500	0.893200
C1811	C181	0.320420	0.714000	0.830810
C1821	C182	0.301830	0.633500	0.800700
C1831	C183	0.271980	0.586800	0.858950
C1841	C184	0.275530	0.571700	0.813560
C1851	C185	0.255450	0.482900	0.781000
H1141	H114	0.242900	0.446400	0.799600
H1151	H115	0.282900	0.450700	0.782600
C1861	C186	0.312600	0.618500	0.759500
H1161	H116	0.302900	0.565200	0.739800
C1871	C187	0.204880	0.452100	0.586470
C1881	C188	0.228500	0.465200	0.685400
C1891	C189	0.148500	0.508000	0.614000
H1171	H117	0.127000	0.520500	0.577500
C1901	C190	0.193230	0.471500	0.627200
C1911	C191	0.215880	0.489700	0.722360
C1921	C192	0.168970	0.523800	0.706700
C1931	C193	0.132720	0.527900	0.650300
C1941	C194	0.154400	0.546000	0.744900
H1181	H118	0.177100	0.540800	0.781800
C1951	C195	0.107500	0.575000	0.729100
H1191	H119	0.099400	0.591300	0.755100
C1961	C196	0.338000	0.683900	0.747800
H1201	H120	0.344000	0.673100	0.719500
C1971	C197	0.086100	0.557000	0.637700
H1211	H121	0.062800	0.560800	0.601000
C1981	C198	0.280230	0.691300	0.934950
C1991	C199	0.392500	0.409200	0.757200
H1221	H122	0.361500	0.435300	0.741400
C2001	C200	0.422500	0.434000	0.804400
H1231	H123	0.418900	0.487400	0.819000
C2011	C201	0.334610	0.239300	0.586900
C2021	C202	0.354800	0.764600	0.776700
H1241	H124	0.371900	0.807100	0.768700
C2031	C203	0.344800	0.776100	0.815900
H1251	H125	0.354600	0.829700	0.835100
C2041	C204	0.071200	0.580000	0.672300
H1261	H126	0.039100	0.598200	0.660400
Gd71	Gd7	0.267520	0.881890	0.987810
O551	O55	0.074310	0.642900	0.855800
H1271	H127	0.089000	0.597300	0.856000
O561	O56	0.253070	0.025700	0.628190
H1281	H128	0.234300	0.985800	0.609300
O571	O57	0.228590	0.929600	0.801240
H1291	H129	0.232800	0.880400	0.816000
O581	O58	0.241170	0.132300	0.550910
O591	O59	0.203220	0.260200	0.540900
O601	O60	0.250820	0.927100	0.901100
O611	O61	0.325330	0.951500	0.964610
O621	O62	0.200660	0.791300	0.937460
O631	O63	0.161130	0.664700	0.934570
C2051	C205	0.127670	0.760500	0.857700
C2061	C206	0.133800	0.827600	0.828700
H1301	H130	0.162100	0.862500	0.846000
C2071	C207	0.100000	0.845700	0.775100
C2081	C208	0.056200	0.793600	0.747100
C2091	C209	0.047400	0.728000	0.775500
C2101	C210	0.081920	0.708300	0.827800
H1311	H131	0.999500	0.635700	0.722300
C2111	C211	0.023200	0.811500	0.690300
H1321	H132	0.993400	0.781100	0.672100
C2121	C212	0.034700	0.870600	0.664000
H1331	H133	0.016700	0.873300	0.626300
C2131	C213	0.211100	0.170900	0.610120
C2141	C214	0.187400	0.231600	0.625600
H1341	H134	0.176300	0.285500	0.606800
C2151	C215	0.179580	0.214000	0.669190
C2161	C216	0.198170	0.133500	0.699300
C2171	C217	0.228020	0.086800	0.641050
C2181	C218	0.224470	0.071700	0.686440
C2191	C219	0.244550	0.982900	0.719000
H1351	H135	0.257100	0.946400	0.700400
H1361	H136	0.217100	0.950700	0.717400
C2201	C220	0.187400	0.118500	0.740500
H1371	H137	0.197100	0.065200	0.760200
C2211	C221	0.295120	0.952100	0.913530
C2221	C222	0.271500	0.965200	0.814600
C2231	C223	0.351500	0.008000	0.886000
H1381	H138	0.373000	0.020500	0.922500
C2241	C224	0.306770	0.971500	0.872800
C2251	C225	0.284120	0.989700	0.777640
C2261	C226	0.331030	0.023800	0.793300
C2271	C227	0.367280	0.027900	0.849700
C2281	C228	0.345600	0.046000	0.755100
H1391	H139	0.322900	0.040800	0.718200
C2291	C229	0.392500	0.075000	0.770900
H1401	H140	0.400600	0.091300	0.744900
C2301	C230	0.162000	0.183900	0.752200
H1411	H141	0.156000	0.173100	0.780500
C2311	C231	0.413900	0.057000	0.862300
H1421	H142	0.437200	0.060800	0.899000
C2321	C232	0.219770	0.191300	0.565050
C2331	C233	0.107500	0.909200	0.742800
H1431	H143	0.138500	0.935300	0.758600
C2341	C234	0.077500	0.934000	0.695600
H1441	H144	0.081100	0.987400	0.681000
C2351	C235	0.165390	0.739300	0.913100
C2361	C236	0.145200	0.264600	0.723300
H1451	H145	0.128100	0.307100	0.731300
C2371	C237	0.155200	0.276100	0.684100
H1461	H146	0.145400	0.329700	0.664900
C2381	C238	0.428800	0.080000	0.827700
H1471	H147	0.460900	0.098200	0.839600
Gd81	Gd8	0.767510	0.381890	0.987810
O641	O64	0.574310	0.142900	0.855800
H1481	H148	0.589000	0.097300	0.856000
O651	O65	0.753070	0.525700	0.628190
H1491	H149	0.734300	0.485800	0.609300
O661	O66	0.728590	0.429600	0.801240
H1501	H150	0.732800	0.380400	0.816000
O671	O67	0.741170	0.632300	0.550910
O681	O68	0.703220	0.760200	0.540900
O691	O69	0.750820	0.427100	0.901100
O701	O70	0.825330	0.451500	0.964610
O711	O71	0.700660	0.291300	0.937460
O721	O72	0.661130	0.164700	0.934570
C2391	C239	0.627670	0.260500	0.857700
C2401	C240	0.633800	0.327600	0.828700
H1511	H151	0.662100	0.362500	0.846000
C2411	C241	0.600000	0.345700	0.775100
C2421	C242	0.556200	0.293600	0.747100
C2431	C243	0.547400	0.228000	0.775500
C2441	C244	0.581920	0.208300	0.827800
H1521	H152	0.499500	0.135700	0.722300
C2451	C245	0.523200	0.311500	0.690300
H1531	H153	0.493400	0.281100	0.672100
C2461	C246	0.534700	0.370600	0.664000
H1541	H154	0.516700	0.373300	0.626300
C2471	C247	0.711100	0.670900	0.610120
C2481	C248	0.687400	0.731600	0.625600
H1551	H155	0.676300	0.785500	0.606800
C2491	C249	0.679580	0.714000	0.669190
C2501	C250	0.698170	0.633500	0.699300
C2511	C251	0.728020	0.586800	0.641050
C2521	C252	0.724470	0.571700	0.686440
C2531	C253	0.744550	0.482900	0.719000
H1561	H156	0.757100	0.446400	0.700400
H1571	H157	0.717100	0.450700	0.717400
C2541	C254	0.687400	0.618500	0.740500
H1581	H158	0.697100	0.565200	0.760200
C2551	C255	0.795120	0.452100	0.913530
C2561	C256	0.771500	0.465200	0.814600
C2571	C257	0.851500	0.508000	0.886000
H1591	H159	0.873000	0.520500	0.922500
C2581	C258	0.806770	0.471500	0.872800
C2591	C259	0.784120	0.489700	0.777640
C2601	C260	0.831030	0.523800	0.793300
C2611	C261	0.867280	0.527900	0.849700
C2621	C262	0.845600	0.546000	0.755100
H1601	H160	0.822900	0.540800	0.718200
C2631	C263	0.892500	0.575000	0.770900
H1611	H161	0.900600	0.591300	0.744900
C2641	C264	0.662000	0.683900	0.752200
H1621	H162	0.656000	0.673100	0.780500
C2651	C265	0.913900	0.557000	0.862300
H1631	H163	0.937200	0.560800	0.899000
C2661	C266	0.719770	0.691300	0.565050
C2671	C267	0.607500	0.409200	0.742800
H1641	H164	0.638500	0.435300	0.758600
C2681	C268	0.577500	0.434000	0.695600
H1651	H165	0.581100	0.487400	0.681000
C2691	C269	0.665390	0.239300	0.913100
C2701	C270	0.645200	0.764600	0.723300
H1661	H166	0.628100	0.807100	0.731300
C2711	C271	0.655200	0.776100	0.684100
H1671	H167	0.645400	0.829700	0.664900
C2721	C272	0.928800	0.580000	0.827700
H1681	H168	0.960900	0.598200	0.839600
C2731	C273	0.000000	0.325600	0.250000
C2741	C274	0.500000	0.825600	0.250000
C2751	C275	0.000000	0.674400	0.750000
C2761	C276	0.500000	0.174400	0.750000
