data_SOJTOC_clean_PM
_symmetry_space_group_name_H-M	'P1'
_cell_length_a	15.437000
_cell_length_b	15.985000
_cell_length_c	16.475000
_cell_angle_alpha	90.000000
_cell_angle_beta	90.145000
_cell_angle_gamma	90.000000
_symmetry_Int_Tables_number 1

loop_
_symmetry_equiv_pos_as_xyz
'x,y,z'

loop_
_atom_site_label
_atom_site_type_symbol
_atom_site_fract_x
_atom_site_fract_y
_atom_site_fract_z
C11	C1	0.455500	0.766200	0.848600
H11	H1	0.440300	0.718600	0.816100
H21	H2	0.517400	0.770400	0.852400
H31	H3	0.432700	0.816000	0.823900
C21	C2	0.417700	0.756300	0.932600
C31	C3	0.441900	0.810400	0.996100
C41	C4	0.501500	0.881600	0.979400
H41	H4	0.490400	0.924900	0.019400
H51	H5	0.486600	0.904600	0.926700
C51	C5	0.597700	0.863100	0.980000
C61	C6	0.442900	0.849500	0.141800
H61	H6	0.499800	0.870100	0.129800
H71	H7	0.444700	0.817100	0.190900
H81	H8	0.404000	0.895800	0.148700
C71	C7	0.411800	0.795600	0.073300
C81	C8	0.354900	0.730100	0.089500
C91	C9	0.329300	0.675100	0.025500
C101	C10	0.361600	0.689800	0.948400
C111	C11	0.273900	0.600000	0.043500
H91	H9	0.280100	0.559600	0.000800
H101	H10	0.214400	0.616800	0.047300
H111	H11	0.291900	0.575500	0.094100
C121	C12	0.338200	0.631900	0.878600
H121	H12	0.285700	0.601700	0.892400
H131	H13	0.326100	0.665400	0.830800
C131	C13	0.408900	0.569500	0.858800
C141	C14	0.379000	0.652900	0.222700
C151	C15	0.322300	0.713400	0.175400
H141	H14	0.319600	0.766100	0.204700
H151	H15	0.264000	0.691000	0.172400
O11	O1	0.622400	0.791800	0.002000
O21	O2	0.646100	0.921500	0.960200
O31	O3	0.458400	0.544100	0.909700
O41	O4	0.408800	0.546600	0.783700
O51	O5	0.431500	0.608700	0.182500
O61	O6	0.797500	0.875700	0.009100
O71	O7	0.369700	0.648900	0.297200
K11	K1	0.534220	0.627560	0.047380
C161	C16	0.955500	0.266200	0.848600
H161	H16	0.940300	0.218600	0.816100
H171	H17	0.017400	0.270400	0.852400
H181	H18	0.932700	0.316000	0.823900
C171	C17	0.917700	0.256300	0.932600
C181	C18	0.941900	0.310400	0.996100
C191	C19	0.001500	0.381600	0.979400
H191	H19	0.990400	0.424900	0.019400
H201	H20	0.986600	0.404600	0.926700
C201	C20	0.097700	0.363100	0.980000
C211	C21	0.942900	0.349500	0.141800
H211	H21	0.999800	0.370100	0.129800
H221	H22	0.944700	0.317100	0.190900
H231	H23	0.904000	0.395800	0.148700
C221	C22	0.911800	0.295600	0.073300
C231	C23	0.854900	0.230100	0.089500
C241	C24	0.829300	0.175100	0.025500
C251	C25	0.861600	0.189800	0.948400
C261	C26	0.773900	0.100000	0.043500
H241	H24	0.780100	0.059600	0.000800
H251	H25	0.714400	0.116800	0.047300
H261	H26	0.791900	0.075500	0.094100
C271	C27	0.838200	0.131900	0.878600
H271	H27	0.785700	0.101700	0.892400
H281	H28	0.826100	0.165400	0.830800
C281	C28	0.908900	0.069500	0.858800
C291	C29	0.879000	0.152900	0.222700
C301	C30	0.822300	0.213400	0.175400
H291	H29	0.819600	0.266100	0.204700
H301	H30	0.764000	0.191000	0.172400
O81	O8	0.122400	0.291800	0.002000
O91	O9	0.146100	0.421500	0.960200
O101	O10	0.958400	0.044100	0.909700
O111	O11	0.908800	0.046600	0.783700
O121	O12	0.931500	0.108700	0.182500
O131	O13	0.297500	0.375700	0.009100
O141	O14	0.869700	0.148900	0.297200
K21	K2	0.034220	0.127560	0.047380
C311	C31	0.544500	0.766200	0.651400
H311	H31	0.559700	0.718600	0.683900
H321	H32	0.482600	0.770400	0.647600
H331	H33	0.567300	0.816000	0.676100
C321	C32	0.582300	0.756300	0.567400
C331	C33	0.558100	0.810400	0.503900
C341	C34	0.498500	0.881600	0.520600
H341	H34	0.509600	0.924900	0.480600
H351	H35	0.513400	0.904600	0.573300
C351	C35	0.402300	0.863100	0.520000
C361	C36	0.557100	0.849500	0.358200
H361	H36	0.500200	0.870100	0.370200
H371	H37	0.555300	0.817100	0.309100
H381	H38	0.596000	0.895800	0.351300
C371	C37	0.588200	0.795600	0.426700
C381	C38	0.645100	0.730100	0.410500
C391	C39	0.670700	0.675100	0.474500
C401	C40	0.638400	0.689800	0.551600
C411	C41	0.726100	0.600000	0.456500
H391	H39	0.719900	0.559600	0.499200
H401	H40	0.785600	0.616800	0.452700
H411	H41	0.708100	0.575500	0.405900
C421	C42	0.661800	0.631900	0.621400
H421	H42	0.714300	0.601700	0.607600
H431	H43	0.673900	0.665400	0.669200
C431	C43	0.591100	0.569500	0.641200
C441	C44	0.621000	0.652900	0.277300
C451	C45	0.677700	0.713400	0.324600
H441	H44	0.680400	0.766100	0.295300
H451	H45	0.736000	0.691000	0.327600
O151	O15	0.377600	0.791800	0.498000
O161	O16	0.353900	0.921500	0.539800
O171	O17	0.541600	0.544100	0.590300
O181	O18	0.591200	0.546600	0.716300
O191	O19	0.568500	0.608700	0.317500
O201	O20	0.202500	0.875700	0.490900
O211	O21	0.630300	0.648900	0.202800
K31	K3	0.465780	0.627560	0.452620
C461	C46	0.044500	0.266200	0.651400
H461	H46	0.059700	0.218600	0.683900
H471	H47	0.982600	0.270400	0.647600
H481	H48	0.067300	0.316000	0.676100
C471	C47	0.082300	0.256300	0.567400
C481	C48	0.058100	0.310400	0.503900
C491	C49	0.998500	0.381600	0.520600
H491	H49	0.009600	0.424900	0.480600
H501	H50	0.013400	0.404600	0.573300
C501	C50	0.902300	0.363100	0.520000
C511	C51	0.057100	0.349500	0.358200
H511	H51	0.000200	0.370100	0.370200
H521	H52	0.055300	0.317100	0.309100
H531	H53	0.096000	0.395800	0.351300
C521	C52	0.088200	0.295600	0.426700
C531	C53	0.145100	0.230100	0.410500
C541	C54	0.170700	0.175100	0.474500
C551	C55	0.138400	0.189800	0.551600
C561	C56	0.226100	0.100000	0.456500
H541	H54	0.219900	0.059600	0.499200
H551	H55	0.285600	0.116800	0.452700
H561	H56	0.208100	0.075500	0.405900
C571	C57	0.161800	0.131900	0.621400
H571	H57	0.214300	0.101700	0.607600
H581	H58	0.173900	0.165400	0.669200
C581	C58	0.091100	0.069500	0.641200
C591	C59	0.121000	0.152900	0.277300
C601	C60	0.177700	0.213400	0.324600
H591	H59	0.180400	0.266100	0.295300
H601	H60	0.236000	0.191000	0.327600
O221	O22	0.877600	0.291800	0.498000
O231	O23	0.853900	0.421500	0.539800
O241	O24	0.041600	0.044100	0.590300
O251	O25	0.091200	0.046600	0.716300
O261	O26	0.068500	0.108700	0.317500
O271	O27	0.702500	0.375700	0.490900
O281	O28	0.130300	0.148900	0.202800
K41	K4	0.965780	0.127560	0.452620
C611	C61	0.544500	0.233800	0.151400
H611	H61	0.559700	0.281400	0.183900
H621	H62	0.482600	0.229600	0.147600
H631	H63	0.567300	0.184000	0.176100
C621	C62	0.582300	0.243700	0.067400
C631	C63	0.558100	0.189600	0.003900
C641	C64	0.498500	0.118400	0.020600
H641	H64	0.509600	0.075100	0.980600
H651	H65	0.513400	0.095400	0.073300
C651	C65	0.402300	0.136900	0.020000
C661	C66	0.557100	0.150500	0.858200
H661	H66	0.500200	0.129900	0.870200
H671	H67	0.555300	0.182900	0.809100
H681	H68	0.596000	0.104200	0.851300
C671	C67	0.588200	0.204400	0.926700
C681	C68	0.645100	0.269900	0.910500
C691	C69	0.670700	0.324900	0.974500
C701	C70	0.638400	0.310200	0.051600
C711	C71	0.726100	0.400000	0.956500
H691	H69	0.719900	0.440400	0.999200
H701	H70	0.785600	0.383200	0.952700
H711	H71	0.708100	0.424500	0.905900
C721	C72	0.661800	0.368100	0.121400
H721	H72	0.714300	0.398300	0.107600
H731	H73	0.673900	0.334600	0.169200
C731	C73	0.591100	0.430500	0.141200
C741	C74	0.621000	0.347100	0.777300
C751	C75	0.677700	0.286600	0.824600
H741	H74	0.680400	0.233900	0.795300
H751	H75	0.736000	0.309000	0.827600
O291	O29	0.377600	0.208200	0.998000
O301	O30	0.353900	0.078500	0.039800
O311	O31	0.541600	0.455900	0.090300
O321	O32	0.591200	0.453400	0.216300
O331	O33	0.568500	0.391300	0.817500
O341	O34	0.202500	0.124300	0.990900
O351	O35	0.630300	0.351100	0.702800
K51	K5	0.465780	0.372440	0.952620
C761	C76	0.044500	0.733800	0.151400
H761	H76	0.059700	0.781400	0.183900
H771	H77	0.982600	0.729600	0.147600
H781	H78	0.067300	0.684000	0.176100
C771	C77	0.082300	0.743700	0.067400
C781	C78	0.058100	0.689600	0.003900
C791	C79	0.998500	0.618400	0.020600
H791	H79	0.009600	0.575100	0.980600
H801	H80	0.013400	0.595400	0.073300
C801	C80	0.902300	0.636900	0.020000
C811	C81	0.057100	0.650500	0.858200
H811	H81	0.000200	0.629900	0.870200
H821	H82	0.055300	0.682900	0.809100
H831	H83	0.096000	0.604200	0.851300
C821	C82	0.088200	0.704400	0.926700
C831	C83	0.145100	0.769900	0.910500
C841	C84	0.170700	0.824900	0.974500
C851	C85	0.138400	0.810200	0.051600
C861	C86	0.226100	0.900000	0.956500
H841	H84	0.219900	0.940400	0.999200
H851	H85	0.285600	0.883200	0.952700
H861	H86	0.208100	0.924500	0.905900
C871	C87	0.161800	0.868100	0.121400
H871	H87	0.214300	0.898300	0.107600
H881	H88	0.173900	0.834600	0.169200
C881	C88	0.091100	0.930500	0.141200
C891	C89	0.121000	0.847100	0.777300
C901	C90	0.177700	0.786600	0.824600
H891	H89	0.180400	0.733900	0.795300
H901	H90	0.236000	0.809000	0.827600
O361	O36	0.877600	0.708200	0.998000
O371	O37	0.853900	0.578500	0.039800
O381	O38	0.041600	0.955900	0.090300
O391	O39	0.091200	0.953400	0.216300
O401	O40	0.068500	0.891300	0.817500
O411	O41	0.702500	0.624300	0.990900
O421	O42	0.130300	0.851100	0.702800
K61	K6	0.965780	0.872440	0.952620
C911	C91	0.455500	0.233800	0.348600
H911	H91	0.440300	0.281400	0.316100
H921	H92	0.517400	0.229600	0.352400
H931	H93	0.432700	0.184000	0.323900
C921	C92	0.417700	0.243700	0.432600
C931	C93	0.441900	0.189600	0.496100
C941	C94	0.501500	0.118400	0.479400
H941	H94	0.490400	0.075100	0.519400
H951	H95	0.486600	0.095400	0.426700
C951	C95	0.597700	0.136900	0.480000
C961	C96	0.442900	0.150500	0.641800
H961	H96	0.499800	0.129900	0.629800
H971	H97	0.444700	0.182900	0.690900
H981	H98	0.404000	0.104200	0.648700
C971	C97	0.411800	0.204400	0.573300
C981	C98	0.354900	0.269900	0.589500
C991	C99	0.329300	0.324900	0.525500
C1001	C100	0.361600	0.310200	0.448400
C1011	C101	0.273900	0.400000	0.543500
H991	H99	0.280100	0.440400	0.500800
H1001	H100	0.214400	0.383200	0.547300
H1011	H101	0.291900	0.424500	0.594100
C1021	C102	0.338200	0.368100	0.378600
H1021	H102	0.285700	0.398300	0.392400
H1031	H103	0.326100	0.334600	0.330800
C1031	C103	0.408900	0.430500	0.358800
C1041	C104	0.379000	0.347100	0.722700
C1051	C105	0.322300	0.286600	0.675400
H1041	H104	0.319600	0.233900	0.704700
H1051	H105	0.264000	0.309000	0.672400
O431	O43	0.622400	0.208200	0.502000
O441	O44	0.646100	0.078500	0.460200
O451	O45	0.458400	0.455900	0.409700
O461	O46	0.408800	0.453400	0.283700
O471	O47	0.431500	0.391300	0.682500
O481	O48	0.797500	0.124300	0.509100
O491	O49	0.369700	0.351100	0.797200
K71	K7	0.534220	0.372440	0.547380
C1061	C106	0.955500	0.733800	0.348600
H1061	H106	0.940300	0.781400	0.316100
H1071	H107	0.017400	0.729600	0.352400
H1081	H108	0.932700	0.684000	0.323900
C1071	C107	0.917700	0.743700	0.432600
C1081	C108	0.941900	0.689600	0.496100
C1091	C109	0.001500	0.618400	0.479400
H1091	H109	0.990400	0.575100	0.519400
H1101	H110	0.986600	0.595400	0.426700
C1101	C110	0.097700	0.636900	0.480000
C1111	C111	0.942900	0.650500	0.641800
H1111	H111	0.999800	0.629900	0.629800
H1121	H112	0.944700	0.682900	0.690900
H1131	H113	0.904000	0.604200	0.648700
C1121	C112	0.911800	0.704400	0.573300
C1131	C113	0.854900	0.769900	0.589500
C1141	C114	0.829300	0.824900	0.525500
C1151	C115	0.861600	0.810200	0.448400
C1161	C116	0.773900	0.900000	0.543500
H1141	H114	0.780100	0.940400	0.500800
H1151	H115	0.714400	0.883200	0.547300
H1161	H116	0.791900	0.924500	0.594100
C1171	C117	0.838200	0.868100	0.378600
H1171	H117	0.785700	0.898300	0.392400
H1181	H118	0.826100	0.834600	0.330800
C1181	C118	0.908900	0.930500	0.358800
C1191	C119	0.879000	0.847100	0.722700
C1201	C120	0.822300	0.786600	0.675400
H1191	H119	0.819600	0.733900	0.704700
H1201	H120	0.764000	0.809000	0.672400
O501	O50	0.122400	0.708200	0.502000
O511	O51	0.146100	0.578500	0.460200
O521	O52	0.958400	0.955900	0.409700
O531	O53	0.908800	0.953400	0.283700
O541	O54	0.931500	0.891300	0.682500
O551	O55	0.297500	0.624300	0.509100
O561	O56	0.869700	0.851100	0.797200
K81	K8	0.034220	0.872440	0.547380
Zn11	Zn1	0.500000	0.468680	0.750000
Zn21	Zn2	0.000000	0.968680	0.750000
Zn31	Zn3	0.500000	0.531320	0.250000
Zn41	Zn4	0.000000	0.031320	0.250000
Zn51	Zn5	0.750000	0.750000	0.000000
Zn61	Zn6	0.250000	0.750000	0.500000
Zn71	Zn7	0.250000	0.250000	0.000000
Zn81	Zn8	0.750000	0.250000	0.500000
