data_SOKKOT_ion_b_PM
_symmetry_space_group_name_H-M	'P1'
_cell_length_a	13.506500
_cell_length_b	13.506500
_cell_length_c	15.907600
_cell_angle_alpha	90.000000
_cell_angle_beta	90.000000
_cell_angle_gamma	90.000000
_symmetry_Int_Tables_number 1

loop_
_symmetry_equiv_pos_as_xyz
'x,y,z'

loop_
_atom_site_label
_atom_site_type_symbol
_atom_site_fract_x
_atom_site_fract_y
_atom_site_fract_z
S11	S1	0.199770	0.264320	0.424510
O21	O2	0.124320	0.441420	0.523480
O31	O3	0.013010	0.501200	0.428410
O41	O4	0.283080	0.119540	0.219210
O51	O5	0.299510	0.077590	0.345070
C61	C6	0.206310	0.227110	0.321660
C71	C7	0.125690	0.360920	0.393800
C81	C8	0.088710	0.436420	0.453150
C91	C9	0.263890	0.139850	0.294710
C101	C10	0.106210	0.362280	0.308560
H111	H11	0.060690	0.417020	0.277430
C121	C12	0.153090	0.286280	0.267200
H131	H13	0.148160	0.274370	0.200050
C141	C14	0.497950	0.218480	0.508260
C151	C15	0.404670	0.164780	0.537900
S161	S16	0.735620	0.725920	0.919120
O171	O17	0.809370	0.546240	0.014110
O181	O18	0.928100	0.495110	0.921970
O191	O19	0.665320	0.883720	0.717840
O201	O20	0.639370	0.916310	0.844810
C211	C21	0.735350	0.769610	0.818170
C221	C22	0.812490	0.632340	0.887360
C231	C23	0.848530	0.555530	0.945500
C241	C24	0.679050	0.858130	0.793050
C251	C25	0.837050	0.636190	0.803160
H261	H26	0.885160	0.584000	0.771660
C271	C27	0.792270	0.714470	0.763420
H281	H28	0.801150	0.730810	0.697310
C291	C29	0.462660	0.793030	0.035340
C301	C30	0.565240	0.835530	0.054880
S311	S31	0.705500	0.226130	0.171280
O321	O32	0.531260	0.147770	0.271170
O331	O33	0.470280	0.037570	0.175920
O341	O34	0.852750	0.305830	0.966030
O351	O35	0.889030	0.330600	0.092330
C361	C36	0.742660	0.232730	0.068480
C371	C37	0.609640	0.151130	0.140740
C381	C38	0.535120	0.113200	0.200480
C391	C39	0.829690	0.290690	0.041660
C401	C40	0.608210	0.131660	0.055490
H411	H41	0.553830	0.085640	0.024420
C421	C42	0.683880	0.179020	0.014080
H431	H43	0.695790	0.174280	0.946970
C441	C44	0.767580	0.509110	0.279620
C451	C45	0.809520	0.407470	0.302940
S461	S46	0.245980	0.762890	0.675430
O471	O47	0.416260	0.850440	0.775750
O481	O48	0.474480	0.960050	0.678550
O491	O49	0.093540	0.690550	0.471050
O501	O50	0.057250	0.665940	0.597500
C511	C51	0.205390	0.760800	0.573310
C521	C52	0.338270	0.842660	0.645160
C531	C53	0.411760	0.883230	0.704420
C541	C54	0.117270	0.704590	0.546690
C551	C55	0.336790	0.865560	0.560540
H561	H56	0.388450	0.915020	0.529920
C571	C57	0.261190	0.818150	0.519310
H581	H58	0.246630	0.826330	0.452790
C591	C59	0.536060	0.607700	0.729100
C601	C60	0.574320	0.640060	0.642730
S611	S61	0.733750	0.278740	0.587180
O621	O62	0.795870	0.470530	0.501590
O631	O63	0.932030	0.503340	0.581610
O641	O64	0.668890	0.117170	0.787410
O651	O65	0.638380	0.085970	0.660770
C661	C66	0.738880	0.230140	0.686490
C671	C67	0.813960	0.369560	0.618990
C681	C68	0.845520	0.450500	0.563270
C691	C69	0.681100	0.142750	0.712010
C701	C70	0.844440	0.360500	0.701450
H711	H71	0.895260	0.410350	0.732590
C721	C72	0.800690	0.281130	0.740330
H731	H73	0.813330	0.261340	0.805340
C741	C74	0.442330	0.379090	0.451990
C751	C75	0.525370	0.451150	0.475630
S761	S76	0.204070	0.730020	0.078980
O771	O77	0.124640	0.554020	0.980640
O781	O78	0.009900	0.498960	0.074950
O791	O79	0.281050	0.877740	0.284390
O801	O80	0.302310	0.918080	0.158490
C811	C81	0.206690	0.769960	0.181250
C821	C82	0.125510	0.636700	0.109270
C831	C83	0.087820	0.561190	0.050390
C841	C84	0.264410	0.856790	0.208580
C851	C85	0.102280	0.638220	0.193800
H861	H86	0.053490	0.585980	0.224500
C871	C87	0.149490	0.713890	0.235120
H881	H88	0.141750	0.728000	0.301780
C891	C89	0.498700	0.624020	0.985090
C901	C90	0.416500	0.560120	0.023230
S911	S91	0.255630	0.248650	0.836590
O921	O92	0.439400	0.175290	0.745820
O931	O93	0.477270	0.044750	0.830880
O941	O94	0.089600	0.308620	0.034900
O951	O95	0.056350	0.333750	0.907840
C961	C96	0.204370	0.239670	0.934830
C971	C97	0.343400	0.163940	0.866910
C981	C98	0.422690	0.129650	0.810370
C991	C99	0.115200	0.295080	0.959690
C1001	C100	0.332410	0.131000	0.948560
H1011	H101	0.379990	0.077130	0.978610
C1021	C102	0.253400	0.175160	0.987730
H1031	H103	0.231570	0.159640	0.051840
C1041	C104	0.541950	0.425540	0.729080
C1051	C105	0.567480	0.397160	0.819820
S1061	S106	0.695480	0.759370	0.337640
O1071	O107	0.505220	0.822680	0.249800
O1081	O108	0.469650	0.958070	0.329890
O1091	O109	0.856350	0.694280	0.538520
O1101	O110	0.890380	0.667710	0.411990
C1111	C111	0.743730	0.765150	0.437180
C1121	C112	0.604490	0.840380	0.368430
C1131	C113	0.523870	0.872080	0.311920
C1141	C114	0.831840	0.708190	0.463070
C1151	C115	0.612980	0.870950	0.450960
H1161	H116	0.562940	0.922030	0.481660
C1171	C117	0.692070	0.827110	0.490490
H1181	H118	0.711540	0.840330	0.555490
C1191	C119	0.605370	0.472190	0.215540
C1201	C120	0.537170	0.555960	0.244830
In1211	In121	0.973730	0.615240	0.504590
In1221	In122	0.970820	0.384140	0.999620
In1231	In123	0.356610	0.998060	0.252340
In1241	In124	0.588440	0.001430	0.753410
N1251	N125	0.480320	0.279240	0.432560
N1261	N126	0.464020	0.724420	0.963120
N1271	N127	0.708000	0.506220	0.201840
N1281	N128	0.478880	0.514680	0.724670
H1291	H129	0.554930	0.161400	0.493850
H1301	H130	0.526500	0.263990	0.560960
H1311	H131	0.423510	0.115630	0.591150
H1321	H132	0.374060	0.118040	0.486940
H1331	H133	0.347950	0.218590	0.559310
H1341	H134	0.412870	0.856270	0.020420
H1351	H135	0.432500	0.756540	0.092440
H1361	H136	0.596450	0.872720	0.998750
H1371	H137	0.616480	0.776800	0.076790
H1381	H138	0.559300	0.891760	0.105230
H1391	H139	0.831270	0.560190	0.270150
H1401	H140	0.723840	0.538380	0.333270
H1411	H141	0.860550	0.414920	0.357020
H1421	H142	0.852430	0.376080	0.249830
H1431	H143	0.749370	0.355790	0.321050
H1441	H144	0.487560	0.667580	0.753640
H1451	H145	0.599290	0.601110	0.773400
H1461	H146	0.511470	0.651780	0.598810
H1471	H147	0.625700	0.584090	0.616240
H1481	H148	0.614770	0.711040	0.648760
H1491	H149	0.404140	0.409190	0.395500
H1501	H150	0.386620	0.376630	0.503420
H1511	H151	0.493960	0.526520	0.483850
H1521	H152	0.582090	0.454210	0.425250
H1531	H153	0.561290	0.428790	0.535260
H1541	H154	0.524970	0.586480	0.927060
H1551	H155	0.562600	0.626530	0.028970
H1561	H156	0.352560	0.555210	0.979520
H1571	H157	0.391280	0.590820	0.084230
H1581	H158	0.445030	0.484140	0.034390
H1591	H159	0.501860	0.362230	0.700070
H1601	H160	0.611480	0.435690	0.692720
H1611	H161	0.615190	0.454300	0.849300
H1621	H162	0.608290	0.325880	0.820360
H1631	H163	0.499040	0.387780	0.857680
H1641	H164	0.575350	0.443050	0.155280
H1651	H165	0.602370	0.410440	0.261630
H1661	H166	0.538150	0.617900	0.198920
H1671	H167	0.560000	0.583870	0.307420
H1681	H168	0.460120	0.527870	0.249820
H1691	H169	0.429800	0.243430	0.393040
H1701	H170	0.392620	0.720270	0.937700
H1711	H171	0.707310	0.577000	0.174970
H1721	H172	0.438090	0.512680	0.668690
H1731	H173	0.742020	0.459370	0.158140
H1741	H174	0.546640	0.285310	0.398850
H1751	H175	0.427290	0.513600	0.773800
H1761	H176	0.509600	0.753200	0.915820
