data_SOKWAS_clean_PM
_symmetry_space_group_name_H-M	'P1'
_cell_length_a	12.733700
_cell_length_b	12.561500
_cell_length_c	17.873700
_cell_angle_alpha	90.000000
_cell_angle_beta	90.000000
_cell_angle_gamma	90.000000
_symmetry_Int_Tables_number 1

loop_
_symmetry_equiv_pos_as_xyz
'x,y,z'

loop_
_atom_site_label
_atom_site_type_symbol
_atom_site_fract_x
_atom_site_fract_y
_atom_site_fract_z
U11	U1	0.082220	0.644260	0.380480
S11	S1	0.277280	0.632380	0.585330
O11	O1	0.149180	0.524220	0.471240
O21	O2	0.063220	0.413630	0.546530
O31	O3	0.430900	0.769450	0.666040
O41	O4	0.367100	0.736240	0.780570
C11	C1	0.131400	0.485100	0.534780
C21	C2	0.195000	0.524500	0.598050
C31	C3	0.191200	0.493000	0.671320
H11	H1	0.151400	0.434000	0.688600
C41	C4	0.253400	0.558100	0.718540
H21	H2	0.259100	0.548400	0.771100
C51	C5	0.304200	0.636300	0.679800
C61	C6	0.373000	0.720300	0.711310
U21	U2	0.417780	0.855740	0.880480
S21	S2	0.222720	0.867620	0.085330
O51	O5	0.350820	0.975780	0.971240
O61	O6	0.436780	0.086370	0.046530
O71	O7	0.069100	0.730550	0.166040
O81	O8	0.132900	0.763760	0.280570
C71	C7	0.368600	0.014900	0.034780
C81	C8	0.305000	0.975500	0.098050
C91	C9	0.308800	0.007000	0.171320
H31	H3	0.348600	0.066000	0.188600
C101	C10	0.246600	0.941900	0.218540
H41	H4	0.240900	0.951600	0.271100
C111	C11	0.195800	0.863700	0.179800
C121	C12	0.127000	0.779700	0.211310
U31	U3	0.917780	0.644260	0.119520
S31	S3	0.722720	0.632380	0.914670
O91	O9	0.850820	0.524220	0.028760
O101	O10	0.936780	0.413630	0.953470
O111	O11	0.569100	0.769450	0.833960
O121	O12	0.632900	0.736240	0.719430
C131	C13	0.868600	0.485100	0.965220
C141	C14	0.805000	0.524500	0.901950
C151	C15	0.808800	0.493000	0.828680
H51	H5	0.848600	0.434000	0.811400
C161	C16	0.746600	0.558100	0.781460
H61	H6	0.740900	0.548400	0.728900
C171	C17	0.695800	0.636300	0.820200
C181	C18	0.627000	0.720300	0.788690
U41	U4	0.582220	0.855740	0.619520
S41	S4	0.777280	0.867620	0.414670
O131	O13	0.649180	0.975780	0.528760
O141	O14	0.563220	0.086370	0.453470
O151	O15	0.930900	0.730550	0.333960
O161	O16	0.867100	0.763760	0.219430
C191	C19	0.631400	0.014900	0.465220
C201	C20	0.695000	0.975500	0.401950
C211	C21	0.691200	0.007000	0.328680
H71	H7	0.651400	0.066000	0.311400
C221	C22	0.753400	0.941900	0.281460
H81	H8	0.759100	0.951600	0.228900
C231	C23	0.804200	0.863700	0.320200
C241	C24	0.873000	0.779700	0.288690
U51	U5	0.917780	0.355740	0.619520
S51	S5	0.722720	0.367620	0.414670
O171	O17	0.850820	0.475780	0.528760
O181	O18	0.936780	0.586370	0.453470
O191	O19	0.569100	0.230550	0.333960
O201	O20	0.632900	0.263760	0.219430
C251	C25	0.868600	0.514900	0.465220
C261	C26	0.805000	0.475500	0.401950
C271	C27	0.808800	0.507000	0.328680
H91	H9	0.848600	0.566000	0.311400
C281	C28	0.746600	0.441900	0.281460
H101	H10	0.740900	0.451600	0.228900
C291	C29	0.695800	0.363700	0.320200
C301	C30	0.627000	0.279700	0.288690
U61	U6	0.582220	0.144260	0.119520
S61	S6	0.777280	0.132380	0.914670
O211	O21	0.649180	0.024220	0.028760
O221	O22	0.563220	0.913630	0.953470
O231	O23	0.930900	0.269450	0.833960
O241	O24	0.867100	0.236240	0.719430
C311	C31	0.631400	0.985100	0.965220
C321	C32	0.695000	0.024500	0.901950
C331	C33	0.691200	0.993000	0.828680
H111	H11	0.651400	0.934000	0.811400
C341	C34	0.753400	0.058100	0.781460
H121	H12	0.759100	0.048400	0.728900
C351	C35	0.804200	0.136300	0.820200
C361	C36	0.873000	0.220300	0.788690
U71	U7	0.082220	0.355740	0.880480
S71	S7	0.277280	0.367620	0.085330
O251	O25	0.149180	0.475780	0.971240
O261	O26	0.063220	0.586370	0.046530
O271	O27	0.430900	0.230550	0.166040
O281	O28	0.367100	0.263760	0.280570
C371	C37	0.131400	0.514900	0.034780
C381	C38	0.195000	0.475500	0.098050
C391	C39	0.191200	0.507000	0.171320
H131	H13	0.151400	0.566000	0.188600
C401	C40	0.253400	0.441900	0.218540
H141	H14	0.259100	0.451600	0.271100
C411	C41	0.304200	0.363700	0.179800
C421	C42	0.373000	0.279700	0.211310
U81	U8	0.417780	0.144260	0.380480
S81	S8	0.222720	0.132380	0.585330
O291	O29	0.350820	0.024220	0.471240
O301	O30	0.436780	0.913630	0.546530
O311	O31	0.069100	0.269450	0.666040
O321	O32	0.132900	0.236240	0.780570
C431	C43	0.368600	0.985100	0.534780
C441	C44	0.305000	0.024500	0.598050
C451	C45	0.308800	0.993000	0.671320
H151	H15	0.348600	0.934000	0.688600
C461	C46	0.246600	0.058100	0.718540
H161	H16	0.240900	0.048400	0.771100
C471	C47	0.195800	0.136300	0.679800
C481	C48	0.127000	0.220300	0.711310
