data_SOKWAS01_clean_PM
_symmetry_space_group_name_H-M	'P1'
_cell_length_a	9.779900
_cell_length_b	11.338100
_cell_length_c	12.600800
_cell_angle_alpha	90.000000
_cell_angle_beta	90.000000
_cell_angle_gamma	90.000000
_symmetry_Int_Tables_number 1

loop_
_symmetry_equiv_pos_as_xyz
'x,y,z'

loop_
_atom_site_label
_atom_site_type_symbol
_atom_site_fract_x
_atom_site_fract_y
_atom_site_fract_z
U11	U1	0.926680	0.323860	0.456500
S11	S1	0.515140	0.507070	0.242190
O11	O1	0.710300	0.394000	0.389300
O21	O2	0.558300	0.349100	0.516300
O31	O3	0.188000	0.668200	0.138700
O41	O4	0.379400	0.617400	0.054300
C11	C1	0.592100	0.397200	0.430100
C21	C2	0.485800	0.464000	0.370300
C31	C3	0.358700	0.493900	0.405300
H11	H1	0.325900	0.477000	0.474600
C41	C4	0.281400	0.552800	0.327000
H21	H2	0.190300	0.579900	0.337000
C51	C5	0.354200	0.566300	0.234500
C61	C6	0.303900	0.622000	0.135200
U21	U2	0.573320	0.676140	0.956500
S21	S2	0.984860	0.492930	0.742190
O51	O5	0.789700	0.606000	0.889300
O61	O6	0.941700	0.650900	0.016300
O71	O7	0.312000	0.331800	0.638700
O81	O8	0.120600	0.382600	0.554300
C71	C7	0.907900	0.602800	0.930100
C81	C8	0.014200	0.536000	0.870300
C91	C9	0.141300	0.506100	0.905300
H31	H3	0.174100	0.523000	0.974600
C101	C10	0.218600	0.447200	0.827000
H41	H4	0.309700	0.420100	0.837000
C111	C11	0.145800	0.433700	0.734500
C121	C12	0.196100	0.378000	0.635200
U31	U3	0.073320	0.823860	0.043500
S31	S3	0.484860	0.007070	0.257810
O91	O9	0.289700	0.894000	0.110700
O101	O10	0.441700	0.849100	0.983700
O111	O11	0.812000	0.168200	0.361300
O121	O12	0.620600	0.117400	0.445700
C131	C13	0.407900	0.897200	0.069900
C141	C14	0.514200	0.964000	0.129700
C151	C15	0.641300	0.993900	0.094700
H51	H5	0.674100	0.977000	0.025400
C161	C16	0.718600	0.052800	0.173000
H61	H6	0.809700	0.079900	0.163000
C171	C17	0.645800	0.066300	0.265500
C181	C18	0.696100	0.122000	0.364800
U41	U4	0.426680	0.176140	0.543500
S41	S4	0.015140	0.992930	0.757810
O131	O13	0.210300	0.106000	0.610700
O141	O14	0.058300	0.150900	0.483700
O151	O15	0.688000	0.831800	0.861300
O161	O16	0.879400	0.882600	0.945700
C191	C19	0.092100	0.102800	0.569900
C201	C20	0.985800	0.036000	0.629700
C211	C21	0.858700	0.006100	0.594700
H71	H7	0.825900	0.023000	0.525400
C221	C22	0.781400	0.947200	0.673000
H81	H8	0.690300	0.920100	0.663000
C231	C23	0.854200	0.933700	0.765500
C241	C24	0.803900	0.878000	0.864800
