data_SOKWUM_clean_PM
_symmetry_space_group_name_H-M	'P1'
_cell_length_a	14.031600
_cell_length_b	15.256400
_cell_length_c	17.781700
_cell_angle_alpha	90.000000
_cell_angle_beta	102.405000
_cell_angle_gamma	90.000000
_symmetry_Int_Tables_number 1

loop_
_symmetry_equiv_pos_as_xyz
'x,y,z'

loop_
_atom_site_label
_atom_site_type_symbol
_atom_site_fract_x
_atom_site_fract_y
_atom_site_fract_z
U11	U1	0.869780	0.166000	0.613740
U21	U2	0.614800	0.853780	0.890710
O11	O1	0.891700	0.055100	0.721640
O21	O2	0.970800	0.180300	0.744900
O31	O3	0.711300	0.972600	0.939930
O41	O4	0.865300	0.949000	0.000200
O51	O5	0.070400	0.808300	0.870700
O61	O6	0.051900	0.883800	0.973420
O71	O7	0.787500	0.041000	0.562690
O81	O8	0.634400	0.052700	0.498500
O91	O9	0.610500	0.955300	0.778980
O101	O10	0.514300	0.839400	0.761320
O111	O11	0.460100	0.219400	0.611100
O121	O12	0.448700	0.119200	0.520260
N11	N1	0.939600	0.009500	0.882720
N21	N2	0.558900	0.998900	0.617550
C11	C1	0.986600	0.083200	0.851000
H11	H1	0.056800	0.069300	0.857200
H21	H2	0.981800	0.135800	0.882600
C21	C2	0.946600	0.106600	0.767400
C31	C3	0.835300	0.025500	0.879500
H31	H3	0.796300	0.004300	0.829700
H41	H4	0.823800	0.089300	0.883000
C41	C4	0.802400	0.978400	0.945700
C51	C5	0.957500	0.923000	0.849200
H51	H5	0.980000	0.932900	0.800700
H61	H6	0.895300	0.890100	0.836300
C61	C6	0.032800	0.868300	0.903300
C71	C7	0.664000	0.983300	0.622000
H71	H7	0.676200	0.919600	0.619300
H81	H8	0.702300	0.005400	0.671700
C81	C8	0.695900	0.029800	0.555800
C91	C9	0.511700	0.926700	0.651200
H91	H9	0.518500	0.872600	0.622100
H101	H10	0.441100	0.939800	0.642700
C101	C10	0.548300	0.907200	0.736000
C111	C11	0.540200	0.087100	0.648500
H111	H11	0.603300	0.116400	0.669000
H121	H12	0.506500	0.079300	0.691600
C121	C12	0.478500	0.144900	0.587700
U31	U3	0.130220	0.666000	0.886260
U41	U4	0.385200	0.353780	0.609290
O131	O13	0.108300	0.555100	0.778360
O141	O14	0.029200	0.680300	0.755100
O151	O15	0.288700	0.472600	0.560070
O161	O16	0.134700	0.449000	0.499800
O171	O17	0.929600	0.308300	0.629300
O181	O18	0.948100	0.383800	0.526580
O191	O19	0.212500	0.541000	0.937310
O201	O20	0.365600	0.552700	0.001500
O211	O21	0.389500	0.455300	0.721020
O221	O22	0.485700	0.339400	0.738680
O231	O23	0.539900	0.719400	0.888900
O241	O24	0.551300	0.619200	0.979740
N31	N3	0.060400	0.509500	0.617280
N41	N4	0.441100	0.498900	0.882450
C131	C13	0.013400	0.583200	0.649000
H131	H13	0.943200	0.569300	0.642800
H141	H14	0.018200	0.635800	0.617400
C141	C14	0.053400	0.606600	0.732600
C151	C15	0.164700	0.525500	0.620500
H151	H15	0.203700	0.504300	0.670300
H161	H16	0.176200	0.589300	0.617000
C161	C16	0.197600	0.478400	0.554300
C171	C17	0.042500	0.423000	0.650800
H171	H17	0.020000	0.432900	0.699300
H181	H18	0.104700	0.390100	0.663700
C181	C18	0.967200	0.368300	0.596700
C191	C19	0.336000	0.483300	0.878000
H191	H19	0.323800	0.419600	0.880700
H201	H20	0.297700	0.505400	0.828300
C201	C20	0.304100	0.529800	0.944200
C211	C21	0.488300	0.426700	0.848800
H211	H21	0.481500	0.372600	0.877900
H221	H22	0.558900	0.439800	0.857300
C221	C22	0.451700	0.407200	0.764000
C231	C23	0.459800	0.587100	0.851500
H231	H23	0.396700	0.616400	0.831000
H241	H24	0.493500	0.579300	0.808400
C241	C24	0.521500	0.644900	0.912300
U51	U5	0.130220	0.834000	0.386260
U61	U6	0.385200	0.146220	0.109290
O251	O25	0.108300	0.944900	0.278360
O261	O26	0.029200	0.819700	0.255100
O271	O27	0.288700	0.027400	0.060070
O281	O28	0.134700	0.051000	0.999800
O291	O29	0.929600	0.191700	0.129300
O301	O30	0.948100	0.116200	0.026580
O311	O31	0.212500	0.959000	0.437310
O321	O32	0.365600	0.947300	0.501500
O331	O33	0.389500	0.044700	0.221020
O341	O34	0.485700	0.160600	0.238680
O351	O35	0.539900	0.780600	0.388900
O361	O36	0.551300	0.880800	0.479740
N51	N5	0.060400	0.990500	0.117280
N61	N6	0.441100	0.001100	0.382450
C251	C25	0.013400	0.916800	0.149000
H251	H25	0.943200	0.930700	0.142800
H261	H26	0.018200	0.864200	0.117400
C261	C26	0.053400	0.893400	0.232600
C271	C27	0.164700	0.974500	0.120500
H271	H27	0.203700	0.995700	0.170300
H281	H28	0.176200	0.910700	0.117000
C281	C28	0.197600	0.021600	0.054300
C291	C29	0.042500	0.077000	0.150800
H291	H29	0.020000	0.067100	0.199300
H301	H30	0.104700	0.109900	0.163700
C301	C30	0.967200	0.131700	0.096700
C311	C31	0.336000	0.016700	0.378000
H311	H31	0.323800	0.080400	0.380700
H321	H32	0.297700	0.994600	0.328300
C321	C32	0.304100	0.970200	0.444200
C331	C33	0.488300	0.073300	0.348800
H331	H33	0.481500	0.127400	0.377900
H341	H34	0.558900	0.060200	0.357300
C341	C34	0.451700	0.092800	0.264000
C351	C35	0.459800	0.912900	0.351500
H351	H35	0.396700	0.883600	0.331000
H361	H36	0.493500	0.920700	0.308400
C361	C36	0.521500	0.855100	0.412300
U71	U7	0.869780	0.334000	0.113740
U81	U8	0.614800	0.646220	0.390710
O371	O37	0.891700	0.444900	0.221640
O381	O38	0.970800	0.319700	0.244900
O391	O39	0.711300	0.527400	0.439930
O401	O40	0.865300	0.551000	0.500200
O411	O41	0.070400	0.691700	0.370700
O421	O42	0.051900	0.616200	0.473420
O431	O43	0.787500	0.459000	0.062690
O441	O44	0.634400	0.447300	0.998500
O451	O45	0.610500	0.544700	0.278980
O461	O46	0.514300	0.660600	0.261320
O471	O47	0.460100	0.280600	0.111100
O481	O48	0.448700	0.380800	0.020260
N71	N7	0.939600	0.490500	0.382720
N81	N8	0.558900	0.501100	0.117550
C371	C37	0.986600	0.416800	0.351000
H371	H37	0.056800	0.430700	0.357200
H381	H38	0.981800	0.364200	0.382600
C381	C38	0.946600	0.393400	0.267400
C391	C39	0.835300	0.474500	0.379500
H391	H39	0.796300	0.495700	0.329700
H401	H40	0.823800	0.410700	0.383000
C401	C40	0.802400	0.521600	0.445700
C411	C41	0.957500	0.577000	0.349200
H411	H41	0.980000	0.567100	0.300700
H421	H42	0.895300	0.609900	0.336300
C421	C42	0.032800	0.631700	0.403300
C431	C43	0.664000	0.516700	0.122000
H431	H43	0.676200	0.580400	0.119300
H441	H44	0.702300	0.494600	0.171700
C441	C44	0.695900	0.470200	0.055800
C451	C45	0.511700	0.573300	0.151200
H451	H45	0.518500	0.627400	0.122100
H461	H46	0.441100	0.560200	0.142700
C461	C46	0.548300	0.592800	0.236000
C471	C47	0.540200	0.412900	0.148500
H471	H47	0.603300	0.383600	0.169000
H481	H48	0.506500	0.420700	0.191600
C481	C48	0.478500	0.355100	0.087700
Ni11	Ni1	0.000000	0.000000	0.000000
Ni21	Ni2	0.000000	0.500000	0.500000
Ni31	Ni3	0.500000	0.000000	0.500000
Ni41	Ni4	0.500000	0.500000	0.000000
