data_SOMFAC_clean_PM
_symmetry_space_group_name_H-M	'P1'
_cell_length_a	13.559000
_cell_length_b	13.559000
_cell_length_c	15.678200
_cell_angle_alpha	90.000000
_cell_angle_beta	90.000000
_cell_angle_gamma	90.000000
_symmetry_Int_Tables_number 1

loop_
_symmetry_equiv_pos_as_xyz
'x,y,z'

loop_
_atom_site_label
_atom_site_type_symbol
_atom_site_fract_x
_atom_site_fract_y
_atom_site_fract_z
S11	S1	0.277080	0.785040	0.108280
O11	O1	0.379100	0.952700	0.016000
O21	O2	0.473300	0.997900	0.121900
O31	O3	0.148000	0.615600	0.157500
O41	O4	0.194300	0.606000	0.290800
C11	C1	0.384800	0.849100	0.228600
H11	H1	0.428500	0.887500	0.260100
C21	C2	0.270100	0.727600	0.203800
C31	C3	0.363500	0.866000	0.145900
C41	C4	0.334000	0.766900	0.262600
H21	H2	0.342600	0.742700	0.317600
C51	C5	0.406900	0.942900	0.091200
C61	C6	0.200400	0.645000	0.217700
S21	S2	0.722920	0.214960	0.608280
O51	O5	0.620900	0.047300	0.516000
O61	O6	0.526700	0.002100	0.621900
O71	O7	0.852000	0.384400	0.657500
O81	O8	0.805700	0.394000	0.790800
C71	C7	0.615200	0.150900	0.728600
H31	H3	0.571500	0.112500	0.760100
C81	C8	0.729900	0.272400	0.703800
C91	C9	0.636500	0.134000	0.645900
C101	C10	0.666000	0.233100	0.762600
H41	H4	0.657400	0.257300	0.817600
C111	C11	0.593100	0.057100	0.591200
C121	C12	0.799600	0.355000	0.717700
S31	S3	0.214960	0.277080	0.858280
O91	O9	0.047300	0.379100	0.766000
O101	O10	0.002100	0.473300	0.871900
O111	O11	0.384400	0.148000	0.907500
O121	O12	0.394000	0.194300	0.040800
C131	C13	0.150900	0.384800	0.978600
H51	H5	0.112500	0.428500	0.010100
C141	C14	0.272400	0.270100	0.953800
C151	C15	0.134000	0.363500	0.895900
C161	C16	0.233100	0.334000	0.012600
H61	H6	0.257300	0.342600	0.067600
C171	C17	0.057100	0.406900	0.841200
C181	C18	0.355000	0.200400	0.967700
S41	S4	0.785040	0.722920	0.358280
O131	O13	0.952700	0.620900	0.266000
O141	O14	0.997900	0.526700	0.371900
O151	O15	0.615600	0.852000	0.407500
O161	O16	0.606000	0.805700	0.540800
C191	C19	0.849100	0.615200	0.478600
H71	H7	0.887500	0.571500	0.510100
C201	C20	0.727600	0.729900	0.453800
C211	C21	0.866000	0.636500	0.395900
C221	C22	0.766900	0.666000	0.512600
H81	H8	0.742700	0.657400	0.567600
C231	C23	0.942900	0.593100	0.341200
C241	C24	0.645000	0.799600	0.467700
S51	S5	0.722920	0.785040	0.891720
O171	O17	0.620900	0.952700	0.984000
O181	O18	0.526700	0.997900	0.878100
O191	O19	0.852000	0.615600	0.842500
O201	O20	0.805700	0.606000	0.709200
C251	C25	0.615200	0.849100	0.771400
H91	H9	0.571500	0.887500	0.739900
C261	C26	0.729900	0.727600	0.796200
C271	C27	0.636500	0.866000	0.854100
C281	C28	0.666000	0.766900	0.737400
H101	H10	0.657400	0.742700	0.682400
C291	C29	0.593100	0.942900	0.908800
C301	C30	0.799600	0.645000	0.782300
S61	S6	0.277080	0.214960	0.391720
O211	O21	0.379100	0.047300	0.484000
O221	O22	0.473300	0.002100	0.378100
O231	O23	0.148000	0.384400	0.342500
O241	O24	0.194300	0.394000	0.209200
C311	C31	0.384800	0.150900	0.271400
H111	H11	0.428500	0.112500	0.239900
C321	C32	0.270100	0.272400	0.296200
C331	C33	0.363500	0.134000	0.354100
C341	C34	0.334000	0.233100	0.237400
H121	H12	0.342600	0.257300	0.182400
C351	C35	0.406900	0.057100	0.408800
C361	C36	0.200400	0.355000	0.282300
S71	S7	0.785040	0.277080	0.141720
O251	O25	0.952700	0.379100	0.234000
O261	O26	0.997900	0.473300	0.128100
O271	O27	0.615600	0.148000	0.092500
O281	O28	0.606000	0.194300	0.959200
C371	C37	0.849100	0.384800	0.021400
H131	H13	0.887500	0.428500	0.989900
C381	C38	0.727600	0.270100	0.046200
C391	C39	0.866000	0.363500	0.104100
C401	C40	0.766900	0.334000	0.987400
H141	H14	0.742700	0.342600	0.932400
C411	C41	0.942900	0.406900	0.158800
C421	C42	0.645000	0.200400	0.032300
S81	S8	0.214960	0.722920	0.641720
O291	O29	0.047300	0.620900	0.734000
O301	O30	0.002100	0.526700	0.628100
O311	O31	0.384400	0.852000	0.592500
O321	O32	0.394000	0.805700	0.459200
C431	C43	0.150900	0.615200	0.521400
H151	H15	0.112500	0.571500	0.489900
C441	C44	0.272400	0.729900	0.546200
C451	C45	0.134000	0.636500	0.604100
C461	C46	0.233100	0.666000	0.487400
H161	H16	0.257300	0.657400	0.432400
C471	C47	0.057100	0.593100	0.658800
C481	C48	0.355000	0.799600	0.532300
In11	In1	0.500000	0.077010	0.000000
In21	In2	0.500000	0.922990	0.500000
In31	In3	0.922990	0.500000	0.750000
In41	In4	0.077010	0.500000	0.250000
