data_SOMFIK_clean_PM
_symmetry_space_group_name_H-M	'P1'
_cell_length_a	13.510000
_cell_length_b	13.510000
_cell_length_c	16.068400
_cell_angle_alpha	90.000000
_cell_angle_beta	90.000000
_cell_angle_gamma	90.000000
_symmetry_Int_Tables_number 1

loop_
_symmetry_equiv_pos_as_xyz
'x,y,z'

loop_
_atom_site_label
_atom_site_type_symbol
_atom_site_fract_x
_atom_site_fract_y
_atom_site_fract_z
S11	S1	0.286200	0.221800	0.139370
O11	O1	0.455500	0.123900	0.233000
O21	O2	0.502000	0.026000	0.132400
O31	O3	0.107300	0.300800	0.958200
O41	O4	0.114600	0.347200	0.088300
C11	C1	0.368100	0.137100	0.105000
C21	C2	0.354000	0.114900	0.022900
H11	H1	0.394800	0.072100	0.993300
C31	C3	0.272200	0.162500	0.987500
H21	H2	0.249400	0.151900	0.933600
C41	C4	0.230100	0.227500	0.043600
C51	C5	0.447500	0.093700	0.160500
C61	C6	0.146800	0.294100	0.028800
S21	S2	0.713800	0.778200	0.639370
O51	O5	0.544500	0.876100	0.733000
O61	O6	0.498000	0.974000	0.632400
O71	O7	0.892700	0.699200	0.458200
O81	O8	0.885400	0.652800	0.588300
C71	C7	0.631900	0.862900	0.605000
C81	C8	0.646000	0.885100	0.522900
H31	H3	0.605200	0.927900	0.493300
C91	C9	0.727800	0.837500	0.487500
H41	H4	0.750600	0.848100	0.433600
C101	C10	0.769900	0.772500	0.543600
C111	C11	0.552500	0.906300	0.660500
C121	C12	0.853200	0.705900	0.528800
S31	S3	0.778200	0.286200	0.389370
O91	O9	0.876100	0.455500	0.483000
O101	O10	0.974000	0.502000	0.382400
O111	O11	0.699200	0.107300	0.208200
O121	O12	0.652800	0.114600	0.338300
C131	C13	0.862900	0.368100	0.355000
C141	C14	0.885100	0.354000	0.272900
H51	H5	0.927900	0.394800	0.243300
C151	C15	0.837500	0.272200	0.237500
H61	H6	0.848100	0.249400	0.183600
C161	C16	0.772500	0.230100	0.293600
C171	C17	0.906300	0.447500	0.410500
C181	C18	0.705900	0.146800	0.278800
S41	S4	0.221800	0.713800	0.889370
O131	O13	0.123900	0.544500	0.983000
O141	O14	0.026000	0.498000	0.882400
O151	O15	0.300800	0.892700	0.708200
O161	O16	0.347200	0.885400	0.838300
C191	C19	0.137100	0.631900	0.855000
C201	C20	0.114900	0.646000	0.772900
H71	H7	0.072100	0.605200	0.743300
C211	C21	0.162500	0.727800	0.737500
H81	H8	0.151900	0.750600	0.683600
C221	C22	0.227500	0.769900	0.793600
C231	C23	0.093700	0.552500	0.910500
C241	C24	0.294100	0.853200	0.778800
S51	S5	0.713800	0.221800	0.860630
O171	O17	0.544500	0.123900	0.767000
O181	O18	0.498000	0.026000	0.867600
O191	O19	0.892700	0.300800	0.041800
O201	O20	0.885400	0.347200	0.911700
C251	C25	0.631900	0.137100	0.895000
C261	C26	0.646000	0.114900	0.977100
H91	H9	0.605200	0.072100	0.006700
C271	C27	0.727800	0.162500	0.012500
H101	H10	0.750600	0.151900	0.066400
C281	C28	0.769900	0.227500	0.956400
C291	C29	0.552500	0.093700	0.839500
C301	C30	0.853200	0.294100	0.971200
S61	S6	0.286200	0.778200	0.360630
O211	O21	0.455500	0.876100	0.267000
O221	O22	0.502000	0.974000	0.367600
O231	O23	0.107300	0.699200	0.541800
O241	O24	0.114600	0.652800	0.411700
C311	C31	0.368100	0.862900	0.395000
C321	C32	0.354000	0.885100	0.477100
H111	H11	0.394800	0.927900	0.506700
C331	C33	0.272200	0.837500	0.512500
H121	H12	0.249400	0.848100	0.566400
C341	C34	0.230100	0.772500	0.456400
C351	C35	0.447500	0.906300	0.339500
C361	C36	0.146800	0.705900	0.471200
S71	S7	0.221800	0.286200	0.610630
O251	O25	0.123900	0.455500	0.517000
O261	O26	0.026000	0.502000	0.617600
O271	O27	0.300800	0.107300	0.791800
O281	O28	0.347200	0.114600	0.661700
C371	C37	0.137100	0.368100	0.645000
C381	C38	0.114900	0.354000	0.727100
H131	H13	0.072100	0.394800	0.756700
C391	C39	0.162500	0.272200	0.762500
H141	H14	0.151900	0.249400	0.816400
C401	C40	0.227500	0.230100	0.706400
C411	C41	0.093700	0.447500	0.589500
C421	C42	0.294100	0.146800	0.721200
S81	S8	0.778200	0.713800	0.110630
O291	O29	0.876100	0.544500	0.017000
O301	O30	0.974000	0.498000	0.117600
O311	O31	0.699200	0.892700	0.291800
O321	O32	0.652800	0.885400	0.161700
C431	C43	0.862900	0.631900	0.145000
C441	C44	0.885100	0.646000	0.227100
H151	H15	0.927900	0.605200	0.256700
C451	C45	0.837500	0.727800	0.262500
H161	H16	0.848100	0.750600	0.316400
C461	C46	0.772500	0.769900	0.206400
C471	C47	0.906300	0.552500	0.089500
C481	C48	0.705900	0.853200	0.221200
In11	In1	0.581690	0.000000	0.250000
In21	In2	0.418310	0.000000	0.750000
In31	In3	0.000000	0.581690	0.500000
In41	In4	0.000000	0.418310	0.000000
