data_SOMFEG_clean_PM
_symmetry_space_group_name_H-M	'P1'
_cell_length_a	13.577000
_cell_length_b	13.577000
_cell_length_c	15.539400
_cell_angle_alpha	90.000000
_cell_angle_beta	90.000000
_cell_angle_gamma	90.000000
_symmetry_Int_Tables_number 1

loop_
_symmetry_equiv_pos_as_xyz
'x,y,z'

loop_
_atom_site_label
_atom_site_type_symbol
_atom_site_fract_x
_atom_site_fract_y
_atom_site_fract_z
S11	S1	0.223300	0.284960	0.107540
O11	O1	0.306700	0.105200	0.290300
O21	O2	0.352900	0.114900	0.156000
O31	O3	0.026200	0.497000	0.123300
O41	O4	0.120700	0.453100	0.015500
C11	C1	0.230000	0.224900	0.203600
C21	C2	0.165200	0.262500	0.262700
H11	H1	0.155400	0.236800	0.317500
C31	C3	0.115000	0.345700	0.229300
H21	H2	0.071500	0.383600	0.261500
C41	C4	0.136600	0.364400	0.146400
C51	C5	0.299800	0.143200	0.216700
C61	C6	0.092500	0.442900	0.091300
S21	S2	0.776700	0.715040	0.607540
O51	O5	0.693300	0.894800	0.790300
O61	O6	0.647100	0.885100	0.656000
O71	O7	0.973800	0.503000	0.623300
O81	O8	0.879300	0.546900	0.515500
C71	C7	0.770000	0.775100	0.703600
C81	C8	0.834800	0.737500	0.762700
H31	H3	0.844600	0.763200	0.817500
C91	C9	0.885000	0.654300	0.729300
H41	H4	0.928500	0.616400	0.761500
C101	C10	0.863400	0.635600	0.646400
C111	C11	0.700200	0.856800	0.716700
C121	C12	0.907500	0.557100	0.591300
S31	S3	0.715040	0.223300	0.357540
O91	O9	0.894800	0.306700	0.540300
O101	O10	0.885100	0.352900	0.406000
O111	O11	0.503000	0.026200	0.373300
O121	O12	0.546900	0.120700	0.265500
C131	C13	0.775100	0.230000	0.453600
C141	C14	0.737500	0.165200	0.512700
H51	H5	0.763200	0.155400	0.567500
C151	C15	0.654300	0.115000	0.479300
H61	H6	0.616400	0.071500	0.511500
C161	C16	0.635600	0.136600	0.396400
C171	C17	0.856800	0.299800	0.466700
C181	C18	0.557100	0.092500	0.341300
S41	S4	0.284960	0.776700	0.857540
O131	O13	0.105200	0.693300	0.040300
O141	O14	0.114900	0.647100	0.906000
O151	O15	0.497000	0.973800	0.873300
O161	O16	0.453100	0.879300	0.765500
C191	C19	0.224900	0.770000	0.953600
C201	C20	0.262500	0.834800	0.012700
H71	H7	0.236800	0.844600	0.067500
C211	C21	0.345700	0.885000	0.979300
H81	H8	0.383600	0.928500	0.011500
C221	C22	0.364400	0.863400	0.896400
C231	C23	0.143200	0.700200	0.966700
C241	C24	0.442900	0.907500	0.841300
S51	S5	0.776700	0.284960	0.892460
O171	O17	0.693300	0.105200	0.709700
O181	O18	0.647100	0.114900	0.844000
O191	O19	0.973800	0.497000	0.876700
O201	O20	0.879300	0.453100	0.984500
C251	C25	0.770000	0.224900	0.796400
C261	C26	0.834800	0.262500	0.737300
H91	H9	0.844600	0.236800	0.682500
C271	C27	0.885000	0.345700	0.770700
H101	H10	0.928500	0.383600	0.738500
C281	C28	0.863400	0.364400	0.853600
C291	C29	0.700200	0.143200	0.783300
C301	C30	0.907500	0.442900	0.908700
S61	S6	0.223300	0.715040	0.392460
O211	O21	0.306700	0.894800	0.209700
O221	O22	0.352900	0.885100	0.344000
O231	O23	0.026200	0.503000	0.376700
O241	O24	0.120700	0.546900	0.484500
C311	C31	0.230000	0.775100	0.296400
C321	C32	0.165200	0.737500	0.237300
H111	H11	0.155400	0.763200	0.182500
C331	C33	0.115000	0.654300	0.270700
H121	H12	0.071500	0.616400	0.238500
C341	C34	0.136600	0.635600	0.353600
C351	C35	0.299800	0.856800	0.283300
C361	C36	0.092500	0.557100	0.408700
S71	S7	0.284960	0.223300	0.642460
O251	O25	0.105200	0.306700	0.459700
O261	O26	0.114900	0.352900	0.594000
O271	O27	0.497000	0.026200	0.626700
O281	O28	0.453100	0.120700	0.734500
C371	C37	0.224900	0.230000	0.546400
C381	C38	0.262500	0.165200	0.487300
H131	H13	0.236800	0.155400	0.432500
C391	C39	0.345700	0.115000	0.520700
H141	H14	0.383600	0.071500	0.488500
C401	C40	0.364400	0.136600	0.603600
C411	C41	0.143200	0.299800	0.533300
C421	C42	0.442900	0.092500	0.658700
S81	S8	0.715040	0.776700	0.142460
O291	O29	0.894800	0.693300	0.959700
O301	O30	0.885100	0.647100	0.094000
O311	O31	0.503000	0.973800	0.126700
O321	O32	0.546900	0.879300	0.234500
C431	C43	0.775100	0.770000	0.046400
C441	C44	0.737500	0.834800	0.987300
H151	H15	0.763200	0.844600	0.932500
C451	C45	0.654300	0.885000	0.020700
H161	H16	0.616400	0.928500	0.988500
C461	C46	0.635600	0.863400	0.103600
C471	C47	0.856800	0.700200	0.033300
C481	C48	0.557100	0.907500	0.158700
In11	In1	0.423850	0.000000	0.250000
In21	In2	0.576150	0.000000	0.750000
In31	In3	0.000000	0.423850	0.500000
In41	In4	0.000000	0.576150	0.000000
