data_SOMSIY_clean_PM
_symmetry_space_group_name_H-M	'P1'
_cell_length_a	14.828100
_cell_length_b	6.487200
_cell_length_c	11.350300
_cell_angle_alpha	90.000000
_cell_angle_beta	90.000000
_cell_angle_gamma	90.000000
_symmetry_Int_Tables_number 1

loop_
_symmetry_equiv_pos_as_xyz
'x,y,z'

loop_
_atom_site_label
_atom_site_type_symbol
_atom_site_fract_x
_atom_site_fract_y
_atom_site_fract_z
C11	C1	0.665000	0.586400	0.665700
N11	N1	0.598800	0.641200	0.596000
C21	C2	0.165000	0.086400	0.165700
N21	N2	0.098800	0.141200	0.096000
C31	C3	0.335000	0.913600	0.665700
N31	N3	0.401200	0.858800	0.596000
C41	C4	0.835000	0.413600	0.165700
N41	N4	0.901200	0.358800	0.096000
C51	C5	0.335000	0.086400	0.334300
N51	N5	0.401200	0.141200	0.404000
C61	C6	0.835000	0.586400	0.834300
N61	N6	0.901200	0.641200	0.904000
C71	C7	0.665000	0.413600	0.334300
N71	N7	0.598800	0.358800	0.404000
C81	C8	0.165000	0.913600	0.834300
N81	N8	0.098800	0.858800	0.904000
C91	C9	0.335000	0.413600	0.334300
N91	N9	0.401200	0.358800	0.404000
C101	C10	0.835000	0.913600	0.834300
N101	N10	0.901200	0.858800	0.904000
C111	C11	0.665000	0.086400	0.334300
N111	N11	0.598800	0.141200	0.404000
C121	C12	0.165000	0.586400	0.834300
N121	N12	0.098800	0.641200	0.904000
C131	C13	0.665000	0.913600	0.665700
N131	N13	0.598800	0.858800	0.596000
C141	C14	0.165000	0.413600	0.165700
N141	N14	0.098800	0.358800	0.096000
C151	C15	0.335000	0.586400	0.665700
N151	N15	0.401200	0.641200	0.596000
C161	C16	0.835000	0.086400	0.165700
N161	N16	0.901200	0.141200	0.096000
Ga11	Ga1	0.500000	0.500000	0.500000
Ga21	Ga2	0.000000	0.000000	0.000000
Ga31	Ga3	0.500000	0.000000	0.500000
Ga41	Ga4	0.000000	0.500000	0.000000
C171	C17	0.711710	0.750000	0.711200
C181	C18	0.211710	0.250000	0.211200
C191	C19	0.288290	0.750000	0.711200
C201	C20	0.788290	0.250000	0.211200
C211	C21	0.288290	0.250000	0.288800
C221	C22	0.788290	0.750000	0.788800
C231	C23	0.711710	0.250000	0.288800
C241	C24	0.211710	0.750000	0.788800
O11	O1	0.500000	0.250000	0.587200
O21	O2	0.000000	0.750000	0.087200
O31	O3	0.500000	0.750000	0.412800
O41	O4	0.000000	0.250000	0.912800
