data_SONTUL_neutral_b_PM
_symmetry_space_group_name_H-M	'P1'
_cell_length_a	18.600000
_cell_length_b	18.600000
_cell_length_c	18.600000
_cell_angle_alpha	60.000000
_cell_angle_beta	60.000000
_cell_angle_gamma	60.000000
_symmetry_Int_Tables_number 1

loop_
_symmetry_equiv_pos_as_xyz
'x,y,z'

loop_
_atom_site_label
_atom_site_type_symbol
_atom_site_fract_x
_atom_site_fract_y
_atom_site_fract_z
Cu11	Cu1	0.500000	0.070280	0.929720
Cu21	Cu2	0.070280	0.500000	0.500000
Cu31	Cu3	0.929720	0.500000	0.500000
Cu41	Cu4	0.500000	0.929720	0.070280
Cu51	Cu5	0.500000	0.929720	0.500000
Cu61	Cu6	0.070280	0.500000	0.929720
Cu71	Cu7	0.929720	0.500000	0.070280
Cu81	Cu8	0.500000	0.070280	0.500000
Cu91	Cu9	0.500000	0.500000	0.070280
Cu101	Cu10	0.070280	0.929720	0.500000
Cu111	Cu11	0.929720	0.070280	0.500000
Cu121	Cu12	0.500000	0.500000	0.929720
H11	H1	0.227100	0.010700	0.227100
H21	H2	0.010700	0.227100	0.535100
H31	H3	0.227100	0.535100	0.227100
H41	H4	0.535100	0.227100	0.010700
H51	H5	0.227100	0.227100	0.535100
H61	H6	0.010700	0.535100	0.227100
H71	H7	0.227100	0.227100	0.010700
H81	H8	0.535100	0.010700	0.227100
H91	H9	0.227100	0.535100	0.010700
H101	H10	0.010700	0.227100	0.227100
H111	H11	0.227100	0.010700	0.535100
H121	H12	0.535100	0.227100	0.227100
H131	H13	0.989300	0.772900	0.772900
H141	H14	0.772900	0.989300	0.464900
H151	H15	0.464900	0.772900	0.772900
H161	H16	0.772900	0.464900	0.989300
H171	H17	0.772900	0.772900	0.464900
H181	H18	0.464900	0.989300	0.772900
H191	H19	0.772900	0.772900	0.989300
H201	H20	0.989300	0.464900	0.772900
H211	H21	0.464900	0.772900	0.989300
H221	H22	0.772900	0.989300	0.772900
H231	H23	0.989300	0.772900	0.464900
H241	H24	0.772900	0.464900	0.772900
C11	C1	0.336940	0.068100	0.068100
C21	C2	0.242200	0.111800	0.111800
C31	C3	0.068100	0.336940	0.526860
C41	C4	0.111800	0.242200	0.534200
C51	C5	0.068100	0.526860	0.336940
C61	C6	0.111800	0.534200	0.242200
C71	C7	0.526860	0.068100	0.068100
C81	C8	0.534200	0.111800	0.111800
C91	C9	0.336940	0.068100	0.526860
C101	C10	0.242200	0.111800	0.534200
C111	C11	0.068100	0.526860	0.068100
C121	C12	0.111800	0.534200	0.111800
C131	C13	0.068100	0.336940	0.068100
C141	C14	0.111800	0.242200	0.111800
C151	C15	0.526860	0.068100	0.336940
C161	C16	0.534200	0.111800	0.242200
C171	C17	0.336940	0.526860	0.068100
C181	C18	0.242200	0.534200	0.111800
C191	C19	0.068100	0.068100	0.336940
C201	C20	0.111800	0.111800	0.242200
C211	C21	0.068100	0.068100	0.526860
C221	C22	0.111800	0.111800	0.534200
C231	C23	0.526860	0.336940	0.068100
C241	C24	0.534200	0.242200	0.111800
C251	C25	0.931900	0.663060	0.931900
C261	C26	0.888200	0.757800	0.888200
C271	C27	0.663060	0.931900	0.473140
C281	C28	0.757800	0.888200	0.465800
C291	C29	0.473140	0.931900	0.663060
C301	C30	0.465800	0.888200	0.757800
C311	C31	0.931900	0.473140	0.931900
C321	C32	0.888200	0.465800	0.888200
C331	C33	0.931900	0.663060	0.473140
C341	C34	0.888200	0.757800	0.465800
C351	C35	0.473140	0.931900	0.931900
C361	C36	0.465800	0.888200	0.888200
C371	C37	0.663060	0.931900	0.931900
C381	C38	0.757800	0.888200	0.888200
C391	C39	0.931900	0.473140	0.663060
C401	C40	0.888200	0.465800	0.757800
C411	C41	0.473140	0.663060	0.931900
C421	C42	0.465800	0.757800	0.888200
C431	C43	0.931900	0.931900	0.663060
C441	C44	0.888200	0.888200	0.757800
C451	C45	0.931900	0.931900	0.473140
C461	C46	0.888200	0.888200	0.465800
C471	C47	0.663060	0.473140	0.931900
C481	C48	0.757800	0.465800	0.888200
C491	C49	0.198400	0.068600	0.198400
C501	C50	0.068600	0.198400	0.534600
C511	C51	0.198400	0.534600	0.198400
C521	C52	0.534600	0.198400	0.068600
C531	C53	0.198400	0.198400	0.534600
C541	C54	0.068600	0.534600	0.198400
C551	C55	0.198400	0.198400	0.068600
C561	C56	0.534600	0.068600	0.198400
C571	C57	0.198400	0.534600	0.068600
C581	C58	0.068600	0.198400	0.198400
C591	C59	0.198400	0.068600	0.534600
C601	C60	0.534600	0.198400	0.198400
C611	C61	0.931400	0.801600	0.801600
C621	C62	0.801600	0.931400	0.465400
C631	C63	0.465400	0.801600	0.801600
C641	C64	0.801600	0.465400	0.931400
C651	C65	0.801600	0.801600	0.465400
C661	C66	0.465400	0.931400	0.801600
C671	C67	0.801600	0.801600	0.931400
C681	C68	0.931400	0.465400	0.801600
C691	C69	0.465400	0.801600	0.931400
C701	C70	0.801600	0.931400	0.801600
C711	C71	0.931400	0.801600	0.465400
C721	C72	0.801600	0.465400	0.801600
O11	O1	0.373970	0.112770	0.991990
O21	O2	0.112770	0.373970	0.521270
O31	O3	0.991990	0.521270	0.373970
O41	O4	0.521270	0.991990	0.112770
O51	O5	0.373970	0.991990	0.521270
O61	O6	0.112770	0.521270	0.991990
O71	O7	0.991990	0.373970	0.112770
O81	O8	0.521270	0.112770	0.373970
O91	O9	0.373970	0.521270	0.112770
O101	O10	0.112770	0.991990	0.373970
O111	O11	0.991990	0.112770	0.521270
O121	O12	0.521270	0.373970	0.991990
O131	O13	0.887230	0.626030	0.008010
O141	O14	0.626030	0.887230	0.478730
O151	O15	0.478730	0.008010	0.626030
O161	O16	0.008010	0.478730	0.887230
O171	O17	0.008010	0.626030	0.478730
O181	O18	0.478730	0.887230	0.008010
O191	O19	0.626030	0.008010	0.887230
O201	O20	0.887230	0.478730	0.626030
O211	O21	0.478730	0.626030	0.887230
O221	O22	0.008010	0.887230	0.626030
O231	O23	0.887230	0.008010	0.478730
O241	O24	0.626030	0.478730	0.008010
O251	O25	0.626030	0.887230	0.008010
O261	O26	0.887230	0.626030	0.478730
O271	O27	0.008010	0.478730	0.626030
O281	O28	0.478730	0.008010	0.887230
O291	O29	0.626030	0.008010	0.478730
O301	O30	0.887230	0.478730	0.008010
O311	O31	0.008010	0.626030	0.887230
O321	O32	0.478730	0.887230	0.626030
O331	O33	0.626030	0.478730	0.887230
O341	O34	0.887230	0.008010	0.626030
O351	O35	0.008010	0.887230	0.478730
O361	O36	0.478730	0.626030	0.008010
O371	O37	0.112770	0.373970	0.991990
O381	O38	0.373970	0.112770	0.521270
O391	O39	0.521270	0.991990	0.373970
O401	O40	0.991990	0.521270	0.112770
O411	O41	0.991990	0.373970	0.521270
O421	O42	0.521270	0.112770	0.991990
O441	O44	0.112770	0.521270	0.373970
O451	O45	0.521270	0.373970	0.112770
O461	O46	0.991990	0.112770	0.373970
O471	O47	0.112770	0.991990	0.521270
O481	O48	0.373970	0.521270	0.991990
O521	O52	0.500000	0.811800	0.188200
