data_SONTAR_manual_PM
_symmetry_space_group_name_H-M	'P1'
_cell_length_a	10.495100
_cell_length_b	11.339600
_cell_length_c	12.795400
_cell_angle_alpha	100.730000
_cell_angle_beta	110.142000
_cell_angle_gamma	99.732000
_symmetry_Int_Tables_number 1

loop_
_symmetry_equiv_pos_as_xyz
'x,y,z'

loop_
_atom_site_label
_atom_site_type_symbol
_atom_site_fract_x
_atom_site_fract_y
_atom_site_fract_z
Pr11	Pr1	0.611010	0.573280	0.636610
Pr21	Pr2	0.400600	0.444960	0.342630
H31	H3	0.909660	0.645000	0.595620
H41	H4	0.538050	0.889040	0.340980
H51	H5	0.100460	0.801610	0.964130
H61	H6	0.362670	0.813980	0.632980
H71	H7	0.417850	0.962180	0.734300
H81	H8	0.639470	0.884360	0.876840
H91	H9	0.678490	0.031570	0.975030
H101	H10	0.090730	0.355300	0.377940
H111	H11	0.482850	0.146660	0.674870
H121	H12	0.914940	0.147870	0.098260
H131	H13	0.273360	0.664090	0.753520
H141	H14	0.143870	0.749350	0.731860
C151	C15	0.696140	0.479760	0.410530
C161	C16	0.852480	0.490250	0.449670
C171	C17	0.907540	0.408870	0.389800
C181	C18	0.948710	0.581230	0.548370
C191	C19	0.491270	0.756080	0.486190
C201	C20	0.483410	0.885990	0.488640
C211	C21	0.467920	0.961190	0.583800
C221	C22	0.522710	0.943400	0.412730
C231	C23	0.811320	0.742780	0.846870
C241	C24	0.909090	0.858040	0.947120
C251	C25	0.860340	0.960470	0.988620
C261	C26	0.056730	0.874660	0.993830
C271	C27	0.308790	0.524680	0.560900
C281	C28	0.151310	0.510820	0.526350
C291	C29	0.094870	0.590330	0.589380
C301	C30	0.053790	0.419430	0.427080
C311	C31	0.537940	0.277980	0.532760
C321	C32	0.538480	0.147250	0.528450
C331	C33	0.548500	0.072410	0.431810
C341	C34	0.498410	0.090730	0.603970
C351	C35	0.205890	0.211350	0.201870
C361	C36	0.103520	0.087420	0.118000
C371	C37	0.150810	0.984860	0.078190
C381	C38	0.956370	0.071720	0.071290
N391	N39	0.416480	0.907000	0.658630
N401	N40	0.714000	0.957360	0.943720
N411	N41	0.181740	0.678500	0.697680
O421	O42	0.629130	0.551980	0.460920
O431	O43	0.608140	0.409850	0.322340
O441	O44	0.565760	0.743860	0.584570
O451	O45	0.429010	0.665460	0.391310
O461	O46	0.835280	0.703080	0.757920
O471	O47	0.691150	0.680870	0.834900
O481	O48	0.377920	0.449140	0.516680
O491	O49	0.397040	0.605050	0.640000
O501	O50	0.457790	0.292720	0.435870
O511	O51	0.610680	0.367090	0.627010
O521	O52	0.177360	0.316410	0.211860
O531	O53	0.332500	0.225030	0.268790
H541	H54	0.837190	0.336720	0.313290
H551	H55	0.575840	0.114350	0.370400
H561	H56	0.262280	0.991180	0.109720
