data_SONVAT_neutral_b_PM
_symmetry_space_group_name_H-M	'P1'
_cell_length_a	18.610300
_cell_length_b	18.610300
_cell_length_c	18.610300
_cell_angle_alpha	60.000000
_cell_angle_beta	60.000000
_cell_angle_gamma	60.000000
_symmetry_Int_Tables_number 1

loop_
_symmetry_equiv_pos_as_xyz
'x,y,z'

loop_
_atom_site_label
_atom_site_type_symbol
_atom_site_fract_x
_atom_site_fract_y
_atom_site_fract_z
Cu11	Cu1	0.500000	0.070400	0.929600
Cu21	Cu2	0.070400	0.500000	0.500000
Cu31	Cu3	0.929600	0.500000	0.500000
Cu41	Cu4	0.500000	0.929600	0.070400
Cu51	Cu5	0.500000	0.929600	0.500000
Cu61	Cu6	0.070400	0.500000	0.929600
Cu71	Cu7	0.929600	0.500000	0.070400
Cu81	Cu8	0.500000	0.070400	0.500000
Cu91	Cu9	0.500000	0.500000	0.070400
Cu101	Cu10	0.070400	0.929600	0.500000
Cu111	Cu11	0.929600	0.070400	0.500000
Cu121	Cu12	0.500000	0.500000	0.929600
H11	H1	0.465800	0.989400	0.772400
H21	H2	0.989400	0.465800	0.772400
H31	H3	0.772400	0.772400	0.465800
H41	H4	0.772400	0.772400	0.989400
H51	H5	0.465800	0.772400	0.772400
H61	H6	0.989400	0.772400	0.772400
H71	H7	0.772400	0.465800	0.989400
H81	H8	0.772400	0.989400	0.465800
H91	H9	0.465800	0.772400	0.989400
H101	H10	0.989400	0.772400	0.465800
H111	H11	0.772400	0.989400	0.772400
H121	H12	0.772400	0.465800	0.772400
H131	H13	0.010600	0.534200	0.227600
H141	H14	0.534200	0.010600	0.227600
H151	H15	0.227600	0.227600	0.534200
H161	H16	0.227600	0.227600	0.010600
H171	H17	0.227600	0.534200	0.227600
H181	H18	0.227600	0.010600	0.227600
H191	H19	0.534200	0.227600	0.010600
H201	H20	0.010600	0.227600	0.534200
H211	H21	0.227600	0.534200	0.010600
H221	H22	0.227600	0.010600	0.534200
H231	H23	0.010600	0.227600	0.227600
H241	H24	0.534200	0.227600	0.227600
C11	C1	0.465500	0.931900	0.801300
C21	C2	0.931900	0.465500	0.801300
C31	C3	0.801300	0.801300	0.465500
C41	C4	0.801300	0.801300	0.931900
C51	C5	0.465500	0.801300	0.801300
C61	C6	0.931900	0.801300	0.801300
C71	C7	0.801300	0.465500	0.931900
C81	C8	0.801300	0.931900	0.465500
C91	C9	0.465500	0.801300	0.931900
C101	C10	0.931900	0.801300	0.465500
C111	C11	0.801300	0.931900	0.801300
C121	C12	0.801300	0.465500	0.801300
C131	C13	0.068100	0.534500	0.198700
C141	C14	0.534500	0.068100	0.198700
C151	C15	0.198700	0.198700	0.534500
C161	C16	0.198700	0.198700	0.068100
C171	C17	0.198700	0.534500	0.198700
C181	C18	0.198700	0.068100	0.198700
C191	C19	0.534500	0.198700	0.068100
C201	C20	0.068100	0.198700	0.534500
C211	C21	0.198700	0.534500	0.068100
C221	C22	0.198700	0.068100	0.534500
C231	C23	0.068100	0.198700	0.198700
C241	C24	0.534500	0.198700	0.198700
C251	C25	0.473400	0.931400	0.931400
C261	C26	0.465300	0.888500	0.888500
C271	C27	0.931400	0.473400	0.663800
C281	C28	0.888500	0.465300	0.757700
C291	C29	0.931400	0.663800	0.473400
C301	C30	0.888500	0.757700	0.465300
C311	C31	0.663800	0.931400	0.931400
C321	C32	0.757700	0.888500	0.888500
C331	C33	0.473400	0.931400	0.663800
C341	C34	0.465300	0.888500	0.757700
C351	C35	0.931400	0.663800	0.931400
C361	C36	0.888500	0.757700	0.888500
C371	C37	0.931400	0.473400	0.931400
C381	C38	0.888500	0.465300	0.888500
C391	C39	0.663800	0.931400	0.473400
C401	C40	0.757700	0.888500	0.465300
C411	C41	0.473400	0.663800	0.931400
C421	C42	0.465300	0.757700	0.888500
C431	C43	0.931400	0.931400	0.473400
C441	C44	0.888500	0.888500	0.465300
C451	C45	0.931400	0.931400	0.663800
C461	C46	0.888500	0.888500	0.757700
C471	C47	0.663800	0.473400	0.931400
C481	C48	0.757700	0.465300	0.888500
C491	C49	0.068600	0.526600	0.068600
C501	C50	0.111500	0.534700	0.111500
C511	C51	0.526600	0.068600	0.336200
C521	C52	0.534700	0.111500	0.242300
C531	C53	0.336200	0.068600	0.526600
C541	C54	0.242300	0.111500	0.534700
C551	C55	0.068600	0.336200	0.068600
C561	C56	0.111500	0.242300	0.111500
C571	C57	0.068600	0.526600	0.336200
C581	C58	0.111500	0.534700	0.242300
C591	C59	0.336200	0.068600	0.068600
C601	C60	0.242300	0.111500	0.111500
C611	C61	0.526600	0.068600	0.068600
C621	C62	0.534700	0.111500	0.111500
C631	C63	0.068600	0.336200	0.526600
C641	C64	0.111500	0.242300	0.534700
C651	C65	0.336200	0.526600	0.068600
C661	C66	0.242300	0.534700	0.111500
C671	C67	0.068600	0.068600	0.526600
C681	C68	0.111500	0.111500	0.534700
C691	C69	0.068600	0.068600	0.336200
C701	C70	0.111500	0.111500	0.242300
C711	C71	0.526600	0.336200	0.068600
C721	C72	0.534700	0.242300	0.111500
O11	O1	0.479400	0.007600	0.887000
O21	O2	0.007600	0.479400	0.626000
O31	O3	0.887000	0.626000	0.479400
O41	O4	0.626000	0.887000	0.007600
O51	O5	0.479400	0.887000	0.626000
O61	O6	0.007600	0.626000	0.887000
O71	O7	0.887000	0.479400	0.007600
O81	O8	0.626000	0.007600	0.479400
O91	O9	0.479400	0.626000	0.007600
O101	O10	0.007600	0.887000	0.479400
O111	O11	0.887000	0.007600	0.626000
O121	O12	0.626000	0.479400	0.887000
O131	O13	0.992400	0.520600	0.113000
O141	O14	0.520600	0.992400	0.374000
O151	O15	0.374000	0.113000	0.520600
O161	O16	0.113000	0.374000	0.992400
O171	O17	0.113000	0.520600	0.374000
O181	O18	0.374000	0.992400	0.113000
O191	O19	0.520600	0.113000	0.992400
O201	O20	0.992400	0.374000	0.520600
O211	O21	0.374000	0.520600	0.992400
O221	O22	0.113000	0.992400	0.520600
O231	O23	0.992400	0.113000	0.374000
O241	O24	0.520600	0.374000	0.113000
O251	O25	0.520600	0.992400	0.113000
O261	O26	0.992400	0.520600	0.374000
O271	O27	0.113000	0.374000	0.520600
O281	O28	0.374000	0.113000	0.992400
O291	O29	0.520600	0.113000	0.374000
O301	O30	0.992400	0.374000	0.113000
O311	O31	0.113000	0.520600	0.992400
O321	O32	0.374000	0.992400	0.520600
O331	O33	0.520600	0.374000	0.992400
O341	O34	0.992400	0.113000	0.520600
O351	O35	0.113000	0.992400	0.374000
O361	O36	0.374000	0.520600	0.113000
O371	O37	0.007600	0.479400	0.887000
O381	O38	0.479400	0.007600	0.626000
O391	O39	0.626000	0.887000	0.479400
O401	O40	0.887000	0.626000	0.007600
O411	O41	0.887000	0.479400	0.626000
O421	O42	0.626000	0.007600	0.887000
O431	O43	0.479400	0.887000	0.007600
O441	O44	0.007600	0.626000	0.479400
O451	O45	0.626000	0.479400	0.007600
O461	O46	0.887000	0.007600	0.479400
O471	O47	0.007600	0.887000	0.626000
O481	O48	0.479400	0.626000	0.887000
