data_SORXAA_clean_PM
_symmetry_space_group_name_H-M	'P1'
_cell_length_a	7.639100
_cell_length_b	21.127000
_cell_length_c	19.578000
_cell_angle_alpha	90.000000
_cell_angle_beta	98.306000
_cell_angle_gamma	90.000000
_symmetry_Int_Tables_number 1

loop_
_symmetry_equiv_pos_as_xyz
'x,y,z'

loop_
_atom_site_label
_atom_site_type_symbol
_atom_site_fract_x
_atom_site_fract_y
_atom_site_fract_z
Pr11	Pr1	0.989200	0.276630	0.255260
O11	O1	0.828100	0.326610	0.147070
O21	O2	0.700600	0.239270	0.174470
C11	C1	0.716400	0.284400	0.131700
C21	C2	0.602000	0.284800	0.064000
C31	C3	0.552900	0.341300	0.032000
C41	C4	0.548400	0.228200	0.032000
O31	O3	0.315700	0.289910	0.323070
O41	O4	0.091600	0.317900	0.373930
C51	C5	0.255600	0.310700	0.376200
C61	C6	0.378600	0.322300	0.439900
C71	C7	0.558300	0.324500	0.437200
H11	H1	0.597400	0.325300	0.394400
C81	C8	0.317500	0.325400	0.503300
O51	O5	0.232700	0.167280	0.285960
O61	O6	0.982000	0.162380	0.217700
C91	C9	0.111500	0.135500	0.250500
C101	C10	0.121100	0.065600	0.249900
C111	C11	0.240900	0.033100	0.297200
C121	C12	0.004600	0.031900	0.202400
N11	N1	0.633000	0.400400	0.052300
N21	N2	0.361000	0.057400	0.349700
N31	N3	0.148000	0.338800	0.509200
N41	N4	0.598000	0.176600	0.056400
N51	N5	0.880000	0.059800	0.160800
Pr21	Pr2	0.489200	0.776630	0.255260
O71	O7	0.328100	0.826610	0.147070
O81	O8	0.200600	0.739270	0.174470
C131	C13	0.216400	0.784400	0.131700
C141	C14	0.102000	0.784800	0.064000
C151	C15	0.052900	0.841300	0.032000
C161	C16	0.048400	0.728200	0.032000
O91	O9	0.815700	0.789910	0.323070
O101	O10	0.591600	0.817900	0.373930
C171	C17	0.755600	0.810700	0.376200
C181	C18	0.878600	0.822300	0.439900
C191	C19	0.058300	0.824500	0.437200
H21	H2	0.097400	0.825300	0.394400
C201	C20	0.817500	0.825400	0.503300
O111	O11	0.732700	0.667280	0.285960
O121	O12	0.482000	0.662380	0.217700
C211	C21	0.611500	0.635500	0.250500
C221	C22	0.621100	0.565600	0.249900
C231	C23	0.740900	0.533100	0.297200
C241	C24	0.504600	0.531900	0.202400
N61	N6	0.133000	0.900400	0.052300
N71	N7	0.861000	0.557400	0.349700
N81	N8	0.648000	0.838800	0.509200
N91	N9	0.098000	0.676600	0.056400
N101	N10	0.380000	0.559800	0.160800
Pr31	Pr3	0.010800	0.276630	0.744740
O131	O13	0.171900	0.326610	0.852930
O141	O14	0.299400	0.239270	0.825530
C251	C25	0.283600	0.284400	0.868300
C261	C26	0.398000	0.284800	0.936000
C271	C27	0.447100	0.341300	0.968000
C281	C28	0.451600	0.228200	0.968000
O151	O15	0.684300	0.289910	0.676930
O161	O16	0.908400	0.317900	0.626070
C291	C29	0.744400	0.310700	0.623800
C301	C30	0.621400	0.322300	0.560100
C311	C31	0.441700	0.324500	0.562800
H31	H3	0.402600	0.325300	0.605600
C321	C32	0.682500	0.325400	0.496700
O171	O17	0.767300	0.167280	0.714040
O181	O18	0.018000	0.162380	0.782300
C331	C33	0.888500	0.135500	0.749500
C341	C34	0.878900	0.065600	0.750100
C351	C35	0.759100	0.033100	0.702800
C361	C36	0.995400	0.031900	0.797600
N111	N11	0.367000	0.400400	0.947700
N121	N12	0.639000	0.057400	0.650300
N131	N13	0.852000	0.338800	0.490800
N141	N14	0.402000	0.176600	0.943600
N151	N15	0.120000	0.059800	0.839200
Pr41	Pr4	0.510800	0.776630	0.744740
O191	O19	0.671900	0.826610	0.852930
O201	O20	0.799400	0.739270	0.825530
C371	C37	0.783600	0.784400	0.868300
C381	C38	0.898000	0.784800	0.936000
C391	C39	0.947100	0.841300	0.968000
C401	C40	0.951600	0.728200	0.968000
O211	O21	0.184300	0.789910	0.676930
O221	O22	0.408400	0.817900	0.626070
C411	C41	0.244400	0.810700	0.623800
C421	C42	0.121400	0.822300	0.560100
C431	C43	0.941700	0.824500	0.562800
H41	H4	0.902600	0.825300	0.605600
C441	C44	0.182500	0.825400	0.496700
O231	O23	0.267300	0.667280	0.714040
O241	O24	0.518000	0.662380	0.782300
C451	C45	0.388500	0.635500	0.749500
C461	C46	0.378900	0.565600	0.750100
C471	C47	0.259100	0.533100	0.702800
C481	C48	0.495400	0.531900	0.797600
N161	N16	0.867000	0.900400	0.947700
N171	N17	0.139000	0.557400	0.650300
N181	N18	0.352000	0.838800	0.490800
N191	N19	0.902000	0.676600	0.943600
N201	N20	0.620000	0.559800	0.839200
Pr51	Pr5	0.010800	0.723370	0.744740
O251	O25	0.171900	0.673390	0.852930
O261	O26	0.299400	0.760730	0.825530
C491	C49	0.283600	0.715600	0.868300
C501	C50	0.398000	0.715200	0.936000
C511	C51	0.447100	0.658700	0.968000
C521	C52	0.451600	0.771800	0.968000
O271	O27	0.684300	0.710090	0.676930
O281	O28	0.908400	0.682100	0.626070
C531	C53	0.744400	0.689300	0.623800
C541	C54	0.621400	0.677700	0.560100
C551	C55	0.441700	0.675500	0.562800
H51	H5	0.402600	0.674700	0.605600
C561	C56	0.682500	0.674600	0.496700
O291	O29	0.767300	0.832720	0.714040
O301	O30	0.018000	0.837620	0.782300
C571	C57	0.888500	0.864500	0.749500
C581	C58	0.878900	0.934400	0.750100
C591	C59	0.759100	0.966900	0.702800
C601	C60	0.995400	0.968100	0.797600
N211	N21	0.367000	0.599600	0.947700
N221	N22	0.639000	0.942600	0.650300
N231	N23	0.852000	0.661200	0.490800
N241	N24	0.402000	0.823400	0.943600
N251	N25	0.120000	0.940200	0.839200
Pr61	Pr6	0.510800	0.223370	0.744740
O311	O31	0.671900	0.173390	0.852930
O321	O32	0.799400	0.260730	0.825530
C611	C61	0.783600	0.215600	0.868300
C621	C62	0.898000	0.215200	0.936000
C631	C63	0.947100	0.158700	0.968000
C641	C64	0.951600	0.271800	0.968000
O331	O33	0.184300	0.210090	0.676930
O341	O34	0.408400	0.182100	0.626070
C651	C65	0.244400	0.189300	0.623800
C661	C66	0.121400	0.177700	0.560100
C671	C67	0.941700	0.175500	0.562800
H61	H6	0.902600	0.174700	0.605600
C681	C68	0.182500	0.174600	0.496700
O351	O35	0.267300	0.332720	0.714040
O361	O36	0.518000	0.337620	0.782300
C691	C69	0.388500	0.364500	0.749500
C701	C70	0.378900	0.434400	0.750100
C711	C71	0.259100	0.466900	0.702800
C721	C72	0.495400	0.468100	0.797600
N261	N26	0.867000	0.099600	0.947700
N271	N27	0.139000	0.442600	0.650300
N281	N28	0.352000	0.161200	0.490800
N291	N29	0.902000	0.323400	0.943600
N301	N30	0.620000	0.440200	0.839200
Pr71	Pr7	0.989200	0.723370	0.255260
O371	O37	0.828100	0.673390	0.147070
O381	O38	0.700600	0.760730	0.174470
C731	C73	0.716400	0.715600	0.131700
C741	C74	0.602000	0.715200	0.064000
C751	C75	0.552900	0.658700	0.032000
C761	C76	0.548400	0.771800	0.032000
O391	O39	0.315700	0.710090	0.323070
O401	O40	0.091600	0.682100	0.373930
C771	C77	0.255600	0.689300	0.376200
C781	C78	0.378600	0.677700	0.439900
C791	C79	0.558300	0.675500	0.437200
H71	H7	0.597400	0.674700	0.394400
C801	C80	0.317500	0.674600	0.503300
O411	O41	0.232700	0.832720	0.285960
O421	O42	0.982000	0.837620	0.217700
C811	C81	0.111500	0.864500	0.250500
C821	C82	0.121100	0.934400	0.249900
C831	C83	0.240900	0.966900	0.297200
C841	C84	0.004600	0.968100	0.202400
N311	N31	0.633000	0.599600	0.052300
N321	N32	0.361000	0.942600	0.349700
N331	N33	0.148000	0.661200	0.509200
N341	N34	0.598000	0.823400	0.056400
N351	N35	0.880000	0.940200	0.160800
Pr81	Pr8	0.489200	0.223370	0.255260
O431	O43	0.328100	0.173390	0.147070
O441	O44	0.200600	0.260730	0.174470
C851	C85	0.216400	0.215600	0.131700
C861	C86	0.102000	0.215200	0.064000
C871	C87	0.052900	0.158700	0.032000
C881	C88	0.048400	0.271800	0.032000
O451	O45	0.815700	0.210090	0.323070
O461	O46	0.591600	0.182100	0.373930
C891	C89	0.755600	0.189300	0.376200
C901	C90	0.878600	0.177700	0.439900
C911	C91	0.058300	0.175500	0.437200
H81	H8	0.097400	0.174700	0.394400
C921	C92	0.817500	0.174600	0.503300
O471	O47	0.732700	0.332720	0.285960
O481	O48	0.482000	0.337620	0.217700
C931	C93	0.611500	0.364500	0.250500
C941	C94	0.621100	0.434400	0.249900
C951	C95	0.740900	0.466900	0.297200
C961	C96	0.504600	0.468100	0.202400
N361	N36	0.133000	0.099600	0.052300
N371	N37	0.861000	0.442600	0.349700
N381	N38	0.648000	0.161200	0.509200
N391	N39	0.098000	0.323400	0.056400
N401	N40	0.380000	0.440200	0.160800
