data_SOSFAJ_clean_PM
_symmetry_space_group_name_H-M	'P1'
_cell_length_a	7.804600
_cell_length_b	21.380600
_cell_length_c	19.817300
_cell_angle_alpha	90.000000
_cell_angle_beta	98.582000
_cell_angle_gamma	90.000000
_symmetry_Int_Tables_number 1

loop_
_symmetry_equiv_pos_as_xyz
'x,y,z'

loop_
_atom_site_label
_atom_site_type_symbol
_atom_site_fract_x
_atom_site_fract_y
_atom_site_fract_z
La11	La1	0.988450	0.223230	0.255430
O11	O1	0.127700	0.115900	0.234800
H11	H1	0.205400	0.100500	0.264800
H21	H2	0.071000	0.116200	0.194700
O21	O2	0.824700	0.172800	0.146600
O31	O3	0.698500	0.259900	0.173300
C11	C1	0.715300	0.214900	0.131400
C21	C2	0.602300	0.215400	0.063600
C31	C3	0.554100	0.158700	0.032200
C41	C4	0.549100	0.271000	0.032500
O41	O4	0.313200	0.210400	0.324100
O51	O5	0.096000	0.180800	0.375400
C51	C5	0.256800	0.189500	0.376700
C61	C6	0.380700	0.177600	0.440600
C71	C7	0.321200	0.173100	0.503900
C81	C8	0.556100	0.176400	0.437600
H31	H3	0.593400	0.177900	0.395200
O61	O6	0.228900	0.333200	0.286100
O71	O7	0.979000	0.338700	0.217200
C91	C9	0.106900	0.365200	0.250900
C101	C10	0.119700	0.434600	0.250700
C111	C11	0.237200	0.466400	0.298300
C121	C12	0.004500	0.467900	0.201900
N11	N1	0.150000	0.161400	0.510900
N21	N2	0.354000	0.441400	0.351700
N31	N3	0.636000	0.100300	0.052500
N41	N4	0.879000	0.439000	0.159000
N51	N5	0.602000	0.326000	0.057000
La21	La2	0.488450	0.723230	0.255430
O81	O8	0.627700	0.615900	0.234800
H41	H4	0.705400	0.600500	0.264800
H51	H5	0.571000	0.616200	0.194700
O91	O9	0.324700	0.672800	0.146600
O101	O10	0.198500	0.759900	0.173300
C131	C13	0.215300	0.714900	0.131400
C141	C14	0.102300	0.715400	0.063600
C151	C15	0.054100	0.658700	0.032200
C161	C16	0.049100	0.771000	0.032500
O111	O11	0.813200	0.710400	0.324100
O121	O12	0.596000	0.680800	0.375400
C171	C17	0.756800	0.689500	0.376700
C181	C18	0.880700	0.677600	0.440600
C191	C19	0.821200	0.673100	0.503900
C201	C20	0.056100	0.676400	0.437600
H61	H6	0.093400	0.677900	0.395200
O131	O13	0.728900	0.833200	0.286100
O141	O14	0.479000	0.838700	0.217200
C211	C21	0.606900	0.865200	0.250900
C221	C22	0.619700	0.934600	0.250700
C231	C23	0.737200	0.966400	0.298300
C241	C24	0.504500	0.967900	0.201900
N61	N6	0.650000	0.661400	0.510900
N71	N7	0.854000	0.941400	0.351700
N81	N8	0.136000	0.600300	0.052500
N91	N9	0.379000	0.939000	0.159000
N101	N10	0.102000	0.826000	0.057000
La31	La3	0.011550	0.223230	0.744570
O151	O15	0.872300	0.115900	0.765200
H71	H7	0.794600	0.100500	0.735200
H81	H8	0.929000	0.116200	0.805300
O161	O16	0.175300	0.172800	0.853400
O171	O17	0.301500	0.259900	0.826700
C251	C25	0.284700	0.214900	0.868600
C261	C26	0.397700	0.215400	0.936400
C271	C27	0.445900	0.158700	0.967800
C281	C28	0.450900	0.271000	0.967500
O181	O18	0.686800	0.210400	0.675900
O191	O19	0.904000	0.180800	0.624600
C291	C29	0.743200	0.189500	0.623300
C301	C30	0.619300	0.177600	0.559400
C311	C31	0.678800	0.173100	0.496100
C321	C32	0.443900	0.176400	0.562400
H91	H9	0.406600	0.177900	0.604800
O201	O20	0.771100	0.333200	0.713900
O211	O21	0.021000	0.338700	0.782800
C331	C33	0.893100	0.365200	0.749100
C341	C34	0.880300	0.434600	0.749300
C351	C35	0.762800	0.466400	0.701700
C361	C36	0.995500	0.467900	0.798100
N111	N11	0.850000	0.161400	0.489100
N121	N12	0.646000	0.441400	0.648300
N131	N13	0.364000	0.100300	0.947500
N141	N14	0.121000	0.439000	0.841000
N151	N15	0.398000	0.326000	0.943000
La41	La4	0.511550	0.723230	0.744570
O221	O22	0.372300	0.615900	0.765200
H101	H10	0.294600	0.600500	0.735200
H111	H11	0.429000	0.616200	0.805300
O231	O23	0.675300	0.672800	0.853400
O241	O24	0.801500	0.759900	0.826700
C371	C37	0.784700	0.714900	0.868600
C381	C38	0.897700	0.715400	0.936400
C391	C39	0.945900	0.658700	0.967800
C401	C40	0.950900	0.771000	0.967500
O251	O25	0.186800	0.710400	0.675900
O261	O26	0.404000	0.680800	0.624600
C411	C41	0.243200	0.689500	0.623300
C421	C42	0.119300	0.677600	0.559400
C431	C43	0.178800	0.673100	0.496100
C441	C44	0.943900	0.676400	0.562400
H121	H12	0.906600	0.677900	0.604800
O271	O27	0.271100	0.833200	0.713900
O281	O28	0.521000	0.838700	0.782800
C451	C45	0.393100	0.865200	0.749100
C461	C46	0.380300	0.934600	0.749300
C471	C47	0.262800	0.966400	0.701700
C481	C48	0.495500	0.967900	0.798100
N161	N16	0.350000	0.661400	0.489100
N171	N17	0.146000	0.941400	0.648300
N181	N18	0.864000	0.600300	0.947500
N191	N19	0.621000	0.939000	0.841000
N201	N20	0.898000	0.826000	0.943000
La51	La5	0.011550	0.776770	0.744570
O291	O29	0.872300	0.884100	0.765200
H131	H13	0.794600	0.899500	0.735200
H141	H14	0.929000	0.883800	0.805300
O301	O30	0.175300	0.827200	0.853400
O311	O31	0.301500	0.740100	0.826700
C491	C49	0.284700	0.785100	0.868600
C501	C50	0.397700	0.784600	0.936400
C511	C51	0.445900	0.841300	0.967800
C521	C52	0.450900	0.729000	0.967500
O321	O32	0.686800	0.789600	0.675900
O331	O33	0.904000	0.819200	0.624600
C531	C53	0.743200	0.810500	0.623300
C541	C54	0.619300	0.822400	0.559400
C551	C55	0.678800	0.826900	0.496100
C561	C56	0.443900	0.823600	0.562400
H151	H15	0.406600	0.822100	0.604800
O341	O34	0.771100	0.666800	0.713900
O351	O35	0.021000	0.661300	0.782800
C571	C57	0.893100	0.634800	0.749100
C581	C58	0.880300	0.565400	0.749300
C591	C59	0.762800	0.533600	0.701700
C601	C60	0.995500	0.532100	0.798100
N211	N21	0.850000	0.838600	0.489100
N221	N22	0.646000	0.558600	0.648300
N231	N23	0.364000	0.899700	0.947500
N241	N24	0.121000	0.561000	0.841000
N251	N25	0.398000	0.674000	0.943000
La61	La6	0.511550	0.276770	0.744570
O361	O36	0.372300	0.384100	0.765200
H161	H16	0.294600	0.399500	0.735200
H171	H17	0.429000	0.383800	0.805300
O371	O37	0.675300	0.327200	0.853400
O381	O38	0.801500	0.240100	0.826700
C611	C61	0.784700	0.285100	0.868600
C621	C62	0.897700	0.284600	0.936400
C631	C63	0.945900	0.341300	0.967800
C641	C64	0.950900	0.229000	0.967500
O391	O39	0.186800	0.289600	0.675900
O401	O40	0.404000	0.319200	0.624600
C651	C65	0.243200	0.310500	0.623300
C661	C66	0.119300	0.322400	0.559400
C671	C67	0.178800	0.326900	0.496100
C681	C68	0.943900	0.323600	0.562400
H181	H18	0.906600	0.322100	0.604800
O411	O41	0.271100	0.166800	0.713900
O421	O42	0.521000	0.161300	0.782800
C691	C69	0.393100	0.134800	0.749100
C701	C70	0.380300	0.065400	0.749300
C711	C71	0.262800	0.033600	0.701700
C721	C72	0.495500	0.032100	0.798100
N261	N26	0.350000	0.338600	0.489100
N271	N27	0.146000	0.058600	0.648300
N281	N28	0.864000	0.399700	0.947500
N291	N29	0.621000	0.061000	0.841000
N301	N30	0.898000	0.174000	0.943000
La71	La7	0.988450	0.776770	0.255430
O431	O43	0.127700	0.884100	0.234800
H191	H19	0.205400	0.899500	0.264800
H201	H20	0.071000	0.883800	0.194700
O441	O44	0.824700	0.827200	0.146600
O451	O45	0.698500	0.740100	0.173300
C731	C73	0.715300	0.785100	0.131400
C741	C74	0.602300	0.784600	0.063600
C751	C75	0.554100	0.841300	0.032200
C761	C76	0.549100	0.729000	0.032500
O461	O46	0.313200	0.789600	0.324100
O471	O47	0.096000	0.819200	0.375400
C771	C77	0.256800	0.810500	0.376700
C781	C78	0.380700	0.822400	0.440600
C791	C79	0.321200	0.826900	0.503900
C801	C80	0.556100	0.823600	0.437600
H211	H21	0.593400	0.822100	0.395200
O481	O48	0.228900	0.666800	0.286100
O491	O49	0.979000	0.661300	0.217200
C811	C81	0.106900	0.634800	0.250900
C821	C82	0.119700	0.565400	0.250700
C831	C83	0.237200	0.533600	0.298300
C841	C84	0.004500	0.532100	0.201900
N311	N31	0.150000	0.838600	0.510900
N321	N32	0.354000	0.558600	0.351700
N331	N33	0.636000	0.899700	0.052500
N341	N34	0.879000	0.561000	0.159000
N351	N35	0.602000	0.674000	0.057000
La81	La8	0.488450	0.276770	0.255430
O501	O50	0.627700	0.384100	0.234800
H221	H22	0.705400	0.399500	0.264800
H231	H23	0.571000	0.383800	0.194700
O511	O51	0.324700	0.327200	0.146600
O521	O52	0.198500	0.240100	0.173300
C851	C85	0.215300	0.285100	0.131400
C861	C86	0.102300	0.284600	0.063600
C871	C87	0.054100	0.341300	0.032200
C881	C88	0.049100	0.229000	0.032500
O531	O53	0.813200	0.289600	0.324100
O541	O54	0.596000	0.319200	0.375400
C891	C89	0.756800	0.310500	0.376700
C901	C90	0.880700	0.322400	0.440600
C911	C91	0.821200	0.326900	0.503900
C921	C92	0.056100	0.323600	0.437600
H241	H24	0.093400	0.322100	0.395200
O551	O55	0.728900	0.166800	0.286100
O561	O56	0.479000	0.161300	0.217200
C931	C93	0.606900	0.134800	0.250900
C941	C94	0.619700	0.065400	0.250700
C951	C95	0.737200	0.033600	0.298300
C961	C96	0.504500	0.032100	0.201900
N361	N36	0.650000	0.338600	0.510900
N371	N37	0.854000	0.058600	0.351700
N381	N38	0.136000	0.399700	0.052500
N391	N39	0.379000	0.061000	0.159000
N401	N40	0.102000	0.174000	0.057000
