data_SOTXAC_clean_PM
_symmetry_space_group_name_H-M	'P1'
_cell_length_a	12.940600
_cell_length_b	12.940600
_cell_length_c	14.639000
_cell_angle_alpha	83.932000
_cell_angle_beta	83.932000
_cell_angle_gamma	61.624500
_symmetry_Int_Tables_number 1

loop_
_symmetry_equiv_pos_as_xyz
'x,y,z'

loop_
_atom_site_label
_atom_site_type_symbol
_atom_site_fract_x
_atom_site_fract_y
_atom_site_fract_z
Er11	Er1	0.348320	0.989720	0.027550
Er21	Er2	0.651680	0.010280	0.972450
Er31	Er3	0.010280	0.651680	0.472450
Er41	Er4	0.989720	0.348320	0.527550
H11	H1	0.217100	0.267700	0.764600
H21	H2	0.698300	0.522300	0.640900
H31	H3	0.473200	0.714000	0.841900
H41	H4	0.732300	0.782900	0.735400
H51	H5	0.522300	0.698300	0.140900
H61	H6	0.301700	0.477700	0.359100
H71	H7	0.526800	0.286000	0.158100
H81	H8	0.286000	0.526800	0.658100
H91	H9	0.477700	0.301700	0.859100
H101	H10	0.714000	0.473200	0.341900
H111	H11	0.782900	0.732300	0.235400
H121	H12	0.267700	0.217100	0.264600
C11	C1	0.350200	0.269000	0.823500
C21	C2	0.738100	0.693300	0.237000
C31	C3	0.599800	0.760200	0.798700
C41	C4	0.303400	0.461200	0.698600
C51	C5	0.672900	0.582900	0.680300
C61	C6	0.731000	0.649800	0.676500
C71	C7	0.239800	0.400200	0.701300
C81	C8	0.649800	0.731000	0.176500
C91	C9	0.693300	0.738100	0.737000
C101	C10	0.484500	0.460300	0.253700
C111	C11	0.327100	0.417100	0.319700
C121	C12	0.261900	0.306700	0.763000
C131	C13	0.394600	0.422200	0.758200
C141	C14	0.857100	0.560500	0.364600
C151	C15	0.370800	0.169400	0.893200
C161	C16	0.142900	0.439500	0.635400
C171	C17	0.760200	0.599800	0.298700
C181	C18	0.560500	0.857100	0.864600
C191	C19	0.269000	0.350200	0.323500
C201	C20	0.577800	0.605400	0.741800
C211	C21	0.696600	0.538800	0.301400
C221	C22	0.515500	0.539700	0.746300
C231	C23	0.422200	0.394600	0.258200
C241	C24	0.417100	0.327100	0.819700
C251	C25	0.306700	0.261900	0.263000
C261	C26	0.629200	0.830600	0.106800
C271	C27	0.400200	0.239800	0.201300
C281	C28	0.169400	0.370800	0.393200
C291	C29	0.830600	0.629200	0.606800
C301	C30	0.460300	0.484500	0.753700
C311	C31	0.538800	0.696600	0.801400
C321	C32	0.439500	0.142900	0.135400
C331	C33	0.539700	0.515500	0.246300
C341	C34	0.605400	0.577800	0.241800
C351	C35	0.461200	0.303400	0.198600
C361	C36	0.582900	0.672900	0.180300
N11	N1	0.164100	0.728100	0.533200
N21	N2	0.728100	0.164100	0.033200
N31	N3	0.835900	0.271900	0.466800
N41	N4	0.271900	0.835900	0.966800
O11	O1	0.899700	0.456300	0.396800
O21	O2	0.100300	0.543700	0.603200
O31	O3	0.219900	0.946100	0.951100
O41	O4	0.463900	0.118100	0.931700
O51	O5	0.536100	0.881900	0.068300
O61	O6	0.115600	0.363800	0.617700
O71	O7	0.745500	0.231500	0.072800
O81	O8	0.287600	0.145200	0.913800
O91	O9	0.854800	0.712400	0.586200
O101	O10	0.118100	0.463900	0.431700
O111	O11	0.647800	0.202000	0.978700
O121	O12	0.145200	0.287600	0.413800
O131	O13	0.456300	0.899700	0.896800
O141	O14	0.884400	0.636200	0.382300
O151	O15	0.254500	0.768500	0.927200
O161	O16	0.780100	0.053900	0.048900
O171	O17	0.053900	0.780100	0.548900
O181	O18	0.352200	0.798000	0.021300
O191	O19	0.202000	0.647800	0.478700
O201	O20	0.798000	0.352200	0.521300
O211	O21	0.946100	0.219900	0.451100
O221	O22	0.636200	0.884400	0.882300
O231	O23	0.543700	0.100300	0.103200
O241	O24	0.712400	0.854800	0.086200
O251	O25	0.231500	0.745500	0.572800
O261	O26	0.363800	0.115600	0.117700
O271	O27	0.768500	0.254500	0.427200
O281	O28	0.881900	0.536100	0.568300
