data_SOXHUI_SL_PM
_symmetry_space_group_name_H-M	'P1'
_cell_length_a	14.915000
_cell_length_b	14.915000
_cell_length_c	5.543000
_cell_angle_alpha	90.000000
_cell_angle_beta	90.000000
_cell_angle_gamma	120.000000
_symmetry_Int_Tables_number 1

loop_
_symmetry_equiv_pos_as_xyz
'x,y,z'

loop_
_atom_site_label
_atom_site_type_symbol
_atom_site_fract_x
_atom_site_fract_y
_atom_site_fract_z
Li11	Li1	0.336400	0.531500	0.224300
Li21	Li2	0.269100	0.302200	0.983400
Li31	Li3	0.195300	0.332300	0.493300
C41	C4	0.349700	0.502900	0.754000
C51	C5	0.540300	0.659800	0.230400
C61	C6	0.054800	0.224400	0.880300
O71	O7	0.331700	0.459600	0.953200
O81	O8	0.329000	0.465600	0.550000
O91	O9	0.460700	0.667900	0.236800
O101	O10	0.626100	0.729600	0.329600
O111	O11	0.142600	0.260200	0.748600
O121	O12	0.979400	0.226800	0.747200
H131	H13	0.391770	0.591000	0.742870
H141	H14	0.538080	0.590650	0.136850
Li151	Li15	0.468500	0.804900	0.224300
Li161	Li16	0.697800	0.966900	0.983400
Li171	Li17	0.667700	0.863000	0.493300
C181	C18	0.497100	0.846800	0.754000
C191	C19	0.340200	0.880500	0.230400
C201	C20	0.775600	0.830400	0.880300
O211	O21	0.540400	0.872100	0.953200
O221	O22	0.534400	0.863400	0.550000
O231	O23	0.332100	0.792800	0.236800
O241	O24	0.270400	0.896500	0.329600
O251	O25	0.739800	0.882400	0.748600
O261	O26	0.773200	0.752600	0.747200
H271	H27	0.409000	0.800780	0.742870
H281	H28	0.409350	0.947430	0.136850
Li291	Li29	0.195100	0.663600	0.224300
Li301	Li30	0.033100	0.730900	0.983400
Li311	Li31	0.137000	0.804700	0.493300
C321	C32	0.153200	0.650300	0.754000
C331	C33	0.119500	0.459700	0.230400
C341	C34	0.169600	0.945200	0.880300
O351	O35	0.127900	0.668300	0.953200
O361	O36	0.136600	0.671000	0.550000
O371	O37	0.207200	0.539300	0.236800
O381	O38	0.103500	0.373900	0.329600
O391	O39	0.117600	0.857400	0.748600
O401	O40	0.247400	0.020600	0.747200
H411	H41	0.199220	0.608230	0.742870
H421	H42	0.052570	0.461920	0.136850
Li431	Li43	0.663600	0.468500	0.724300
Li441	Li44	0.730900	0.697800	0.483400
Li451	Li45	0.804700	0.667700	0.993300
C461	C46	0.650300	0.497100	0.254000
C471	C47	0.459700	0.340200	0.730400
C481	C48	0.945200	0.775600	0.380300
O491	O49	0.668300	0.540400	0.453200
O501	O50	0.671000	0.534400	0.050000
O511	O51	0.539300	0.332100	0.736800
O521	O52	0.373900	0.270400	0.829600
O531	O53	0.857400	0.739800	0.248600
O541	O54	0.020600	0.773200	0.247200
H551	H55	0.608230	0.409000	0.242870
H561	H56	0.461920	0.409350	0.636850
H571	H57	0.947470	0.802170	0.574170
Li581	Li58	0.531500	0.195100	0.724300
Li591	Li59	0.302200	0.033100	0.483400
Li601	Li60	0.332300	0.137000	0.993300
C611	C61	0.502900	0.153200	0.254000
C621	C62	0.659800	0.119500	0.730400
C631	C63	0.224400	0.169600	0.380300
O641	O64	0.459600	0.127900	0.453200
O651	O65	0.465600	0.136600	0.050000
O661	O66	0.667900	0.207200	0.736800
O671	O67	0.729600	0.103500	0.829600
O681	O68	0.260200	0.117600	0.248600
O691	O69	0.226800	0.247400	0.247200
H701	H70	0.591000	0.199220	0.242870
H711	H71	0.590650	0.052570	0.636850
H721	H72	0.197830	0.145300	0.574170
Li731	Li73	0.804900	0.336400	0.724300
Li741	Li74	0.966900	0.269100	0.483400
Li751	Li75	0.863000	0.195300	0.993300
C761	C76	0.846800	0.349700	0.254000
C771	C77	0.880500	0.540300	0.730400
C781	C78	0.830400	0.054800	0.380300
O791	O79	0.872100	0.331700	0.453200
O801	O80	0.863400	0.329000	0.050000
O811	O81	0.792800	0.460700	0.736800
O821	O82	0.896500	0.626100	0.829600
O831	O83	0.882400	0.142600	0.248600
O841	O84	0.752600	0.979400	0.247200
H851	H85	0.800780	0.391770	0.242870
H861	H86	0.947430	0.538080	0.636850
H871	H87	0.854700	0.052530	0.574170
H881	H88	0.052530	0.197830	0.074170
H891	H89	0.802170	0.854700	0.074170
H901	H90	0.145300	0.947470	0.074170
