data_SOXZIP_clean_PM
_symmetry_space_group_name_H-M	'P1'
_cell_length_a	17.094000
_cell_length_b	13.187300
_cell_length_c	21.490000
_cell_angle_alpha	90.000000
_cell_angle_beta	98.457000
_cell_angle_gamma	90.000000
_symmetry_Int_Tables_number 1

loop_
_symmetry_equiv_pos_as_xyz
'x,y,z'

loop_
_atom_site_label
_atom_site_type_symbol
_atom_site_fract_x
_atom_site_fract_y
_atom_site_fract_z
Ba11	Ba1	0.129400	0.460200	0.987900
N11	N1	0.439600	0.370200	0.994600
N21	N2	0.272600	0.856800	0.687700
O11	O1	0.472400	0.510200	0.911200
O21	O2	0.411500	0.430500	0.826900
O31	O3	0.403400	0.563800	0.010700
O41	O4	0.282500	0.534600	0.033400
O51	O5	0.492400	0.106600	0.026700
O61	O6	0.373000	0.174700	0.014200
O71	O7	0.351500	0.692900	0.742200
O81	O8	0.448100	0.699700	0.682700
O91	O9	0.207500	0.672400	0.677400
O101	O10	0.170400	0.686800	0.574300
O111	O11	0.282500	0.028900	0.608700
O121	O12	0.286000	0.135800	0.689000
C11	C1	0.415400	0.349200	0.926900
C21	C2	0.433900	0.435000	0.884600
C31	C3	0.368700	0.392400	0.027300
C41	C4	0.348100	0.503800	0.022900
C51	C5	0.487500	0.284900	0.026400
C61	C6	0.446700	0.181400	0.021000
C71	C7	0.353300	0.832500	0.671600
C81	C8	0.386800	0.735000	0.699900
C91	C9	0.210700	0.836900	0.631600
C101	C10	0.195200	0.723900	0.625800
C111	C11	0.268200	0.962100	0.711400
C121	C12	0.280100	0.048600	0.664600
Ba21	Ba2	0.629400	0.960200	0.487900
N31	N3	0.939600	0.870200	0.494600
N41	N4	0.772600	0.356800	0.187700
O131	O13	0.972400	0.010200	0.411200
O141	O14	0.911500	0.930500	0.326900
O151	O15	0.903400	0.063800	0.510700
O161	O16	0.782500	0.034600	0.533400
O171	O17	0.992400	0.606600	0.526700
O181	O18	0.873000	0.674700	0.514200
O191	O19	0.851500	0.192900	0.242200
O201	O20	0.948100	0.199700	0.182700
O211	O21	0.707500	0.172400	0.177400
O221	O22	0.670400	0.186800	0.074300
O231	O23	0.782500	0.528900	0.108700
O241	O24	0.786000	0.635800	0.189000
C131	C13	0.915400	0.849200	0.426900
C141	C14	0.933900	0.935000	0.384600
C151	C15	0.868700	0.892400	0.527300
C161	C16	0.848100	0.003800	0.522900
C171	C17	0.987500	0.784900	0.526400
C181	C18	0.946700	0.681400	0.521000
C191	C19	0.853300	0.332500	0.171600
C201	C20	0.886800	0.235000	0.199900
C211	C21	0.710700	0.336900	0.131600
C221	C22	0.695200	0.223900	0.125800
C231	C23	0.768200	0.462100	0.211400
C241	C24	0.780100	0.548600	0.164600
Ba31	Ba3	0.870600	0.460200	0.512100
N51	N5	0.560400	0.370200	0.505400
N61	N6	0.727400	0.856800	0.812300
O251	O25	0.527600	0.510200	0.588800
O261	O26	0.588500	0.430500	0.673100
O271	O27	0.596600	0.563800	0.489300
O281	O28	0.717500	0.534600	0.466600
O291	O29	0.507600	0.106600	0.473300
O301	O30	0.627000	0.174700	0.485800
O311	O31	0.648500	0.692900	0.757800
O321	O32	0.551900	0.699700	0.817300
O331	O33	0.792500	0.672400	0.822600
O341	O34	0.829600	0.686800	0.925700
O351	O35	0.717500	0.028900	0.891300
O361	O36	0.714000	0.135800	0.811000
C251	C25	0.584600	0.349200	0.573100
C261	C26	0.566100	0.435000	0.615400
C271	C27	0.631300	0.392400	0.472700
C281	C28	0.651900	0.503800	0.477100
C291	C29	0.512500	0.284900	0.473600
C301	C30	0.553300	0.181400	0.479000
C311	C31	0.646700	0.832500	0.828400
C321	C32	0.613200	0.735000	0.800100
C331	C33	0.789300	0.836900	0.868400
C341	C34	0.804800	0.723900	0.874200
C351	C35	0.731800	0.962100	0.788600
C361	C36	0.719900	0.048600	0.835400
Ba41	Ba4	0.370600	0.960200	0.012100
N71	N7	0.060400	0.870200	0.005400
N81	N8	0.227400	0.356800	0.312300
O371	O37	0.027600	0.010200	0.088800
O381	O38	0.088500	0.930500	0.173100
O391	O39	0.096600	0.063800	0.989300
O401	O40	0.217500	0.034600	0.966600
O411	O41	0.007600	0.606600	0.973300
O421	O42	0.127000	0.674700	0.985800
O431	O43	0.148500	0.192900	0.257800
O441	O44	0.051900	0.199700	0.317300
O451	O45	0.292500	0.172400	0.322600
O461	O46	0.329600	0.186800	0.425700
O471	O47	0.217500	0.528900	0.391300
O481	O48	0.214000	0.635800	0.311000
C371	C37	0.084600	0.849200	0.073100
C381	C38	0.066100	0.935000	0.115400
C391	C39	0.131300	0.892400	0.972700
C401	C40	0.151900	0.003800	0.977100
C411	C41	0.012500	0.784900	0.973600
C421	C42	0.053300	0.681400	0.979000
C431	C43	0.146700	0.332500	0.328400
C441	C44	0.113200	0.235000	0.300100
C451	C45	0.289300	0.336900	0.368400
C461	C46	0.304800	0.223900	0.374200
C471	C47	0.231800	0.462100	0.288600
C481	C48	0.219900	0.548600	0.335400
Ba51	Ba5	0.870600	0.539800	0.012100
N91	N9	0.560400	0.629800	0.005400
N101	N10	0.727400	0.143200	0.312300
O491	O49	0.527600	0.489800	0.088800
O501	O50	0.588500	0.569500	0.173100
O511	O51	0.596600	0.436200	0.989300
O521	O52	0.717500	0.465400	0.966600
O531	O53	0.507600	0.893400	0.973300
O541	O54	0.627000	0.825300	0.985800
O551	O55	0.648500	0.307100	0.257800
O561	O56	0.551900	0.300300	0.317300
O571	O57	0.792500	0.327600	0.322600
O581	O58	0.829600	0.313200	0.425700
O591	O59	0.717500	0.971100	0.391300
O601	O60	0.714000	0.864200	0.311000
C491	C49	0.584600	0.650800	0.073100
C501	C50	0.566100	0.565000	0.115400
C511	C51	0.631300	0.607600	0.972700
C521	C52	0.651900	0.496200	0.977100
C531	C53	0.512500	0.715100	0.973600
C541	C54	0.553300	0.818600	0.979000
C551	C55	0.646700	0.167500	0.328400
C561	C56	0.613200	0.265000	0.300100
C571	C57	0.789300	0.163100	0.368400
C581	C58	0.804800	0.276100	0.374200
C591	C59	0.731800	0.037900	0.288600
C601	C60	0.719900	0.951400	0.335400
Ba61	Ba6	0.370600	0.039800	0.512100
N111	N11	0.060400	0.129800	0.505400
N121	N12	0.227400	0.643200	0.812300
O611	O61	0.027600	0.989800	0.588800
O621	O62	0.088500	0.069500	0.673100
O631	O63	0.096600	0.936200	0.489300
O641	O64	0.217500	0.965400	0.466600
O651	O65	0.007600	0.393400	0.473300
O661	O66	0.127000	0.325300	0.485800
O671	O67	0.148500	0.807100	0.757800
O681	O68	0.051900	0.800300	0.817300
O691	O69	0.292500	0.827600	0.822600
O701	O70	0.329600	0.813200	0.925700
O711	O71	0.217500	0.471100	0.891300
O721	O72	0.214000	0.364200	0.811000
C611	C61	0.084600	0.150800	0.573100
C621	C62	0.066100	0.065000	0.615400
C631	C63	0.131300	0.107600	0.472700
C641	C64	0.151900	0.996200	0.477100
C651	C65	0.012500	0.215100	0.473600
C661	C66	0.053300	0.318600	0.479000
C671	C67	0.146700	0.667500	0.828400
C681	C68	0.113200	0.765000	0.800100
C691	C69	0.289300	0.663100	0.868400
C701	C70	0.304800	0.776100	0.874200
C711	C71	0.231800	0.537900	0.788600
C721	C72	0.219900	0.451400	0.835400
Ba71	Ba7	0.129400	0.539800	0.487900
N131	N13	0.439600	0.629800	0.494600
N141	N14	0.272600	0.143200	0.187700
O731	O73	0.472400	0.489800	0.411200
O741	O74	0.411500	0.569500	0.326900
O751	O75	0.403400	0.436200	0.510700
O761	O76	0.282500	0.465400	0.533400
O771	O77	0.492400	0.893400	0.526700
O781	O78	0.373000	0.825300	0.514200
O791	O79	0.351500	0.307100	0.242200
O801	O80	0.448100	0.300300	0.182700
O811	O81	0.207500	0.327600	0.177400
O821	O82	0.170400	0.313200	0.074300
O831	O83	0.282500	0.971100	0.108700
O841	O84	0.286000	0.864200	0.189000
C731	C73	0.415400	0.650800	0.426900
C741	C74	0.433900	0.565000	0.384600
C751	C75	0.368700	0.607600	0.527300
C761	C76	0.348100	0.496200	0.522900
C771	C77	0.487500	0.715100	0.526400
C781	C78	0.446700	0.818600	0.521000
C791	C79	0.353300	0.167500	0.171600
C801	C80	0.386800	0.265000	0.199900
C811	C81	0.210700	0.163100	0.131600
C821	C82	0.195200	0.276100	0.125800
C831	C83	0.268200	0.037900	0.211400
C841	C84	0.280100	0.951400	0.164600
Ba81	Ba8	0.629400	0.039800	0.987900
N151	N15	0.939600	0.129800	0.994600
N161	N16	0.772600	0.643200	0.687700
O851	O85	0.972400	0.989800	0.911200
O861	O86	0.911500	0.069500	0.826900
O871	O87	0.903400	0.936200	0.010700
O881	O88	0.782500	0.965400	0.033400
O891	O89	0.992400	0.393400	0.026700
O901	O90	0.873000	0.325300	0.014200
O911	O91	0.851500	0.807100	0.742200
O921	O92	0.948100	0.800300	0.682700
O931	O93	0.707500	0.827600	0.677400
O941	O94	0.670400	0.813200	0.574300
O951	O95	0.782500	0.471100	0.608700
O961	O96	0.786000	0.364200	0.689000
C851	C85	0.915400	0.150800	0.926900
C861	C86	0.933900	0.065000	0.884600
C871	C87	0.868700	0.107600	0.027300
C881	C88	0.848100	0.996200	0.022900
C891	C89	0.987500	0.215100	0.026400
C901	C90	0.946700	0.318600	0.021000
C911	C91	0.853300	0.667500	0.671600
C921	C92	0.886800	0.765000	0.699900
C931	C93	0.710700	0.663100	0.631600
C941	C94	0.695200	0.776100	0.625800
C951	C95	0.768200	0.537900	0.711400
C961	C96	0.780100	0.451400	0.664600
Ba91	Ba9	0.500000	0.530300	0.750000
Ba101	Ba10	0.000000	0.030300	0.250000
Ba111	Ba11	0.500000	0.469700	0.250000
Ba121	Ba12	0.000000	0.969700	0.750000
Co11	Co1	0.500000	0.500000	0.000000
Co21	Co2	0.000000	0.000000	0.500000
Co31	Co3	0.500000	0.500000	0.500000
Co41	Co4	0.000000	0.000000	0.000000
Co51	Co5	0.250000	0.750000	0.750000
Co61	Co6	0.750000	0.750000	0.750000
Co71	Co7	0.750000	0.250000	0.250000
Co81	Co8	0.250000	0.250000	0.250000
