data_SOYFUJ_clean_PM
_symmetry_space_group_name_H-M	'P1'
_cell_length_a	24.739400
_cell_length_b	38.269000
_cell_length_c	5.348700
_cell_angle_alpha	90.000000
_cell_angle_beta	90.000000
_cell_angle_gamma	90.000000
_symmetry_Int_Tables_number 1

loop_
_symmetry_equiv_pos_as_xyz
'x,y,z'

loop_
_atom_site_label
_atom_site_type_symbol
_atom_site_fract_x
_atom_site_fract_y
_atom_site_fract_z
Ag11	Ag1	0.960090	0.231450	0.439530
N11	N1	0.007040	0.196630	0.682600
N21	N2	0.036960	0.209000	0.883200
N31	N3	0.047140	0.152530	0.858600
N41	N4	0.063150	0.117440	0.880900
N51	N5	0.159140	0.032450	0.347100
C11	C1	0.014050	0.162590	0.671700
H11	H1	0.998600	0.147800	0.553600
C21	C2	0.061240	0.182110	0.985800
H21	H2	0.084300	0.183000	0.122900
C31	C3	0.094930	0.110410	0.058000
H31	H3	0.107200	0.127800	0.165300
C41	C4	0.112080	0.073540	0.090100
C51	C5	0.094980	0.047360	0.933100
H41	H4	0.073400	0.052300	0.795200
C61	C6	0.110660	0.013320	0.984900
H51	H5	0.100100	0.995100	0.880800
C71	C7	0.142140	0.006840	0.193500
H61	H6	0.151900	0.983900	0.228900
C81	C8	0.144070	0.065170	0.293400
H71	H7	0.155600	0.083100	0.397600
Ag21	Ag2	0.960090	0.731450	0.939530
N61	N6	0.007040	0.696630	0.182600
N71	N7	0.036960	0.709000	0.383200
N81	N8	0.047140	0.652530	0.358600
N91	N9	0.063150	0.617440	0.380900
N101	N10	0.159140	0.532450	0.847100
C91	C9	0.014050	0.662590	0.171700
H81	H8	0.998600	0.647800	0.053600
C101	C10	0.061240	0.682110	0.485800
H91	H9	0.084300	0.683000	0.622900
C111	C11	0.094930	0.610410	0.558000
H101	H10	0.107200	0.627800	0.665300
C121	C12	0.112080	0.573540	0.590100
C131	C13	0.094980	0.547360	0.433100
H111	H11	0.073400	0.552300	0.295200
C141	C14	0.110660	0.513320	0.484900
H121	H12	0.100100	0.495100	0.380800
C151	C15	0.142140	0.506840	0.693500
H131	H13	0.151900	0.483900	0.728900
C161	C16	0.144070	0.565170	0.793400
H141	H14	0.155600	0.583100	0.897600
Ag31	Ag3	0.460090	0.231450	0.939530
N111	N11	0.507040	0.196630	0.182600
N121	N12	0.536960	0.209000	0.383200
N131	N13	0.547140	0.152530	0.358600
N141	N14	0.563150	0.117440	0.380900
N151	N15	0.659140	0.032450	0.847100
C171	C17	0.514050	0.162590	0.171700
H151	H15	0.498600	0.147800	0.053600
C181	C18	0.561240	0.182110	0.485800
H161	H16	0.584300	0.183000	0.622900
C191	C19	0.594930	0.110410	0.558000
H171	H17	0.607200	0.127800	0.665300
C201	C20	0.612080	0.073540	0.590100
C211	C21	0.594980	0.047360	0.433100
H181	H18	0.573400	0.052300	0.295200
C221	C22	0.610660	0.013320	0.484900
H191	H19	0.600100	0.995100	0.380800
C231	C23	0.642140	0.006840	0.693500
H201	H20	0.651900	0.983900	0.728900
C241	C24	0.644070	0.065170	0.793400
H211	H21	0.655600	0.083100	0.897600
Ag41	Ag4	0.460090	0.731450	0.439530
N161	N16	0.507040	0.696630	0.682600
N171	N17	0.536960	0.709000	0.883200
N181	N18	0.547140	0.652530	0.858600
N191	N19	0.563150	0.617440	0.880900
N201	N20	0.659140	0.532450	0.347100
C251	C25	0.514050	0.662590	0.671700
H221	H22	0.498600	0.647800	0.553600
C261	C26	0.561240	0.682110	0.985800
H231	H23	0.584300	0.683000	0.122900
C271	C27	0.594930	0.610410	0.058000
H241	H24	0.607200	0.627800	0.165300
C281	C28	0.612080	0.573540	0.090100
C291	C29	0.594980	0.547360	0.933100
H251	H25	0.573400	0.552300	0.795200
C301	C30	0.610660	0.513320	0.984900
H261	H26	0.600100	0.495100	0.880800
C311	C31	0.642140	0.506840	0.193500
H271	H27	0.651900	0.483900	0.228900
C321	C32	0.644070	0.565170	0.293400
H281	H28	0.655600	0.583100	0.397600
Ag51	Ag5	0.039910	0.768550	0.439530
N211	N21	0.992960	0.803370	0.682600
N221	N22	0.963040	0.791000	0.883200
N231	N23	0.952860	0.847470	0.858600
N241	N24	0.936850	0.882560	0.880900
N251	N25	0.840860	0.967550	0.347100
C331	C33	0.985950	0.837410	0.671700
H291	H29	0.001400	0.852200	0.553600
C341	C34	0.938760	0.817890	0.985800
H301	H30	0.915700	0.817000	0.122900
C351	C35	0.905070	0.889590	0.058000
H311	H31	0.892800	0.872200	0.165300
C361	C36	0.887920	0.926460	0.090100
C371	C37	0.905020	0.952640	0.933100
H321	H32	0.926600	0.947700	0.795200
C381	C38	0.889340	0.986680	0.984900
H331	H33	0.899900	0.004900	0.880800
C391	C39	0.857860	0.993160	0.193500
H341	H34	0.848100	0.016100	0.228900
C401	C40	0.855930	0.934830	0.293400
H351	H35	0.844400	0.916900	0.397600
Ag61	Ag6	0.039910	0.268550	0.939530
N261	N26	0.992960	0.303370	0.182600
N271	N27	0.963040	0.291000	0.383200
N281	N28	0.952860	0.347470	0.358600
N291	N29	0.936850	0.382560	0.380900
N301	N30	0.840860	0.467550	0.847100
C411	C41	0.985950	0.337410	0.171700
H361	H36	0.001400	0.352200	0.053600
C421	C42	0.938760	0.317890	0.485800
H371	H37	0.915700	0.317000	0.622900
C431	C43	0.905070	0.389590	0.558000
H381	H38	0.892800	0.372200	0.665300
C441	C44	0.887920	0.426460	0.590100
C451	C45	0.905020	0.452640	0.433100
H391	H39	0.926600	0.447700	0.295200
C461	C46	0.889340	0.486680	0.484900
H401	H40	0.899900	0.504900	0.380800
C471	C47	0.857860	0.493160	0.693500
H411	H41	0.848100	0.516100	0.728900
C481	C48	0.855930	0.434830	0.793400
H421	H42	0.844400	0.416900	0.897600
Ag71	Ag7	0.539910	0.768550	0.939530
N311	N31	0.492960	0.803370	0.182600
N321	N32	0.463040	0.791000	0.383200
N331	N33	0.452860	0.847470	0.358600
N341	N34	0.436850	0.882560	0.380900
N351	N35	0.340860	0.967550	0.847100
C491	C49	0.485950	0.837410	0.171700
H431	H43	0.501400	0.852200	0.053600
C501	C50	0.438760	0.817890	0.485800
H441	H44	0.415700	0.817000	0.622900
C511	C51	0.405070	0.889590	0.558000
H451	H45	0.392800	0.872200	0.665300
C521	C52	0.387920	0.926460	0.590100
C531	C53	0.405020	0.952640	0.433100
H461	H46	0.426600	0.947700	0.295200
C541	C54	0.389340	0.986680	0.484900
H471	H47	0.399900	0.004900	0.380800
C551	C55	0.357860	0.993160	0.693500
H481	H48	0.348100	0.016100	0.728900
C561	C56	0.355930	0.934830	0.793400
H491	H49	0.344400	0.916900	0.897600
Ag81	Ag8	0.539910	0.268550	0.439530
N361	N36	0.492960	0.303370	0.682600
N371	N37	0.463040	0.291000	0.883200
N381	N38	0.452860	0.347470	0.858600
N391	N39	0.436850	0.382560	0.880900
N401	N40	0.340860	0.467550	0.347100
C571	C57	0.485950	0.337410	0.671700
H501	H50	0.501400	0.352200	0.553600
C581	C58	0.438760	0.317890	0.985800
H511	H51	0.415700	0.317000	0.122900
C591	C59	0.405070	0.389590	0.058000
H521	H52	0.392800	0.372200	0.165300
C601	C60	0.387920	0.426460	0.090100
C611	C61	0.405020	0.452640	0.933100
H531	H53	0.426600	0.447700	0.795200
C621	C62	0.389340	0.486680	0.984900
H541	H54	0.399900	0.504900	0.880800
C631	C63	0.357860	0.493160	0.193500
H551	H55	0.348100	0.516100	0.228900
C641	C64	0.355930	0.434830	0.293400
H561	H56	0.344400	0.416900	0.397600
Ag91	Ag9	0.210090	0.018550	0.689530
N411	N41	0.257040	0.053370	0.932600
N421	N42	0.286960	0.041000	0.133200
N431	N43	0.297140	0.097470	0.108600
N441	N44	0.313150	0.132560	0.130900
N451	N45	0.409140	0.217550	0.597100
C651	C65	0.264050	0.087410	0.921700
H571	H57	0.248600	0.102200	0.803600
C661	C66	0.311240	0.067890	0.235800
H581	H58	0.334300	0.067000	0.372900
C671	C67	0.344930	0.139590	0.308000
H591	H59	0.357200	0.122200	0.415300
C681	C68	0.362080	0.176460	0.340100
C691	C69	0.344980	0.202640	0.183100
H601	H60	0.323400	0.197700	0.045200
C701	C70	0.360660	0.236680	0.234900
H611	H61	0.350100	0.254900	0.130800
C711	C71	0.392140	0.243160	0.443500
H621	H62	0.401900	0.266100	0.478900
C721	C72	0.394070	0.184830	0.543400
H631	H63	0.405600	0.166900	0.647600
Ag101	Ag10	0.210090	0.518550	0.189530
N461	N46	0.257040	0.553370	0.432600
N471	N47	0.286960	0.541000	0.633200
N481	N48	0.297140	0.597470	0.608600
N491	N49	0.313150	0.632560	0.630900
N501	N50	0.409140	0.717550	0.097100
C731	C73	0.264050	0.587410	0.421700
H641	H64	0.248600	0.602200	0.303600
C741	C74	0.311240	0.567890	0.735800
H651	H65	0.334300	0.567000	0.872900
C751	C75	0.344930	0.639590	0.808000
H661	H66	0.357200	0.622200	0.915300
C761	C76	0.362080	0.676460	0.840100
C771	C77	0.344980	0.702640	0.683100
H671	H67	0.323400	0.697700	0.545200
C781	C78	0.360660	0.736680	0.734900
H681	H68	0.350100	0.754900	0.630800
C791	C79	0.392140	0.743160	0.943500
H691	H69	0.401900	0.766100	0.978900
C801	C80	0.394070	0.684830	0.043400
H701	H70	0.405600	0.666900	0.147600
Ag111	Ag11	0.710090	0.018550	0.189530
N511	N51	0.757040	0.053370	0.432600
N521	N52	0.786960	0.041000	0.633200
N531	N53	0.797140	0.097470	0.608600
N541	N54	0.813150	0.132560	0.630900
N551	N55	0.909140	0.217550	0.097100
C811	C81	0.764050	0.087410	0.421700
H711	H71	0.748600	0.102200	0.303600
C821	C82	0.811240	0.067890	0.735800
H721	H72	0.834300	0.067000	0.872900
C831	C83	0.844930	0.139590	0.808000
H731	H73	0.857200	0.122200	0.915300
C841	C84	0.862080	0.176460	0.840100
C851	C85	0.844980	0.202640	0.683100
H741	H74	0.823400	0.197700	0.545200
C861	C86	0.860660	0.236680	0.734900
H751	H75	0.850100	0.254900	0.630800
C871	C87	0.892140	0.243160	0.943500
H761	H76	0.901900	0.266100	0.978900
C881	C88	0.894070	0.184830	0.043400
H771	H77	0.905600	0.166900	0.147600
Ag121	Ag12	0.710090	0.518550	0.689530
N561	N56	0.757040	0.553370	0.932600
N571	N57	0.786960	0.541000	0.133200
N581	N58	0.797140	0.597470	0.108600
N591	N59	0.813150	0.632560	0.130900
N601	N60	0.909140	0.717550	0.597100
C891	C89	0.764050	0.587410	0.921700
H781	H78	0.748600	0.602200	0.803600
C901	C90	0.811240	0.567890	0.235800
H791	H79	0.834300	0.567000	0.372900
C911	C91	0.844930	0.639590	0.308000
H801	H80	0.857200	0.622200	0.415300
C921	C92	0.862080	0.676460	0.340100
C931	C93	0.844980	0.702640	0.183100
H811	H81	0.823400	0.697700	0.045200
C941	C94	0.860660	0.736680	0.234900
H821	H82	0.850100	0.754900	0.130800
C951	C95	0.892140	0.743160	0.443500
H831	H83	0.901900	0.766100	0.478900
C961	C96	0.894070	0.684830	0.543400
H841	H84	0.905600	0.666900	0.647600
Ag131	Ag13	0.289910	0.481450	0.689530
N611	N61	0.242960	0.446630	0.932600
N621	N62	0.213040	0.459000	0.133200
N631	N63	0.202860	0.402530	0.108600
N641	N64	0.186850	0.367440	0.130900
N651	N65	0.090860	0.282450	0.597100
C971	C97	0.235950	0.412590	0.921700
H851	H85	0.251400	0.397800	0.803600
C981	C98	0.188760	0.432110	0.235800
H861	H86	0.165700	0.433000	0.372900
C991	C99	0.155070	0.360410	0.308000
H871	H87	0.142800	0.377800	0.415300
C1001	C100	0.137920	0.323540	0.340100
C1011	C101	0.155020	0.297360	0.183100
H881	H88	0.176600	0.302300	0.045200
C1021	C102	0.139340	0.263320	0.234900
H891	H89	0.149900	0.245100	0.130800
C1031	C103	0.107860	0.256840	0.443500
H901	H90	0.098100	0.233900	0.478900
C1041	C104	0.105930	0.315170	0.543400
H911	H91	0.094400	0.333100	0.647600
Ag141	Ag14	0.289910	0.981450	0.189530
N661	N66	0.242960	0.946630	0.432600
N671	N67	0.213040	0.959000	0.633200
N681	N68	0.202860	0.902530	0.608600
N691	N69	0.186850	0.867440	0.630900
N701	N70	0.090860	0.782450	0.097100
C1051	C105	0.235950	0.912590	0.421700
H921	H92	0.251400	0.897800	0.303600
C1061	C106	0.188760	0.932110	0.735800
H931	H93	0.165700	0.933000	0.872900
C1071	C107	0.155070	0.860410	0.808000
H941	H94	0.142800	0.877800	0.915300
C1081	C108	0.137920	0.823540	0.840100
C1091	C109	0.155020	0.797360	0.683100
H951	H95	0.176600	0.802300	0.545200
C1101	C110	0.139340	0.763320	0.734900
H961	H96	0.149900	0.745100	0.630800
C1111	C111	0.107860	0.756840	0.943500
H971	H97	0.098100	0.733900	0.978900
C1121	C112	0.105930	0.815170	0.043400
H981	H98	0.094400	0.833100	0.147600
Ag151	Ag15	0.789910	0.481450	0.189530
N711	N71	0.742960	0.446630	0.432600
N721	N72	0.713040	0.459000	0.633200
N731	N73	0.702860	0.402530	0.608600
N741	N74	0.686850	0.367440	0.630900
N751	N75	0.590860	0.282450	0.097100
C1131	C113	0.735950	0.412590	0.421700
H991	H99	0.751400	0.397800	0.303600
C1141	C114	0.688760	0.432110	0.735800
H1001	H100	0.665700	0.433000	0.872900
C1151	C115	0.655070	0.360410	0.808000
H1011	H101	0.642800	0.377800	0.915300
C1161	C116	0.637920	0.323540	0.840100
C1171	C117	0.655020	0.297360	0.683100
H1021	H102	0.676600	0.302300	0.545200
C1181	C118	0.639340	0.263320	0.734900
H1031	H103	0.649900	0.245100	0.630800
C1191	C119	0.607860	0.256840	0.943500
H1041	H104	0.598100	0.233900	0.978900
C1201	C120	0.605930	0.315170	0.043400
H1051	H105	0.594400	0.333100	0.147600
Ag161	Ag16	0.789910	0.981450	0.689530
N761	N76	0.742960	0.946630	0.932600
N771	N77	0.713040	0.959000	0.133200
N781	N78	0.702860	0.902530	0.108600
N791	N79	0.686850	0.867440	0.130900
N801	N80	0.590860	0.782450	0.597100
C1211	C121	0.735950	0.912590	0.921700
H1061	H106	0.751400	0.897800	0.803600
C1221	C122	0.688760	0.932110	0.235800
H1071	H107	0.665700	0.933000	0.372900
C1231	C123	0.655070	0.860410	0.308000
H1081	H108	0.642800	0.877800	0.415300
C1241	C124	0.637920	0.823540	0.340100
C1251	C125	0.655020	0.797360	0.183100
H1091	H109	0.676600	0.802300	0.045200
C1261	C126	0.639340	0.763320	0.234900
H1101	H110	0.649900	0.745100	0.130800
C1271	C127	0.607860	0.756840	0.443500
H1111	H111	0.598100	0.733900	0.478900
C1281	C128	0.605930	0.815170	0.543400
H1121	H112	0.594400	0.833100	0.647600
