data_SOYWOT_neutral_b_PM
_symmetry_space_group_name_H-M	'P1'
_cell_length_a	18.606900
_cell_length_b	18.606900
_cell_length_c	18.606900
_cell_angle_alpha	60.000000
_cell_angle_beta	60.000000
_cell_angle_gamma	60.000000
_symmetry_Int_Tables_number 1

loop_
_symmetry_equiv_pos_as_xyz
'x,y,z'

loop_
_atom_site_label
_atom_site_type_symbol
_atom_site_fract_x
_atom_site_fract_y
_atom_site_fract_z
Cu11	Cu1	0.500000	0.500000	0.070560
Cu21	Cu2	0.500000	0.500000	0.929440
Cu31	Cu3	0.070560	0.929440	0.500000
Cu41	Cu4	0.929440	0.070560	0.500000
Cu51	Cu5	0.500000	0.070560	0.929440
Cu61	Cu6	0.500000	0.929440	0.070560
Cu71	Cu7	0.070560	0.500000	0.500000
Cu81	Cu8	0.929440	0.500000	0.500000
Cu91	Cu9	0.500000	0.929440	0.500000
Cu101	Cu10	0.500000	0.070560	0.500000
Cu111	Cu11	0.070560	0.500000	0.929440
Cu121	Cu12	0.929440	0.500000	0.070560
H11	H1	0.466600	0.772200	0.989000
H21	H2	0.772200	0.466600	0.772200
H31	H3	0.989000	0.772200	0.466600
H41	H4	0.772200	0.989000	0.772200
H51	H5	0.466600	0.989000	0.772200
H61	H6	0.772200	0.772200	0.989000
H71	H7	0.989000	0.466600	0.772200
H81	H8	0.772200	0.772200	0.466600
H91	H9	0.466600	0.772200	0.772200
H101	H10	0.772200	0.989000	0.466600
H111	H11	0.989000	0.772200	0.772200
H121	H12	0.772200	0.466600	0.989000
H131	H13	0.227800	0.533400	0.011000
H141	H14	0.533400	0.227800	0.227800
H151	H15	0.227800	0.011000	0.533400
H161	H16	0.011000	0.227800	0.227800
H171	H17	0.011000	0.533400	0.227800
H181	H18	0.227800	0.227800	0.011000
H191	H19	0.533400	0.011000	0.227800
H201	H20	0.227800	0.227800	0.533400
H211	H21	0.227800	0.533400	0.227800
H221	H22	0.011000	0.227800	0.533400
H231	H23	0.227800	0.011000	0.227800
H241	H24	0.533400	0.227800	0.011000
C11	C1	0.474140	0.662860	0.931500
C21	C2	0.465300	0.758100	0.888300
C31	C3	0.662860	0.474140	0.931500
C41	C4	0.758100	0.465300	0.888300
C51	C5	0.931500	0.931500	0.474140
C61	C6	0.888300	0.888300	0.465300
C71	C7	0.931500	0.931500	0.662860
C81	C8	0.888300	0.888300	0.758100
C91	C9	0.474140	0.931500	0.931500
C101	C10	0.465300	0.888300	0.888300
C111	C11	0.662860	0.931500	0.931500
C121	C12	0.758100	0.888300	0.888300
C131	C13	0.931500	0.474140	0.662860
C141	C14	0.888300	0.465300	0.758100
C151	C15	0.931500	0.662860	0.474140
C161	C16	0.888300	0.758100	0.465300
C171	C17	0.474140	0.931500	0.662860
C181	C18	0.465300	0.888300	0.758100
C191	C19	0.662860	0.931500	0.474140
C201	C20	0.758100	0.888300	0.465300
C211	C21	0.931500	0.662860	0.931500
C221	C22	0.888300	0.758100	0.888300
C231	C23	0.931500	0.474140	0.931500
C241	C24	0.888300	0.465300	0.888300
C251	C25	0.337140	0.525860	0.068500
C261	C26	0.241900	0.534700	0.111700
C271	C27	0.525860	0.337140	0.068500
C281	C28	0.534700	0.241900	0.111700
C291	C29	0.068500	0.068500	0.525860
C301	C30	0.111700	0.111700	0.534700
C311	C31	0.068500	0.068500	0.337140
C321	C32	0.111700	0.111700	0.241900
C331	C33	0.068500	0.525860	0.068500
C341	C34	0.111700	0.534700	0.111700
C351	C35	0.068500	0.337140	0.068500
C361	C36	0.111700	0.241900	0.111700
C371	C37	0.525860	0.068500	0.337140
C381	C38	0.534700	0.111700	0.241900
C391	C39	0.337140	0.068500	0.525860
C401	C40	0.241900	0.111700	0.534700
C411	C41	0.068500	0.525860	0.337140
C421	C42	0.111700	0.534700	0.241900
C431	C43	0.068500	0.337140	0.525860
C441	C44	0.111700	0.241900	0.534700
C451	C45	0.337140	0.068500	0.068500
C461	C46	0.241900	0.111700	0.111700
C471	C47	0.525860	0.068500	0.068500
C481	C48	0.534700	0.111700	0.111700
C491	C49	0.465900	0.801300	0.931500
C501	C50	0.801300	0.465900	0.801300
C511	C51	0.931500	0.801300	0.465900
C521	C52	0.801300	0.931500	0.801300
C531	C53	0.465900	0.931500	0.801300
C541	C54	0.801300	0.801300	0.931500
C551	C55	0.931500	0.465900	0.801300
C561	C56	0.801300	0.801300	0.465900
C571	C57	0.465900	0.801300	0.801300
C581	C58	0.801300	0.931500	0.465900
C591	C59	0.931500	0.801300	0.801300
C601	C60	0.801300	0.465900	0.931500
C611	C61	0.198700	0.534100	0.068500
C621	C62	0.534100	0.198700	0.198700
C631	C63	0.198700	0.068500	0.534100
C641	C64	0.068500	0.198700	0.198700
C651	C65	0.068500	0.534100	0.198700
C661	C66	0.198700	0.198700	0.068500
C671	C67	0.534100	0.068500	0.198700
C681	C68	0.198700	0.198700	0.534100
C691	C69	0.198700	0.534100	0.198700
C701	C70	0.068500	0.198700	0.534100
C711	C71	0.198700	0.068500	0.198700
C721	C72	0.534100	0.198700	0.068500
O11	O1	0.479220	0.626120	0.007840
O21	O2	0.626120	0.479220	0.886820
O31	O3	0.007840	0.886820	0.479220
O41	O4	0.886820	0.007840	0.626120
O51	O5	0.479220	0.007840	0.886820
O61	O6	0.626120	0.886820	0.007840
O71	O7	0.007840	0.479220	0.626120
O81	O8	0.886820	0.626120	0.479220
O91	O9	0.479220	0.886820	0.626120
O101	O10	0.626120	0.007840	0.479220
O111	O11	0.007840	0.626120	0.886820
O121	O12	0.886820	0.479220	0.007840
O131	O13	0.373880	0.520780	0.992160
O141	O14	0.520780	0.373880	0.113180
O151	O15	0.113180	0.992160	0.520780
O161	O16	0.992160	0.113180	0.373880
O171	O17	0.992160	0.520780	0.113180
O181	O18	0.113180	0.373880	0.992160
O191	O19	0.520780	0.992160	0.373880
O201	O20	0.373880	0.113180	0.520780
O211	O21	0.113180	0.520780	0.373880
O221	O22	0.992160	0.373880	0.520780
O231	O23	0.373880	0.992160	0.113180
O241	O24	0.520780	0.113180	0.992160
O251	O25	0.520780	0.373880	0.992160
O261	O26	0.373880	0.520780	0.113180
O271	O27	0.992160	0.113180	0.520780
O281	O28	0.113180	0.992160	0.373880
O291	O29	0.520780	0.992160	0.113180
O301	O30	0.373880	0.113180	0.992160
O311	O31	0.992160	0.520780	0.373880
O321	O32	0.113180	0.373880	0.520780
O331	O33	0.520780	0.113180	0.373880
O341	O34	0.373880	0.992160	0.520780
O351	O35	0.992160	0.373880	0.113180
O361	O36	0.113180	0.520780	0.992160
O371	O37	0.626120	0.479220	0.007840
O381	O38	0.479220	0.626120	0.886820
O391	O39	0.886820	0.007840	0.479220
O401	O40	0.007840	0.886820	0.626120
O411	O41	0.007840	0.479220	0.886820
O421	O42	0.886820	0.626120	0.007840
O431	O43	0.479220	0.007840	0.626120
O441	O44	0.626120	0.886820	0.479220
O451	O45	0.886820	0.479220	0.626120
O461	O46	0.007840	0.626120	0.479220
O471	O47	0.626120	0.007840	0.886820
O481	O48	0.479220	0.886820	0.007840
