data_SOYWUZ_clean_PM
_symmetry_space_group_name_H-M	'P1'
_cell_length_a	26.303400
_cell_length_b	26.303400
_cell_length_c	26.303400
_cell_angle_alpha	90.000000
_cell_angle_beta	90.000000
_cell_angle_gamma	90.000000
_symmetry_Int_Tables_number 1

loop_
_symmetry_equiv_pos_as_xyz
'x,y,z'

loop_
_atom_site_label
_atom_site_type_symbol
_atom_site_fract_x
_atom_site_fract_y
_atom_site_fract_z
O11	O1	0.052300	0.256670	0.816810
O21	O2	0.052300	0.756670	0.316810
O31	O3	0.552300	0.256670	0.316810
O41	O4	0.552300	0.756670	0.816810
O51	O5	0.947700	0.743330	0.816810
O61	O6	0.947700	0.243330	0.316810
O71	O7	0.447700	0.743330	0.316810
O81	O8	0.447700	0.243330	0.816810
O91	O9	0.947700	0.256670	0.183190
O101	O10	0.947700	0.756670	0.683190
O111	O11	0.447700	0.256670	0.683190
O121	O12	0.447700	0.756670	0.183190
O131	O13	0.052300	0.743330	0.183190
O141	O14	0.052300	0.243330	0.683190
O151	O15	0.552300	0.743330	0.683190
O161	O16	0.552300	0.243330	0.183190
O171	O17	0.816810	0.052300	0.256670
O181	O18	0.816810	0.552300	0.756670
O191	O19	0.316810	0.052300	0.756670
O201	O20	0.316810	0.552300	0.256670
O211	O21	0.816810	0.947700	0.743330
O221	O22	0.816810	0.447700	0.243330
O231	O23	0.316810	0.947700	0.243330
O241	O24	0.316810	0.447700	0.743330
O251	O25	0.183190	0.947700	0.256670
O261	O26	0.183190	0.447700	0.756670
O271	O27	0.683190	0.947700	0.756670
O281	O28	0.683190	0.447700	0.256670
O291	O29	0.183190	0.052300	0.743330
O301	O30	0.183190	0.552300	0.243330
O311	O31	0.683190	0.052300	0.243330
O321	O32	0.683190	0.552300	0.743330
O331	O33	0.256670	0.816810	0.052300
O341	O34	0.256670	0.316810	0.552300
O351	O35	0.756670	0.816810	0.552300
O361	O36	0.756670	0.316810	0.052300
O371	O37	0.743330	0.816810	0.947700
O381	O38	0.743330	0.316810	0.447700
O391	O39	0.243330	0.816810	0.447700
O401	O40	0.243330	0.316810	0.947700
O411	O41	0.256670	0.183190	0.947700
O421	O42	0.256670	0.683190	0.447700
O431	O43	0.756670	0.183190	0.447700
O441	O44	0.756670	0.683190	0.947700
O451	O45	0.743330	0.183190	0.052300
O461	O46	0.743330	0.683190	0.552300
O471	O47	0.243330	0.183190	0.552300
O481	O48	0.243330	0.683190	0.052300
O491	O49	0.256670	0.052300	0.183190
O501	O50	0.256670	0.552300	0.683190
O511	O51	0.756670	0.052300	0.683190
O521	O52	0.756670	0.552300	0.183190
O531	O53	0.743330	0.947700	0.183190
O541	O54	0.743330	0.447700	0.683190
O551	O55	0.243330	0.947700	0.683190
O561	O56	0.243330	0.447700	0.183190
O571	O57	0.256670	0.947700	0.816810
O581	O58	0.256670	0.447700	0.316810
O591	O59	0.756670	0.947700	0.316810
O601	O60	0.756670	0.447700	0.816810
O611	O61	0.743330	0.052300	0.816810
O621	O62	0.743330	0.552300	0.316810
O631	O63	0.243330	0.052300	0.316810
O641	O64	0.243330	0.552300	0.816810
O651	O65	0.052300	0.816810	0.743330
O661	O66	0.052300	0.316810	0.243330
O671	O67	0.552300	0.816810	0.243330
O681	O68	0.552300	0.316810	0.743330
O691	O69	0.947700	0.816810	0.256670
O701	O70	0.947700	0.316810	0.756670
O711	O71	0.447700	0.816810	0.756670
O721	O72	0.447700	0.316810	0.256670
O731	O73	0.947700	0.183190	0.743330
O741	O74	0.947700	0.683190	0.243330
O751	O75	0.447700	0.183190	0.243330
O761	O76	0.447700	0.683190	0.743330
O771	O77	0.052300	0.183190	0.256670
O781	O78	0.052300	0.683190	0.756670
O791	O79	0.552300	0.183190	0.756670
O801	O80	0.552300	0.683190	0.256670
O811	O81	0.816810	0.256670	0.947700
O821	O82	0.816810	0.756670	0.447700
O831	O83	0.316810	0.256670	0.447700
O841	O84	0.316810	0.756670	0.947700
O851	O85	0.816810	0.743330	0.052300
O861	O86	0.816810	0.243330	0.552300
O871	O87	0.316810	0.743330	0.552300
O881	O88	0.316810	0.243330	0.052300
O891	O89	0.183190	0.256670	0.052300
O901	O90	0.183190	0.756670	0.552300
O911	O91	0.683190	0.256670	0.552300
O921	O92	0.683190	0.756670	0.052300
O931	O93	0.183190	0.743330	0.947700
O941	O94	0.183190	0.243330	0.447700
O951	O95	0.683190	0.743330	0.447700
O961	O96	0.683190	0.243330	0.947700
O971	O97	0.947700	0.743330	0.183190
O981	O98	0.947700	0.243330	0.683190
O991	O99	0.447700	0.743330	0.683190
O1001	O100	0.447700	0.243330	0.183190
O1011	O101	0.052300	0.256670	0.183190
O1021	O102	0.052300	0.756670	0.683190
O1031	O103	0.552300	0.256670	0.683190
O1041	O104	0.552300	0.756670	0.183190
O1051	O105	0.052300	0.743330	0.816810
O1061	O106	0.052300	0.243330	0.316810
O1071	O107	0.552300	0.743330	0.316810
O1081	O108	0.552300	0.243330	0.816810
O1091	O109	0.947700	0.256670	0.816810
O1101	O110	0.947700	0.756670	0.316810
O1111	O111	0.447700	0.256670	0.316810
O1121	O112	0.447700	0.756670	0.816810
O1131	O113	0.183190	0.947700	0.743330
O1141	O114	0.183190	0.447700	0.243330
O1151	O115	0.683190	0.947700	0.243330
O1161	O116	0.683190	0.447700	0.743330
O1171	O117	0.183190	0.052300	0.256670
O1181	O118	0.183190	0.552300	0.756670
O1191	O119	0.683190	0.052300	0.756670
O1201	O120	0.683190	0.552300	0.256670
O1211	O121	0.816810	0.052300	0.743330
O1221	O122	0.816810	0.552300	0.243330
O1231	O123	0.316810	0.052300	0.243330
O1241	O124	0.316810	0.552300	0.743330
O1251	O125	0.816810	0.947700	0.256670
O1261	O126	0.816810	0.447700	0.756670
O1271	O127	0.316810	0.947700	0.756670
O1281	O128	0.316810	0.447700	0.256670
O1291	O129	0.743330	0.183190	0.947700
O1301	O130	0.743330	0.683190	0.447700
O1311	O131	0.243330	0.183190	0.447700
O1321	O132	0.243330	0.683190	0.947700
O1331	O133	0.256670	0.183190	0.052300
O1341	O134	0.256670	0.683190	0.552300
O1351	O135	0.756670	0.183190	0.552300
O1361	O136	0.756670	0.683190	0.052300
O1371	O137	0.743330	0.816810	0.052300
O1381	O138	0.743330	0.316810	0.552300
O1391	O139	0.243330	0.816810	0.552300
O1401	O140	0.243330	0.316810	0.052300
O1411	O141	0.256670	0.816810	0.947700
O1421	O142	0.256670	0.316810	0.447700
O1431	O143	0.756670	0.816810	0.447700
O1441	O144	0.756670	0.316810	0.947700
O1451	O145	0.743330	0.947700	0.816810
O1461	O146	0.743330	0.447700	0.316810
O1471	O147	0.243330	0.947700	0.316810
O1481	O148	0.243330	0.447700	0.816810
O1491	O149	0.256670	0.052300	0.816810
O1501	O150	0.256670	0.552300	0.316810
O1511	O151	0.756670	0.052300	0.316810
O1521	O152	0.756670	0.552300	0.816810
O1531	O153	0.743330	0.052300	0.183190
O1541	O154	0.743330	0.552300	0.683190
O1551	O155	0.243330	0.052300	0.683190
O1561	O156	0.243330	0.552300	0.183190
O1571	O157	0.256670	0.947700	0.183190
O1581	O158	0.256670	0.447700	0.683190
O1591	O159	0.756670	0.947700	0.683190
O1601	O160	0.756670	0.447700	0.183190
O1611	O161	0.947700	0.183190	0.256670
O1621	O162	0.947700	0.683190	0.756670
O1631	O163	0.447700	0.183190	0.756670
O1641	O164	0.447700	0.683190	0.256670
O1651	O165	0.052300	0.183190	0.743330
O1661	O166	0.052300	0.683190	0.243330
O1671	O167	0.552300	0.183190	0.243330
O1681	O168	0.552300	0.683190	0.743330
O1691	O169	0.052300	0.816810	0.256670
O1701	O170	0.052300	0.316810	0.756670
O1711	O171	0.552300	0.816810	0.756670
O1721	O172	0.552300	0.316810	0.256670
O1731	O173	0.947700	0.816810	0.743330
O1741	O174	0.947700	0.316810	0.243330
O1751	O175	0.447700	0.816810	0.243330
O1761	O176	0.447700	0.316810	0.743330
O1771	O177	0.183190	0.743330	0.052300
O1781	O178	0.183190	0.243330	0.552300
O1791	O179	0.683190	0.743330	0.552300
O1801	O180	0.683190	0.243330	0.052300
O1811	O181	0.183190	0.256670	0.947700
O1821	O182	0.183190	0.756670	0.447700
O1831	O183	0.683190	0.256670	0.447700
O1841	O184	0.683190	0.756670	0.947700
O1851	O185	0.816810	0.743330	0.947700
O1861	O186	0.816810	0.243330	0.447700
O1871	O187	0.316810	0.743330	0.447700
O1881	O188	0.316810	0.243330	0.947700
O1891	O189	0.816810	0.256670	0.052300
O1901	O190	0.816810	0.756670	0.552300
O1911	O191	0.316810	0.256670	0.552300
O1921	O192	0.316810	0.756670	0.052300
Cu11	Cu1	0.000000	0.214820	0.785180
Cu21	Cu2	0.000000	0.714820	0.285180
Cu31	Cu3	0.500000	0.214820	0.285180
Cu41	Cu4	0.500000	0.714820	0.785180
Cu51	Cu5	0.000000	0.785180	0.785180
Cu61	Cu6	0.000000	0.285180	0.285180
Cu71	Cu7	0.500000	0.785180	0.285180
Cu81	Cu8	0.500000	0.285180	0.785180
Cu91	Cu9	0.000000	0.214820	0.214820
Cu101	Cu10	0.000000	0.714820	0.714820
Cu111	Cu11	0.500000	0.214820	0.714820
Cu121	Cu12	0.500000	0.714820	0.214820
Cu131	Cu13	0.000000	0.785180	0.214820
Cu141	Cu14	0.000000	0.285180	0.714820
Cu151	Cu15	0.500000	0.785180	0.714820
Cu161	Cu16	0.500000	0.285180	0.214820
Cu171	Cu17	0.785180	0.000000	0.214820
Cu181	Cu18	0.785180	0.500000	0.714820
Cu191	Cu19	0.285180	0.000000	0.714820
Cu201	Cu20	0.285180	0.500000	0.214820
Cu211	Cu21	0.785180	0.000000	0.785180
Cu221	Cu22	0.785180	0.500000	0.285180
Cu231	Cu23	0.285180	0.000000	0.285180
Cu241	Cu24	0.285180	0.500000	0.785180
Cu251	Cu25	0.214820	0.000000	0.214820
Cu261	Cu26	0.214820	0.500000	0.714820
Cu271	Cu27	0.714820	0.000000	0.714820
Cu281	Cu28	0.714820	0.500000	0.214820
Cu291	Cu29	0.214820	0.000000	0.785180
Cu301	Cu30	0.214820	0.500000	0.285180
Cu311	Cu31	0.714820	0.000000	0.285180
Cu321	Cu32	0.714820	0.500000	0.785180
Cu331	Cu33	0.214820	0.785180	0.000000
Cu341	Cu34	0.214820	0.285180	0.500000
Cu351	Cu35	0.714820	0.785180	0.500000
Cu361	Cu36	0.714820	0.285180	0.000000
Cu371	Cu37	0.785180	0.785180	0.000000
Cu381	Cu38	0.785180	0.285180	0.500000
Cu391	Cu39	0.285180	0.785180	0.500000
Cu401	Cu40	0.285180	0.285180	0.000000
Cu411	Cu41	0.214820	0.214820	0.000000
Cu421	Cu42	0.214820	0.714820	0.500000
Cu431	Cu43	0.714820	0.214820	0.500000
Cu441	Cu44	0.714820	0.714820	0.000000
Cu451	Cu45	0.785180	0.214820	0.000000
Cu461	Cu46	0.785180	0.714820	0.500000
Cu471	Cu47	0.285180	0.214820	0.500000
Cu481	Cu48	0.285180	0.714820	0.000000
C11	C1	0.068900	0.297520	0.797520
C21	C2	0.112200	0.323240	0.823240
C31	C3	0.568900	0.297520	0.297520
C41	C4	0.612200	0.323240	0.323240
C51	C5	0.931100	0.702480	0.797520
C61	C6	0.887800	0.676760	0.823240
C71	C7	0.931100	0.202480	0.297520
C81	C8	0.887800	0.176760	0.323240
C91	C9	0.431100	0.702480	0.297520
C101	C10	0.387800	0.676760	0.323240
C111	C11	0.931100	0.297520	0.202480
C121	C12	0.887800	0.323240	0.176760
C131	C13	0.431100	0.297520	0.702480
C141	C14	0.387800	0.323240	0.676760
C151	C15	0.068900	0.702480	0.202480
C161	C16	0.112200	0.676760	0.176760
C171	C17	0.568900	0.702480	0.702480
C181	C18	0.612200	0.676760	0.676760
C191	C19	0.568900	0.202480	0.202480
C201	C20	0.612200	0.176760	0.176760
C211	C21	0.797520	0.068900	0.297520
C221	C22	0.823240	0.112200	0.323240
C231	C23	0.797520	0.568900	0.797520
C241	C24	0.823240	0.612200	0.823240
C251	C25	0.297520	0.568900	0.297520
C261	C26	0.323240	0.612200	0.323240
C271	C27	0.797520	0.931100	0.702480
C281	C28	0.823240	0.887800	0.676760
C291	C29	0.797520	0.431100	0.202480
C301	C30	0.823240	0.387800	0.176760
C311	C31	0.297520	0.931100	0.202480
C321	C32	0.323240	0.887800	0.176760
C331	C33	0.202480	0.931100	0.297520
C341	C34	0.176760	0.887800	0.323240
C351	C35	0.202480	0.431100	0.797520
C361	C36	0.176760	0.387800	0.823240
C371	C37	0.202480	0.068900	0.702480
C381	C38	0.176760	0.112200	0.676760
C391	C39	0.202480	0.568900	0.202480
C401	C40	0.176760	0.612200	0.176760
C411	C41	0.297520	0.797520	0.068900
C421	C42	0.323240	0.823240	0.112200
C431	C43	0.297520	0.297520	0.568900
C441	C44	0.323240	0.323240	0.612200
C451	C45	0.702480	0.797520	0.931100
C461	C46	0.676760	0.823240	0.887800
C471	C47	0.702480	0.297520	0.431100
C481	C48	0.676760	0.323240	0.387800
C491	C49	0.202480	0.297520	0.931100
C501	C50	0.176760	0.323240	0.887800
C511	C51	0.297520	0.202480	0.931100
C521	C52	0.323240	0.176760	0.887800
C531	C53	0.297520	0.702480	0.431100
C541	C54	0.323240	0.676760	0.387800
C551	C55	0.702480	0.202480	0.068900
C561	C56	0.676760	0.176760	0.112200
C571	C57	0.702480	0.702480	0.568900
C581	C58	0.676760	0.676760	0.612200
C591	C59	0.202480	0.202480	0.568900
C601	C60	0.176760	0.176760	0.612200
C611	C61	0.297520	0.068900	0.202480
C621	C62	0.323240	0.112200	0.176760
C631	C63	0.297520	0.568900	0.702480
C641	C64	0.323240	0.612200	0.676760
C651	C65	0.702480	0.931100	0.202480
C661	C66	0.676760	0.887800	0.176760
C671	C67	0.702480	0.431100	0.702480
C681	C68	0.676760	0.387800	0.676760
C691	C69	0.202480	0.431100	0.202480
C701	C70	0.176760	0.387800	0.176760
C711	C71	0.297520	0.931100	0.797520
C721	C72	0.323240	0.887800	0.823240
C731	C73	0.297520	0.431100	0.297520
C741	C74	0.323240	0.387800	0.323240
C751	C75	0.702480	0.068900	0.797520
C761	C76	0.676760	0.112200	0.823240
C771	C77	0.702480	0.568900	0.297520
C781	C78	0.676760	0.612200	0.323240
C791	C79	0.202480	0.068900	0.297520
C801	C80	0.176760	0.112200	0.323240
C811	C81	0.068900	0.797520	0.702480
C821	C82	0.112200	0.823240	0.676760
C831	C83	0.068900	0.297520	0.202480
C841	C84	0.112200	0.323240	0.176760
C851	C85	0.568900	0.797520	0.202480
C861	C86	0.612200	0.823240	0.176760
C871	C87	0.931100	0.797520	0.297520
C881	C88	0.887800	0.823240	0.323240
C891	C89	0.431100	0.797520	0.797520
C901	C90	0.387800	0.823240	0.823240
C911	C91	0.431100	0.297520	0.297520
C921	C92	0.387800	0.323240	0.323240
C931	C93	0.931100	0.202480	0.702480
C941	C94	0.887800	0.176760	0.676760
C951	C95	0.431100	0.202480	0.202480
C961	C96	0.387800	0.176760	0.176760
C971	C97	0.068900	0.202480	0.297520
C981	C98	0.112200	0.176760	0.323240
C991	C99	0.568900	0.202480	0.797520
C1001	C100	0.612200	0.176760	0.823240
C1011	C101	0.797520	0.297520	0.931100
C1021	C102	0.823240	0.323240	0.887800
C1031	C103	0.797520	0.797520	0.431100
C1041	C104	0.823240	0.823240	0.387800
C1051	C105	0.297520	0.297520	0.431100
C1061	C106	0.323240	0.323240	0.387800
C1071	C107	0.797520	0.702480	0.068900
C1081	C108	0.823240	0.676760	0.112200
C1091	C109	0.797520	0.202480	0.568900
C1101	C110	0.823240	0.176760	0.612200
C1111	C111	0.297520	0.202480	0.068900
C1121	C112	0.323240	0.176760	0.112200
C1131	C113	0.202480	0.297520	0.068900
C1141	C114	0.176760	0.323240	0.112200
C1151	C115	0.202480	0.797520	0.568900
C1161	C116	0.176760	0.823240	0.612200
C1171	C117	0.202480	0.702480	0.931100
C1181	C118	0.176760	0.676760	0.887800
C1191	C119	0.202480	0.202480	0.431100
C1201	C120	0.176760	0.176760	0.387800
C1211	C121	0.931100	0.702480	0.202480
C1221	C122	0.887800	0.676760	0.176760
C1231	C123	0.431100	0.702480	0.702480
C1241	C124	0.387800	0.676760	0.676760
C1251	C125	0.568900	0.297520	0.702480
C1261	C126	0.612200	0.323240	0.676760
C1271	C127	0.068900	0.702480	0.797520
C1281	C128	0.112200	0.676760	0.823240
C1291	C129	0.568900	0.702480	0.297520
C1301	C130	0.612200	0.676760	0.323240
C1311	C131	0.931100	0.297520	0.797520
C1321	C132	0.887800	0.323240	0.823240
C1331	C133	0.202480	0.931100	0.702480
C1341	C134	0.176760	0.887800	0.676760
C1351	C135	0.202480	0.568900	0.797520
C1361	C136	0.176760	0.612200	0.823240
C1371	C137	0.797520	0.068900	0.702480
C1381	C138	0.823240	0.112200	0.676760
C1391	C139	0.797520	0.568900	0.202480
C1401	C140	0.823240	0.612200	0.176760
C1411	C141	0.797520	0.931100	0.297520
C1421	C142	0.823240	0.887800	0.323240
C1431	C143	0.797520	0.431100	0.797520
C1441	C144	0.823240	0.387800	0.823240
C1451	C145	0.702480	0.202480	0.931100
C1461	C146	0.676760	0.176760	0.887800
C1471	C147	0.702480	0.702480	0.431100
C1481	C148	0.676760	0.676760	0.387800
C1491	C149	0.297520	0.702480	0.568900
C1501	C150	0.323240	0.676760	0.612200
C1511	C151	0.702480	0.797520	0.068900
C1521	C152	0.676760	0.823240	0.112200
C1531	C153	0.702480	0.297520	0.568900
C1541	C154	0.676760	0.323240	0.612200
C1551	C155	0.297520	0.797520	0.931100
C1561	C156	0.323240	0.823240	0.887800
C1571	C157	0.702480	0.931100	0.797520
C1581	C158	0.676760	0.887800	0.823240
C1591	C159	0.702480	0.431100	0.297520
C1601	C160	0.676760	0.387800	0.323240
C1611	C161	0.297520	0.068900	0.797520
C1621	C162	0.323240	0.112200	0.823240
C1631	C163	0.702480	0.068900	0.202480
C1641	C164	0.676760	0.112200	0.176760
C1651	C165	0.702480	0.568900	0.702480
C1661	C166	0.676760	0.612200	0.676760
C1671	C167	0.297520	0.431100	0.702480
C1681	C168	0.323240	0.387800	0.676760
C1691	C169	0.431100	0.202480	0.797520
C1701	C170	0.387800	0.176760	0.823240
C1711	C171	0.068900	0.202480	0.702480
C1721	C172	0.112200	0.176760	0.676760
C1731	C173	0.068900	0.797520	0.297520
C1741	C174	0.112200	0.823240	0.323240
C1751	C175	0.568900	0.797520	0.797520
C1761	C176	0.612200	0.823240	0.823240
C1771	C177	0.931100	0.797520	0.702480
C1781	C178	0.887800	0.823240	0.676760
C1791	C179	0.431100	0.797520	0.202480
C1801	C180	0.387800	0.823240	0.176760
C1811	C181	0.202480	0.702480	0.068900
C1821	C182	0.176760	0.676760	0.112200
C1831	C183	0.202480	0.797520	0.431100
C1841	C184	0.176760	0.823240	0.387800
C1851	C185	0.797520	0.702480	0.931100
C1861	C186	0.823240	0.676760	0.887800
C1871	C187	0.797520	0.202480	0.431100
C1881	C188	0.823240	0.176760	0.387800
C1891	C189	0.797520	0.297520	0.068900
C1901	C190	0.823240	0.323240	0.112200
C1911	C191	0.797520	0.797520	0.568900
C1921	C192	0.823240	0.823240	0.612200
C1931	C193	0.133600	0.366400	0.801700
C1941	C194	0.133600	0.866400	0.301700
C1951	C195	0.866400	0.633600	0.801700
C1961	C196	0.866400	0.133600	0.301700
C1971	C197	0.366400	0.133600	0.801700
C1981	C198	0.866400	0.366400	0.198300
C1991	C199	0.866400	0.866400	0.698300
C2001	C200	0.366400	0.366400	0.698300
C2011	C201	0.133600	0.633600	0.198300
C2021	C202	0.133600	0.133600	0.698300
C2031	C203	0.801700	0.133600	0.366400
C2041	C204	0.301700	0.133600	0.866400
C2051	C205	0.801700	0.866400	0.633600
C2061	C206	0.801700	0.366400	0.133600
C2071	C207	0.301700	0.866400	0.133600
C2081	C208	0.198300	0.866400	0.366400
C2091	C209	0.698300	0.866400	0.866400
C2101	C210	0.698300	0.366400	0.366400
C2111	C211	0.198300	0.133600	0.633600
C2121	C212	0.698300	0.133600	0.133600
C2131	C213	0.366400	0.801700	0.133600
C2141	C214	0.366400	0.301700	0.633600
C2151	C215	0.633600	0.801700	0.866400
C2161	C216	0.633600	0.301700	0.366400
C2171	C217	0.133600	0.801700	0.366400
C2181	C218	0.366400	0.198300	0.866400
C2191	C219	0.366400	0.698300	0.366400
C2201	C220	0.633600	0.198300	0.133600
C2211	C221	0.633600	0.698300	0.633600
C2221	C222	0.133600	0.698300	0.133600
C2231	C223	0.366400	0.133600	0.198300
C2241	C224	0.366400	0.633600	0.698300
C2251	C225	0.633600	0.866400	0.198300
C2261	C226	0.633600	0.366400	0.698300
C2271	C227	0.133600	0.366400	0.198300
C2281	C228	0.366400	0.866400	0.801700
C2291	C229	0.366400	0.366400	0.301700
C2301	C230	0.633600	0.133600	0.801700
C2311	C231	0.633600	0.633600	0.301700
C2321	C232	0.133600	0.133600	0.301700
C2331	C233	0.133600	0.801700	0.633600
C2341	C234	0.133600	0.301700	0.133600
C2351	C235	0.866400	0.801700	0.366400
C2361	C236	0.866400	0.301700	0.866400
C2371	C237	0.366400	0.301700	0.366400
C2381	C238	0.866400	0.198300	0.633600
C2391	C239	0.866400	0.698300	0.133600
C2401	C240	0.366400	0.198300	0.133600
C2411	C241	0.133600	0.198300	0.366400
C2421	C242	0.133600	0.698300	0.866400
C2431	C243	0.801700	0.366400	0.866400
C2441	C244	0.301700	0.366400	0.366400
C2451	C245	0.801700	0.633600	0.133600
C2461	C246	0.301700	0.633600	0.633600
C2471	C247	0.301700	0.133600	0.133600
C2481	C248	0.198300	0.366400	0.133600
C2491	C249	0.698300	0.366400	0.633600
C2501	C250	0.198300	0.633600	0.866400
C2511	C251	0.198300	0.133600	0.366400
C2521	C252	0.698300	0.633600	0.366400
C2531	C253	0.866400	0.633600	0.198300
C2541	C254	0.866400	0.133600	0.698300
C2551	C255	0.133600	0.866400	0.698300
C2561	C256	0.133600	0.633600	0.801700
C2571	C257	0.866400	0.366400	0.801700
C2581	C258	0.866400	0.866400	0.301700
C2591	C259	0.198300	0.866400	0.633600
C2601	C260	0.698300	0.866400	0.133600
C2611	C261	0.698300	0.133600	0.866400
C2621	C262	0.801700	0.133600	0.633600
C2631	C263	0.801700	0.866400	0.366400
C2641	C264	0.301700	0.866400	0.866400
C2651	C265	0.633600	0.198300	0.866400
C2661	C266	0.633600	0.698300	0.366400
C2671	C267	0.366400	0.698300	0.633600
C2681	C268	0.633600	0.801700	0.133600
C2691	C269	0.633600	0.301700	0.633600
C2701	C270	0.366400	0.801700	0.866400
C2711	C271	0.633600	0.866400	0.801700
C2721	C272	0.633600	0.366400	0.301700
C2731	C273	0.366400	0.633600	0.301700
C2741	C274	0.633600	0.133600	0.198300
C2751	C275	0.633600	0.633600	0.698300
C2761	C276	0.366400	0.866400	0.198300
C2771	C277	0.866400	0.198300	0.366400
C2781	C278	0.866400	0.698300	0.866400
C2791	C279	0.133600	0.198300	0.633600
C2801	C280	0.133600	0.301700	0.866400
C2811	C281	0.866400	0.801700	0.633600
C2821	C282	0.866400	0.301700	0.133600
C2831	C283	0.198300	0.633600	0.133600
C2841	C284	0.698300	0.633600	0.633600
C2851	C285	0.198300	0.366400	0.866400
C2861	C286	0.801700	0.633600	0.866400
C2871	C287	0.301700	0.633600	0.366400
C2881	C288	0.301700	0.366400	0.633600
