data_SOYYEL_clean_PM
_symmetry_space_group_name_H-M	'P1'
_cell_length_a	30.380100
_cell_length_b	10.120400
_cell_length_c	10.097700
_cell_angle_alpha	90.000000
_cell_angle_beta	107.712000
_cell_angle_gamma	90.000000
_symmetry_Int_Tables_number 1

loop_
_symmetry_equiv_pos_as_xyz
'x,y,z'

loop_
_atom_site_label
_atom_site_type_symbol
_atom_site_fract_x
_atom_site_fract_y
_atom_site_fract_z
Fe11	Fe1	0.796440	0.162380	0.918700
Fe21	Fe2	0.792610	0.922500	0.671200
Fe31	Fe3	0.034420	0.677500	0.399900
Fe41	Fe4	0.865420	0.928100	0.007700
Fe51	Fe5	0.949070	0.431600	0.338300
Fe61	Fe6	0.875140	0.177700	0.770800
P11	P1	0.769940	0.219200	0.599400
P21	P2	0.928530	0.738000	0.285900
P31	P3	0.889020	0.219300	0.068700
P41	P4	0.900400	0.877600	0.750200
P51	P5	0.054250	0.380400	0.355800
P61	P6	0.758860	0.874100	0.927100
O11	O1	0.761400	0.069200	0.559100
O21	O2	0.759900	0.242200	0.739300
O31	O3	0.820300	0.255300	0.613600
O41	O4	0.736000	0.300600	0.490100
O51	O5	0.979100	0.762300	0.282300
O61	O6	0.927300	0.759900	0.436200
O71	O7	0.895500	0.833800	0.193400
O81	O8	0.914800	0.594000	0.244700
O91	O9	0.855200	0.108500	0.092400
O101	O10	0.856800	0.278900	0.928400
O111	O11	0.930300	0.159900	0.039200
O121	O12	0.899400	0.319300	0.184800
O131	O13	0.850500	0.842100	0.658000
O141	O14	0.935200	0.791500	0.712500
O151	O15	0.904400	0.850000	0.903900
O161	O16	0.909800	0.024000	0.725300
O171	O17	0.059800	0.531100	0.332600
O181	O18	0.002600	0.344700	0.302400
O191	O19	0.079300	0.309000	0.269000
O201	O20	0.073800	0.351300	0.511300
O211	O21	0.754200	0.844900	0.771100
O221	O22	0.753400	0.025500	0.946000
O231	O23	0.806500	0.826500	0.983100
O241	O24	0.719900	0.802700	0.962800
O251	O25	0.825400	0.033000	0.821400
Fe71	Fe7	0.296440	0.662380	0.918700
Fe81	Fe8	0.292610	0.422500	0.671200
Fe91	Fe9	0.534420	0.177500	0.399900
Fe101	Fe10	0.365420	0.428100	0.007700
Fe111	Fe11	0.449070	0.931600	0.338300
Fe121	Fe12	0.375140	0.677700	0.770800
P71	P7	0.269940	0.719200	0.599400
P81	P8	0.428530	0.238000	0.285900
P91	P9	0.389020	0.719300	0.068700
P101	P10	0.400400	0.377600	0.750200
P111	P11	0.554250	0.880400	0.355800
P121	P12	0.258860	0.374100	0.927100
O261	O26	0.261400	0.569200	0.559100
O271	O27	0.259900	0.742200	0.739300
O281	O28	0.320300	0.755300	0.613600
O291	O29	0.236000	0.800600	0.490100
O301	O30	0.479100	0.262300	0.282300
O311	O31	0.427300	0.259900	0.436200
O321	O32	0.395500	0.333800	0.193400
O331	O33	0.414800	0.094000	0.244700
O341	O34	0.355200	0.608500	0.092400
O351	O35	0.356800	0.778900	0.928400
O361	O36	0.430300	0.659900	0.039200
O371	O37	0.399400	0.819300	0.184800
O381	O38	0.350500	0.342100	0.658000
O391	O39	0.435200	0.291500	0.712500
O401	O40	0.404400	0.350000	0.903900
O411	O41	0.409800	0.524000	0.725300
O421	O42	0.559800	0.031100	0.332600
O431	O43	0.502600	0.844700	0.302400
O441	O44	0.579300	0.809000	0.269000
O451	O45	0.573800	0.851300	0.511300
O461	O46	0.254200	0.344900	0.771100
O471	O47	0.253400	0.525500	0.946000
O481	O48	0.306500	0.326500	0.983100
O491	O49	0.219900	0.302700	0.962800
O501	O50	0.325400	0.533000	0.821400
Fe131	Fe13	0.203560	0.162380	0.081300
Fe141	Fe14	0.207390	0.922500	0.328800
Fe151	Fe15	0.965580	0.677500	0.600100
Fe161	Fe16	0.134580	0.928100	0.992300
Fe171	Fe17	0.050930	0.431600	0.661700
Fe181	Fe18	0.124860	0.177700	0.229200
P131	P13	0.230060	0.219200	0.400600
P141	P14	0.071470	0.738000	0.714100
P151	P15	0.110980	0.219300	0.931300
P161	P16	0.099600	0.877600	0.249800
P171	P17	0.945750	0.380400	0.644200
P181	P18	0.241140	0.874100	0.072900
O511	O51	0.238600	0.069200	0.440900
O521	O52	0.240100	0.242200	0.260700
O531	O53	0.179700	0.255300	0.386400
O541	O54	0.264000	0.300600	0.509900
O551	O55	0.020900	0.762300	0.717700
O561	O56	0.072700	0.759900	0.563800
O571	O57	0.104500	0.833800	0.806600
O581	O58	0.085200	0.594000	0.755300
O591	O59	0.144800	0.108500	0.907600
O601	O60	0.143200	0.278900	0.071600
O611	O61	0.069700	0.159900	0.960800
O621	O62	0.100600	0.319300	0.815200
O631	O63	0.149500	0.842100	0.342000
O641	O64	0.064800	0.791500	0.287500
O651	O65	0.095600	0.850000	0.096100
O661	O66	0.090200	0.024000	0.274700
O671	O67	0.940200	0.531100	0.667400
O681	O68	0.997400	0.344700	0.697600
O691	O69	0.920700	0.309000	0.731000
O701	O70	0.926200	0.351300	0.488700
O711	O71	0.245800	0.844900	0.228900
O721	O72	0.246600	0.025500	0.054000
O731	O73	0.193500	0.826500	0.016900
O741	O74	0.280100	0.802700	0.037200
O751	O75	0.174600	0.033000	0.178600
Fe191	Fe19	0.703560	0.662380	0.081300
Fe201	Fe20	0.707390	0.422500	0.328800
Fe211	Fe21	0.465580	0.177500	0.600100
Fe221	Fe22	0.634580	0.428100	0.992300
Fe231	Fe23	0.550930	0.931600	0.661700
Fe241	Fe24	0.624860	0.677700	0.229200
P191	P19	0.730060	0.719200	0.400600
P201	P20	0.571470	0.238000	0.714100
P211	P21	0.610980	0.719300	0.931300
P221	P22	0.599600	0.377600	0.249800
P231	P23	0.445750	0.880400	0.644200
P241	P24	0.741140	0.374100	0.072900
O761	O76	0.738600	0.569200	0.440900
O771	O77	0.740100	0.742200	0.260700
O781	O78	0.679700	0.755300	0.386400
O791	O79	0.764000	0.800600	0.509900
O801	O80	0.520900	0.262300	0.717700
O811	O81	0.572700	0.259900	0.563800
O821	O82	0.604500	0.333800	0.806600
O831	O83	0.585200	0.094000	0.755300
O841	O84	0.644800	0.608500	0.907600
O851	O85	0.643200	0.778900	0.071600
O861	O86	0.569700	0.659900	0.960800
O871	O87	0.600600	0.819300	0.815200
O881	O88	0.649500	0.342100	0.342000
O891	O89	0.564800	0.291500	0.287500
O901	O90	0.595600	0.350000	0.096100
O911	O91	0.590200	0.524000	0.274700
O921	O92	0.440200	0.031100	0.667400
O931	O93	0.497400	0.844700	0.697600
O941	O94	0.420700	0.809000	0.731000
O951	O95	0.426200	0.851300	0.488700
O961	O96	0.745800	0.344900	0.228900
O971	O97	0.746600	0.525500	0.054000
O981	O98	0.693500	0.326500	0.016900
O991	O99	0.780100	0.302700	0.037200
O1001	O100	0.674600	0.533000	0.178600
O1011	O101	0.000000	0.577300	0.500000
O1021	O102	0.500000	0.077300	0.500000
