data_SOZRUW_clean_PM
_symmetry_space_group_name_H-M	'P1'
_cell_length_a	20.492600
_cell_length_b	20.492600
_cell_length_c	20.492600
_cell_angle_alpha	90.000000
_cell_angle_beta	90.000000
_cell_angle_gamma	90.000000
_symmetry_Int_Tables_number 1

loop_
_symmetry_equiv_pos_as_xyz
'x,y,z'

loop_
_atom_site_label
_atom_site_type_symbol
_atom_site_fract_x
_atom_site_fract_y
_atom_site_fract_z
O11	O1	0.133800	0.808100	0.243800
O21	O2	0.061200	0.881100	0.212300
N11	N1	0.997900	0.651500	0.011200
H11	H1	0.961100	0.664900	0.993800
N21	N2	0.990100	0.576000	0.931300
C11	C1	0.087300	0.827000	0.207400
C21	C2	0.065600	0.779900	0.156100
C31	C3	0.014600	0.796000	0.114500
H21	H2	0.994300	0.837400	0.118200
C41	C4	0.993300	0.752800	0.068100
H31	H3	0.958600	0.764800	0.039700
C51	C5	0.022300	0.690500	0.062100
C61	C6	0.074100	0.675700	0.104600
H41	H4	0.095800	0.634900	0.100800
C71	C7	0.093300	0.718600	0.150700
H51	H5	0.126700	0.706300	0.180300
C81	C8	0.023100	0.596200	0.985200
O31	O3	0.366200	0.191900	0.743800
O41	O4	0.438800	0.118900	0.712300
N31	N3	0.502100	0.348500	0.511200
H61	H6	0.538900	0.335100	0.493800
N41	N4	0.509900	0.424000	0.431300
C91	C9	0.412700	0.173000	0.707400
C101	C10	0.434400	0.220100	0.656100
C111	C11	0.485400	0.204000	0.614500
H71	H7	0.505700	0.162600	0.618200
C121	C12	0.506700	0.247200	0.568100
H81	H8	0.541400	0.235200	0.539700
C131	C13	0.477700	0.309500	0.562100
C141	C14	0.425900	0.324300	0.604600
H91	H9	0.404200	0.365100	0.600800
C151	C15	0.406700	0.281400	0.650700
H101	H10	0.373300	0.293700	0.680300
C161	C16	0.476900	0.403800	0.485200
O51	O5	0.866200	0.308100	0.256200
O61	O6	0.938800	0.381100	0.287700
N51	N5	0.002100	0.151500	0.488800
H111	H11	0.038900	0.164900	0.506200
N61	N6	0.009900	0.076000	0.568700
C171	C17	0.912700	0.327000	0.292600
C181	C18	0.934400	0.279900	0.343900
C191	C19	0.985400	0.296000	0.385500
H121	H12	0.005700	0.337400	0.381800
C201	C20	0.006700	0.252800	0.431900
H131	H13	0.041400	0.264800	0.460300
C211	C21	0.977700	0.190500	0.437900
C221	C22	0.925900	0.175700	0.395400
H141	H14	0.904200	0.134900	0.399200
C231	C23	0.906700	0.218600	0.349300
H151	H15	0.873300	0.206300	0.319700
C241	C24	0.976900	0.096200	0.514800
O71	O7	0.633800	0.691900	0.756200
O81	O8	0.561200	0.618900	0.787700
N71	N7	0.497900	0.848500	0.988800
H161	H16	0.461100	0.835100	0.006200
N81	N8	0.490100	0.924000	0.068700
C251	C25	0.587300	0.673000	0.792600
C261	C26	0.565600	0.720100	0.843900
C271	C27	0.514600	0.704000	0.885500
H171	H17	0.494300	0.662600	0.881800
C281	C28	0.493300	0.747200	0.931900
H181	H18	0.458600	0.735200	0.960300
C291	C29	0.522300	0.809500	0.937900
C301	C30	0.574100	0.824300	0.895400
H191	H19	0.595800	0.865100	0.899200
C311	C31	0.593300	0.781400	0.849300
H201	H20	0.626700	0.793700	0.819700
C321	C32	0.523100	0.903800	0.014800
O91	O9	0.243800	0.133800	0.808100
O101	O10	0.212300	0.061200	0.881100
N91	N9	0.011200	0.997900	0.651500
H211	H21	0.993800	0.961100	0.664900
N101	N10	0.931300	0.990100	0.576000
C331	C33	0.207400	0.087300	0.827000
C341	C34	0.156100	0.065600	0.779900
C351	C35	0.114500	0.014600	0.796000
H221	H22	0.118200	0.994300	0.837400
C361	C36	0.068100	0.993300	0.752800
H231	H23	0.039700	0.958600	0.764800
C371	C37	0.062100	0.022300	0.690500
C381	C38	0.104600	0.074100	0.675700
H241	H24	0.100800	0.095800	0.634900
C391	C39	0.150700	0.093300	0.718600
H251	H25	0.180300	0.126700	0.706300
C401	C40	0.985200	0.023100	0.596200
O111	O11	0.743800	0.366200	0.191900
O121	O12	0.712300	0.438800	0.118900
N111	N11	0.511200	0.502100	0.348500
H261	H26	0.493800	0.538900	0.335100
N121	N12	0.431300	0.509900	0.424000
C411	C41	0.707400	0.412700	0.173000
C421	C42	0.656100	0.434400	0.220100
C431	C43	0.614500	0.485400	0.204000
H271	H27	0.618200	0.505700	0.162600
C441	C44	0.568100	0.506700	0.247200
H281	H28	0.539700	0.541400	0.235200
C451	C45	0.562100	0.477700	0.309500
C461	C46	0.604600	0.425900	0.324300
H291	H29	0.600800	0.404200	0.365100
C471	C47	0.650700	0.406700	0.281400
H301	H30	0.680300	0.373300	0.293700
C481	C48	0.485200	0.476900	0.403800
O131	O13	0.256200	0.866200	0.308100
O141	O14	0.287700	0.938800	0.381100
N131	N13	0.488800	0.002100	0.151500
H311	H31	0.506200	0.038900	0.164900
N141	N14	0.568700	0.009900	0.076000
C491	C49	0.292600	0.912700	0.327000
C501	C50	0.343900	0.934400	0.279900
C511	C51	0.385500	0.985400	0.296000
H321	H32	0.381800	0.005700	0.337400
C521	C52	0.431900	0.006700	0.252800
H331	H33	0.460300	0.041400	0.264800
C531	C53	0.437900	0.977700	0.190500
C541	C54	0.395400	0.925900	0.175700
H341	H34	0.399200	0.904200	0.134900
C551	C55	0.349300	0.906700	0.218600
H351	H35	0.319700	0.873300	0.206300
C561	C56	0.514800	0.976900	0.096200
O151	O15	0.756200	0.633800	0.691900
O161	O16	0.787700	0.561200	0.618900
N151	N15	0.988800	0.497900	0.848500
H361	H36	0.006200	0.461100	0.835100
N161	N16	0.068700	0.490100	0.924000
C571	C57	0.792600	0.587300	0.673000
C581	C58	0.843900	0.565600	0.720100
C591	C59	0.885500	0.514600	0.704000
H371	H37	0.881800	0.494300	0.662600
C601	C60	0.931900	0.493300	0.747200
H381	H38	0.960300	0.458600	0.735200
C611	C61	0.937900	0.522300	0.809500
C621	C62	0.895400	0.574100	0.824300
H391	H39	0.899200	0.595800	0.865100
C631	C63	0.849300	0.593300	0.781400
H401	H40	0.819700	0.626700	0.793700
C641	C64	0.014800	0.523100	0.903800
O171	O17	0.808100	0.243800	0.133800
O181	O18	0.881100	0.212300	0.061200
N171	N17	0.651500	0.011200	0.997900
H411	H41	0.664900	0.993800	0.961100
N181	N18	0.576000	0.931300	0.990100
C651	C65	0.827000	0.207400	0.087300
C661	C66	0.779900	0.156100	0.065600
C671	C67	0.796000	0.114500	0.014600
H421	H42	0.837400	0.118200	0.994300
C681	C68	0.752800	0.068100	0.993300
H431	H43	0.764800	0.039700	0.958600
C691	C69	0.690500	0.062100	0.022300
C701	C70	0.675700	0.104600	0.074100
H441	H44	0.634900	0.100800	0.095800
C711	C71	0.718600	0.150700	0.093300
H451	H45	0.706300	0.180300	0.126700
C721	C72	0.596200	0.985200	0.023100
O191	O19	0.191900	0.743800	0.366200
O201	O20	0.118900	0.712300	0.438800
N191	N19	0.348500	0.511200	0.502100
H461	H46	0.335100	0.493800	0.538900
N201	N20	0.424000	0.431300	0.509900
C731	C73	0.173000	0.707400	0.412700
C741	C74	0.220100	0.656100	0.434400
C751	C75	0.204000	0.614500	0.485400
H471	H47	0.162600	0.618200	0.505700
C761	C76	0.247200	0.568100	0.506700
H481	H48	0.235200	0.539700	0.541400
C771	C77	0.309500	0.562100	0.477700
C781	C78	0.324300	0.604600	0.425900
H491	H49	0.365100	0.600800	0.404200
C791	C79	0.281400	0.650700	0.406700
H501	H50	0.293700	0.680300	0.373300
C801	C80	0.403800	0.485200	0.476900
O211	O21	0.308100	0.256200	0.866200
O221	O22	0.381100	0.287700	0.938800
N211	N21	0.151500	0.488800	0.002100
H511	H51	0.164900	0.506200	0.038900
N221	N22	0.076000	0.568700	0.009900
C811	C81	0.327000	0.292600	0.912700
C821	C82	0.279900	0.343900	0.934400
C831	C83	0.296000	0.385500	0.985400
H521	H52	0.337400	0.381800	0.005700
C841	C84	0.252800	0.431900	0.006700
H531	H53	0.264800	0.460300	0.041400
C851	C85	0.190500	0.437900	0.977700
C861	C86	0.175700	0.395400	0.925900
H541	H54	0.134900	0.399200	0.904200
C871	C87	0.218600	0.349300	0.906700
H551	H55	0.206300	0.319700	0.873300
C881	C88	0.096200	0.514800	0.976900
O231	O23	0.691900	0.756200	0.633800
O241	O24	0.618900	0.787700	0.561200
N231	N23	0.848500	0.988800	0.497900
H561	H56	0.835100	0.006200	0.461100
N241	N24	0.924000	0.068700	0.490100
C891	C89	0.673000	0.792600	0.587300
C901	C90	0.720100	0.843900	0.565600
C911	C91	0.704000	0.885500	0.514600
H571	H57	0.662600	0.881800	0.494300
C921	C92	0.747200	0.931900	0.493300
H581	H58	0.735200	0.960300	0.458600
C931	C93	0.809500	0.937900	0.522300
C941	C94	0.824300	0.895400	0.574100
H591	H59	0.865100	0.899200	0.595800
C951	C95	0.781400	0.849300	0.593300
H601	H60	0.793700	0.819700	0.626700
C961	C96	0.903800	0.014800	0.523100
Sm11	Sm1	0.153320	0.846680	0.346680
Sm21	Sm2	0.346680	0.153320	0.846680
Sm31	Sm3	0.846680	0.346680	0.153320
Sm41	Sm4	0.653320	0.653320	0.653320
O251	O25	0.234400	0.617100	0.179400
O261	O26	0.208600	0.533200	0.116200
N251	N25	0.007300	0.490400	0.349700
H611	H61	0.988200	0.453600	0.338400
N261	N26	0.011600	0.571000	0.429500
C971	C97	0.201700	0.566200	0.166500
C981	C98	0.151900	0.546100	0.216900
C991	C99	0.147000	0.578500	0.274900
H621	H62	0.175900	0.613600	0.283700
C1001	C100	0.100700	0.561400	0.321100
H631	H63	0.098400	0.584200	0.361400
C1011	C101	0.057600	0.510400	0.308000
C1021	C102	0.062600	0.477700	0.248300
H641	H64	0.033300	0.443100	0.238600
C1031	C103	0.109000	0.494800	0.204000
H651	H65	0.112300	0.471700	0.164000
C1041	C104	0.983300	0.518200	0.404600
O271	O27	0.265600	0.382900	0.679400
O281	O28	0.291400	0.466800	0.616200
N271	N27	0.492700	0.509600	0.849700
H661	H66	0.511800	0.546400	0.838400
N281	N28	0.488400	0.429000	0.929500
C1051	C105	0.298300	0.433800	0.666500
C1061	C106	0.348100	0.453900	0.716900
C1071	C107	0.353000	0.421500	0.774900
H671	H67	0.324100	0.386400	0.783700
C1081	C108	0.399300	0.438600	0.821100
H681	H68	0.401600	0.415800	0.861400
C1091	C109	0.442400	0.489600	0.808000
C1101	C110	0.437400	0.522300	0.748300
H691	H69	0.466700	0.556900	0.738600
C1111	C111	0.391000	0.505200	0.704000
H701	H70	0.387700	0.528300	0.664000
C1121	C112	0.516700	0.481800	0.904600
O291	O29	0.765600	0.117100	0.320600
O301	O30	0.791400	0.033200	0.383800
N291	N29	0.992700	0.990400	0.150300
H711	H71	0.011800	0.953600	0.161600
N301	N30	0.988400	0.071000	0.070500
C1131	C113	0.798300	0.066200	0.333500
C1141	C114	0.848100	0.046100	0.283100
C1151	C115	0.853000	0.078500	0.225100
H721	H72	0.824100	0.113600	0.216300
C1161	C116	0.899300	0.061400	0.178900
H731	H73	0.901600	0.084200	0.138600
C1171	C117	0.942400	0.010400	0.192000
C1181	C118	0.937400	0.977700	0.251700
H741	H74	0.966700	0.943100	0.261400
C1191	C119	0.891000	0.994800	0.296000
H751	H75	0.887700	0.971700	0.336000
C1201	C120	0.016700	0.018200	0.095400
O311	O31	0.734400	0.882900	0.820600
O321	O32	0.708600	0.966800	0.883800
N311	N31	0.507300	0.009600	0.650300
H761	H76	0.488200	0.046400	0.661600
N321	N32	0.511600	0.929000	0.570500
C1211	C121	0.701700	0.933800	0.833500
C1221	C122	0.651900	0.953900	0.783100
C1231	C123	0.647000	0.921500	0.725100
H771	H77	0.675900	0.886400	0.716300
C1241	C124	0.600700	0.938600	0.678900
H781	H78	0.598400	0.915800	0.638600
C1251	C125	0.557600	0.989600	0.692000
C1261	C126	0.562600	0.022300	0.751700
H791	H79	0.533300	0.056900	0.761400
C1271	C127	0.609000	0.005200	0.796000
H801	H80	0.612300	0.028300	0.836000
C1281	C128	0.483300	0.981800	0.595400
O331	O33	0.179400	0.234400	0.617100
O341	O34	0.116200	0.208600	0.533200
N331	N33	0.349700	0.007300	0.490400
H811	H81	0.338400	0.988200	0.453600
N341	N34	0.429500	0.011600	0.571000
C1291	C129	0.166500	0.201700	0.566200
C1301	C130	0.216900	0.151900	0.546100
C1311	C131	0.274900	0.147000	0.578500
H821	H82	0.283700	0.175900	0.613600
C1321	C132	0.321100	0.100700	0.561400
H831	H83	0.361400	0.098400	0.584200
C1331	C133	0.308000	0.057600	0.510400
C1341	C134	0.248300	0.062600	0.477700
H841	H84	0.238600	0.033300	0.443100
C1351	C135	0.204000	0.109000	0.494800
H851	H85	0.164000	0.112300	0.471700
C1361	C136	0.404600	0.983300	0.518200
O351	O35	0.679400	0.265600	0.382900
O361	O36	0.616200	0.291400	0.466800
N351	N35	0.849700	0.492700	0.509600
H861	H86	0.838400	0.511800	0.546400
N361	N36	0.929500	0.488400	0.429000
C1371	C137	0.666500	0.298300	0.433800
C1381	C138	0.716900	0.348100	0.453900
C1391	C139	0.774900	0.353000	0.421500
H871	H87	0.783700	0.324100	0.386400
C1401	C140	0.821100	0.399300	0.438600
H881	H88	0.861400	0.401600	0.415800
C1411	C141	0.808000	0.442400	0.489600
C1421	C142	0.748300	0.437400	0.522300
H891	H89	0.738600	0.466700	0.556900
C1431	C143	0.704000	0.391000	0.505200
H901	H90	0.664000	0.387700	0.528300
C1441	C144	0.904600	0.516700	0.481800
O371	O37	0.320600	0.765600	0.117100
O381	O38	0.383800	0.791400	0.033200
N371	N37	0.150300	0.992700	0.990400
H911	H91	0.161600	0.011800	0.953600
N381	N38	0.070500	0.988400	0.071000
C1451	C145	0.333500	0.798300	0.066200
C1461	C146	0.283100	0.848100	0.046100
C1471	C147	0.225100	0.853000	0.078500
H921	H92	0.216300	0.824100	0.113600
C1481	C148	0.178900	0.899300	0.061400
H931	H93	0.138600	0.901600	0.084200
C1491	C149	0.192000	0.942400	0.010400
C1501	C150	0.251700	0.937400	0.977700
H941	H94	0.261400	0.966700	0.943100
C1511	C151	0.296000	0.891000	0.994800
H951	H95	0.336000	0.887700	0.971700
C1521	C152	0.095400	0.016700	0.018200
O391	O39	0.820600	0.734400	0.882900
O401	O40	0.883800	0.708600	0.966800
N391	N39	0.650300	0.507300	0.009600
H961	H96	0.661600	0.488200	0.046400
N401	N40	0.570500	0.511600	0.929000
C1531	C153	0.833500	0.701700	0.933800
C1541	C154	0.783100	0.651900	0.953900
C1551	C155	0.725100	0.647000	0.921500
H971	H97	0.716300	0.675900	0.886400
C1561	C156	0.678900	0.600700	0.938600
H981	H98	0.638600	0.598400	0.915800
C1571	C157	0.692000	0.557600	0.989600
C1581	C158	0.751700	0.562600	0.022300
H991	H99	0.761400	0.533300	0.056900
C1591	C159	0.796000	0.609000	0.005200
H1001	H100	0.836000	0.612300	0.028300
C1601	C160	0.595400	0.483300	0.981800
O411	O41	0.617100	0.179400	0.234400
O421	O42	0.533200	0.116200	0.208600
N411	N41	0.490400	0.349700	0.007300
H1011	H101	0.453600	0.338400	0.988200
N421	N42	0.571000	0.429500	0.011600
C1611	C161	0.566200	0.166500	0.201700
C1621	C162	0.546100	0.216900	0.151900
C1631	C163	0.578500	0.274900	0.147000
H1021	H102	0.613600	0.283700	0.175900
C1641	C164	0.561400	0.321100	0.100700
H1031	H103	0.584200	0.361400	0.098400
C1651	C165	0.510400	0.308000	0.057600
C1661	C166	0.477700	0.248300	0.062600
H1041	H104	0.443100	0.238600	0.033300
C1671	C167	0.494800	0.204000	0.109000
H1051	H105	0.471700	0.164000	0.112300
C1681	C168	0.518200	0.404600	0.983300
O431	O43	0.382900	0.679400	0.265600
O441	O44	0.466800	0.616200	0.291400
N431	N43	0.509600	0.849700	0.492700
H1061	H106	0.546400	0.838400	0.511800
N441	N44	0.429000	0.929500	0.488400
C1691	C169	0.433800	0.666500	0.298300
C1701	C170	0.453900	0.716900	0.348100
C1711	C171	0.421500	0.774900	0.353000
H1071	H107	0.386400	0.783700	0.324100
C1721	C172	0.438600	0.821100	0.399300
H1081	H108	0.415800	0.861400	0.401600
C1731	C173	0.489600	0.808000	0.442400
C1741	C174	0.522300	0.748300	0.437400
H1091	H109	0.556900	0.738600	0.466700
C1751	C175	0.505200	0.704000	0.391000
H1101	H110	0.528300	0.664000	0.387700
C1761	C176	0.481800	0.904600	0.516700
O451	O45	0.117100	0.320600	0.765600
O461	O46	0.033200	0.383800	0.791400
N451	N45	0.990400	0.150300	0.992700
H1111	H111	0.953600	0.161600	0.011800
N461	N46	0.071000	0.070500	0.988400
C1771	C177	0.066200	0.333500	0.798300
C1781	C178	0.046100	0.283100	0.848100
C1791	C179	0.078500	0.225100	0.853000
H1121	H112	0.113600	0.216300	0.824100
C1801	C180	0.061400	0.178900	0.899300
H1131	H113	0.084200	0.138600	0.901600
C1811	C181	0.010400	0.192000	0.942400
C1821	C182	0.977700	0.251700	0.937400
H1141	H114	0.943100	0.261400	0.966700
C1831	C183	0.994800	0.296000	0.891000
H1151	H115	0.971700	0.336000	0.887700
C1841	C184	0.018200	0.095400	0.016700
O471	O47	0.882900	0.820600	0.734400
O481	O48	0.966800	0.883800	0.708600
N471	N47	0.009600	0.650300	0.507300
H1161	H116	0.046400	0.661600	0.488200
N481	N48	0.929000	0.570500	0.511600
C1851	C185	0.933800	0.833500	0.701700
C1861	C186	0.953900	0.783100	0.651900
C1871	C187	0.921500	0.725100	0.647000
H1171	H117	0.886400	0.716300	0.675900
C1881	C188	0.938600	0.678900	0.600700
H1181	H118	0.915800	0.638600	0.598400
C1891	C189	0.989600	0.692000	0.557600
C1901	C190	0.022300	0.751700	0.562600
H1191	H119	0.056900	0.761400	0.533300
C1911	C191	0.005200	0.796000	0.609000
H1201	H120	0.028300	0.836000	0.612300
C1921	C192	0.981800	0.595400	0.483300
Sm51	Sm5	0.333570	0.666430	0.166430
Sm61	Sm6	0.166430	0.333570	0.666430
Sm71	Sm7	0.666430	0.166430	0.333570
Sm81	Sm8	0.833570	0.833570	0.833570
