data_SOZSOR_clean_PM
_symmetry_space_group_name_H-M	'P1'
_cell_length_a	20.403200
_cell_length_b	20.403200
_cell_length_c	20.403200
_cell_angle_alpha	90.000000
_cell_angle_beta	90.000000
_cell_angle_gamma	90.000000
_symmetry_Int_Tables_number 1

loop_
_symmetry_equiv_pos_as_xyz
'x,y,z'

loop_
_atom_site_label
_atom_site_type_symbol
_atom_site_fract_x
_atom_site_fract_y
_atom_site_fract_z
O11	O1	0.134400	0.811000	0.243930
O21	O2	0.059400	0.883580	0.212000
N11	N1	0.997900	0.652300	0.011600
H11	H1	0.960700	0.665500	0.994100
N21	N2	0.989600	0.576000	0.931200
C11	C1	0.087200	0.829300	0.206800
C21	C2	0.065100	0.781500	0.156200
C31	C3	0.013900	0.796600	0.114700
H21	H2	0.992700	0.837800	0.118700
C41	C4	0.993500	0.753600	0.068300
H31	H3	0.959100	0.765800	0.039400
C51	C5	0.021800	0.691900	0.062200
C61	C6	0.073100	0.676100	0.104500
H41	H4	0.094100	0.634700	0.100900
C71	C7	0.093500	0.719900	0.151000
H51	H5	0.127600	0.707900	0.180300
C81	C8	0.023200	0.596500	0.985300
O31	O3	0.365600	0.189000	0.743930
O41	O4	0.440600	0.116420	0.712000
N31	N3	0.502100	0.347700	0.511600
H61	H6	0.539300	0.334500	0.494100
N41	N4	0.510400	0.424000	0.431200
C91	C9	0.412800	0.170700	0.706800
C101	C10	0.434900	0.218500	0.656200
C111	C11	0.486100	0.203400	0.614700
H71	H7	0.507300	0.162200	0.618700
C121	C12	0.506500	0.246400	0.568300
H81	H8	0.540900	0.234200	0.539400
C131	C13	0.478200	0.308100	0.562200
C141	C14	0.426900	0.323900	0.604500
H91	H9	0.405900	0.365300	0.600900
C151	C15	0.406500	0.280100	0.651000
H101	H10	0.372400	0.292100	0.680300
C161	C16	0.476800	0.403500	0.485300
O51	O5	0.865600	0.311000	0.256070
O61	O6	0.940600	0.383580	0.288000
N51	N5	0.002100	0.152300	0.488400
H111	H11	0.039300	0.165500	0.505900
N61	N6	0.010400	0.076000	0.568800
C171	C17	0.912800	0.329300	0.293200
C181	C18	0.934900	0.281500	0.343800
C191	C19	0.986100	0.296600	0.385300
H121	H12	0.007300	0.337800	0.381300
C201	C20	0.006500	0.253600	0.431700
H131	H13	0.040900	0.265800	0.460600
C211	C21	0.978200	0.191900	0.437800
C221	C22	0.926900	0.176100	0.395500
H141	H14	0.905900	0.134700	0.399100
C231	C23	0.906500	0.219900	0.349000
H151	H15	0.872400	0.207900	0.319700
C241	C24	0.976800	0.096500	0.514700
O71	O7	0.634400	0.689000	0.756070
O81	O8	0.559400	0.616420	0.788000
N71	N7	0.497900	0.847700	0.988400
H161	H16	0.460700	0.834500	0.005900
N81	N8	0.489600	0.924000	0.068800
C251	C25	0.587200	0.670700	0.793200
C261	C26	0.565100	0.718500	0.843800
C271	C27	0.513900	0.703400	0.885300
H171	H17	0.492700	0.662200	0.881300
C281	C28	0.493500	0.746400	0.931700
H181	H18	0.459100	0.734200	0.960600
C291	C29	0.521800	0.808100	0.937800
C301	C30	0.573100	0.823900	0.895500
H191	H19	0.594100	0.865300	0.899100
C311	C31	0.593500	0.780100	0.849000
H201	H20	0.627600	0.792100	0.819700
C321	C32	0.523200	0.903500	0.014700
O91	O9	0.243930	0.134400	0.811000
O101	O10	0.212000	0.059400	0.883580
N91	N9	0.011600	0.997900	0.652300
H211	H21	0.994100	0.960700	0.665500
N101	N10	0.931200	0.989600	0.576000
C331	C33	0.206800	0.087200	0.829300
C341	C34	0.156200	0.065100	0.781500
C351	C35	0.114700	0.013900	0.796600
H221	H22	0.118700	0.992700	0.837800
C361	C36	0.068300	0.993500	0.753600
H231	H23	0.039400	0.959100	0.765800
C371	C37	0.062200	0.021800	0.691900
C381	C38	0.104500	0.073100	0.676100
H241	H24	0.100900	0.094100	0.634700
C391	C39	0.151000	0.093500	0.719900
H251	H25	0.180300	0.127600	0.707900
C401	C40	0.985300	0.023200	0.596500
O111	O11	0.743930	0.365600	0.189000
O121	O12	0.712000	0.440600	0.116420
N111	N11	0.511600	0.502100	0.347700
H261	H26	0.494100	0.539300	0.334500
N121	N12	0.431200	0.510400	0.424000
C411	C41	0.706800	0.412800	0.170700
C421	C42	0.656200	0.434900	0.218500
C431	C43	0.614700	0.486100	0.203400
H271	H27	0.618700	0.507300	0.162200
C441	C44	0.568300	0.506500	0.246400
H281	H28	0.539400	0.540900	0.234200
C451	C45	0.562200	0.478200	0.308100
C461	C46	0.604500	0.426900	0.323900
H291	H29	0.600900	0.405900	0.365300
C471	C47	0.651000	0.406500	0.280100
H301	H30	0.680300	0.372400	0.292100
C481	C48	0.485300	0.476800	0.403500
O131	O13	0.256070	0.865600	0.311000
O141	O14	0.288000	0.940600	0.383580
N131	N13	0.488400	0.002100	0.152300
H311	H31	0.505900	0.039300	0.165500
N141	N14	0.568800	0.010400	0.076000
C491	C49	0.293200	0.912800	0.329300
C501	C50	0.343800	0.934900	0.281500
C511	C51	0.385300	0.986100	0.296600
H321	H32	0.381300	0.007300	0.337800
C521	C52	0.431700	0.006500	0.253600
H331	H33	0.460600	0.040900	0.265800
C531	C53	0.437800	0.978200	0.191900
C541	C54	0.395500	0.926900	0.176100
H341	H34	0.399100	0.905900	0.134700
C551	C55	0.349000	0.906500	0.219900
H351	H35	0.319700	0.872400	0.207900
C561	C56	0.514700	0.976800	0.096500
O151	O15	0.756070	0.634400	0.689000
O161	O16	0.788000	0.559400	0.616420
N151	N15	0.988400	0.497900	0.847700
H361	H36	0.005900	0.460700	0.834500
N161	N16	0.068800	0.489600	0.924000
C571	C57	0.793200	0.587200	0.670700
C581	C58	0.843800	0.565100	0.718500
C591	C59	0.885300	0.513900	0.703400
H371	H37	0.881300	0.492700	0.662200
C601	C60	0.931700	0.493500	0.746400
H381	H38	0.960600	0.459100	0.734200
C611	C61	0.937800	0.521800	0.808100
C621	C62	0.895500	0.573100	0.823900
H391	H39	0.899100	0.594100	0.865300
C631	C63	0.849000	0.593500	0.780100
H401	H40	0.819700	0.627600	0.792100
C641	C64	0.014700	0.523200	0.903500
O171	O17	0.811000	0.243930	0.134400
O181	O18	0.883580	0.212000	0.059400
N171	N17	0.652300	0.011600	0.997900
H411	H41	0.665500	0.994100	0.960700
N181	N18	0.576000	0.931200	0.989600
C651	C65	0.829300	0.206800	0.087200
C661	C66	0.781500	0.156200	0.065100
C671	C67	0.796600	0.114700	0.013900
H421	H42	0.837800	0.118700	0.992700
C681	C68	0.753600	0.068300	0.993500
H431	H43	0.765800	0.039400	0.959100
C691	C69	0.691900	0.062200	0.021800
C701	C70	0.676100	0.104500	0.073100
H441	H44	0.634700	0.100900	0.094100
C711	C71	0.719900	0.151000	0.093500
H451	H45	0.707900	0.180300	0.127600
C721	C72	0.596500	0.985300	0.023200
O191	O19	0.189000	0.743930	0.365600
O201	O20	0.116420	0.712000	0.440600
N191	N19	0.347700	0.511600	0.502100
H461	H46	0.334500	0.494100	0.539300
N201	N20	0.424000	0.431200	0.510400
C731	C73	0.170700	0.706800	0.412800
C741	C74	0.218500	0.656200	0.434900
C751	C75	0.203400	0.614700	0.486100
H471	H47	0.162200	0.618700	0.507300
C761	C76	0.246400	0.568300	0.506500
H481	H48	0.234200	0.539400	0.540900
C771	C77	0.308100	0.562200	0.478200
C781	C78	0.323900	0.604500	0.426900
H491	H49	0.365300	0.600900	0.405900
C791	C79	0.280100	0.651000	0.406500
H501	H50	0.292100	0.680300	0.372400
C801	C80	0.403500	0.485300	0.476800
O211	O21	0.311000	0.256070	0.865600
O221	O22	0.383580	0.288000	0.940600
N211	N21	0.152300	0.488400	0.002100
H511	H51	0.165500	0.505900	0.039300
N221	N22	0.076000	0.568800	0.010400
C811	C81	0.329300	0.293200	0.912800
C821	C82	0.281500	0.343800	0.934900
C831	C83	0.296600	0.385300	0.986100
H521	H52	0.337800	0.381300	0.007300
C841	C84	0.253600	0.431700	0.006500
H531	H53	0.265800	0.460600	0.040900
C851	C85	0.191900	0.437800	0.978200
C861	C86	0.176100	0.395500	0.926900
H541	H54	0.134700	0.399100	0.905900
C871	C87	0.219900	0.349000	0.906500
H551	H55	0.207900	0.319700	0.872400
C881	C88	0.096500	0.514700	0.976800
O231	O23	0.689000	0.756070	0.634400
O241	O24	0.616420	0.788000	0.559400
N231	N23	0.847700	0.988400	0.497900
H561	H56	0.834500	0.005900	0.460700
N241	N24	0.924000	0.068800	0.489600
C891	C89	0.670700	0.793200	0.587200
C901	C90	0.718500	0.843800	0.565100
C911	C91	0.703400	0.885300	0.513900
H571	H57	0.662200	0.881300	0.492700
C921	C92	0.746400	0.931700	0.493500
H581	H58	0.734200	0.960600	0.459100
C931	C93	0.808100	0.937800	0.521800
C941	C94	0.823900	0.895500	0.573100
H591	H59	0.865300	0.899100	0.594100
C951	C95	0.780100	0.849000	0.593500
H601	H60	0.792100	0.819700	0.627600
C961	C96	0.903500	0.014700	0.523200
Dy11	Dy1	0.154170	0.845830	0.345830
Dy21	Dy2	0.345830	0.154170	0.845830
Dy31	Dy3	0.845830	0.345830	0.154170
Dy41	Dy4	0.654170	0.654170	0.654170
O251	O25	0.236920	0.618150	0.180250
O261	O26	0.211080	0.534300	0.115630
N251	N25	0.008000	0.490400	0.349500
H611	H61	0.989300	0.453200	0.338300
N261	N26	0.011300	0.572000	0.429400
C971	C97	0.203600	0.567600	0.166300
C981	C98	0.153900	0.547600	0.216300
C991	C99	0.148300	0.580300	0.274600
H621	H62	0.177200	0.615500	0.284000
C1001	C100	0.100600	0.562500	0.320700
H631	H63	0.097100	0.586000	0.360800
C1011	C101	0.058200	0.510600	0.307900
C1021	C102	0.063500	0.478100	0.248000
H641	H64	0.034000	0.443500	0.237900
C1031	C103	0.110900	0.495600	0.203600
H651	H65	0.114600	0.472000	0.163700
C1041	C104	0.983400	0.518600	0.404000
O271	O27	0.263080	0.381850	0.680250
O281	O28	0.288920	0.465700	0.615630
N271	N27	0.492000	0.509600	0.849500
H661	H66	0.510700	0.546800	0.838300
N281	N28	0.488700	0.428000	0.929400
C1051	C105	0.296400	0.432400	0.666300
C1061	C106	0.346100	0.452400	0.716300
C1071	C107	0.351700	0.419700	0.774600
H671	H67	0.322800	0.384500	0.784000
C1081	C108	0.399400	0.437500	0.820700
H681	H68	0.402900	0.414000	0.860800
C1091	C109	0.441800	0.489400	0.807900
C1101	C110	0.436500	0.521900	0.748000
H691	H69	0.466000	0.556500	0.737900
C1111	C111	0.389100	0.504400	0.703600
H701	H70	0.385400	0.528000	0.663700
C1121	C112	0.516600	0.481400	0.904000
O291	O29	0.763080	0.118150	0.319750
O301	O30	0.788920	0.034300	0.384370
N291	N29	0.992000	0.990400	0.150500
H711	H71	0.010700	0.953200	0.161700
N301	N30	0.988700	0.072000	0.070600
C1131	C113	0.796400	0.067600	0.333700
C1141	C114	0.846100	0.047600	0.283700
C1151	C115	0.851700	0.080300	0.225400
H721	H72	0.822800	0.115500	0.216000
C1161	C116	0.899400	0.062500	0.179300
H731	H73	0.902900	0.086000	0.139200
C1171	C117	0.941800	0.010600	0.192100
C1181	C118	0.936500	0.978100	0.252000
H741	H74	0.966000	0.943500	0.262100
C1191	C119	0.889100	0.995600	0.296400
H751	H75	0.885400	0.972000	0.336300
C1201	C120	0.016600	0.018600	0.096000
O311	O31	0.736920	0.881850	0.819750
O321	O32	0.711080	0.965700	0.884370
N311	N31	0.508000	0.009600	0.650500
H761	H76	0.489300	0.046800	0.661700
N321	N32	0.511300	0.928000	0.570600
C1211	C121	0.703600	0.932400	0.833700
C1221	C122	0.653900	0.952400	0.783700
C1231	C123	0.648300	0.919700	0.725400
H771	H77	0.677200	0.884500	0.716000
C1241	C124	0.600600	0.937500	0.679300
H781	H78	0.597100	0.914000	0.639200
C1251	C125	0.558200	0.989400	0.692100
C1261	C126	0.563500	0.021900	0.752000
H791	H79	0.534000	0.056500	0.762100
C1271	C127	0.610900	0.004400	0.796400
H801	H80	0.614600	0.028000	0.836300
C1281	C128	0.483400	0.981400	0.596000
O331	O33	0.180250	0.236920	0.618150
O341	O34	0.115630	0.211080	0.534300
N331	N33	0.349500	0.008000	0.490400
H811	H81	0.338300	0.989300	0.453200
N341	N34	0.429400	0.011300	0.572000
C1291	C129	0.166300	0.203600	0.567600
C1301	C130	0.216300	0.153900	0.547600
C1311	C131	0.274600	0.148300	0.580300
H821	H82	0.284000	0.177200	0.615500
C1321	C132	0.320700	0.100600	0.562500
H831	H83	0.360800	0.097100	0.586000
C1331	C133	0.307900	0.058200	0.510600
C1341	C134	0.248000	0.063500	0.478100
H841	H84	0.237900	0.034000	0.443500
C1351	C135	0.203600	0.110900	0.495600
H851	H85	0.163700	0.114600	0.472000
C1361	C136	0.404000	0.983400	0.518600
O351	O35	0.680250	0.263080	0.381850
O361	O36	0.615630	0.288920	0.465700
N351	N35	0.849500	0.492000	0.509600
H861	H86	0.838300	0.510700	0.546800
N361	N36	0.929400	0.488700	0.428000
C1371	C137	0.666300	0.296400	0.432400
C1381	C138	0.716300	0.346100	0.452400
C1391	C139	0.774600	0.351700	0.419700
H871	H87	0.784000	0.322800	0.384500
C1401	C140	0.820700	0.399400	0.437500
H881	H88	0.860800	0.402900	0.414000
C1411	C141	0.807900	0.441800	0.489400
C1421	C142	0.748000	0.436500	0.521900
H891	H89	0.737900	0.466000	0.556500
C1431	C143	0.703600	0.389100	0.504400
H901	H90	0.663700	0.385400	0.528000
C1441	C144	0.904000	0.516600	0.481400
O371	O37	0.319750	0.763080	0.118150
O381	O38	0.384370	0.788920	0.034300
N371	N37	0.150500	0.992000	0.990400
H911	H91	0.161700	0.010700	0.953200
N381	N38	0.070600	0.988700	0.072000
C1451	C145	0.333700	0.796400	0.067600
C1461	C146	0.283700	0.846100	0.047600
C1471	C147	0.225400	0.851700	0.080300
H921	H92	0.216000	0.822800	0.115500
C1481	C148	0.179300	0.899400	0.062500
H931	H93	0.139200	0.902900	0.086000
C1491	C149	0.192100	0.941800	0.010600
C1501	C150	0.252000	0.936500	0.978100
H941	H94	0.262100	0.966000	0.943500
C1511	C151	0.296400	0.889100	0.995600
H951	H95	0.336300	0.885400	0.972000
C1521	C152	0.096000	0.016600	0.018600
O391	O39	0.819750	0.736920	0.881850
O401	O40	0.884370	0.711080	0.965700
N391	N39	0.650500	0.508000	0.009600
H961	H96	0.661700	0.489300	0.046800
N401	N40	0.570600	0.511300	0.928000
C1531	C153	0.833700	0.703600	0.932400
C1541	C154	0.783700	0.653900	0.952400
C1551	C155	0.725400	0.648300	0.919700
H971	H97	0.716000	0.677200	0.884500
C1561	C156	0.679300	0.600600	0.937500
H981	H98	0.639200	0.597100	0.914000
C1571	C157	0.692100	0.558200	0.989400
C1581	C158	0.752000	0.563500	0.021900
H991	H99	0.762100	0.534000	0.056500
C1591	C159	0.796400	0.610900	0.004400
H1001	H100	0.836300	0.614600	0.028000
C1601	C160	0.596000	0.483400	0.981400
O411	O41	0.618150	0.180250	0.236920
O421	O42	0.534300	0.115630	0.211080
N411	N41	0.490400	0.349500	0.008000
H1011	H101	0.453200	0.338300	0.989300
N421	N42	0.572000	0.429400	0.011300
C1611	C161	0.567600	0.166300	0.203600
C1621	C162	0.547600	0.216300	0.153900
C1631	C163	0.580300	0.274600	0.148300
H1021	H102	0.615500	0.284000	0.177200
C1641	C164	0.562500	0.320700	0.100600
H1031	H103	0.586000	0.360800	0.097100
C1651	C165	0.510600	0.307900	0.058200
C1661	C166	0.478100	0.248000	0.063500
H1041	H104	0.443500	0.237900	0.034000
C1671	C167	0.495600	0.203600	0.110900
H1051	H105	0.472000	0.163700	0.114600
C1681	C168	0.518600	0.404000	0.983400
O431	O43	0.381850	0.680250	0.263080
O441	O44	0.465700	0.615630	0.288920
N431	N43	0.509600	0.849500	0.492000
H1061	H106	0.546800	0.838300	0.510700
N441	N44	0.428000	0.929400	0.488700
C1691	C169	0.432400	0.666300	0.296400
C1701	C170	0.452400	0.716300	0.346100
C1711	C171	0.419700	0.774600	0.351700
H1071	H107	0.384500	0.784000	0.322800
C1721	C172	0.437500	0.820700	0.399400
H1081	H108	0.414000	0.860800	0.402900
C1731	C173	0.489400	0.807900	0.441800
C1741	C174	0.521900	0.748000	0.436500
H1091	H109	0.556500	0.737900	0.466000
C1751	C175	0.504400	0.703600	0.389100
H1101	H110	0.528000	0.663700	0.385400
C1761	C176	0.481400	0.904000	0.516600
O451	O45	0.118150	0.319750	0.763080
O461	O46	0.034300	0.384370	0.788920
N451	N45	0.990400	0.150500	0.992000
H1111	H111	0.953200	0.161700	0.010700
N461	N46	0.072000	0.070600	0.988700
C1771	C177	0.067600	0.333700	0.796400
C1781	C178	0.047600	0.283700	0.846100
C1791	C179	0.080300	0.225400	0.851700
H1121	H112	0.115500	0.216000	0.822800
C1801	C180	0.062500	0.179300	0.899400
H1131	H113	0.086000	0.139200	0.902900
C1811	C181	0.010600	0.192100	0.941800
C1821	C182	0.978100	0.252000	0.936500
H1141	H114	0.943500	0.262100	0.966000
C1831	C183	0.995600	0.296400	0.889100
H1151	H115	0.972000	0.336300	0.885400
C1841	C184	0.018600	0.096000	0.016600
O471	O47	0.881850	0.819750	0.736920
O481	O48	0.965700	0.884370	0.711080
N471	N47	0.009600	0.650500	0.508000
H1161	H116	0.046800	0.661700	0.489300
N481	N48	0.928000	0.570600	0.511300
C1851	C185	0.932400	0.833700	0.703600
C1861	C186	0.952400	0.783700	0.653900
C1871	C187	0.919700	0.725400	0.648300
H1171	H117	0.884500	0.716000	0.677200
C1881	C188	0.937500	0.679300	0.600600
H1181	H118	0.914000	0.639200	0.597100
C1891	C189	0.989400	0.692100	0.558200
C1901	C190	0.021900	0.752000	0.563500
H1191	H119	0.056500	0.762100	0.534000
C1911	C191	0.004400	0.796400	0.610900
H1201	H120	0.028000	0.836300	0.614600
C1921	C192	0.981400	0.596000	0.483400
Dy51	Dy5	0.333330	0.666670	0.166670
Dy61	Dy6	0.166670	0.333330	0.666670
Dy71	Dy7	0.666670	0.166670	0.333330
Dy81	Dy8	0.833330	0.833330	0.833330
