data_SUBMIN_clean_PM
_symmetry_space_group_name_H-M	'P1'
_cell_length_a	31.070000
_cell_length_b	31.070000
_cell_length_c	31.862000
_cell_angle_alpha	90.000000
_cell_angle_beta	90.000000
_cell_angle_gamma	120.000000
_symmetry_Int_Tables_number 1

loop_
_symmetry_equiv_pos_as_xyz
'x,y,z'

loop_
_atom_site_label
_atom_site_type_symbol
_atom_site_fract_x
_atom_site_fract_y
_atom_site_fract_z
C11	C1	0.060290	0.580820	0.228450
H11	H1	0.030500	0.572600	0.215100
C21	C2	0.099790	0.628830	0.224280
H21	H2	0.096500	0.652300	0.208800
C31	C3	0.144230	0.641060	0.243640
C41	C4	0.146920	0.605510	0.267800
H31	H3	0.176000	0.613100	0.282000
C51	C5	0.105650	0.558380	0.270550
H41	H4	0.107700	0.534600	0.286800
C61	C6	0.488570	0.981150	0.346530
H51	H5	0.509100	0.973400	0.331000
C71	C7	0.491700	0.981440	0.389850
H61	H6	0.514200	0.974500	0.403000
C81	C8	0.460440	0.992340	0.413510
C91	C9	0.426910	0.001720	0.392460
H71	H7	0.405000	0.008200	0.407300
C101	C10	0.426690	0.001250	0.348740
H81	H8	0.404400	0.008000	0.334800
C111	C11	0.463730	0.995720	0.459470
H91	H9	0.438700	0.996200	0.475100
C121	C12	0.370550	0.899910	0.213900
H101	H10	0.396200	0.904000	0.196300
C131	C13	0.326230	0.855550	0.212460
H111	H11	0.322200	0.830300	0.194400
C141	C14	0.287590	0.849400	0.238650
C151	C15	0.294930	0.888560	0.263750
H121	H12	0.269400	0.885900	0.280800
C161	C16	0.340430	0.931840	0.263410
H131	H13	0.344800	0.958100	0.280400
C171	C17	0.240510	0.801340	0.240090
H141	H14	0.217000	0.795500	0.260700
C181	C18	0.188680	0.690950	0.239340
H151	H15	0.217800	0.698100	0.253200
N11	N1	0.062930	0.545780	0.250780
N21	N2	0.456970	0.991640	0.325770
N31	N3	0.501340	0.997960	0.477800
N41	N4	0.187580	0.723880	0.217140
N51	N5	0.232430	0.768250	0.213110
N61	N6	0.378490	0.937650	0.239610
C191	C19	0.419180	0.479470	0.228450
H161	H16	0.427400	0.457900	0.215100
C201	C20	0.371170	0.470960	0.224280
H171	H17	0.347700	0.444200	0.208800
C211	C21	0.358940	0.503170	0.243640
C221	C22	0.394490	0.541410	0.267800
H181	H18	0.386900	0.562900	0.282000
C231	C23	0.441620	0.547270	0.270550
H191	H19	0.465400	0.573100	0.286800
C241	C24	0.018850	0.507420	0.346530
H201	H20	0.026600	0.535700	0.331000
C251	C25	0.018560	0.510260	0.389850
H211	H21	0.025500	0.539700	0.403000
C261	C26	0.007660	0.468100	0.413510
C271	C27	0.998280	0.425190	0.392460
H221	H22	0.991800	0.396800	0.407300
C281	C28	0.998750	0.425440	0.348740
H231	H23	0.992000	0.396400	0.334800
C291	C29	0.004280	0.468010	0.459470
H241	H24	0.003800	0.442500	0.475100
C301	C30	0.100090	0.470640	0.213900
H251	H25	0.096000	0.492200	0.196300
C311	C31	0.144450	0.470680	0.212460
H261	H26	0.169700	0.491900	0.194400
C321	C32	0.150600	0.438190	0.238650
C331	C33	0.111440	0.406370	0.263750
H271	H27	0.114100	0.383500	0.280800
C341	C34	0.068160	0.408590	0.263410
H281	H28	0.041900	0.386700	0.280400
C351	C35	0.198660	0.439170	0.240090
H291	H29	0.204500	0.421500	0.260700
C361	C36	0.309050	0.497730	0.239340
H301	H30	0.301900	0.519700	0.253200
N71	N7	0.454220	0.517150	0.250780
N81	N8	0.008360	0.465330	0.325770
N91	N9	0.002040	0.503380	0.477800
N101	N10	0.276120	0.463700	0.217140
N111	N11	0.231750	0.464180	0.213110
N121	N12	0.062350	0.440840	0.239610
C371	C37	0.520530	0.939710	0.228450
H311	H31	0.542100	0.969500	0.215100
C381	C38	0.529040	0.900210	0.224280
H321	H32	0.555800	0.903500	0.208800
C391	C39	0.496830	0.855770	0.243640
C401	C40	0.458590	0.853080	0.267800
H331	H33	0.437100	0.824000	0.282000
C411	C41	0.452730	0.894350	0.270550
H341	H34	0.426900	0.892300	0.286800
C421	C42	0.492580	0.511430	0.346530
H351	H35	0.464300	0.490900	0.331000
C431	C43	0.489740	0.508300	0.389850
H361	H36	0.460300	0.485800	0.403000
C441	C44	0.531900	0.539560	0.413510
C451	C45	0.574810	0.573090	0.392460
H371	H37	0.603200	0.595000	0.407300
C461	C46	0.574560	0.573310	0.348740
H381	H38	0.603600	0.595600	0.334800
C471	C47	0.531990	0.536270	0.459470
H391	H39	0.557500	0.561300	0.475100
C481	C48	0.529360	0.629450	0.213900
H401	H40	0.507800	0.603800	0.196300
C491	C49	0.529320	0.673770	0.212460
H411	H41	0.508100	0.677800	0.194400
C501	C50	0.561810	0.712410	0.238650
C511	C51	0.593630	0.705070	0.263750
H421	H42	0.616500	0.730600	0.280800
C521	C52	0.591410	0.659570	0.263410
H431	H43	0.613300	0.655200	0.280400
C531	C53	0.560830	0.759490	0.240090
H441	H44	0.578500	0.783000	0.260700
C541	C54	0.502270	0.811320	0.239340
H451	H45	0.480300	0.782200	0.253200
N131	N13	0.482850	0.937070	0.250780
N141	N14	0.534670	0.543030	0.325770
N151	N15	0.496620	0.498660	0.477800
N161	N16	0.536300	0.812420	0.217140
N171	N17	0.535820	0.767570	0.213110
N181	N18	0.559160	0.621510	0.239610
C551	C55	0.580820	0.060290	0.271550
H461	H46	0.572600	0.030500	0.284900
C561	C56	0.628830	0.099790	0.275720
H471	H47	0.652300	0.096500	0.291200
C571	C57	0.641060	0.144230	0.256360
C581	C58	0.605510	0.146920	0.232200
H481	H48	0.613100	0.176000	0.218000
C591	C59	0.558380	0.105650	0.229450
H491	H49	0.534600	0.107700	0.213200
C601	C60	0.981150	0.488570	0.153470
H501	H50	0.973400	0.509100	0.169000
C611	C61	0.981440	0.491700	0.110150
H511	H51	0.974500	0.514200	0.097000
C621	C62	0.992340	0.460440	0.086490
C631	C63	0.001720	0.426910	0.107540
H521	H52	0.008200	0.405000	0.092700
C641	C64	0.001250	0.426690	0.151260
H531	H53	0.008000	0.404400	0.165200
C651	C65	0.995720	0.463730	0.040530
H541	H54	0.996200	0.438700	0.024900
C661	C66	0.899910	0.370550	0.286100
H551	H55	0.904000	0.396200	0.303700
C671	C67	0.855550	0.326230	0.287540
H561	H56	0.830300	0.322200	0.305600
C681	C68	0.849400	0.287590	0.261350
C691	C69	0.888560	0.294930	0.236250
H571	H57	0.885900	0.269400	0.219200
C701	C70	0.931840	0.340430	0.236590
H581	H58	0.958100	0.344800	0.219600
C711	C71	0.801340	0.240510	0.259910
H591	H59	0.795500	0.217000	0.239300
C721	C72	0.690950	0.188680	0.260660
H601	H60	0.698100	0.217800	0.246800
N191	N19	0.545780	0.062930	0.249220
N201	N20	0.991640	0.456970	0.174230
N211	N21	0.997960	0.501340	0.022200
N221	N22	0.723880	0.187580	0.282860
N231	N23	0.768250	0.232430	0.286890
N241	N24	0.937650	0.378490	0.260390
C731	C73	0.479470	0.419180	0.271550
H611	H61	0.457900	0.427400	0.284900
C741	C74	0.470960	0.371170	0.275720
H621	H62	0.444200	0.347700	0.291200
C751	C75	0.503170	0.358940	0.256360
C761	C76	0.541410	0.394490	0.232200
H631	H63	0.562900	0.386900	0.218000
C771	C77	0.547270	0.441620	0.229450
H641	H64	0.573100	0.465400	0.213200
C781	C78	0.507420	0.018850	0.153470
H651	H65	0.535700	0.026600	0.169000
C791	C79	0.510260	0.018560	0.110150
H661	H66	0.539700	0.025500	0.097000
C801	C80	0.468100	0.007660	0.086490
C811	C81	0.425190	0.998280	0.107540
H671	H67	0.396800	0.991800	0.092700
C821	C82	0.425440	0.998750	0.151260
H681	H68	0.396400	0.992000	0.165200
C831	C83	0.468010	0.004280	0.040530
H691	H69	0.442500	0.003800	0.024900
C841	C84	0.470640	0.100090	0.286100
H701	H70	0.492200	0.096000	0.303700
C851	C85	0.470680	0.144450	0.287540
H711	H71	0.491900	0.169700	0.305600
C861	C86	0.438190	0.150600	0.261350
C871	C87	0.406370	0.111440	0.236250
H721	H72	0.383500	0.114100	0.219200
C881	C88	0.408590	0.068160	0.236590
H731	H73	0.386700	0.041900	0.219600
C891	C89	0.439170	0.198660	0.259910
H741	H74	0.421500	0.204500	0.239300
C901	C90	0.497730	0.309050	0.260660
H751	H75	0.519700	0.301900	0.246800
N251	N25	0.517150	0.454220	0.249220
N261	N26	0.465330	0.008360	0.174230
N271	N27	0.503380	0.002040	0.022200
N281	N28	0.463700	0.276120	0.282860
N291	N29	0.464180	0.231750	0.286890
N301	N30	0.440840	0.062350	0.260390
C911	C91	0.939710	0.520530	0.271550
H761	H76	0.969500	0.542100	0.284900
C921	C92	0.900210	0.529040	0.275720
H771	H77	0.903500	0.555800	0.291200
C931	C93	0.855770	0.496830	0.256360
C941	C94	0.853080	0.458590	0.232200
H781	H78	0.824000	0.437100	0.218000
C951	C95	0.894350	0.452730	0.229450
H791	H79	0.892300	0.426900	0.213200
C961	C96	0.511430	0.492580	0.153470
H801	H80	0.490900	0.464300	0.169000
C971	C97	0.508300	0.489740	0.110150
H811	H81	0.485800	0.460300	0.097000
C981	C98	0.539560	0.531900	0.086490
C991	C99	0.573090	0.574810	0.107540
H821	H82	0.595000	0.603200	0.092700
C1001	C100	0.573310	0.574560	0.151260
H831	H83	0.595600	0.603600	0.165200
C1011	C101	0.536270	0.531990	0.040530
H841	H84	0.561300	0.557500	0.024900
C1021	C102	0.629450	0.529360	0.286100
H851	H85	0.603800	0.507800	0.303700
C1031	C103	0.673770	0.529320	0.287540
H861	H86	0.677800	0.508100	0.305600
C1041	C104	0.712410	0.561810	0.261350
C1051	C105	0.705070	0.593630	0.236250
H871	H87	0.730600	0.616500	0.219200
C1061	C106	0.659570	0.591410	0.236590
H881	H88	0.655200	0.613300	0.219600
C1071	C107	0.759490	0.560830	0.259910
H891	H89	0.783000	0.578500	0.239300
C1081	C108	0.811320	0.502270	0.260660
H901	H90	0.782200	0.480300	0.246800
N311	N31	0.937070	0.482850	0.249220
N321	N32	0.543030	0.534670	0.174230
N331	N33	0.498660	0.496620	0.022200
N341	N34	0.812420	0.536300	0.282860
N351	N35	0.767570	0.535820	0.286890
N361	N36	0.621510	0.559160	0.260390
C1091	C109	0.939710	0.419180	0.771550
H911	H91	0.969500	0.427400	0.784900
C1101	C110	0.900210	0.371170	0.775720
H921	H92	0.903500	0.347700	0.791200
C1111	C111	0.855770	0.358940	0.756360
C1121	C112	0.853080	0.394490	0.732200
H931	H93	0.824000	0.386900	0.718000
C1131	C113	0.894350	0.441620	0.729450
H941	H94	0.892300	0.465400	0.713200
C1141	C114	0.511430	0.018850	0.653470
H951	H95	0.490900	0.026600	0.669000
C1151	C115	0.508300	0.018560	0.610150
H961	H96	0.485800	0.025500	0.597000
C1161	C116	0.539560	0.007660	0.586490
C1171	C117	0.573090	0.998280	0.607540
H971	H97	0.595000	0.991800	0.592700
C1181	C118	0.573310	0.998750	0.651260
H981	H98	0.595600	0.992000	0.665200
C1191	C119	0.536270	0.004280	0.540530
H991	H99	0.561300	0.003800	0.524900
C1201	C120	0.629450	0.100090	0.786100
H1001	H100	0.603800	0.096000	0.803700
C1211	C121	0.673770	0.144450	0.787540
H1011	H101	0.677800	0.169700	0.805600
C1221	C122	0.712410	0.150600	0.761350
C1231	C123	0.705070	0.111440	0.736250
H1021	H102	0.730600	0.114100	0.719200
C1241	C124	0.659570	0.068160	0.736590
H1031	H103	0.655200	0.041900	0.719600
C1251	C125	0.759490	0.198660	0.759910
H1041	H104	0.783000	0.204500	0.739300
C1261	C126	0.811320	0.309050	0.760660
H1051	H105	0.782200	0.301900	0.746800
N371	N37	0.937070	0.454220	0.749220
N381	N38	0.543030	0.008360	0.674230
N391	N39	0.498660	0.002040	0.522200
N401	N40	0.812420	0.276120	0.782860
N411	N41	0.767570	0.231750	0.786890
N421	N42	0.621510	0.062350	0.760390
C1271	C127	0.580820	0.520530	0.771550
H1061	H106	0.572600	0.542100	0.784900
C1281	C128	0.628830	0.529040	0.775720
H1071	H107	0.652300	0.555800	0.791200
C1291	C129	0.641060	0.496830	0.756360
C1301	C130	0.605510	0.458590	0.732200
H1081	H108	0.613100	0.437100	0.718000
C1311	C131	0.558380	0.452730	0.729450
H1091	H109	0.534600	0.426900	0.713200
C1321	C132	0.981150	0.492580	0.653470
H1101	H110	0.973400	0.464300	0.669000
C1331	C133	0.981440	0.489740	0.610150
H1111	H111	0.974500	0.460300	0.597000
C1341	C134	0.992340	0.531900	0.586490
C1351	C135	0.001720	0.574810	0.607540
H1121	H112	0.008200	0.603200	0.592700
C1361	C136	0.001250	0.574560	0.651260
H1131	H113	0.008000	0.603600	0.665200
C1371	C137	0.995720	0.531990	0.540530
H1141	H114	0.996200	0.557500	0.524900
C1381	C138	0.899910	0.529360	0.786100
H1151	H115	0.904000	0.507800	0.803700
C1391	C139	0.855550	0.529320	0.787540
H1161	H116	0.830300	0.508100	0.805600
C1401	C140	0.849400	0.561810	0.761350
C1411	C141	0.888560	0.593630	0.736250
H1171	H117	0.885900	0.616500	0.719200
C1421	C142	0.931840	0.591410	0.736590
H1181	H118	0.958100	0.613300	0.719600
C1431	C143	0.801340	0.560830	0.759910
H1191	H119	0.795500	0.578500	0.739300
C1441	C144	0.690950	0.502270	0.760660
H1201	H120	0.698100	0.480300	0.746800
N431	N43	0.545780	0.482850	0.749220
N441	N44	0.991640	0.534670	0.674230
N451	N45	0.997960	0.496620	0.522200
N461	N46	0.723880	0.536300	0.782860
N471	N47	0.768250	0.535820	0.786890
N481	N48	0.937650	0.559160	0.760390
C1451	C145	0.479470	0.060290	0.771550
H1211	H121	0.457900	0.030500	0.784900
C1461	C146	0.470960	0.099790	0.775720
H1221	H122	0.444200	0.096500	0.791200
C1471	C147	0.503170	0.144230	0.756360
C1481	C148	0.541410	0.146920	0.732200
H1231	H123	0.562900	0.176000	0.718000
C1491	C149	0.547270	0.105650	0.729450
H1241	H124	0.573100	0.107700	0.713200
C1501	C150	0.507420	0.488570	0.653470
H1251	H125	0.535700	0.509100	0.669000
C1511	C151	0.510260	0.491700	0.610150
H1261	H126	0.539700	0.514200	0.597000
C1521	C152	0.468100	0.460440	0.586490
C1531	C153	0.425190	0.426910	0.607540
H1271	H127	0.396800	0.405000	0.592700
C1541	C154	0.425440	0.426690	0.651260
H1281	H128	0.396400	0.404400	0.665200
C1551	C155	0.468010	0.463730	0.540530
H1291	H129	0.442500	0.438700	0.524900
C1561	C156	0.470640	0.370550	0.786100
H1301	H130	0.492200	0.396200	0.803700
C1571	C157	0.470680	0.326230	0.787540
H1311	H131	0.491900	0.322200	0.805600
C1581	C158	0.438190	0.287590	0.761350
C1591	C159	0.406370	0.294930	0.736250
H1321	H132	0.383500	0.269400	0.719200
C1601	C160	0.408590	0.340430	0.736590
H1331	H133	0.386700	0.344800	0.719600
C1611	C161	0.439170	0.240510	0.759910
H1341	H134	0.421500	0.217000	0.739300
C1621	C162	0.497730	0.188680	0.760660
H1351	H135	0.519700	0.217800	0.746800
N491	N49	0.517150	0.062930	0.749220
N501	N50	0.465330	0.456970	0.674230
N511	N51	0.503380	0.501340	0.522200
N521	N52	0.463700	0.187580	0.782860
N531	N53	0.464180	0.232430	0.786890
N541	N54	0.440840	0.378490	0.760390
C1631	C163	0.419180	0.939710	0.728450
H1361	H136	0.427400	0.969500	0.715100
C1641	C164	0.371170	0.900210	0.724280
H1371	H137	0.347700	0.903500	0.708800
C1651	C165	0.358940	0.855770	0.743640
C1661	C166	0.394490	0.853080	0.767800
H1381	H138	0.386900	0.824000	0.782000
C1671	C167	0.441620	0.894350	0.770550
H1391	H139	0.465400	0.892300	0.786800
C1681	C168	0.018850	0.511430	0.846530
H1401	H140	0.026600	0.490900	0.831000
C1691	C169	0.018560	0.508300	0.889850
H1411	H141	0.025500	0.485800	0.903000
C1701	C170	0.007660	0.539560	0.913510
C1711	C171	0.998280	0.573090	0.892460
H1421	H142	0.991800	0.595000	0.907300
C1721	C172	0.998750	0.573310	0.848740
H1431	H143	0.992000	0.595600	0.834800
C1731	C173	0.004280	0.536270	0.959470
H1441	H144	0.003800	0.561300	0.975100
C1741	C174	0.100090	0.629450	0.713900
H1451	H145	0.096000	0.603800	0.696300
C1751	C175	0.144450	0.673770	0.712460
H1461	H146	0.169700	0.677800	0.694400
C1761	C176	0.150600	0.712410	0.738650
C1771	C177	0.111440	0.705070	0.763750
H1471	H147	0.114100	0.730600	0.780800
C1781	C178	0.068160	0.659570	0.763410
H1481	H148	0.041900	0.655200	0.780400
C1791	C179	0.198660	0.759490	0.740090
H1491	H149	0.204500	0.783000	0.760700
C1801	C180	0.309050	0.811320	0.739340
H1501	H150	0.301900	0.782200	0.753200
N551	N55	0.454220	0.937070	0.750780
N561	N56	0.008360	0.543030	0.825770
N571	N57	0.002040	0.498660	0.977800
N581	N58	0.276120	0.812420	0.717140
N591	N59	0.231750	0.767570	0.713110
N601	N60	0.062350	0.621510	0.739610
C1811	C181	0.520530	0.580820	0.728450
H1511	H151	0.542100	0.572600	0.715100
C1821	C182	0.529040	0.628830	0.724280
H1521	H152	0.555800	0.652300	0.708800
C1831	C183	0.496830	0.641060	0.743640
C1841	C184	0.458590	0.605510	0.767800
H1531	H153	0.437100	0.613100	0.782000
C1851	C185	0.452730	0.558380	0.770550
H1541	H154	0.426900	0.534600	0.786800
C1861	C186	0.492580	0.981150	0.846530
H1551	H155	0.464300	0.973400	0.831000
C1871	C187	0.489740	0.981440	0.889850
H1561	H156	0.460300	0.974500	0.903000
C1881	C188	0.531900	0.992340	0.913510
C1891	C189	0.574810	0.001720	0.892460
H1571	H157	0.603200	0.008200	0.907300
C1901	C190	0.574560	0.001250	0.848740
H1581	H158	0.603600	0.008000	0.834800
C1911	C191	0.531990	0.995720	0.959470
H1591	H159	0.557500	0.996200	0.975100
C1921	C192	0.529360	0.899910	0.713900
H1601	H160	0.507800	0.904000	0.696300
C1931	C193	0.529320	0.855550	0.712460
H1611	H161	0.508100	0.830300	0.694400
C1941	C194	0.561810	0.849400	0.738650
C1951	C195	0.593630	0.888560	0.763750
H1621	H162	0.616500	0.885900	0.780800
C1961	C196	0.591410	0.931840	0.763410
H1631	H163	0.613300	0.958100	0.780400
C1971	C197	0.560830	0.801340	0.740090
H1641	H164	0.578500	0.795500	0.760700
C1981	C198	0.502270	0.690950	0.739340
H1651	H165	0.480300	0.698100	0.753200
N611	N61	0.482850	0.545780	0.750780
N621	N62	0.534670	0.991640	0.825770
N631	N63	0.496620	0.997960	0.977800
N641	N64	0.536300	0.723880	0.717140
N651	N65	0.535820	0.768250	0.713110
N661	N66	0.559160	0.937650	0.739610
C1991	C199	0.060290	0.479470	0.728450
H1661	H166	0.030500	0.457900	0.715100
C2001	C200	0.099790	0.470960	0.724280
H1671	H167	0.096500	0.444200	0.708800
C2011	C201	0.144230	0.503170	0.743640
C2021	C202	0.146920	0.541410	0.767800
H1681	H168	0.176000	0.562900	0.782000
C2031	C203	0.105650	0.547270	0.770550
H1691	H169	0.107700	0.573100	0.786800
C2041	C204	0.488570	0.507420	0.846530
H1701	H170	0.509100	0.535700	0.831000
C2051	C205	0.491700	0.510260	0.889850
H1711	H171	0.514200	0.539700	0.903000
C2061	C206	0.460440	0.468100	0.913510
C2071	C207	0.426910	0.425190	0.892460
H1721	H172	0.405000	0.396800	0.907300
C2081	C208	0.426690	0.425440	0.848740
H1731	H173	0.404400	0.396400	0.834800
C2091	C209	0.463730	0.468010	0.959470
H1741	H174	0.438700	0.442500	0.975100
C2101	C210	0.370550	0.470640	0.713900
H1751	H175	0.396200	0.492200	0.696300
C2111	C211	0.326230	0.470680	0.712460
H1761	H176	0.322200	0.491900	0.694400
C2121	C212	0.287590	0.438190	0.738650
C2131	C213	0.294930	0.406370	0.763750
H1771	H177	0.269400	0.383500	0.780800
C2141	C214	0.340430	0.408590	0.763410
H1781	H178	0.344800	0.386700	0.780400
C2151	C215	0.240510	0.439170	0.740090
H1791	H179	0.217000	0.421500	0.760700
C2161	C216	0.188680	0.497730	0.739340
H1801	H180	0.217800	0.519700	0.753200
N671	N67	0.062930	0.517150	0.750780
N681	N68	0.456970	0.465330	0.825770
N691	N69	0.501340	0.503380	0.977800
N701	N70	0.187580	0.463700	0.717140
N711	N71	0.232430	0.464180	0.713110
N721	N72	0.378490	0.440840	0.739610
Cd11	Cd1	0.461160	0.000000	0.250000
Cd21	Cd2	0.000000	0.461160	0.250000
Cd31	Cd3	0.538840	0.538840	0.250000
Cd41	Cd4	0.538840	0.000000	0.750000
Cd51	Cd5	0.000000	0.538840	0.750000
Cd61	Cd6	0.461160	0.461160	0.750000
C2171	C217	0.726960	0.914150	0.561780
H1811	H181	0.697170	0.905930	0.548430
C2181	C218	0.766460	0.962160	0.557610
H1821	H182	0.763170	0.985630	0.542130
C2191	C219	0.810900	0.974390	0.576970
C2201	C220	0.813590	0.938840	0.601130
H1831	H183	0.842670	0.946430	0.615330
C2211	C221	0.772320	0.891710	0.603880
H1841	H184	0.774370	0.867930	0.620130
C2221	C222	0.155240	0.314480	0.679860
H1851	H185	0.175770	0.306730	0.664330
C2231	C223	0.158370	0.314770	0.723180
H1861	H186	0.180870	0.307830	0.736330
C2241	C224	0.127110	0.325670	0.746840
C2251	C225	0.093580	0.335050	0.725790
H1871	H187	0.071670	0.341530	0.740630
C2261	C226	0.093360	0.334580	0.682070
H1881	H188	0.071070	0.341330	0.668130
C2271	C227	0.130400	0.329050	0.792800
H1891	H189	0.105370	0.329530	0.808430
C2281	C228	0.037220	0.233240	0.547230
H1901	H190	0.062870	0.237330	0.529630
C2291	C229	0.992900	0.188880	0.545790
H1911	H191	0.988870	0.163630	0.527730
C2301	C230	0.954260	0.182730	0.571980
C2311	C231	0.961600	0.221890	0.597080
H1921	H192	0.936070	0.219230	0.614130
C2321	C232	0.007100	0.265170	0.596740
H1931	H193	0.011470	0.291430	0.613730
C2331	C233	0.907180	0.134670	0.573420
H1941	H194	0.883670	0.128830	0.594030
C2341	C234	0.855350	0.024280	0.572670
H1951	H195	0.884470	0.031430	0.586530
N731	N73	0.729600	0.879110	0.584110
N741	N74	0.123640	0.324970	0.659100
N751	N75	0.168010	0.331290	0.811130
N761	N76	0.854250	0.057210	0.550470
N771	N77	0.899100	0.101580	0.546440
N781	N78	0.045160	0.270980	0.572940
C2351	C235	0.085850	0.812800	0.561780
H1961	H196	0.094070	0.791230	0.548430
C2361	C236	0.037840	0.804290	0.557610
H1971	H197	0.014370	0.777530	0.542130
C2371	C237	0.025610	0.836500	0.576970
C2381	C238	0.061160	0.874740	0.601130
H1981	H198	0.053570	0.896230	0.615330
C2391	C239	0.108290	0.880600	0.603880
H1991	H199	0.132070	0.906430	0.620130
C2401	C240	0.685520	0.840750	0.679860
H2001	H200	0.693270	0.869030	0.664330
C2411	C241	0.685230	0.843590	0.723180
H2011	H201	0.692170	0.873030	0.736330
C2421	C242	0.674330	0.801430	0.746840
C2431	C243	0.664950	0.758520	0.725790
H2021	H202	0.658470	0.730130	0.740630
C2441	C244	0.665420	0.758770	0.682070
H2031	H203	0.658670	0.729730	0.668130
C2451	C245	0.670950	0.801340	0.792800
H2041	H204	0.670470	0.775830	0.808430
C2461	C246	0.766760	0.803970	0.547230
H2051	H205	0.762670	0.825530	0.529630
C2471	C247	0.811120	0.804010	0.545790
H2061	H206	0.836370	0.825230	0.527730
C2481	C248	0.817270	0.771520	0.571980
C2491	C249	0.778110	0.739700	0.597080
H2071	H207	0.780770	0.716830	0.614130
C2501	C250	0.734830	0.741920	0.596740
H2081	H208	0.708570	0.720030	0.613730
C2511	C251	0.865330	0.772500	0.573420
H2091	H209	0.871170	0.754830	0.594030
C2521	C252	0.975720	0.831060	0.572670
H2101	H210	0.968570	0.853030	0.586530
N791	N79	0.120890	0.850480	0.584110
N801	N80	0.675030	0.798660	0.659100
N811	N81	0.668710	0.836710	0.811130
N821	N82	0.942790	0.797030	0.550470
N831	N83	0.898420	0.797510	0.546440
N841	N84	0.729020	0.774170	0.572940
C2531	C253	0.187200	0.273040	0.561780
H2111	H211	0.208770	0.302830	0.548430
C2541	C254	0.195710	0.233540	0.557610
H2121	H212	0.222470	0.236830	0.542130
C2551	C255	0.163500	0.189100	0.576970
C2561	C256	0.125260	0.186410	0.601130
H2131	H213	0.103770	0.157330	0.615330
C2571	C257	0.119400	0.227680	0.603880
H2141	H214	0.093570	0.225630	0.620130
C2581	C258	0.159250	0.844760	0.679860
H2151	H215	0.130970	0.824230	0.664330
C2591	C259	0.156410	0.841630	0.723180
H2161	H216	0.126970	0.819130	0.736330
C2601	C260	0.198570	0.872890	0.746840
C2611	C261	0.241480	0.906420	0.725790
H2171	H217	0.269870	0.928330	0.740630
C2621	C262	0.241230	0.906640	0.682070
H2181	H218	0.270270	0.928930	0.668130
C2631	C263	0.198660	0.869600	0.792800
H2191	H219	0.224170	0.894630	0.808430
C2641	C264	0.196030	0.962780	0.547230
H2201	H220	0.174470	0.937130	0.529630
C2651	C265	0.195990	0.007100	0.545790
H2211	H221	0.174770	0.011130	0.527730
C2661	C266	0.228480	0.045740	0.571980
C2671	C267	0.260300	0.038400	0.597080
H2221	H222	0.283170	0.063930	0.614130
C2681	C268	0.258080	0.992900	0.596740
H2231	H223	0.279970	0.988530	0.613730
C2691	C269	0.227500	0.092820	0.573420
H2241	H224	0.245170	0.116330	0.594030
C2701	C270	0.168940	0.144650	0.572670
H2251	H225	0.146970	0.115530	0.586530
N851	N85	0.149520	0.270400	0.584110
N861	N86	0.201340	0.876360	0.659100
N871	N87	0.163290	0.831990	0.811130
N881	N88	0.202970	0.145750	0.550470
N891	N89	0.202490	0.100900	0.546440
N901	N90	0.225830	0.954840	0.572940
C2711	C271	0.247490	0.393620	0.604880
H2261	H226	0.239270	0.363830	0.618230
C2721	C272	0.295500	0.433120	0.609050
H2271	H227	0.318970	0.429830	0.624530
C2731	C273	0.307730	0.477560	0.589690
C2741	C274	0.272180	0.480250	0.565530
H2281	H228	0.279770	0.509330	0.551330
C2751	C275	0.225050	0.438980	0.562780
H2291	H229	0.201270	0.441030	0.546530
C2761	C276	0.647820	0.821900	0.486800
H2301	H230	0.640070	0.842430	0.502330
C2771	C277	0.648110	0.825030	0.443480
H2311	H231	0.641170	0.847530	0.430330
C2781	C278	0.659010	0.793770	0.419820
C2791	C279	0.668390	0.760240	0.440870
H2321	H232	0.674870	0.738330	0.426030
C2801	C280	0.667920	0.760020	0.484590
H2331	H233	0.674670	0.737730	0.498530
C2811	C281	0.662390	0.797060	0.373860
H2341	H234	0.662870	0.772030	0.358230
C2821	C282	0.566580	0.703880	0.619430
H2351	H235	0.570670	0.729530	0.637030
C2831	C283	0.522220	0.659560	0.620870
H2361	H236	0.496970	0.655530	0.638930
C2841	C284	0.516070	0.620920	0.594680
C2851	C285	0.555230	0.628260	0.569580
H2371	H237	0.552570	0.602730	0.552530
C2861	C286	0.598510	0.673760	0.569920
H2381	H238	0.624770	0.678130	0.552930
C2871	C287	0.468010	0.573840	0.593240
H2391	H239	0.462170	0.550330	0.572630
C2881	C288	0.357620	0.522010	0.593990
H2401	H240	0.364770	0.551130	0.580130
N911	N91	0.212450	0.396260	0.582550
N921	N92	0.658310	0.790300	0.507560
N931	N93	0.664630	0.834670	0.355530
N941	N94	0.390550	0.520910	0.616190
N951	N95	0.434920	0.565760	0.620220
N961	N96	0.604320	0.711820	0.593720
C2891	C289	0.146140	0.752510	0.604880
H2411	H241	0.124570	0.760730	0.618230
C2901	C290	0.137630	0.704500	0.609050
H2421	H242	0.110870	0.681030	0.624530
C2911	C291	0.169840	0.692270	0.589690
C2921	C292	0.208080	0.727820	0.565530
H2431	H243	0.229570	0.720230	0.551330
C2931	C293	0.213940	0.774950	0.562780
H2441	H244	0.239770	0.798730	0.546530
C2941	C294	0.174090	0.352180	0.486800
H2451	H245	0.202370	0.359930	0.502330
C2951	C295	0.176930	0.351890	0.443480
H2461	H246	0.206370	0.358830	0.430330
C2961	C296	0.134770	0.340990	0.419820
C2971	C297	0.091860	0.331610	0.440870
H2471	H247	0.063470	0.325130	0.426030
C2981	C298	0.092110	0.332080	0.484590
H2481	H248	0.063070	0.325330	0.498530
C2991	C299	0.134680	0.337610	0.373860
H2491	H249	0.109170	0.337130	0.358230
C3001	C300	0.137310	0.433420	0.619430
H2501	H250	0.158870	0.429330	0.637030
C3011	C301	0.137350	0.477780	0.620870
H2511	H251	0.158570	0.503030	0.638930
C3021	C302	0.104860	0.483930	0.594680
C3031	C303	0.073040	0.444770	0.569580
H2521	H252	0.050170	0.447430	0.552530
C3041	C304	0.075260	0.401490	0.569920
H2531	H253	0.053370	0.375230	0.552930
C3051	C305	0.105840	0.531990	0.593240
H2541	H254	0.088170	0.537830	0.572630
C3061	C306	0.164400	0.642380	0.593990
H2551	H255	0.186370	0.635230	0.580130
N971	N97	0.183820	0.787550	0.582550
N981	N98	0.132000	0.341690	0.507560
N991	N99	0.170050	0.335370	0.355530
N1001	N100	0.130370	0.609450	0.616190
N1011	N101	0.130850	0.565080	0.620220
N1021	N102	0.107510	0.395680	0.593720
C3071	C307	0.606380	0.853860	0.604880
H2561	H256	0.636170	0.875430	0.618230
C3081	C308	0.566880	0.862370	0.609050
H2571	H257	0.570170	0.889130	0.624530
C3091	C309	0.522440	0.830160	0.589690
C3101	C310	0.519750	0.791920	0.565530
H2581	H258	0.490670	0.770430	0.551330
C3111	C311	0.561020	0.786060	0.562780
H2591	H259	0.558970	0.760230	0.546530
C3121	C312	0.178100	0.825910	0.486800
H2601	H260	0.157570	0.797630	0.502330
C3131	C313	0.174970	0.823070	0.443480
H2611	H261	0.152470	0.793630	0.430330
C3141	C314	0.206230	0.865230	0.419820
C3151	C315	0.239760	0.908140	0.440870
H2621	H262	0.261670	0.936530	0.426030
C3161	C316	0.239980	0.907890	0.484590
H2631	H263	0.262270	0.936930	0.498530
C3171	C317	0.202940	0.865320	0.373860
H2641	H264	0.227970	0.890830	0.358230
C3181	C318	0.296120	0.862690	0.619430
H2651	H265	0.270470	0.841130	0.637030
C3191	C319	0.340440	0.862650	0.620870
H2661	H266	0.344470	0.841430	0.638930
C3201	C320	0.379080	0.895140	0.594680
C3211	C321	0.371740	0.926960	0.569580
H2671	H267	0.397270	0.949830	0.552530
C3221	C322	0.326240	0.924740	0.569920
H2681	H268	0.321870	0.946630	0.552930
C3231	C323	0.426160	0.894160	0.593240
H2691	H269	0.449670	0.911830	0.572630
C3241	C324	0.477990	0.835600	0.593990
H2701	H270	0.448870	0.813630	0.580130
N1031	N103	0.603740	0.816180	0.582550
N1041	N104	0.209700	0.868000	0.507560
N1051	N105	0.165330	0.829950	0.355530
N1061	N106	0.479090	0.869630	0.616190
N1071	N107	0.434240	0.869150	0.620220
N1081	N108	0.288180	0.892490	0.593720
C3251	C325	0.606380	0.752510	0.104880
H2711	H271	0.636170	0.760730	0.118230
C3261	C326	0.566880	0.704500	0.109050
H2721	H272	0.570170	0.681030	0.124530
C3271	C327	0.522440	0.692270	0.089690
C3281	C328	0.519750	0.727820	0.065530
H2731	H273	0.490670	0.720230	0.051330
C3291	C329	0.561020	0.774950	0.062780
H2741	H274	0.558970	0.798730	0.046530
C3301	C330	0.178100	0.352180	0.986800
H2751	H275	0.157570	0.359930	0.002330
C3311	C331	0.174970	0.351890	0.943480
H2761	H276	0.152470	0.358830	0.930330
C3321	C332	0.206230	0.340990	0.919820
C3331	C333	0.239760	0.331610	0.940870
H2771	H277	0.261670	0.325130	0.926030
C3341	C334	0.239980	0.332080	0.984590
H2781	H278	0.262270	0.325330	0.998530
C3351	C335	0.202940	0.337610	0.873860
H2791	H279	0.227970	0.337130	0.858230
C3361	C336	0.296120	0.433420	0.119430
H2801	H280	0.270470	0.429330	0.137030
C3371	C337	0.340440	0.477780	0.120870
H2811	H281	0.344470	0.503030	0.138930
C3381	C338	0.379080	0.483930	0.094680
C3391	C339	0.371740	0.444770	0.069580
H2821	H282	0.397270	0.447430	0.052530
C3401	C340	0.326240	0.401490	0.069920
H2831	H283	0.321870	0.375230	0.052930
C3411	C341	0.426160	0.531990	0.093240
H2841	H284	0.449670	0.537830	0.072630
C3421	C342	0.477990	0.642380	0.093990
H2851	H285	0.448870	0.635230	0.080130
N1091	N109	0.603740	0.787550	0.082550
N1101	N110	0.209700	0.341690	0.007560
N1111	N111	0.165330	0.335370	0.855530
N1121	N112	0.479090	0.609450	0.116190
N1131	N113	0.434240	0.565080	0.120220
N1141	N114	0.288180	0.395680	0.093720
C3431	C343	0.247490	0.853860	0.104880
H2861	H286	0.239270	0.875430	0.118230
C3441	C344	0.295500	0.862370	0.109050
H2871	H287	0.318970	0.889130	0.124530
C3451	C345	0.307730	0.830160	0.089690
C3461	C346	0.272180	0.791920	0.065530
H2881	H288	0.279770	0.770430	0.051330
C3471	C347	0.225050	0.786060	0.062780
H2891	H289	0.201270	0.760230	0.046530
C3481	C348	0.647820	0.825910	0.986800
H2901	H290	0.640070	0.797630	0.002330
C3491	C349	0.648110	0.823070	0.943480
H2911	H291	0.641170	0.793630	0.930330
C3501	C350	0.659010	0.865230	0.919820
C3511	C351	0.668390	0.908140	0.940870
H2921	H292	0.674870	0.936530	0.926030
C3521	C352	0.667920	0.907890	0.984590
H2931	H293	0.674670	0.936930	0.998530
C3531	C353	0.662390	0.865320	0.873860
H2941	H294	0.662870	0.890830	0.858230
C3541	C354	0.566580	0.862690	0.119430
H2951	H295	0.570670	0.841130	0.137030
C3551	C355	0.522220	0.862650	0.120870
H2961	H296	0.496970	0.841430	0.138930
C3561	C356	0.516070	0.895140	0.094680
C3571	C357	0.555230	0.926960	0.069580
H2971	H297	0.552570	0.949830	0.052530
C3581	C358	0.598510	0.924740	0.069920
H2981	H298	0.624770	0.946630	0.052930
C3591	C359	0.468010	0.894160	0.093240
H2991	H299	0.462170	0.911830	0.072630
C3601	C360	0.357620	0.835600	0.093990
H3001	H300	0.364770	0.813630	0.080130
N1151	N115	0.212450	0.816180	0.082550
N1161	N116	0.658310	0.868000	0.007560
N1171	N117	0.664630	0.829950	0.855530
N1181	N118	0.390550	0.869630	0.116190
N1191	N119	0.434920	0.869150	0.120220
N1201	N120	0.604320	0.892490	0.093720
C3611	C361	0.146140	0.393620	0.104880
H3011	H301	0.124570	0.363830	0.118230
C3621	C362	0.137630	0.433120	0.109050
H3021	H302	0.110870	0.429830	0.124530
C3631	C363	0.169840	0.477560	0.089690
C3641	C364	0.208080	0.480250	0.065530
H3031	H303	0.229570	0.509330	0.051330
C3651	C365	0.213940	0.438980	0.062780
H3041	H304	0.239770	0.441030	0.046530
C3661	C366	0.174090	0.821900	0.986800
H3051	H305	0.202370	0.842430	0.002330
C3671	C367	0.176930	0.825030	0.943480
H3061	H306	0.206370	0.847530	0.930330
C3681	C368	0.134770	0.793770	0.919820
C3691	C369	0.091860	0.760240	0.940870
H3071	H307	0.063470	0.738330	0.926030
C3701	C370	0.092110	0.760020	0.984590
H3081	H308	0.063070	0.737730	0.998530
C3711	C371	0.134680	0.797060	0.873860
H3091	H309	0.109170	0.772030	0.858230
C3721	C372	0.137310	0.703880	0.119430
H3101	H310	0.158870	0.729530	0.137030
C3731	C373	0.137350	0.659560	0.120870
H3111	H311	0.158570	0.655530	0.138930
C3741	C374	0.104860	0.620920	0.094680
C3751	C375	0.073040	0.628260	0.069580
H3121	H312	0.050170	0.602730	0.052530
C3761	C376	0.075260	0.673760	0.069920
H3131	H313	0.053370	0.678130	0.052930
C3771	C377	0.105840	0.573840	0.093240
H3141	H314	0.088170	0.550330	0.072630
C3781	C378	0.164400	0.522010	0.093990
H3151	H315	0.186370	0.551130	0.080130
N1211	N121	0.183820	0.396260	0.082550
N1221	N122	0.132000	0.790300	0.007560
N1231	N123	0.170050	0.834670	0.855530
N1241	N124	0.130370	0.520910	0.116190
N1251	N125	0.130850	0.565760	0.120220
N1261	N126	0.107510	0.711820	0.093720
C3791	C379	0.085850	0.273040	0.061780
H3161	H316	0.094070	0.302830	0.048430
C3801	C380	0.037840	0.233540	0.057610
H3171	H317	0.014370	0.236830	0.042130
C3811	C381	0.025610	0.189100	0.076970
C3821	C382	0.061160	0.186410	0.101130
H3181	H318	0.053570	0.157330	0.115330
C3831	C383	0.108290	0.227680	0.103880
H3191	H319	0.132070	0.225630	0.120130
C3841	C384	0.685520	0.844760	0.179860
H3201	H320	0.693270	0.824230	0.164330
C3851	C385	0.685230	0.841630	0.223180
H3211	H321	0.692170	0.819130	0.236330
C3861	C386	0.674330	0.872890	0.246840
C3871	C387	0.664950	0.906420	0.225790
H3221	H322	0.658470	0.928330	0.240630
C3881	C388	0.665420	0.906640	0.182070
H3231	H323	0.658670	0.928930	0.168130
C3891	C389	0.670950	0.869600	0.292800
H3241	H324	0.670470	0.894630	0.308430
C3901	C390	0.766760	0.962780	0.047230
H3251	H325	0.762670	0.937130	0.029630
C3911	C391	0.811120	0.007100	0.045790
H3261	H326	0.836370	0.011130	0.027730
C3921	C392	0.817270	0.045740	0.071980
C3931	C393	0.778110	0.038400	0.097080
H3271	H327	0.780770	0.063930	0.114130
C3941	C394	0.734830	0.992900	0.096740
H3281	H328	0.708570	0.988530	0.113730
C3951	C395	0.865330	0.092820	0.073420
H3291	H329	0.871170	0.116330	0.094030
C3961	C396	0.975720	0.144650	0.072670
H3301	H330	0.968570	0.115530	0.086530
N1271	N127	0.120890	0.270400	0.084110
N1281	N128	0.675030	0.876360	0.159100
N1291	N129	0.668710	0.831990	0.311130
N1301	N130	0.942790	0.145750	0.050470
N1311	N131	0.898420	0.100900	0.046440
N1321	N132	0.729020	0.954840	0.072940
C3971	C397	0.187200	0.914150	0.061780
H3311	H331	0.208770	0.905930	0.048430
C3981	C398	0.195710	0.962160	0.057610
H3321	H332	0.222470	0.985630	0.042130
C3991	C399	0.163500	0.974390	0.076970
C4001	C400	0.125260	0.938840	0.101130
H3331	H333	0.103770	0.946430	0.115330
C4011	C401	0.119400	0.891710	0.103880
H3341	H334	0.093570	0.867930	0.120130
C4021	C402	0.159250	0.314480	0.179860
H3351	H335	0.130970	0.306730	0.164330
C4031	C403	0.156410	0.314770	0.223180
H3361	H336	0.126970	0.307830	0.236330
C4041	C404	0.198570	0.325670	0.246840
C4051	C405	0.241480	0.335050	0.225790
H3371	H337	0.269870	0.341530	0.240630
C4061	C406	0.241230	0.334580	0.182070
H3381	H338	0.270270	0.341330	0.168130
C4071	C407	0.198660	0.329050	0.292800
H3391	H339	0.224170	0.329530	0.308430
C4081	C408	0.196030	0.233240	0.047230
H3401	H340	0.174470	0.237330	0.029630
C4091	C409	0.195990	0.188880	0.045790
H3411	H341	0.174770	0.163630	0.027730
C4101	C410	0.228480	0.182730	0.071980
C4111	C411	0.260300	0.221890	0.097080
H3421	H342	0.283170	0.219230	0.114130
C4121	C412	0.258080	0.265170	0.096740
H3431	H343	0.279970	0.291430	0.113730
C4131	C413	0.227500	0.134670	0.073420
H3441	H344	0.245170	0.128830	0.094030
C4141	C414	0.168940	0.024280	0.072670
H3451	H345	0.146970	0.031430	0.086530
N1331	N133	0.149520	0.879110	0.084110
N1341	N134	0.201340	0.324970	0.159100
N1351	N135	0.163290	0.331290	0.311130
N1361	N136	0.202970	0.057210	0.050470
N1371	N137	0.202490	0.101580	0.046440
N1381	N138	0.225830	0.270980	0.072940
C4151	C415	0.726960	0.812800	0.061780
H3461	H346	0.697170	0.791230	0.048430
C4161	C416	0.766460	0.804290	0.057610
H3471	H347	0.763170	0.777530	0.042130
C4171	C417	0.810900	0.836500	0.076970
C4181	C418	0.813590	0.874740	0.101130
H3481	H348	0.842670	0.896230	0.115330
C4191	C419	0.772320	0.880600	0.103880
H3491	H349	0.774370	0.906430	0.120130
C4201	C420	0.155240	0.840750	0.179860
H3501	H350	0.175770	0.869030	0.164330
C4211	C421	0.158370	0.843590	0.223180
H3511	H351	0.180870	0.873030	0.236330
C4221	C422	0.127110	0.801430	0.246840
C4231	C423	0.093580	0.758520	0.225790
H3521	H352	0.071670	0.730130	0.240630
C4241	C424	0.093360	0.758770	0.182070
H3531	H353	0.071070	0.729730	0.168130
C4251	C425	0.130400	0.801340	0.292800
H3541	H354	0.105370	0.775830	0.308430
C4261	C426	0.037220	0.803970	0.047230
H3551	H355	0.062870	0.825530	0.029630
C4271	C427	0.992900	0.804010	0.045790
H3561	H356	0.988870	0.825230	0.027730
C4281	C428	0.954260	0.771520	0.071980
C4291	C429	0.961600	0.739700	0.097080
H3571	H357	0.936070	0.716830	0.114130
C4301	C430	0.007100	0.741920	0.096740
H3581	H358	0.011470	0.720030	0.113730
C4311	C431	0.907180	0.772500	0.073420
H3591	H359	0.883670	0.754830	0.094030
C4321	C432	0.855350	0.831060	0.072670
H3601	H360	0.884470	0.853030	0.086530
N1391	N139	0.729600	0.850480	0.084110
N1401	N140	0.123640	0.798660	0.159100
N1411	N141	0.168010	0.836710	0.311130
N1421	N142	0.854250	0.797030	0.050470
N1431	N143	0.899100	0.797510	0.046440
N1441	N144	0.045160	0.774170	0.072940
Cd71	Cd7	0.127830	0.333330	0.583330
Cd81	Cd8	0.666670	0.794500	0.583330
Cd91	Cd9	0.205500	0.872170	0.583330
Cd101	Cd10	0.205500	0.333330	0.083330
Cd111	Cd11	0.666670	0.872170	0.083330
Cd121	Cd12	0.127830	0.794500	0.083330
C4331	C433	0.393620	0.247490	0.895120
H3611	H361	0.363830	0.239270	0.881770
C4341	C434	0.433120	0.295500	0.890950
H3621	H362	0.429830	0.318970	0.875470
C4351	C435	0.477560	0.307730	0.910310
C4361	C436	0.480250	0.272180	0.934470
H3631	H363	0.509330	0.279770	0.948670
C4371	C437	0.438980	0.225050	0.937220
H3641	H364	0.441030	0.201270	0.953470
C4381	C438	0.821900	0.647820	0.013200
H3651	H365	0.842430	0.640070	0.997670
C4391	C439	0.825030	0.648110	0.056520
H3661	H366	0.847530	0.641170	0.069670
C4401	C440	0.793770	0.659010	0.080180
C4411	C441	0.760240	0.668390	0.059130
H3671	H367	0.738330	0.674870	0.073970
C4421	C442	0.760020	0.667920	0.015410
H3681	H368	0.737730	0.674670	0.001470
C4431	C443	0.797060	0.662390	0.126140
H3691	H369	0.772030	0.662870	0.141770
C4441	C444	0.703880	0.566580	0.880570
H3701	H370	0.729530	0.570670	0.862970
C4451	C445	0.659560	0.522220	0.879130
H3711	H371	0.655530	0.496970	0.861070
C4461	C446	0.620920	0.516070	0.905320
C4471	C447	0.628260	0.555230	0.930420
H3721	H372	0.602730	0.552570	0.947470
C4481	C448	0.673760	0.598510	0.930080
H3731	H373	0.678130	0.624770	0.947070
C4491	C449	0.573840	0.468010	0.906760
H3741	H374	0.550330	0.462170	0.927370
C4501	C450	0.522010	0.357620	0.906010
H3751	H375	0.551130	0.364770	0.919870
N1451	N145	0.396260	0.212450	0.917450
N1461	N146	0.790300	0.658310	0.992440
N1471	N147	0.834670	0.664630	0.144470
N1481	N148	0.520910	0.390550	0.883810
N1491	N149	0.565760	0.434920	0.879780
N1501	N150	0.711820	0.604320	0.906280
C4511	C451	0.752510	0.146140	0.895120
H3761	H376	0.760730	0.124570	0.881770
C4521	C452	0.704500	0.137630	0.890950
H3771	H377	0.681030	0.110870	0.875470
C4531	C453	0.692270	0.169840	0.910310
C4541	C454	0.727820	0.208080	0.934470
H3781	H378	0.720230	0.229570	0.948670
C4551	C455	0.774950	0.213940	0.937220
H3791	H379	0.798730	0.239770	0.953470
C4561	C456	0.352180	0.174090	0.013200
H3801	H380	0.359930	0.202370	0.997670
C4571	C457	0.351890	0.176930	0.056520
H3811	H381	0.358830	0.206370	0.069670
C4581	C458	0.340990	0.134770	0.080180
C4591	C459	0.331610	0.091860	0.059130
H3821	H382	0.325130	0.063470	0.073970
C4601	C460	0.332080	0.092110	0.015410
H3831	H383	0.325330	0.063070	0.001470
C4611	C461	0.337610	0.134680	0.126140
H3841	H384	0.337130	0.109170	0.141770
C4621	C462	0.433420	0.137310	0.880570
H3851	H385	0.429330	0.158870	0.862970
C4631	C463	0.477780	0.137350	0.879130
H3861	H386	0.503030	0.158570	0.861070
C4641	C464	0.483930	0.104860	0.905320
C4651	C465	0.444770	0.073040	0.930420
H3871	H387	0.447430	0.050170	0.947470
C4661	C466	0.401490	0.075260	0.930080
H3881	H388	0.375230	0.053370	0.947070
C4671	C467	0.531990	0.105840	0.906760
H3891	H389	0.537830	0.088170	0.927370
C4681	C468	0.642380	0.164400	0.906010
H3901	H390	0.635230	0.186370	0.919870
N1511	N151	0.787550	0.183820	0.917450
N1521	N152	0.341690	0.132000	0.992440
N1531	N153	0.335370	0.170050	0.144470
N1541	N154	0.609450	0.130370	0.883810
N1551	N155	0.565080	0.130850	0.879780
N1561	N156	0.395680	0.107510	0.906280
C4691	C469	0.853860	0.606380	0.895120
H3911	H391	0.875430	0.636170	0.881770
C4701	C470	0.862370	0.566880	0.890950
H3921	H392	0.889130	0.570170	0.875470
C4711	C471	0.830160	0.522440	0.910310
C4721	C472	0.791920	0.519750	0.934470
H3931	H393	0.770430	0.490670	0.948670
C4731	C473	0.786060	0.561020	0.937220
H3941	H394	0.760230	0.558970	0.953470
C4741	C474	0.825910	0.178100	0.013200
H3951	H395	0.797630	0.157570	0.997670
C4751	C475	0.823070	0.174970	0.056520
H3961	H396	0.793630	0.152470	0.069670
C4761	C476	0.865230	0.206230	0.080180
C4771	C477	0.908140	0.239760	0.059130
H3971	H397	0.936530	0.261670	0.073970
C4781	C478	0.907890	0.239980	0.015410
H3981	H398	0.936930	0.262270	0.001470
C4791	C479	0.865320	0.202940	0.126140
H3991	H399	0.890830	0.227970	0.141770
C4801	C480	0.862690	0.296120	0.880570
H4001	H400	0.841130	0.270470	0.862970
C4811	C481	0.862650	0.340440	0.879130
H4011	H401	0.841430	0.344470	0.861070
C4821	C482	0.895140	0.379080	0.905320
C4831	C483	0.926960	0.371740	0.930420
H4021	H402	0.949830	0.397270	0.947470
C4841	C484	0.924740	0.326240	0.930080
H4031	H403	0.946630	0.321870	0.947070
C4851	C485	0.894160	0.426160	0.906760
H4041	H404	0.911830	0.449670	0.927370
C4861	C486	0.835600	0.477990	0.906010
H4051	H405	0.813630	0.448870	0.919870
N1571	N157	0.816180	0.603740	0.917450
N1581	N158	0.868000	0.209700	0.992440
N1591	N159	0.829950	0.165330	0.144470
N1601	N160	0.869630	0.479090	0.883810
N1611	N161	0.869150	0.434240	0.879780
N1621	N162	0.892490	0.288180	0.906280
C4871	C487	0.914150	0.726960	0.938220
H4061	H406	0.905930	0.697170	0.951570
C4881	C488	0.962160	0.766460	0.942390
H4071	H407	0.985630	0.763170	0.957870
C4891	C489	0.974390	0.810900	0.923030
C4901	C490	0.938840	0.813590	0.898870
H4081	H408	0.946430	0.842670	0.884670
C4911	C491	0.891710	0.772320	0.896120
H4091	H409	0.867930	0.774370	0.879870
C4921	C492	0.314480	0.155240	0.820140
H4101	H410	0.306730	0.175770	0.835670
C4931	C493	0.314770	0.158370	0.776820
H4111	H411	0.307830	0.180870	0.763670
C4941	C494	0.325670	0.127110	0.753160
C4951	C495	0.335050	0.093580	0.774210
H4121	H412	0.341530	0.071670	0.759370
C4961	C496	0.334580	0.093360	0.817930
H4131	H413	0.341330	0.071070	0.831870
C4971	C497	0.329050	0.130400	0.707200
H4141	H414	0.329530	0.105370	0.691570
C4981	C498	0.233240	0.037220	0.952770
H4151	H415	0.237330	0.062870	0.970370
C4991	C499	0.188880	0.992900	0.954210
H4161	H416	0.163630	0.988870	0.972270
C5001	C500	0.182730	0.954260	0.928020
C5011	C501	0.221890	0.961600	0.902920
H4171	H417	0.219230	0.936070	0.885870
C5021	C502	0.265170	0.007100	0.903260
H4181	H418	0.291430	0.011470	0.886270
C5031	C503	0.134670	0.907180	0.926580
H4191	H419	0.128830	0.883670	0.905970
C5041	C504	0.024280	0.855350	0.927330
H4201	H420	0.031430	0.884470	0.913470
N1631	N163	0.879110	0.729600	0.915890
N1641	N164	0.324970	0.123640	0.840900
N1651	N165	0.331290	0.168010	0.688870
N1661	N166	0.057210	0.854250	0.949530
N1671	N167	0.101580	0.899100	0.953560
N1681	N168	0.270980	0.045160	0.927060
C5051	C505	0.812800	0.085850	0.938220
H4211	H421	0.791230	0.094070	0.951570
C5061	C506	0.804290	0.037840	0.942390
H4221	H422	0.777530	0.014370	0.957870
C5071	C507	0.836500	0.025610	0.923030
C5081	C508	0.874740	0.061160	0.898870
H4231	H423	0.896230	0.053570	0.884670
C5091	C509	0.880600	0.108290	0.896120
H4241	H424	0.906430	0.132070	0.879870
C5101	C510	0.840750	0.685520	0.820140
H4251	H425	0.869030	0.693270	0.835670
C5111	C511	0.843590	0.685230	0.776820
H4261	H426	0.873030	0.692170	0.763670
C5121	C512	0.801430	0.674330	0.753160
C5131	C513	0.758520	0.664950	0.774210
H4271	H427	0.730130	0.658470	0.759370
C5141	C514	0.758770	0.665420	0.817930
H4281	H428	0.729730	0.658670	0.831870
C5151	C515	0.801340	0.670950	0.707200
H4291	H429	0.775830	0.670470	0.691570
C5161	C516	0.803970	0.766760	0.952770
H4301	H430	0.825530	0.762670	0.970370
C5171	C517	0.804010	0.811120	0.954210
H4311	H431	0.825230	0.836370	0.972270
C5181	C518	0.771520	0.817270	0.928020
C5191	C519	0.739700	0.778110	0.902920
H4321	H432	0.716830	0.780770	0.885870
C5201	C520	0.741920	0.734830	0.903260
H4331	H433	0.720030	0.708570	0.886270
C5211	C521	0.772500	0.865330	0.926580
H4341	H434	0.754830	0.871170	0.905970
C5221	C522	0.831060	0.975720	0.927330
H4351	H435	0.853030	0.968570	0.913470
N1691	N169	0.850480	0.120890	0.915890
N1701	N170	0.798660	0.675030	0.840900
N1711	N171	0.836710	0.668710	0.688870
N1721	N172	0.797030	0.942790	0.949530
N1731	N173	0.797510	0.898420	0.953560
N1741	N174	0.774170	0.729020	0.927060
C5231	C523	0.273040	0.187200	0.938220
H4361	H436	0.302830	0.208770	0.951570
C5241	C524	0.233540	0.195710	0.942390
H4371	H437	0.236830	0.222470	0.957870
C5251	C525	0.189100	0.163500	0.923030
C5261	C526	0.186410	0.125260	0.898870
H4381	H438	0.157330	0.103770	0.884670
C5271	C527	0.227680	0.119400	0.896120
H4391	H439	0.225630	0.093570	0.879870
C5281	C528	0.844760	0.159250	0.820140
H4401	H440	0.824230	0.130970	0.835670
C5291	C529	0.841630	0.156410	0.776820
H4411	H441	0.819130	0.126970	0.763670
C5301	C530	0.872890	0.198570	0.753160
C5311	C531	0.906420	0.241480	0.774210
H4421	H442	0.928330	0.269870	0.759370
C5321	C532	0.906640	0.241230	0.817930
H4431	H443	0.928930	0.270270	0.831870
C5331	C533	0.869600	0.198660	0.707200
H4441	H444	0.894630	0.224170	0.691570
C5341	C534	0.962780	0.196030	0.952770
H4451	H445	0.937130	0.174470	0.970370
C5351	C535	0.007100	0.195990	0.954210
H4461	H446	0.011130	0.174770	0.972270
C5361	C536	0.045740	0.228480	0.928020
C5371	C537	0.038400	0.260300	0.902920
H4471	H447	0.063930	0.283170	0.885870
C5381	C538	0.992900	0.258080	0.903260
H4481	H448	0.988530	0.279970	0.886270
C5391	C539	0.092820	0.227500	0.926580
H4491	H449	0.116330	0.245170	0.905970
C5401	C540	0.144650	0.168940	0.927330
H4501	H450	0.115530	0.146970	0.913470
N1751	N175	0.270400	0.149520	0.915890
N1761	N176	0.876360	0.201340	0.840900
N1771	N177	0.831990	0.163290	0.688870
N1781	N178	0.145750	0.202970	0.949530
N1791	N179	0.100900	0.202490	0.953560
N1801	N180	0.954840	0.225830	0.927060
C5411	C541	0.273040	0.085850	0.438220
H4511	H451	0.302830	0.094070	0.451570
C5421	C542	0.233540	0.037840	0.442390
H4521	H452	0.236830	0.014370	0.457870
C5431	C543	0.189100	0.025610	0.423030
C5441	C544	0.186410	0.061160	0.398870
H4531	H453	0.157330	0.053570	0.384670
C5451	C545	0.227680	0.108290	0.396120
H4541	H454	0.225630	0.132070	0.379870
C5461	C546	0.844760	0.685520	0.320140
H4551	H455	0.824230	0.693270	0.335670
C5471	C547	0.841630	0.685230	0.276820
H4561	H456	0.819130	0.692170	0.263670
C5481	C548	0.872890	0.674330	0.253160
C5491	C549	0.906420	0.664950	0.274210
H4571	H457	0.928330	0.658470	0.259370
C5501	C550	0.906640	0.665420	0.317930
H4581	H458	0.928930	0.658670	0.331870
C5511	C551	0.869600	0.670950	0.207200
H4591	H459	0.894630	0.670470	0.191570
C5521	C552	0.962780	0.766760	0.452770
H4601	H460	0.937130	0.762670	0.470370
C5531	C553	0.007100	0.811120	0.454210
H4611	H461	0.011130	0.836370	0.472270
C5541	C554	0.045740	0.817270	0.428020
C5551	C555	0.038400	0.778110	0.402920
H4621	H462	0.063930	0.780770	0.385870
C5561	C556	0.992900	0.734830	0.403260
H4631	H463	0.988530	0.708570	0.386270
C5571	C557	0.092820	0.865330	0.426580
H4641	H464	0.116330	0.871170	0.405970
C5581	C558	0.144650	0.975720	0.427330
H4651	H465	0.115530	0.968570	0.413470
N1811	N181	0.270400	0.120890	0.415890
N1821	N182	0.876360	0.675030	0.340900
N1831	N183	0.831990	0.668710	0.188870
N1841	N184	0.145750	0.942790	0.449530
N1851	N185	0.100900	0.898420	0.453560
N1861	N186	0.954840	0.729020	0.427060
C5591	C559	0.914150	0.187200	0.438220
H4661	H466	0.905930	0.208770	0.451570
C5601	C560	0.962160	0.195710	0.442390
H4671	H467	0.985630	0.222470	0.457870
C5611	C561	0.974390	0.163500	0.423030
C5621	C562	0.938840	0.125260	0.398870
H4681	H468	0.946430	0.103770	0.384670
C5631	C563	0.891710	0.119400	0.396120
H4691	H469	0.867930	0.093570	0.379870
C5641	C564	0.314480	0.159250	0.320140
H4701	H470	0.306730	0.130970	0.335670
C5651	C565	0.314770	0.156410	0.276820
H4711	H471	0.307830	0.126970	0.263670
C5661	C566	0.325670	0.198570	0.253160
C5671	C567	0.335050	0.241480	0.274210
H4721	H472	0.341530	0.269870	0.259370
C5681	C568	0.334580	0.241230	0.317930
H4731	H473	0.341330	0.270270	0.331870
C5691	C569	0.329050	0.198660	0.207200
H4741	H474	0.329530	0.224170	0.191570
C5701	C570	0.233240	0.196030	0.452770
H4751	H475	0.237330	0.174470	0.470370
C5711	C571	0.188880	0.195990	0.454210
H4761	H476	0.163630	0.174770	0.472270
C5721	C572	0.182730	0.228480	0.428020
C5731	C573	0.221890	0.260300	0.402920
H4771	H477	0.219230	0.283170	0.385870
C5741	C574	0.265170	0.258080	0.403260
H4781	H478	0.291430	0.279970	0.386270
C5751	C575	0.134670	0.227500	0.426580
H4791	H479	0.128830	0.245170	0.405970
C5761	C576	0.024280	0.168940	0.427330
H4801	H480	0.031430	0.146970	0.413470
N1871	N187	0.879110	0.149520	0.415890
N1881	N188	0.324970	0.201340	0.340900
N1891	N189	0.331290	0.163290	0.188870
N1901	N190	0.057210	0.202970	0.449530
N1911	N191	0.101580	0.202490	0.453560
N1921	N192	0.270980	0.225830	0.427060
C5771	C577	0.812800	0.726960	0.438220
H4811	H481	0.791230	0.697170	0.451570
C5781	C578	0.804290	0.766460	0.442390
H4821	H482	0.777530	0.763170	0.457870
C5791	C579	0.836500	0.810900	0.423030
C5801	C580	0.874740	0.813590	0.398870
H4831	H483	0.896230	0.842670	0.384670
C5811	C581	0.880600	0.772320	0.396120
H4841	H484	0.906430	0.774370	0.379870
C5821	C582	0.840750	0.155240	0.320140
H4851	H485	0.869030	0.175770	0.335670
C5831	C583	0.843590	0.158370	0.276820
H4861	H486	0.873030	0.180870	0.263670
C5841	C584	0.801430	0.127110	0.253160
C5851	C585	0.758520	0.093580	0.274210
H4871	H487	0.730130	0.071670	0.259370
C5861	C586	0.758770	0.093360	0.317930
H4881	H488	0.729730	0.071070	0.331870
C5871	C587	0.801340	0.130400	0.207200
H4891	H489	0.775830	0.105370	0.191570
C5881	C588	0.803970	0.037220	0.452770
H4901	H490	0.825530	0.062870	0.470370
C5891	C589	0.804010	0.992900	0.454210
H4911	H491	0.825230	0.988870	0.472270
C5901	C590	0.771520	0.954260	0.428020
C5911	C591	0.739700	0.961600	0.402920
H4921	H492	0.716830	0.936070	0.385870
C5921	C592	0.741920	0.007100	0.403260
H4931	H493	0.720030	0.011470	0.386270
C5931	C593	0.772500	0.907180	0.426580
H4941	H494	0.754830	0.883670	0.405970
C5941	C594	0.831060	0.855350	0.427330
H4951	H495	0.853030	0.884470	0.413470
N1931	N193	0.850480	0.729600	0.415890
N1941	N194	0.798660	0.123640	0.340900
N1951	N195	0.836710	0.168010	0.188870
N1961	N196	0.797030	0.854250	0.449530
N1971	N197	0.797510	0.899100	0.453560
N1981	N198	0.774170	0.045160	0.427060
C5951	C595	0.752510	0.606380	0.395120
H4961	H496	0.760730	0.636170	0.381770
C5961	C596	0.704500	0.566880	0.390950
H4971	H497	0.681030	0.570170	0.375470
C5971	C597	0.692270	0.522440	0.410310
C5981	C598	0.727820	0.519750	0.434470
H4981	H498	0.720230	0.490670	0.448670
C5991	C599	0.774950	0.561020	0.437220
H4991	H499	0.798730	0.558970	0.453470
C6001	C600	0.352180	0.178100	0.513200
H5001	H500	0.359930	0.157570	0.497670
C6011	C601	0.351890	0.174970	0.556520
H5011	H501	0.358830	0.152470	0.569670
C6021	C602	0.340990	0.206230	0.580180
C6031	C603	0.331610	0.239760	0.559130
H5021	H502	0.325130	0.261670	0.573970
C6041	C604	0.332080	0.239980	0.515410
H5031	H503	0.325330	0.262270	0.501470
C6051	C605	0.337610	0.202940	0.626140
H5041	H504	0.337130	0.227970	0.641770
C6061	C606	0.433420	0.296120	0.380570
H5051	H505	0.429330	0.270470	0.362970
C6071	C607	0.477780	0.340440	0.379130
H5061	H506	0.503030	0.344470	0.361070
C6081	C608	0.483930	0.379080	0.405320
C6091	C609	0.444770	0.371740	0.430420
H5071	H507	0.447430	0.397270	0.447470
C6101	C610	0.401490	0.326240	0.430080
H5081	H508	0.375230	0.321870	0.447070
C6111	C611	0.531990	0.426160	0.406760
H5091	H509	0.537830	0.449670	0.427370
C6121	C612	0.642380	0.477990	0.406010
H5101	H510	0.635230	0.448870	0.419870
N1991	N199	0.787550	0.603740	0.417450
N2001	N200	0.341690	0.209700	0.492440
N2011	N201	0.335370	0.165330	0.644470
N2021	N202	0.609450	0.479090	0.383810
N2031	N203	0.565080	0.434240	0.379780
N2041	N204	0.395680	0.288180	0.406280
C6131	C613	0.853860	0.247490	0.395120
H5111	H511	0.875430	0.239270	0.381770
C6141	C614	0.862370	0.295500	0.390950
H5121	H512	0.889130	0.318970	0.375470
C6151	C615	0.830160	0.307730	0.410310
C6161	C616	0.791920	0.272180	0.434470
H5131	H513	0.770430	0.279770	0.448670
C6171	C617	0.786060	0.225050	0.437220
H5141	H514	0.760230	0.201270	0.453470
C6181	C618	0.825910	0.647820	0.513200
H5151	H515	0.797630	0.640070	0.497670
C6191	C619	0.823070	0.648110	0.556520
H5161	H516	0.793630	0.641170	0.569670
C6201	C620	0.865230	0.659010	0.580180
C6211	C621	0.908140	0.668390	0.559130
H5171	H517	0.936530	0.674870	0.573970
C6221	C622	0.907890	0.667920	0.515410
H5181	H518	0.936930	0.674670	0.501470
C6231	C623	0.865320	0.662390	0.626140
H5191	H519	0.890830	0.662870	0.641770
C6241	C624	0.862690	0.566580	0.380570
H5201	H520	0.841130	0.570670	0.362970
C6251	C625	0.862650	0.522220	0.379130
H5211	H521	0.841430	0.496970	0.361070
C6261	C626	0.895140	0.516070	0.405320
C6271	C627	0.926960	0.555230	0.430420
H5221	H522	0.949830	0.552570	0.447470
C6281	C628	0.924740	0.598510	0.430080
H5231	H523	0.946630	0.624770	0.447070
C6291	C629	0.894160	0.468010	0.406760
H5241	H524	0.911830	0.462170	0.427370
C6301	C630	0.835600	0.357620	0.406010
H5251	H525	0.813630	0.364770	0.419870
N2051	N205	0.816180	0.212450	0.417450
N2061	N206	0.868000	0.658310	0.492440
N2071	N207	0.829950	0.664630	0.644470
N2081	N208	0.869630	0.390550	0.383810
N2091	N209	0.869150	0.434920	0.379780
N2101	N210	0.892490	0.604320	0.406280
C6311	C631	0.393620	0.146140	0.395120
H5261	H526	0.363830	0.124570	0.381770
C6321	C632	0.433120	0.137630	0.390950
H5271	H527	0.429830	0.110870	0.375470
C6331	C633	0.477560	0.169840	0.410310
C6341	C634	0.480250	0.208080	0.434470
H5281	H528	0.509330	0.229570	0.448670
C6351	C635	0.438980	0.213940	0.437220
H5291	H529	0.441030	0.239770	0.453470
C6361	C636	0.821900	0.174090	0.513200
H5301	H530	0.842430	0.202370	0.497670
C6371	C637	0.825030	0.176930	0.556520
H5311	H531	0.847530	0.206370	0.569670
C6381	C638	0.793770	0.134770	0.580180
C6391	C639	0.760240	0.091860	0.559130
H5321	H532	0.738330	0.063470	0.573970
C6401	C640	0.760020	0.092110	0.515410
H5331	H533	0.737730	0.063070	0.501470
C6411	C641	0.797060	0.134680	0.626140
H5341	H534	0.772030	0.109170	0.641770
C6421	C642	0.703880	0.137310	0.380570
H5351	H535	0.729530	0.158870	0.362970
C6431	C643	0.659560	0.137350	0.379130
H5361	H536	0.655530	0.158570	0.361070
C6441	C644	0.620920	0.104860	0.405320
C6451	C645	0.628260	0.073040	0.430420
H5371	H537	0.602730	0.050170	0.447470
C6461	C646	0.673760	0.075260	0.430080
H5381	H538	0.678130	0.053370	0.447070
C6471	C647	0.573840	0.105840	0.406760
H5391	H539	0.550330	0.088170	0.427370
C6481	C648	0.522010	0.164400	0.406010
H5401	H540	0.551130	0.186370	0.419870
N2111	N211	0.396260	0.183820	0.417450
N2121	N212	0.790300	0.132000	0.492440
N2131	N213	0.834670	0.170050	0.644470
N2141	N214	0.520910	0.130370	0.383810
N2151	N215	0.565760	0.130850	0.379780
N2161	N216	0.711820	0.107510	0.406280
Cd131	Cd13	0.794500	0.666670	0.916670
Cd141	Cd14	0.333330	0.127830	0.916670
Cd151	Cd15	0.872170	0.205500	0.916670
Cd161	Cd16	0.872170	0.666670	0.416670
Cd171	Cd17	0.333330	0.205500	0.416670
Cd181	Cd18	0.794500	0.127830	0.416670
