data_SUCLOT_clean_PM
_symmetry_space_group_name_H-M	'P1'
_cell_length_a	12.454500
_cell_length_b	10.208000
_cell_length_c	6.701300
_cell_angle_alpha	107.470000
_cell_angle_beta	104.432000
_cell_angle_gamma	66.761000
_symmetry_Int_Tables_number 1

loop_
_symmetry_equiv_pos_as_xyz
'x,y,z'

loop_
_atom_site_label
_atom_site_type_symbol
_atom_site_fract_x
_atom_site_fract_y
_atom_site_fract_z
Ca11	Ca1	0.444200	0.109400	0.771500
O11	O1	0.258700	0.089100	0.501400
O21	O2	0.524400	0.844800	0.845200
O31	O3	0.262100	0.078300	0.819800
O41	O4	0.509700	0.859000	0.539800
C11	C1	0.513000	0.786100	0.656700
C21	C2	0.220200	0.058400	0.629200
C31	C3	0.109900	0.037500	0.564300
C41	C4	0.514500	0.636300	0.577900
C51	C5	0.931000	0.019100	0.647600
C61	C6	0.539800	0.549200	0.718800
C71	C7	0.048200	0.040700	0.718300
C81	C8	0.538800	0.401500	0.640900
Ca21	Ca2	0.555800	0.890600	0.228500
O51	O5	0.741300	0.910900	0.498600
O61	O6	0.475600	0.155200	0.154800
O71	O7	0.737900	0.921700	0.180200
O81	O8	0.490300	0.141000	0.460200
C91	C9	0.487000	0.213900	0.343300
C101	C10	0.779800	0.941600	0.370800
C111	C11	0.890100	0.962500	0.435700
C121	C12	0.485500	0.363700	0.422100
C131	C13	0.069000	0.980900	0.352400
C141	C14	0.460200	0.450800	0.281200
C151	C15	0.951800	0.959300	0.281700
C161	C16	0.461200	0.598500	0.359100
