data_SUFHIM_clean_PM
_symmetry_space_group_name_H-M	'P1'
_cell_length_a	29.007000
_cell_length_b	29.007000
_cell_length_c	16.175000
_cell_angle_alpha	90.000000
_cell_angle_beta	90.000000
_cell_angle_gamma	120.000000
_symmetry_Int_Tables_number 1

loop_
_symmetry_equiv_pos_as_xyz
'x,y,z'

loop_
_atom_site_label
_atom_site_type_symbol
_atom_site_fract_x
_atom_site_fract_y
_atom_site_fract_z
C11	C1	0.964180	0.250990	0.089900
C21	C2	0.795660	0.088220	0.067500
C31	C3	0.846260	0.124300	0.109900
C41	C4	0.867500	0.123190	0.184700
H11	H1	0.852400	0.096200	0.224000
C51	C5	0.916430	0.170600	0.190600
H21	H2	0.940100	0.181000	0.234700
C61	C6	0.922950	0.198530	0.120200
O11	O1	0.004660	0.275810	0.138810
O21	O2	0.959070	0.267540	0.022360
O31	O3	0.792710	0.102280	0.993220
O41	O4	0.761190	0.048670	0.103970
O51	O5	0.879850	0.170640	0.069430
C71	C7	0.630850	0.584320	0.423230
C81	C8	0.462330	0.421550	0.400830
C91	C9	0.512930	0.457630	0.443230
C101	C10	0.534170	0.456520	0.518030
H31	H3	0.519070	0.429530	0.557330
C111	C11	0.583100	0.503930	0.523930
H41	H4	0.606770	0.514330	0.568030
C121	C12	0.589620	0.531860	0.453530
O61	O6	0.671330	0.609140	0.472140
O71	O7	0.625740	0.600870	0.355690
O81	O8	0.459380	0.435610	0.326550
O91	O9	0.427860	0.382000	0.437300
O101	O10	0.546520	0.503970	0.402760
C131	C13	0.297510	0.917660	0.756570
C141	C14	0.128990	0.754890	0.734170
C151	C15	0.179590	0.790970	0.776570
C161	C16	0.200830	0.789860	0.851370
H51	H5	0.185730	0.762870	0.890670
C171	C17	0.249760	0.837270	0.857270
H61	H6	0.273430	0.847670	0.901370
C181	C18	0.256280	0.865200	0.786870
O111	O11	0.337990	0.942480	0.805480
O121	O12	0.292400	0.934210	0.689030
O131	O13	0.126040	0.768950	0.659890
O141	O14	0.094520	0.715340	0.770640
O151	O15	0.213180	0.837310	0.736100
C191	C19	0.749010	0.713190	0.089900
C201	C20	0.911780	0.707440	0.067500
C211	C21	0.875700	0.721960	0.109900
C221	C22	0.876810	0.744310	0.184700
H71	H7	0.903800	0.756200	0.224000
C231	C23	0.829400	0.745830	0.190600
H81	H8	0.819000	0.759100	0.234700
C241	C24	0.801470	0.724420	0.120200
O161	O16	0.724190	0.728850	0.138810
O171	O17	0.732460	0.691530	0.022360
O181	O18	0.897720	0.690430	0.993220
O191	O19	0.951330	0.712520	0.103970
O201	O20	0.829360	0.709210	0.069430
C251	C25	0.415680	0.046520	0.423230
C261	C26	0.578450	0.040770	0.400830
C271	C27	0.542370	0.055290	0.443230
C281	C28	0.543480	0.077640	0.518030
H91	H9	0.570470	0.089530	0.557330
C291	C29	0.496070	0.079160	0.523930
H101	H10	0.485670	0.092430	0.568030
C301	C30	0.468140	0.057750	0.453530
O211	O21	0.390860	0.062180	0.472140
O221	O22	0.399130	0.024860	0.355690
O231	O23	0.564390	0.023760	0.326550
O241	O24	0.618000	0.045850	0.437300
O251	O25	0.496030	0.042540	0.402760
C311	C31	0.082340	0.379860	0.756570
C321	C32	0.245110	0.374110	0.734170
C331	C33	0.209030	0.388630	0.776570
C341	C34	0.210140	0.410980	0.851370
H111	H11	0.237130	0.422870	0.890670
C351	C35	0.162730	0.412500	0.857270
H121	H12	0.152330	0.425770	0.901370
C361	C36	0.134800	0.391090	0.786870
O261	O26	0.057520	0.395520	0.805480
O271	O27	0.065790	0.358200	0.689030
O281	O28	0.231050	0.357100	0.659890
O291	O29	0.284660	0.379190	0.770640
O301	O30	0.162690	0.375880	0.736100
C371	C37	0.286810	0.035820	0.089900
C381	C38	0.292560	0.204340	0.067500
C391	C39	0.278040	0.153740	0.109900
C401	C40	0.255690	0.132500	0.184700
H131	H13	0.243800	0.147600	0.224000
C411	C41	0.254170	0.083570	0.190600
H141	H14	0.240900	0.059900	0.234700
C421	C42	0.275580	0.077050	0.120200
O311	O31	0.271150	0.995340	0.138810
O321	O32	0.308470	0.040930	0.022360
O331	O33	0.309570	0.207290	0.993220
O341	O34	0.287480	0.238810	0.103970
O351	O35	0.290790	0.120150	0.069430
C431	C43	0.953480	0.369150	0.423230
C441	C44	0.959230	0.537670	0.400830
C451	C45	0.944710	0.487070	0.443230
C461	C46	0.922360	0.465830	0.518030
H151	H15	0.910470	0.480930	0.557330
C471	C47	0.920840	0.416900	0.523930
H161	H16	0.907570	0.393230	0.568030
C481	C48	0.942250	0.410380	0.453530
O361	O36	0.937820	0.328670	0.472140
O371	O37	0.975140	0.374260	0.355690
O381	O38	0.976240	0.540620	0.326550
O391	O39	0.954150	0.572140	0.437300
O401	O40	0.957460	0.453480	0.402760
C491	C49	0.620140	0.702490	0.756570
C501	C50	0.625890	0.871010	0.734170
C511	C51	0.611370	0.820410	0.776570
C521	C52	0.589020	0.799170	0.851370
H171	H17	0.577130	0.814270	0.890670
C531	C53	0.587500	0.750240	0.857270
H181	H18	0.574230	0.726570	0.901370
C541	C54	0.608910	0.743720	0.786870
O411	O41	0.604480	0.662010	0.805480
O421	O42	0.641800	0.707600	0.689030
O431	O43	0.642900	0.873960	0.659890
O441	O44	0.620810	0.905480	0.770640
O451	O45	0.624120	0.786820	0.736100
C551	C55	0.250990	0.964180	0.410100
C561	C56	0.088220	0.795660	0.432500
C571	C57	0.124300	0.846260	0.390100
C581	C58	0.123190	0.867500	0.315300
H191	H19	0.096200	0.852400	0.276000
C591	C59	0.170600	0.916430	0.309400
H201	H20	0.181000	0.940100	0.265300
C601	C60	0.198530	0.922950	0.379800
O461	O46	0.275810	0.004660	0.361190
O471	O47	0.267540	0.959070	0.477640
O481	O48	0.102280	0.792710	0.506780
O491	O49	0.048670	0.761190	0.396030
O501	O50	0.170640	0.879850	0.430570
C611	C61	0.917660	0.297510	0.743430
C621	C62	0.754890	0.128990	0.765830
C631	C63	0.790970	0.179590	0.723430
C641	C64	0.789860	0.200830	0.648630
H211	H21	0.762870	0.185730	0.609330
C651	C65	0.837270	0.249760	0.642730
H221	H22	0.847670	0.273430	0.598630
C661	C66	0.865200	0.256280	0.713130
O511	O51	0.942480	0.337990	0.694520
O521	O52	0.934210	0.292400	0.810970
O531	O53	0.768950	0.126040	0.840110
O541	O54	0.715340	0.094520	0.729360
O551	O55	0.837310	0.213180	0.763900
C671	C67	0.584320	0.630850	0.076770
C681	C68	0.421550	0.462330	0.099170
C691	C69	0.457630	0.512930	0.056770
C701	C70	0.456520	0.534170	0.981970
H231	H23	0.429530	0.519070	0.942670
C711	C71	0.503930	0.583100	0.976070
H241	H24	0.514330	0.606770	0.931970
C721	C72	0.531860	0.589620	0.046470
O561	O56	0.609140	0.671330	0.027860
O571	O57	0.600870	0.625740	0.144310
O581	O58	0.435610	0.459380	0.173450
O591	O59	0.382000	0.427860	0.062700
O601	O60	0.503970	0.546520	0.097240
C731	C73	0.713190	0.749010	0.410100
C741	C74	0.707440	0.911780	0.432500
C751	C75	0.721960	0.875700	0.390100
C761	C76	0.744310	0.876810	0.315300
H251	H25	0.756200	0.903800	0.276000
C771	C77	0.745830	0.829400	0.309400
H261	H26	0.759100	0.819000	0.265300
C781	C78	0.724420	0.801470	0.379800
O611	O61	0.728850	0.724190	0.361190
O621	O62	0.691530	0.732460	0.477640
O631	O63	0.690430	0.897720	0.506780
O641	O64	0.712520	0.951330	0.396030
O651	O65	0.709210	0.829360	0.430570
C791	C79	0.379860	0.082340	0.743430
C801	C80	0.374110	0.245110	0.765830
C811	C81	0.388630	0.209030	0.723430
C821	C82	0.410980	0.210140	0.648630
H271	H27	0.422870	0.237130	0.609330
C831	C83	0.412500	0.162730	0.642730
H281	H28	0.425770	0.152330	0.598630
C841	C84	0.391090	0.134800	0.713130
O661	O66	0.395520	0.057520	0.694520
O671	O67	0.358200	0.065790	0.810970
O681	O68	0.357100	0.231050	0.840110
O691	O69	0.379190	0.284660	0.729360
O701	O70	0.375880	0.162690	0.763900
C851	C85	0.046520	0.415680	0.076770
C861	C86	0.040770	0.578450	0.099170
C871	C87	0.055290	0.542370	0.056770
C881	C88	0.077640	0.543480	0.981970
H291	H29	0.089530	0.570470	0.942670
C891	C89	0.079160	0.496070	0.976070
H301	H30	0.092430	0.485670	0.931970
C901	C90	0.057750	0.468140	0.046470
O711	O71	0.062180	0.390860	0.027860
O721	O72	0.024860	0.399130	0.144310
O731	O73	0.023760	0.564390	0.173450
O741	O74	0.045850	0.618000	0.062700
O751	O75	0.042540	0.496030	0.097240
C911	C91	0.035820	0.286810	0.410100
C921	C92	0.204340	0.292560	0.432500
C931	C93	0.153740	0.278040	0.390100
C941	C94	0.132500	0.255690	0.315300
H311	H31	0.147600	0.243800	0.276000
C951	C95	0.083570	0.254170	0.309400
H321	H32	0.059900	0.240900	0.265300
C961	C96	0.077050	0.275580	0.379800
O761	O76	0.995340	0.271150	0.361190
O771	O77	0.040930	0.308470	0.477640
O781	O78	0.207290	0.309570	0.506780
O791	O79	0.238810	0.287480	0.396030
O801	O80	0.120150	0.290790	0.430570
C971	C97	0.702490	0.620140	0.743430
C981	C98	0.871010	0.625890	0.765830
C991	C99	0.820410	0.611370	0.723430
C1001	C100	0.799170	0.589020	0.648630
H331	H33	0.814270	0.577130	0.609330
C1011	C101	0.750240	0.587500	0.642730
H341	H34	0.726570	0.574230	0.598630
C1021	C102	0.743720	0.608910	0.713130
O811	O81	0.662010	0.604480	0.694520
O821	O82	0.707600	0.641800	0.810970
O831	O83	0.873960	0.642900	0.840110
O841	O84	0.905480	0.620810	0.729360
O851	O85	0.786820	0.624120	0.763900
C1031	C103	0.369150	0.953480	0.076770
C1041	C104	0.537670	0.959230	0.099170
C1051	C105	0.487070	0.944710	0.056770
C1061	C106	0.465830	0.922360	0.981970
H351	H35	0.480930	0.910470	0.942670
C1071	C107	0.416900	0.920840	0.976070
H361	H36	0.393230	0.907570	0.931970
C1081	C108	0.410380	0.942250	0.046470
O861	O86	0.328670	0.937820	0.027860
O871	O87	0.374260	0.975140	0.144310
O881	O88	0.540620	0.976240	0.173450
O891	O89	0.572140	0.954150	0.062700
O901	O90	0.453480	0.957460	0.097240
C1091	C109	0.035820	0.749010	0.910100
C1101	C110	0.204340	0.911780	0.932500
C1111	C111	0.153740	0.875700	0.890100
C1121	C112	0.132500	0.876810	0.815300
H371	H37	0.147600	0.903800	0.776000
C1131	C113	0.083570	0.829400	0.809400
H381	H38	0.059900	0.819000	0.765300
C1141	C114	0.077050	0.801470	0.879800
O911	O91	0.995340	0.724190	0.861190
O921	O92	0.040930	0.732460	0.977640
O931	O93	0.207290	0.897720	0.006780
O941	O94	0.238810	0.951330	0.896030
O951	O95	0.120150	0.829360	0.930570
C1151	C115	0.702490	0.082340	0.243430
C1161	C116	0.871010	0.245110	0.265830
C1171	C117	0.820410	0.209030	0.223430
C1181	C118	0.799170	0.210140	0.148630
H391	H39	0.814270	0.237130	0.109330
C1191	C119	0.750240	0.162730	0.142730
H401	H40	0.726570	0.152330	0.098630
C1201	C120	0.743720	0.134800	0.213130
O961	O96	0.662010	0.057520	0.194520
O971	O97	0.707600	0.065790	0.310970
O981	O98	0.873960	0.231050	0.340110
O991	O99	0.905480	0.284660	0.229360
O1001	O100	0.786820	0.162690	0.263900
C1211	C121	0.369150	0.415680	0.576770
C1221	C122	0.537670	0.578450	0.599170
C1231	C123	0.487070	0.542370	0.556770
C1241	C124	0.465830	0.543480	0.481970
H411	H41	0.480930	0.570470	0.442670
C1251	C125	0.416900	0.496070	0.476070
H421	H42	0.393230	0.485670	0.431970
C1261	C126	0.410380	0.468140	0.546470
O1011	O101	0.328670	0.390860	0.527860
O1021	O102	0.374260	0.399130	0.644310
O1031	O103	0.540620	0.564390	0.673450
O1041	O104	0.572140	0.618000	0.562700
O1051	O105	0.453480	0.496030	0.597240
C1271	C127	0.250990	0.286810	0.910100
C1281	C128	0.088220	0.292560	0.932500
C1291	C129	0.124300	0.278040	0.890100
C1301	C130	0.123190	0.255690	0.815300
H431	H43	0.096200	0.243800	0.776000
C1311	C131	0.170600	0.254170	0.809400
H441	H44	0.181000	0.240900	0.765300
C1321	C132	0.198530	0.275580	0.879800
O1061	O106	0.275810	0.271150	0.861190
O1071	O107	0.267540	0.308470	0.977640
O1081	O108	0.102280	0.309570	0.006780
O1091	O109	0.048670	0.287480	0.896030
O1101	O110	0.170640	0.290790	0.930570
C1331	C133	0.917660	0.620140	0.243430
C1341	C134	0.754890	0.625890	0.265830
C1351	C135	0.790970	0.611370	0.223430
C1361	C136	0.789860	0.589020	0.148630
H451	H45	0.762870	0.577130	0.109330
C1371	C137	0.837270	0.587500	0.142730
H461	H46	0.847670	0.574230	0.098630
C1381	C138	0.865200	0.608910	0.213130
O1111	O111	0.942480	0.604480	0.194520
O1121	O112	0.934210	0.641800	0.310970
O1131	O113	0.768950	0.642900	0.340110
O1141	O114	0.715340	0.620810	0.229360
O1151	O115	0.837310	0.624120	0.263900
C1391	C139	0.584320	0.953480	0.576770
C1401	C140	0.421550	0.959230	0.599170
C1411	C141	0.457630	0.944710	0.556770
C1421	C142	0.456520	0.922360	0.481970
H471	H47	0.429530	0.910470	0.442670
C1431	C143	0.503930	0.920840	0.476070
H481	H48	0.514330	0.907570	0.431970
C1441	C144	0.531860	0.942250	0.546470
O1161	O116	0.609140	0.937820	0.527860
O1171	O117	0.600870	0.975140	0.644310
O1181	O118	0.435610	0.976240	0.673450
O1191	O119	0.382000	0.954150	0.562700
O1201	O120	0.503970	0.957460	0.597240
C1451	C145	0.713190	0.964180	0.910100
C1461	C146	0.707440	0.795660	0.932500
C1471	C147	0.721960	0.846260	0.890100
C1481	C148	0.744310	0.867500	0.815300
H491	H49	0.756200	0.852400	0.776000
C1491	C149	0.745830	0.916430	0.809400
H501	H50	0.759100	0.940100	0.765300
C1501	C150	0.724420	0.922950	0.879800
O1211	O121	0.728850	0.004660	0.861190
O1221	O122	0.691530	0.959070	0.977640
O1231	O123	0.690430	0.792710	0.006780
O1241	O124	0.712520	0.761190	0.896030
O1251	O125	0.709210	0.879850	0.930570
C1511	C151	0.379860	0.297510	0.243430
C1521	C152	0.374110	0.128990	0.265830
C1531	C153	0.388630	0.179590	0.223430
C1541	C154	0.410980	0.200830	0.148630
H511	H51	0.422870	0.185730	0.109330
C1551	C155	0.412500	0.249760	0.142730
H521	H52	0.425770	0.273430	0.098630
C1561	C156	0.391090	0.256280	0.213130
O1261	O126	0.395520	0.337990	0.194520
O1271	O127	0.358200	0.292400	0.310970
O1281	O128	0.357100	0.126040	0.340110
O1291	O129	0.379190	0.094520	0.229360
O1301	O130	0.375880	0.213180	0.263900
C1571	C157	0.046520	0.630850	0.576770
C1581	C158	0.040770	0.462330	0.599170
C1591	C159	0.055290	0.512930	0.556770
C1601	C160	0.077640	0.534170	0.481970
H531	H53	0.089530	0.519070	0.442670
C1611	C161	0.079160	0.583100	0.476070
H541	H54	0.092430	0.606770	0.431970
C1621	C162	0.057750	0.589620	0.546470
O1311	O131	0.062180	0.671330	0.527860
O1321	O132	0.024860	0.625740	0.644310
O1331	O133	0.023760	0.459380	0.673450
O1341	O134	0.045850	0.427860	0.562700
O1351	O135	0.042540	0.546520	0.597240
C1631	C163	0.749010	0.035820	0.589900
C1641	C164	0.911780	0.204340	0.567500
C1651	C165	0.875700	0.153740	0.609900
C1661	C166	0.876810	0.132500	0.684700
H551	H55	0.903800	0.147600	0.724000
C1671	C167	0.829400	0.083570	0.690600
H561	H56	0.819000	0.059900	0.734700
C1681	C168	0.801470	0.077050	0.620200
O1361	O136	0.724190	0.995340	0.638810
O1371	O137	0.732460	0.040930	0.522360
O1381	O138	0.897720	0.207290	0.493220
O1391	O139	0.951330	0.238810	0.603970
O1401	O140	0.829360	0.120150	0.569430
C1691	C169	0.415680	0.369150	0.923230
C1701	C170	0.578450	0.537670	0.900830
C1711	C171	0.542370	0.487070	0.943230
C1721	C172	0.543480	0.465830	0.018030
H571	H57	0.570470	0.480930	0.057330
C1731	C173	0.496070	0.416900	0.023930
H581	H58	0.485670	0.393230	0.068030
C1741	C174	0.468140	0.410380	0.953530
O1411	O141	0.390860	0.328670	0.972140
O1421	O142	0.399130	0.374260	0.855690
O1431	O143	0.564390	0.540620	0.826550
O1441	O144	0.618000	0.572140	0.937300
O1451	O145	0.496030	0.453480	0.902760
C1751	C175	0.082340	0.702490	0.256570
C1761	C176	0.245110	0.871010	0.234170
C1771	C177	0.209030	0.820410	0.276570
C1781	C178	0.210140	0.799170	0.351370
H591	H59	0.237130	0.814270	0.390670
C1791	C179	0.162730	0.750240	0.357270
H601	H60	0.152330	0.726570	0.401370
C1801	C180	0.134800	0.743720	0.286870
O1461	O146	0.057520	0.662010	0.305480
O1471	O147	0.065790	0.707600	0.189030
O1481	O148	0.231050	0.873960	0.159890
O1491	O149	0.284660	0.905480	0.270640
O1501	O150	0.162690	0.786820	0.236100
C1811	C181	0.286810	0.250990	0.589900
C1821	C182	0.292560	0.088220	0.567500
C1831	C183	0.278040	0.124300	0.609900
C1841	C184	0.255690	0.123190	0.684700
H611	H61	0.243800	0.096200	0.724000
C1851	C185	0.254170	0.170600	0.690600
H621	H62	0.240900	0.181000	0.734700
C1861	C186	0.275580	0.198530	0.620200
O1511	O151	0.271150	0.275810	0.638810
O1521	O152	0.308470	0.267540	0.522360
O1531	O153	0.309570	0.102280	0.493220
O1541	O154	0.287480	0.048670	0.603970
O1551	O155	0.290790	0.170640	0.569430
C1871	C187	0.953480	0.584320	0.923230
C1881	C188	0.959230	0.421550	0.900830
C1891	C189	0.944710	0.457630	0.943230
C1901	C190	0.922360	0.456520	0.018030
H631	H63	0.910470	0.429530	0.057330
C1911	C191	0.920840	0.503930	0.023930
H641	H64	0.907570	0.514330	0.068030
C1921	C192	0.942250	0.531860	0.953530
O1561	O156	0.937820	0.609140	0.972140
O1571	O157	0.975140	0.600870	0.855690
O1581	O158	0.976240	0.435610	0.826550
O1591	O159	0.954150	0.382000	0.937300
O1601	O160	0.957460	0.503970	0.902760
C1931	C193	0.620140	0.917660	0.256570
C1941	C194	0.625890	0.754890	0.234170
C1951	C195	0.611370	0.790970	0.276570
C1961	C196	0.589020	0.789860	0.351370
H651	H65	0.577130	0.762870	0.390670
C1971	C197	0.587500	0.837270	0.357270
H661	H66	0.574230	0.847670	0.401370
C1981	C198	0.608910	0.865200	0.286870
O1611	O161	0.604480	0.942480	0.305480
O1621	O162	0.641800	0.934210	0.189030
O1631	O163	0.642900	0.768950	0.159890
O1641	O164	0.620810	0.715340	0.270640
O1651	O165	0.624120	0.837310	0.236100
C1991	C199	0.964180	0.713190	0.589900
C2001	C200	0.795660	0.707440	0.567500
C2011	C201	0.846260	0.721960	0.609900
C2021	C202	0.867500	0.744310	0.684700
H671	H67	0.852400	0.756200	0.724000
C2031	C203	0.916430	0.745830	0.690600
H681	H68	0.940100	0.759100	0.734700
C2041	C204	0.922950	0.724420	0.620200
O1661	O166	0.004660	0.728850	0.638810
O1671	O167	0.959070	0.691530	0.522360
O1681	O168	0.792710	0.690430	0.493220
O1691	O169	0.761190	0.712520	0.603970
O1701	O170	0.879850	0.709210	0.569430
C2051	C205	0.630850	0.046520	0.923230
C2061	C206	0.462330	0.040770	0.900830
C2071	C207	0.512930	0.055290	0.943230
C2081	C208	0.534170	0.077640	0.018030
H691	H69	0.519070	0.089530	0.057330
C2091	C209	0.583100	0.079160	0.023930
H701	H70	0.606770	0.092430	0.068030
C2101	C210	0.589620	0.057750	0.953530
O1711	O171	0.671330	0.062180	0.972140
O1721	O172	0.625740	0.024860	0.855690
O1731	O173	0.459380	0.023760	0.826550
O1741	O174	0.427860	0.045850	0.937300
O1751	O175	0.546520	0.042540	0.902760
C2111	C211	0.297510	0.379860	0.256570
C2121	C212	0.128990	0.374110	0.234170
C2131	C213	0.179590	0.388630	0.276570
C2141	C214	0.200830	0.410980	0.351370
H711	H71	0.185730	0.422870	0.390670
C2151	C215	0.249760	0.412500	0.357270
H721	H72	0.273430	0.425770	0.401370
C2161	C216	0.256280	0.391090	0.286870
O1761	O176	0.337990	0.395520	0.305480
O1771	O177	0.292400	0.358200	0.189030
O1781	O178	0.126040	0.357100	0.159890
O1791	O179	0.094520	0.379190	0.270640
O1801	O180	0.213180	0.375880	0.236100
Na11	Na1	0.998360	0.331690	0.916670
Na21	Na2	0.854260	0.187600	0.916670
Na31	Na3	0.665020	0.665020	0.250000
Na41	Na4	0.520930	0.520930	0.250000
Na51	Na5	0.668310	0.666670	0.916670
Na61	Na6	0.812400	0.666670	0.916670
Na71	Na7	0.334980	0.000000	0.250000
Na81	Na8	0.479070	0.000000	0.250000
Na91	Na9	0.333330	0.001640	0.916670
Na101	Na10	0.333330	0.145740	0.916670
Na111	Na11	0.000000	0.334980	0.250000
Na121	Na12	0.000000	0.479070	0.250000
Na131	Na13	0.331690	0.998360	0.583330
Na141	Na14	0.187600	0.854260	0.583330
Na151	Na15	0.666670	0.668310	0.583330
Na161	Na16	0.666670	0.812400	0.583330
Na171	Na17	0.001640	0.333330	0.583330
Na181	Na18	0.145740	0.333330	0.583330
Na191	Na19	0.001640	0.668310	0.083330
Na201	Na20	0.145740	0.812400	0.083330
Na211	Na21	0.331690	0.333330	0.083330
Na221	Na22	0.187600	0.333330	0.083330
Na231	Na23	0.666670	0.998360	0.083330
Na241	Na24	0.666670	0.854260	0.083330
Na251	Na25	0.668310	0.001640	0.416670
Na261	Na26	0.812400	0.145740	0.416670
Na271	Na27	0.334980	0.334980	0.750000
Na281	Na28	0.479070	0.479070	0.750000
Na291	Na29	0.333330	0.331690	0.416670
Na301	Na30	0.333330	0.187600	0.416670
Na311	Na31	0.000000	0.665020	0.750000
Na321	Na32	0.000000	0.520930	0.750000
Na331	Na33	0.998360	0.666670	0.416670
Na341	Na34	0.854260	0.666670	0.416670
Na351	Na35	0.665020	0.000000	0.750000
Na361	Na36	0.520930	0.000000	0.750000
Zn11	Zn1	0.066480	0.333330	0.083330
Zn21	Zn2	0.666670	0.733140	0.083330
Zn31	Zn3	0.333330	0.066480	0.416670
Zn41	Zn4	0.266860	0.933520	0.083330
Zn51	Zn5	0.600190	0.600190	0.750000
Zn61	Zn6	0.000000	0.399810	0.750000
Zn71	Zn7	0.733140	0.666670	0.416670
Zn81	Zn8	0.399810	0.000000	0.750000
Zn91	Zn9	0.933520	0.266860	0.416670
Zn101	Zn10	0.933520	0.666670	0.916670
Zn111	Zn11	0.600190	0.000000	0.250000
Zn121	Zn12	0.266860	0.333330	0.583330
Zn131	Zn13	0.333330	0.266860	0.916670
Zn141	Zn14	0.000000	0.600190	0.250000
Zn151	Zn15	0.733140	0.066480	0.916670
Zn161	Zn16	0.399810	0.399810	0.250000
Zn171	Zn17	0.666670	0.933520	0.583330
Zn181	Zn18	0.066480	0.733140	0.583330
