data_SUGDIJ_auto_PM
_symmetry_space_group_name_H-M	'P1'
_cell_length_a	24.360000
_cell_length_b	24.360000
_cell_length_c	16.909000
_cell_angle_alpha	90.000000
_cell_angle_beta	90.000000
_cell_angle_gamma	90.000000
_symmetry_Int_Tables_number 1

loop_
_symmetry_equiv_pos_as_xyz
'x,y,z'

loop_
_atom_site_label
_atom_site_type_symbol
_atom_site_fract_x
_atom_site_fract_y
_atom_site_fract_z
C11	C1	0.340690	0.210810	0.984690
C21	C2	0.360420	0.232810	0.912970
C31	C3	0.399960	0.275080	0.912830
C41	C4	0.419290	0.295240	0.985750
C51	C5	0.399870	0.274250	0.058140
C61	C6	0.360740	0.231650	0.056960
H71	H7	0.345970	0.216100	0.857350
H81	H8	0.449960	0.327490	0.986190
H91	H9	0.346370	0.214230	0.112170
C101	C10	0.800510	0.670300	0.985170
C111	C11	0.779130	0.650100	0.913030
C121	C12	0.741770	0.606050	0.911860
C131	C13	0.723870	0.583560	0.984050
C141	C14	0.744450	0.602720	0.056740
C151	C15	0.783190	0.645580	0.056630
H161	H16	0.792420	0.667840	0.857490
H171	H17	0.694280	0.550320	0.983560
H181	H18	0.800640	0.658890	0.112340
C191	C19	0.313190	0.711470	0.484760
C201	C20	0.291870	0.731980	0.413010
C211	C21	0.248670	0.770430	0.412910
C221	C22	0.228080	0.789390	0.485870
C231	C23	0.248830	0.769560	0.558230
C241	C24	0.291540	0.730620	0.557050
H251	H25	0.307780	0.716730	0.357340
H261	H26	0.195050	0.819210	0.486330
H271	H27	0.307330	0.714520	0.612290
C281	C28	0.848750	0.166250	0.484500
C291	C29	0.868410	0.143920	0.556340
C301	C30	0.909390	0.103150	0.556720
C311	C31	0.930940	0.084800	0.484160
C321	C32	0.912340	0.106510	0.411870
C331	C33	0.872670	0.148450	0.412720
H341	H34	0.850580	0.156850	0.611990
H351	H35	0.961770	0.052710	0.483860
H361	H36	0.858980	0.165770	0.357100
Zn371	Zn37	0.062680	0.009970	0.983360
Zn381	Zn38	0.152010	0.922210	0.985540
Zn391	Zn39	0.045200	0.904400	0.072510
Zn401	Zn40	0.046080	0.902520	0.897940
O411	O41	0.076840	0.935080	0.984840
O421	O42	0.125620	0.049690	0.981920
O431	O43	0.174090	0.884220	0.073920
O441	O44	0.013200	0.954500	0.134290
O451	O45	0.190760	0.986170	0.985680
O461	O46	0.024930	0.033240	0.071270
O471	O47	0.094630	0.870940	0.134700
O481	O48	0.994970	0.850960	0.920580
O491	O49	0.175140	0.883780	0.897790
O501	O50	0.992310	0.854380	0.051010
O511	O51	0.096040	0.869670	0.836660
O521	O52	0.012700	0.951280	0.834870
O531	O53	0.023940	0.031070	0.895430
C541	C54	0.176220	0.036460	0.983620
C551	C55	0.146490	0.865190	0.132020
C561	C56	0.006900	0.006180	0.130460
C571	C57	0.974940	0.834880	0.985960
C581	C58	0.147860	0.864300	0.839660
C591	C59	0.005750	0.002960	0.837340
Zn601	Zn60	0.591720	0.509970	0.483410
Zn611	Zn61	0.501400	0.423530	0.485580
Zn621	Zn62	0.606850	0.402420	0.397770
Zn631	Zn63	0.607860	0.404160	0.572690
O641	O64	0.576660	0.435300	0.484890
O651	O65	0.529370	0.550590	0.481950
O661	O66	0.477680	0.385600	0.398010
O671	O67	0.641160	0.450720	0.334910
O681	O68	0.463440	0.487930	0.485850
O691	O69	0.630680	0.530570	0.395590
O701	O70	0.556280	0.370710	0.336020
O711	O71	0.659750	0.353040	0.550980
O721	O72	0.478830	0.385940	0.573700
O731	O73	0.656840	0.349820	0.420490
O741	O74	0.557790	0.371780	0.635370
O751	O75	0.640830	0.453880	0.634270
O761	O76	0.629760	0.532710	0.571200
C771	C77	0.478610	0.538020	0.483730
C781	C78	0.504380	0.366160	0.339340
C791	C79	0.648620	0.502330	0.337500
C801	C80	0.676550	0.333190	0.485810
C811	C81	0.505840	0.366880	0.632310
C821	C82	0.647610	0.505500	0.630350
C831	C83	0.718430	0.247190	0.430350
C841	C84	0.719830	0.290040	0.485790
C851	C85	0.762610	0.291060	0.541330
C861	C86	0.804010	0.251040	0.539970
C871	C87	0.802990	0.207700	0.484730
C881	C88	0.758190	0.205160	0.430870
N891	N89	0.750310	0.158950	0.379550
H901	H90	0.684800	0.245090	0.388490
H911	H91	0.837380	0.254350	0.582010
H921	H92	0.720220	0.159910	0.335570
H931	H93	0.769850	0.121490	0.389630
C941	C94	0.947120	0.002580	0.250930
C951	C95	0.978620	0.034030	0.197890
C961	C96	0.984630	0.090490	0.212930
C971	C97	0.961700	0.114230	0.281310
C981	C98	0.931910	0.082190	0.335760
C991	C99	0.923180	0.026050	0.318470
N1001	N100	0.889070	0.992440	0.367780
H1011	H101	0.940740	0.959260	0.239710
H1021	H102	0.968560	0.157410	0.292960
H1031	H103	0.886160	0.950200	0.358030
H1041	H104	0.863000	0.009560	0.410020
C1051	C105	0.949560	0.997390	0.713050
C1061	C106	0.976860	0.029890	0.769550
C1071	C107	0.977970	0.087060	0.758110
C1081	C108	0.954320	0.110720	0.690250
C1091	C109	0.928770	0.077910	0.632400
C1101	C110	0.925090	0.020670	0.645670
N1111	N111	0.895630	0.985610	0.592420
H1121	H112	0.947010	0.953350	0.721240
H1131	H113	0.957480	0.154670	0.681640
H1141	H114	0.896430	0.943020	0.599530
H1151	H115	0.869380	0.001530	0.549460
C1161	C116	0.342290	0.614050	0.504860
C1171	C117	0.356480	0.668110	0.484230
C1181	C118	0.411520	0.679560	0.463130
C1191	C119	0.450830	0.637020	0.463390
C1201	C120	0.436450	0.582760	0.483510
C1211	C121	0.381550	0.571890	0.503950
H1221	H122	0.300390	0.604360	0.521170
H1231	H123	0.492850	0.646470	0.447400
N1241	N124	0.428470	0.734100	0.442600
H1251	H125	0.401400	0.767280	0.444310
H1261	H126	0.469070	0.742060	0.426370
C1271	C127	0.256250	0.817000	0.690290
C1281	C128	0.224050	0.788540	0.634530
C1291	C129	0.167470	0.781380	0.650380
C1301	C130	0.143960	0.805380	0.717950
C1311	C131	0.175650	0.835660	0.772270
C1321	C132	0.232410	0.840160	0.758480
H1331	H133	0.299710	0.822820	0.679720
H1341	H134	0.100350	0.800170	0.728000
N1351	N135	0.133380	0.748900	0.599510
H1361	H136	0.150150	0.723040	0.556720
H1371	H137	0.090990	0.747080	0.608370
C1381	C138	0.142570	0.807520	0.255140
C1391	C139	0.174220	0.836830	0.199750
C1401	C140	0.231180	0.840530	0.212420
C1411	C141	0.255330	0.817420	0.280390
C1421	C142	0.223270	0.789770	0.337140
C1431	C143	0.166390	0.783470	0.322490
N1441	N144	0.132300	0.751630	0.374190
H1451	H145	0.098790	0.802950	0.245980
H1461	H146	0.299000	0.822560	0.289920
H1471	H147	0.089790	0.750590	0.366350
H1481	H148	0.149090	0.725300	0.416360
C1491	C149	0.699960	0.610010	0.190490
C1501	C150	0.725430	0.577260	0.132490
C1511	C151	0.729270	0.520010	0.145780
C1521	C152	0.704880	0.496680	0.213220
C1531	C153	0.677620	0.529170	0.269770
C1541	C154	0.676470	0.586330	0.258380
H1551	H155	0.696680	0.653960	0.181920
H1561	H156	0.707460	0.452650	0.221430
N1571	N157	0.758870	0.485030	0.092600
H1581	H158	0.785300	0.501020	0.049940
H1591	H159	0.758090	0.442440	0.099630
C1601	C160	0.693320	0.613590	0.780650
C1611	C161	0.722700	0.581540	0.835550
C1621	C162	0.731130	0.525270	0.818640
C1631	C163	0.707190	0.501750	0.751100
C1641	C164	0.676060	0.533250	0.697690
C1651	C165	0.670450	0.589800	0.712300
H1661	H166	0.686620	0.656830	0.791980
H1671	H167	0.713270	0.458340	0.740170
N1681	N168	0.764950	0.491600	0.868250
H1691	H169	0.791220	0.508710	0.910230
H1701	H170	0.767520	0.449300	0.858870
C1711	C171	0.843420	0.758660	0.040440
C1721	C172	0.843540	0.714590	0.985290
C1731	C173	0.886880	0.711930	0.930110
C1741	C174	0.928990	0.751150	0.929720
C1751	C175	0.930200	0.793250	0.986250
C1761	C176	0.887440	0.796250	0.041800
N1771	N177	0.797870	0.767940	0.092480
H1781	H178	0.961420	0.747810	0.886170
C1791	C179	0.418040	0.339950	0.263660
C1801	C180	0.475570	0.338970	0.271550
C1811	C181	0.506500	0.314410	0.210840
C1821	C182	0.481130	0.292840	0.143520
C1831	C183	0.423890	0.294920	0.134070
C1841	C184	0.391930	0.318620	0.195470
N1851	N185	0.333540	0.324070	0.188200
H1861	H186	0.393360	0.359070	0.309280
H1871	H187	0.506580	0.274840	0.097800
H1881	H188	0.310340	0.340130	0.234690
H1891	H189	0.312890	0.314680	0.135900
C1901	C190	0.419380	0.340530	0.707360
C1911	C191	0.476980	0.339930	0.700290
C1921	C192	0.507660	0.316040	0.761770
C1931	C193	0.481900	0.294540	0.828890
C1941	C194	0.424530	0.296140	0.837410
C1951	C195	0.392900	0.319390	0.775330
N1961	N196	0.334430	0.324610	0.781660
H1971	H197	0.394880	0.359210	0.661170
H1981	H198	0.507140	0.276880	0.875120
H1991	H199	0.311470	0.340090	0.734500
H2001	H200	0.313490	0.315910	0.833970
C2011	C201	0.244830	0.176840	0.965070
C2021	C202	0.299740	0.165260	0.984080
C2031	C203	0.314440	0.110490	0.002450
C2041	C204	0.274120	0.068880	0.001590
C2051	C205	0.218950	0.080680	0.983380
C2061	C206	0.204930	0.135300	0.965230
H2071	H207	0.232700	0.218450	0.950700
H2081	H208	0.285990	0.027170	0.015750
N2091	N209	0.370070	0.096160	0.020990
H2101	H210	0.401710	0.125020	0.019600
H2111	H211	0.380430	0.055760	0.035310
H2121	H212	0.764790	0.323710	0.584700
H2131	H213	0.998570	0.113360	0.800350
H2141	H214	0.368950	0.530750	0.520060
H2151	H215	0.258080	0.863130	0.798950
H2161	H216	0.256860	0.862750	0.171100
H2171	H217	0.646750	0.615260	0.672430
H2181	H218	0.888690	0.678840	0.887440
H2191	H219	0.550840	0.312570	0.214550
H2201	H220	0.655890	0.612620	0.300670
H2211	H221	0.887040	0.829490	0.084380
H2221	H222	0.008610	0.115900	0.173340
H2231	H223	0.552040	0.314570	0.758710
H2241	H224	0.162990	0.145990	0.950640
H2251	H225	0.759730	0.749630	0.082910
H2261	H226	0.800270	0.797620	0.136930
