data_SUJRIZ_clean_PM
_symmetry_space_group_name_H-M	'P1'
_cell_length_a	13.570700
_cell_length_b	15.006000
_cell_length_c	20.074000
_cell_angle_alpha	90.000000
_cell_angle_beta	90.000000
_cell_angle_gamma	90.000000
_symmetry_Int_Tables_number 1

loop_
_symmetry_equiv_pos_as_xyz
'x,y,z'

loop_
_atom_site_label
_atom_site_type_symbol
_atom_site_fract_x
_atom_site_fract_y
_atom_site_fract_z
Zn11	Zn1	0.497520	0.609740	0.564870
O11	O1	0.504800	0.638300	0.663200
O21	O2	0.493200	0.767700	0.611600
O31	O3	0.487300	0.841300	0.972100
O41	O4	0.495200	0.975000	0.924300
N11	N1	0.658500	0.611800	0.555100
N21	N2	0.335300	0.600500	0.570700
C11	C1	0.715600	0.564600	0.596800
H11	H1	0.687000	0.539600	0.634500
C21	C2	0.816400	0.551300	0.585900
H21	H2	0.853600	0.518500	0.616100
C31	C3	0.859900	0.587300	0.530100
C41	C4	0.802800	0.643000	0.490600
H31	H3	0.830700	0.673600	0.455000
C51	C5	0.703700	0.652100	0.505100
H41	H4	0.666200	0.689000	0.477800
C61	C6	0.961200	0.564700	0.503900
H51	H5	0.991600	0.617800	0.484100
C71	C7	0.279600	0.631300	0.521200
H61	H6	0.309000	0.667600	0.489300
C81	C8	0.181000	0.612300	0.514700
H71	H7	0.144900	0.636300	0.479700
C91	C9	0.135800	0.556900	0.560900
C101	C10	0.192400	0.531300	0.615500
H81	H8	0.163800	0.499500	0.650200
C111	C11	0.291500	0.553500	0.618000
H91	H9	0.328600	0.534600	0.654300
C121	C12	0.037300	0.515300	0.548300
H101	H10	0.006900	0.496400	0.590200
C131	C13	0.499300	0.721500	0.663300
C141	C14	0.497600	0.767500	0.730800
C151	C15	0.500500	0.716600	0.787900
H111	H11	0.503700	0.654900	0.784800
C161	C16	0.498700	0.757000	0.849700
H121	H12	0.500800	0.722500	0.888100
C171	C17	0.493800	0.849400	0.854400
C181	C18	0.491800	0.901700	0.796300
H131	H13	0.489200	0.963600	0.798900
C191	C19	0.493800	0.859300	0.735100
H141	H14	0.492600	0.893200	0.696300
C201	C20	0.491700	0.893600	0.921700
Zn21	Zn2	0.502480	0.109740	0.935130
O51	O5	0.495200	0.138300	0.836800
O61	O6	0.506800	0.267700	0.888400
O71	O7	0.512700	0.341300	0.527900
O81	O8	0.504800	0.475000	0.575700
N31	N3	0.341500	0.111800	0.944900
N41	N4	0.664700	0.100500	0.929300
C211	C21	0.284400	0.064600	0.903200
H151	H15	0.313000	0.039600	0.865500
C221	C22	0.183600	0.051300	0.914100
H161	H16	0.146400	0.018500	0.883900
C231	C23	0.140100	0.087300	0.969900
C241	C24	0.197200	0.143000	0.009400
H171	H17	0.169300	0.173600	0.045000
C251	C25	0.296300	0.152100	0.994900
H181	H18	0.333800	0.189000	0.022200
C261	C26	0.038800	0.064700	0.996100
H191	H19	0.008400	0.117800	0.015900
C271	C27	0.720400	0.131300	0.978800
H201	H20	0.691000	0.167600	0.010700
C281	C28	0.819000	0.112300	0.985300
H211	H21	0.855100	0.136300	0.020300
C291	C29	0.864200	0.056900	0.939100
C301	C30	0.807600	0.031300	0.884500
H221	H22	0.836200	0.999500	0.849800
C311	C31	0.708500	0.053500	0.882000
H231	H23	0.671400	0.034600	0.845700
C321	C32	0.962700	0.015300	0.951700
H241	H24	0.993100	0.996400	0.909800
C331	C33	0.500700	0.221500	0.836700
C341	C34	0.502400	0.267500	0.769200
C351	C35	0.499500	0.216600	0.712100
H251	H25	0.496300	0.154900	0.715200
C361	C36	0.501300	0.257000	0.650300
H261	H26	0.499200	0.222500	0.611900
C371	C37	0.506200	0.349400	0.645600
C381	C38	0.508200	0.401700	0.703700
H271	H27	0.510800	0.463600	0.701100
C391	C39	0.506200	0.359300	0.764900
H281	H28	0.507400	0.393200	0.803700
C401	C40	0.508300	0.393600	0.578300
Zn31	Zn3	0.502480	0.390260	0.435130
O91	O9	0.495200	0.361700	0.336800
O101	O10	0.506800	0.232300	0.388400
O111	O11	0.512700	0.158700	0.027900
O121	O12	0.504800	0.025000	0.075700
N51	N5	0.341500	0.388200	0.444900
N61	N6	0.664700	0.399500	0.429300
C411	C41	0.284400	0.435400	0.403200
H291	H29	0.313000	0.460400	0.365500
C421	C42	0.183600	0.448700	0.414100
H301	H30	0.146400	0.481500	0.383900
C431	C43	0.140100	0.412700	0.469900
C441	C44	0.197200	0.357000	0.509400
H311	H31	0.169300	0.326400	0.545000
C451	C45	0.296300	0.347900	0.494900
H321	H32	0.333800	0.311000	0.522200
C461	C46	0.038800	0.435300	0.496100
H331	H33	0.008400	0.382200	0.515900
C471	C47	0.720400	0.368700	0.478800
H341	H34	0.691000	0.332400	0.510700
C481	C48	0.819000	0.387700	0.485300
H351	H35	0.855100	0.363700	0.520300
C491	C49	0.864200	0.443100	0.439100
C501	C50	0.807600	0.468700	0.384500
H361	H36	0.836200	0.500500	0.349800
C511	C51	0.708500	0.446500	0.382000
H371	H37	0.671400	0.465400	0.345700
C521	C52	0.962700	0.484700	0.451700
H381	H38	0.993100	0.503600	0.409800
C531	C53	0.500700	0.278500	0.336700
C541	C54	0.502400	0.232500	0.269200
C551	C55	0.499500	0.283400	0.212100
H391	H39	0.496300	0.345100	0.215200
C561	C56	0.501300	0.243000	0.150300
H401	H40	0.499200	0.277500	0.111900
C571	C57	0.506200	0.150600	0.145600
C581	C58	0.508200	0.098300	0.203700
H411	H41	0.510800	0.036400	0.201100
C591	C59	0.506200	0.140700	0.264900
H421	H42	0.507400	0.106800	0.303700
C601	C60	0.508300	0.106400	0.078300
Zn41	Zn4	0.497520	0.890260	0.064870
O131	O13	0.504800	0.861700	0.163200
O141	O14	0.493200	0.732300	0.111600
O151	O15	0.487300	0.658700	0.472100
O161	O16	0.495200	0.525000	0.424300
N71	N7	0.658500	0.888200	0.055100
N81	N8	0.335300	0.899500	0.070700
C611	C61	0.715600	0.935400	0.096800
H431	H43	0.687000	0.960400	0.134500
C621	C62	0.816400	0.948700	0.085900
H441	H44	0.853600	0.981500	0.116100
C631	C63	0.859900	0.912700	0.030100
C641	C64	0.802800	0.857000	0.990600
H451	H45	0.830700	0.826400	0.955000
C651	C65	0.703700	0.847900	0.005100
H461	H46	0.666200	0.811000	0.977800
C661	C66	0.961200	0.935300	0.003900
H471	H47	0.991600	0.882200	0.984100
C671	C67	0.279600	0.868700	0.021200
H481	H48	0.309000	0.832400	0.989300
C681	C68	0.181000	0.887700	0.014700
H491	H49	0.144900	0.863700	0.979700
C691	C69	0.135800	0.943100	0.060900
C701	C70	0.192400	0.968700	0.115500
H501	H50	0.163800	0.000500	0.150200
C711	C71	0.291500	0.946500	0.118000
H511	H51	0.328600	0.965400	0.154300
C721	C72	0.037300	0.984700	0.048300
H521	H52	0.006900	0.003600	0.090200
C731	C73	0.499300	0.778500	0.163300
C741	C74	0.497600	0.732500	0.230800
C751	C75	0.500500	0.783400	0.287900
H531	H53	0.503700	0.845100	0.284800
C761	C76	0.498700	0.743000	0.349700
H541	H54	0.500800	0.777500	0.388100
C771	C77	0.493800	0.650600	0.354400
C781	C78	0.491800	0.598300	0.296300
H551	H55	0.489200	0.536400	0.298900
C791	C79	0.493800	0.640700	0.235100
H561	H56	0.492600	0.606800	0.196300
C801	C80	0.491700	0.606400	0.421700
Zn51	Zn5	0.002480	0.390260	0.064870
O171	O17	0.995200	0.361700	0.163200
O181	O18	0.006800	0.232300	0.111600
O191	O19	0.012700	0.158700	0.472100
O201	O20	0.004800	0.025000	0.424300
N91	N9	0.841500	0.388200	0.055100
N101	N10	0.164700	0.399500	0.070700
C811	C81	0.784400	0.435400	0.096800
H571	H57	0.813000	0.460400	0.134500
C821	C82	0.683600	0.448700	0.085900
H581	H58	0.646400	0.481500	0.116100
C831	C83	0.640100	0.412700	0.030100
C841	C84	0.697200	0.357000	0.990600
H591	H59	0.669300	0.326400	0.955000
C851	C85	0.796300	0.347900	0.005100
H601	H60	0.833800	0.311000	0.977800
C861	C86	0.538800	0.435300	0.003900
H611	H61	0.508400	0.382200	0.984100
C871	C87	0.220400	0.368700	0.021200
H621	H62	0.191000	0.332400	0.989300
C881	C88	0.319000	0.387700	0.014700
H631	H63	0.355100	0.363700	0.979700
C891	C89	0.364200	0.443100	0.060900
C901	C90	0.307600	0.468700	0.115500
H641	H64	0.336200	0.500500	0.150200
C911	C91	0.208500	0.446500	0.118000
H651	H65	0.171400	0.465400	0.154300
C921	C92	0.462700	0.484700	0.048300
H661	H66	0.493100	0.503600	0.090200
C931	C93	0.000700	0.278500	0.163300
C941	C94	0.002400	0.232500	0.230800
C951	C95	0.999500	0.283400	0.287900
H671	H67	0.996300	0.345100	0.284800
C961	C96	0.001300	0.243000	0.349700
H681	H68	0.999200	0.277500	0.388100
C971	C97	0.006200	0.150600	0.354400
C981	C98	0.008200	0.098300	0.296300
H691	H69	0.010800	0.036400	0.298900
C991	C99	0.006200	0.140700	0.235100
H701	H70	0.007400	0.106800	0.196300
C1001	C100	0.008300	0.106400	0.421700
Zn61	Zn6	0.997520	0.890260	0.435130
O211	O21	0.004800	0.861700	0.336800
O221	O22	0.993200	0.732300	0.388400
O231	O23	0.987300	0.658700	0.027900
O241	O24	0.995200	0.525000	0.075700
N111	N11	0.158500	0.888200	0.444900
N121	N12	0.835300	0.899500	0.429300
C1011	C101	0.215600	0.935400	0.403200
H711	H71	0.187000	0.960400	0.365500
C1021	C102	0.316400	0.948700	0.414100
H721	H72	0.353600	0.981500	0.383900
C1031	C103	0.359900	0.912700	0.469900
C1041	C104	0.302800	0.857000	0.509400
H731	H73	0.330700	0.826400	0.545000
C1051	C105	0.203700	0.847900	0.494900
H741	H74	0.166200	0.811000	0.522200
C1061	C106	0.461200	0.935300	0.496100
H751	H75	0.491600	0.882200	0.515900
C1071	C107	0.779600	0.868700	0.478800
H761	H76	0.809000	0.832400	0.510700
C1081	C108	0.681000	0.887700	0.485300
H771	H77	0.644900	0.863700	0.520300
C1091	C109	0.635800	0.943100	0.439100
C1101	C110	0.692400	0.968700	0.384500
H781	H78	0.663800	0.000500	0.349800
C1111	C111	0.791500	0.946500	0.382000
H791	H79	0.828600	0.965400	0.345700
C1121	C112	0.537300	0.984700	0.451700
H801	H80	0.506900	0.003600	0.409800
C1131	C113	0.999300	0.778500	0.336700
C1141	C114	0.997600	0.732500	0.269200
C1151	C115	0.000500	0.783400	0.212100
H811	H81	0.003700	0.845100	0.215200
C1161	C116	0.998700	0.743000	0.150300
H821	H82	0.000800	0.777500	0.111900
C1171	C117	0.993800	0.650600	0.145600
C1181	C118	0.991800	0.598300	0.203700
H831	H83	0.989200	0.536400	0.201100
C1191	C119	0.993800	0.640700	0.264900
H841	H84	0.992600	0.606800	0.303700
C1201	C120	0.991700	0.606400	0.078300
Zn71	Zn7	0.997520	0.609740	0.935130
O251	O25	0.004800	0.638300	0.836800
O261	O26	0.993200	0.767700	0.888400
O271	O27	0.987300	0.841300	0.527900
O281	O28	0.995200	0.975000	0.575700
N131	N13	0.158500	0.611800	0.944900
N141	N14	0.835300	0.600500	0.929300
C1211	C121	0.215600	0.564600	0.903200
H851	H85	0.187000	0.539600	0.865500
C1221	C122	0.316400	0.551300	0.914100
H861	H86	0.353600	0.518500	0.883900
C1231	C123	0.359900	0.587300	0.969900
C1241	C124	0.302800	0.643000	0.009400
H871	H87	0.330700	0.673600	0.045000
C1251	C125	0.203700	0.652100	0.994900
H881	H88	0.166200	0.689000	0.022200
C1261	C126	0.461200	0.564700	0.996100
H891	H89	0.491600	0.617800	0.015900
C1271	C127	0.779600	0.631300	0.978800
H901	H90	0.809000	0.667600	0.010700
C1281	C128	0.681000	0.612300	0.985300
H911	H91	0.644900	0.636300	0.020300
C1291	C129	0.635800	0.556900	0.939100
C1301	C130	0.692400	0.531300	0.884500
H921	H92	0.663800	0.499500	0.849800
C1311	C131	0.791500	0.553500	0.882000
H931	H93	0.828600	0.534600	0.845700
C1321	C132	0.537300	0.515300	0.951700
H941	H94	0.506900	0.496400	0.909800
C1331	C133	0.999300	0.721500	0.836700
C1341	C134	0.997600	0.767500	0.769200
C1351	C135	0.000500	0.716600	0.712100
H951	H95	0.003700	0.654900	0.715200
C1361	C136	0.998700	0.757000	0.650300
H961	H96	0.000800	0.722500	0.611900
C1371	C137	0.993800	0.849400	0.645600
C1381	C138	0.991800	0.901700	0.703700
H971	H97	0.989200	0.963600	0.701100
C1391	C139	0.993800	0.859300	0.764900
H981	H98	0.992600	0.893200	0.803700
C1401	C140	0.991700	0.893600	0.578300
Zn81	Zn8	0.002480	0.109740	0.564870
O291	O29	0.995200	0.138300	0.663200
O301	O30	0.006800	0.267700	0.611600
O311	O31	0.012700	0.341300	0.972100
O321	O32	0.004800	0.475000	0.924300
N151	N15	0.841500	0.111800	0.555100
N161	N16	0.164700	0.100500	0.570700
C1411	C141	0.784400	0.064600	0.596800
H991	H99	0.813000	0.039600	0.634500
C1421	C142	0.683600	0.051300	0.585900
H1001	H100	0.646400	0.018500	0.616100
C1431	C143	0.640100	0.087300	0.530100
C1441	C144	0.697200	0.143000	0.490600
H1011	H101	0.669300	0.173600	0.455000
C1451	C145	0.796300	0.152100	0.505100
H1021	H102	0.833800	0.189000	0.477800
C1461	C146	0.538800	0.064700	0.503900
H1031	H103	0.508400	0.117800	0.484100
C1471	C147	0.220400	0.131300	0.521200
H1041	H104	0.191000	0.167600	0.489300
C1481	C148	0.319000	0.112300	0.514700
H1051	H105	0.355100	0.136300	0.479700
C1491	C149	0.364200	0.056900	0.560900
C1501	C150	0.307600	0.031300	0.615500
H1061	H106	0.336200	0.999500	0.650200
C1511	C151	0.208500	0.053500	0.618000
H1071	H107	0.171400	0.034600	0.654300
C1521	C152	0.462700	0.015300	0.548300
H1081	H108	0.493100	0.996400	0.590200
C1531	C153	0.000700	0.221500	0.663300
C1541	C154	0.002400	0.267500	0.730800
C1551	C155	0.999500	0.216600	0.787900
H1091	H109	0.996300	0.154900	0.784800
C1561	C156	0.001300	0.257000	0.849700
H1101	H110	0.999200	0.222500	0.888100
C1571	C157	0.006200	0.349400	0.854400
C1581	C158	0.008200	0.401700	0.796300
H1111	H111	0.010800	0.463600	0.798900
C1591	C159	0.006200	0.359300	0.735100
H1121	H112	0.007400	0.393200	0.696300
C1601	C160	0.008300	0.393600	0.921700
