data_SUKKUF_clean_PM
_symmetry_space_group_name_H-M	'P1'
_cell_length_a	13.451900
_cell_length_b	13.451900
_cell_length_c	17.265000
_cell_angle_alpha	90.000000
_cell_angle_beta	90.000000
_cell_angle_gamma	90.000000
_symmetry_Int_Tables_number 1

loop_
_symmetry_equiv_pos_as_xyz
'x,y,z'

loop_
_atom_site_label
_atom_site_type_symbol
_atom_site_fract_x
_atom_site_fract_y
_atom_site_fract_z
P11	P1	0.425300	0.657000	0.069580
P21	P2	0.395000	0.636860	0.239900
P31	P3	0.383100	0.628900	0.579850
P41	P4	0.414100	0.651700	0.747500
O11	O1	0.325300	0.661100	0.024100
O21	O2	0.485800	0.742300	0.041000
O31	O3	0.393600	0.690700	0.156200
O41	O4	0.287900	0.620000	0.262800
O51	O5	0.434600	0.726600	0.292200
O61	O6	0.279900	0.600500	0.555400
O71	O7	0.415800	0.719200	0.527300
O81	O8	0.371300	0.680300	0.663600
O91	O9	0.315700	0.644500	0.796200
O101	O10	0.473400	0.739900	0.775800
K11	K1	0.215440	0.768210	0.907820
P51	P5	0.574700	0.343000	0.069580
P61	P6	0.605000	0.363140	0.239900
P71	P7	0.616900	0.371100	0.579850
P81	P8	0.585900	0.348300	0.747500
O111	O11	0.674700	0.338900	0.024100
O121	O12	0.514200	0.257700	0.041000
O131	O13	0.606400	0.309300	0.156200
O141	O14	0.712100	0.380000	0.262800
O151	O15	0.565400	0.273400	0.292200
O161	O16	0.720100	0.399500	0.555400
O171	O17	0.584200	0.280800	0.527300
O181	O18	0.628700	0.319700	0.663600
O191	O19	0.684300	0.355500	0.796200
O201	O20	0.526600	0.260100	0.775800
K21	K2	0.784560	0.231790	0.907820
P91	P9	0.343000	0.425300	0.069580
P101	P10	0.363140	0.395000	0.239900
P111	P11	0.371100	0.383100	0.579850
P121	P12	0.348300	0.414100	0.747500
O211	O21	0.338900	0.325300	0.024100
O221	O22	0.257700	0.485800	0.041000
O231	O23	0.309300	0.393600	0.156200
O241	O24	0.380000	0.287900	0.262800
O251	O25	0.273400	0.434600	0.292200
O261	O26	0.399500	0.279900	0.555400
O271	O27	0.280800	0.415800	0.527300
O281	O28	0.319700	0.371300	0.663600
O291	O29	0.355500	0.315700	0.796200
O301	O30	0.260100	0.473400	0.775800
K31	K3	0.231790	0.215440	0.907820
P131	P13	0.657000	0.574700	0.069580
P141	P14	0.636860	0.605000	0.239900
P151	P15	0.628900	0.616900	0.579850
P161	P16	0.651700	0.585900	0.747500
O311	O31	0.661100	0.674700	0.024100
O321	O32	0.742300	0.514200	0.041000
O331	O33	0.690700	0.606400	0.156200
O341	O34	0.620000	0.712100	0.262800
O351	O35	0.726600	0.565400	0.292200
O361	O36	0.600500	0.720100	0.555400
O371	O37	0.719200	0.584200	0.527300
O381	O38	0.680300	0.628700	0.663600
O391	O39	0.644500	0.684300	0.796200
O401	O40	0.739900	0.526600	0.775800
K41	K4	0.768210	0.784560	0.907820
P171	P17	0.925300	0.843000	0.569580
P181	P18	0.895000	0.863140	0.739900
P191	P19	0.883100	0.871100	0.079850
P201	P20	0.914100	0.848300	0.247500
O411	O41	0.825300	0.838900	0.524100
O421	O42	0.985800	0.757700	0.541000
O431	O43	0.893600	0.809300	0.656200
O441	O44	0.787900	0.880000	0.762800
O451	O45	0.934600	0.773400	0.792200
O461	O46	0.779900	0.899500	0.055400
O471	O47	0.915800	0.780800	0.027300
O481	O48	0.871300	0.819700	0.163600
O491	O49	0.815700	0.855500	0.296200
O501	O50	0.973400	0.760100	0.275800
K51	K5	0.715440	0.731790	0.407820
P211	P21	0.074700	0.157000	0.569580
P221	P22	0.105000	0.136860	0.739900
P231	P23	0.116900	0.128900	0.079850
P241	P24	0.085900	0.151700	0.247500
O511	O51	0.174700	0.161100	0.524100
O521	O52	0.014200	0.242300	0.541000
O531	O53	0.106400	0.190700	0.656200
O541	O54	0.212100	0.120000	0.762800
O551	O55	0.065400	0.226600	0.792200
O561	O56	0.220100	0.100500	0.055400
O571	O57	0.084200	0.219200	0.027300
O581	O58	0.128700	0.180300	0.163600
O591	O59	0.184300	0.144500	0.296200
O601	O60	0.026600	0.239900	0.275800
K61	K6	0.284560	0.268210	0.407820
P251	P25	0.843000	0.074700	0.569580
P261	P26	0.863140	0.105000	0.739900
P271	P27	0.871100	0.116900	0.079850
P281	P28	0.848300	0.085900	0.247500
O611	O61	0.838900	0.174700	0.524100
O621	O62	0.757700	0.014200	0.541000
O631	O63	0.809300	0.106400	0.656200
O641	O64	0.880000	0.212100	0.762800
O651	O65	0.773400	0.065400	0.792200
O661	O66	0.899500	0.220100	0.055400
O671	O67	0.780800	0.084200	0.027300
O681	O68	0.819700	0.128700	0.163600
O691	O69	0.855500	0.184300	0.296200
O701	O70	0.760100	0.026600	0.275800
K71	K7	0.731790	0.284560	0.407820
P291	P29	0.157000	0.925300	0.569580
P301	P30	0.136860	0.895000	0.739900
P311	P31	0.128900	0.883100	0.079850
P321	P32	0.151700	0.914100	0.247500
O711	O71	0.161100	0.825300	0.524100
O721	O72	0.242300	0.985800	0.541000
O731	O73	0.190700	0.893600	0.656200
O741	O74	0.120000	0.787900	0.762800
O751	O75	0.226600	0.934600	0.792200
O761	O76	0.100500	0.779900	0.055400
O771	O77	0.219200	0.915800	0.027300
O781	O78	0.180300	0.871300	0.163600
O791	O79	0.144500	0.815700	0.296200
O801	O80	0.239900	0.973400	0.275800
K81	K8	0.268210	0.715440	0.407820
Pt11	Pt1	0.500000	0.500000	0.073080
Pt21	Pt2	0.500000	0.500000	0.238870
Pt31	Pt3	0.500000	0.500000	0.582930
Pt41	Pt4	0.500000	0.500000	0.742580
I11	I1	0.500000	0.500000	0.902160
I21	I2	0.500000	0.500000	0.420270
Pt51	Pt5	0.000000	0.000000	0.573080
Pt61	Pt6	0.000000	0.000000	0.738870
Pt71	Pt7	0.000000	0.000000	0.082930
Pt81	Pt8	0.000000	0.000000	0.242580
I31	I3	0.000000	0.000000	0.402160
I41	I4	0.000000	0.000000	0.920270
