data_SUKRIB_clean_PM
_symmetry_space_group_name_H-M	'P1'
_cell_length_a	9.225200
_cell_length_b	10.627000
_cell_length_c	10.807000
_cell_angle_alpha	86.510000
_cell_angle_beta	83.930000
_cell_angle_gamma	81.220000
_symmetry_Int_Tables_number 1

loop_
_symmetry_equiv_pos_as_xyz
'x,y,z'

loop_
_atom_site_label
_atom_site_type_symbol
_atom_site_fract_x
_atom_site_fract_y
_atom_site_fract_z
Ce11	Ce1	0.031050	0.239950	0.718580
Ce21	Ce2	0.977590	0.323050	0.313730
C11	C1	0.195800	0.532200	0.440800
C21	C2	0.354900	0.521500	0.471700
C31	C3	0.455700	0.584500	0.402600
H11	H1	0.426600	0.642800	0.339000
C41	C4	0.603500	0.561100	0.427600
C51	C5	0.718500	0.621700	0.348800
C61	C6	0.234300	0.149200	0.420800
C71	C7	0.372500	0.071200	0.462700
C81	C8	0.505900	0.091400	0.402700
H21	H2	0.509900	0.153300	0.338300
C91	C9	0.637000	0.019000	0.438000
C101	C10	0.781700	0.046800	0.368800
C111	C11	0.791000	0.492300	0.864800
C121	C12	0.642400	0.497600	0.942900
C131	C13	0.379200	0.558500	0.938700
C141	C14	0.521900	0.556200	0.882900
H31	H3	0.537300	0.594600	0.803900
C151	C15	0.253700	0.613200	0.864200
O11	O1	0.121400	0.176200	0.500100
O21	O2	0.232000	0.183000	0.309400
O31	O3	0.278700	0.674400	0.763200
O41	O4	0.127000	0.588300	0.900000
O51	O5	0.840900	0.133700	0.407200
O61	O6	0.845300	0.592300	0.848300
O71	O7	0.114100	0.639700	0.455500
O81	O8	0.693600	0.734600	0.306500
O91	O9	0.848100	0.557600	0.330700
O101	O10	0.831500	0.984200	0.273400
O111	O11	0.159300	0.436300	0.401300
O121	O12	0.837400	0.387900	0.817500
Ce31	Ce3	0.968950	0.760050	0.281420
Ce41	Ce4	0.022410	0.676950	0.686270
C161	C16	0.804200	0.467800	0.559200
C171	C17	0.645100	0.478500	0.528300
C181	C18	0.544300	0.415500	0.597400
H41	H4	0.573400	0.357200	0.661000
C191	C19	0.396500	0.438900	0.572400
C201	C20	0.281500	0.378300	0.651200
C211	C21	0.765700	0.850800	0.579200
C221	C22	0.627500	0.928800	0.537300
C231	C23	0.494100	0.908600	0.597300
H51	H5	0.490100	0.846700	0.661700
C241	C24	0.363000	0.981000	0.562000
C251	C25	0.218300	0.953200	0.631200
C261	C26	0.209000	0.507700	0.135200
C271	C27	0.357600	0.502400	0.057100
C281	C28	0.620800	0.441500	0.061300
C291	C29	0.478100	0.443800	0.117100
H61	H6	0.462700	0.405400	0.196100
C301	C30	0.746300	0.386800	0.135800
O131	O13	0.878600	0.823800	0.499900
O141	O14	0.768000	0.817000	0.690600
O151	O15	0.721300	0.325600	0.236800
O161	O16	0.873000	0.411700	0.100000
O171	O17	0.159100	0.866300	0.592800
O181	O18	0.154700	0.407700	0.151700
O191	O19	0.885900	0.360300	0.544500
O201	O20	0.306400	0.265400	0.693500
O211	O21	0.151900	0.442400	0.669300
O221	O22	0.168500	0.015800	0.726600
O231	O23	0.840700	0.563700	0.598700
O241	O24	0.162600	0.612100	0.182500
