data_SUKYON_clean_PM
_symmetry_space_group_name_H-M	'P1'
_cell_length_a	18.142700
_cell_length_b	18.142700
_cell_length_c	35.410000
_cell_angle_alpha	90.000000
_cell_angle_beta	90.000000
_cell_angle_gamma	90.000000
_symmetry_Int_Tables_number 1

loop_
_symmetry_equiv_pos_as_xyz
'x,y,z'

loop_
_atom_site_label
_atom_site_type_symbol
_atom_site_fract_x
_atom_site_fract_y
_atom_site_fract_z
Cu11	Cu1	0.507050	0.426790	0.711890
Cu21	Cu2	0.492950	0.573210	0.711890
Cu31	Cu3	0.073210	0.992950	0.211890
Cu41	Cu4	0.926790	0.007050	0.211890
H11	H1	0.825600	0.607700	0.539200
H21	H2	0.918400	0.612600	0.493800
H31	H3	0.934300	0.390800	0.495900
H41	H4	0.841500	0.385800	0.541300
H51	H5	0.097300	0.645100	0.369900
H61	H6	0.099400	0.550200	0.414200
H71	H7	0.890800	0.599600	0.444600
H81	H8	0.888700	0.694500	0.400300
H91	H9	0.651800	0.612100	0.616600
H101	H10	0.742000	0.608400	0.569800
H111	H11	0.768500	0.390400	0.587700
H121	H12	0.678300	0.394000	0.634500
H131	H13	0.883000	0.840100	0.300200
H141	H14	0.881600	0.753200	0.348600
H151	H15	0.103600	0.741900	0.344900
H161	H16	0.105000	0.828800	0.296500
H171	H17	0.174400	0.392300	0.539200
H181	H18	0.081600	0.387400	0.493800
H191	H19	0.065700	0.609200	0.495900
H201	H20	0.158500	0.614200	0.541300
H211	H21	0.902700	0.354900	0.369900
H221	H22	0.900600	0.449800	0.414200
H231	H23	0.109200	0.400400	0.444600
H241	H24	0.111300	0.305500	0.400300
H251	H25	0.348200	0.387900	0.616600
H261	H26	0.258000	0.391600	0.569800
H271	H27	0.231500	0.609600	0.587700
H281	H28	0.321700	0.606000	0.634500
H291	H29	0.117000	0.159900	0.300200
H301	H30	0.118400	0.246800	0.348600
H311	H31	0.896400	0.258100	0.344900
H321	H32	0.895000	0.171200	0.296500
H331	H33	0.892300	0.674400	0.039200
H341	H34	0.887400	0.581600	0.993800
H351	H35	0.109200	0.565700	0.995900
H361	H36	0.114200	0.658500	0.041300
H371	H37	0.854900	0.402700	0.869900
H381	H38	0.949800	0.400600	0.914200
H391	H39	0.900400	0.609200	0.944600
H401	H40	0.805500	0.611300	0.900300
H411	H41	0.887900	0.848200	0.116600
H421	H42	0.891600	0.758000	0.069800
H431	H43	0.109600	0.731500	0.087700
H441	H44	0.106000	0.821700	0.134500
H451	H45	0.659900	0.617000	0.800200
H461	H46	0.746800	0.618400	0.848600
H471	H47	0.758100	0.396400	0.844900
H481	H48	0.671200	0.395000	0.796500
H491	H49	0.107700	0.325600	0.039200
H501	H50	0.112600	0.418400	0.993800
H511	H51	0.890800	0.434300	0.995900
H521	H52	0.885800	0.341500	0.041300
H531	H53	0.145100	0.597300	0.869900
H541	H54	0.050200	0.599400	0.914200
H551	H55	0.099600	0.390800	0.944600
H561	H56	0.194500	0.388700	0.900300
H571	H57	0.112100	0.151800	0.116600
H581	H58	0.108400	0.242000	0.069800
H591	H59	0.890400	0.268500	0.087700
H601	H60	0.894000	0.178300	0.134500
H611	H61	0.340100	0.383000	0.800200
H621	H62	0.253200	0.381600	0.848600
H631	H63	0.241900	0.603600	0.844900
H641	H64	0.328800	0.605000	0.796500
C11	C1	0.824600	0.496300	0.544600
C21	C2	0.847500	0.563900	0.530400
C31	C3	0.902900	0.566900	0.503400
C41	C4	0.935300	0.502200	0.490400
C51	C5	0.912300	0.434500	0.504600
C61	C6	0.857000	0.431600	0.531700
C71	C7	0.597800	0.509300	0.660200
C81	C8	0.992800	0.679000	0.380800
C91	C9	0.055600	0.636000	0.384900
C101	C10	0.056900	0.579300	0.411400
C111	C11	0.995300	0.565700	0.433600
C121	C12	0.932500	0.608800	0.429500
C131	C13	0.931200	0.665400	0.403100
C141	C14	0.656400	0.503400	0.630100
C151	C15	0.675400	0.567400	0.610800
C161	C16	0.729200	0.565200	0.582800
C171	C17	0.764000	0.499000	0.574200
C181	C18	0.745000	0.435100	0.593500
C191	C19	0.691200	0.437300	0.621400
C201	C20	0.994100	0.842900	0.293700
C211	C21	0.927500	0.820300	0.309200
C221	C22	0.926700	0.768400	0.338100
C231	C23	0.992500	0.739100	0.351400
C241	C24	0.059100	0.761700	0.335900
C251	C25	0.059900	0.813600	0.307000
C261	C26	0.998200	0.897400	0.262500
C271	C27	0.175400	0.503700	0.544600
C281	C28	0.152500	0.436100	0.530400
C291	C29	0.097100	0.433100	0.503400
C301	C30	0.064700	0.497800	0.490400
C311	C31	0.087700	0.565500	0.504600
C321	C32	0.143000	0.568400	0.531700
C331	C33	0.402200	0.490700	0.660200
C341	C34	0.007200	0.321000	0.380800
C351	C35	0.944400	0.364000	0.384900
C361	C36	0.943100	0.420700	0.411400
C371	C37	0.004700	0.434300	0.433600
C381	C38	0.067500	0.391200	0.429500
C391	C39	0.068800	0.334600	0.403100
C401	C40	0.343600	0.496600	0.630100
C411	C41	0.324600	0.432600	0.610800
C421	C42	0.270800	0.434800	0.582800
C431	C43	0.236000	0.501000	0.574200
C441	C44	0.255000	0.564900	0.593500
C451	C45	0.308800	0.562700	0.621400
C461	C46	0.005900	0.157100	0.293700
C471	C47	0.072500	0.179700	0.309200
C481	C48	0.073300	0.231600	0.338100
C491	C49	0.007500	0.260900	0.351400
C501	C50	0.940900	0.238300	0.335900
C511	C51	0.940100	0.186400	0.307000
C521	C52	0.001800	0.102600	0.262500
C531	C53	0.003700	0.675400	0.044600
C541	C54	0.936100	0.652500	0.030400
C551	C55	0.933100	0.597100	0.003400
C561	C56	0.997800	0.564700	0.990400
C571	C57	0.065500	0.587700	0.004600
C581	C58	0.068400	0.643000	0.031700
C591	C59	0.990700	0.902200	0.160200
C601	C60	0.821000	0.507200	0.880800
C611	C61	0.864000	0.444400	0.884900
C621	C62	0.920700	0.443100	0.911400
C631	C63	0.934300	0.504700	0.933600
C641	C64	0.891200	0.567500	0.929500
C651	C65	0.834600	0.568800	0.903100
C661	C66	0.996600	0.843600	0.130100
C671	C67	0.932600	0.824600	0.110800
C681	C68	0.934800	0.770800	0.082800
C691	C69	0.001000	0.736000	0.074200
C701	C70	0.064900	0.755000	0.093500
C711	C71	0.062700	0.808800	0.121400
C721	C72	0.657100	0.505900	0.793700
C731	C73	0.679700	0.572500	0.809200
C741	C74	0.731600	0.573300	0.838100
C751	C75	0.760900	0.507500	0.851400
C761	C76	0.738300	0.440900	0.835900
C771	C77	0.686400	0.440100	0.807000
C781	C78	0.602600	0.501800	0.762500
C791	C79	0.996300	0.324600	0.044600
C801	C80	0.063900	0.347500	0.030400
C811	C81	0.066900	0.402900	0.003400
C821	C82	0.002200	0.435300	0.990400
C831	C83	0.934500	0.412300	0.004600
C841	C84	0.931600	0.357000	0.031700
C851	C85	0.009300	0.097800	0.160200
C861	C86	0.179000	0.492800	0.880800
C871	C87	0.136000	0.555600	0.884900
C881	C88	0.079300	0.556900	0.911400
C891	C89	0.065700	0.495300	0.933600
C901	C90	0.108800	0.432500	0.929500
C911	C91	0.165400	0.431200	0.903100
C921	C92	0.003400	0.156400	0.130100
C931	C93	0.067400	0.175400	0.110800
C941	C94	0.065200	0.229200	0.082800
C951	C95	0.999000	0.264000	0.074200
C961	C96	0.935100	0.245000	0.093500
C971	C97	0.937300	0.191200	0.121400
C981	C98	0.342900	0.494100	0.793700
C991	C99	0.320300	0.427500	0.809200
C1001	C100	0.268400	0.426700	0.838100
C1011	C101	0.239100	0.492500	0.851400
C1021	C102	0.261700	0.559100	0.835900
C1031	C103	0.313600	0.559900	0.807000
C1041	C104	0.397400	0.498200	0.762500
C1051	C105	0.000000	0.500000	0.461700
C1061	C106	0.000000	0.500000	0.961700
O11	O1	0.577800	0.447400	0.675400
O21	O2	0.062400	0.914500	0.248400
O31	O3	0.569700	0.574800	0.666600
O41	O4	0.938400	0.935300	0.251600
O51	O5	0.422200	0.552600	0.675400
O61	O6	0.937600	0.085500	0.248400
O71	O7	0.430300	0.425200	0.666600
O81	O8	0.061600	0.064700	0.251600
O91	O9	0.052600	0.922200	0.175400
O101	O10	0.585500	0.437600	0.748400
O111	O11	0.925200	0.930300	0.166600
O121	O12	0.564700	0.561600	0.751600
O131	O13	0.947400	0.077800	0.175400
O141	O14	0.414500	0.562400	0.748400
O151	O15	0.074800	0.069700	0.166600
O161	O16	0.435300	0.438400	0.751600
Cu51	Cu5	0.426790	0.492950	0.288110
Cu61	Cu6	0.573210	0.507050	0.288110
Cu71	Cu7	0.992950	0.926790	0.788110
Cu81	Cu8	0.007050	0.073210	0.788110
H651	H65	0.607700	0.174400	0.460800
H661	H66	0.612600	0.081600	0.506200
H671	H67	0.390800	0.065700	0.504100
H681	H68	0.385800	0.158500	0.458700
H691	H69	0.645100	0.902700	0.630100
H701	H70	0.550200	0.900600	0.585800
H711	H71	0.599600	0.109200	0.555400
H721	H72	0.694500	0.111300	0.599700
H731	H73	0.612100	0.348200	0.383400
H741	H74	0.608400	0.258000	0.430200
H751	H75	0.390400	0.231500	0.412300
H761	H76	0.394000	0.321700	0.365500
H771	H77	0.840100	0.117000	0.699800
H781	H78	0.753200	0.118400	0.651400
H791	H79	0.741900	0.896400	0.655100
H801	H80	0.828800	0.895000	0.703500
H811	H81	0.392300	0.825600	0.460800
H821	H82	0.387400	0.918400	0.506200
H831	H83	0.609200	0.934300	0.504100
H841	H84	0.614200	0.841500	0.458700
H851	H85	0.354900	0.097300	0.630100
H861	H86	0.449800	0.099400	0.585800
H871	H87	0.400400	0.890800	0.555400
H881	H88	0.305500	0.888700	0.599700
H891	H89	0.387900	0.651800	0.383400
H901	H90	0.391600	0.742000	0.430200
H911	H91	0.609600	0.768500	0.412300
H921	H92	0.606000	0.678300	0.365500
H931	H93	0.159900	0.883000	0.699800
H941	H94	0.246800	0.881600	0.651400
H951	H95	0.258100	0.103600	0.655100
H961	H96	0.171200	0.105000	0.703500
H971	H97	0.674400	0.107700	0.960800
H981	H98	0.581600	0.112600	0.006200
H991	H99	0.565700	0.890800	0.004100
H1001	H100	0.658500	0.885800	0.958700
H1011	H101	0.402700	0.145100	0.130100
H1021	H102	0.400600	0.050200	0.085800
H1031	H103	0.609200	0.099600	0.055400
H1041	H104	0.611300	0.194500	0.099700
H1051	H105	0.848200	0.112100	0.883400
H1061	H106	0.758000	0.108400	0.930200
H1071	H107	0.731500	0.890400	0.912300
H1081	H108	0.821700	0.894000	0.865500
H1091	H109	0.617000	0.340100	0.199800
H1101	H110	0.618400	0.253200	0.151400
H1111	H111	0.396400	0.241900	0.155100
H1121	H112	0.395000	0.328800	0.203500
H1131	H113	0.325600	0.892300	0.960800
H1141	H114	0.418400	0.887400	0.006200
H1151	H115	0.434300	0.109200	0.004100
H1161	H116	0.341500	0.114200	0.958700
H1171	H117	0.597300	0.854900	0.130100
H1181	H118	0.599400	0.949800	0.085800
H1191	H119	0.390800	0.900400	0.055400
H1201	H120	0.388700	0.805500	0.099700
H1211	H121	0.151800	0.887900	0.883400
H1221	H122	0.242000	0.891600	0.930200
H1231	H123	0.268500	0.109600	0.912300
H1241	H124	0.178300	0.106000	0.865500
H1251	H125	0.383000	0.659900	0.199800
H1261	H126	0.381600	0.746800	0.151400
H1271	H127	0.603600	0.758100	0.155100
H1281	H128	0.605000	0.671200	0.203500
C1071	C107	0.496300	0.175400	0.455400
C1081	C108	0.563900	0.152500	0.469600
C1091	C109	0.566900	0.097100	0.496600
C1101	C110	0.502200	0.064700	0.509600
C1111	C111	0.434500	0.087700	0.495400
C1121	C112	0.431600	0.143000	0.468300
C1131	C113	0.509300	0.402200	0.339800
C1141	C114	0.679000	0.007200	0.619200
C1151	C115	0.636000	0.944400	0.615100
C1161	C116	0.579300	0.943100	0.588600
C1171	C117	0.565700	0.004700	0.566400
C1181	C118	0.608800	0.067500	0.570500
C1191	C119	0.665400	0.068800	0.596900
C1201	C120	0.503400	0.343600	0.369900
C1211	C121	0.567400	0.324600	0.389200
C1221	C122	0.565200	0.270800	0.417200
C1231	C123	0.499000	0.236000	0.425800
C1241	C124	0.435100	0.255000	0.406500
C1251	C125	0.437300	0.308800	0.378600
C1261	C126	0.842900	0.005900	0.706300
C1271	C127	0.820300	0.072500	0.690800
C1281	C128	0.768400	0.073300	0.661900
C1291	C129	0.739100	0.007500	0.648600
C1301	C130	0.761700	0.940900	0.664100
C1311	C131	0.813600	0.940100	0.693000
C1321	C132	0.897400	0.001800	0.737500
C1331	C133	0.503700	0.824600	0.455400
C1341	C134	0.436100	0.847500	0.469600
C1351	C135	0.433100	0.902900	0.496600
C1361	C136	0.497800	0.935300	0.509600
C1371	C137	0.565500	0.912300	0.495400
C1381	C138	0.568400	0.857000	0.468300
C1391	C139	0.490700	0.597800	0.339800
C1401	C140	0.321000	0.992800	0.619200
C1411	C141	0.364000	0.055600	0.615100
C1421	C142	0.420700	0.056900	0.588600
C1431	C143	0.434300	0.995300	0.566400
C1441	C144	0.391200	0.932500	0.570500
C1451	C145	0.334600	0.931200	0.596900
C1461	C146	0.496600	0.656400	0.369900
C1471	C147	0.432600	0.675400	0.389200
C1481	C148	0.434800	0.729200	0.417200
C1491	C149	0.501000	0.764000	0.425800
C1501	C150	0.564900	0.745000	0.406500
C1511	C151	0.562700	0.691200	0.378600
C1521	C152	0.157100	0.994100	0.706300
C1531	C153	0.179700	0.927500	0.690800
C1541	C154	0.231600	0.926700	0.661900
C1551	C155	0.260900	0.992500	0.648600
C1561	C156	0.238300	0.059100	0.664100
C1571	C157	0.186400	0.059900	0.693000
C1581	C158	0.102600	0.998200	0.737500
C1591	C159	0.675400	0.996300	0.955400
C1601	C160	0.652500	0.063900	0.969600
C1611	C161	0.597100	0.066900	0.996600
C1621	C162	0.564700	0.002200	0.009600
C1631	C163	0.587700	0.934500	0.995400
C1641	C164	0.643000	0.931600	0.968300
C1651	C165	0.902200	0.009300	0.839800
C1661	C166	0.507200	0.179000	0.119200
C1671	C167	0.444400	0.136000	0.115100
C1681	C168	0.443100	0.079300	0.088600
C1691	C169	0.504700	0.065700	0.066400
C1701	C170	0.567500	0.108800	0.070500
C1711	C171	0.568800	0.165400	0.096900
C1721	C172	0.843600	0.003400	0.869900
C1731	C173	0.824600	0.067400	0.889200
C1741	C174	0.770800	0.065200	0.917200
C1751	C175	0.736000	0.999000	0.925800
C1761	C176	0.755000	0.935100	0.906500
C1771	C177	0.808800	0.937300	0.878600
C1781	C178	0.505900	0.342900	0.206300
C1791	C179	0.572500	0.320300	0.190800
C1801	C180	0.573300	0.268400	0.161900
C1811	C181	0.507500	0.239100	0.148600
C1821	C182	0.440900	0.261700	0.164100
C1831	C183	0.440100	0.313600	0.193000
C1841	C184	0.501800	0.397400	0.237500
C1851	C185	0.324600	0.003700	0.955400
C1861	C186	0.347500	0.936100	0.969600
C1871	C187	0.402900	0.933100	0.996600
C1881	C188	0.435300	0.997800	0.009600
C1891	C189	0.412300	0.065500	0.995400
C1901	C190	0.357000	0.068400	0.968300
C1911	C191	0.097800	0.990700	0.839800
C1921	C192	0.492800	0.821000	0.119200
C1931	C193	0.555600	0.864000	0.115100
C1941	C194	0.556900	0.920700	0.088600
C1951	C195	0.495300	0.934300	0.066400
C1961	C196	0.432500	0.891200	0.070500
C1971	C197	0.431200	0.834600	0.096900
C1981	C198	0.156400	0.996600	0.869900
C1991	C199	0.175400	0.932600	0.889200
C2001	C200	0.229200	0.934800	0.917200
C2011	C201	0.264000	0.001000	0.925800
C2021	C202	0.245000	0.064900	0.906500
C2031	C203	0.191200	0.062700	0.878600
C2041	C204	0.494100	0.657100	0.206300
C2051	C205	0.427500	0.679700	0.190800
C2061	C206	0.426700	0.731600	0.161900
C2071	C207	0.492500	0.760900	0.148600
C2081	C208	0.559100	0.738300	0.164100
C2091	C209	0.559900	0.686400	0.193000
C2101	C210	0.498200	0.602600	0.237500
C2111	C211	0.500000	0.000000	0.538300
C2121	C212	0.500000	0.000000	0.038300
O171	O17	0.447400	0.422200	0.324600
O181	O18	0.914500	0.937600	0.751600
O191	O19	0.574800	0.430300	0.333400
O201	O20	0.935300	0.061600	0.748400
O211	O21	0.552600	0.577800	0.324600
O221	O22	0.085500	0.062400	0.751600
O231	O23	0.425200	0.569700	0.333400
O241	O24	0.064700	0.938400	0.748400
O251	O25	0.922200	0.947400	0.824600
O261	O26	0.437600	0.414500	0.251600
O271	O27	0.930300	0.074800	0.833400
O281	O28	0.561600	0.435300	0.248400
O291	O29	0.077800	0.052600	0.824600
O301	O30	0.562400	0.585500	0.251600
O311	O31	0.069700	0.925200	0.833400
O321	O32	0.438400	0.564700	0.248400
