data_SULKIU_clean_PM
_symmetry_space_group_name_H-M	'P1'
_cell_length_a	16.615000
_cell_length_b	17.252000
_cell_length_c	20.596000
_cell_angle_alpha	90.000000
_cell_angle_beta	90.000000
_cell_angle_gamma	98.079000
_symmetry_Int_Tables_number 1

loop_
_symmetry_equiv_pos_as_xyz
'x,y,z'

loop_
_atom_site_label
_atom_site_type_symbol
_atom_site_fract_x
_atom_site_fract_y
_atom_site_fract_z
Zn11	Zn1	0.094670	0.939520	0.848650
Zn21	Zn2	0.980220	0.746450	0.827410
Zn31	Zn3	0.383810	0.051310	0.637590
Zn41	Zn4	0.405330	0.560480	0.348650
Zn51	Zn5	0.519780	0.753550	0.327410
Zn61	Zn6	0.116190	0.448690	0.137590
Zn71	Zn7	0.905330	0.060480	0.151350
Zn81	Zn8	0.019780	0.253550	0.172590
Zn91	Zn9	0.616190	0.948690	0.362410
Zn101	Zn10	0.594670	0.439520	0.651350
Zn111	Zn11	0.480220	0.246450	0.672590
Zn121	Zn12	0.883810	0.551310	0.862410
H11	H1	0.304600	0.858800	0.918700
H21	H2	0.419700	0.801800	0.940800
H31	H3	0.303500	0.593700	0.884000
H41	H4	0.190200	0.651200	0.859700
H51	H5	0.517700	0.745500	0.037000
H61	H6	0.516300	0.732500	0.149200
H71	H7	0.387100	0.521200	0.133800
H81	H8	0.388800	0.531200	0.022500
H91	H9	0.567500	0.159500	0.847600
H101	H10	0.614200	0.109800	0.942400
H111	H11	0.534900	0.891700	0.880100
H121	H12	0.486800	0.942900	0.786300
H131	H13	0.898600	0.028400	0.959700
H141	H14	0.810600	0.808300	0.911200
H151	H15	0.681600	0.829100	0.941700
H161	H16	0.741900	0.811400	0.788700
H171	H17	0.615700	0.837100	0.755800
H181	H18	0.535700	0.605700	0.752900
H191	H19	0.661500	0.582000	0.789500
H201	H20	0.509500	0.893300	0.673000
H211	H21	0.542300	0.940500	0.569000
H221	H22	0.491300	0.723100	0.498100
H231	H23	0.460100	0.675800	0.601400
H241	H24	0.769900	0.048500	0.996400
H251	H25	0.195400	0.641200	0.418700
H261	H26	0.080300	0.698200	0.440800
H271	H27	0.196500	0.906300	0.384000
H281	H28	0.309800	0.848800	0.359700
H291	H29	0.982300	0.754500	0.537000
H301	H30	0.983700	0.767500	0.649200
H311	H31	0.112900	0.978800	0.633800
H321	H32	0.111200	0.968800	0.522500
H331	H33	0.932500	0.340500	0.347600
H341	H34	0.885800	0.390200	0.442400
H351	H35	0.965100	0.608300	0.380100
H361	H36	0.013200	0.557100	0.286300
H371	H37	0.601400	0.471600	0.459700
H381	H38	0.689400	0.691700	0.411200
H391	H39	0.818400	0.670900	0.441700
H401	H40	0.758100	0.688600	0.288700
H411	H41	0.884300	0.662900	0.255800
H421	H42	0.964300	0.894300	0.252900
H431	H43	0.838500	0.918000	0.289500
H441	H44	0.990500	0.606700	0.173000
H451	H45	0.957700	0.559500	0.069000
H461	H46	0.008700	0.776900	0.998100
H471	H47	0.039900	0.824200	0.101400
H481	H48	0.730100	0.451500	0.496400
H491	H49	0.695400	0.141200	0.081300
H501	H50	0.580300	0.198200	0.059200
H511	H51	0.696500	0.406300	0.116000
H521	H52	0.809800	0.348800	0.140300
H531	H53	0.482300	0.254500	0.963000
H541	H54	0.483700	0.267500	0.850800
H551	H55	0.612900	0.478800	0.866200
H561	H56	0.611200	0.468800	0.977500
H571	H57	0.432500	0.840500	0.152400
H581	H58	0.385800	0.890200	0.057600
H591	H59	0.465100	0.108300	0.119900
H601	H60	0.513200	0.057100	0.213700
H611	H61	0.101400	0.971600	0.040300
H621	H62	0.189400	0.191700	0.088800
H631	H63	0.318400	0.170900	0.058300
H641	H64	0.258100	0.188600	0.211300
H651	H65	0.384300	0.162900	0.244200
H661	H66	0.464300	0.394300	0.247100
H671	H67	0.338500	0.418000	0.210500
H681	H68	0.490500	0.106700	0.327000
H691	H69	0.457700	0.059500	0.431000
H701	H70	0.508700	0.276900	0.501900
H711	H71	0.539900	0.324200	0.398600
H721	H72	0.230100	0.951500	0.003600
H731	H73	0.804600	0.358800	0.581300
H741	H74	0.919700	0.301800	0.559200
H751	H75	0.803500	0.093700	0.616000
H761	H76	0.690200	0.151200	0.640300
H771	H77	0.017700	0.245500	0.463000
H781	H78	0.016300	0.232500	0.350800
H791	H79	0.887100	0.021200	0.366200
H801	H80	0.888800	0.031200	0.477500
H811	H81	0.067500	0.659500	0.652400
H821	H82	0.114200	0.609800	0.557600
H831	H83	0.034900	0.391700	0.619900
H841	H84	0.986800	0.442900	0.713700
H851	H85	0.398600	0.528400	0.540300
H861	H86	0.310600	0.308300	0.588800
H871	H87	0.181600	0.329100	0.558300
H881	H88	0.241900	0.311400	0.711300
H891	H89	0.115700	0.337100	0.744200
H901	H90	0.035700	0.105700	0.747100
H911	H91	0.161500	0.082000	0.710500
H921	H92	0.009500	0.393300	0.827000
H931	H93	0.042300	0.440500	0.931000
H941	H94	0.991300	0.223100	0.001900
H951	H95	0.960100	0.175800	0.898600
H961	H96	0.269900	0.548500	0.503600
C11	C1	0.160600	0.797700	0.870700
C21	C2	0.235200	0.760600	0.887400
C31	C3	0.304300	0.805500	0.911500
C41	C4	0.373100	0.771500	0.924900
C51	C5	0.372200	0.693000	0.914800
C61	C6	0.303700	0.647000	0.890600
C71	C7	0.236100	0.681500	0.876700
C81	C8	0.455000	0.638700	0.019200
C91	C9	0.492100	0.699900	0.056400
C101	C10	0.490700	0.691900	0.123600
C111	C11	0.452200	0.625600	0.152900
C121	C12	0.414000	0.566200	0.114300
C131	C13	0.414900	0.571800	0.047900
C141	C14	0.455100	0.620300	0.226000
C151	C15	0.491400	0.089400	0.746400
C161	C16	0.522800	0.055900	0.807400
C171	C17	0.560800	0.105700	0.854300
C181	C18	0.588900	0.076300	0.910800
C191	C19	0.578800	0.996200	0.919600
C201	C20	0.541100	0.945500	0.873500
C211	C21	0.512900	0.976300	0.817600
C221	C22	0.714100	0.941200	0.970400
C231	C23	0.854800	0.988500	0.956300
C241	C24	0.866100	0.917600	0.930300
C251	C25	0.801800	0.857100	0.926600
C261	C26	0.725200	0.869000	0.945500
C271	C27	0.947100	0.904200	0.903600
C281	C28	0.796700	0.677400	0.813300
C291	C29	0.714700	0.694100	0.792200
C301	C30	0.700200	0.770200	0.782000
C311	C31	0.625100	0.785800	0.762300
C321	C32	0.563300	0.724100	0.752300
C331	C33	0.576700	0.647000	0.761000
C341	C34	0.652400	0.633200	0.782000
C351	C35	0.484100	0.780000	0.646800
C361	C36	0.506900	0.859100	0.637900
C371	C37	0.526000	0.887300	0.575600
C381	C38	0.520800	0.836400	0.523800
C391	C39	0.495600	0.757200	0.533300
C401	C40	0.477100	0.728900	0.594900
C411	C41	0.545200	0.866400	0.456900
C421	C42	0.777900	0.001100	0.977700
C431	C43	0.339400	0.702300	0.370700
C441	C44	0.264800	0.739400	0.387400
C451	C45	0.195700	0.694500	0.411500
C461	C46	0.126900	0.728500	0.424900
C471	C47	0.127800	0.807000	0.414800
C481	C48	0.196300	0.853000	0.390600
C491	C49	0.263900	0.818500	0.376700
C501	C50	0.045000	0.861300	0.519200
C511	C51	0.007900	0.800100	0.556400
C521	C52	0.009300	0.808100	0.623600
C531	C53	0.047800	0.874400	0.652900
C541	C54	0.086000	0.933800	0.614300
C551	C55	0.085100	0.928200	0.547900
C561	C56	0.044900	0.879700	0.726000
C571	C57	0.008600	0.410600	0.246400
C581	C58	0.977200	0.444100	0.307400
C591	C59	0.939200	0.394300	0.354300
C601	C60	0.911100	0.423700	0.410800
C611	C61	0.921200	0.503800	0.419600
C621	C62	0.958900	0.554500	0.373500
C631	C63	0.987100	0.523700	0.317600
C641	C64	0.785900	0.558800	0.470400
C651	C65	0.645200	0.511500	0.456300
C661	C66	0.633900	0.582400	0.430300
C671	C67	0.698200	0.642900	0.426600
C681	C68	0.774800	0.631000	0.445500
C691	C69	0.552900	0.595800	0.403600
C701	C70	0.703300	0.822600	0.313300
C711	C71	0.785300	0.805900	0.292200
C721	C72	0.799800	0.729800	0.282000
C731	C73	0.874900	0.714200	0.262300
C741	C74	0.936700	0.775900	0.252300
C751	C75	0.923300	0.853000	0.261000
C761	C76	0.847600	0.866800	0.282000
C771	C77	0.015900	0.720000	0.146800
C781	C78	0.993100	0.640900	0.137900
C791	C79	0.974000	0.612700	0.075600
C801	C80	0.979200	0.663600	0.023800
C811	C81	0.004400	0.742800	0.033300
C821	C82	0.022900	0.771100	0.094900
C831	C83	0.954800	0.633600	0.956900
C841	C84	0.722100	0.498900	0.477700
C851	C85	0.839400	0.202300	0.129300
C861	C86	0.764800	0.239400	0.112600
C871	C87	0.695700	0.194500	0.088500
C881	C88	0.626900	0.228500	0.075100
C891	C89	0.627800	0.307000	0.085200
C901	C90	0.696300	0.353000	0.109400
C911	C91	0.763900	0.318500	0.123300
C921	C92	0.545000	0.361300	0.980800
C931	C93	0.507900	0.300100	0.943600
C941	C94	0.509300	0.308100	0.876400
C951	C95	0.547800	0.374400	0.847100
C961	C96	0.586000	0.433800	0.885700
C971	C97	0.585100	0.428200	0.952100
C981	C98	0.544900	0.379700	0.774000
C991	C99	0.508600	0.910600	0.253600
C1001	C100	0.477200	0.944100	0.192600
C1011	C101	0.439200	0.894300	0.145700
C1021	C102	0.411100	0.923700	0.089200
C1031	C103	0.421200	0.003800	0.080400
C1041	C104	0.458900	0.054500	0.126500
C1051	C105	0.487100	0.023700	0.182400
C1061	C106	0.285900	0.058800	0.029600
C1071	C107	0.145200	0.011500	0.043700
C1081	C108	0.133900	0.082400	0.069700
C1091	C109	0.198200	0.142900	0.073400
C1101	C110	0.274800	0.131000	0.054500
C1111	C111	0.052900	0.095800	0.096400
C1121	C112	0.203300	0.322600	0.186700
C1131	C113	0.285300	0.305900	0.207800
C1141	C114	0.299800	0.229800	0.218000
C1151	C115	0.374900	0.214200	0.237700
C1161	C116	0.436700	0.275900	0.247700
C1171	C117	0.423300	0.353000	0.239000
C1181	C118	0.347600	0.366800	0.218000
C1191	C119	0.515900	0.220000	0.353200
C1201	C120	0.493100	0.140900	0.362100
C1211	C121	0.474000	0.112700	0.424400
C1221	C122	0.479200	0.163600	0.476200
C1231	C123	0.504400	0.242800	0.466700
C1241	C124	0.522900	0.271100	0.405100
C1251	C125	0.454800	0.133600	0.543100
C1261	C126	0.222100	0.998900	0.022300
C1271	C127	0.660600	0.297700	0.629300
C1281	C128	0.735200	0.260600	0.612600
C1291	C129	0.804300	0.305500	0.588500
C1301	C130	0.873100	0.271500	0.575100
C1311	C131	0.872200	0.193000	0.585200
C1321	C132	0.803700	0.147000	0.609400
C1331	C133	0.736100	0.181500	0.623300
C1341	C134	0.955000	0.138700	0.480800
C1351	C135	0.992100	0.199900	0.443600
C1361	C136	0.990700	0.191900	0.376400
C1371	C137	0.952200	0.125600	0.347100
C1381	C138	0.914000	0.066200	0.385700
C1391	C139	0.914900	0.071800	0.452100
C1401	C140	0.955100	0.120300	0.274000
C1411	C141	0.991400	0.589400	0.753600
C1421	C142	0.022800	0.555900	0.692600
C1431	C143	0.060800	0.605700	0.645700
C1441	C144	0.088900	0.576300	0.589200
C1451	C145	0.078800	0.496200	0.580400
C1461	C146	0.041100	0.445500	0.626500
C1471	C147	0.012900	0.476300	0.682400
C1481	C148	0.214100	0.441200	0.529600
C1491	C149	0.354800	0.488500	0.543700
C1501	C150	0.366100	0.417600	0.569700
C1511	C151	0.301800	0.357100	0.573400
C1521	C152	0.225200	0.369000	0.554500
C1531	C153	0.447100	0.404200	0.596400
C1541	C154	0.296700	0.177400	0.686700
C1551	C155	0.214700	0.194100	0.707800
C1561	C156	0.200200	0.270200	0.718000
C1571	C157	0.125100	0.285800	0.737700
C1581	C158	0.063300	0.224100	0.747700
C1591	C159	0.076700	0.147000	0.739000
C1601	C160	0.152400	0.133200	0.718000
C1611	C161	0.984100	0.280000	0.853200
C1621	C162	0.006900	0.359100	0.862100
C1631	C163	0.026000	0.387300	0.924400
C1641	C164	0.020800	0.336400	0.976200
C1651	C165	0.995600	0.257200	0.966700
C1661	C166	0.977100	0.228900	0.905100
C1671	C167	0.045200	0.366400	0.043100
C1681	C168	0.277900	0.501100	0.522300
S11	S1	0.459200	0.649110	0.933560
S21	S2	0.615130	0.957390	0.991540
S31	S3	0.466410	0.743240	0.726790
S41	S4	0.040800	0.850890	0.433560
S51	S5	0.884870	0.542610	0.491540
S61	S6	0.033590	0.756760	0.226790
S71	S7	0.540800	0.350890	0.066440
S81	S8	0.384870	0.042610	0.008460
S91	S9	0.533590	0.256760	0.273210
S101	S10	0.959200	0.149110	0.566440
S111	S11	0.115130	0.457390	0.508460
S121	S12	0.966410	0.243240	0.773210
O11	O1	0.163300	0.869000	0.885600
O21	O2	0.104300	0.757200	0.842400
O31	O3	0.529700	0.704100	0.918000
O41	O4	0.448400	0.571700	0.905800
O51	O5	0.503700	0.670100	0.253860
O61	O6	0.409300	0.566000	0.253600
O71	O7	0.495200	0.161000	0.741100
O81	O8	0.460800	0.038900	0.705000
O91	O9	0.621200	0.017300	0.040380
O101	O10	0.567900	0.883000	0.003690
O111	O11	0.997200	0.963700	0.891400
O121	O12	0.960400	0.835500	0.894800
O131	O13	0.855000	0.732000	0.810480
O141	O14	0.799300	0.607900	0.831200
O151	O15	0.443600	0.805100	0.766170
O161	O16	0.413400	0.670600	0.723100
O171	O17	0.581400	0.935300	0.452500
O181	O18	0.530600	0.824300	0.410000
O191	O19	0.336700	0.631000	0.385600
O201	O20	0.395700	0.742800	0.342400
O211	O21	0.970300	0.795900	0.418000
O221	O22	0.051600	0.928300	0.405800
O231	O23	0.996300	0.829900	0.753860
O241	O24	0.090700	0.934000	0.753600
O251	O25	0.004800	0.339000	0.241100
O261	O26	0.039200	0.461100	0.205000
O271	O27	0.878800	0.482700	0.540380
O281	O28	0.932100	0.617000	0.503690
O291	O29	0.502800	0.536300	0.391400
O301	O30	0.539600	0.664500	0.394800
O311	O31	0.645000	0.768000	0.310480
O321	O32	0.700700	0.892100	0.331200
O331	O33	0.056400	0.694900	0.266170
O341	O34	0.086600	0.829400	0.223100
O351	O35	0.918600	0.564700	0.952500
O361	O36	0.969400	0.675700	0.910000
O371	O37	0.836700	0.131000	0.114400
O381	O38	0.895700	0.242800	0.157600
O391	O39	0.470300	0.295900	0.082000
O401	O40	0.551600	0.428300	0.094200
O411	O41	0.496300	0.329900	0.746140
O421	O42	0.590700	0.434000	0.746400
O431	O43	0.504800	0.839000	0.258900
O441	O44	0.539200	0.961100	0.295000
O451	O45	0.378800	0.982700	0.959620
O461	O46	0.432100	0.117000	0.996310
O471	O47	0.002800	0.036300	0.108600
O481	O48	0.039600	0.164500	0.105200
O491	O49	0.145000	0.268000	0.189520
O501	O50	0.200700	0.392100	0.168800
O511	O51	0.556400	0.194900	0.233830
O521	O52	0.586600	0.329400	0.276900
O531	O53	0.418600	0.064700	0.547500
O541	O54	0.469400	0.175700	0.590000
O551	O55	0.663300	0.369000	0.614400
O561	O56	0.604300	0.257200	0.657600
O571	O57	0.029700	0.204100	0.582000
O581	O58	0.948400	0.071700	0.594200
O591	O59	0.003700	0.170100	0.246140
O601	O60	0.909300	0.066000	0.246400
O611	O61	0.995200	0.661000	0.758900
O621	O62	0.960800	0.538900	0.795000
O631	O63	0.121200	0.517300	0.459620
O641	O64	0.067900	0.383000	0.496310
O651	O65	0.497200	0.463700	0.608600
O661	O66	0.460400	0.335500	0.605200
O671	O67	0.355000	0.232000	0.689520
O681	O68	0.299300	0.107900	0.668800
O691	O69	0.943600	0.305100	0.733830
O701	O70	0.913400	0.170600	0.776900
O711	O71	0.081400	0.435300	0.047500
O721	O72	0.030600	0.324300	0.090000
