data_SUNHOZ_clean_PM
_symmetry_space_group_name_H-M	'P1'
_cell_length_a	8.373400
_cell_length_b	10.574000
_cell_length_c	14.307700
_cell_angle_alpha	101.478000
_cell_angle_beta	103.120000
_cell_angle_gamma	102.247000
_symmetry_Int_Tables_number 1

loop_
_symmetry_equiv_pos_as_xyz
'x,y,z'

loop_
_atom_site_label
_atom_site_type_symbol
_atom_site_fract_x
_atom_site_fract_y
_atom_site_fract_z
Y11	Y1	0.656640	0.660150	0.170720
O11	O1	0.577800	0.828600	0.261900
O21	O2	0.728500	0.002100	0.391700
O31	O3	0.654300	0.449400	0.095580
O41	O4	0.464400	0.284700	0.972560
O51	O5	0.865600	0.864300	0.193300
O61	O6	0.881600	0.693100	0.082380
O71	O7	0.908800	0.647000	0.287340
O81	O8	0.665900	0.575100	0.318560
C11	C1	0.625300	0.050200	0.238200
C21	C2	0.498700	0.012000	0.148400
H11	H1	0.427200	0.925300	0.126300
C31	C3	0.478400	0.102800	0.091500
H21	H2	0.391400	0.076400	0.032300
C41	C4	0.585800	0.232300	0.121300
C51	C5	0.714600	0.270000	0.211300
H31	H3	0.789300	0.355400	0.232100
C61	C6	0.731500	0.180800	0.269900
H41	H4	0.814300	0.208300	0.330800
C71	C7	0.648500	0.954800	0.302800
C81	C8	0.566300	0.330100	0.058500
C91	C9	0.961600	0.912900	0.057300
C101	C10	0.030700	0.874600	0.980900
H51	H5	0.051500	0.790700	0.967900
C111	C11	0.931200	0.038800	0.076200
H61	H6	0.884800	0.064600	0.127800
C121	C12	0.904300	0.817800	0.115200
C131	C13	0.915400	0.543700	0.421800
C141	C14	0.090300	0.559000	0.443200
H71	H7	0.151500	0.598900	0.405100
C151	C15	0.826500	0.484100	0.479900
H81	H8	0.709700	0.473300	0.466600
C161	C16	0.826400	0.591700	0.338500
Y21	Y2	0.343360	0.339850	0.829280
O91	O9	0.422200	0.171400	0.738100
O101	O10	0.271500	0.997900	0.608300
O111	O11	0.345700	0.550600	0.904420
O121	O12	0.535600	0.715300	0.027440
O131	O13	0.134400	0.135700	0.806700
O141	O14	0.118400	0.306900	0.917620
O151	O15	0.091200	0.353000	0.712660
O161	O16	0.334100	0.424900	0.681440
C171	C17	0.374700	0.949800	0.761800
C181	C18	0.501300	0.988000	0.851600
H91	H9	0.572800	0.074700	0.873700
C191	C19	0.521600	0.897200	0.908500
H101	H10	0.608600	0.923600	0.967700
C201	C20	0.414200	0.767700	0.878700
C211	C21	0.285400	0.730000	0.788700
H111	H11	0.210700	0.644600	0.767900
C221	C22	0.268500	0.819200	0.730100
H121	H12	0.185700	0.791700	0.669200
C231	C23	0.351500	0.045200	0.697200
C241	C24	0.433700	0.669900	0.941500
C251	C25	0.038400	0.087100	0.942700
C261	C26	0.969300	0.125400	0.019100
H131	H13	0.948500	0.209300	0.032100
C271	C27	0.068800	0.961200	0.923800
H141	H14	0.115200	0.935400	0.872200
C281	C28	0.095700	0.182200	0.884800
C291	C29	0.084600	0.456300	0.578200
C301	C30	0.909700	0.441000	0.556800
H151	H15	0.848500	0.401100	0.594900
C311	C31	0.173500	0.515900	0.520100
H161	H16	0.290300	0.526700	0.533400
C321	C32	0.173600	0.408300	0.661500
