data_SUNJER_clean_PM
_symmetry_space_group_name_H-M	'P1'
_cell_length_a	9.786300
_cell_length_b	10.296700
_cell_length_c	11.026300
_cell_angle_alpha	76.898000
_cell_angle_beta	76.240000
_cell_angle_gamma	65.487000
_symmetry_Int_Tables_number 1

loop_
_symmetry_equiv_pos_as_xyz
'x,y,z'

loop_
_atom_site_label
_atom_site_type_symbol
_atom_site_fract_x
_atom_site_fract_y
_atom_site_fract_z
Yb11	Yb1	0.944290	0.228140	0.324140
Yb21	Yb2	0.055710	0.771860	0.675860
H11	H1	0.435600	0.416800	0.211000
H21	H2	0.744000	0.497400	0.922700
H31	H3	0.401500	0.882800	0.681800
H41	H4	0.348600	0.141500	0.348700
H51	H5	0.307900	0.922100	0.005300
H61	H6	0.452700	0.188000	0.107000
H71	H7	0.564400	0.583200	0.789000
H81	H8	0.256000	0.502600	0.077300
H91	H9	0.598500	0.117200	0.318200
H101	H10	0.651400	0.858500	0.651300
H111	H11	0.692100	0.077900	0.994700
H121	H12	0.547300	0.812000	0.893000
C11	C1	0.608700	0.448400	0.080600
C21	C2	0.461500	0.450100	0.126500
C31	C3	0.646600	0.498300	0.953900
C41	C4	0.726300	0.387800	0.166900
C51	C5	0.350100	0.013000	0.517600
C61	C6	0.441600	0.929400	0.608600
C71	C7	0.409600	0.084500	0.409100
C81	C8	0.189500	0.021900	0.533000
C91	C9	0.355400	0.066000	0.067800
C101	C10	0.385000	0.953400	0.003200
C111	C11	0.471500	0.112700	0.064200
C121	C12	0.203000	0.132400	0.148200
C131	C13	0.391300	0.551600	0.919400
C141	C14	0.538500	0.549900	0.873500
C151	C15	0.353400	0.501700	0.046100
C161	C16	0.273700	0.612200	0.833100
C171	C17	0.649900	0.987000	0.482400
C181	C18	0.558400	0.070600	0.391400
C191	C19	0.590400	0.915500	0.590900
C201	C20	0.810500	0.978100	0.467000
C211	C21	0.644600	0.934000	0.932200
C221	C22	0.615000	0.046600	0.996800
C231	C23	0.528500	0.887300	0.935800
C241	C24	0.797000	0.867600	0.851800
O11	O1	0.861500	0.374200	0.123900
O21	O2	0.685700	0.350200	0.281900
O31	O3	0.114700	0.099500	0.446600
O41	O4	0.140800	0.950700	0.629400
O51	O5	0.169000	0.250000	0.186200
O61	O6	0.113300	0.065500	0.180300
O71	O7	0.138500	0.625800	0.876100
O81	O8	0.314300	0.649800	0.718100
O91	O9	0.885300	0.900500	0.553400
O101	O10	0.859200	0.049300	0.370600
O111	O11	0.831000	0.750000	0.813800
O121	O12	0.886700	0.934500	0.819700
