data_SUNJIV_clean_PM
_symmetry_space_group_name_H-M	'P1'
_cell_length_a	9.828300
_cell_length_b	10.436200
_cell_length_c	11.076000
_cell_angle_alpha	76.894000
_cell_angle_beta	76.296000
_cell_angle_gamma	65.999000
_symmetry_Int_Tables_number 1

loop_
_symmetry_equiv_pos_as_xyz
'x,y,z'

loop_
_atom_site_label
_atom_site_type_symbol
_atom_site_fract_x
_atom_site_fract_y
_atom_site_fract_z
Dy11	Dy1	0.944930	0.228080	0.822910
Dy21	Dy2	0.055070	0.771920	0.177090
H11	H1	0.307800	0.922200	0.506300
H21	H2	0.455200	0.184900	0.604900
H31	H3	0.435700	0.414900	0.709000
H41	H4	0.740000	0.502300	0.423800
H51	H5	0.600300	0.118200	0.821000
H61	H6	0.649400	0.859600	0.150100
H71	H7	0.692200	0.077800	0.493700
H81	H8	0.544800	0.815100	0.395100
H91	H9	0.564300	0.585100	0.291000
H101	H10	0.260000	0.497700	0.576200
H111	H11	0.399700	0.881800	0.179000
H121	H12	0.350600	0.140400	0.849900
C11	C1	0.356900	0.065100	0.567400
C21	C2	0.384600	0.953500	0.503900
C31	C3	0.473100	0.110600	0.562700
C41	C4	0.205400	0.131600	0.645600
C51	C5	0.608000	0.448600	0.579300
C61	C6	0.461500	0.448700	0.625100
C71	C7	0.643900	0.501000	0.454400
C81	C8	0.723600	0.389300	0.665100
C91	C9	0.649300	0.986100	0.983000
C101	C10	0.560000	0.070800	0.892700
C111	C11	0.589500	0.915900	0.089800
C121	C12	0.809600	0.976800	0.966900
C131	C13	0.643100	0.934900	0.432600
C141	C14	0.615400	0.046500	0.496100
C151	C15	0.526900	0.889400	0.437300
C161	C16	0.794600	0.868400	0.354400
C171	C17	0.392000	0.551400	0.420700
C181	C18	0.538500	0.551300	0.374900
C191	C19	0.356100	0.499000	0.545600
C201	C20	0.276400	0.610700	0.334900
C211	C21	0.350700	0.013900	0.017000
C221	C22	0.440000	0.929200	0.107300
C231	C23	0.410500	0.084100	0.910200
C241	C24	0.190400	0.023200	0.033100
O11	O1	0.172340	0.247580	0.681670
O21	O2	0.116700	0.064700	0.678170
O31	O3	0.685100	0.350000	0.779600
O41	O4	0.858000	0.376800	0.623190
O51	O5	0.857320	0.047380	0.872300
O61	O6	0.884000	0.897700	0.050580
O71	O7	0.827660	0.752420	0.318330
O81	O8	0.883300	0.935300	0.321830
O91	O9	0.314900	0.650000	0.220400
O101	O10	0.142000	0.623200	0.376810
O111	O11	0.142680	0.952620	0.127700
O121	O12	0.116000	0.102300	0.949420
