data_SUNJOB01_clean_PM
_symmetry_space_group_name_H-M	'P1'
_cell_length_a	9.813500
_cell_length_b	10.431000
_cell_length_c	11.067100
_cell_angle_alpha	76.843000
_cell_angle_beta	76.276000
_cell_angle_gamma	65.940000
_symmetry_Int_Tables_number 1

loop_
_symmetry_equiv_pos_as_xyz
'x,y,z'

loop_
_atom_site_label
_atom_site_type_symbol
_atom_site_fract_x
_atom_site_fract_y
_atom_site_fract_z
Ho11	Ho1	0.944860	0.228040	0.823180
Ho21	Ho2	0.055140	0.771960	0.176820
H11	H1	0.650000	0.856200	0.149100
H21	H2	0.599300	0.116200	0.819100
H31	H3	0.436100	0.413800	0.708000
H41	H4	0.739900	0.502600	0.423700
H51	H5	0.308300	0.923100	0.507200
H61	H6	0.455800	0.184900	0.604200
H71	H7	0.350000	0.143800	0.850900
H81	H8	0.400700	0.883800	0.180900
H91	H9	0.563900	0.586200	0.292000
H101	H10	0.260100	0.497400	0.576300
H111	H11	0.691700	0.076900	0.492800
H121	H12	0.544200	0.815100	0.395800
C11	C1	0.651600	0.987200	0.983200
C21	C2	0.589700	0.915000	0.089600
C31	C3	0.559200	0.070400	0.892300
C41	C4	0.809700	0.976200	0.968400
C51	C5	0.608900	0.447800	0.580400
C61	C6	0.462200	0.448300	0.624200
C71	C7	0.643700	0.501100	0.454800
C81	C8	0.356200	0.065100	0.567500
C91	C9	0.385200	0.954500	0.504600
C101	C10	0.473100	0.110400	0.562300
C111	C11	0.205000	0.132200	0.647100
C121	C12	0.723400	0.388300	0.664400
C131	C13	0.348400	0.012800	0.016800
C141	C14	0.410300	0.085000	0.910400
C151	C15	0.440800	0.929600	0.107700
C161	C16	0.190300	0.023800	0.031600
C171	C17	0.391100	0.552200	0.419600
C181	C18	0.537800	0.551700	0.375800
C191	C19	0.356300	0.498900	0.545200
C201	C20	0.643800	0.934900	0.432500
C211	C21	0.614800	0.045500	0.495400
C221	C22	0.526900	0.889600	0.437700
C231	C23	0.795000	0.867800	0.352900
C241	C24	0.276600	0.611700	0.335600
O11	O1	0.857600	0.047700	0.872500
O21	O2	0.885100	0.898100	0.052300
O31	O3	0.858700	0.375000	0.624300
O41	O4	0.171900	0.247900	0.682600
O51	O5	0.115700	0.065100	0.680600
O61	O6	0.688500	0.351000	0.780900
O71	O7	0.142400	0.952300	0.127500
O81	O8	0.114900	0.101900	0.947700
O91	O9	0.141300	0.625000	0.375700
O101	O10	0.828100	0.752100	0.317400
O111	O11	0.884300	0.934900	0.319400
O121	O12	0.311500	0.649000	0.219100
