data_SUNLET_clean_PM
_symmetry_space_group_name_H-M	'P1'
_cell_length_a	27.096400
_cell_length_b	30.490100
_cell_length_c	30.490100
_cell_angle_alpha	78.612400
_cell_angle_beta	63.618400
_cell_angle_gamma	63.618400
_symmetry_Int_Tables_number 1

loop_
_symmetry_equiv_pos_as_xyz
'x,y,z'

loop_
_atom_site_label
_atom_site_type_symbol
_atom_site_fract_x
_atom_site_fract_y
_atom_site_fract_z
Cu11	Cu1	0.975060	0.033900	0.033900
Cu21	Cu2	0.542860	0.466100	0.466090
Cu31	Cu3	0.457140	0.533900	0.533910
Cu41	Cu4	0.024940	0.966100	0.966100
Cu51	Cu5	0.460610	0.750000	0.750000
Cu61	Cu6	0.557860	0.750000	0.750000
Cu71	Cu7	0.539390	0.250000	0.250000
Cu81	Cu8	0.442140	0.250000	0.250000
H11	H1	0.123700	0.035400	0.849600
H21	H2	0.126700	0.217600	0.823000
H31	H3	0.084000	0.117700	0.958100
H41	H4	0.272300	0.058700	0.799100
H51	H5	0.173700	0.081400	0.793000
H61	H6	0.137500	0.161000	0.901600
H71	H7	0.374300	0.151200	0.693000
H81	H8	0.461900	0.993200	0.734600
H91	H9	0.307800	0.987500	0.758900
H101	H10	0.422100	0.068100	0.692900
H111	H11	0.352400	0.903400	0.758000
H121	H12	0.507300	0.908700	0.737900
H131	H13	0.115600	0.295600	0.838000
H141	H14	0.082200	0.300600	0.804400
H151	H15	0.138400	0.363100	0.791300
H161	H16	0.070300	0.376700	0.828500
H171	H17	0.089500	0.371300	0.771900
H181	H18	0.508700	0.464600	0.650400
H191	H19	0.667300	0.282400	0.677000
H201	H20	0.659800	0.382300	0.541900
H211	H21	0.630100	0.441300	0.700900
H221	H22	0.548100	0.418600	0.707000
H231	H23	0.700100	0.339000	0.598400
H241	H24	0.718500	0.348800	0.807000
H251	H25	0.689700	0.506800	0.765400
H261	H26	0.554200	0.512500	0.741100
H271	H27	0.683100	0.431900	0.807100
H281	H28	0.513800	0.596600	0.742000
H291	H29	0.653900	0.591300	0.762100
H301	H30	0.749200	0.204400	0.662000
H311	H31	0.687200	0.199400	0.695600
H321	H32	0.792800	0.136900	0.708700
H331	H33	0.775500	0.123300	0.671500
H341	H34	0.732700	0.128700	0.728100
H351	H35	0.491300	0.349600	0.535400
H361	H36	0.332700	0.323000	0.717600
H371	H37	0.340200	0.458100	0.617700
H381	H38	0.369900	0.299100	0.558700
H391	H39	0.451900	0.293000	0.581400
H401	H40	0.299900	0.401600	0.661000
H411	H41	0.281500	0.193000	0.651200
H421	H42	0.310300	0.234600	0.493200
H431	H43	0.445800	0.258900	0.487500
H441	H44	0.316900	0.192900	0.568100
H451	H45	0.486200	0.258000	0.403400
H461	H46	0.346100	0.237900	0.408700
H471	H47	0.250800	0.338000	0.795600
H481	H48	0.312800	0.304400	0.800600
H491	H49	0.207200	0.291300	0.863100
H501	H50	0.224500	0.328500	0.876700
H511	H51	0.267300	0.271900	0.871300
H521	H52	0.876300	0.150400	0.964600
H531	H53	0.873300	0.177000	0.782400
H541	H54	0.916000	0.041900	0.882300
H551	H55	0.727700	0.200900	0.941300
H561	H56	0.826300	0.207000	0.918600
H571	H57	0.862500	0.098400	0.839000
H581	H58	0.625700	0.307000	0.848800
H591	H59	0.538100	0.265400	0.006800
H601	H60	0.692200	0.241100	0.012500
H611	H61	0.577900	0.307100	0.931900
H621	H62	0.647600	0.242000	0.096600
H631	H63	0.492700	0.262100	0.091300
H641	H64	0.884400	0.162000	0.704400
H651	H65	0.917800	0.195600	0.699400
H661	H66	0.861600	0.208700	0.636900
H671	H67	0.929700	0.171500	0.623300
H681	H68	0.910500	0.228100	0.628700
H691	H69	0.876300	0.964600	0.150400
H701	H70	0.873300	0.782400	0.177000
H711	H71	0.916000	0.882300	0.041900
H721	H72	0.727700	0.941300	0.200900
H731	H73	0.826300	0.918600	0.207000
H741	H74	0.862500	0.839000	0.098400
H751	H75	0.625700	0.848800	0.307000
H761	H76	0.538100	0.006800	0.265400
H771	H77	0.692200	0.012500	0.241100
H781	H78	0.577900	0.931900	0.307100
H791	H79	0.647600	0.096600	0.242000
H801	H80	0.492700	0.091300	0.262100
H811	H81	0.884400	0.704400	0.162000
H821	H82	0.917800	0.699400	0.195600
H831	H83	0.861600	0.636900	0.208700
H841	H84	0.929700	0.623300	0.171500
H851	H85	0.910500	0.628700	0.228100
H861	H86	0.491300	0.535400	0.349600
H871	H87	0.332700	0.717600	0.323000
H881	H88	0.340200	0.617700	0.458100
H891	H89	0.369900	0.558700	0.299100
H901	H90	0.451900	0.581400	0.293000
H911	H91	0.299900	0.661000	0.401600
H921	H92	0.281500	0.651200	0.193000
H931	H93	0.310300	0.493200	0.234600
H941	H94	0.445800	0.487500	0.258900
H951	H95	0.316900	0.568100	0.192900
H961	H96	0.486200	0.403400	0.258000
H971	H97	0.346100	0.408700	0.237900
H981	H98	0.250800	0.795600	0.338000
H991	H99	0.312800	0.800600	0.304400
H1001	H100	0.207200	0.863100	0.291300
H1011	H101	0.224500	0.876700	0.328500
H1021	H102	0.267300	0.871300	0.271900
H1031	H103	0.508700	0.650400	0.464600
H1041	H104	0.667300	0.677000	0.282400
H1051	H105	0.659800	0.541900	0.382300
H1061	H106	0.630100	0.700900	0.441300
H1071	H107	0.548100	0.707000	0.418600
H1081	H108	0.700100	0.598400	0.339000
H1091	H109	0.718500	0.807000	0.348800
H1101	H110	0.689700	0.765400	0.506800
H1111	H111	0.554200	0.741100	0.512500
H1121	H112	0.683100	0.807100	0.431900
H1131	H113	0.513800	0.742000	0.596600
H1141	H114	0.653900	0.762100	0.591300
H1151	H115	0.749200	0.662000	0.204400
H1161	H116	0.687200	0.695600	0.199400
H1171	H117	0.792800	0.708700	0.136900
H1181	H118	0.775500	0.671500	0.123300
H1191	H119	0.732700	0.728100	0.128700
H1201	H120	0.123700	0.849600	0.035400
H1211	H121	0.126700	0.823000	0.217600
H1221	H122	0.084000	0.958100	0.117700
H1231	H123	0.272300	0.799100	0.058700
H1241	H124	0.173700	0.793000	0.081400
H1251	H125	0.137500	0.901600	0.161000
H1261	H126	0.374300	0.693000	0.151200
H1271	H127	0.461900	0.734600	0.993200
H1281	H128	0.307800	0.758900	0.987500
H1291	H129	0.422100	0.692900	0.068100
H1301	H130	0.352400	0.758000	0.903400
H1311	H131	0.507300	0.737900	0.908700
H1321	H132	0.115600	0.838000	0.295600
H1331	H133	0.082200	0.804400	0.300600
H1341	H134	0.138400	0.791300	0.363100
H1351	H135	0.070300	0.828500	0.376700
H1361	H136	0.089500	0.771900	0.371300
C11	C1	0.066370	0.042600	0.946160
C21	C2	0.100290	0.071540	0.909760
C31	C3	0.290780	0.157620	0.742600
C41	C4	0.126500	0.060780	0.860320
C51	C5	0.168070	0.202220	0.803180
C61	C6	0.198840	0.230970	0.771090
C71	C7	0.259320	0.128870	0.775190
C81	C8	0.103430	0.109320	0.924760
C91	C9	0.292230	0.077400	0.776360
C101	C10	0.163160	0.124260	0.841700
C111	C11	0.258770	0.209510	0.741330
C121	C12	0.197250	0.152630	0.805910
C131	C13	0.157000	0.087970	0.826610
C141	C14	0.135190	0.135390	0.890830
C151	C15	0.351270	0.053900	0.746100
C161	C16	0.352360	0.132910	0.713530
C171	C17	0.463210	0.841720	0.749460
C181	C18	0.439200	0.975040	0.740300
C191	C19	0.348560	0.971370	0.754030
C201	C20	0.434950	0.896580	0.749340
C211	C21	0.380880	0.999240	0.746640
C221	C22	0.381230	0.083290	0.714170
C231	C23	0.374670	0.921340	0.754360
C241	C24	0.466820	0.924240	0.741900
C251	C25	0.114150	0.306400	0.805900
C261	C26	0.102060	0.358880	0.798800
C271	C27	0.555130	0.457400	0.553840
C281	C28	0.581590	0.428460	0.590240
C291	C29	0.691000	0.342380	0.757400
C301	C30	0.547600	0.439220	0.639680
C311	C31	0.673470	0.297780	0.696820
C321	C32	0.700900	0.269030	0.728910
C331	C33	0.663380	0.371130	0.724810
C341	C34	0.637510	0.390680	0.575240
C351	C35	0.645990	0.422600	0.723640
C361	C36	0.629120	0.375740	0.658300
C371	C37	0.709610	0.290490	0.758670
C381	C38	0.655790	0.347370	0.694090
C391	C39	0.571580	0.412030	0.673390
C401	C40	0.661410	0.364610	0.609170
C411	C41	0.651270	0.446100	0.753900
C421	C42	0.698800	0.367090	0.786470
C431	C43	0.554390	0.658280	0.750540
C441	C44	0.654540	0.524960	0.759700
C451	C45	0.573960	0.528630	0.745970
C461	C46	0.580870	0.603420	0.750660
C471	C47	0.626760	0.500760	0.753360
C481	C48	0.678690	0.416710	0.785830
C491	C49	0.550370	0.578660	0.745640
C501	C50	0.632960	0.575760	0.758100
C511	C51	0.726450	0.193600	0.694100
C521	C52	0.759740	0.141120	0.701200
C531	C53	0.444870	0.446160	0.542600
C541	C54	0.418410	0.409760	0.571540
C551	C55	0.309000	0.242600	0.657620
C561	C56	0.452400	0.360320	0.560780
C571	C57	0.326530	0.303180	0.702220
C581	C58	0.299100	0.271090	0.730970
C591	C59	0.336620	0.275190	0.628870
C601	C60	0.362490	0.424760	0.609320
C611	C61	0.354010	0.276360	0.577400
C621	C62	0.370880	0.341700	0.624260
C631	C63	0.290390	0.241330	0.709510
C641	C64	0.344210	0.305910	0.652630
C651	C65	0.428420	0.326610	0.587970
C661	C66	0.338590	0.390830	0.635390
C671	C67	0.348730	0.246100	0.553900
C681	C68	0.301200	0.213530	0.632910
C691	C69	0.445610	0.249460	0.341720
C701	C70	0.345460	0.240300	0.475040
C711	C71	0.426040	0.254030	0.471370
C721	C72	0.419130	0.249340	0.396580
C731	C73	0.373240	0.246640	0.499240
C741	C74	0.321310	0.214170	0.583290
C751	C75	0.449630	0.254360	0.421340
C761	C76	0.367040	0.241900	0.424240
C771	C77	0.273550	0.305900	0.806400
C781	C78	0.240260	0.298800	0.858880
C791	C79	0.933630	0.053840	0.957400
C801	C80	0.899710	0.090240	0.928460
C811	C81	0.709220	0.257400	0.842380
C821	C82	0.873500	0.139680	0.939220
C831	C83	0.831930	0.196820	0.797780
C841	C84	0.801160	0.228910	0.769030
C851	C85	0.740680	0.224810	0.871130
C861	C86	0.896570	0.075240	0.890680
C871	C87	0.707770	0.223640	0.922600
C881	C88	0.836840	0.158300	0.875740
C891	C89	0.741230	0.258670	0.790490
C901	C90	0.802750	0.194090	0.847370
C911	C91	0.843000	0.173390	0.912030
C921	C92	0.864810	0.109170	0.864610
C931	C93	0.648730	0.253900	0.946100
C941	C94	0.647640	0.286470	0.867090
C951	C95	0.536790	0.250540	0.158280
C961	C96	0.560800	0.259700	0.024960
C971	C97	0.651440	0.245970	0.028630
C981	C98	0.565050	0.250660	0.103420
C991	C99	0.619120	0.253360	0.000760
C1001	C100	0.618770	0.285830	0.916710
C1011	C101	0.625330	0.245640	0.078660
C1021	C102	0.533180	0.258100	0.075760
C1031	C103	0.885850	0.194100	0.693600
C1041	C104	0.897940	0.201200	0.641120
C1051	C105	0.933630	0.957400	0.053840
C1061	C106	0.899710	0.928460	0.090240
C1071	C107	0.709220	0.842380	0.257400
C1081	C108	0.873500	0.939220	0.139680
C1091	C109	0.831930	0.797780	0.196820
C1101	C110	0.801160	0.769030	0.228910
C1111	C111	0.740680	0.871130	0.224810
C1121	C112	0.896570	0.890680	0.075240
C1131	C113	0.707770	0.922600	0.223640
C1141	C114	0.836840	0.875740	0.158300
C1151	C115	0.741230	0.790490	0.258670
C1161	C116	0.802750	0.847370	0.194090
C1171	C117	0.843000	0.912030	0.173390
C1181	C118	0.864810	0.864610	0.109170
C1191	C119	0.648730	0.946100	0.253900
C1201	C120	0.647640	0.867090	0.286470
C1211	C121	0.536790	0.158280	0.250540
C1221	C122	0.560800	0.024960	0.259700
C1231	C123	0.651440	0.028630	0.245970
C1241	C124	0.565050	0.103420	0.250660
C1251	C125	0.619120	0.000760	0.253360
C1261	C126	0.618770	0.916710	0.285830
C1271	C127	0.625330	0.078660	0.245640
C1281	C128	0.533180	0.075760	0.258100
C1291	C129	0.885850	0.693600	0.194100
C1301	C130	0.897940	0.641120	0.201200
C1311	C131	0.444870	0.542600	0.446160
C1321	C132	0.418410	0.571540	0.409760
C1331	C133	0.309000	0.657620	0.242600
C1341	C134	0.452400	0.560780	0.360320
C1351	C135	0.326530	0.702220	0.303180
C1361	C136	0.299100	0.730970	0.271090
C1371	C137	0.336620	0.628870	0.275190
C1381	C138	0.362490	0.609320	0.424760
C1391	C139	0.354010	0.577400	0.276360
C1401	C140	0.370880	0.624260	0.341700
C1411	C141	0.290390	0.709510	0.241330
C1421	C142	0.344210	0.652630	0.305910
C1431	C143	0.428420	0.587970	0.326610
C1441	C144	0.338590	0.635390	0.390830
C1451	C145	0.348730	0.553900	0.246100
C1461	C146	0.301200	0.632910	0.213530
C1471	C147	0.445610	0.341720	0.249460
C1481	C148	0.345460	0.475040	0.240300
C1491	C149	0.426040	0.471370	0.254030
C1501	C150	0.419130	0.396580	0.249340
C1511	C151	0.373240	0.499240	0.246640
C1521	C152	0.321310	0.583290	0.214170
C1531	C153	0.449630	0.421340	0.254360
C1541	C154	0.367040	0.424240	0.241900
C1551	C155	0.273550	0.806400	0.305900
C1561	C156	0.240260	0.858880	0.298800
C1571	C157	0.555130	0.553840	0.457400
C1581	C158	0.581590	0.590240	0.428460
C1591	C159	0.691000	0.757400	0.342380
C1601	C160	0.547600	0.639680	0.439220
C1611	C161	0.673470	0.696820	0.297780
C1621	C162	0.700900	0.728910	0.269030
C1631	C163	0.663380	0.724810	0.371130
C1641	C164	0.637510	0.575240	0.390680
C1651	C165	0.645990	0.723640	0.422600
C1661	C166	0.629120	0.658300	0.375740
C1671	C167	0.709610	0.758670	0.290490
C1681	C168	0.655790	0.694090	0.347370
C1691	C169	0.571580	0.673390	0.412030
C1701	C170	0.661410	0.609170	0.364610
C1711	C171	0.651270	0.753900	0.446100
C1721	C172	0.698800	0.786470	0.367090
C1731	C173	0.554390	0.750540	0.658280
C1741	C174	0.654540	0.759700	0.524960
C1751	C175	0.573960	0.745970	0.528630
C1761	C176	0.580870	0.750660	0.603420
C1771	C177	0.626760	0.753360	0.500760
C1781	C178	0.678690	0.785830	0.416710
C1791	C179	0.550370	0.745640	0.578660
C1801	C180	0.632960	0.758100	0.575760
C1811	C181	0.726450	0.694100	0.193600
C1821	C182	0.759740	0.701200	0.141120
C1831	C183	0.066370	0.946160	0.042600
C1841	C184	0.100290	0.909760	0.071540
C1851	C185	0.290780	0.742600	0.157620
C1861	C186	0.126500	0.860320	0.060780
C1871	C187	0.168070	0.803180	0.202220
C1881	C188	0.198840	0.771090	0.230970
C1891	C189	0.259320	0.775190	0.128870
C1901	C190	0.103430	0.924760	0.109320
C1911	C191	0.292230	0.776360	0.077400
C1921	C192	0.163160	0.841700	0.124260
C1931	C193	0.258770	0.741330	0.209510
C1941	C194	0.197250	0.805910	0.152630
C1951	C195	0.157000	0.826610	0.087970
C1961	C196	0.135190	0.890830	0.135390
C1971	C197	0.351270	0.746100	0.053900
C1981	C198	0.352360	0.713530	0.132910
C1991	C199	0.463210	0.749460	0.841720
C2001	C200	0.439200	0.740300	0.975040
C2011	C201	0.348560	0.754030	0.971370
C2021	C202	0.434950	0.749340	0.896580
C2031	C203	0.380880	0.746640	0.999240
C2041	C204	0.381230	0.714170	0.083290
C2051	C205	0.374670	0.754360	0.921340
C2061	C206	0.466820	0.741900	0.924240
C2071	C207	0.114150	0.805900	0.306400
C2081	C208	0.102060	0.798800	0.358880
O11	O1	0.033270	0.060080	0.987960
O21	O2	0.432940	0.820190	0.749970
O31	O3	0.074030	0.003610	0.930050
O41	O4	0.515020	0.821520	0.749900
O51	O5	0.171190	0.280050	0.767550
O61	O6	0.581310	0.439920	0.512040
O71	O7	0.503100	0.679810	0.750030
O81	O8	0.507690	0.496390	0.569950
O91	O9	0.586440	0.678480	0.750100
O101	O10	0.718790	0.219950	0.732450
O111	O11	0.418690	0.487960	0.560080
O121	O12	0.496900	0.249970	0.320190
O131	O13	0.492310	0.430050	0.503610
O141	O14	0.413560	0.249900	0.321520
O151	O15	0.281210	0.267550	0.780050
O161	O16	0.966730	0.012040	0.939920
O171	O17	0.567060	0.250030	0.179810
O181	O18	0.925970	0.069950	0.996390
O191	O19	0.484980	0.250100	0.178480
O201	O20	0.828810	0.232450	0.719950
O211	O21	0.966730	0.939920	0.012040
O221	O22	0.567060	0.179810	0.250030
O231	O23	0.925970	0.996390	0.069950
O241	O24	0.484980	0.178480	0.250100
O251	O25	0.828810	0.719950	0.232450
O261	O26	0.418690	0.560080	0.487960
O271	O27	0.496900	0.320190	0.249970
O281	O28	0.492310	0.503610	0.430050
O291	O29	0.413560	0.321520	0.249900
O301	O30	0.281210	0.780050	0.267550
O311	O31	0.581310	0.512040	0.439920
O321	O32	0.503100	0.750030	0.679810
O331	O33	0.507690	0.569950	0.496390
O341	O34	0.586440	0.750100	0.678480
O351	O35	0.718790	0.732450	0.219950
O361	O36	0.033270	0.987960	0.060080
O371	O37	0.432940	0.749970	0.820190
O381	O38	0.074030	0.930050	0.003610
O391	O39	0.515020	0.749900	0.821520
O401	O40	0.171190	0.767550	0.280050
Cu91	Cu9	0.508950	0.966100	0.533910
Cu101	Cu10	0.508960	0.533900	0.966100
Cu111	Cu11	0.491050	0.033900	0.466090
Cu121	Cu12	0.491040	0.466100	0.033900
Cu131	Cu13	0.710610	0.250000	0.250000
Cu141	Cu14	0.807860	0.250000	0.250000
Cu151	Cu15	0.289390	0.750000	0.750000
Cu161	Cu16	0.192140	0.750000	0.750000
H1371	H137	0.473300	0.150400	0.535400
H1381	H138	0.449700	0.177000	0.717600
H1391	H139	0.542100	0.041900	0.617700
H1401	H140	0.571400	0.200900	0.558700
H1411	H141	0.466700	0.207000	0.581400
H1421	H142	0.539100	0.098400	0.661000
H1431	H143	0.567300	0.307000	0.651200
H1441	H144	0.696500	0.265400	0.493200
H1451	H145	0.566700	0.241100	0.487500
H1461	H146	0.615000	0.307100	0.568100
H1471	H147	0.610400	0.242000	0.403400
H1481	H148	0.745200	0.262100	0.408700
H1491	H149	0.453600	0.162000	0.795600
H1501	H150	0.386600	0.195600	0.800600
H1511	H151	0.429700	0.208700	0.863100
H1521	H152	0.398800	0.171500	0.876700
H1531	H153	0.361400	0.228100	0.871300
H1541	H154	0.659100	0.349600	0.964600
H1551	H155	0.844300	0.323000	0.782400
H1561	H156	0.701700	0.458100	0.882300
H1571	H157	0.831000	0.299100	0.941300
H1581	H158	0.755100	0.293000	0.918600
H1591	H159	0.798500	0.401600	0.839000
H1601	H160	0.025500	0.193000	0.848800
H1611	H161	0.955100	0.234600	0.006800
H1621	H162	0.795300	0.258900	0.012500
H1631	H163	0.990200	0.192900	0.931900
H1641	H164	0.755800	0.258000	0.096600
H1651	H165	0.916000	0.237900	0.091300
H1661	H166	0.911200	0.338000	0.704400
H1671	H167	0.882800	0.304400	0.699400
H1681	H168	0.001500	0.291300	0.636900
H1691	H169	0.947000	0.328500	0.623300
H1701	H170	0.960800	0.271900	0.628700
H1711	H171	0.340900	0.035400	0.650400
H1721	H172	0.155700	0.217600	0.677000
H1731	H173	0.298300	0.117700	0.541900
H1741	H174	0.169000	0.058700	0.700900
H1751	H175	0.244900	0.081400	0.707000
H1761	H176	0.201500	0.161000	0.598400
H1771	H177	0.974500	0.151200	0.807000
H1781	H178	0.044900	0.993200	0.765400
H1791	H179	0.204700	0.987500	0.741100
H1801	H180	0.009800	0.068100	0.807100
H1811	H181	0.244200	0.903400	0.742000
H1821	H182	0.084000	0.908700	0.762100
H1831	H183	0.088800	0.295600	0.662000
H1841	H184	0.117200	0.300600	0.695600
H1851	H185	0.998500	0.363100	0.708700
H1861	H186	0.053000	0.376700	0.671500
H1871	H187	0.039200	0.371300	0.728100
H1881	H188	0.526700	0.464600	0.849600
H1891	H189	0.550300	0.282400	0.823000
H1901	H190	0.457900	0.382300	0.958100
H1911	H191	0.428600	0.441300	0.799100
H1921	H192	0.533300	0.418600	0.793000
H1931	H193	0.460900	0.339000	0.901600
H1941	H194	0.432700	0.348800	0.693000
H1951	H195	0.303500	0.506800	0.734600
H1961	H196	0.433300	0.512500	0.758900
H1971	H197	0.385000	0.431900	0.692900
H1981	H198	0.389600	0.596600	0.758000
H1991	H199	0.254800	0.591300	0.737900
H2001	H200	0.546400	0.204400	0.838000
H2011	H201	0.613400	0.199400	0.804400
H2021	H202	0.570300	0.136900	0.791300
H2031	H203	0.601200	0.123300	0.828500
H2041	H204	0.638600	0.128700	0.771900
H2051	H205	0.526700	0.849600	0.464600
H2061	H206	0.550300	0.823000	0.282400
H2071	H207	0.457900	0.958100	0.382300
H2081	H208	0.428600	0.799100	0.441300
H2091	H209	0.533300	0.793000	0.418600
H2101	H210	0.460900	0.901600	0.339000
H2111	H211	0.432700	0.693000	0.348800
H2121	H212	0.303500	0.734600	0.506800
H2131	H213	0.433300	0.758900	0.512500
H2141	H214	0.385000	0.692900	0.431900
H2151	H215	0.389600	0.758000	0.596600
H2161	H216	0.254800	0.737900	0.591300
H2171	H217	0.546400	0.838000	0.204400
H2181	H218	0.613400	0.804400	0.199400
H2191	H219	0.570300	0.791300	0.136900
H2201	H220	0.601200	0.828500	0.123300
H2211	H221	0.638600	0.771900	0.128700
H2221	H222	0.340900	0.650400	0.035400
H2231	H223	0.155700	0.677000	0.217600
H2241	H224	0.298300	0.541900	0.117700
H2251	H225	0.169000	0.700900	0.058700
H2261	H226	0.244900	0.707000	0.081400
H2271	H227	0.201500	0.598400	0.161000
H2281	H228	0.974500	0.807000	0.151200
H2291	H229	0.044900	0.765400	0.993200
H2301	H230	0.204700	0.741100	0.987500
H2311	H231	0.009800	0.807100	0.068100
H2321	H232	0.244200	0.742000	0.903400
H2331	H233	0.084000	0.762100	0.908700
H2341	H234	0.088800	0.662000	0.295600
H2351	H235	0.117200	0.695600	0.300600
H2361	H236	0.998500	0.708700	0.363100
H2371	H237	0.053000	0.671500	0.376700
H2381	H238	0.039200	0.728100	0.371300
H2391	H239	0.659100	0.964600	0.349600
H2401	H240	0.844300	0.782400	0.323000
H2411	H241	0.701700	0.882300	0.458100
H2421	H242	0.831000	0.941300	0.299100
H2431	H243	0.755100	0.918600	0.293000
H2441	H244	0.798500	0.839000	0.401600
H2451	H245	0.025500	0.848800	0.193000
H2461	H246	0.955100	0.006800	0.234600
H2471	H247	0.795300	0.012500	0.258900
H2481	H248	0.990200	0.931900	0.192900
H2491	H249	0.755800	0.096600	0.258000
H2501	H250	0.916000	0.091300	0.237900
H2511	H251	0.911200	0.704400	0.338000
H2521	H252	0.882800	0.699400	0.304400
H2531	H253	0.001500	0.636900	0.291300
H2541	H254	0.947000	0.623300	0.328500
H2551	H255	0.960800	0.628700	0.271900
H2561	H256	0.473300	0.535400	0.150400
H2571	H257	0.449700	0.717600	0.177000
H2581	H258	0.542100	0.617700	0.041900
H2591	H259	0.571400	0.558700	0.200900
H2601	H260	0.466700	0.581400	0.207000
H2611	H261	0.539100	0.661000	0.098400
H2621	H262	0.567300	0.651200	0.307000
H2631	H263	0.696500	0.493200	0.265400
H2641	H264	0.566700	0.487500	0.241100
H2651	H265	0.615000	0.568100	0.307100
H2661	H266	0.610400	0.403400	0.242000
H2671	H267	0.745200	0.408700	0.262100
H2681	H268	0.453600	0.795600	0.162000
H2691	H269	0.386600	0.800600	0.195600
H2701	H270	0.429700	0.863100	0.208700
H2711	H271	0.398800	0.876700	0.171500
H2721	H272	0.361400	0.871300	0.228100
C2091	C209	0.512530	0.053840	0.542600
C2101	C210	0.510050	0.090240	0.571540
C2111	C211	0.533380	0.257400	0.657620
C2121	C212	0.486820	0.139680	0.560780
C2131	C213	0.471250	0.196820	0.702220
C2141	C214	0.469930	0.228910	0.730970
C2151	C215	0.534510	0.224810	0.628870
C2161	C216	0.528190	0.075240	0.609320
C2171	C217	0.568590	0.223640	0.577400
C2181	C218	0.504860	0.158300	0.624260
C2191	C219	0.500100	0.258670	0.709510
C2201	C220	0.503160	0.194090	0.652630
C2211	C221	0.483610	0.173390	0.587970
C2221	C222	0.526020	0.109170	0.635390
C2231	C223	0.597370	0.253900	0.553900
C2241	C224	0.565890	0.286470	0.632910
C2251	C225	0.712670	0.250540	0.341720
C2261	C226	0.679500	0.259700	0.475040
C2271	C227	0.602590	0.245970	0.471370
C2281	C228	0.684290	0.250660	0.396580
C2291	C229	0.627520	0.253360	0.499240
C2301	C230	0.595400	0.285830	0.583290
C2311	C231	0.629030	0.245640	0.421340
C2321	C232	0.708720	0.258100	0.424240
C2331	C233	0.420050	0.194100	0.806400
C2341	C234	0.400860	0.201200	0.858880
C2351	C235	0.608970	0.446160	0.957400
C2361	C236	0.671830	0.409760	0.928460
C2371	C237	0.948400	0.242600	0.842380
C2381	C238	0.687280	0.360320	0.939220
C2391	C239	0.870290	0.303180	0.797780
C2401	C240	0.929810	0.271090	0.769030
C2411	C241	0.888190	0.275190	0.871130
C2421	C242	0.712750	0.424760	0.890680
C2431	C243	0.869630	0.276360	0.922600
C2441	C244	0.787420	0.341700	0.875740
C2451	C245	0.968280	0.241330	0.790490
C2461	C246	0.849880	0.305910	0.847370
C2471	C247	0.744970	0.326610	0.912030
C2481	C248	0.770580	0.390830	0.864610
C2491	C249	0.905170	0.246100	0.946100
C2501	C250	0.985270	0.213530	0.867090
C2511	C251	0.804930	0.249460	0.158280
C2521	C252	0.914240	0.240300	0.024960
C2531	C253	0.819930	0.254030	0.028630
C2541	C254	0.831530	0.249340	0.103420
C2551	C255	0.880120	0.246640	0.000760
C2561	C256	0.964520	0.214170	0.916710
C2571	C257	0.796010	0.254360	0.078660
C2581	C258	0.891060	0.241900	0.075760
C2591	C259	0.920550	0.305900	0.693600
C2601	C260	0.960940	0.298800	0.641120
C2611	C261	0.391030	0.042600	0.553840
C2621	C262	0.328170	0.071540	0.590240
C2631	C263	0.051600	0.157620	0.757400
C2641	C264	0.312720	0.060780	0.639680
C2651	C265	0.129710	0.202220	0.696820
C2661	C266	0.070190	0.230970	0.728910
C2671	C267	0.111810	0.128870	0.724810
C2681	C268	0.287250	0.109320	0.575240
C2691	C269	0.130370	0.077400	0.723640
C2701	C270	0.212580	0.124260	0.658300
C2711	C271	0.031720	0.209510	0.758670
C2721	C272	0.150120	0.152630	0.694090
C2731	C273	0.255030	0.087970	0.673390
C2741	C274	0.229420	0.135390	0.609170
C2751	C275	0.094830	0.053900	0.753900
C2761	C276	0.014730	0.132910	0.786470
C2771	C277	0.195070	0.841720	0.750540
C2781	C278	0.085760	0.975040	0.759700
C2791	C279	0.180070	0.971370	0.745970
C2801	C280	0.168470	0.896580	0.750660
C2811	C281	0.119880	0.999240	0.753360
C2821	C282	0.035480	0.083290	0.785830
C2831	C283	0.203990	0.921340	0.745640
C2841	C284	0.108940	0.924240	0.758100
C2851	C285	0.079450	0.306400	0.694100
C2861	C286	0.039060	0.358880	0.701200
C2871	C287	0.487470	0.457400	0.946160
C2881	C288	0.489950	0.428460	0.909760
C2891	C289	0.466620	0.342380	0.742600
C2901	C290	0.513180	0.439220	0.860320
C2911	C291	0.528750	0.297780	0.803180
C2921	C292	0.530070	0.269030	0.771090
C2931	C293	0.465490	0.371130	0.775190
C2941	C294	0.471810	0.390680	0.924760
C2951	C295	0.431410	0.422600	0.776360
C2961	C296	0.495140	0.375740	0.841700
C2971	C297	0.499900	0.290490	0.741330
C2981	C298	0.496840	0.347370	0.805910
C2991	C299	0.516390	0.412030	0.826610
C3001	C300	0.473980	0.364610	0.890830
C3011	C301	0.402630	0.446100	0.746100
C3021	C302	0.434110	0.367090	0.713530
C3031	C303	0.287330	0.658280	0.749460
C3041	C304	0.320500	0.524960	0.740300
C3051	C305	0.397410	0.528630	0.754030
C3061	C306	0.315710	0.603420	0.749340
C3071	C307	0.372480	0.500760	0.746640
C3081	C308	0.404600	0.416710	0.714170
C3091	C309	0.370970	0.578660	0.754360
C3101	C310	0.291280	0.575760	0.741900
C3111	C311	0.579950	0.193600	0.805900
C3121	C312	0.599140	0.141120	0.798800
C3131	C313	0.487470	0.946160	0.457400
C3141	C314	0.489950	0.909760	0.428460
C3151	C315	0.466620	0.742600	0.342380
C3161	C316	0.513180	0.860320	0.439220
C3171	C317	0.528750	0.803180	0.297780
C3181	C318	0.530070	0.771090	0.269030
C3191	C319	0.465490	0.775190	0.371130
C3201	C320	0.471810	0.924760	0.390680
C3211	C321	0.431410	0.776360	0.422600
C3221	C322	0.495140	0.841700	0.375740
C3231	C323	0.499900	0.741330	0.290490
C3241	C324	0.496840	0.805910	0.347370
C3251	C325	0.516390	0.826610	0.412030
C3261	C326	0.473980	0.890830	0.364610
C3271	C327	0.402630	0.746100	0.446100
C3281	C328	0.434110	0.713530	0.367090
C3291	C329	0.287330	0.749460	0.658280
C3301	C330	0.320500	0.740300	0.524960
C3311	C331	0.397410	0.754030	0.528630
C3321	C332	0.315710	0.749340	0.603420
C3331	C333	0.372480	0.746640	0.500760
C3341	C334	0.404600	0.714170	0.416710
C3351	C335	0.370970	0.754360	0.578660
C3361	C336	0.291280	0.741900	0.575760
C3371	C337	0.579950	0.805900	0.193600
C3381	C338	0.599140	0.798800	0.141120
C3391	C339	0.391030	0.553840	0.042600
C3401	C340	0.328170	0.590240	0.071540
C3411	C341	0.051600	0.757400	0.157620
C3421	C342	0.312720	0.639680	0.060780
C3431	C343	0.129710	0.696820	0.202220
C3441	C344	0.070190	0.728910	0.230970
C3451	C345	0.111810	0.724810	0.128870
C3461	C346	0.287250	0.575240	0.109320
C3471	C347	0.130370	0.723640	0.077400
C3481	C348	0.212580	0.658300	0.124260
C3491	C349	0.031720	0.758670	0.209510
C3501	C350	0.150120	0.694090	0.152630
C3511	C351	0.255030	0.673390	0.087970
C3521	C352	0.229420	0.609170	0.135390
C3531	C353	0.094830	0.753900	0.053900
C3541	C354	0.014730	0.786470	0.132910
C3551	C355	0.195070	0.750540	0.841720
C3561	C356	0.085760	0.759700	0.975040
C3571	C357	0.180070	0.745970	0.971370
C3581	C358	0.168470	0.750660	0.896580
C3591	C359	0.119880	0.753360	0.999240
C3601	C360	0.035480	0.785830	0.083290
C3611	C361	0.203990	0.745640	0.921340
C3621	C362	0.108940	0.758100	0.924240
C3631	C363	0.079450	0.694100	0.306400
C3641	C364	0.039060	0.701200	0.358880
C3651	C365	0.608970	0.957400	0.446160
C3661	C366	0.671830	0.928460	0.409760
C3671	C367	0.948400	0.842380	0.242600
C3681	C368	0.687280	0.939220	0.360320
C3691	C369	0.870290	0.797780	0.303180
C3701	C370	0.929810	0.769030	0.271090
C3711	C371	0.888190	0.871130	0.275190
C3721	C372	0.712750	0.890680	0.424760
C3731	C373	0.869630	0.922600	0.276360
C3741	C374	0.787420	0.875740	0.341700
C3751	C375	0.968280	0.790490	0.241330
C3761	C376	0.849880	0.847370	0.305910
C3771	C377	0.744970	0.912030	0.326610
C3781	C378	0.770580	0.864610	0.390830
C3791	C379	0.905170	0.946100	0.246100
C3801	C380	0.985270	0.867090	0.213530
C3811	C381	0.804930	0.158280	0.249460
C3821	C382	0.914240	0.024960	0.240300
C3831	C383	0.819930	0.028630	0.254030
C3841	C384	0.831530	0.103420	0.249340
C3851	C385	0.880120	0.000760	0.246640
C3861	C386	0.964520	0.916710	0.214170
C3871	C387	0.796010	0.078660	0.254360
C3881	C388	0.891060	0.075760	0.241900
C3891	C389	0.920550	0.693600	0.305900
C3901	C390	0.960940	0.641120	0.298800
C3911	C391	0.512530	0.542600	0.053840
C3921	C392	0.510050	0.571540	0.090240
C3931	C393	0.533380	0.657620	0.257400
C3941	C394	0.486820	0.560780	0.139680
C3951	C395	0.471250	0.702220	0.196820
C3961	C396	0.469930	0.730970	0.228910
C3971	C397	0.534510	0.628870	0.224810
C3981	C398	0.528190	0.609320	0.075240
C3991	C399	0.568590	0.577400	0.223640
C4001	C400	0.504860	0.624260	0.158300
C4011	C401	0.500100	0.709510	0.258670
C4021	C402	0.503160	0.652630	0.194090
C4031	C403	0.483610	0.587970	0.173390
C4041	C404	0.526020	0.635390	0.109170
C4051	C405	0.597370	0.553900	0.253900
C4061	C406	0.565890	0.632910	0.286470
C4071	C407	0.712670	0.341720	0.250540
C4081	C408	0.679500	0.475040	0.259700
C4091	C409	0.602590	0.471370	0.245970
C4101	C410	0.684290	0.396580	0.250660
C4111	C411	0.627520	0.499240	0.253360
C4121	C412	0.595400	0.583290	0.285830
C4131	C413	0.629030	0.421340	0.245640
C4141	C414	0.708720	0.424240	0.258100
C4151	C415	0.420050	0.806400	0.194100
C4161	C416	0.400860	0.858880	0.201200
O411	O41	0.521230	0.012040	0.560080
O421	O42	0.682910	0.250030	0.320190
O431	O43	0.504080	0.069950	0.503610
O441	O44	0.764920	0.250100	0.321520
O451	O45	0.438740	0.232450	0.780050
O461	O46	0.593350	0.487960	0.939920
O471	O47	0.753130	0.249970	0.179810
O481	O48	0.577640	0.430050	0.996390
O491	O49	0.836540	0.249900	0.178480
O501	O50	0.951240	0.267550	0.719950
O511	O51	0.406650	0.060080	0.512040
O521	O52	0.246870	0.820190	0.750030
O531	O53	0.422360	0.003610	0.569950
O541	O54	0.163460	0.821520	0.750100
O551	O55	0.048760	0.280050	0.732450
O561	O56	0.478770	0.439920	0.987960
O571	O57	0.317090	0.679810	0.749970
O581	O58	0.495920	0.496390	0.930050
O591	O59	0.235080	0.678480	0.749900
O601	O60	0.561260	0.219950	0.767550
O611	O61	0.478770	0.987960	0.439920
O621	O62	0.317090	0.749970	0.679810
O631	O63	0.495920	0.930050	0.496390
O641	O64	0.235080	0.749900	0.678480
O651	O65	0.561260	0.767550	0.219950
O661	O66	0.406650	0.512040	0.060080
O671	O67	0.246870	0.750030	0.820190
O681	O68	0.422360	0.569950	0.003610
O691	O69	0.163460	0.750100	0.821520
O701	O70	0.048760	0.732450	0.280050
O711	O71	0.593350	0.939920	0.487960
O721	O72	0.753130	0.179810	0.249970
O731	O73	0.577640	0.996390	0.430050
O741	O74	0.836540	0.178480	0.249900
O751	O75	0.951240	0.719950	0.267550
O761	O76	0.521230	0.560080	0.012040
O771	O77	0.682910	0.320190	0.250030
O781	O78	0.504080	0.503610	0.069950
O791	O79	0.764920	0.321520	0.250100
O801	O80	0.438740	0.780050	0.232450
