data_SUQJEV_clean_PM
_symmetry_space_group_name_H-M	'P1'
_cell_length_a	10.743500
_cell_length_b	21.481900
_cell_length_c	10.772100
_cell_angle_alpha	90.000000
_cell_angle_beta	105.113000
_cell_angle_gamma	90.000000
_symmetry_Int_Tables_number 1

loop_
_symmetry_equiv_pos_as_xyz
'x,y,z'

loop_
_atom_site_label
_atom_site_type_symbol
_atom_site_fract_x
_atom_site_fract_y
_atom_site_fract_z
In11	In1	0.321470	0.058070	0.186070
O11	O1	0.439100	0.990060	0.301300
O21	O2	0.200600	0.989900	0.076400
O31	O3	0.209000	0.065160	0.324300
O41	O4	0.316900	0.035030	0.522000
O51	O5	0.038000	0.039020	0.827300
O61	O6	0.855200	0.094240	0.757900
O71	O7	0.997400	0.093920	0.072800
O81	O8	0.196600	0.133210	0.096000
O91	O9	0.442600	0.133270	0.286900
O101	O10	0.563200	0.093530	0.472600
O111	O11	0.103800	0.063020	0.608200
C11	C1	0.217800	0.055500	0.441100
C21	C2	0.101100	0.069700	0.481400
C31	C3	0.983000	0.086900	0.413600
H11	H1	0.956300	0.093200	0.325200
C41	C4	0.907000	0.093700	0.501500
H21	H2	0.821500	0.106500	0.483500
C51	C5	0.983000	0.077900	0.615300
C61	C6	0.955500	0.070900	0.744400
C71	C7	0.076800	0.137200	0.075600
C81	C8	0.018100	0.199100	0.049700
C91	C9	0.900800	0.217600	0.967900
H31	H3	0.835400	0.191700	0.922200
C101	C10	0.522100	0.137500	0.395200
C111	C11	0.574500	0.199400	0.441100
C121	C12	0.663000	0.217500	0.547500
H41	H4	0.714500	0.191700	0.609400
C131	C13	0.895800	0.217300	0.066000
H51	H5	0.829500	0.191200	0.074400
In21	In2	0.678530	0.558070	0.813930
O121	O12	0.560900	0.490060	0.698700
O131	O13	0.799400	0.489900	0.923600
O141	O14	0.791000	0.565160	0.675700
O151	O15	0.683100	0.535030	0.478000
O161	O16	0.962000	0.539020	0.172700
O171	O17	0.144800	0.594240	0.242100
O181	O18	0.002600	0.593920	0.927200
O191	O19	0.803400	0.633210	0.904000
O201	O20	0.557400	0.633270	0.713100
O211	O21	0.436800	0.593530	0.527400
O221	O22	0.896200	0.563020	0.391800
C141	C14	0.782200	0.555500	0.558900
C151	C15	0.898900	0.569700	0.518600
C161	C16	0.017000	0.586900	0.586400
H61	H6	0.043700	0.593200	0.674800
C171	C17	0.093000	0.593700	0.498500
H71	H7	0.178500	0.606500	0.516500
C181	C18	0.017000	0.577900	0.384700
C191	C19	0.044500	0.570900	0.255600
C201	C20	0.923200	0.637200	0.924400
C211	C21	0.981900	0.699100	0.950300
C221	C22	0.099200	0.717600	0.032100
H81	H8	0.164600	0.691700	0.077800
C231	C23	0.477900	0.637500	0.604800
C241	C24	0.425500	0.699400	0.558900
C251	C25	0.337000	0.717500	0.452500
H91	H9	0.285500	0.691700	0.390600
C261	C26	0.104200	0.717300	0.934000
H101	H10	0.170500	0.691200	0.925600
In31	In3	0.678530	0.941930	0.813930
O231	O23	0.560900	0.009940	0.698700
O241	O24	0.799400	0.010100	0.923600
O251	O25	0.791000	0.934840	0.675700
O261	O26	0.683100	0.964970	0.478000
O271	O27	0.962000	0.960980	0.172700
O281	O28	0.144800	0.905760	0.242100
O291	O29	0.002600	0.906080	0.927200
O301	O30	0.803400	0.866790	0.904000
O311	O31	0.557400	0.866730	0.713100
O321	O32	0.436800	0.906470	0.527400
O331	O33	0.896200	0.936980	0.391800
C271	C27	0.782200	0.944500	0.558900
C281	C28	0.898900	0.930300	0.518600
C291	C29	0.017000	0.913100	0.586400
H111	H11	0.043700	0.906800	0.674800
C301	C30	0.093000	0.906300	0.498500
H121	H12	0.178500	0.893500	0.516500
C311	C31	0.017000	0.922100	0.384700
C321	C32	0.044500	0.929100	0.255600
C331	C33	0.923200	0.862800	0.924400
C341	C34	0.981900	0.800900	0.950300
C351	C35	0.099200	0.782400	0.032100
H131	H13	0.164600	0.808300	0.077800
C361	C36	0.477900	0.862500	0.604800
C371	C37	0.425500	0.800600	0.558900
C381	C38	0.337000	0.782500	0.452500
H141	H14	0.285500	0.808300	0.390600
C391	C39	0.104200	0.782700	0.934000
H151	H15	0.170500	0.808800	0.925600
In41	In4	0.321470	0.441930	0.186070
O341	O34	0.439100	0.509940	0.301300
O351	O35	0.200600	0.510100	0.076400
O361	O36	0.209000	0.434840	0.324300
O371	O37	0.316900	0.464970	0.522000
O381	O38	0.038000	0.460980	0.827300
O391	O39	0.855200	0.405760	0.757900
O401	O40	0.997400	0.406080	0.072800
O411	O41	0.196600	0.366790	0.096000
O421	O42	0.442600	0.366730	0.286900
O431	O43	0.563200	0.406470	0.472600
O441	O44	0.103800	0.436980	0.608200
C401	C40	0.217800	0.444500	0.441100
C411	C41	0.101100	0.430300	0.481400
C421	C42	0.983000	0.413100	0.413600
H161	H16	0.956300	0.406800	0.325200
C431	C43	0.907000	0.406300	0.501500
H171	H17	0.821500	0.393500	0.483500
C441	C44	0.983000	0.422100	0.615300
C451	C45	0.955500	0.429100	0.744400
C461	C46	0.076800	0.362800	0.075600
C471	C47	0.018100	0.300900	0.049700
C481	C48	0.900800	0.282400	0.967900
H181	H18	0.835400	0.308300	0.922200
C491	C49	0.522100	0.362500	0.395200
C501	C50	0.574500	0.300600	0.441100
C511	C51	0.663000	0.282500	0.547500
H191	H19	0.714500	0.308300	0.609400
C521	C52	0.895800	0.282700	0.066000
H201	H20	0.829500	0.308800	0.074400
In51	In5	0.000000	0.000000	0.000000
In61	In6	0.000000	0.500000	0.000000
In71	In7	0.500000	0.000000	0.500000
In81	In8	0.500000	0.500000	0.500000
O451	O45	0.095400	0.250000	0.080100
O461	O46	0.517500	0.250000	0.371300
O471	O47	0.904600	0.750000	0.919900
O481	O48	0.482500	0.750000	0.628700
