data_SURDOA_clean_PM
_symmetry_space_group_name_H-M	'P1'
_cell_length_a	26.323000
_cell_length_b	14.696000
_cell_length_c	26.630000
_cell_angle_alpha	90.000000
_cell_angle_beta	157.747000
_cell_angle_gamma	90.000000
_symmetry_Int_Tables_number 1

loop_
_symmetry_equiv_pos_as_xyz
'x,y,z'

loop_
_atom_site_label
_atom_site_type_symbol
_atom_site_fract_x
_atom_site_fract_y
_atom_site_fract_z
Co11	Co1	0.405530	0.453110	0.476650
O11	O1	0.281300	0.403100	0.311800
O21	O2	0.137300	0.451700	0.237800
O31	O3	0.583800	0.421900	0.612200
O41	O4	0.649100	0.461800	0.748400
N11	N1	0.372900	0.371400	0.507200
N21	N2	0.069500	0.226500	0.962100
N31	N3	0.109600	0.080500	0.011500
C11	C1	0.162200	0.418200	0.219000
C21	C2	0.049900	0.395600	0.080400
C31	C3	0.918500	0.417000	0.973300
H11	H1	0.900400	0.441300	0.988300
C41	C4	0.814400	0.402300	0.844500
C51	C5	0.673300	0.431800	0.728300
C61	C6	0.843100	0.366600	0.824200
H21	H2	0.773200	0.356500	0.737800
C71	C7	0.972900	0.345200	0.928300
C81	C8	0.075300	0.361200	0.056900
H31	H3	0.163400	0.347900	0.128500
C91	C9	0.004100	0.315600	0.904400
H41	H4	0.921500	0.313200	0.809600
H51	H5	0.062200	0.360400	0.941900
C101	C10	0.175800	0.203600	0.029300
H61	H6	0.222100	0.241700	0.049900
C111	C11	0.199500	0.114800	0.059600
H71	H7	0.267600	0.081200	0.106700
C121	C12	0.032800	0.151800	0.952900
H81	H8	0.961900	0.149400	0.910800
C131	C13	0.316000	0.290000	0.450400
H91	H9	0.308900	0.264900	0.411900
C141	C14	0.267000	0.241100	0.445800
H101	H10	0.227300	0.184700	0.404000
C151	C15	0.276600	0.275200	0.502600
C161	C16	0.339500	0.357200	0.564900
H111	H11	0.351100	0.382500	0.607200
C171	C17	0.385800	0.402700	0.565800
H121	H12	0.428500	0.458400	0.609500
Co21	Co2	0.094470	0.953110	0.023350
O51	O5	0.218700	0.903100	0.188200
O61	O6	0.362700	0.951700	0.262200
O71	O7	0.916200	0.921900	0.887800
O81	O8	0.850900	0.961800	0.751600
N41	N4	0.127100	0.871400	0.992800
N51	N5	0.430500	0.726500	0.537900
N61	N6	0.390400	0.580500	0.488500
C181	C18	0.337800	0.918200	0.281000
C191	C19	0.450100	0.895600	0.419600
C201	C20	0.581500	0.917000	0.526700
H131	H13	0.599600	0.941300	0.511700
C211	C21	0.685600	0.902300	0.655500
C221	C22	0.826700	0.931800	0.771700
C231	C23	0.656900	0.866600	0.675800
H141	H14	0.726800	0.856500	0.762200
C241	C24	0.527100	0.845200	0.571700
C251	C25	0.424700	0.861200	0.443100
H151	H15	0.336600	0.847900	0.371500
C261	C26	0.495900	0.815600	0.595600
H161	H16	0.578500	0.813200	0.690400
H171	H17	0.437800	0.860400	0.558100
C271	C27	0.324200	0.703600	0.470700
H181	H18	0.277900	0.741700	0.450100
C281	C28	0.300500	0.614800	0.440400
H191	H19	0.232400	0.581200	0.393300
C291	C29	0.467200	0.651800	0.547100
H201	H20	0.538100	0.649400	0.589200
C301	C30	0.184000	0.790000	0.049600
H211	H21	0.191100	0.764900	0.088100
C311	C31	0.233000	0.741100	0.054200
H221	H22	0.272700	0.684700	0.096000
C321	C32	0.223400	0.775200	0.997400
C331	C33	0.160500	0.857200	0.935100
H231	H23	0.148900	0.882500	0.892800
C341	C34	0.114200	0.902700	0.934200
H241	H24	0.071500	0.958400	0.890500
Co31	Co3	0.094470	0.046890	0.523350
O91	O9	0.218700	0.096900	0.688200
O101	O10	0.362700	0.048300	0.762200
O111	O11	0.916200	0.078100	0.387800
O121	O12	0.850900	0.038200	0.251600
N71	N7	0.127100	0.128600	0.492800
N81	N8	0.430500	0.273500	0.037900
N91	N9	0.390400	0.419500	0.988500
C351	C35	0.337800	0.081800	0.781000
C361	C36	0.450100	0.104400	0.919600
C371	C37	0.581500	0.083000	0.026700
H251	H25	0.599600	0.058700	0.011700
C381	C38	0.685600	0.097700	0.155500
C391	C39	0.826700	0.068200	0.271700
C401	C40	0.656900	0.133400	0.175800
H261	H26	0.726800	0.143500	0.262200
C411	C41	0.527100	0.154800	0.071700
C421	C42	0.424700	0.138800	0.943100
H271	H27	0.336600	0.152100	0.871500
C431	C43	0.495900	0.184400	0.095600
H281	H28	0.578500	0.186800	0.190400
H291	H29	0.437800	0.139600	0.058100
C441	C44	0.324200	0.296400	0.970700
H301	H30	0.277900	0.258300	0.950100
C451	C45	0.300500	0.385200	0.940400
H311	H31	0.232400	0.418800	0.893300
C461	C46	0.467200	0.348200	0.047100
H321	H32	0.538100	0.350600	0.089200
C471	C47	0.184000	0.210000	0.549600
H331	H33	0.191100	0.235100	0.588100
C481	C48	0.233000	0.258900	0.554200
H341	H34	0.272700	0.315300	0.596000
C491	C49	0.223400	0.224800	0.497400
C501	C50	0.160500	0.142800	0.435100
H351	H35	0.148900	0.117500	0.392800
C511	C51	0.114200	0.097300	0.434200
H361	H36	0.071500	0.041600	0.390500
Co41	Co4	0.405530	0.546890	0.976650
O131	O13	0.281300	0.596900	0.811800
O141	O14	0.137300	0.548300	0.737800
O151	O15	0.583800	0.578100	0.112200
O161	O16	0.649100	0.538200	0.248400
N101	N10	0.372900	0.628600	0.007200
N111	N11	0.069500	0.773500	0.462100
N121	N12	0.109600	0.919500	0.511500
C521	C52	0.162200	0.581800	0.719000
C531	C53	0.049900	0.604400	0.580400
C541	C54	0.918500	0.583000	0.473300
H371	H37	0.900400	0.558700	0.488300
C551	C55	0.814400	0.597700	0.344500
C561	C56	0.673300	0.568200	0.228300
C571	C57	0.843100	0.633400	0.324200
H381	H38	0.773200	0.643500	0.237800
C581	C58	0.972900	0.654800	0.428300
C591	C59	0.075300	0.638800	0.556900
H391	H39	0.163400	0.652100	0.628500
C601	C60	0.004100	0.684400	0.404400
H401	H40	0.921500	0.686800	0.309600
H411	H41	0.062200	0.639600	0.441900
C611	C61	0.175800	0.796400	0.529300
H421	H42	0.222100	0.758300	0.549900
C621	C62	0.199500	0.885200	0.559600
H431	H43	0.267600	0.918800	0.606700
C631	C63	0.032800	0.848200	0.452900
H441	H44	0.961900	0.850600	0.410800
C641	C64	0.316000	0.710000	0.950400
H451	H45	0.308900	0.735100	0.911900
C651	C65	0.267000	0.758900	0.945800
H461	H46	0.227300	0.815300	0.904000
C661	C66	0.276600	0.724800	0.002600
C671	C67	0.339500	0.642800	0.064900
H471	H47	0.351100	0.617500	0.107200
C681	C68	0.385800	0.597300	0.065800
H481	H48	0.428500	0.541600	0.109500
Co51	Co5	0.905530	0.953110	0.476650
O171	O17	0.781300	0.903100	0.311800
O181	O18	0.637300	0.951700	0.237800
O191	O19	0.083800	0.921900	0.612200
O201	O20	0.149100	0.961800	0.748400
N131	N13	0.872900	0.871400	0.507200
N141	N14	0.569500	0.726500	0.962100
N151	N15	0.609600	0.580500	0.011500
C691	C69	0.662200	0.918200	0.219000
C701	C70	0.549900	0.895600	0.080400
C711	C71	0.418500	0.917000	0.973300
H491	H49	0.400400	0.941300	0.988300
C721	C72	0.314400	0.902300	0.844500
C731	C73	0.173300	0.931800	0.728300
C741	C74	0.343100	0.866600	0.824200
H501	H50	0.273200	0.856500	0.737800
C751	C75	0.472900	0.845200	0.928300
C761	C76	0.575300	0.861200	0.056900
H511	H51	0.663400	0.847900	0.128500
C771	C77	0.504100	0.815600	0.904400
H521	H52	0.421500	0.813200	0.809600
H531	H53	0.562200	0.860400	0.941900
C781	C78	0.675800	0.703600	0.029300
H541	H54	0.722100	0.741700	0.049900
C791	C79	0.699500	0.614800	0.059600
H551	H55	0.767600	0.581200	0.106700
C801	C80	0.532800	0.651800	0.952900
H561	H56	0.461900	0.649400	0.910800
C811	C81	0.816000	0.790000	0.450400
H571	H57	0.808900	0.764900	0.411900
C821	C82	0.767000	0.741100	0.445800
H581	H58	0.727300	0.684700	0.404000
C831	C83	0.776600	0.775200	0.502600
C841	C84	0.839500	0.857200	0.564900
H591	H59	0.851100	0.882500	0.607200
C851	C85	0.885800	0.902700	0.565800
H601	H60	0.928500	0.958400	0.609500
Co61	Co6	0.594470	0.453110	0.023350
O211	O21	0.718700	0.403100	0.188200
O221	O22	0.862700	0.451700	0.262200
O231	O23	0.416200	0.421900	0.887800
O241	O24	0.350900	0.461800	0.751600
N161	N16	0.627100	0.371400	0.992800
N171	N17	0.930500	0.226500	0.537900
N181	N18	0.890400	0.080500	0.488500
C861	C86	0.837800	0.418200	0.281000
C871	C87	0.950100	0.395600	0.419600
C881	C88	0.081500	0.417000	0.526700
H611	H61	0.099600	0.441300	0.511700
C891	C89	0.185600	0.402300	0.655500
C901	C90	0.326700	0.431800	0.771700
C911	C91	0.156900	0.366600	0.675800
H621	H62	0.226800	0.356500	0.762200
C921	C92	0.027100	0.345200	0.571700
C931	C93	0.924700	0.361200	0.443100
H631	H63	0.836600	0.347900	0.371500
C941	C94	0.995900	0.315600	0.595600
H641	H64	0.078500	0.313200	0.690400
H651	H65	0.937800	0.360400	0.558100
C951	C95	0.824200	0.203600	0.470700
H661	H66	0.777900	0.241700	0.450100
C961	C96	0.800500	0.114800	0.440400
H671	H67	0.732400	0.081200	0.393300
C971	C97	0.967200	0.151800	0.547100
H681	H68	0.038100	0.149400	0.589200
C981	C98	0.684000	0.290000	0.049600
H691	H69	0.691100	0.264900	0.088100
C991	C99	0.733000	0.241100	0.054200
H701	H70	0.772700	0.184700	0.096000
C1001	C100	0.723400	0.275200	0.997400
C1011	C101	0.660500	0.357200	0.935100
H711	H71	0.648900	0.382500	0.892800
C1021	C102	0.614200	0.402700	0.934200
H721	H72	0.571500	0.458400	0.890500
Co71	Co7	0.594470	0.546890	0.523350
O251	O25	0.718700	0.596900	0.688200
O261	O26	0.862700	0.548300	0.762200
O271	O27	0.416200	0.578100	0.387800
O281	O28	0.350900	0.538200	0.251600
N191	N19	0.627100	0.628600	0.492800
N201	N20	0.930500	0.773500	0.037900
N211	N21	0.890400	0.919500	0.988500
C1031	C103	0.837800	0.581800	0.781000
C1041	C104	0.950100	0.604400	0.919600
C1051	C105	0.081500	0.583000	0.026700
H731	H73	0.099600	0.558700	0.011700
C1061	C106	0.185600	0.597700	0.155500
C1071	C107	0.326700	0.568200	0.271700
C1081	C108	0.156900	0.633400	0.175800
H741	H74	0.226800	0.643500	0.262200
C1091	C109	0.027100	0.654800	0.071700
C1101	C110	0.924700	0.638800	0.943100
H751	H75	0.836600	0.652100	0.871500
C1111	C111	0.995900	0.684400	0.095600
H761	H76	0.078500	0.686800	0.190400
H771	H77	0.937800	0.639600	0.058100
C1121	C112	0.824200	0.796400	0.970700
H781	H78	0.777900	0.758300	0.950100
C1131	C113	0.800500	0.885200	0.940400
H791	H79	0.732400	0.918800	0.893300
C1141	C114	0.967200	0.848200	0.047100
H801	H80	0.038100	0.850600	0.089200
C1151	C115	0.684000	0.710000	0.549600
H811	H81	0.691100	0.735100	0.588100
C1161	C116	0.733000	0.758900	0.554200
H821	H82	0.772700	0.815300	0.596000
C1171	C117	0.723400	0.724800	0.497400
C1181	C118	0.660500	0.642800	0.435100
H831	H83	0.648900	0.617500	0.392800
C1191	C119	0.614200	0.597300	0.434200
H841	H84	0.571500	0.541600	0.390500
Co81	Co8	0.905530	0.046890	0.976650
O291	O29	0.781300	0.096900	0.811800
O301	O30	0.637300	0.048300	0.737800
O311	O31	0.083800	0.078100	0.112200
O321	O32	0.149100	0.038200	0.248400
N221	N22	0.872900	0.128600	0.007200
N231	N23	0.569500	0.273500	0.462100
N241	N24	0.609600	0.419500	0.511500
C1201	C120	0.662200	0.081800	0.719000
C1211	C121	0.549900	0.104400	0.580400
C1221	C122	0.418500	0.083000	0.473300
H851	H85	0.400400	0.058700	0.488300
C1231	C123	0.314400	0.097700	0.344500
C1241	C124	0.173300	0.068200	0.228300
C1251	C125	0.343100	0.133400	0.324200
H861	H86	0.273200	0.143500	0.237800
C1261	C126	0.472900	0.154800	0.428300
C1271	C127	0.575300	0.138800	0.556900
H871	H87	0.663400	0.152100	0.628500
C1281	C128	0.504100	0.184400	0.404400
H881	H88	0.421500	0.186800	0.309600
H891	H89	0.562200	0.139600	0.441900
C1291	C129	0.675800	0.296400	0.529300
H901	H90	0.722100	0.258300	0.549900
C1301	C130	0.699500	0.385200	0.559600
H911	H91	0.767600	0.418800	0.606700
C1311	C131	0.532800	0.348200	0.452900
H921	H92	0.461900	0.350600	0.410800
C1321	C132	0.816000	0.210000	0.950400
H931	H93	0.808900	0.235100	0.911900
C1331	C133	0.767000	0.258900	0.945800
H941	H94	0.727300	0.315300	0.904000
C1341	C134	0.776600	0.224800	0.002600
C1351	C135	0.839500	0.142800	0.064900
H951	H95	0.851100	0.117500	0.107200
C1361	C136	0.885800	0.097300	0.065800
H961	H96	0.928500	0.041600	0.109500
